QSR.pdb
     RDKit          3D

 27 26  0  0  1  0  0  0  0  0999 V2000
   29.5115  -19.3666  -18.5904 N   0  0  0  0  0  0  0  0  0  0  0  0
   29.7224  -20.7595  -18.6418 C   0  0  0  0  0  0  0  0  0  0  0  0
   30.7593  -21.2208  -19.1764 O   0  0  0  0  0  0  0  0  0  0  0  0
   28.7235  -21.6645  -18.0671 C   0  0  0  0  0  0  0  0  0  0  0  0
   27.4873  -20.9007  -17.5777 C   0  0  0  0  0  0  0  0  0  0  0  0
   27.9547  -20.0202  -16.4312 C   0  0  2  0  0  0  0  0  0  0  0  0
   28.4033  -20.9191  -15.3838 N   0  0  0  0  0  0  0  0  0  0  0  0
   26.8915  -19.1646  -15.9045 C   0  0  0  0  0  0  0  0  0  0  0  0
   25.8229  -19.6775  -15.4324 O   0  0  0  0  0  0  0  0  0  0  0  0
   26.7453  -15.1441  -16.7309 O   0  0  0  0  0  0  0  0  0  0  0  0
   26.3061  -15.4772  -15.4683 C   0  0  0  0  0  0  0  0  0  0  0  0
   25.8168  -16.9302  -15.4113 C   0  0  2  0  0  0  0  0  0  0  0  0
   26.9307  -17.7401  -15.8629 N   0  0  0  0  0  0  0  0  0  0  0  0
   24.6472  -17.0068  -16.3131 C   0  0  0  0  0  0  0  0  0  0  0  0
   24.7424  -17.4480  -17.4885 O   0  0  0  0  0  0  0  0  0  0  0  0
   16.9032  -19.6389  -14.6320 N   0  0  0  0  0  0  0  0  0  0  0  0
   18.0289  -20.1152  -15.3705 C   0  0  0  0  0  0  0  0  0  0  0  0
   18.1900  -21.3922  -15.5004 N   0  0  0  0  0  0  0  0  0  0  0  0
   18.9481  -19.1864  -15.9471 N   0  0  0  0  0  0  0  0  0  0  0  0
   18.6173  -17.7954  -16.0339 C   0  0  0  0  0  0  0  0  0  0  0  0
   19.7727  -17.0827  -16.6939 C   0  0  0  0  0  0  0  0  0  0  0  0
   21.0363  -17.1701  -15.9044 C   0  0  0  0  0  0  0  0  0  0  0  0
   22.1934  -16.5304  -16.6261 C   0  0  2  0  0  0  0  0  0  0  0  0
   23.4026  -16.5572  -15.7908 N   0  0  0  0  0  0  0  0  0  0  0  0
   21.9211  -15.1570  -17.1014 C   0  0  0  0  0  0  0  0  0  0  0  0
   21.1260  -14.8795  -18.1977 O   0  0  0  0  0  0  0  0  0  0  0  0
   22.4294  -14.1815  -16.4917 O   0  0  0  0  0  0  0  0  0  0  0  0
  1  2  1  0
  2  4  1  0
  2  3  2  0
  4  5  1  0
  5  6  1  0
  6  7  1  1
  6  8  1  0
  8 13  1  0
  8  9  2  0
 11 10  1  0
 12 11  1  6
 13 12  1  0
 14 12  1  0
 14 15  2  0
 17 19  1  0
 17 16  1  0
 18 17  2  0
 20 19  1  0
 20 21  1  0
 21 22  1  0
 23 22  1  1
 23 24  1  0
 24 14  1  0
 25 23  1  0
 26 25  1  0
 27 25  2  0
M  END
$$$$
