QSR.pdb
     RDKit          3D

 27 26  0  0  1  0  0  0  0  0999 V2000
   29.0947  -15.2666  -19.5337 N   0  0  0  0  0  0  0  0  0  0  0  0
   27.8781  -15.9226  -19.2563 C   0  0  0  0  0  0  0  0  0  0  0  0
   27.0028  -16.0312  -20.1484 O   0  0  0  0  0  0  0  0  0  0  0  0
   27.6426  -16.4764  -17.9202 C   0  0  0  0  0  0  0  0  0  0  0  0
   27.2466  -17.9562  -17.9860 C   0  0  0  0  0  0  0  0  0  0  0  0
   28.4231  -18.7391  -17.4283 C   0  0  2  0  0  0  0  0  0  0  0  0
   28.9988  -19.4620  -18.5472 N   0  0  0  0  0  0  0  0  0  0  0  0
   28.0279  -19.6947  -16.3936 C   0  0  0  0  0  0  0  0  0  0  0  0
   27.2686  -20.6796  -16.6790 O   0  0  0  0  0  0  0  0  0  0  0  0
   29.5348  -19.5806  -12.4993 O   0  0  0  0  0  0  0  0  0  0  0  0
   29.1174  -20.7713  -13.0525 C   0  0  0  0  0  0  0  0  0  0  0  0
   27.9452  -20.5585  -14.0192 C   0  0  2  0  0  0  0  0  0  0  0  0
   28.4265  -19.6339  -15.0262 N   0  0  0  0  0  0  0  0  0  0  0  0
   26.8392  -20.0029  -13.2099 C   0  0  0  0  0  0  0  0  0  0  0  0
   26.6819  -18.7624  -13.0627 O   0  0  0  0  0  0  0  0  0  0  0  0
   18.3613  -21.9135  -11.7892 N   0  0  0  0  0  0  0  0  0  0  0  0
   18.7772  -21.0151  -10.7601 C   0  0  0  0  0  0  0  0  0  0  0  0
   17.8811  -20.5221   -9.9679 N   0  0  0  0  0  0  0  0  0  0  0  0
   20.1585  -20.6788  -10.6226 N   0  0  0  0  0  0  0  0  0  0  0  0
   21.1194  -21.1495  -11.5751 C   0  0  0  0  0  0  0  0  0  0  0  0
   22.4731  -20.6170  -11.1724 C   0  0  0  0  0  0  0  0  0  0  0  0
   23.5614  -21.0321  -12.1054 C   0  0  0  0  0  0  0  0  0  0  0  0
   24.9022  -20.4957  -11.6767 C   0  0  2  0  0  0  0  0  0  0  0  0
   25.9558  -20.9374  -12.6014 N   0  0  0  0  0  0  0  0  0  0  0  0
   25.2641  -20.8257  -10.2815 C   0  0  0  0  0  0  0  0  0  0  0  0
   25.0459  -19.9673   -9.2201 O   0  0  0  0  0  0  0  0  0  0  0  0
   25.7977  -21.9362  -10.0292 O   0  0  0  0  0  0  0  0  0  0  0  0
  1  2  1  0
  2  4  1  0
  2  3  2  0
  4  5  1  0
  5  6  1  0
  6  7  1  6
  6  8  1  0
  8 13  1  0
  8  9  2  0
 11 10  1  0
 12 11  1  1
 13 12  1  0
 14 12  1  0
 14 15  2  0
 17 19  1  0
 17 16  1  0
 18 17  2  0
 20 19  1  0
 20 21  1  0
 21 22  1  0
 23 22  1  6
 23 24  1  0
 24 14  1  0
 25 23  1  0
 26 25  1  0
 27 25  2  0
M  END
$$$$
