QSR.pdb
     RDKit          3D

 27 26  0  0  1  0  0  0  0  0999 V2000
    9.6574  -16.5480    1.9674 N   0  0  0  0  0  0  0  0  0  0  0  0
   10.6986  -16.7825    1.0463 C   0  0  0  0  0  0  0  0  0  0  0  0
   11.0784  -15.8666    0.2778 O   0  0  0  0  0  0  0  0  0  0  0  0
   11.3338  -18.1018    0.9923 C   0  0  0  0  0  0  0  0  0  0  0  0
   12.0414  -18.4402    2.3099 C   0  0  0  0  0  0  0  0  0  0  0  0
   12.7476  -19.7669    2.0877 C   0  0  2  0  0  0  0  0  0  0  0  0
   11.7054  -20.7725    1.9928 N   0  0  0  0  0  0  0  0  0  0  0  0
   13.6522  -20.1173    3.1825 C   0  0  0  0  0  0  0  0  0  0  0  0
   13.3871  -21.1008    3.9508 O   0  0  0  0  0  0  0  0  0  0  0  0
   17.0605  -21.6678    5.3015 O   0  0  0  0  0  0  0  0  0  0  0  0
   16.2931  -21.1743    4.2693 C   0  0  0  0  0  0  0  0  0  0  0  0
   15.7114  -19.7969    4.6136 C   0  0  2  0  0  0  0  0  0  0  0  0
   14.8644  -19.4350    3.4945 N   0  0  0  0  0  0  0  0  0  0  0  0
   16.8682  -18.8901    4.7763 C   0  0  0  0  0  0  0  0  0  0  0  0
   17.4927  -18.4259    3.7865 O   0  0  0  0  0  0  0  0  0  0  0  0
   18.3792  -10.9879    6.8953 N   0  0  0  0  0  0  0  0  0  0  0  0
   19.6620  -11.6111    6.9692 C   0  0  0  0  0  0  0  0  0  0  0  0
   20.7104  -10.8611    7.0772 N   0  0  0  0  0  0  0  0  0  0  0  0
   19.7667  -13.0348    6.9234 N   0  0  0  0  0  0  0  0  0  0  0  0
   18.6132  -13.8400    6.6527 C   0  0  0  0  0  0  0  0  0  0  0  0
   19.0391  -15.2878    6.6826 C   0  0  0  0  0  0  0  0  0  0  0  0
   17.9088  -16.2308    6.4359 C   0  0  0  0  0  0  0  0  0  0  0  0
   18.3753  -17.6619    6.3782 C   0  0  2  0  0  0  0  0  0  0  0  0
   17.2462  -18.5635    6.1084 N   0  0  0  0  0  0  0  0  0  0  0  0
   19.1158  -18.1024    7.5798 C   0  0  0  0  0  0  0  0  0  0  0  0
   20.4731  -17.9012    7.7481 O   0  0  0  0  0  0  0  0  0  0  0  0
   18.4977  -18.6908    8.5036 O   0  0  0  0  0  0  0  0  0  0  0  0
  1  2  1  0
  2  4  1  0
  2  3  2  0
  4  5  1  0
  5  6  1  0
  6  7  1  1
  6  8  1  0
  8 13  1  0
  8  9  2  0
 11 10  1  0
 12 11  1  6
 13 12  1  0
 14 12  1  0
 14 15  2  0
 17 19  1  0
 17 16  1  0
 18 17  2  0
 20 19  1  0
 20 21  1  0
 21 22  1  0
 23 22  1  1
 23 24  1  0
 24 14  1  0
 25 23  1  0
 26 25  1  0
 27 25  2  0
M  END
$$$$
