WQR.pdb
     RDKit          3D

 35 36  0  0  1  0  0  0  0  0999 V2000
    6.3698  -17.9347   23.4073 N   0  0  0  0  0  0  0  0  0  0  0  0
    7.3524  -16.9757   22.9675 C   0  0  1  0  0  0  0  0  0  0  0  0
    8.1508  -16.4211   24.1035 C   0  0  0  0  0  0  0  0  0  0  0  0
    7.4691  -15.2908   24.7467 C   0  0  0  0  0  0  0  0  0  0  0  0
    6.8026  -15.3237   25.9469 C   0  0  0  0  0  0  0  0  0  0  0  0
    6.3281  -14.1043   26.2520 N   0  0  0  0  0  0  0  0  0  0  0  0
    6.6914  -13.2877   25.2439 C   0  0  0  0  0  0  0  0  0  0  0  0
    6.4908  -11.9433   24.9926 C   0  0  0  0  0  0  0  0  0  0  0  0
    6.9564  -11.3161   23.8707 C   0  0  0  0  0  0  0  0  0  0  0  0
    7.6538  -12.0247   22.9394 C   0  0  0  0  0  0  0  0  0  0  0  0
    7.8816  -13.3598   23.1378 C   0  0  0  0  0  0  0  0  0  0  0  0
    7.4071  -14.0033   24.2855 C   0  0  0  0  0  0  0  0  0  0  0  0
    8.2109  -17.6336   21.9415 C   0  0  0  0  0  0  0  0  0  0  0  0
    8.4427  -18.8736   21.9825 O   0  0  0  0  0  0  0  0  0  0  0  0
   11.2181  -15.4199   16.5828 N   0  0  0  0  0  0  0  0  0  0  0  0
   11.5160  -16.7875   16.7676 C   0  0  0  0  0  0  0  0  0  0  0  0
   12.0217  -17.4778   15.8598 O   0  0  0  0  0  0  0  0  0  0  0  0
   11.2210  -17.4182   18.0710 C   0  0  0  0  0  0  0  0  0  0  0  0
   10.0728  -16.7604   18.7849 C   0  0  0  0  0  0  0  0  0  0  0  0
    9.9039  -17.4907   20.1264 C   0  0  2  0  0  0  0  0  0  0  0  0
    8.8202  -16.9118   20.8567 N   0  0  0  0  0  0  0  0  0  0  0  0
   11.1842  -17.4665   20.8856 C   0  0  0  0  0  0  0  0  0  0  0  0
   11.6463  -16.3891   21.3390 O   0  0  0  0  0  0  0  0  0  0  0  0
   14.8627  -22.1298   25.9813 N   0  0  0  0  0  0  0  0  0  0  0  0
   14.0759  -22.8234   25.0318 C   0  0  0  0  0  0  0  0  0  0  0  0
   14.5562  -23.8989   24.5160 N   0  0  0  0  0  0  0  0  0  0  0  0
   12.7946  -22.3682   24.6435 N   0  0  0  0  0  0  0  0  0  0  0  0
   12.5660  -20.9934   24.3032 C   0  0  0  0  0  0  0  0  0  0  0  0
   12.2258  -20.8162   22.8307 C   0  0  0  0  0  0  0  0  0  0  0  0
   13.4129  -20.1557   22.1740 C   0  0  0  0  0  0  0  0  0  0  0  0
   13.1894  -18.6967   21.8385 C   0  0  2  0  0  0  0  0  0  0  0  0
   11.9230  -18.6516   21.1228 N   0  0  0  0  0  0  0  0  0  0  0  0
   14.2802  -18.0836   21.0651 C   0  0  0  0  0  0  0  0  0  0  0  0
   15.4275  -17.6155   21.6855 O   0  0  0  0  0  0  0  0  0  0  0  0
   14.2132  -17.9623   19.8241 O   0  0  0  0  0  0  0  0  0  0  0  0
  2 13  1  0
  2  1  1  1
  3  2  1  0
  4 12  1  0
  4  3  1  0
  5  4  2  0
  6  5  1  0
  6  7  1  0
  7 12  2  0
  8  7  1  0
  8  9  2  0
  9 10  1  0
 10 11  2  0
 12 11  1  0
 13 14  2  0
 15 16  1  0
 16 17  2  0
 18 19  1  0
 18 16  1  0
 20 19  1  6
 20 21  1  0
 20 22  1  0
 21 13  1  0
 22 32  1  0
 23 22  2  0
 25 24  1  0
 25 26  2  0
 27 25  1  0
 28 27  1  0
 29 28  1  0
 30 29  1  0
 31 30  1  6
 31 33  1  0
 32 31  1  0
 33 34  1  0
 35 33  2  0
M  END
$$$$
