WQR.pdb
     RDKit          3D

 35 36  0  0  1  0  0  0  0  0999 V2000
    8.1245  -16.9595   25.0656 N   0  0  0  0  0  0  0  0  0  0  0  0
    7.0861  -17.1208   24.0785 C   0  0  1  0  0  0  0  0  0  0  0  0
    5.8933  -16.2664   24.3663 C   0  0  0  0  0  0  0  0  0  0  0  0
    6.1486  -15.3287   25.4669 C   0  0  0  0  0  0  0  0  0  0  0  0
    6.0988  -15.6209   26.8078 C   0  0  0  0  0  0  0  0  0  0  0  0
    6.4208  -14.5377   27.5346 N   0  0  0  0  0  0  0  0  0  0  0  0
    6.6771  -13.5485   26.6567 C   0  0  0  0  0  0  0  0  0  0  0  0
    7.0459  -12.2241   26.8008 C   0  0  0  0  0  0  0  0  0  0  0  0
    7.2477  -11.3859   25.7399 C   0  0  0  0  0  0  0  0  0  0  0  0
    7.0845  -11.8505   24.4696 C   0  0  0  0  0  0  0  0  0  0  0  0
    6.7199  -13.1546   24.2692 C   0  0  0  0  0  0  0  0  0  0  0  0
    6.5140  -14.0142   25.3532 C   0  0  0  0  0  0  0  0  0  0  0  0
    7.6755  -16.8359   22.7391 C   0  0  0  0  0  0  0  0  0  0  0  0
    7.3356  -17.5012   21.7218 O   0  0  0  0  0  0  0  0  0  0  0  0
    6.9307  -13.0424   18.6370 N   0  0  0  0  0  0  0  0  0  0  0  0
    8.2779  -13.3220   18.3205 C   0  0  0  0  0  0  0  0  0  0  0  0
    8.8507  -12.7818   17.3527 O   0  0  0  0  0  0  0  0  0  0  0  0
    9.0296  -14.2799   19.1576 C   0  0  0  0  0  0  0  0  0  0  0  0
    8.4466  -14.4247   20.5360 C   0  0  0  0  0  0  0  0  0  0  0  0
    9.1905  -15.5849   21.2157 C   0  0  2  0  0  0  0  0  0  0  0  0
    8.6522  -15.8026   22.5217 N   0  0  0  0  0  0  0  0  0  0  0  0
   10.6535  -15.3103   21.2374 C   0  0  0  0  0  0  0  0  0  0  0  0
   11.0890  -14.1345   21.3260 O   0  0  0  0  0  0  0  0  0  0  0  0
   11.9265  -18.9005   29.3079 N   0  0  0  0  0  0  0  0  0  0  0  0
   11.3150  -18.6658   28.0539 C   0  0  0  0  0  0  0  0  0  0  0  0
   10.0333  -18.7395   27.9810 N   0  0  0  0  0  0  0  0  0  0  0  0
   12.0687  -18.3570   26.8979 N   0  0  0  0  0  0  0  0  0  0  0  0
   11.4335  -17.8883   25.6999 C   0  0  0  0  0  0  0  0  0  0  0  0
   12.4427  -17.5217   24.6217 C   0  0  0  0  0  0  0  0  0  0  0  0
   11.6613  -17.0543   23.4184 C   0  0  0  0  0  0  0  0  0  0  0  0
   12.5281  -16.7061   22.2274 C   0  0  2  0  0  0  0  0  0  0  0  0
   11.6016  -16.3598   21.1597 N   0  0  0  0  0  0  0  0  0  0  0  0
   13.4553  -17.7751   21.8256 C   0  0  0  0  0  0  0  0  0  0  0  0
   13.2440  -18.5158   20.6736 O   0  0  0  0  0  0  0  0  0  0  0  0
   14.4646  -18.0543   22.5058 O   0  0  0  0  0  0  0  0  0  0  0  0
  2 13  1  0
  2  1  1  1
  3  2  1  0
  4 12  1  0
  4  3  1  0
  5  4  2  0
  6  5  1  0
  6  7  1  0
  7 12  2  0
  8  7  1  0
  8  9  2  0
  9 10  1  0
 10 11  2  0
 12 11  1  0
 13 14  2  0
 15 16  1  0
 16 17  2  0
 18 19  1  0
 18 16  1  0
 20 19  1  1
 20 21  1  0
 20 22  1  0
 21 13  1  0
 22 32  1  0
 23 22  2  0
 25 24  1  0
 25 26  2  0
 27 25  1  0
 28 27  1  0
 29 28  1  0
 30 29  1  0
 31 30  1  1
 31 33  1  0
 32 31  1  0
 33 34  1  0
 35 33  2  0
M  END
$$$$
