WQR.pdb
     RDKit          3D

 35 36  0  0  1  0  0  0  0  0999 V2000
    7.9903  -16.7156   24.0875 N   0  0  0  0  0  0  0  0  0  0  0  0
    9.0877  -15.9027   24.5499 C   0  0  1  0  0  0  0  0  0  0  0  0
    8.9542  -15.5391   25.9941 C   0  0  0  0  0  0  0  0  0  0  0  0
    7.7294  -14.7710   26.2507 C   0  0  0  0  0  0  0  0  0  0  0  0
    6.4940  -15.2920   26.5474 C   0  0  0  0  0  0  0  0  0  0  0  0
    5.6079  -14.3039   26.7569 N   0  0  0  0  0  0  0  0  0  0  0  0
    6.2777  -13.1465   26.5935 C   0  0  0  0  0  0  0  0  0  0  0  0
    5.9076  -11.8170   26.6720 C   0  0  0  0  0  0  0  0  0  0  0  0
    6.7780  -10.7858   26.4532 C   0  0  0  0  0  0  0  0  0  0  0  0
    8.0772  -11.0514   26.1412 C   0  0  0  0  0  0  0  0  0  0  0  0
    8.4979  -12.3509   26.0504 C   0  0  0  0  0  0  0  0  0  0  0  0
    7.6092  -13.4074   26.2749 C   0  0  0  0  0  0  0  0  0  0  0  0
   10.3548  -16.6351   24.2662 C   0  0  0  0  0  0  0  0  0  0  0  0
   11.1293  -16.9847   25.1996 O   0  0  0  0  0  0  0  0  0  0  0  0
   12.0455  -21.6869   24.2025 N   0  0  0  0  0  0  0  0  0  0  0  0
   12.5917  -21.4184   22.9286 C   0  0  0  0  0  0  0  0  0  0  0  0
   13.0734  -22.3227   22.2169 O   0  0  0  0  0  0  0  0  0  0  0  0
   12.5930  -20.0292   22.4248 C   0  0  0  0  0  0  0  0  0  0  0  0
   11.9326  -19.0691   23.3749 C   0  0  0  0  0  0  0  0  0  0  0  0
   12.0030  -17.6784   22.7248 C   0  0  2  0  0  0  0  0  0  0  0  0
   10.7705  -16.9858   22.9346 N   0  0  0  0  0  0  0  0  0  0  0  0
   12.3503  -17.8059   21.2828 C   0  0  0  0  0  0  0  0  0  0  0  0
   11.8068  -18.6806   20.5622 O   0  0  0  0  0  0  0  0  0  0  0  0
    8.6247  -13.9130   16.7624 N   0  0  0  0  0  0  0  0  0  0  0  0
    8.1571  -13.5954   18.0593 C   0  0  0  0  0  0  0  0  0  0  0  0
    7.6704  -12.4219   18.2579 N   0  0  0  0  0  0  0  0  0  0  0  0
    8.2116  -14.5239   19.1246 N   0  0  0  0  0  0  0  0  0  0  0  0
    9.3527  -14.5942   19.9913 C   0  0  0  0  0  0  0  0  0  0  0  0
   10.5594  -15.2132   19.3015 C   0  0  0  0  0  0  0  0  0  0  0  0
   11.6735  -15.2728   20.3175 C   0  0  0  0  0  0  0  0  0  0  0  0
   12.9606  -15.8567   19.7760 C   0  0  2  0  0  0  0  0  0  0  0  0
   13.3008  -16.9494   20.6751 N   0  0  0  0  0  0  0  0  0  0  0  0
   14.0573  -14.8839   19.6533 C   0  0  0  0  0  0  0  0  0  0  0  0
   15.0232  -14.7601   20.6391 O   0  0  0  0  0  0  0  0  0  0  0  0
   14.1583  -14.1353   18.6590 O   0  0  0  0  0  0  0  0  0  0  0  0
  2 13  1  0
  2  1  1  1
  3  2  1  0
  4 12  1  0
  4  3  1  0
  5  4  2  0
  6  5  1  0
  6  7  1  0
  7 12  2  0
  8  7  1  0
  8  9  2  0
  9 10  1  0
 10 11  2  0
 12 11  1  0
 13 14  2  0
 15 16  1  0
 16 17  2  0
 18 19  1  0
 18 16  1  0
 20 19  1  6
 20 21  1  0
 20 22  1  0
 21 13  1  0
 22 32  1  0
 23 22  2  0
 25 24  1  0
 25 26  2  0
 27 25  1  0
 28 27  1  0
 29 28  1  0
 30 29  1  0
 31 30  1  1
 31 33  1  0
 32 31  1  0
 33 34  1  0
 35 33  2  0
M  END
$$$$
