WQR.pdb
     RDKit          3D

 35 36  0  0  1  0  0  0  0  0999 V2000
    6.1967  -17.5123   23.6924 N   0  0  0  0  0  0  0  0  0  0  0  0
    7.0293  -16.3536   23.4854 C   0  0  1  0  0  0  0  0  0  0  0  0
    7.8777  -16.0453   24.6775 C   0  0  0  0  0  0  0  0  0  0  0  0
    7.1851  -15.1622   25.6243 C   0  0  0  0  0  0  0  0  0  0  0  0
    6.2129  -15.5370   26.5186 C   0  0  0  0  0  0  0  0  0  0  0  0
    5.8224  -14.4825   27.2541 N   0  0  0  0  0  0  0  0  0  0  0  0
    6.5465  -13.4289   26.8292 C   0  0  0  0  0  0  0  0  0  0  0  0
    6.5864  -12.0962   27.1940 C   0  0  0  0  0  0  0  0  0  0  0  0
    7.4169  -11.1852   26.6030 C   0  0  0  0  0  0  0  0  0  0  0  0
    8.2550  -11.5812   25.6047 C   0  0  0  0  0  0  0  0  0  0  0  0
    8.2567  -12.8901   25.2038 C   0  0  0  0  0  0  0  0  0  0  0  0
    7.4086  -13.8240   25.8079 C   0  0  0  0  0  0  0  0  0  0  0  0
    7.8425  -16.5842   22.2574 C   0  0  0  0  0  0  0  0  0  0  0  0
    8.4380  -17.6805   22.0655 O   0  0  0  0  0  0  0  0  0  0  0  0
    8.6774  -12.5629   17.4306 N   0  0  0  0  0  0  0  0  0  0  0  0
    7.9480  -13.7675   17.3280 C   0  0  0  0  0  0  0  0  0  0  0  0
    7.1418  -13.9696   16.3977 O   0  0  0  0  0  0  0  0  0  0  0  0
    8.1448  -14.8167   18.3498 C   0  0  0  0  0  0  0  0  0  0  0  0
    9.1058  -14.4002   19.4285 C   0  0  0  0  0  0  0  0  0  0  0  0
    9.1839  -15.5632   20.4300 C   0  0  2  0  0  0  0  0  0  0  0  0
    7.9990  -15.5911   21.2288 N   0  0  0  0  0  0  0  0  0  0  0  0
   10.4232  -15.4510   21.2471 C   0  0  0  0  0  0  0  0  0  0  0  0
   10.4028  -14.9086   22.3809 O   0  0  0  0  0  0  0  0  0  0  0  0
   10.7289  -20.9076   25.8458 N   0  0  0  0  0  0  0  0  0  0  0  0
   10.7294  -21.3396   24.4986 C   0  0  0  0  0  0  0  0  0  0  0  0
   10.3373  -22.5379   24.2460 N   0  0  0  0  0  0  0  0  0  0  0  0
   11.1444  -20.4975   23.4411 N   0  0  0  0  0  0  0  0  0  0  0  0
   11.5891  -19.1563   23.6899 C   0  0  0  0  0  0  0  0  0  0  0  0
   11.9581  -18.4273   22.4063 C   0  0  0  0  0  0  0  0  0  0  0  0
   12.3203  -17.0120   22.7844 C   0  0  0  0  0  0  0  0  0  0  0  0
   12.8245  -16.1819   21.6235 C   0  0  2  0  0  0  0  0  0  0  0  0
   11.6631  -15.9496   20.7777 N   0  0  0  0  0  0  0  0  0  0  0  0
   13.9323  -16.8001   20.8787 C   0  0  0  0  0  0  0  0  0  0  0  0
   13.7577  -17.2688   19.5864 O   0  0  0  0  0  0  0  0  0  0  0  0
   15.0682  -16.9254   21.3820 O   0  0  0  0  0  0  0  0  0  0  0  0
  2 13  1  0
  2  1  1  1
  3  2  1  0
  4 12  1  0
  4  3  1  0
  5  4  2  0
  6  5  1  0
  6  7  1  0
  7 12  2  0
  8  7  1  0
  8  9  2  0
  9 10  1  0
 10 11  2  0
 12 11  1  0
 13 14  2  0
 15 16  1  0
 16 17  2  0
 18 19  1  0
 18 16  1  0
 20 19  1  6
 20 21  1  0
 20 22  1  0
 21 13  1  0
 22 32  1  0
 23 22  2  0
 25 24  1  0
 25 26  2  0
 27 25  1  0
 28 27  1  0
 29 28  1  0
 30 29  1  0
 31 30  1  1
 31 33  1  0
 32 31  1  0
 33 34  1  0
 35 33  2  0
M  END
$$$$
