WQR.pdb
     RDKit          3D

 35 36  0  0  1  0  0  0  0  0999 V2000
    8.2272  -17.3246   23.0310 N   0  0  0  0  0  0  0  0  0  0  0  0
    8.4987  -15.9438   22.7177 C   0  0  1  0  0  0  0  0  0  0  0  0
    7.2548  -15.1148   22.6866 C   0  0  0  0  0  0  0  0  0  0  0  0
    6.6481  -14.9939   24.0182 C   0  0  0  0  0  0  0  0  0  0  0  0
    6.1168  -16.0187   24.7621 C   0  0  0  0  0  0  0  0  0  0  0  0
    5.6792  -15.5589   25.9463 N   0  0  0  0  0  0  0  0  0  0  0  0
    5.9305  -14.2354   25.9609 C   0  0  0  0  0  0  0  0  0  0  0  0
    5.7044  -13.2370   26.8897 C   0  0  0  0  0  0  0  0  0  0  0  0
    6.0449  -11.9300   26.6784 C   0  0  0  0  0  0  0  0  0  0  0  0
    6.6360  -11.5656   25.5063 C   0  0  0  0  0  0  0  0  0  0  0  0
    6.8834  -12.5144   24.5511 C   0  0  0  0  0  0  0  0  0  0  0  0
    6.5368  -13.8524   24.7657 C   0  0  0  0  0  0  0  0  0  0  0  0
    9.4928  -15.4344   23.7050 C   0  0  0  0  0  0  0  0  0  0  0  0
    9.1617  -14.6021   24.5943 O   0  0  0  0  0  0  0  0  0  0  0  0
   10.8250  -14.1692   29.0928 N   0  0  0  0  0  0  0  0  0  0  0  0
   11.3990  -15.3401   28.5516 C   0  0  0  0  0  0  0  0  0  0  0  0
   11.4143  -16.4160   29.1830 O   0  0  0  0  0  0  0  0  0  0  0  0
   11.9974  -15.2900   27.2015 C   0  0  0  0  0  0  0  0  0  0  0  0
   11.0316  -15.7019   26.1253 C   0  0  0  0  0  0  0  0  0  0  0  0
   11.7346  -15.4637   24.7797 C   0  0  2  0  0  0  0  0  0  0  0  0
   10.8697  -15.8505   23.7095 N   0  0  0  0  0  0  0  0  0  0  0  0
   13.0384  -16.1814   24.7506 C   0  0  0  0  0  0  0  0  0  0  0  0
   13.1418  -17.3519   25.1970 O   0  0  0  0  0  0  0  0  0  0  0  0
   20.1808  -17.2663   25.6390 N   0  0  0  0  0  0  0  0  0  0  0  0
   19.6021  -16.1155   25.0541 C   0  0  0  0  0  0  0  0  0  0  0  0
   20.3852  -15.2530   24.5098 N   0  0  0  0  0  0  0  0  0  0  0  0
   18.2051  -15.8958   25.0543 N   0  0  0  0  0  0  0  0  0  0  0  0
   17.2812  -16.9882   25.1613 C   0  0  0  0  0  0  0  0  0  0  0  0
   16.9486  -17.5927   23.8051 C   0  0  0  0  0  0  0  0  0  0  0  0
   15.4544  -17.4873   23.6230 C   0  0  0  0  0  0  0  0  0  0  0  0
   14.9949  -16.1304   23.1345 C   0  0  2  0  0  0  0  0  0  0  0  0
   14.2029  -15.5733   24.2210 N   0  0  0  0  0  0  0  0  0  0  0  0
   14.2436  -16.1694   21.8703 C   0  0  0  0  0  0  0  0  0  0  0  0
   14.5332  -15.2963   20.8338 O   0  0  0  0  0  0  0  0  0  0  0  0
   13.3193  -16.9882   21.6846 O   0  0  0  0  0  0  0  0  0  0  0  0
  2 13  1  0
  2  1  1  1
  3  2  1  0
  4 12  1  0
  4  3  1  0
  5  4  2  0
  6  5  1  0
  6  7  1  0
  7 12  2  0
  8  7  1  0
  8  9  2  0
  9 10  1  0
 10 11  2  0
 12 11  1  0
 13 14  2  0
 15 16  1  0
 16 17  2  0
 18 19  1  0
 18 16  1  0
 20 19  1  1
 20 21  1  0
 20 22  1  0
 21 13  1  0
 22 32  1  0
 23 22  2  0
 25 24  1  0
 25 26  2  0
 27 25  1  0
 28 27  1  0
 29 28  1  0
 30 29  1  0
 31 30  1  1
 31 33  1  0
 32 31  1  0
 33 34  1  0
 35 33  2  0
M  END
$$$$
