WQR.pdb
     RDKit          3D

 35 36  0  0  1  0  0  0  0  0999 V2000
    9.9132  -15.5901   23.1562 N   0  0  0  0  0  0  0  0  0  0  0  0
    9.4541  -15.9096   24.4850 C   0  0  1  0  0  0  0  0  0  0  0  0
    7.9632  -15.8740   24.5930 C   0  0  0  0  0  0  0  0  0  0  0  0
    7.4249  -14.5499   24.2571 C   0  0  0  0  0  0  0  0  0  0  0  0
    6.9389  -14.1599   23.0334 C   0  0  0  0  0  0  0  0  0  0  0  0
    6.4947  -12.8930   23.0888 N   0  0  0  0  0  0  0  0  0  0  0  0
    6.6972  -12.4701   24.3518 C   0  0  0  0  0  0  0  0  0  0  0  0
    6.4540  -11.2751   25.0026 C   0  0  0  0  0  0  0  0  0  0  0  0
    6.7577  -11.0669   26.3191 C   0  0  0  0  0  0  0  0  0  0  0  0
    7.3278  -12.0665   27.0484 C   0  0  0  0  0  0  0  0  0  0  0  0
    7.5904  -13.2711   26.4536 C   0  0  0  0  0  0  0  0  0  0  0  0
    7.2795  -13.4865   25.1070 C   0  0  0  0  0  0  0  0  0  0  0  0
   10.0163  -17.2386   24.8594 C   0  0  0  0  0  0  0  0  0  0  0  0
    9.6771  -17.8121   25.9314 O   0  0  0  0  0  0  0  0  0  0  0  0
   13.3554  -20.9459   21.0324 N   0  0  0  0  0  0  0  0  0  0  0  0
   13.9232  -19.7945   21.6201 C   0  0  0  0  0  0  0  0  0  0  0  0
   14.9523  -19.2614   21.1585 O   0  0  0  0  0  0  0  0  0  0  0  0
   13.2814  -19.2052   22.8136 C   0  0  0  0  0  0  0  0  0  0  0  0
   12.0523  -19.9587   23.2405 C   0  0  0  0  0  0  0  0  0  0  0  0
   11.4705  -19.2136   24.4522 C   0  0  2  0  0  0  0  0  0  0  0  0
   10.9647  -17.9425   24.0384 N   0  0  0  0  0  0  0  0  0  0  0  0
   12.4980  -19.1003   25.5234 C   0  0  0  0  0  0  0  0  0  0  0  0
   13.1784  -18.0520   25.6578 O   0  0  0  0  0  0  0  0  0  0  0  0
    9.6826  -21.5104   31.2543 N   0  0  0  0  0  0  0  0  0  0  0  0
   10.5480  -20.9444   32.2198 C   0  0  0  0  0  0  0  0  0  0  0  0
   10.0479  -20.5946   33.3516 N   0  0  0  0  0  0  0  0  0  0  0  0
   11.9279  -20.7576   31.9726 N   0  0  0  0  0  0  0  0  0  0  0  0
   12.6257  -21.5609   31.0103 C   0  0  0  0  0  0  0  0  0  0  0  0
   13.4649  -20.7184   30.0609 C   0  0  0  0  0  0  0  0  0  0  0  0
   12.7836  -20.7492   28.7149 C   0  0  0  0  0  0  0  0  0  0  0  0
   13.5636  -20.0509   27.6217 C   0  0  2  0  0  0  0  0  0  0  0  0
   12.7435  -20.1649   26.4249 N   0  0  0  0  0  0  0  0  0  0  0  0
   14.9178  -20.5864   27.4134 C   0  0  0  0  0  0  0  0  0  0  0  0
   15.9565  -20.2721   28.2752 O   0  0  0  0  0  0  0  0  0  0  0  0
   15.1812  -21.3419   26.4548 O   0  0  0  0  0  0  0  0  0  0  0  0
  2 13  1  0
  2  1  1  6
  3  2  1  0
  4 12  1  0
  4  3  1  0
  5  4  2  0
  6  5  1  0
  6  7  1  0
  7 12  2  0
  8  7  1  0
  8  9  2  0
  9 10  1  0
 10 11  2  0
 12 11  1  0
 13 14  2  0
 15 16  1  0
 16 17  2  0
 18 19  1  0
 18 16  1  0
 20 19  1  6
 20 21  1  0
 20 22  1  0
 21 13  1  0
 22 32  1  0
 23 22  2  0
 25 24  1  0
 25 26  2  0
 27 25  1  0
 28 27  1  0
 29 28  1  0
 30 29  1  0
 31 30  1  1
 31 33  1  0
 32 31  1  0
 33 34  1  0
 35 33  2  0
M  END
$$$$
