WQR.pdb
     RDKit          3D

 35 36  0  0  1  0  0  0  0  0999 V2000
    6.3029  -18.0884   24.6322 N   0  0  0  0  0  0  0  0  0  0  0  0
    6.6778  -16.7257   24.3473 C   0  0  1  0  0  0  0  0  0  0  0  0
    7.4681  -16.1115   25.4580 C   0  0  0  0  0  0  0  0  0  0  0  0
    6.7758  -14.9571   26.0446 C   0  0  0  0  0  0  0  0  0  0  0  0
    5.7610  -15.0052   26.9686 C   0  0  0  0  0  0  0  0  0  0  0  0
    5.3836  -13.7628   27.3138 N   0  0  0  0  0  0  0  0  0  0  0  0
    6.1587  -12.9162   26.6085 C   0  0  0  0  0  0  0  0  0  0  0  0
    6.2338  -11.5380   26.5330 C   0  0  0  0  0  0  0  0  0  0  0  0
    7.1157  -10.8819   25.7202 C   0  0  0  0  0  0  0  0  0  0  0  0
    7.9725  -11.5944   24.9366 C   0  0  0  0  0  0  0  0  0  0  0  0
    7.9412  -12.9625   24.9721 C   0  0  0  0  0  0  0  0  0  0  0  0
    7.0404  -13.6357   25.8038 C   0  0  0  0  0  0  0  0  0  0  0  0
    7.4173  -16.7125   23.0530 C   0  0  0  0  0  0  0  0  0  0  0  0
    8.1055  -17.7044   22.6845 O   0  0  0  0  0  0  0  0  0  0  0  0
    7.1742  -12.5926   18.0944 N   0  0  0  0  0  0  0  0  0  0  0  0
    8.1753  -13.5361   17.7768 C   0  0  0  0  0  0  0  0  0  0  0  0
    8.7757  -13.5134   16.6834 O   0  0  0  0  0  0  0  0  0  0  0  0
    8.5213  -14.5783   18.7656 C   0  0  0  0  0  0  0  0  0  0  0  0
    7.6458  -14.5298   19.9870 C   0  0  0  0  0  0  0  0  0  0  0  0
    8.1499  -15.6238   20.9412 C   0  0  2  0  0  0  0  0  0  0  0  0
    7.3955  -15.5893   22.1547 N   0  0  0  0  0  0  0  0  0  0  0  0
    9.6123  -15.4667   21.1710 C   0  0  0  0  0  0  0  0  0  0  0  0
   10.1408  -14.3271   21.2145 O   0  0  0  0  0  0  0  0  0  0  0  0
   11.3905  -21.8106   26.2339 N   0  0  0  0  0  0  0  0  0  0  0  0
   12.4741  -21.6842   25.3331 C   0  0  0  0  0  0  0  0  0  0  0  0
   13.2135  -22.7155   25.1255 N   0  0  0  0  0  0  0  0  0  0  0  0
   12.7578  -20.4695   24.6668 N   0  0  0  0  0  0  0  0  0  0  0  0
   12.0567  -19.2613   24.9937 C   0  0  0  0  0  0  0  0  0  0  0  0
   12.4831  -18.0951   24.1142 C   0  0  0  0  0  0  0  0  0  0  0  0
   11.3339  -17.7932   23.1841 C   0  0  0  0  0  0  0  0  0  0  0  0
   11.5926  -16.6259   22.2559 C   0  0  2  0  0  0  0  0  0  0  0  0
   10.4555  -16.5910   21.3482 N   0  0  0  0  0  0  0  0  0  0  0  0
   12.8712  -16.7047   21.5327 C   0  0  0  0  0  0  0  0  0  0  0  0
   12.9112  -16.8389   20.1540 O   0  0  0  0  0  0  0  0  0  0  0  0
   13.9652  -16.6539   22.1326 O   0  0  0  0  0  0  0  0  0  0  0  0
  2 13  1  0
  2  1  1  1
  3  2  1  0
  4 12  1  0
  4  3  1  0
  5  4  2  0
  6  5  1  0
  6  7  1  0
  7 12  2  0
  8  7  1  0
  8  9  2  0
  9 10  1  0
 10 11  2  0
 12 11  1  0
 13 14  2  0
 15 16  1  0
 16 17  2  0
 18 19  1  0
 18 16  1  0
 20 19  1  6
 20 21  1  0
 20 22  1  0
 21 13  1  0
 22 32  1  0
 23 22  2  0
 25 24  1  0
 25 26  2  0
 27 25  1  0
 28 27  1  0
 29 28  1  0
 30 29  1  0
 31 30  1  1
 31 33  1  0
 32 31  1  0
 33 34  1  0
 35 33  2  0
M  END
$$$$
