WQR.pdb
     RDKit          3D

 35 36  0  0  1  0  0  0  0  0999 V2000
    7.0389  -17.3786   22.5123 N   0  0  0  0  0  0  0  0  0  0  0  0
    8.2719  -16.9724   21.8851 C   0  0  1  0  0  0  0  0  0  0  0  0
    8.6837  -15.5920   22.2862 C   0  0  0  0  0  0  0  0  0  0  0  0
    7.8381  -14.5684   21.6593 C   0  0  0  0  0  0  0  0  0  0  0  0
    6.7898  -13.9092   22.2530 C   0  0  0  0  0  0  0  0  0  0  0  0
    6.2591  -13.0138   21.4034 N   0  0  0  0  0  0  0  0  0  0  0  0
    6.9692  -13.1000   20.2618 C   0  0  0  0  0  0  0  0  0  0  0  0
    6.8934  -12.4472   19.0457 C   0  0  0  0  0  0  0  0  0  0  0  0
    7.7362  -12.7122   18.0025 C   0  0  0  0  0  0  0  0  0  0  0  0
    8.7057  -13.6596   18.1395 C   0  0  0  0  0  0  0  0  0  0  0  0
    8.8257  -14.3368   19.3230 C   0  0  0  0  0  0  0  0  0  0  0  0
    7.9651  -14.0664   20.3920 C   0  0  0  0  0  0  0  0  0  0  0  0
    9.3117  -17.9896   22.2116 C   0  0  0  0  0  0  0  0  0  0  0  0
    9.3204  -18.5786   23.3279 O   0  0  0  0  0  0  0  0  0  0  0  0
   15.4049  -21.7942   20.4992 N   0  0  0  0  0  0  0  0  0  0  0  0
   14.2751  -21.0405   20.1136 C   0  0  0  0  0  0  0  0  0  0  0  0
   13.9485  -20.9127   18.9164 O   0  0  0  0  0  0  0  0  0  0  0  0
   13.4577  -20.3853   21.1558 C   0  0  0  0  0  0  0  0  0  0  0  0
   12.3326  -19.5703   20.5808 C   0  0  0  0  0  0  0  0  0  0  0  0
   11.5357  -19.0089   21.7688 C   0  0  2  0  0  0  0  0  0  0  0  0
   10.3542  -18.3606   21.2927 N   0  0  0  0  0  0  0  0  0  0  0  0
   12.3971  -18.1061   22.5805 C   0  0  0  0  0  0  0  0  0  0  0  0
   12.4677  -16.8775   22.3242 O   0  0  0  0  0  0  0  0  0  0  0  0
    8.6229  -15.6012   27.5300 N   0  0  0  0  0  0  0  0  0  0  0  0
    9.8709  -15.0825   27.9480 C   0  0  0  0  0  0  0  0  0  0  0  0
    9.8778  -13.9844   28.6171 N   0  0  0  0  0  0  0  0  0  0  0  0
   11.0909  -15.7334   27.6518 N   0  0  0  0  0  0  0  0  0  0  0  0
   11.1393  -16.8444   26.7453 C   0  0  0  0  0  0  0  0  0  0  0  0
   12.5557  -17.3662   26.5531 C   0  0  0  0  0  0  0  0  0  0  0  0
   13.0537  -16.8317   25.2328 C   0  0  0  0  0  0  0  0  0  0  0  0
   14.0033  -17.7676   24.5164 C   0  0  2  0  0  0  0  0  0  0  0  0
   13.1637  -18.5976   23.6655 N   0  0  0  0  0  0  0  0  0  0  0  0
   14.8439  -18.5745   25.4144 C   0  0  0  0  0  0  0  0  0  0  0  0
   15.8059  -17.9872   26.2207 O   0  0  0  0  0  0  0  0  0  0  0  0
   14.7225  -19.8154   25.4834 O   0  0  0  0  0  0  0  0  0  0  0  0
  2 13  1  0
  2  1  1  1
  3  2  1  0
  4 12  1  0
  4  3  1  0
  5  4  2  0
  6  5  1  0
  6  7  1  0
  7 12  2  0
  8  7  1  0
  8  9  2  0
  9 10  1  0
 10 11  2  0
 12 11  1  0
 13 14  2  0
 15 16  1  0
 16 17  2  0
 18 19  1  0
 18 16  1  0
 20 19  1  6
 20 21  1  0
 20 22  1  0
 21 13  1  0
 22 32  1  0
 23 22  2  0
 25 24  1  0
 25 26  2  0
 27 25  1  0
 28 27  1  0
 29 28  1  0
 30 29  1  0
 31 30  1  1
 31 33  1  0
 32 31  1  0
 33 34  1  0
 35 33  2  0
M  END
$$$$
