WQR.pdb
     RDKit          3D

 35 36  0  0  1  0  0  0  0  0999 V2000
    6.3664  -17.1943   23.6365 N   0  0  0  0  0  0  0  0  0  0  0  0
    7.6126  -16.4742   23.7210 C   0  0  1  0  0  0  0  0  0  0  0  0
    7.9668  -16.1183   25.1294 C   0  0  0  0  0  0  0  0  0  0  0  0
    7.1349  -15.0209   25.6389 C   0  0  0  0  0  0  0  0  0  0  0  0
    6.1391  -15.1284   26.5783 C   0  0  0  0  0  0  0  0  0  0  0  0
    5.6071  -13.9219   26.8360 N   0  0  0  0  0  0  0  0  0  0  0  0
    6.2638  -13.0388   26.0590 C   0  0  0  0  0  0  0  0  0  0  0  0
    6.1610  -11.6719   25.8807 C   0  0  0  0  0  0  0  0  0  0  0  0
    6.9475  -10.9716   25.0090 C   0  0  0  0  0  0  0  0  0  0  0  0
    7.8850  -11.6259   24.2680 C   0  0  0  0  0  0  0  0  0  0  0  0
    8.0297  -12.9802   24.4051 C   0  0  0  0  0  0  0  0  0  0  0  0
    7.2267  -13.6984   25.2971 C   0  0  0  0  0  0  0  0  0  0  0  0
    8.6666  -17.2990   23.0643 C   0  0  0  0  0  0  0  0  0  0  0  0
    8.7959  -18.5258   23.3316 O   0  0  0  0  0  0  0  0  0  0  0  0
   12.0385  -18.8648   18.1527 N   0  0  0  0  0  0  0  0  0  0  0  0
   12.7888  -17.8530   18.7904 C   0  0  0  0  0  0  0  0  0  0  0  0
   13.5548  -17.1029   18.1525 O   0  0  0  0  0  0  0  0  0  0  0  0
   12.6634  -17.6777   20.2523 C   0  0  0  0  0  0  0  0  0  0  0  0
   11.5186  -16.7796   20.6308 C   0  0  0  0  0  0  0  0  0  0  0  0
   10.8297  -17.4222   21.8450 C   0  0  2  0  0  0  0  0  0  0  0  0
    9.5885  -16.7611   22.1001 N   0  0  0  0  0  0  0  0  0  0  0  0
   11.7427  -17.4005   23.0207 C   0  0  0  0  0  0  0  0  0  0  0  0
   12.1122  -16.3132   23.5318 O   0  0  0  0  0  0  0  0  0  0  0  0
   11.9452  -21.1049   28.4332 N   0  0  0  0  0  0  0  0  0  0  0  0
   10.9299  -22.0150   28.0558 C   0  0  0  0  0  0  0  0  0  0  0  0
   10.1827  -22.5070   28.9794 N   0  0  0  0  0  0  0  0  0  0  0  0
   10.7214  -22.3895   26.7082 N   0  0  0  0  0  0  0  0  0  0  0  0
   11.3306  -21.6621   25.6320 C   0  0  0  0  0  0  0  0  0  0  0  0
   11.9461  -20.3522   26.1016 C   0  0  0  0  0  0  0  0  0  0  0  0
   13.1326  -20.0717   25.2125 C   0  0  0  0  0  0  0  0  0  0  0  0
   13.1833  -18.6500   24.6956 C   0  0  2  0  0  0  0  0  0  0  0  0
   12.2244  -18.5990   23.6020 N   0  0  0  0  0  0  0  0  0  0  0  0
   14.5225  -18.2112   24.2735 C   0  0  0  0  0  0  0  0  0  0  0  0
   14.9375  -18.3313   22.9568 O   0  0  0  0  0  0  0  0  0  0  0  0
   15.3332  -17.7157   25.0838 O   0  0  0  0  0  0  0  0  0  0  0  0
  2 13  1  0
  2  1  1  1
  3  2  1  0
  4 12  1  0
  4  3  1  0
  5  4  2  0
  6  5  1  0
  6  7  1  0
  7 12  2  0
  8  7  1  0
  8  9  2  0
  9 10  1  0
 10 11  2  0
 12 11  1  0
 13 14  2  0
 15 16  1  0
 16 17  2  0
 18 19  1  0
 18 16  1  0
 20 19  1  6
 20 21  1  0
 20 22  1  0
 21 13  1  0
 22 32  1  0
 23 22  2  0
 25 24  1  0
 25 26  2  0
 27 25  1  0
 28 27  1  0
 29 28  1  0
 30 29  1  0
 31 30  1  6
 31 33  1  0
 32 31  1  0
 33 34  1  0
 35 33  2  0
M  END
$$$$
