WQR.pdb
     RDKit          3D

 35 36  0  0  1  0  0  0  0  0999 V2000
    6.5537  -17.6148   25.2135 N   0  0  0  0  0  0  0  0  0  0  0  0
    7.1298  -16.3680   24.7750 C   0  0  1  0  0  0  0  0  0  0  0  0
    8.2842  -15.9467   25.6269 C   0  0  0  0  0  0  0  0  0  0  0  0
    7.8963  -14.9152   26.5972 C   0  0  0  0  0  0  0  0  0  0  0  0
    7.9293  -15.0364   27.9647 C   0  0  0  0  0  0  0  0  0  0  0  0
    7.5400  -13.8891   28.5453 N   0  0  0  0  0  0  0  0  0  0  0  0
    7.2563  -13.0303   27.5468 C   0  0  0  0  0  0  0  0  0  0  0  0
    6.8095  -11.7226   27.5184 C   0  0  0  0  0  0  0  0  0  0  0  0
    6.5775  -11.0382   26.3579 C   0  0  0  0  0  0  0  0  0  0  0  0
    6.7879  -11.6488   25.1584 C   0  0  0  0  0  0  0  0  0  0  0  0
    7.2305  -12.9438   25.1283 C   0  0  0  0  0  0  0  0  0  0  0  0
    7.4696  -13.6455   26.3144 C   0  0  0  0  0  0  0  0  0  0  0  0
    7.5098  -16.5153   23.3410 C   0  0  0  0  0  0  0  0  0  0  0  0
    7.6153  -17.6545   22.8077 O   0  0  0  0  0  0  0  0  0  0  0  0
    8.4930  -12.0180   18.7924 N   0  0  0  0  0  0  0  0  0  0  0  0
    8.5638  -13.2691   18.1418 C   0  0  0  0  0  0  0  0  0  0  0  0
    8.7231  -13.3592   16.9077 O   0  0  0  0  0  0  0  0  0  0  0  0
    8.4459  -14.5046   18.9438 C   0  0  0  0  0  0  0  0  0  0  0  0
    8.2184  -14.2266   20.4038 C   0  0  0  0  0  0  0  0  0  0  0  0
    7.9981  -15.5850   21.0877 C   0  0  2  0  0  0  0  0  0  0  0  0
    7.7758  -15.3896   22.4860 N   0  0  0  0  0  0  0  0  0  0  0  0
    9.1484  -16.4885   20.8111 C   0  0  0  0  0  0  0  0  0  0  0  0
    9.3167  -16.9898   19.6708 O   0  0  0  0  0  0  0  0  0  0  0  0
   15.8862  -13.2323   17.9576 N   0  0  0  0  0  0  0  0  0  0  0  0
   15.3738  -14.5349   18.1629 C   0  0  0  0  0  0  0  0  0  0  0  0
   16.1953  -15.4622   18.5073 N   0  0  0  0  0  0  0  0  0  0  0  0
   14.0015  -14.8353   18.0009 N   0  0  0  0  0  0  0  0  0  0  0  0
   13.0608  -14.6070   19.0599 C   0  0  0  0  0  0  0  0  0  0  0  0
   13.1911  -15.6351   20.1740 C   0  0  0  0  0  0  0  0  0  0  0  0
   11.9235  -15.5728   20.9902 C   0  0  0  0  0  0  0  0  0  0  0  0
   11.5257  -16.9002   21.5992 C   0  0  2  0  0  0  0  0  0  0  0  0
   10.0896  -16.8130   21.8187 N   0  0  0  0  0  0  0  0  0  0  0  0
   12.2512  -17.2367   22.8339 C   0  0  0  0  0  0  0  0  0  0  0  0
   13.5693  -17.6632   22.8007 O   0  0  0  0  0  0  0  0  0  0  0  0
   11.7078  -17.1510   23.9549 O   0  0  0  0  0  0  0  0  0  0  0  0
  2 13  1  0
  2  1  1  1
  3  2  1  0
  4 12  1  0
  4  3  1  0
  5  4  2  0
  6  5  1  0
  6  7  1  0
  7 12  2  0
  8  7  1  0
  8  9  2  0
  9 10  1  0
 10 11  2  0
 12 11  1  0
 13 14  2  0
 15 16  1  0
 16 17  2  0
 18 19  1  0
 18 16  1  0
 20 19  1  6
 20 21  1  0
 20 22  1  0
 21 13  1  0
 22 32  1  0
 23 22  2  0
 25 24  1  0
 25 26  2  0
 27 25  1  0
 28 27  1  0
 29 28  1  0
 30 29  1  0
 31 30  1  1
 31 33  1  0
 32 31  1  0
 33 34  1  0
 35 33  2  0
M  END
$$$$
