WQR.pdb
     RDKit          3D

 35 36  0  0  1  0  0  0  0  0999 V2000
    6.7735  -17.0553   25.4765 N   0  0  0  0  0  0  0  0  0  0  0  0
    7.1850  -15.8679   24.7698 C   0  0  1  0  0  0  0  0  0  0  0  0
    8.4004  -15.2413   25.3746 C   0  0  0  0  0  0  0  0  0  0  0  0
    8.0630  -14.4127   26.5389 C   0  0  0  0  0  0  0  0  0  0  0  0
    8.3868  -14.6822   27.8459 C   0  0  0  0  0  0  0  0  0  0  0  0
    7.9525  -13.6959   28.6482 N   0  0  0  0  0  0  0  0  0  0  0  0
    7.3482  -12.7919   27.8528 C   0  0  0  0  0  0  0  0  0  0  0  0
    6.7122  -11.5890   28.0962 C   0  0  0  0  0  0  0  0  0  0  0  0
    6.1520  -10.8277   27.1085 C   0  0  0  0  0  0  0  0  0  0  0  0
    6.2080  -11.2500   25.8145 C   0  0  0  0  0  0  0  0  0  0  0  0
    6.8264  -12.4344   25.5168 C   0  0  0  0  0  0  0  0  0  0  0  0
    7.4012  -13.2143   26.5256 C   0  0  0  0  0  0  0  0  0  0  0  0
    7.3895  -16.2315   23.3385 C   0  0  0  0  0  0  0  0  0  0  0  0
    7.6698  -17.4146   22.9995 O   0  0  0  0  0  0  0  0  0  0  0  0
    7.4681  -12.4631   18.0654 N   0  0  0  0  0  0  0  0  0  0  0  0
    8.0115  -13.7103   17.6878 C   0  0  0  0  0  0  0  0  0  0  0  0
    8.3181  -13.9618   16.5050 O   0  0  0  0  0  0  0  0  0  0  0  0
    8.2228  -14.7453   18.7211 C   0  0  0  0  0  0  0  0  0  0  0  0
    7.6566  -14.3523   20.0573 C   0  0  0  0  0  0  0  0  0  0  0  0
    7.9318  -15.5187   21.0193 C   0  0  2  0  0  0  0  0  0  0  0  0
    7.2823  -15.2757   22.2690 N   0  0  0  0  0  0  0  0  0  0  0  0
    9.3989  -15.7239   21.1664 C   0  0  0  0  0  0  0  0  0  0  0  0
   10.0404  -15.1627   22.0902 O   0  0  0  0  0  0  0  0  0  0  0  0
   15.0400  -22.1483   23.0799 N   0  0  0  0  0  0  0  0  0  0  0  0
   13.7147  -22.2639   22.5985 C   0  0  0  0  0  0  0  0  0  0  0  0
   13.3535  -23.3838   22.0800 N   0  0  0  0  0  0  0  0  0  0  0  0
   12.7935  -21.1936   22.6734 N   0  0  0  0  0  0  0  0  0  0  0  0
   12.0861  -20.7393   21.5109 C   0  0  0  0  0  0  0  0  0  0  0  0
   12.4874  -19.3270   21.1112 C   0  0  0  0  0  0  0  0  0  0  0  0
   11.2201  -18.5143   21.0085 C   0  0  0  0  0  0  0  0  0  0  0  0
   11.4457  -17.0908   20.5462 C   0  0  2  0  0  0  0  0  0  0  0  0
   10.1200  -16.5552   20.2746 N   0  0  0  0  0  0  0  0  0  0  0  0
   12.3364  -16.9708   19.3817 C   0  0  0  0  0  0  0  0  0  0  0  0
   11.8377  -16.9907   18.0890 O   0  0  0  0  0  0  0  0  0  0  0  0
   13.5719  -16.8471   19.5142 O   0  0  0  0  0  0  0  0  0  0  0  0
  2 13  1  0
  2  1  1  1
  3  2  1  0
  4 12  1  0
  4  3  1  0
  5  4  2  0
  6  5  1  0
  6  7  1  0
  7 12  2  0
  8  7  1  0
  8  9  2  0
  9 10  1  0
 10 11  2  0
 12 11  1  0
 13 14  2  0
 15 16  1  0
 16 17  2  0
 18 19  1  0
 18 16  1  0
 20 19  1  6
 20 21  1  0
 20 22  1  0
 21 13  1  0
 22 32  1  0
 23 22  2  0
 25 24  1  0
 25 26  2  0
 27 25  1  0
 28 27  1  0
 29 28  1  0
 30 29  1  0
 31 30  1  6
 31 33  1  0
 32 31  1  0
 33 34  1  0
 35 33  2  0
M  END
$$$$
