WQR.pdb
     RDKit          3D

 35 36  0  0  1  0  0  0  0  0999 V2000
    5.9991  -17.5208   23.9598 N   0  0  0  0  0  0  0  0  0  0  0  0
    6.7984  -16.3753   23.6024 C   0  0  1  0  0  0  0  0  0  0  0  0
    7.6297  -15.8859   24.7447 C   0  0  0  0  0  0  0  0  0  0  0  0
    6.9277  -14.8621   25.5290 C   0  0  0  0  0  0  0  0  0  0  0  0
    5.9902  -15.0918   26.5058 C   0  0  0  0  0  0  0  0  0  0  0  0
    5.5790  -13.9303   27.0417 N   0  0  0  0  0  0  0  0  0  0  0  0
    6.2548  -12.9536   26.4059 C   0  0  0  0  0  0  0  0  0  0  0  0
    6.2552  -11.5755   26.5130 C   0  0  0  0  0  0  0  0  0  0  0  0
    7.0386  -10.7667   25.7377 C   0  0  0  0  0  0  0  0  0  0  0  0
    7.8674  -11.3175   24.8073 C   0  0  0  0  0  0  0  0  0  0  0  0
    7.9069  -12.6778   24.6590 C   0  0  0  0  0  0  0  0  0  0  0  0
    7.1071  -13.5071   25.4519 C   0  0  0  0  0  0  0  0  0  0  0  0
    7.6257  -16.7426   22.4179 C   0  0  0  0  0  0  0  0  0  0  0  0
    8.0682  -17.9153   22.2693 O   0  0  0  0  0  0  0  0  0  0  0  0
    9.1955  -12.6112   17.9853 N   0  0  0  0  0  0  0  0  0  0  0  0
    8.2969  -13.6846   17.8016 C   0  0  0  0  0  0  0  0  0  0  0  0
    7.4270  -13.6669   16.9076 O   0  0  0  0  0  0  0  0  0  0  0  0
    8.3892  -14.8603   18.6919 C   0  0  0  0  0  0  0  0  0  0  0  0
    9.4050  -14.6790   19.7855 C   0  0  0  0  0  0  0  0  0  0  0  0
    9.2444  -15.8683   20.7455 C   0  0  2  0  0  0  0  0  0  0  0  0
    7.9678  -15.8020   21.3848 N   0  0  0  0  0  0  0  0  0  0  0  0
   10.3714  -15.8954   21.7178 C   0  0  0  0  0  0  0  0  0  0  0  0
   10.7463  -14.8474   22.3018 O   0  0  0  0  0  0  0  0  0  0  0  0
    8.5031  -20.8410   26.4414 N   0  0  0  0  0  0  0  0  0  0  0  0
    9.8214  -20.5119   26.8355 C   0  0  0  0  0  0  0  0  0  0  0  0
   10.3064  -21.0931   27.8749 N   0  0  0  0  0  0  0  0  0  0  0  0
   10.6048  -19.5739   26.1241 N   0  0  0  0  0  0  0  0  0  0  0  0
   11.9892  -19.8238   25.8423 C   0  0  0  0  0  0  0  0  0  0  0  0
   12.6151  -18.7121   25.0130 C   0  0  0  0  0  0  0  0  0  0  0  0
   11.5907  -18.2867   23.9899 C   0  0  0  0  0  0  0  0  0  0  0  0
   12.0875  -17.2193   23.0385 C   0  0  2  0  0  0  0  0  0  0  0  0
   11.0572  -17.0979   22.0177 N   0  0  0  0  0  0  0  0  0  0  0  0
   13.4085  -17.5010   22.4558 C   0  0  0  0  0  0  0  0  0  0  0  0
   13.5478  -17.8434   21.1202 O   0  0  0  0  0  0  0  0  0  0  0  0
   14.4508  -17.4423   23.1410 O   0  0  0  0  0  0  0  0  0  0  0  0
  2 13  1  0
  2  1  1  1
  3  2  1  0
  4 12  1  0
  4  3  1  0
  5  4  2  0
  6  5  1  0
  6  7  1  0
  7 12  2  0
  8  7  1  0
  8  9  2  0
  9 10  1  0
 10 11  2  0
 12 11  1  0
 13 14  2  0
 15 16  1  0
 16 17  2  0
 18 19  1  0
 18 16  1  0
 20 19  1  6
 20 21  1  0
 20 22  1  0
 21 13  1  0
 22 32  1  0
 23 22  2  0
 25 24  1  0
 25 26  2  0
 27 25  1  0
 28 27  1  0
 29 28  1  0
 30 29  1  0
 31 30  1  1
 31 33  1  0
 32 31  1  0
 33 34  1  0
 35 33  2  0
M  END
$$$$
