WQR.pdb
     RDKit          3D

 35 36  0  0  1  0  0  0  0  0999 V2000
    6.2906  -17.9294   23.9893 N   0  0  0  0  0  0  0  0  0  0  0  0
    6.7122  -16.5513   23.9476 C   0  0  1  0  0  0  0  0  0  0  0  0
    7.3212  -16.1058   25.2384 C   0  0  0  0  0  0  0  0  0  0  0  0
    6.5991  -14.9650   25.8155 C   0  0  0  0  0  0  0  0  0  0  0  0
    5.3818  -15.0138   26.4494 C   0  0  0  0  0  0  0  0  0  0  0  0
    5.0320  -13.7918   26.8847 N   0  0  0  0  0  0  0  0  0  0  0  0
    6.0279  -12.9575   26.5282 C   0  0  0  0  0  0  0  0  0  0  0  0
    6.2323  -11.6001   26.6905 C   0  0  0  0  0  0  0  0  0  0  0  0
    7.3429  -10.9518   26.2267 C   0  0  0  0  0  0  0  0  0  0  0  0
    8.3099  -11.6513   25.5698 C   0  0  0  0  0  0  0  0  0  0  0  0
    8.1587  -12.9987   25.3813 C   0  0  0  0  0  0  0  0  0  0  0  0
    7.0236  -13.6641   25.8560 C   0  0  0  0  0  0  0  0  0  0  0  0
    7.6459  -16.3899   22.7967 C   0  0  0  0  0  0  0  0  0  0  0  0
    8.2721  -17.3773   22.3211 O   0  0  0  0  0  0  0  0  0  0  0  0
    6.5987  -13.6808   17.7394 N   0  0  0  0  0  0  0  0  0  0  0  0
    7.9725  -13.9849   17.6218 C   0  0  0  0  0  0  0  0  0  0  0  0
    8.4710  -14.3636   16.5428 O   0  0  0  0  0  0  0  0  0  0  0  0
    8.8429  -13.8510   18.8084 C   0  0  0  0  0  0  0  0  0  0  0  0
    8.0691  -13.8633   20.0974 C   0  0  0  0  0  0  0  0  0  0  0  0
    8.5778  -15.0631   20.9120 C   0  0  2  0  0  0  0  0  0  0  0  0
    7.8901  -15.1217   22.1635 N   0  0  0  0  0  0  0  0  0  0  0  0
   10.0554  -14.9809   21.0734 C   0  0  0  0  0  0  0  0  0  0  0  0
   10.8185  -15.0365   20.0761 O   0  0  0  0  0  0  0  0  0  0  0  0
   10.9763  -18.6648   28.6409 N   0  0  0  0  0  0  0  0  0  0  0  0
   11.8841  -19.3748   27.8204 C   0  0  0  0  0  0  0  0  0  0  0  0
   12.5105  -20.3741   28.3327 N   0  0  0  0  0  0  0  0  0  0  0  0
   12.1145  -19.0165   26.4719 N   0  0  0  0  0  0  0  0  0  0  0  0
   11.4788  -17.8702   25.8887 C   0  0  0  0  0  0  0  0  0  0  0  0
   11.6919  -17.8003   24.3837 C   0  0  0  0  0  0  0  0  0  0  0  0
   10.8867  -16.6312   23.8720 C   0  0  0  0  0  0  0  0  0  0  0  0
   11.6417  -15.7515   22.8988 C   0  0  2  0  0  0  0  0  0  0  0  0
   10.6505  -14.8375   22.3508 N   0  0  0  0  0  0  0  0  0  0  0  0
   12.3496  -16.4922   21.8433 C   0  0  0  0  0  0  0  0  0  0  0  0
   13.6975  -16.2838   21.5980 O   0  0  0  0  0  0  0  0  0  0  0  0
   11.7640  -17.3340   21.1307 O   0  0  0  0  0  0  0  0  0  0  0  0
  2 13  1  0
  2  1  1  1
  3  2  1  0
  4 12  1  0
  4  3  1  0
  5  4  2  0
  6  5  1  0
  6  7  1  0
  7 12  2  0
  8  7  1  0
  8  9  2  0
  9 10  1  0
 10 11  2  0
 12 11  1  0
 13 14  2  0
 15 16  1  0
 16 17  2  0
 18 19  1  0
 18 16  1  0
 20 19  1  1
 20 21  1  0
 20 22  1  0
 21 13  1  0
 22 32  1  0
 23 22  2  0
 25 24  1  0
 25 26  2  0
 27 25  1  0
 28 27  1  0
 29 28  1  0
 30 29  1  0
 31 30  1  1
 31 33  1  0
 32 31  1  0
 33 34  1  0
 35 33  2  0
M  END
$$$$
