WQR.pdb
     RDKit          3D

 35 36  0  0  1  0  0  0  0  0999 V2000
    5.9959  -17.1717   24.3183 N   0  0  0  0  0  0  0  0  0  0  0  0
    6.9091  -16.2421   23.7013 C   0  0  1  0  0  0  0  0  0  0  0  0
    7.8033  -15.5792   24.6997 C   0  0  0  0  0  0  0  0  0  0  0  0
    7.0521  -14.6965   25.6011 C   0  0  0  0  0  0  0  0  0  0  0  0
    6.2588  -15.0944   26.6490 C   0  0  0  0  0  0  0  0  0  0  0  0
    5.7503  -14.0246   27.2831 N   0  0  0  0  0  0  0  0  0  0  0  0
    6.2188  -12.9380   26.6391 C   0  0  0  0  0  0  0  0  0  0  0  0
    6.0428  -11.5789   26.8195 C   0  0  0  0  0  0  0  0  0  0  0  0
    6.6260  -10.6378   26.0176 C   0  0  0  0  0  0  0  0  0  0  0  0
    7.4229  -11.0290   24.9843 C   0  0  0  0  0  0  0  0  0  0  0  0
    7.6317  -12.3632   24.7601 C   0  0  0  0  0  0  0  0  0  0  0  0
    7.0369  -13.3277   25.5800 C   0  0  0  0  0  0  0  0  0  0  0  0
    7.6765  -16.9761   22.6550 C   0  0  0  0  0  0  0  0  0  0  0  0
    8.2592  -18.0649   22.9164 O   0  0  0  0  0  0  0  0  0  0  0  0
    8.1522  -14.8846   16.8205 N   0  0  0  0  0  0  0  0  0  0  0  0
    8.2060  -14.0638   17.9681 C   0  0  0  0  0  0  0  0  0  0  0  0
    7.9732  -12.8395   17.9112 O   0  0  0  0  0  0  0  0  0  0  0  0
    8.5472  -14.6711   19.2713 C   0  0  0  0  0  0  0  0  0  0  0  0
    8.8750  -16.1342   19.1592 C   0  0  0  0  0  0  0  0  0  0  0  0
    9.0294  -16.6681   20.5920 C   0  0  2  0  0  0  0  0  0  0  0  0
    7.8009  -16.5010   21.3031 N   0  0  0  0  0  0  0  0  0  0  0  0
   10.1765  -15.9994   21.2651 C   0  0  0  0  0  0  0  0  0  0  0  0
    9.9915  -15.0425   22.0590 O   0  0  0  0  0  0  0  0  0  0  0  0
   11.7678  -22.7612   22.2607 N   0  0  0  0  0  0  0  0  0  0  0  0
   12.5116  -22.6052   23.4539 C   0  0  0  0  0  0  0  0  0  0  0  0
   13.2574  -23.5808   23.8354 N   0  0  0  0  0  0  0  0  0  0  0  0
   12.4546  -21.4205   24.2239 N   0  0  0  0  0  0  0  0  0  0  0  0
   11.6341  -20.3134   23.8245 C   0  0  0  0  0  0  0  0  0  0  0  0
   12.4588  -19.0773   23.4971 C   0  0  0  0  0  0  0  0  0  0  0  0
   11.6664  -18.2609   22.5059 C   0  0  0  0  0  0  0  0  0  0  0  0
   12.3716  -17.0003   22.0537 C   0  0  2  0  0  0  0  0  0  0  0  0
   11.5107  -16.4164   21.0359 N   0  0  0  0  0  0  0  0  0  0  0  0
   13.7385  -17.2214   21.5568 C   0  0  0  0  0  0  0  0  0  0  0  0
   14.8209  -17.2610   22.4212 O   0  0  0  0  0  0  0  0  0  0  0  0
   13.9738  -17.3810   20.3409 O   0  0  0  0  0  0  0  0  0  0  0  0
  2 13  1  0
  2  1  1  1
  3  2  1  0
  4 12  1  0
  4  3  1  0
  5  4  2  0
  6  5  1  0
  6  7  1  0
  7 12  2  0
  8  7  1  0
  8  9  2  0
  9 10  1  0
 10 11  2  0
 12 11  1  0
 13 14  2  0
 15 16  1  0
 16 17  2  0
 18 19  1  0
 18 16  1  0
 20 19  1  6
 20 21  1  0
 20 22  1  0
 21 13  1  0
 22 32  1  0
 23 22  2  0
 25 24  1  0
 25 26  2  0
 27 25  1  0
 28 27  1  0
 29 28  1  0
 30 29  1  0
 31 30  1  6
 31 33  1  0
 32 31  1  0
 33 34  1  0
 35 33  2  0
M  END
$$$$
