WQR.pdb
     RDKit          3D

 35 36  0  0  1  0  0  0  0  0999 V2000
    6.3589  -18.2145   24.4987 N   0  0  0  0  0  0  0  0  0  0  0  0
    7.1388  -17.0320   24.2306 C   0  0  1  0  0  0  0  0  0  0  0  0
    7.4303  -16.2519   25.4725 C   0  0  0  0  0  0  0  0  0  0  0  0
    6.6069  -15.0393   25.5590 C   0  0  0  0  0  0  0  0  0  0  0  0
    5.2785  -14.9853   25.9030 C   0  0  0  0  0  0  0  0  0  0  0  0
    4.8502  -13.7118   25.9160 N   0  0  0  0  0  0  0  0  0  0  0  0
    5.9074  -12.9478   25.5788 C   0  0  0  0  0  0  0  0  0  0  0  0
    6.0814  -11.5857   25.4200 C   0  0  0  0  0  0  0  0  0  0  0  0
    7.2728  -11.0229   25.0556 C   0  0  0  0  0  0  0  0  0  0  0  0
    8.3563  -11.8177   24.8317 C   0  0  0  0  0  0  0  0  0  0  0  0
    8.2400  -13.1741   24.9747 C   0  0  0  0  0  0  0  0  0  0  0  0
    7.0223  -13.7519   25.3485 C   0  0  0  0  0  0  0  0  0  0  0  0
    8.3815  -17.4508   23.5216 C   0  0  0  0  0  0  0  0  0  0  0  0
    8.8382  -18.6214   23.6415 O   0  0  0  0  0  0  0  0  0  0  0  0
   10.6748  -18.2086   19.4122 N   0  0  0  0  0  0  0  0  0  0  0  0
   10.0108  -17.0098   19.0728 C   0  0  0  0  0  0  0  0  0  0  0  0
    9.5856  -16.7987   17.9191 O   0  0  0  0  0  0  0  0  0  0  0  0
    9.8141  -15.9775   20.1117 C   0  0  0  0  0  0  0  0  0  0  0  0
   10.9135  -15.9726   21.1373 C   0  0  0  0  0  0  0  0  0  0  0  0
   10.4626  -16.8970   22.2793 C   0  0  2  0  0  0  0  0  0  0  0  0
    9.1282  -16.5650   22.6691 N   0  0  0  0  0  0  0  0  0  0  0  0
   11.4267  -16.8180   23.4109 C   0  0  0  0  0  0  0  0  0  0  0  0
   12.2013  -15.8355   23.5324 O   0  0  0  0  0  0  0  0  0  0  0  0
   12.7165  -21.3054   31.6414 N   0  0  0  0  0  0  0  0  0  0  0  0
   13.1465  -20.1855   30.8915 C   0  0  0  0  0  0  0  0  0  0  0  0
   14.3690  -19.8064   31.0147 N   0  0  0  0  0  0  0  0  0  0  0  0
   12.2768  -19.4851   30.0238 N   0  0  0  0  0  0  0  0  0  0  0  0
   12.0772  -19.9116   28.6686 C   0  0  0  0  0  0  0  0  0  0  0  0
   12.8313  -19.0390   27.6760 C   0  0  0  0  0  0  0  0  0  0  0  0
   11.8814  -18.7228   26.5470 C   0  0  0  0  0  0  0  0  0  0  0  0
   12.5008  -17.8897   25.4455 C   0  0  2  0  0  0  0  0  0  0  0  0
   11.5042  -17.8424   24.3860 N   0  0  0  0  0  0  0  0  0  0  0  0
   13.7938  -18.3981   24.9619 C   0  0  0  0  0  0  0  0  0  0  0  0
   13.8679  -19.5150   24.1449 O   0  0  0  0  0  0  0  0  0  0  0  0
   14.8698  -17.8440   25.2689 O   0  0  0  0  0  0  0  0  0  0  0  0
  2 13  1  0
  2  1  1  1
  3  2  1  0
  4 12  1  0
  4  3  1  0
  5  4  2  0
  6  5  1  0
  6  7  1  0
  7 12  2  0
  8  7  1  0
  8  9  2  0
  9 10  1  0
 10 11  2  0
 12 11  1  0
 13 14  2  0
 15 16  1  0
 16 17  2  0
 18 19  1  0
 18 16  1  0
 20 19  1  6
 20 21  1  0
 20 22  1  0
 21 13  1  0
 22 32  1  0
 23 22  2  0
 25 24  1  0
 25 26  2  0
 27 25  1  0
 28 27  1  0
 29 28  1  0
 30 29  1  0
 31 30  1  1
 31 33  1  0
 32 31  1  0
 33 34  1  0
 35 33  2  0
M  END
$$$$
