QVA.pdb
     RDKit          3D

 22 21  0  0  1  0  0  0  0  0999 V2000
    4.9986  -20.4496   23.7386 N   0  0  0  0  0  0  0  0  0  0  0  0
    6.4482  -20.4370   23.7235 C   0  0  0  0  0  0  0  0  0  0  0  0
    7.0316  -21.5228   23.7749 O   0  0  0  0  0  0  0  0  0  0  0  0
    7.0927  -19.1338   23.6455 C   0  0  0  0  0  0  0  0  0  0  0  0
    6.2231  -17.9363   23.6688 C   0  0  0  0  0  0  0  0  0  0  0  0
    6.6863  -16.7468   22.8893 C   0  0  2  0  0  0  0  0  0  0  0  0
    7.4200  -17.0922   21.7095 N   0  0  0  0  0  0  0  0  0  0  0  0
    7.4663  -15.8132   23.7785 C   0  0  0  0  0  0  0  0  0  0  0  0
    8.7183  -15.7117   23.6125 O   0  0  0  0  0  0  0  0  0  0  0  0
    5.9212  -12.4022   25.4162 C   0  0  0  0  0  0  0  0  0  0  0  0
    6.7148  -13.2559   26.3531 C   0  0  2  0  0  0  0  0  0  0  0  0
    7.3793  -12.4378   27.4503 C   0  0  0  0  0  0  0  0  0  0  0  0
    7.6751  -14.2000   25.7078 C   0  0  2  0  0  0  0  0  0  0  0  0
    6.8728  -15.0371   24.7963 N   0  0  0  0  0  0  0  0  0  0  0  0
    8.4770  -15.0292   26.6075 C   0  0  0  0  0  0  0  0  0  0  0  0
    7.8640  -15.9772   27.2110 O   0  0  0  0  0  0  0  0  0  0  0  0
   11.9836  -16.0319   27.2936 C   0  0  0  0  0  0  0  0  0  0  0  0
   10.5283  -15.8924   27.7486 C   0  0  2  0  0  0  0  0  0  0  0  0
    9.8381  -14.9152   26.8916 N   0  0  0  0  0  0  0  0  0  0  0  0
   10.5682  -15.3847   29.1335 C   0  0  0  0  0  0  0  0  0  0  0  0
   10.9607  -16.1847   30.1818 O   0  0  0  0  0  0  0  0  0  0  0  0
   10.2386  -14.2036   29.3581 O   0  0  0  0  0  0  0  0  0  0  0  0
  2  3  2  0
  2  1  1  0
  4  2  1  0
  5  4  1  0
  6  5  1  0
  6  7  1  6
  8  6  1  0
  8 14  1  0
  9  8  2  0
 11 10  1  6
 11 13  1  0
 11 12  1  0
 13 14  1  6
 13 15  1  0
 15 19  1  0
 16 15  2  0
 18 20  1  0
 18 17  1  6
 19 18  1  0
 20 21  1  0
 22 20  2  0
M  END
$$$$
