QVA.pdb
     RDKit          3D

 22 21  0  0  1  0  0  0  0  0999 V2000
    8.2933  -18.5315   19.3210 N   0  0  0  0  0  0  0  0  0  0  0  0
    7.6061  -18.8635   20.5536 C   0  0  0  0  0  0  0  0  0  0  0  0
    7.1193  -19.9928   20.6524 O   0  0  0  0  0  0  0  0  0  0  0  0
    7.5533  -17.8277   21.5755 C   0  0  0  0  0  0  0  0  0  0  0  0
    8.0957  -16.4947   21.2292 C   0  0  0  0  0  0  0  0  0  0  0  0
    7.3421  -15.3047   21.7323 C   0  0  2  0  0  0  0  0  0  0  0  0
    7.1234  -14.3063   20.7298 N   0  0  0  0  0  0  0  0  0  0  0  0
    8.0228  -14.7340   22.9495 C   0  0  0  0  0  0  0  0  0  0  0  0
    9.2362  -14.3797   22.8637 O   0  0  0  0  0  0  0  0  0  0  0  0
    6.5085  -12.0588   25.2586 C   0  0  0  0  0  0  0  0  0  0  0  0
    7.0960  -13.1621   26.0796 C   0  0  2  0  0  0  0  0  0  0  0  0
    7.6395  -12.6601   27.4090 C   0  0  0  0  0  0  0  0  0  0  0  0
    8.0797  -14.0365   25.3740 C   0  0  2  0  0  0  0  0  0  0  0  0
    7.3762  -14.5701   24.1927 N   0  0  0  0  0  0  0  0  0  0  0  0
    8.6714  -15.1181   26.1615 C   0  0  0  0  0  0  0  0  0  0  0  0
    7.8872  -16.0685   26.5089 O   0  0  0  0  0  0  0  0  0  0  0  0
   11.8690  -16.7755   26.9788 C   0  0  0  0  0  0  0  0  0  0  0  0
   10.4401  -16.3994   27.3801 C   0  0  2  0  0  0  0  0  0  0  0  0
    9.9950  -15.2446   26.5839 N   0  0  0  0  0  0  0  0  0  0  0  0
   10.4903  -16.0195   28.8050 C   0  0  0  0  0  0  0  0  0  0  0  0
   10.7219  -16.9517   29.7902 O   0  0  0  0  0  0  0  0  0  0  0  0
   10.3189  -14.8264   29.1229 O   0  0  0  0  0  0  0  0  0  0  0  0
  2  3  2  0
  2  1  1  0
  4  2  1  0
  5  4  1  0
  6  5  1  0
  6  7  1  6
  8  6  1  0
  8 14  1  0
  9  8  2  0
 11 10  1  6
 11 13  1  0
 11 12  1  0
 13 14  1  6
 13 15  1  0
 15 19  1  0
 16 15  2  0
 18 20  1  0
 18 17  1  6
 19 18  1  0
 20 21  1  0
 22 20  2  0
M  END
$$$$
