QVA.pdb
     RDKit          3D

 22 21  0  0  1  0  0  0  0  0999 V2000
    7.5858  -20.1413   19.1821 N   0  0  0  0  0  0  0  0  0  0  0  0
    8.2829  -20.4498   17.9489 C   0  0  0  0  0  0  0  0  0  0  0  0
    8.9177  -21.5064   17.8979 O   0  0  0  0  0  0  0  0  0  0  0  0
    8.1690  -19.4790   16.8699 C   0  0  0  0  0  0  0  0  0  0  0  0
    7.3404  -18.2769   17.1136 C   0  0  0  0  0  0  0  0  0  0  0  0
    7.9251  -16.9586   16.7168 C   0  0  2  0  0  0  0  0  0  0  0  0
    8.8331  -17.0496   15.6138 N   0  0  0  0  0  0  0  0  0  0  0  0
    8.5600  -16.2907   17.9091 C   0  0  0  0  0  0  0  0  0  0  0  0
    9.8210  -16.3207   18.0292 O   0  0  0  0  0  0  0  0  0  0  0  0
    7.1467  -12.8707   19.5208 C   0  0  0  0  0  0  0  0  0  0  0  0
    7.5124  -13.9175   20.5242 C   0  0  2  0  0  0  0  0  0  0  0  0
    7.9455  -13.3127   21.8514 C   0  0  0  0  0  0  0  0  0  0  0  0
    8.4738  -14.9570   20.0496 C   0  0  2  0  0  0  0  0  0  0  0  0
    7.8198  -15.6262   18.9095 N   0  0  0  0  0  0  0  0  0  0  0  0
    8.9188  -15.9344   21.0430 C   0  0  0  0  0  0  0  0  0  0  0  0
    8.0413  -16.7692   21.4576 O   0  0  0  0  0  0  0  0  0  0  0  0
   11.4502  -18.1006   22.1554 C   0  0  0  0  0  0  0  0  0  0  0  0
   10.4615  -17.0487   22.6656 C   0  0  2  0  0  0  0  0  0  0  0  0
   10.1909  -16.0718   21.5987 N   0  0  0  0  0  0  0  0  0  0  0  0
   11.1202  -16.3668   23.7962 C   0  0  0  0  0  0  0  0  0  0  0  0
   11.3215  -17.0014   25.0004 O   0  0  0  0  0  0  0  0  0  0  0  0
   11.5029  -15.1886   23.6565 O   0  0  0  0  0  0  0  0  0  0  0  0
  2  3  2  0
  2  1  1  0
  4  2  1  0
  5  4  1  0
  6  5  1  0
  6  7  1  6
  8  6  1  0
  8 14  1  0
  9  8  2  0
 11 10  1  6
 11 13  1  0
 11 12  1  0
 13 14  1  6
 13 15  1  0
 15 19  1  0
 16 15  2  0
 18 20  1  0
 18 17  1  6
 19 18  1  0
 20 21  1  0
 22 20  2  0
M  END
$$$$
