QVA.pdb
     RDKit          3D

 22 21  0  0  1  0  0  0  0  0999 V2000
    6.6294  -19.7189   23.5316 N   0  0  0  0  0  0  0  0  0  0  0  0
    5.9236  -19.3179   22.3304 C   0  0  0  0  0  0  0  0  0  0  0  0
    5.1892  -20.1502   21.7920 O   0  0  0  0  0  0  0  0  0  0  0  0
    6.1433  -17.9565   21.8634 C   0  0  0  0  0  0  0  0  0  0  0  0
    6.9731  -17.0676   22.7074 C   0  0  0  0  0  0  0  0  0  0  0  0
    7.0110  -15.6197   22.3343 C   0  0  2  0  0  0  0  0  0  0  0  0
    7.5252  -15.3861   21.0188 N   0  0  0  0  0  0  0  0  0  0  0  0
    7.7640  -14.8332   23.3760 C   0  0  0  0  0  0  0  0  0  0  0  0
    8.9896  -14.5766   23.1830 O   0  0  0  0  0  0  0  0  0  0  0  0
    6.4590  -11.7489   25.5356 C   0  0  0  0  0  0  0  0  0  0  0  0
    7.0629  -12.8301   26.3738 C   0  0  2  0  0  0  0  0  0  0  0  0
    7.7028  -12.2829   27.6410 C   0  0  0  0  0  0  0  0  0  0  0  0
    7.9741  -13.7697   25.6547 C   0  0  2  0  0  0  0  0  0  0  0  0
    7.1730  -14.3612   24.5669 N   0  0  0  0  0  0  0  0  0  0  0  0
    8.6051  -14.8121   26.4642 C   0  0  0  0  0  0  0  0  0  0  0  0
    7.8189  -15.6095   27.0847 O   0  0  0  0  0  0  0  0  0  0  0  0
   11.9329  -16.4175   27.1702 C   0  0  0  0  0  0  0  0  0  0  0  0
   10.4509  -16.1707   27.4653 C   0  0  2  0  0  0  0  0  0  0  0  0
    9.9681  -15.0482   26.6452 N   0  0  0  0  0  0  0  0  0  0  0  0
   10.3620  -15.8062   28.8923 C   0  0  0  0  0  0  0  0  0  0  0  0
   10.5591  -16.7372   29.8861 O   0  0  0  0  0  0  0  0  0  0  0  0
   10.1023  -14.6275   29.2041 O   0  0  0  0  0  0  0  0  0  0  0  0
  2  3  2  0
  2  1  1  0
  4  2  1  0
  5  4  1  0
  6  5  1  0
  6  7  1  6
  8  6  1  0
  8 14  1  0
  9  8  2  0
 11 10  1  6
 11 13  1  0
 11 12  1  0
 13 14  1  6
 13 15  1  0
 15 19  1  0
 16 15  2  0
 18 20  1  0
 18 17  1  6
 19 18  1  0
 20 21  1  0
 22 20  2  0
M  END
$$$$
