QVA.pdb
     RDKit          3D

 22 21  0  0  1  0  0  0  0  0999 V2000
    5.2838  -18.9062   20.4606 N   0  0  0  0  0  0  0  0  0  0  0  0
    5.8758  -19.4373   19.2484 C   0  0  0  0  0  0  0  0  0  0  0  0
    5.1144  -19.8817   18.3854 O   0  0  0  0  0  0  0  0  0  0  0  0
    7.3281  -19.3962   19.1544 C   0  0  0  0  0  0  0  0  0  0  0  0
    8.0671  -18.7238   20.2465 C   0  0  0  0  0  0  0  0  0  0  0  0
    8.3709  -17.2706   20.0650 C   0  0  2  0  0  0  0  0  0  0  0  0
    9.2125  -17.0032   18.9382 N   0  0  0  0  0  0  0  0  0  0  0  0
    8.9403  -16.6951   21.3361 C   0  0  0  0  0  0  0  0  0  0  0  0
   10.1984  -16.6218   21.4660 O   0  0  0  0  0  0  0  0  0  0  0  0
    7.6166  -13.4647   23.0664 C   0  0  0  0  0  0  0  0  0  0  0  0
    7.8135  -14.5657   24.0591 C   0  0  2  0  0  0  0  0  0  0  0  0
    8.1763  -14.0356   25.4384 C   0  0  0  0  0  0  0  0  0  0  0  0
    8.7295  -15.6641   23.6296 C   0  0  2  0  0  0  0  0  0  0  0  0
    8.1409  -16.2280   22.4006 N   0  0  0  0  0  0  0  0  0  0  0  0
    8.9911  -16.7155   24.6127 C   0  0  0  0  0  0  0  0  0  0  0  0
    7.9765  -17.3771   25.0270 O   0  0  0  0  0  0  0  0  0  0  0  0
   11.6445  -18.9774   25.8065 C   0  0  0  0  0  0  0  0  0  0  0  0
   10.3332  -18.2347   26.0774 C   0  0  2  0  0  0  0  0  0  0  0  0
   10.2188  -17.0907   25.1588 N   0  0  0  0  0  0  0  0  0  0  0  0
   10.4098  -17.7403   27.4656 C   0  0  0  0  0  0  0  0  0  0  0  0
   10.3156  -18.5950   28.5397 O   0  0  0  0  0  0  0  0  0  0  0  0
   10.5634  -16.5200   27.6691 O   0  0  0  0  0  0  0  0  0  0  0  0
  2  3  2  0
  2  1  1  0
  4  2  1  0
  5  4  1  0
  6  5  1  0
  6  7  1  6
  8  6  1  0
  8 14  1  0
  9  8  2  0
 11 10  1  6
 11 13  1  0
 11 12  1  0
 13 14  1  6
 13 15  1  0
 15 19  1  0
 16 15  2  0
 18 20  1  0
 18 17  1  6
 19 18  1  0
 20 21  1  0
 22 20  2  0
M  END
$$$$
