QVA.pdb
     RDKit          3D

 22 21  0  0  1  0  0  0  0  0999 V2000
    5.1202  -20.4250   23.3050 N   0  0  0  0  0  0  0  0  0  0  0  0
    6.5260  -20.0788   23.3794 C   0  0  0  0  0  0  0  0  0  0  0  0
    7.2843  -20.8765   23.9366 O   0  0  0  0  0  0  0  0  0  0  0  0
    6.9225  -18.8114   22.7826 C   0  0  0  0  0  0  0  0  0  0  0  0
    6.2534  -17.5846   23.2705 C   0  0  0  0  0  0  0  0  0  0  0  0
    6.7008  -16.2865   22.6771 C   0  0  2  0  0  0  0  0  0  0  0  0
    7.3951  -16.4400   21.4346 N   0  0  0  0  0  0  0  0  0  0  0  0
    7.5148  -15.5092   23.6792 C   0  0  0  0  0  0  0  0  0  0  0  0
    8.7725  -15.4545   23.5369 O   0  0  0  0  0  0  0  0  0  0  0  0
    6.0657  -12.1731   25.4931 C   0  0  0  0  0  0  0  0  0  0  0  0
    6.8203  -13.0992   26.3927 C   0  0  2  0  0  0  0  0  0  0  0  0
    7.4884  -12.3620   27.5438 C   0  0  0  0  0  0  0  0  0  0  0  0
    7.7654  -14.0325   25.7101 C   0  0  2  0  0  0  0  0  0  0  0  0
    6.9472  -14.8312   24.7786 N   0  0  0  0  0  0  0  0  0  0  0  0
    8.5648  -14.8985   26.5766 C   0  0  0  0  0  0  0  0  0  0  0  0
    7.9285  -15.7909   27.2381 O   0  0  0  0  0  0  0  0  0  0  0  0
   12.0717  -16.0299   27.1669 C   0  0  0  0  0  0  0  0  0  0  0  0
   10.6188  -15.8692   27.6225 C   0  0  2  0  0  0  0  0  0  0  0  0
    9.9458  -14.8737   26.7729 N   0  0  0  0  0  0  0  0  0  0  0  0
   10.6667  -15.3732   29.0113 C   0  0  0  0  0  0  0  0  0  0  0  0
   11.0893  -16.1743   30.0470 O   0  0  0  0  0  0  0  0  0  0  0  0
   10.3161  -14.2011   29.2511 O   0  0  0  0  0  0  0  0  0  0  0  0
  2  3  2  0
  2  1  1  0
  4  2  1  0
  5  4  1  0
  6  5  1  0
  6  7  1  6
  8  6  1  0
  8 14  1  0
  9  8  2  0
 11 10  1  6
 11 13  1  0
 11 12  1  0
 13 14  1  6
 13 15  1  0
 15 19  1  0
 16 15  2  0
 18 20  1  0
 18 17  1  6
 19 18  1  0
 20 21  1  0
 22 20  2  0
M  END
$$$$
