QVA.pdb
     RDKit          3D

 22 21  0  0  1  0  0  0  0  0999 V2000
   11.8746  -19.0365   14.9109 N   0  0  0  0  0  0  0  0  0  0  0  0
   10.5902  -18.6626   14.3520 C   0  0  0  0  0  0  0  0  0  0  0  0
   10.2837  -19.1338   13.2538 O   0  0  0  0  0  0  0  0  0  0  0  0
    9.7675  -17.7593   15.1438 C   0  0  0  0  0  0  0  0  0  0  0  0
   10.3210  -17.2764   16.4288 C   0  0  0  0  0  0  0  0  0  0  0  0
    9.5224  -17.5619   17.6609 C   0  0  2  0  0  0  0  0  0  0  0  0
    8.1218  -17.7139   17.4067 N   0  0  0  0  0  0  0  0  0  0  0  0
    9.7890  -16.5122   18.7088 C   0  0  0  0  0  0  0  0  0  0  0  0
   10.9887  -16.2163   18.9886 O   0  0  0  0  0  0  0  0  0  0  0  0
    7.7424  -13.1095   19.4057 C   0  0  0  0  0  0  0  0  0  0  0  0
    7.9185  -13.9774   20.6108 C   0  0  2  0  0  0  0  0  0  0  0  0
    7.9399  -13.1700   21.9002 C   0  0  0  0  0  0  0  0  0  0  0  0
    9.0521  -14.9473   20.5462 C   0  0  2  0  0  0  0  0  0  0  0  0
    8.7652  -15.8332   19.4024 N   0  0  0  0  0  0  0  0  0  0  0  0
    9.3124  -15.7262   21.7568 C   0  0  0  0  0  0  0  0  0  0  0  0
    8.4121  -16.5691   22.0998 O   0  0  0  0  0  0  0  0  0  0  0  0
   12.0626  -16.8877   23.9502 C   0  0  0  0  0  0  0  0  0  0  0  0
   10.5794  -16.5705   23.7410 C   0  0  2  0  0  0  0  0  0  0  0  0
   10.4292  -15.6650   22.5906 N   0  0  0  0  0  0  0  0  0  0  0  0
   10.1197  -15.8857   24.9645 C   0  0  0  0  0  0  0  0  0  0  0  0
    9.9286  -16.5698   26.1429 O   0  0  0  0  0  0  0  0  0  0  0  0
    9.8998  -14.6592   24.9290 O   0  0  0  0  0  0  0  0  0  0  0  0
  2  3  2  0
  2  1  1  0
  4  2  1  0
  5  4  1  0
  6  5  1  0
  6  7  1  6
  8  6  1  0
  8 14  1  0
  9  8  2  0
 11 10  1  6
 11 13  1  0
 11 12  1  0
 13 14  1  6
 13 15  1  0
 15 19  1  0
 16 15  2  0
 18 20  1  0
 18 17  1  1
 19 18  1  0
 20 21  1  0
 22 20  2  0
M  END
$$$$
