QVA.pdb
     RDKit          3D

 22 21  0  0  1  0  0  0  0  0999 V2000
    8.7745  -12.4996   18.5293 N   0  0  0  0  0  0  0  0  0  0  0  0
    7.9180  -13.6143   18.1748 C   0  0  0  0  0  0  0  0  0  0  0  0
    7.4886  -13.6626   17.0193 O   0  0  0  0  0  0  0  0  0  0  0  0
    7.6404  -14.5878   19.2212 C   0  0  0  0  0  0  0  0  0  0  0  0
    8.1860  -14.3184   20.5705 C   0  0  0  0  0  0  0  0  0  0  0  0
    8.0807  -15.4201   21.5767 C   0  0  2  0  0  0  0  0  0  0  0  0
    6.7672  -15.9822   21.6671 N   0  0  0  0  0  0  0  0  0  0  0  0
    8.5800  -14.9492   22.9183 C   0  0  0  0  0  0  0  0  0  0  0  0
    9.7382  -14.4417   22.9976 O   0  0  0  0  0  0  0  0  0  0  0  0
    6.7136  -12.6362   25.0859 C   0  0  0  0  0  0  0  0  0  0  0  0
    7.2431  -13.7125   25.9792 C   0  0  2  0  0  0  0  0  0  0  0  0
    7.6142  -13.1831   27.3565 C   0  0  0  0  0  0  0  0  0  0  0  0
    8.3309  -14.5547   25.3983 C   0  0  2  0  0  0  0  0  0  0  0  0
    7.8205  -15.0428   24.1035 N   0  0  0  0  0  0  0  0  0  0  0  0
    8.8059  -15.6650   26.2239 C   0  0  0  0  0  0  0  0  0  0  0  0
    7.9243  -16.5086   26.6109 O   0  0  0  0  0  0  0  0  0  0  0  0
   11.8497  -17.5791   27.1363 C   0  0  0  0  0  0  0  0  0  0  0  0
   10.4349  -17.0972   27.4688 C   0  0  2  0  0  0  0  0  0  0  0  0
   10.1110  -15.9218   26.6447 N   0  0  0  0  0  0  0  0  0  0  0  0
   10.4478  -16.7071   28.8918 C   0  0  0  0  0  0  0  0  0  0  0  0
   10.4814  -17.6480   29.8952 O   0  0  0  0  0  0  0  0  0  0  0  0
   10.4277  -15.4972   29.1911 O   0  0  0  0  0  0  0  0  0  0  0  0
  2  3  2  0
  2  1  1  0
  4  2  1  0
  5  4  1  0
  6  5  1  0
  6  7  1  1
  8  6  1  0
  8 14  1  0
  9  8  2  0
 11 10  1  6
 11 13  1  0
 11 12  1  0
 13 14  1  6
 13 15  1  0
 15 19  1  0
 16 15  2  0
 18 20  1  0
 18 17  1  6
 19 18  1  0
 20 21  1  0
 22 20  2  0
M  END
$$$$
