QVA.pdb
     RDKit          3D

 22 21  0  0  1  0  0  0  0  0999 V2000
    7.0705  -20.4520   26.0377 N   0  0  0  0  0  0  0  0  0  0  0  0
    6.7517  -20.7091   24.6470 C   0  0  0  0  0  0  0  0  0  0  0  0
    6.5320  -21.8770   24.3156 O   0  0  0  0  0  0  0  0  0  0  0  0
    6.7157  -19.5569   23.7577 C   0  0  0  0  0  0  0  0  0  0  0  0
    6.9368  -18.2215   24.3566 C   0  0  0  0  0  0  0  0  0  0  0  0
    6.7027  -17.0360   23.4752 C   0  0  2  0  0  0  0  0  0  0  0  0
    7.0232  -17.2784   22.1011 N   0  0  0  0  0  0  0  0  0  0  0  0
    7.4330  -15.8335   24.0151 C   0  0  0  0  0  0  0  0  0  0  0  0
    8.5578  -15.5260   23.5197 O   0  0  0  0  0  0  0  0  0  0  0  0
    6.0846  -12.2329   24.9187 C   0  0  0  0  0  0  0  0  0  0  0  0
    6.7983  -12.8807   26.0621 C   0  0  2  0  0  0  0  0  0  0  0  0
    7.4478  -11.8599   26.9845 C   0  0  0  0  0  0  0  0  0  0  0  0
    7.7450  -13.9753   25.6937 C   0  0  2  0  0  0  0  0  0  0  0  0
    6.9274  -15.0221   25.0526 N   0  0  0  0  0  0  0  0  0  0  0  0
    8.5491  -14.5339   26.7806 C   0  0  0  0  0  0  0  0  0  0  0  0
    7.9089  -15.0993   27.7341 O   0  0  0  0  0  0  0  0  0  0  0  0
   10.0064  -13.8784   29.2715 C   0  0  0  0  0  0  0  0  0  0  0  0
   10.5923  -14.8000   28.1982 C   0  0  2  0  0  0  0  0  0  0  0  0
    9.9383  -14.5281   26.9082 N   0  0  0  0  0  0  0  0  0  0  0  0
   10.2871  -16.1811   28.6186 C   0  0  0  0  0  0  0  0  0  0  0  0
    9.5035  -17.0105   27.8494 O   0  0  0  0  0  0  0  0  0  0  0  0
   10.7500  -16.6056   29.6954 O   0  0  0  0  0  0  0  0  0  0  0  0
  2  3  2  0
  2  1  1  0
  4  2  1  0
  5  4  1  0
  6  5  1  0
  6  7  1  6
  8  6  1  0
  8 14  1  0
  9  8  2  0
 11 10  1  6
 11 13  1  0
 11 12  1  0
 13 14  1  1
 13 15  1  0
 15 19  1  0
 16 15  2  0
 18 20  1  0
 18 17  1  1
 19 18  1  0
 20 21  1  0
 22 20  2  0
M  END
$$$$
