QVA.pdb
     RDKit          3D

 22 21  0  0  1  0  0  0  0  0999 V2000
    4.7436  -19.2188   22.6142 N   0  0  0  0  0  0  0  0  0  0  0  0
    6.1896  -19.3145   22.6571 C   0  0  0  0  0  0  0  0  0  0  0  0
    6.6848  -20.4243   22.8694 O   0  0  0  0  0  0  0  0  0  0  0  0
    6.9358  -18.0831   22.4410 C   0  0  0  0  0  0  0  0  0  0  0  0
    6.1637  -16.8265   22.3154 C   0  0  0  0  0  0  0  0  0  0  0  0
    6.9360  -15.5848   22.0013 C   0  0  2  0  0  0  0  0  0  0  0  0
    7.7938  -15.7227   20.8635 N   0  0  0  0  0  0  0  0  0  0  0  0
    7.6934  -15.1208   23.2187 C   0  0  0  0  0  0  0  0  0  0  0  0
    8.9446  -15.3127   23.2721 O   0  0  0  0  0  0  0  0  0  0  0  0
    6.6616  -11.8888   25.3996 C   0  0  0  0  0  0  0  0  0  0  0  0
    7.0224  -13.0801   26.2284 C   0  0  2  0  0  0  0  0  0  0  0  0
    7.6386  -12.6849   27.5622 C   0  0  0  0  0  0  0  0  0  0  0  0
    7.8296  -14.1273   25.5343 C   0  0  2  0  0  0  0  0  0  0  0  0
    7.0794  -14.4772   24.3137 N   0  0  0  0  0  0  0  0  0  0  0  0
    8.1490  -15.3248   26.3116 C   0  0  0  0  0  0  0  0  0  0  0  0
    7.1571  -16.0213   26.7235 O   0  0  0  0  0  0  0  0  0  0  0  0
   10.6401  -17.9165   26.8828 C   0  0  0  0  0  0  0  0  0  0  0  0
    9.5686  -17.0099   27.4948 C   0  0  2  0  0  0  0  0  0  0  0  0
    9.4103  -15.8068   26.6621 N   0  0  0  0  0  0  0  0  0  0  0  0
   10.0620  -16.6185   28.8292 C   0  0  0  0  0  0  0  0  0  0  0  0
   10.2152  -17.5411   29.8384 O   0  0  0  0  0  0  0  0  0  0  0  0
   10.3464  -15.4244   29.0464 O   0  0  0  0  0  0  0  0  0  0  0  0
  2  3  2  0
  2  1  1  0
  4  2  1  0
  5  4  1  0
  6  5  1  0
  6  7  1  6
  8  6  1  0
  8 14  1  0
  9  8  2  0
 11 10  1  6
 11 13  1  0
 11 12  1  0
 13 14  1  6
 13 15  1  0
 15 19  1  0
 16 15  2  0
 18 20  1  0
 18 17  1  6
 19 18  1  0
 20 21  1  0
 22 20  2  0
M  END
$$$$
