GEE.pdb
     RDKit          3D

 23 22  0  0  1  0  0  0  0  0999 V2000
   10.0389  -13.7195   18.0992 N   0  0  0  0  0  0  0  0  0  0  0  0
   10.1054  -14.9597   18.8449 C   0  0  0  0  0  0  0  0  0  0  0  0
   10.9352  -14.7428   20.0499 C   0  0  0  0  0  0  0  0  0  0  0  0
   11.7258  -13.7694   20.0888 O   0  0  0  0  0  0  0  0  0  0  0  0
   10.8885  -15.5850   21.1832 N   0  0  0  0  0  0  0  0  0  0  0  0
   11.7477  -15.4656   22.3269 C   0  0  1  0  0  0  0  0  0  0  0  0
   11.1696  -16.0276   23.5907 C   0  0  0  0  0  0  0  0  0  0  0  0
   12.2469  -16.7247   24.4057 C   0  0  0  0  0  0  0  0  0  0  0  0
   11.7136  -17.1811   25.7172 C   0  0  0  0  0  0  0  0  0  0  0  0
   10.4947  -17.0710   26.0180 O   0  0  0  0  0  0  0  0  0  0  0  0
   13.0337  -16.1219   21.9887 C   0  0  0  0  0  0  0  0  0  0  0  0
   13.0070  -17.3248   21.6417 O   0  0  0  0  0  0  0  0  0  0  0  0
   12.5991  -17.7451   26.6306 O   0  0  0  0  0  0  0  0  0  0  0  0
   14.2815  -15.4674   22.0364 N   0  0  0  0  0  0  0  0  0  0  0  0
   15.5376  -16.1761   21.6856 C   0  0  1  0  0  0  0  0  0  0  0  0
   15.9993  -15.7538   20.3373 C   0  0  0  0  0  0  0  0  0  0  0  0
   15.8388  -14.2944   20.1165 C   0  0  0  0  0  0  0  0  0  0  0  0
   16.3389  -13.8062   18.8173 C   0  0  0  0  0  0  0  0  0  0  0  0
   16.1837  -12.6382   18.4432 O   0  0  0  0  0  0  0  0  0  0  0  0
   16.5602  -15.8943   22.7082 C   0  0  0  0  0  0  0  0  0  0  0  0
   16.2655  -15.1351   23.6946 O   0  0  0  0  0  0  0  0  0  0  0  0
   17.0108  -14.6878   17.9773 O   0  0  0  0  0  0  0  0  0  0  0  0
   17.8432  -16.3856   22.7078 O   0  0  0  0  0  0  0  0  0  0  0  0
  2  1  1  0
  3  5  1  0
  3  2  1  0
  4  3  2  0
  6  7  1  1
  6  5  1  0
  8  7  1  0
  9  8  1  0
 10  9  2  0
 11 14  1  0
 11  6  1  0
 12 11  2  0
 13  9  1  0
 15 14  1  0
 15 16  1  6
 16 17  1  0
 17 18  1  0
 18 22  1  0
 19 18  2  0
 20 15  1  0
 21 20  2  0
 23 20  1  0
M  END
$$$$
