GEE.pdb
     RDKit          3D

 23 22  0  0  1  0  0  0  0  0999 V2000
    7.3224  -12.7443   18.7884 N   0  0  0  0  0  0  0  0  0  0  0  0
    8.6205  -13.3652   18.9561 C   0  0  0  0  0  0  0  0  0  0  0  0
    8.5613  -14.2777   20.1186 C   0  0  0  0  0  0  0  0  0  0  0  0
    7.5508  -14.2667   20.8622 O   0  0  0  0  0  0  0  0  0  0  0  0
    9.5975  -15.1799   20.4476 N   0  0  0  0  0  0  0  0  0  0  0  0
    9.5146  -16.1828   21.4711 C   0  0  1  0  0  0  0  0  0  0  0  0
   10.4693  -17.3244   21.2911 C   0  0  0  0  0  0  0  0  0  0  0  0
   10.2748  -18.3598   22.3870 C   0  0  0  0  0  0  0  0  0  0  0  0
   11.2371  -19.4842   22.2369 C   0  0  0  0  0  0  0  0  0  0  0  0
   10.9907  -20.6384   22.6791 O   0  0  0  0  0  0  0  0  0  0  0  0
    9.7271  -15.5082   22.7744 C   0  0  0  0  0  0  0  0  0  0  0  0
   10.7411  -14.7849   22.9042 O   0  0  0  0  0  0  0  0  0  0  0  0
   12.4425  -19.2399   21.5860 O   0  0  0  0  0  0  0  0  0  0  0  0
    8.8521  -15.6361   23.8725 N   0  0  0  0  0  0  0  0  0  0  0  0
    8.9740  -14.7562   25.0617 C   0  0  1  0  0  0  0  0  0  0  0  0
    7.6663  -14.1123   25.3530 C   0  0  0  0  0  0  0  0  0  0  0  0
    7.7320  -13.2053   26.5266 C   0  0  0  0  0  0  0  0  0  0  0  0
    6.4561  -12.5530   26.8770 C   0  0  0  0  0  0  0  0  0  0  0  0
    5.3851  -12.8596   26.3410 O   0  0  0  0  0  0  0  0  0  0  0  0
    9.4416  -15.5499   26.2115 C   0  0  0  0  0  0  0  0  0  0  0  0
    9.2907  -16.8201   26.1973 O   0  0  0  0  0  0  0  0  0  0  0  0
    6.4509  -11.5549   27.8456 O   0  0  0  0  0  0  0  0  0  0  0  0
   10.0469  -15.0427   27.3357 O   0  0  0  0  0  0  0  0  0  0  0  0
  2  1  1  0
  3  5  1  0
  3  2  1  0
  4  3  2  0
  6  7  1  6
  6  5  1  0
  8  7  1  0
  9  8  1  0
 10  9  2  0
 11 14  1  0
 11  6  1  0
 12 11  2  0
 13  9  1  0
 15 14  1  0
 15 16  1  1
 16 17  1  0
 17 18  1  0
 18 22  1  0
 19 18  2  0
 20 15  1  0
 21 20  2  0
 23 20  1  0
M  END
$$$$
