GEE.pdb
     RDKit          3D

 23 22  0  0  1  0  0  0  0  0999 V2000
   10.9356  -17.9601   17.5861 N   0  0  0  0  0  0  0  0  0  0  0  0
   10.4714  -18.3857   18.8907 C   0  0  0  0  0  0  0  0  0  0  0  0
   11.0998  -17.5282   19.9190 C   0  0  0  0  0  0  0  0  0  0  0  0
   12.0269  -16.7488   19.5914 O   0  0  0  0  0  0  0  0  0  0  0  0
   10.7091  -17.5354   21.2766 N   0  0  0  0  0  0  0  0  0  0  0  0
   11.2658  -16.6878   22.2925 C   0  0  1  0  0  0  0  0  0  0  0  0
   10.4298  -16.5849   23.5326 C   0  0  0  0  0  0  0  0  0  0  0  0
   11.1028  -15.6845   24.5559 C   0  0  0  0  0  0  0  0  0  0  0  0
   10.2944  -15.5933   25.8013 C   0  0  0  0  0  0  0  0  0  0  0  0
    9.2607  -16.2917   25.9798 O   0  0  0  0  0  0  0  0  0  0  0  0
   12.6233  -17.1971   22.6032 C   0  0  0  0  0  0  0  0  0  0  0  0
   12.7613  -18.4274   22.7919 O   0  0  0  0  0  0  0  0  0  0  0  0
   10.7037  -14.7051   26.7912 O   0  0  0  0  0  0  0  0  0  0  0  0
   13.7642  -16.3742   22.6975 N   0  0  0  0  0  0  0  0  0  0  0  0
   15.1119  -16.9492   22.9349 C   0  0  1  0  0  0  0  0  0  0  0  0
   16.1471  -16.0996   22.2901 C   0  0  0  0  0  0  0  0  0  0  0  0
   17.5255  -16.5609   22.5928 C   0  0  0  0  0  0  0  0  0  0  0  0
   18.5966  -15.7673   21.9608 C   0  0  0  0  0  0  0  0  0  0  0  0
   18.3668  -14.7400   21.3127 O   0  0  0  0  0  0  0  0  0  0  0  0
   15.3470  -17.0622   24.3850 C   0  0  0  0  0  0  0  0  0  0  0  0
   16.1781  -17.9328   24.8178 O   0  0  0  0  0  0  0  0  0  0  0  0
   19.9164  -16.1852   22.0953 O   0  0  0  0  0  0  0  0  0  0  0  0
   14.7418  -16.2962   25.3517 O   0  0  0  0  0  0  0  0  0  0  0  0
  2  1  1  0
  3  5  1  0
  3  2  1  0
  4  3  2  0
  6  7  1  1
  6  5  1  0
  8  7  1  0
  9  8  1  0
 10  9  2  0
 11 14  1  0
 11  6  1  0
 12 11  2  0
 13  9  1  0
 15 14  1  0
 15 16  1  1
 16 17  1  0
 17 18  1  0
 18 22  1  0
 19 18  2  0
 20 15  1  0
 21 20  2  0
 23 20  1  0
M  END
$$$$
