GEE.pdb
     RDKit          3D

 23 22  0  0  1  0  0  0  0  0999 V2000
    7.1211  -13.0755   18.8287 N   0  0  0  0  0  0  0  0  0  0  0  0
    8.5052  -12.6687   18.6972 C   0  0  0  0  0  0  0  0  0  0  0  0
    9.3699  -13.8303   18.9979 C   0  0  0  0  0  0  0  0  0  0  0  0
    8.8466  -14.9185   19.3387 O   0  0  0  0  0  0  0  0  0  0  0  0
   10.7799  -13.7853   18.9223 N   0  0  0  0  0  0  0  0  0  0  0  0
   11.6407  -14.9305   19.0114 C   0  0  1  0  0  0  0  0  0  0  0  0
   12.6628  -15.0171   17.9181 C   0  0  0  0  0  0  0  0  0  0  0  0
   12.0520  -15.6214   16.6641 C   0  0  0  0  0  0  0  0  0  0  0  0
   13.1057  -15.9935   15.6822 C   0  0  0  0  0  0  0  0  0  0  0  0
   13.9675  -15.1660   15.2808 O   0  0  0  0  0  0  0  0  0  0  0  0
   12.2863  -14.9000   20.3460 C   0  0  0  0  0  0  0  0  0  0  0  0
   12.9111  -13.8655   20.6739 O   0  0  0  0  0  0  0  0  0  0  0  0
   13.1288  -17.2988   15.2005 O   0  0  0  0  0  0  0  0  0  0  0  0
   12.2353  -15.9692   21.2635 N   0  0  0  0  0  0  0  0  0  0  0  0
   12.8404  -15.8555   22.6141 C   0  0  1  0  0  0  0  0  0  0  0  0
   12.2620  -16.8841   23.5178 C   0  0  0  0  0  0  0  0  0  0  0  0
   12.7401  -16.7410   24.9161 C   0  0  0  0  0  0  0  0  0  0  0  0
   12.1373  -17.6851   25.8762 C   0  0  0  0  0  0  0  0  0  0  0  0
   12.7914  -18.2242   26.7761 O   0  0  0  0  0  0  0  0  0  0  0  0
   14.3025  -16.0044   22.5090 C   0  0  0  0  0  0  0  0  0  0  0  0
   15.0526  -15.4404   23.3782 O   0  0  0  0  0  0  0  0  0  0  0  0
   10.7832  -17.9842   25.7703 O   0  0  0  0  0  0  0  0  0  0  0  0
   14.9625  -16.7160   21.5366 O   0  0  0  0  0  0  0  0  0  0  0  0
  2  1  1  0
  3  5  1  0
  3  2  1  0
  4  3  2  0
  6  7  1  6
  6  5  1  0
  8  7  1  0
  9  8  1  0
 10  9  2  0
 11 14  1  0
 11  6  1  0
 12 11  2  0
 13  9  1  0
 15 14  1  0
 15 16  1  1
 16 17  1  0
 17 18  1  0
 18 22  1  0
 19 18  2  0
 20 15  1  0
 21 20  2  0
 23 20  1  0
M  END
$$$$
