GEE.pdb
     RDKit          3D

 23 22  0  0  1  0  0  0  0  0999 V2000
   15.7753  -20.0293   15.8039 N   0  0  0  0  0  0  0  0  0  0  0  0
   15.5559  -20.7648   17.0325 C   0  0  0  0  0  0  0  0  0  0  0  0
   15.2784  -19.7995   18.1182 C   0  0  0  0  0  0  0  0  0  0  0  0
   15.4970  -18.5784   17.9304 O   0  0  0  0  0  0  0  0  0  0  0  0
   14.7708  -20.1799   19.3805 N   0  0  0  0  0  0  0  0  0  0  0  0
   14.4261  -19.2663   20.4326 C   0  0  1  0  0  0  0  0  0  0  0  0
   13.2842  -19.7207   21.2910 C   0  0  0  0  0  0  0  0  0  0  0  0
   11.9587  -19.4754   20.5884 C   0  0  0  0  0  0  0  0  0  0  0  0
   10.8162  -19.9136   21.4344 C   0  0  0  0  0  0  0  0  0  0  0  0
    9.9292  -19.1095   21.8284 O   0  0  0  0  0  0  0  0  0  0  0  0
   15.6469  -19.0386   21.2430 C   0  0  0  0  0  0  0  0  0  0  0  0
   16.3334  -20.0350   21.5654 O   0  0  0  0  0  0  0  0  0  0  0  0
   10.7369  -21.2554   21.7944 O   0  0  0  0  0  0  0  0  0  0  0  0
   16.0758  -17.7649   21.6691 N   0  0  0  0  0  0  0  0  0  0  0  0
   17.3132  -17.5969   22.4714 C   0  0  1  0  0  0  0  0  0  0  0  0
   18.0202  -16.3557   22.0603 C   0  0  0  0  0  0  0  0  0  0  0  0
   19.2565  -16.1221   22.8485 C   0  0  0  0  0  0  0  0  0  0  0  0
   19.9977  -14.8982   22.4892 C   0  0  0  0  0  0  0  0  0  0  0  0
   21.1381  -14.9290   22.0127 O   0  0  0  0  0  0  0  0  0  0  0  0
   16.9667  -17.5599   23.9030 C   0  0  0  0  0  0  0  0  0  0  0  0
   15.8188  -17.1207   24.2573 O   0  0  0  0  0  0  0  0  0  0  0  0
   19.3969  -13.6603   22.6916 O   0  0  0  0  0  0  0  0  0  0  0  0
   17.7827  -17.9671   24.9304 O   0  0  0  0  0  0  0  0  0  0  0  0
  2  1  1  0
  3  5  1  0
  3  2  1  0
  4  3  2  0
  6  7  1  1
  6  5  1  0
  8  7  1  0
  9  8  1  0
 10  9  2  0
 11 14  1  0
 11  6  1  0
 12 11  2  0
 13  9  1  0
 15 14  1  0
 15 16  1  6
 16 17  1  0
 17 18  1  0
 18 22  1  0
 19 18  2  0
 20 15  1  0
 21 20  2  0
 23 20  1  0
M  END
$$$$
