GEE.pdb
     RDKit          3D

 23 22  0  0  1  0  0  0  0  0999 V2000
    0.8301  -20.2726   21.4212 N   0  0  0  0  0  0  0  0  0  0  0  0
    1.6221  -19.1008   21.7347 C   0  0  0  0  0  0  0  0  0  0  0  0
    3.0132  -19.5275   21.9998 C   0  0  0  0  0  0  0  0  0  0  0  0
    3.2653  -20.7455   22.1643 O   0  0  0  0  0  0  0  0  0  0  0  0
    4.0972  -18.6252   22.0801 N   0  0  0  0  0  0  0  0  0  0  0  0
    5.4629  -19.0053   22.3056 C   0  0  1  0  0  0  0  0  0  0  0  0
    6.3989  -18.6172   21.2008 C   0  0  0  0  0  0  0  0  0  0  0  0
    5.6300  -18.0048   20.0413 C   0  0  0  0  0  0  0  0  0  0  0  0
    5.9162  -18.7240   18.7710 C   0  0  0  0  0  0  0  0  0  0  0  0
    6.6875  -19.7197   18.7257 O   0  0  0  0  0  0  0  0  0  0  0  0
    5.8837  -18.4103   23.5970 C   0  0  0  0  0  0  0  0  0  0  0  0
    5.3160  -17.3595   23.9735 O   0  0  0  0  0  0  0  0  0  0  0  0
    5.3068  -18.2726   17.6042 O   0  0  0  0  0  0  0  0  0  0  0  0
    6.8853  -18.9615   24.4220 N   0  0  0  0  0  0  0  0  0  0  0  0
    7.2369  -18.3437   25.7251 C   0  0  1  0  0  0  0  0  0  0  0  0
    7.9873  -19.3163   26.5620 C   0  0  0  0  0  0  0  0  0  0  0  0
    8.3586  -18.7547   27.8853 C   0  0  0  0  0  0  0  0  0  0  0  0
    9.0954  -19.6807   28.7661 C   0  0  0  0  0  0  0  0  0  0  0  0
    9.4121  -20.8221   28.4123 O   0  0  0  0  0  0  0  0  0  0  0  0
    8.0298  -17.1243   25.4901 C   0  0  0  0  0  0  0  0  0  0  0  0
    7.9405  -16.1516   26.3160 O   0  0  0  0  0  0  0  0  0  0  0  0
    9.4500  -19.2602   30.0435 O   0  0  0  0  0  0  0  0  0  0  0  0
    8.8872  -16.9230   24.4357 O   0  0  0  0  0  0  0  0  0  0  0  0
  2  1  1  0
  3  5  1  0
  3  2  1  0
  4  3  2  0
  6  7  1  6
  6  5  1  0
  8  7  1  0
  9  8  1  0
 10  9  2  0
 11 14  1  0
 11  6  1  0
 12 11  2  0
 13  9  1  0
 15 14  1  0
 15 16  1  1
 16 17  1  0
 17 18  1  0
 18 22  1  0
 19 18  2  0
 20 15  1  0
 21 20  2  0
 23 20  1  0
M  END
$$$$
