GEE.pdb
     RDKit          3D

 23 22  0  0  1  0  0  0  0  0999 V2000
    6.5181  -13.6566   20.2517 N   0  0  0  0  0  0  0  0  0  0  0  0
    7.8832  -13.9853   19.8953 C   0  0  0  0  0  0  0  0  0  0  0  0
    8.3698  -15.0402   20.8107 C   0  0  0  0  0  0  0  0  0  0  0  0
    7.5937  -15.9625   21.1590 O   0  0  0  0  0  0  0  0  0  0  0  0
    9.6847  -15.0708   21.3265 N   0  0  0  0  0  0  0  0  0  0  0  0
   10.4617  -16.2628   21.5152 C   0  0  1  0  0  0  0  0  0  0  0  0
   10.6624  -17.0691   20.2674 C   0  0  0  0  0  0  0  0  0  0  0  0
   11.4490  -18.3340   20.5709 C   0  0  0  0  0  0  0  0  0  0  0  0
   11.5980  -19.1757   19.3535 C   0  0  0  0  0  0  0  0  0  0  0  0
   10.6392  -19.8439   18.8814 O   0  0  0  0  0  0  0  0  0  0  0  0
   11.7606  -15.8593   22.1060 C   0  0  0  0  0  0  0  0  0  0  0  0
   12.7730  -15.8772   21.3693 O   0  0  0  0  0  0  0  0  0  0  0  0
   12.8397  -19.2174   18.7267 O   0  0  0  0  0  0  0  0  0  0  0  0
   11.9175  -15.4576   23.4483 N   0  0  0  0  0  0  0  0  0  0  0  0
   12.6014  -16.3270   24.4381 C   0  0  1  0  0  0  0  0  0  0  0  0
   11.6851  -17.4102   24.8811 C   0  0  0  0  0  0  0  0  0  0  0  0
   12.3446  -18.3646   25.8077 C   0  0  0  0  0  0  0  0  0  0  0  0
   11.5836  -18.6608   27.0362 C   0  0  0  0  0  0  0  0  0  0  0  0
   10.4377  -18.2370   27.2252 O   0  0  0  0  0  0  0  0  0  0  0  0
   13.8268  -16.8821   23.8373 C   0  0  0  0  0  0  0  0  0  0  0  0
   14.9591  -16.6212   24.3721 O   0  0  0  0  0  0  0  0  0  0  0  0
   12.1713  -19.4456   28.0226 O   0  0  0  0  0  0  0  0  0  0  0  0
   13.8745  -17.6821   22.7214 O   0  0  0  0  0  0  0  0  0  0  0  0
  2  1  1  0
  3  5  1  0
  3  2  1  0
  4  3  2  0
  6  7  1  6
  6  5  1  0
  8  7  1  0
  9  8  1  0
 10  9  2  0
 11 14  1  0
 11  6  1  0
 12 11  2  0
 13  9  1  0
 15 14  1  0
 15 16  1  6
 16 17  1  0
 17 18  1  0
 18 22  1  0
 19 18  2  0
 20 15  1  0
 21 20  2  0
 23 20  1  0
M  END
$$$$
