GEE.pdb
     RDKit          3D

 23 22  0  0  1  0  0  0  0  0999 V2000
    4.3072  -18.6469   21.2271 N   0  0  0  0  0  0  0  0  0  0  0  0
    4.3130  -17.2272   21.5151 C   0  0  0  0  0  0  0  0  0  0  0  0
    5.7140  -16.7533   21.5283 C   0  0  0  0  0  0  0  0  0  0  0  0
    6.6494  -17.5893   21.5115 O   0  0  0  0  0  0  0  0  0  0  0  0
    6.0680  -15.3860   21.5593 N   0  0  0  0  0  0  0  0  0  0  0  0
    7.4147  -14.8895   21.5555 C   0  0  1  0  0  0  0  0  0  0  0  0
    7.5387  -13.4534   21.1435 C   0  0  0  0  0  0  0  0  0  0  0  0
    7.1395  -13.2804   19.6870 C   0  0  0  0  0  0  0  0  0  0  0  0
    8.1701  -13.8513   18.7788 C   0  0  0  0  0  0  0  0  0  0  0  0
    9.4015  -13.7823   19.0381 O   0  0  0  0  0  0  0  0  0  0  0  0
    7.9739  -15.1071   22.9115 C   0  0  0  0  0  0  0  0  0  0  0  0
    7.3319  -14.6634   23.8909 O   0  0  0  0  0  0  0  0  0  0  0  0
    7.7474  -14.4779   17.6105 O   0  0  0  0  0  0  0  0  0  0  0  0
    9.1855  -15.7846   23.1578 N   0  0  0  0  0  0  0  0  0  0  0  0
    9.7032  -15.9611   24.5377 C   0  0  1  0  0  0  0  0  0  0  0  0
    9.2091  -17.2429   25.1052 C   0  0  0  0  0  0  0  0  0  0  0  0
    9.7128  -17.4832   26.4811 C   0  0  0  0  0  0  0  0  0  0  0  0
    9.2473  -18.7386   27.1003 C   0  0  0  0  0  0  0  0  0  0  0  0
    8.4159  -19.4766   26.5595 O   0  0  0  0  0  0  0  0  0  0  0  0
   11.1759  -15.9239   24.5161 C   0  0  0  0  0  0  0  0  0  0  0  0
   11.7887  -16.0632   23.4019 O   0  0  0  0  0  0  0  0  0  0  0  0
    9.7589  -19.1117   28.3386 O   0  0  0  0  0  0  0  0  0  0  0  0
   11.9841  -15.7459   25.6127 O   0  0  0  0  0  0  0  0  0  0  0  0
  2  1  1  0
  3  5  1  0
  3  2  1  0
  4  3  2  0
  6  7  1  1
  6  5  1  0
  8  7  1  0
  9  8  1  0
 10  9  2  0
 11 14  1  0
 11  6  1  0
 12 11  2  0
 13  9  1  0
 15 14  1  0
 15 16  1  6
 16 17  1  0
 17 18  1  0
 18 22  1  0
 19 18  2  0
 20 15  1  0
 21 20  2  0
 23 20  1  0
M  END
$$$$
