GEE.pdb
     RDKit          3D

 23 22  0  0  1  0  0  0  0  0999 V2000
    8.0774  -12.7012   19.3642 N   0  0  0  0  0  0  0  0  0  0  0  0
    8.0054  -14.1415   19.2273 C   0  0  0  0  0  0  0  0  0  0  0  0
    7.8921  -14.7394   20.5754 C   0  0  0  0  0  0  0  0  0  0  0  0
    8.0865  -14.0236   21.5873 O   0  0  0  0  0  0  0  0  0  0  0  0
    7.5709  -16.0975   20.7948 N   0  0  0  0  0  0  0  0  0  0  0  0
    7.3738  -16.6931   22.0859 C   0  0  1  0  0  0  0  0  0  0  0  0
    6.2936  -17.7318   22.1247 C   0  0  0  0  0  0  0  0  0  0  0  0
    4.9731  -17.1455   21.6520 C   0  0  0  0  0  0  0  0  0  0  0  0
    3.9960  -18.2199   21.3300 C   0  0  0  0  0  0  0  0  0  0  0  0
    4.1086  -19.3866   21.7932 O   0  0  0  0  0  0  0  0  0  0  0  0
    8.6746  -17.2577   22.5196 C   0  0  0  0  0  0  0  0  0  0  0  0
    9.2238  -18.1059   21.7799 O   0  0  0  0  0  0  0  0  0  0  0  0
    2.9295  -17.9133   20.4903 O   0  0  0  0  0  0  0  0  0  0  0  0
    9.3252  -16.8927   23.7159 N   0  0  0  0  0  0  0  0  0  0  0  0
   10.5474  -17.5988   24.1751 C   0  0  1  0  0  0  0  0  0  0  0  0
   11.7214  -16.6916   24.0864 C   0  0  0  0  0  0  0  0  0  0  0  0
   12.1105  -16.4065   22.6822 C   0  0  0  0  0  0  0  0  0  0  0  0
   13.3902  -15.6890   22.5279 C   0  0  0  0  0  0  0  0  0  0  0  0
   14.0320  -15.2618   23.4944 O   0  0  0  0  0  0  0  0  0  0  0  0
   10.3481  -18.0742   25.5553 C   0  0  0  0  0  0  0  0  0  0  0  0
    9.4017  -17.5767   26.2575 O   0  0  0  0  0  0  0  0  0  0  0  0
   13.8992  -15.4820   21.2503 O   0  0  0  0  0  0  0  0  0  0  0  0
   11.1036  -19.0344   26.1836 O   0  0  0  0  0  0  0  0  0  0  0  0
  2  1  1  0
  3  5  1  0
  3  2  1  0
  4  3  2  0
  6  7  1  6
  6  5  1  0
  8  7  1  0
  9  8  1  0
 10  9  2  0
 11 14  1  0
 11  6  1  0
 12 11  2  0
 13  9  1  0
 15 14  1  0
 15 16  1  1
 16 17  1  0
 17 18  1  0
 18 22  1  0
 19 18  2  0
 20 15  1  0
 21 20  2  0
 23 20  1  0
M  END
$$$$
