GEE.pdb
     RDKit          3D

 23 22  0  0  1  0  0  0  0  0999 V2000
    9.4093  -17.2262   18.3650 N   0  0  0  0  0  0  0  0  0  0  0  0
    8.6576  -18.4494   18.5575 C   0  0  0  0  0  0  0  0  0  0  0  0
    7.6647  -18.2300   19.6316 C   0  0  0  0  0  0  0  0  0  0  0  0
    7.5786  -17.1011   20.1724 O   0  0  0  0  0  0  0  0  0  0  0  0
    6.7895  -19.2380   20.0939 N   0  0  0  0  0  0  0  0  0  0  0  0
    5.8228  -19.0649   21.1408 C   0  0  1  0  0  0  0  0  0  0  0  0
    4.4548  -19.5774   20.8045 C   0  0  0  0  0  0  0  0  0  0  0  0
    3.5036  -19.3625   21.9706 C   0  0  0  0  0  0  0  0  0  0  0  0
    2.1196  -19.7758   21.6145 C   0  0  0  0  0  0  0  0  0  0  0  0
    1.8876  -20.7799   20.8890 O   0  0  0  0  0  0  0  0  0  0  0  0
    6.3581  -19.7260   22.3554 C   0  0  0  0  0  0  0  0  0  0  0  0
    6.6018  -20.9530   22.2985 O   0  0  0  0  0  0  0  0  0  0  0  0
    1.0580  -19.0213   22.1045 O   0  0  0  0  0  0  0  0  0  0  0  0
    6.6070  -19.0506   23.5676 N   0  0  0  0  0  0  0  0  0  0  0  0
    7.1804  -19.7573   24.7402 C   0  0  1  0  0  0  0  0  0  0  0  0
    7.6746  -18.7706   25.7359 C   0  0  0  0  0  0  0  0  0  0  0  0
    8.3044  -19.4218   26.9122 C   0  0  0  0  0  0  0  0  0  0  0  0
    8.8910  -18.4909   27.8949 C   0  0  0  0  0  0  0  0  0  0  0  0
    8.8331  -17.2631   27.7623 O   0  0  0  0  0  0  0  0  0  0  0  0
    6.1562  -20.6375   25.3296 C   0  0  0  0  0  0  0  0  0  0  0  0
    6.5159  -21.5621   26.1369 O   0  0  0  0  0  0  0  0  0  0  0  0
    9.5346  -19.0073   29.0144 O   0  0  0  0  0  0  0  0  0  0  0  0
    4.8056  -20.5586   25.0908 O   0  0  0  0  0  0  0  0  0  0  0  0
  2  1  1  0
  3  5  1  0
  3  2  1  0
  4  3  2  0
  6  7  1  6
  6  5  1  0
  8  7  1  0
  9  8  1  0
 10  9  2  0
 11 14  1  0
 11  6  1  0
 12 11  2  0
 13  9  1  0
 15 14  1  0
 15 16  1  1
 16 17  1  0
 17 18  1  0
 18 22  1  0
 19 18  2  0
 20 15  1  0
 21 20  2  0
 23 20  1  0
M  END
$$$$
