GEE.pdb
     RDKit          3D

 23 22  0  0  1  0  0  0  0  0999 V2000
   14.9862  -17.7550   15.3712 N   0  0  0  0  0  0  0  0  0  0  0  0
   14.4270  -18.8266   16.1696 C   0  0  0  0  0  0  0  0  0  0  0  0
   13.6869  -18.2336   17.3046 C   0  0  0  0  0  0  0  0  0  0  0  0
   14.1118  -17.1798   17.8366 O   0  0  0  0  0  0  0  0  0  0  0  0
   12.5048  -18.7961   17.8358 N   0  0  0  0  0  0  0  0  0  0  0  0
   11.7821  -18.2708   18.9593 C   0  0  1  0  0  0  0  0  0  0  0  0
   10.3458  -18.6957   19.0188 C   0  0  0  0  0  0  0  0  0  0  0  0
    9.5532  -18.0549   17.8909 C   0  0  0  0  0  0  0  0  0  0  0  0
    8.1358  -18.5058   17.9104 C   0  0  0  0  0  0  0  0  0  0  0  0
    7.1880  -17.7198   18.1792 O   0  0  0  0  0  0  0  0  0  0  0  0
   12.5107  -18.6745   20.1862 C   0  0  0  0  0  0  0  0  0  0  0  0
   12.8308  -19.8787   20.3110 O   0  0  0  0  0  0  0  0  0  0  0  0
    7.8624  -19.8392   17.6211 O   0  0  0  0  0  0  0  0  0  0  0  0
   12.8617  -17.7791   21.2170 N   0  0  0  0  0  0  0  0  0  0  0  0
   13.6352  -18.2312   22.4005 C   0  0  1  0  0  0  0  0  0  0  0  0
   15.0599  -17.8318   22.2587 C   0  0  0  0  0  0  0  0  0  0  0  0
   15.2727  -16.3891   22.5376 C   0  0  0  0  0  0  0  0  0  0  0  0
   16.6601  -15.9216   22.3559 C   0  0  0  0  0  0  0  0  0  0  0  0
   17.5887  -16.6903   22.0817 O   0  0  0  0  0  0  0  0  0  0  0  0
   13.0426  -17.6563   23.6208 C   0  0  0  0  0  0  0  0  0  0  0  0
   12.1472  -16.7491   23.5136 O   0  0  0  0  0  0  0  0  0  0  0  0
   16.9406  -14.5667   22.4968 O   0  0  0  0  0  0  0  0  0  0  0  0
   13.3667  -18.0127   24.9074 O   0  0  0  0  0  0  0  0  0  0  0  0
  2  1  1  0
  3  5  1  0
  3  2  1  0
  4  3  2  0
  6  7  1  1
  6  5  1  0
  8  7  1  0
  9  8  1  0
 10  9  2  0
 11 14  1  0
 11  6  1  0
 12 11  2  0
 13  9  1  0
 15 14  1  0
 15 16  1  6
 16 17  1  0
 17 18  1  0
 18 22  1  0
 19 18  2  0
 20 15  1  0
 21 20  2  0
 23 20  1  0
M  END
$$$$
