GEE.pdb
     RDKit          3D

 23 22  0  0  1  0  0  0  0  0999 V2000
   -1.7261  -26.5919   27.8930 N   0  0  0  0  0  0  0  0  0  0  0  0
   -3.0269  -26.8845   27.3265 C   0  0  0  0  0  0  0  0  0  0  0  0
   -4.0612  -26.5959   28.3436 C   0  0  0  0  0  0  0  0  0  0  0  0
   -5.2734  -26.7221   28.0454 O   0  0  0  0  0  0  0  0  0  0  0  0
   -3.7578  -26.1777   29.6585 N   0  0  0  0  0  0  0  0  0  0  0  0
   -4.7328  -25.9153   30.6788 C   0  0  1  0  0  0  0  0  0  0  0  0
   -4.2126  -26.0604   32.0772 C   0  0  0  0  0  0  0  0  0  0  0  0
   -4.1476  -27.5269   32.4722 C   0  0  0  0  0  0  0  0  0  0  0  0
   -3.6111  -27.6859   33.8505 C   0  0  0  0  0  0  0  0  0  0  0  0
   -2.4398  -28.0969   34.0686 O   0  0  0  0  0  0  0  0  0  0  0  0
   -5.2663  -24.5516   30.4453 C   0  0  0  0  0  0  0  0  0  0  0  0
   -4.4519  -23.6396   30.1746 O   0  0  0  0  0  0  0  0  0  0  0  0
   -4.4389  -27.3674   34.9227 O   0  0  0  0  0  0  0  0  0  0  0  0
   -6.6365  -24.2265   30.5112 N   0  0  0  0  0  0  0  0  0  0  0  0
   -7.1331  -22.8918   30.0924 C   0  0  1  0  0  0  0  0  0  0  0  0
   -7.3498  -22.8692   28.6220 C   0  0  0  0  0  0  0  0  0  0  0  0
   -7.8625  -21.5595   28.1465 C   0  0  0  0  0  0  0  0  0  0  0  0
   -8.1968  -21.5100   26.7105 C   0  0  0  0  0  0  0  0  0  0  0  0
   -7.8063  -20.6009   25.9693 O   0  0  0  0  0  0  0  0  0  0  0  0
   -8.3788  -22.5841   30.8164 C   0  0  0  0  0  0  0  0  0  0  0  0
   -8.9927  -23.5228   31.4315 O   0  0  0  0  0  0  0  0  0  0  0  0
   -8.9804  -22.5207   26.1638 O   0  0  0  0  0  0  0  0  0  0  0  0
   -8.9653  -21.3446   30.9009 O   0  0  0  0  0  0  0  0  0  0  0  0
  2  1  1  0
  3  5  1  0
  3  2  1  0
  4  3  2  0
  6  7  1  1
  6  5  1  0
  8  7  1  0
  9  8  1  0
 10  9  2  0
 11 14  1  0
 11  6  1  0
 12 11  2  0
 13  9  1  0
 15 14  1  0
 15 16  1  6
 16 17  1  0
 17 18  1  0
 18 22  1  0
 19 18  2  0
 20 15  1  0
 21 20  2  0
 23 20  1  0
M  END
$$$$
