GEE.pdb
     RDKit          3D

 23 22  0  0  1  0  0  0  0  0999 V2000
    1.7584  -20.4706   22.0155 N   0  0  0  0  0  0  0  0  0  0  0  0
    2.2427  -19.2038   22.5245 C   0  0  0  0  0  0  0  0  0  0  0  0
    3.7030  -19.3064   22.7359 C   0  0  0  0  0  0  0  0  0  0  0  0
    4.1919  -20.3808   23.1613 O   0  0  0  0  0  0  0  0  0  0  0  0
    4.5982  -18.2435   22.4814 N   0  0  0  0  0  0  0  0  0  0  0  0
    6.0186  -18.3053   22.6790 C   0  0  1  0  0  0  0  0  0  0  0  0
    6.8077  -17.4478   21.7361 C   0  0  0  0  0  0  0  0  0  0  0  0
    7.5883  -18.3103   20.7576 C   0  0  0  0  0  0  0  0  0  0  0  0
    8.3499  -17.4704   19.7946 C   0  0  0  0  0  0  0  0  0  0  0  0
    9.4127  -16.8766   20.1205 O   0  0  0  0  0  0  0  0  0  0  0  0
    6.2886  -17.9376   24.0900 C   0  0  0  0  0  0  0  0  0  0  0  0
    5.5631  -17.0654   24.6200 O   0  0  0  0  0  0  0  0  0  0  0  0
    7.8623  -17.3454   18.4972 O   0  0  0  0  0  0  0  0  0  0  0  0
    7.3149  -18.5148   24.8654 N   0  0  0  0  0  0  0  0  0  0  0  0
    7.5462  -18.0979   26.2711 C   0  0  1  0  0  0  0  0  0  0  0  0
    7.1256  -19.1814   27.1977 C   0  0  0  0  0  0  0  0  0  0  0  0
    7.7859  -20.4754   26.8908 C   0  0  0  0  0  0  0  0  0  0  0  0
    7.7965  -21.4441   28.0033 C   0  0  0  0  0  0  0  0  0  0  0  0
    7.7774  -21.0934   29.1886 O   0  0  0  0  0  0  0  0  0  0  0  0
    8.9700  -17.7664   26.4549 C   0  0  0  0  0  0  0  0  0  0  0  0
    9.3713  -17.3417   27.5928 O   0  0  0  0  0  0  0  0  0  0  0  0
    7.8292  -22.8043   27.7148 O   0  0  0  0  0  0  0  0  0  0  0  0
    9.9434  -17.8743   25.4914 O   0  0  0  0  0  0  0  0  0  0  0  0
  2  1  1  0
  3  5  1  0
  3  2  1  0
  4  3  2  0
  6  7  1  6
  6  5  1  0
  8  7  1  0
  9  8  1  0
 10  9  2  0
 11 14  1  0
 11  6  1  0
 12 11  2  0
 13  9  1  0
 15 14  1  0
 15 16  1  1
 16 17  1  0
 17 18  1  0
 18 22  1  0
 19 18  2  0
 20 15  1  0
 21 20  2  0
 23 20  1  0
M  END
$$$$
