DDH.pdb
     RDKit          3D

 27 27  0  0  1  0  0  0  0  0999 V2000
    9.0454  -18.4098   15.4582 N   0  0  0  0  0  0  0  0  0  0  0  0
    9.9390  -17.5478   16.1678 C   0  0  1  0  0  0  0  0  0  0  0  0
    9.6157  -16.1283   15.6678 C   0  0  0  0  0  0  0  0  0  0  0  0
   10.0451  -16.0904   14.2492 C   0  0  0  0  0  0  0  0  0  0  0  0
    9.1940  -15.7097   13.4128 O   0  0  0  0  0  0  0  0  0  0  0  0
    9.8504  -17.6212   17.6299 C   0  0  0  0  0  0  0  0  0  0  0  0
    8.7201  -17.5121   18.1942 O   0  0  0  0  0  0  0  0  0  0  0  0
   11.3154  -16.4542   13.8806 O   0  0  0  0  0  0  0  0  0  0  0  0
   10.9540  -17.8084   18.4936 N   0  0  0  0  0  0  0  0  0  0  0  0
   10.7712  -18.1086   19.9263 C   0  0  1  0  0  0  0  0  0  0  0  0
   11.7999  -19.0959   20.3169 C   0  0  0  0  0  0  0  0  0  0  0  0
   11.7433  -20.4088   19.6690 C   0  0  0  0  0  0  0  0  0  0  0  0
   10.6892  -21.0829   19.8399 O   0  0  0  0  0  0  0  0  0  0  0  0
   10.7946  -16.8222   20.6676 C   0  0  0  0  0  0  0  0  0  0  0  0
   11.7614  -16.0220   20.6509 O   0  0  0  0  0  0  0  0  0  0  0  0
   12.7351  -20.9549   18.9012 O   0  0  0  0  0  0  0  0  0  0  0  0
    9.6926  -16.4124   21.4606 N   0  0  0  0  0  0  0  0  0  0  0  0
    9.6102  -15.1670   22.1979 C   0  0  1  0  0  0  0  0  0  0  0  0
    8.3036  -14.4972   22.0746 C   0  0  0  0  0  0  0  0  0  0  0  0
    8.0415  -14.1156   20.6736 C   0  0  0  0  0  0  0  0  0  0  0  0
    8.4939  -13.0535   19.9290 C   0  0  0  0  0  0  0  0  0  0  0  0
    7.9353  -13.1174   18.7083 N   0  0  0  0  0  0  0  0  0  0  0  0
    7.1383  -14.1911   18.6515 C   0  0  0  0  0  0  0  0  0  0  0  0
    7.1987  -14.7968   19.8357 N   0  0  0  0  0  0  0  0  0  0  0  0
    9.8873  -15.5094   23.6073 C   0  0  0  0  0  0  0  0  0  0  0  0
   10.1009  -14.5402   24.6058 O   0  0  0  0  0  0  0  0  0  0  0  0
    9.9449  -16.7040   23.9727 O   0  0  0  0  0  0  0  0  0  0  0  0
  2  1  1  6
  2  3  1  0
  3  4  1  0
  4  8  1  0
  5  4  2  0
  6  7  2  0
  6  2  1  0
  9  6  1  0
 10  9  1  0
 10 11  1  1
 12 13  2  0
 12 11  1  0
 14 17  1  0
 14 10  1  0
 15 14  2  0
 16 12  1  0
 18 17  1  0
 18 25  1  0
 18 19  1  1
 20 19  1  0
 21 20  2  0
 22 21  1  0
 23 22  1  0
 23 24  2  0
 24 20  1  0
 25 27  2  0
 25 26  1  0
M  END
$$$$
