DDH.pdb
     RDKit          3D

 27 27  0  0  1  0  0  0  0  0999 V2000
    8.7262  -20.3909   18.4394 N   0  0  0  0  0  0  0  0  0  0  0  0
    8.5482  -19.2736   19.3141 C   0  0  1  0  0  0  0  0  0  0  0  0
    7.3193  -18.5237   18.7690 C   0  0  0  0  0  0  0  0  0  0  0  0
    7.6581  -18.1496   17.3749 C   0  0  0  0  0  0  0  0  0  0  0  0
    8.8724  -18.1592   17.0681 O   0  0  0  0  0  0  0  0  0  0  0  0
    8.3711  -19.6097   20.7307 C   0  0  0  0  0  0  0  0  0  0  0  0
    7.8690  -18.7525   21.5188 O   0  0  0  0  0  0  0  0  0  0  0  0
    6.6820  -17.8134   16.4716 O   0  0  0  0  0  0  0  0  0  0  0  0
    8.7247  -20.8485   21.3131 N   0  0  0  0  0  0  0  0  0  0  0  0
    8.6019  -21.0827   22.7644 C   0  0  1  0  0  0  0  0  0  0  0  0
    8.2470  -22.5036   22.9654 C   0  0  0  0  0  0  0  0  0  0  0  0
    6.9547  -22.9486   22.4377 C   0  0  0  0  0  0  0  0  0  0  0  0
    5.9263  -22.3713   22.8891 O   0  0  0  0  0  0  0  0  0  0  0  0
    9.8635  -20.6338   23.4063 C   0  0  0  0  0  0  0  0  0  0  0  0
   11.0076  -20.9130   22.9725 O   0  0  0  0  0  0  0  0  0  0  0  0
    6.7786  -23.9319   21.5030 O   0  0  0  0  0  0  0  0  0  0  0  0
    9.8465  -19.8403   24.5816 N   0  0  0  0  0  0  0  0  0  0  0  0
   11.0197  -19.3256   25.2599 C   0  0  1  0  0  0  0  0  0  0  0  0
   11.0829  -17.8537   25.2883 C   0  0  0  0  0  0  0  0  0  0  0  0
   11.2476  -17.3108   23.9263 C   0  0  0  0  0  0  0  0  0  0  0  0
   11.3906  -17.9431   22.7151 C   0  0  0  0  0  0  0  0  0  0  0  0
   11.5531  -17.0101   21.7615 N   0  0  0  0  0  0  0  0  0  0  0  0
   11.5178  -15.7986   22.3292 C   0  0  0  0  0  0  0  0  0  0  0  0
   11.3340  -15.9748   23.6361 N   0  0  0  0  0  0  0  0  0  0  0  0
   10.9683  -19.8697   26.6316 C   0  0  0  0  0  0  0  0  0  0  0  0
   12.0238  -19.7318   27.5530 O   0  0  0  0  0  0  0  0  0  0  0  0
    9.9592  -20.4898   27.0330 O   0  0  0  0  0  0  0  0  0  0  0  0
  2  1  1  6
  2  3  1  0
  3  4  1  0
  4  8  1  0
  5  4  2  0
  6  7  2  0
  6  2  1  0
  9  6  1  0
 10  9  1  0
 10 11  1  6
 12 13  2  0
 12 11  1  0
 14 17  1  0
 14 10  1  0
 15 14  2  0
 16 12  1  0
 18 17  1  0
 18 25  1  0
 18 19  1  1
 20 19  1  0
 21 20  2  0
 22 21  1  0
 23 22  1  0
 23 24  2  0
 24 20  1  0
 25 27  2  0
 25 26  1  0
M  END
$$$$
