DDH.pdb
     RDKit          3D

 27 27  0  0  1  0  0  0  0  0999 V2000
    9.0474  -18.8044   17.7778 N   0  0  0  0  0  0  0  0  0  0  0  0
   10.1441  -18.0257   18.2635 C   0  0  1  0  0  0  0  0  0  0  0  0
    9.9552  -16.6290   17.6443 C   0  0  0  0  0  0  0  0  0  0  0  0
   10.2809  -16.7760   16.2054 C   0  0  0  0  0  0  0  0  0  0  0  0
   10.5833  -17.9256   15.8106 O   0  0  0  0  0  0  0  0  0  0  0  0
   10.2536  -17.9411   19.7236 C   0  0  0  0  0  0  0  0  0  0  0  0
    9.2307  -18.1574   20.4411 O   0  0  0  0  0  0  0  0  0  0  0  0
   10.2475  -15.7001   15.3551 O   0  0  0  0  0  0  0  0  0  0  0  0
   11.4413  -17.6276   20.4236 N   0  0  0  0  0  0  0  0  0  0  0  0
   11.5212  -17.7289   21.8932 C   0  0  1  0  0  0  0  0  0  0  0  0
   12.9238  -18.0293   22.2507 C   0  0  0  0  0  0  0  0  0  0  0  0
   13.4171  -19.3736   21.9408 C   0  0  0  0  0  0  0  0  0  0  0  0
   12.5719  -20.3114   21.9724 O   0  0  0  0  0  0  0  0  0  0  0  0
   10.9607  -16.4791   22.4667 C   0  0  0  0  0  0  0  0  0  0  0  0
   11.6585  -15.5015   22.8310 O   0  0  0  0  0  0  0  0  0  0  0  0
   14.7102  -19.6876   21.6234 O   0  0  0  0  0  0  0  0  0  0  0  0
    9.5629  -16.3143   22.6408 N   0  0  0  0  0  0  0  0  0  0  0  0
    8.9286  -15.1823   23.2869 C   0  0  1  0  0  0  0  0  0  0  0  0
    7.6620  -14.7779   22.6519 C   0  0  0  0  0  0  0  0  0  0  0  0
    7.9136  -14.1185   21.3562 C   0  0  0  0  0  0  0  0  0  0  0  0
    9.0889  -13.7909   20.7247 C   0  0  0  0  0  0  0  0  0  0  0  0
    8.7959  -13.1586   19.5756 N   0  0  0  0  0  0  0  0  0  0  0  0
    7.4657  -13.0727   19.4545 C   0  0  0  0  0  0  0  0  0  0  0  0
    6.9286  -13.6505   20.5272 N   0  0  0  0  0  0  0  0  0  0  0  0
    8.7004  -15.5888   24.6881 C   0  0  0  0  0  0  0  0  0  0  0  0
    8.9842  -16.8810   25.1693 O   0  0  0  0  0  0  0  0  0  0  0  0
    8.2332  -14.7782   25.5180 O   0  0  0  0  0  0  0  0  0  0  0  0
  2  1  1  1
  2  3  1  0
  3  4  1  0
  4  8  1  0
  5  4  2  0
  6  7  2  0
  6  2  1  0
  9  6  1  0
 10  9  1  0
 10 11  1  6
 12 13  2  0
 12 11  1  0
 14 17  1  0
 14 10  1  0
 15 14  2  0
 16 12  1  0
 18 17  1  0
 18 25  1  0
 18 19  1  6
 20 19  1  0
 21 20  2  0
 22 21  1  0
 23 22  1  0
 23 24  2  0
 24 20  1  0
 25 27  2  0
 25 26  1  0
M  END
$$$$
