DDH.pdb
     RDKit          3D

 27 27  0  0  1  0  0  0  0  0999 V2000
    8.5109  -15.8039   14.3211 N   0  0  0  0  0  0  0  0  0  0  0  0
    9.1912  -16.6833   15.2206 C   0  0  1  0  0  0  0  0  0  0  0  0
   10.6136  -16.8261   14.6497 C   0  0  0  0  0  0  0  0  0  0  0  0
   10.4723  -17.6130   13.4011 C   0  0  0  0  0  0  0  0  0  0  0  0
   10.5107  -16.9737   12.3246 O   0  0  0  0  0  0  0  0  0  0  0  0
    9.2296  -16.2416   16.6185 C   0  0  0  0  0  0  0  0  0  0  0  0
    9.7428  -15.1182   16.9057 O   0  0  0  0  0  0  0  0  0  0  0  0
   10.3103  -18.9748   13.4331 O   0  0  0  0  0  0  0  0  0  0  0  0
    8.7275  -16.9860   17.7107 N   0  0  0  0  0  0  0  0  0  0  0  0
    8.7373  -16.4457   19.0833 C   0  0  1  0  0  0  0  0  0  0  0  0
    7.5530  -16.9800   19.7887 C   0  0  0  0  0  0  0  0  0  0  0  0
    7.4198  -18.4374   19.8574 C   0  0  0  0  0  0  0  0  0  0  0  0
    8.0471  -19.1079   18.9903 O   0  0  0  0  0  0  0  0  0  0  0  0
   10.0530  -16.7696   19.6907 C   0  0  0  0  0  0  0  0  0  0  0  0
   10.7099  -17.8059   19.4266 O   0  0  0  0  0  0  0  0  0  0  0  0
    6.6751  -19.1207   20.7794 O   0  0  0  0  0  0  0  0  0  0  0  0
   10.6601  -15.9003   20.6324 N   0  0  0  0  0  0  0  0  0  0  0  0
   11.8936  -16.1694   21.3448 C   0  0  1  0  0  0  0  0  0  0  0  0
   12.8727  -15.0717   21.2589 C   0  0  0  0  0  0  0  0  0  0  0  0
   13.5841  -15.1053   19.9667 C   0  0  0  0  0  0  0  0  0  0  0  0
   13.6285  -16.0672   18.9869 C   0  0  0  0  0  0  0  0  0  0  0  0
   14.4556  -15.6493   18.0135 N   0  0  0  0  0  0  0  0  0  0  0  0
   14.9413  -14.4466   18.3435 C   0  0  0  0  0  0  0  0  0  0  0  0
   14.4184  -14.1140   19.5221 N   0  0  0  0  0  0  0  0  0  0  0  0
   11.5077  -16.4123   22.7493 C   0  0  0  0  0  0  0  0  0  0  0  0
   10.1855  -16.2852   23.2159 O   0  0  0  0  0  0  0  0  0  0  0  0
   12.3649  -16.7468   23.5962 O   0  0  0  0  0  0  0  0  0  0  0  0
  2  1  1  6
  2  3  1  0
  3  4  1  0
  4  8  1  0
  5  4  2  0
  6  7  2  0
  6  2  1  0
  9  6  1  0
 10  9  1  0
 10 11  1  1
 12 13  2  0
 12 11  1  0
 14 17  1  0
 14 10  1  0
 15 14  2  0
 16 12  1  0
 18 17  1  0
 18 25  1  0
 18 19  1  1
 20 19  1  0
 21 20  2  0
 22 21  1  0
 23 22  1  0
 23 24  2  0
 24 20  1  0
 25 27  2  0
 25 26  1  0
M  END
$$$$
