DDH.pdb
     RDKit          3D

 27 27  0  0  1  0  0  0  0  0999 V2000
   14.3357  -20.4358   16.0025 N   0  0  0  0  0  0  0  0  0  0  0  0
   14.6942  -19.2634   16.7388 C   0  0  1  0  0  0  0  0  0  0  0  0
   15.2157  -18.2677   15.6869 C   0  0  0  0  0  0  0  0  0  0  0  0
   15.1478  -18.9782   14.3873 C   0  0  0  0  0  0  0  0  0  0  0  0
   14.9278  -20.2106   14.4296 O   0  0  0  0  0  0  0  0  0  0  0  0
   13.6145  -18.6686   17.5333 C   0  0  0  0  0  0  0  0  0  0  0  0
   13.8674  -17.6895   18.2984 O   0  0  0  0  0  0  0  0  0  0  0  0
   15.3165  -18.3096   13.2015 O   0  0  0  0  0  0  0  0  0  0  0  0
   12.2708  -19.1082   17.5200 N   0  0  0  0  0  0  0  0  0  0  0  0
   11.2509  -18.5012   18.3960 C   0  0  1  0  0  0  0  0  0  0  0  0
    9.9353  -18.6691   17.7431 C   0  0  0  0  0  0  0  0  0  0  0  0
    8.7659  -18.1510   18.4578 C   0  0  0  0  0  0  0  0  0  0  0  0
    8.9617  -17.7080   19.6240 O   0  0  0  0  0  0  0  0  0  0  0  0
   11.3871  -19.1105   19.7433 C   0  0  0  0  0  0  0  0  0  0  0  0
   10.7188  -20.0975   20.1361 O   0  0  0  0  0  0  0  0  0  0  0  0
    7.4909  -18.1111   17.9634 O   0  0  0  0  0  0  0  0  0  0  0  0
   12.3078  -18.5960   20.6914 N   0  0  0  0  0  0  0  0  0  0  0  0
   12.5080  -19.1157   22.0298 C   0  0  1  0  0  0  0  0  0  0  0  0
   13.1169  -20.4572   22.0536 C   0  0  0  0  0  0  0  0  0  0  0  0
   13.2108  -20.9646   23.4359 C   0  0  0  0  0  0  0  0  0  0  0  0
   12.4072  -20.7535   24.5301 C   0  0  0  0  0  0  0  0  0  0  0  0
   12.9364  -21.4021   25.5815 N   0  0  0  0  0  0  0  0  0  0  0  0
   14.0560  -22.0222   25.1902 C   0  0  0  0  0  0  0  0  0  0  0  0
   14.2262  -21.7607   23.8957 N   0  0  0  0  0  0  0  0  0  0  0  0
   13.3748  -18.1396   22.7199 C   0  0  0  0  0  0  0  0  0  0  0  0
   13.7245  -18.2489   24.0792 O   0  0  0  0  0  0  0  0  0  0  0  0
   13.8397  -17.1548   22.1051 O   0  0  0  0  0  0  0  0  0  0  0  0
  2  1  1  6
  2  3  1  0
  3  4  1  0
  4  8  1  0
  5  4  2  0
  6  7  2  0
  6  2  1  0
  9  6  1  0
 10  9  1  0
 10 11  1  6
 12 13  2  0
 12 11  1  0
 14 17  1  0
 14 10  1  0
 15 14  2  0
 16 12  1  0
 18 17  1  0
 18 25  1  0
 18 19  1  6
 20 19  1  0
 21 20  2  0
 22 21  1  0
 23 22  1  0
 23 24  2  0
 24 20  1  0
 25 27  2  0
 25 26  1  0
M  END
$$$$
