DDH.pdb
     RDKit          3D

 27 27  0  0  1  0  0  0  0  0999 V2000
   10.2267  -18.9190   15.2817 N   0  0  0  0  0  0  0  0  0  0  0  0
   11.1556  -18.4709   16.2724 C   0  0  1  0  0  0  0  0  0  0  0  0
   11.6166  -17.0813   15.7969 C   0  0  0  0  0  0  0  0  0  0  0  0
   12.4518  -17.3204   14.5954 C   0  0  0  0  0  0  0  0  0  0  0  0
   13.3827  -18.1502   14.7122 O   0  0  0  0  0  0  0  0  0  0  0  0
   10.6304  -18.4090   17.6403 C   0  0  0  0  0  0  0  0  0  0  0  0
    9.3799  -18.3114   17.8264 O   0  0  0  0  0  0  0  0  0  0  0  0
   12.2078  -16.6619   13.4170 O   0  0  0  0  0  0  0  0  0  0  0  0
   11.4252  -18.4492   18.8090 N   0  0  0  0  0  0  0  0  0  0  0  0
   10.8218  -18.4183   20.1548 C   0  0  1  0  0  0  0  0  0  0  0  0
   11.5012  -19.4401   20.9792 C   0  0  0  0  0  0  0  0  0  0  0  0
   11.6033  -20.7894   20.4174 C   0  0  0  0  0  0  0  0  0  0  0  0
   10.5199  -21.3638   20.1156 O   0  0  0  0  0  0  0  0  0  0  0  0
   10.9017  -17.0233   20.6576 C   0  0  0  0  0  0  0  0  0  0  0  0
   11.1795  -16.0342   19.9367 O   0  0  0  0  0  0  0  0  0  0  0  0
   12.7706  -21.4679   20.1973 O   0  0  0  0  0  0  0  0  0  0  0  0
   10.6617  -16.7206   22.0221 N   0  0  0  0  0  0  0  0  0  0  0  0
   10.0018  -15.5256   22.5099 C   0  0  1  0  0  0  0  0  0  0  0  0
    8.6458  -15.3396   21.9642 C   0  0  0  0  0  0  0  0  0  0  0  0
    8.6771  -14.4762   20.7681 C   0  0  0  0  0  0  0  0  0  0  0  0
    9.7048  -13.7675   20.1947 C   0  0  0  0  0  0  0  0  0  0  0  0
    9.2226  -13.0947   19.1359 N   0  0  0  0  0  0  0  0  0  0  0  0
    7.9150  -13.3536   19.0161 C   0  0  0  0  0  0  0  0  0  0  0  0
    7.5808  -14.1868   19.9995 N   0  0  0  0  0  0  0  0  0  0  0  0
    9.9564  -15.6570   23.9799 C   0  0  0  0  0  0  0  0  0  0  0  0
    9.9459  -14.5505   24.8503 O   0  0  0  0  0  0  0  0  0  0  0  0
    9.9264  -16.7857   24.5175 O   0  0  0  0  0  0  0  0  0  0  0  0
  2  1  1  6
  2  3  1  0
  3  4  1  0
  4  8  1  0
  5  4  2  0
  6  7  2  0
  6  2  1  0
  9  6  1  0
 10  9  1  0
 10 11  1  1
 12 13  2  0
 12 11  1  0
 14 17  1  0
 14 10  1  0
 15 14  2  0
 16 12  1  0
 18 17  1  0
 18 25  1  0
 18 19  1  6
 20 19  1  0
 21 20  2  0
 22 21  1  0
 23 22  1  0
 23 24  2  0
 24 20  1  0
 25 27  2  0
 25 26  1  0
M  END
$$$$
