DDH.pdb
     RDKit          3D

 27 27  0  0  1  0  0  0  0  0999 V2000
   11.4232  -15.7548   14.8575 N   0  0  0  0  0  0  0  0  0  0  0  0
   10.6798  -15.2861   15.9857 C   0  0  1  0  0  0  0  0  0  0  0  0
    9.2774  -15.9019   15.8314 C   0  0  0  0  0  0  0  0  0  0  0  0
    8.8448  -15.5839   14.4494 C   0  0  0  0  0  0  0  0  0  0  0  0
    9.7462  -15.2943   13.6292 O   0  0  0  0  0  0  0  0  0  0  0  0
   11.2549  -15.6142   17.2944 C   0  0  0  0  0  0  0  0  0  0  0  0
   10.6347  -16.4024   18.0703 O   0  0  0  0  0  0  0  0  0  0  0  0
    7.5198  -15.6105   14.0949 O   0  0  0  0  0  0  0  0  0  0  0  0
   12.4822  -15.1096   17.7822 N   0  0  0  0  0  0  0  0  0  0  0  0
   13.0257  -15.5297   19.0877 C   0  0  1  0  0  0  0  0  0  0  0  0
   14.4516  -15.1419   19.1305 C   0  0  0  0  0  0  0  0  0  0  0  0
   15.3321  -15.7279   18.1166 C   0  0  0  0  0  0  0  0  0  0  0  0
   15.2539  -16.9769   17.9480 O   0  0  0  0  0  0  0  0  0  0  0  0
   12.1646  -14.9473   20.1481 C   0  0  0  0  0  0  0  0  0  0  0  0
   12.1690  -13.7329   20.4649 O   0  0  0  0  0  0  0  0  0  0  0  0
   16.2239  -15.0325   17.3467 O   0  0  0  0  0  0  0  0  0  0  0  0
   11.2614  -15.7547   20.8852 N   0  0  0  0  0  0  0  0  0  0  0  0
   10.4350  -15.2955   21.9842 C   0  0  1  0  0  0  0  0  0  0  0  0
    8.9956  -15.2805   21.6699 C   0  0  0  0  0  0  0  0  0  0  0  0
    8.6742  -14.1797   20.7415 C   0  0  0  0  0  0  0  0  0  0  0  0
    9.4701  -13.2069   20.1870 C   0  0  0  0  0  0  0  0  0  0  0  0
    8.7010  -12.4018   19.4343 N   0  0  0  0  0  0  0  0  0  0  0  0
    7.4352  -12.8329   19.4919 C   0  0  0  0  0  0  0  0  0  0  0  0
    7.4139  -13.9058   20.2802 N   0  0  0  0  0  0  0  0  0  0  0  0
   10.7112  -16.2095   23.1106 C   0  0  0  0  0  0  0  0  0  0  0  0
   11.5783  -17.3139   23.0091 O   0  0  0  0  0  0  0  0  0  0  0  0
   10.1689  -16.0306   24.2231 O   0  0  0  0  0  0  0  0  0  0  0  0
  2  1  1  6
  2  3  1  0
  3  4  1  0
  4  8  1  0
  5  4  2  0
  6  7  2  0
  6  2  1  0
  9  6  1  0
 10  9  1  0
 10 11  1  1
 12 13  2  0
 12 11  1  0
 14 17  1  0
 14 10  1  0
 15 14  2  0
 16 12  1  0
 18 17  1  0
 18 25  1  0
 18 19  1  6
 20 19  1  0
 21 20  2  0
 22 21  1  0
 23 22  1  0
 23 24  2  0
 24 20  1  0
 25 27  2  0
 25 26  1  0
M  END
$$$$
