DDH.pdb
     RDKit          3D

 27 27  0  0  1  0  0  0  0  0999 V2000
   11.1241  -19.4944   20.6647 N   0  0  0  0  0  0  0  0  0  0  0  0
   11.7448  -18.2161   20.5038 C   0  0  1  0  0  0  0  0  0  0  0  0
   12.4682  -18.2845   19.1468 C   0  0  0  0  0  0  0  0  0  0  0  0
   13.5740  -19.2559   19.3253 C   0  0  0  0  0  0  0  0  0  0  0  0
   13.9171  -19.9113   18.3145 O   0  0  0  0  0  0  0  0  0  0  0  0
   10.8344  -17.0674   20.5549 C   0  0  0  0  0  0  0  0  0  0  0  0
   11.3026  -15.8933   20.4536 O   0  0  0  0  0  0  0  0  0  0  0  0
   14.1871  -19.4201   20.5415 O   0  0  0  0  0  0  0  0  0  0  0  0
    9.4325  -17.1593   20.7136 N   0  0  0  0  0  0  0  0  0  0  0  0
    8.5851  -15.9554   20.8059 C   0  0  1  0  0  0  0  0  0  0  0  0
    7.2683  -16.2824   20.2190 C   0  0  0  0  0  0  0  0  0  0  0  0
    7.1111  -17.6181   19.6377 C   0  0  0  0  0  0  0  0  0  0  0  0
    7.8593  -17.9058   18.6619 O   0  0  0  0  0  0  0  0  0  0  0  0
    8.5703  -15.5168   22.2245 C   0  0  0  0  0  0  0  0  0  0  0  0
    7.9502  -14.5072   22.6387 O   0  0  0  0  0  0  0  0  0  0  0  0
    6.2246  -18.5677   20.0665 O   0  0  0  0  0  0  0  0  0  0  0  0
    9.2774  -16.2353   23.2218 N   0  0  0  0  0  0  0  0  0  0  0  0
    9.3332  -15.8811   24.6264 C   0  0  1  0  0  0  0  0  0  0  0  0
    8.0175  -15.9004   25.2894 C   0  0  0  0  0  0  0  0  0  0  0  0
    7.5307  -14.5278   25.5261 C   0  0  0  0  0  0  0  0  0  0  0  0
    8.1169  -13.3092   25.2839 C   0  0  0  0  0  0  0  0  0  0  0  0
    7.2891  -12.3424   25.7154 N   0  0  0  0  0  0  0  0  0  0  0  0
    6.1896  -12.9089   26.2268 C   0  0  0  0  0  0  0  0  0  0  0  0
    6.3309  -14.2282   26.1152 N   0  0  0  0  0  0  0  0  0  0  0  0
   10.2464  -16.8558   25.2560 C   0  0  0  0  0  0  0  0  0  0  0  0
   10.9019  -17.8717   24.5347 O   0  0  0  0  0  0  0  0  0  0  0  0
   10.4743  -16.8128   26.4849 O   0  0  0  0  0  0  0  0  0  0  0  0
  2  1  1  6
  2  3  1  0
  3  4  1  0
  4  8  1  0
  5  4  2  0
  6  7  2  0
  6  2  1  0
  9  6  1  0
 10  9  1  0
 10 11  1  1
 12 13  2  0
 12 11  1  0
 14 17  1  0
 14 10  1  0
 15 14  2  0
 16 12  1  0
 18 17  1  0
 18 25  1  0
 18 19  1  1
 20 19  1  0
 21 20  2  0
 22 21  1  0
 23 22  1  0
 23 24  2  0
 24 20  1  0
 25 27  2  0
 25 26  1  0
M  END
$$$$
