DDH.pdb
     RDKit          3D

 27 27  0  0  1  0  0  0  0  0999 V2000
   11.2029  -17.0090   19.1589 N   0  0  0  0  0  0  0  0  0  0  0  0
   10.1610  -16.5663   20.0327 C   0  0  1  0  0  0  0  0  0  0  0  0
    8.8581  -16.7426   19.2320 C   0  0  0  0  0  0  0  0  0  0  0  0
    8.9663  -18.0634   18.5671 C   0  0  0  0  0  0  0  0  0  0  0  0
   10.0308  -18.6988   18.7460 O   0  0  0  0  0  0  0  0  0  0  0  0
   10.0838  -17.2658   21.3195 C   0  0  0  0  0  0  0  0  0  0  0  0
    9.1909  -16.9368   22.1576 O   0  0  0  0  0  0  0  0  0  0  0  0
    7.9442  -18.5581   17.7974 O   0  0  0  0  0  0  0  0  0  0  0  0
   10.9490  -18.3099   21.7198 N   0  0  0  0  0  0  0  0  0  0  0  0
   10.7880  -18.9912   23.0183 C   0  0  1  0  0  0  0  0  0  0  0  0
   11.5827  -20.2370   22.9776 C   0  0  0  0  0  0  0  0  0  0  0  0
   11.6103  -21.0499   24.1962 C   0  0  0  0  0  0  0  0  0  0  0  0
   10.5195  -21.1787   24.8193 O   0  0  0  0  0  0  0  0  0  0  0  0
   11.1517  -18.0263   24.0869 C   0  0  0  0  0  0  0  0  0  0  0  0
   12.0588  -17.1663   23.9745 O   0  0  0  0  0  0  0  0  0  0  0  0
   12.7162  -21.6733   24.7058 O   0  0  0  0  0  0  0  0  0  0  0  0
   10.4743  -18.0219   25.3328 N   0  0  0  0  0  0  0  0  0  0  0  0
   10.7071  -17.0776   26.4077 C   0  0  1  0  0  0  0  0  0  0  0  0
    9.5532  -16.2030   26.6809 C   0  0  0  0  0  0  0  0  0  0  0  0
    9.8096  -15.3510   27.8579 C   0  0  0  0  0  0  0  0  0  0  0  0
    9.6973  -15.6128   29.2018 C   0  0  0  0  0  0  0  0  0  0  0  0
   10.0031  -14.4952   29.8829 N   0  0  0  0  0  0  0  0  0  0  0  0
   10.3081  -13.5260   29.0118 C   0  0  0  0  0  0  0  0  0  0  0  0
   10.1923  -14.0375   27.7879 N   0  0  0  0  0  0  0  0  0  0  0  0
   11.0374  -17.8881   27.5970 C   0  0  0  0  0  0  0  0  0  0  0  0
   11.8055  -17.3993   28.6708 O   0  0  0  0  0  0  0  0  0  0  0  0
   10.6370  -19.0688   27.6939 O   0  0  0  0  0  0  0  0  0  0  0  0
  2  1  1  6
  2  3  1  0
  3  4  1  0
  4  8  1  0
  5  4  2  0
  6  7  2  0
  6  2  1  0
  9  6  1  0
 10  9  1  0
 10 11  1  6
 12 13  2  0
 12 11  1  0
 14 17  1  0
 14 10  1  0
 15 14  2  0
 16 12  1  0
 18 17  1  0
 18 25  1  0
 18 19  1  1
 20 19  1  0
 21 20  2  0
 22 21  1  0
 23 22  1  0
 23 24  2  0
 24 20  1  0
 25 27  2  0
 25 26  1  0
M  END
$$$$
