DDH.pdb
     RDKit          3D

 27 27  0  0  1  0  0  0  0  0999 V2000
   11.2182  -25.6540   21.8192 N   0  0  0  0  0  0  0  0  0  0  0  0
   10.0789  -25.4363   20.9825 C   0  0  1  0  0  0  0  0  0  0  0  0
    9.3874  -26.8073   20.8744 C   0  0  0  0  0  0  0  0  0  0  0  0
    9.4484  -27.1802   19.4407 C   0  0  0  0  0  0  0  0  0  0  0  0
    9.2021  -26.2740   18.6117 O   0  0  0  0  0  0  0  0  0  0  0  0
    9.1415  -24.4124   21.4555 C   0  0  0  0  0  0  0  0  0  0  0  0
    8.7511  -23.5061   20.6592 O   0  0  0  0  0  0  0  0  0  0  0  0
    9.7624  -28.4573   19.0507 O   0  0  0  0  0  0  0  0  0  0  0  0
    8.6184  -24.3462   22.7674 N   0  0  0  0  0  0  0  0  0  0  0  0
    7.6601  -23.2974   23.1647 C   0  0  1  0  0  0  0  0  0  0  0  0
    6.5380  -23.9527   23.8695 C   0  0  0  0  0  0  0  0  0  0  0  0
    5.4417  -23.0923   24.3217 C   0  0  0  0  0  0  0  0  0  0  0  0
    5.1623  -23.1259   25.5527 O   0  0  0  0  0  0  0  0  0  0  0  0
    8.4027  -22.2731   23.9422 C   0  0  0  0  0  0  0  0  0  0  0  0
    7.8582  -21.2982   24.5150 O   0  0  0  0  0  0  0  0  0  0  0  0
    4.7049  -22.2638   23.5203 O   0  0  0  0  0  0  0  0  0  0  0  0
    9.8120  -22.3403   24.0856 N   0  0  0  0  0  0  0  0  0  0  0  0
   10.6399  -21.3193   24.6968 C   0  0  1  0  0  0  0  0  0  0  0  0
   10.2793  -19.9499   24.2898 C   0  0  0  0  0  0  0  0  0  0  0  0
   10.6127  -19.7209   22.8708 C   0  0  0  0  0  0  0  0  0  0  0  0
   11.3908  -20.4441   21.9997 C   0  0  0  0  0  0  0  0  0  0  0  0
   11.4237  -19.8012   20.8199 N   0  0  0  0  0  0  0  0  0  0  0  0
   10.6881  -18.6869   20.9123 C   0  0  0  0  0  0  0  0  0  0  0  0
   10.1967  -18.6338   22.1487 N   0  0  0  0  0  0  0  0  0  0  0  0
   10.4815  -21.4862   26.1554 C   0  0  0  0  0  0  0  0  0  0  0  0
   11.1651  -20.6951   27.0981 O   0  0  0  0  0  0  0  0  0  0  0  0
    9.7152  -22.3604   26.6165 O   0  0  0  0  0  0  0  0  0  0  0  0
  2  1  1  1
  2  3  1  0
  3  4  1  0
  4  8  1  0
  5  4  2  0
  6  7  2  0
  6  2  1  0
  9  6  1  0
 10  9  1  0
 10 11  1  1
 12 13  2  0
 12 11  1  0
 14 17  1  0
 14 10  1  0
 15 14  2  0
 16 12  1  0
 18 17  1  0
 18 25  1  0
 18 19  1  6
 20 19  1  0
 21 20  2  0
 22 21  1  0
 23 22  1  0
 23 24  2  0
 24 20  1  0
 25 27  2  0
 25 26  1  0
M  END
$$$$
