DDH.pdb
     RDKit          3D

 27 27  0  0  1  0  0  0  0  0999 V2000
   12.4276  -23.5585   23.1538 N   0  0  0  0  0  0  0  0  0  0  0  0
   11.4834  -22.5946   23.6276 C   0  0  1  0  0  0  0  0  0  0  0  0
   10.3647  -22.5692   22.5704 C   0  0  0  0  0  0  0  0  0  0  0  0
   11.0236  -22.2114   21.2913 C   0  0  0  0  0  0  0  0  0  0  0  0
   11.3606  -21.0137   21.1468 O   0  0  0  0  0  0  0  0  0  0  0  0
   10.9367  -22.8577   24.9628 C   0  0  0  0  0  0  0  0  0  0  0  0
   10.0903  -22.0557   25.4612 O   0  0  0  0  0  0  0  0  0  0  0  0
   11.2510  -23.1534   20.3205 O   0  0  0  0  0  0  0  0  0  0  0  0
   11.2843  -23.9654   25.7696 N   0  0  0  0  0  0  0  0  0  0  0  0
   10.7294  -24.1377   27.1255 C   0  0  1  0  0  0  0  0  0  0  0  0
   10.6964  -25.5859   27.4207 C   0  0  0  0  0  0  0  0  0  0  0  0
   10.2256  -25.9844   28.7497 C   0  0  0  0  0  0  0  0  0  0  0  0
    9.3616  -25.2415   29.2939 O   0  0  0  0  0  0  0  0  0  0  0  0
   11.5342  -23.3059   28.0559 C   0  0  0  0  0  0  0  0  0  0  0  0
   12.7804  -23.3947   28.1746 O   0  0  0  0  0  0  0  0  0  0  0  0
   10.6465  -27.0884   29.4392 O   0  0  0  0  0  0  0  0  0  0  0  0
   10.9216  -22.3348   28.8883 N   0  0  0  0  0  0  0  0  0  0  0  0
   11.6068  -21.5363   29.8855 C   0  0  1  0  0  0  0  0  0  0  0  0
   11.2004  -20.1201   29.8841 C   0  0  0  0  0  0  0  0  0  0  0  0
   11.5824  -19.4674   28.6171 C   0  0  0  0  0  0  0  0  0  0  0  0
   12.3880  -19.8953   27.5899 C   0  0  0  0  0  0  0  0  0  0  0  0
   12.4626  -18.9192   26.6690 N   0  0  0  0  0  0  0  0  0  0  0  0
   11.7269  -17.8790   27.0788 C   0  0  0  0  0  0  0  0  0  0  0  0
   11.1938  -18.2049   28.2546 N   0  0  0  0  0  0  0  0  0  0  0  0
   11.3026  -22.1626   31.1876 C   0  0  0  0  0  0  0  0  0  0  0  0
   11.8145  -21.6841   32.4087 O   0  0  0  0  0  0  0  0  0  0  0  0
   10.5611  -23.1675   31.2529 O   0  0  0  0  0  0  0  0  0  0  0  0
  2  1  1  6
  2  3  1  0
  3  4  1  0
  4  8  1  0
  5  4  2  0
  6  7  2  0
  6  2  1  0
  9  6  1  0
 10  9  1  0
 10 11  1  1
 12 13  2  0
 12 11  1  0
 14 17  1  0
 14 10  1  0
 15 14  2  0
 16 12  1  0
 18 17  1  0
 18 25  1  0
 18 19  1  1
 20 19  1  0
 21 20  2  0
 22 21  1  0
 23 22  1  0
 23 24  2  0
 24 20  1  0
 25 27  2  0
 25 26  1  0
M  END
$$$$
