MPM.pdb
     RDKit          3D

 24 24  0  0  1  0  0  0  0  0999 V2000
    8.0971  -11.6624   20.5490 C   0  0  0  0  0  0  0  0  0  0  0  0
    8.3686  -12.5069   18.9778 S   0  0  0  0  0  0  0  0  0  0  0  0
    7.9499  -14.2896   19.1055 C   0  0  0  0  0  0  0  0  0  0  0  0
    8.2545  -14.7303   20.4930 C   0  0  0  0  0  0  0  0  0  0  0  0
    8.0341  -16.1933   20.7722 C   0  0  2  0  0  0  0  0  0  0  0  0
    6.7166  -16.5194   20.3284 N   0  0  0  0  0  0  0  0  0  0  0  0
    8.3784  -16.6199   22.1313 C   0  0  0  0  0  0  0  0  0  0  0  0
    7.3996  -16.7685   22.9519 O   0  0  0  0  0  0  0  0  0  0  0  0
    9.6682  -16.8871   22.6427 N   0  0  0  0  0  0  0  0  0  0  0  0
   10.9853  -16.8235   22.0488 C   0  0  0  0  0  0  0  0  0  0  0  0
   11.5968  -18.1425   22.5268 C   0  0  0  0  0  0  0  0  0  0  0  0
   11.1692  -18.1750   23.9772 C   0  0  0  0  0  0  0  0  0  0  0  0
    9.9272  -17.3153   24.0088 C   0  0  1  0  0  0  0  0  0  0  0  0
   10.1664  -16.1746   24.9131 C   0  0  0  0  0  0  0  0  0  0  0  0
   10.9232  -15.2586   24.4772 O   0  0  0  0  0  0  0  0  0  0  0  0
    5.9505  -11.8717   25.3743 C   0  0  0  0  0  0  0  0  0  0  0  0
    6.7400  -12.5812   26.8300 S   0  0  0  0  0  0  0  0  0  0  0  0
    8.2077  -13.5547   26.3142 C   0  0  0  0  0  0  0  0  0  0  0  0
    8.9170  -14.1069   27.5161 C   0  0  0  0  0  0  0  0  0  0  0  0
   10.0868  -14.9475   27.1025 C   0  0  2  0  0  0  0  0  0  0  0  0
    9.6259  -16.0285   26.2040 N   0  0  0  0  0  0  0  0  0  0  0  0
   10.7688  -15.5267   28.2688 C   0  0  0  0  0  0  0  0  0  0  0  0
   11.4907  -14.6644   29.1268 O   0  0  0  0  0  0  0  0  0  0  0  0
   10.7942  -16.7231   28.6119 O   0  0  0  0  0  0  0  0  0  0  0  0
  1  2  1  0
  3  4  1  0
  3  2  1  0
  5  4  1  0
  5  6  1  1
  7  5  1  0
  8  7  2  0
  9 10  1  0
  9  7  1  0
 11 10  1  0
 12 13  1  0
 12 11  1  0
 13  9  1  0
 14 21  1  0
 13 14  1  1
 15 14  2  0
 17 16  1  0
 18 17  1  0
 19 18  1  0
 20 19  1  1
 20 21  1  0
 22 20  1  0
 22 23  1  0
 24 22  2  0
M  END
$$$$
