MPM.pdb
     RDKit          3D

 24 24  0  0  1  0  0  0  0  0999 V2000
    5.8552  -12.2563   25.2777 C   0  0  0  0  0  0  0  0  0  0  0  0
    5.9448  -13.3104   26.7393 S   0  0  0  0  0  0  0  0  0  0  0  0
    6.5768  -14.9799   26.3114 C   0  0  0  0  0  0  0  0  0  0  0  0
    5.7154  -15.5292   25.2304 C   0  0  0  0  0  0  0  0  0  0  0  0
    6.1520  -16.8537   24.6629 C   0  0  2  0  0  0  0  0  0  0  0  0
    6.1202  -17.8058   25.7265 N   0  0  0  0  0  0  0  0  0  0  0  0
    7.3877  -16.8097   23.8763 C   0  0  0  0  0  0  0  0  0  0  0  0
    8.1430  -17.8488   23.9348 O   0  0  0  0  0  0  0  0  0  0  0  0
    7.8438  -15.7513   23.0589 N   0  0  0  0  0  0  0  0  0  0  0  0
    7.3863  -14.3913   22.8787 C   0  0  0  0  0  0  0  0  0  0  0  0
    7.4011  -14.2665   21.3535 C   0  0  0  0  0  0  0  0  0  0  0  0
    8.7198  -14.9185   21.0018 C   0  0  0  0  0  0  0  0  0  0  0  0
    8.9828  -15.8530   22.1594 C   0  0  1  0  0  0  0  0  0  0  0  0
   10.2438  -15.4522   22.8116 C   0  0  0  0  0  0  0  0  0  0  0  0
   10.3937  -14.2159   23.0374 O   0  0  0  0  0  0  0  0  0  0  0  0
   10.1672  -13.5136   28.8442 C   0  0  0  0  0  0  0  0  0  0  0  0
   10.4966  -15.1126   28.0821 S   0  0  0  0  0  0  0  0  0  0  0  0
   10.8212  -14.8790   26.2909 C   0  0  0  0  0  0  0  0  0  0  0  0
   10.8740  -16.2063   25.5922 C   0  0  0  0  0  0  0  0  0  0  0  0
   11.9230  -16.2014   24.5218 C   0  0  2  0  0  0  0  0  0  0  0  0
   11.2777  -16.3256   23.1965 N   0  0  0  0  0  0  0  0  0  0  0  0
   12.8859  -17.2958   24.7110 C   0  0  0  0  0  0  0  0  0  0  0  0
   14.1772  -16.9835   25.1969 O   0  0  0  0  0  0  0  0  0  0  0  0
   12.7052  -18.5076   24.4906 O   0  0  0  0  0  0  0  0  0  0  0  0
  1  2  1  0
  3  4  1  0
  3  2  1  0
  5  4  1  0
  5  6  1  1
  7  5  1  0
  8  7  2  0
  9 10  1  0
  9  7  1  0
 11 10  1  0
 12 13  1  0
 12 11  1  0
 13  9  1  0
 14 21  1  0
 13 14  1  1
 15 14  2  0
 17 16  1  0
 18 17  1  0
 19 18  1  0
 20 19  1  1
 20 21  1  0
 22 20  1  0
 22 23  1  0
 24 22  2  0
M  END
$$$$
