MPM.pdb
     RDKit          3D

 24 24  0  0  1  0  0  0  0  0999 V2000
    6.0246  -12.3365   27.2446 C   0  0  0  0  0  0  0  0  0  0  0  0
    7.4680  -13.2423   26.6515 S   0  0  0  0  0  0  0  0  0  0  0  0
    7.1518  -15.0505   26.6351 C   0  0  0  0  0  0  0  0  0  0  0  0
    6.0830  -15.3164   25.6355 C   0  0  0  0  0  0  0  0  0  0  0  0
    6.2103  -16.6118   24.8786 C   0  0  2  0  0  0  0  0  0  0  0  0
    6.0729  -17.6739   25.8231 N   0  0  0  0  0  0  0  0  0  0  0  0
    7.3692  -16.6920   23.9853 C   0  0  0  0  0  0  0  0  0  0  0  0
    7.9948  -17.8151   23.9556 O   0  0  0  0  0  0  0  0  0  0  0  0
    7.8779  -15.6715   23.1508 N   0  0  0  0  0  0  0  0  0  0  0  0
    7.4649  -14.3052   22.9185 C   0  0  0  0  0  0  0  0  0  0  0  0
    7.5250  -14.2263   21.3913 C   0  0  0  0  0  0  0  0  0  0  0  0
    8.8335  -14.9252   21.0959 C   0  0  0  0  0  0  0  0  0  0  0  0
    9.0376  -15.8319   22.2871 C   0  0  1  0  0  0  0  0  0  0  0  0
   10.2914  -15.4474   22.9627 C   0  0  0  0  0  0  0  0  0  0  0  0
   10.3873  -14.2396   23.3285 O   0  0  0  0  0  0  0  0  0  0  0  0
    9.9776  -12.8240   28.0578 C   0  0  0  0  0  0  0  0  0  0  0  0
   10.4355  -14.5222   27.6676 S   0  0  0  0  0  0  0  0  0  0  0  0
   11.1687  -14.5851   25.9864 C   0  0  0  0  0  0  0  0  0  0  0  0
   11.5471  -15.9941   25.6339 C   0  0  0  0  0  0  0  0  0  0  0  0
   12.3064  -16.0325   24.3423 C   0  0  2  0  0  0  0  0  0  0  0  0
   11.3730  -16.3074   23.2280 N   0  0  0  0  0  0  0  0  0  0  0  0
   13.3613  -17.0557   24.3717 C   0  0  0  0  0  0  0  0  0  0  0  0
   13.0765  -18.3355   23.8407 O   0  0  0  0  0  0  0  0  0  0  0  0
   14.5164  -16.9373   24.8204 O   0  0  0  0  0  0  0  0  0  0  0  0
  1  2  1  0
  3  4  1  0
  3  2  1  0
  5  4  1  0
  5  6  1  1
  7  5  1  0
  8  7  2  0
  9 10  1  0
  9  7  1  0
 11 10  1  0
 12 13  1  0
 12 11  1  0
 13  9  1  0
 14 21  1  0
 13 14  1  1
 15 14  2  0
 17 16  1  0
 18 17  1  0
 19 18  1  0
 20 19  1  1
 20 21  1  0
 22 20  1  0
 22 23  1  0
 24 22  2  0
M  END
$$$$
