MPM.pdb
     RDKit          3D

 24 24  0  0  1  0  0  0  0  0999 V2000
    3.5291  -17.4918   21.1487 C   0  0  0  0  0  0  0  0  0  0  0  0
    4.5045  -19.0094   21.1161 S   0  0  0  0  0  0  0  0  0  0  0  0
    6.2401  -18.6682   20.6252 C   0  0  0  0  0  0  0  0  0  0  0  0
    6.2120  -17.9550   19.3203 C   0  0  0  0  0  0  0  0  0  0  0  0
    7.5493  -17.4953   18.8032 C   0  0  2  0  0  0  0  0  0  0  0  0
    8.2532  -18.6523   18.3506 N   0  0  0  0  0  0  0  0  0  0  0  0
    8.2865  -16.6067   19.7057 C   0  0  0  0  0  0  0  0  0  0  0  0
    9.3992  -17.0539   20.1698 O   0  0  0  0  0  0  0  0  0  0  0  0
    7.9112  -15.3104   20.1244 N   0  0  0  0  0  0  0  0  0  0  0  0
    6.7439  -14.4993   19.8581 C   0  0  0  0  0  0  0  0  0  0  0  0
    7.3822  -13.1442   19.5441 C   0  0  0  0  0  0  0  0  0  0  0  0
    8.4316  -13.0370   20.6280 C   0  0  0  0  0  0  0  0  0  0  0  0
    8.7198  -14.4734   20.9974 C   0  0  1  0  0  0  0  0  0  0  0  0
    8.3865  -14.6699   22.4210 C   0  0  0  0  0  0  0  0  0  0  0  0
    7.2145  -15.0744   22.6750 O   0  0  0  0  0  0  0  0  0  0  0  0
    6.3223  -11.6246   28.4734 C   0  0  0  0  0  0  0  0  0  0  0  0
    6.2735  -11.8858   26.6914 S   0  0  0  0  0  0  0  0  0  0  0  0
    6.8966  -13.5681   26.3045 C   0  0  0  0  0  0  0  0  0  0  0  0
    7.4648  -13.6081   24.9158 C   0  0  0  0  0  0  0  0  0  0  0  0
    8.7477  -14.3823   24.8893 C   0  0  2  0  0  0  0  0  0  0  0  0
    9.2585  -14.4457   23.5023 N   0  0  0  0  0  0  0  0  0  0  0  0
    8.5628  -15.7429   25.4140 C   0  0  0  0  0  0  0  0  0  0  0  0
    8.0939  -16.7480   24.5360 O   0  0  0  0  0  0  0  0  0  0  0  0
    8.7733  -16.1401   26.5749 O   0  0  0  0  0  0  0  0  0  0  0  0
  1  2  1  0
  3  4  1  0
  3  2  1  0
  5  4  1  0
  5  6  1  1
  7  5  1  0
  8  7  2  0
  9 10  1  0
  9  7  1  0
 11 10  1  0
 12 13  1  0
 12 11  1  0
 13  9  1  0
 14 21  1  0
 13 14  1  1
 15 14  2  0
 17 16  1  0
 18 17  1  0
 19 18  1  0
 20 19  1  6
 20 21  1  0
 22 20  1  0
 22 23  1  0
 24 22  2  0
M  END
$$$$
