MPM.pdb
     RDKit          3D

 24 24  0  0  1  0  0  0  0  0999 V2000
    6.5604  -11.5026   27.1757 C   0  0  0  0  0  0  0  0  0  0  0  0
    5.6101  -12.6867   26.2009 S   0  0  0  0  0  0  0  0  0  0  0  0
    6.4337  -14.3269   26.1683 C   0  0  0  0  0  0  0  0  0  0  0  0
    5.6906  -15.1903   25.2120 C   0  0  0  0  0  0  0  0  0  0  0  0
    6.2416  -16.5795   25.0289 C   0  0  2  0  0  0  0  0  0  0  0  0
    6.3576  -17.1675   26.3249 N   0  0  0  0  0  0  0  0  0  0  0  0
    7.4307  -16.6632   24.1763 C   0  0  0  0  0  0  0  0  0  0  0  0
    8.1482  -17.7238   24.2941 O   0  0  0  0  0  0  0  0  0  0  0  0
    7.8785  -15.7073   23.2371 N   0  0  0  0  0  0  0  0  0  0  0  0
    7.4290  -14.3708   22.9159 C   0  0  0  0  0  0  0  0  0  0  0  0
    7.4125  -14.4165   21.3862 C   0  0  0  0  0  0  0  0  0  0  0  0
    8.7176  -15.1181   21.0827 C   0  0  0  0  0  0  0  0  0  0  0  0
    8.9971  -15.9209   22.3317 C   0  0  1  0  0  0  0  0  0  0  0  0
   10.2751  -15.4640   22.9096 C   0  0  0  0  0  0  0  0  0  0  0  0
   10.4423  -14.2121   22.9896 O   0  0  0  0  0  0  0  0  0  0  0  0
   10.4121  -15.9628   28.8860 C   0  0  0  0  0  0  0  0  0  0  0  0
   11.2869  -14.5295   28.2328 S   0  0  0  0  0  0  0  0  0  0  0  0
   12.2914  -15.0369   26.7831 C   0  0  0  0  0  0  0  0  0  0  0  0
   11.3996  -15.4277   25.6408 C   0  0  0  0  0  0  0  0  0  0  0  0
   12.2114  -15.8622   24.4582 C   0  0  2  0  0  0  0  0  0  0  0  0
   11.3076  -16.3007   23.3722 N   0  0  0  0  0  0  0  0  0  0  0  0
   13.1305  -16.9536   24.8118 C   0  0  0  0  0  0  0  0  0  0  0  0
   14.4690  -16.6314   25.1366 O   0  0  0  0  0  0  0  0  0  0  0  0
   12.8736  -18.1705   24.8642 O   0  0  0  0  0  0  0  0  0  0  0  0
  1  2  1  0
  3  4  1  0
  3  2  1  0
  5  4  1  0
  5  6  1  1
  7  5  1  0
  8  7  2  0
  9 10  1  0
  9  7  1  0
 11 10  1  0
 12 13  1  0
 12 11  1  0
 13  9  1  0
 14 21  1  0
 13 14  1  1
 15 14  2  0
 17 16  1  0
 18 17  1  0
 19 18  1  0
 20 19  1  1
 20 21  1  0
 22 20  1  0
 22 23  1  0
 24 22  2  0
M  END
$$$$
