MPM.pdb
     RDKit          3D

 24 24  0  0  1  0  0  0  0  0999 V2000
    7.0241  -11.4064   26.4523 C   0  0  0  0  0  0  0  0  0  0  0  0
    5.3281  -11.9983   26.2830 S   0  0  0  0  0  0  0  0  0  0  0  0
    5.2667  -13.8329   26.2758 C   0  0  0  0  0  0  0  0  0  0  0  0
    6.4459  -14.3246   25.5142 C   0  0  0  0  0  0  0  0  0  0  0  0
    6.3444  -15.7368   25.0018 C   0  0  2  0  0  0  0  0  0  0  0  0
    6.0659  -16.5786   26.1211 N   0  0  0  0  0  0  0  0  0  0  0  0
    7.4506  -16.1600   24.1388 C   0  0  0  0  0  0  0  0  0  0  0  0
    8.0110  -17.2799   24.4311 O   0  0  0  0  0  0  0  0  0  0  0  0
    7.9720  -15.4743   23.0188 N   0  0  0  0  0  0  0  0  0  0  0  0
    7.7110  -14.1618   22.4705 C   0  0  0  0  0  0  0  0  0  0  0  0
    7.5796  -14.4776   20.9788 C   0  0  0  0  0  0  0  0  0  0  0  0
    8.7371  -15.4261   20.7594 C   0  0  0  0  0  0  0  0  0  0  0  0
    8.9779  -16.0268   22.1246 C   0  0  1  0  0  0  0  0  0  0  0  0
   10.3485  -15.6891   22.5531 C   0  0  0  0  0  0  0  0  0  0  0  0
   10.7247  -14.4976   22.3519 O   0  0  0  0  0  0  0  0  0  0  0  0
   10.9556  -14.1891   29.2429 C   0  0  0  0  0  0  0  0  0  0  0  0
   10.4086  -14.3906   27.5381 S   0  0  0  0  0  0  0  0  0  0  0  0
   11.0532  -15.9755   26.8743 C   0  0  0  0  0  0  0  0  0  0  0  0
   10.5839  -16.1803   25.4634 C   0  0  0  0  0  0  0  0  0  0  0  0
   11.7490  -16.3377   24.5340 C   0  0  2  0  0  0  0  0  0  0  0  0
   11.2565  -16.5767   23.1597 N   0  0  0  0  0  0  0  0  0  0  0  0
   12.6198  -17.4464   24.9502 C   0  0  0  0  0  0  0  0  0  0  0  0
   12.1619  -18.7718   24.7645 O   0  0  0  0  0  0  0  0  0  0  0  0
   13.7507  -17.3667   25.4645 O   0  0  0  0  0  0  0  0  0  0  0  0
  1  2  1  0
  3  4  1  0
  3  2  1  0
  5  4  1  0
  5  6  1  1
  7  5  1  0
  8  7  2  0
  9 10  1  0
  9  7  1  0
 11 10  1  0
 12 13  1  0
 12 11  1  0
 13  9  1  0
 14 21  1  0
 13 14  1  1
 15 14  2  0
 17 16  1  0
 18 17  1  0
 19 18  1  0
 20 19  1  1
 20 21  1  0
 22 20  1  0
 22 23  1  0
 24 22  2  0
M  END
$$$$
