MPM.pdb
     RDKit          3D

 24 24  0  0  1  0  0  0  0  0999 V2000
    4.8194  -12.4873   26.5558 C   0  0  0  0  0  0  0  0  0  0  0  0
    6.5788  -12.8244   26.7714 S   0  0  0  0  0  0  0  0  0  0  0  0
    6.9542  -14.5949   26.4646 C   0  0  0  0  0  0  0  0  0  0  0  0
    5.9722  -15.1023   25.4694 C   0  0  0  0  0  0  0  0  0  0  0  0
    6.2663  -16.4671   24.9055 C   0  0  2  0  0  0  0  0  0  0  0  0
    6.1854  -17.4011   25.9825 N   0  0  0  0  0  0  0  0  0  0  0  0
    7.4725  -16.5445   24.0768 C   0  0  0  0  0  0  0  0  0  0  0  0
    8.1189  -17.6557   24.1059 O   0  0  0  0  0  0  0  0  0  0  0  0
    8.0065  -15.5329   23.2474 N   0  0  0  0  0  0  0  0  0  0  0  0
    7.6819  -14.1331   23.0843 C   0  0  0  0  0  0  0  0  0  0  0  0
    7.6614  -14.0028   21.5596 C   0  0  0  0  0  0  0  0  0  0  0  0
    8.8965  -14.7816   21.1651 C   0  0  0  0  0  0  0  0  0  0  0  0
    9.1008  -15.7435   22.3120 C   0  0  1  0  0  0  0  0  0  0  0  0
   10.4154  -15.4741   22.9248 C   0  0  0  0  0  0  0  0  0  0  0  0
   10.6615  -14.2694   23.2246 O   0  0  0  0  0  0  0  0  0  0  0  0
   11.0989  -12.8145   27.3424 C   0  0  0  0  0  0  0  0  0  0  0  0
   11.3581  -14.4781   27.9836 S   0  0  0  0  0  0  0  0  0  0  0  0
   12.2624  -15.4775   26.7380 C   0  0  0  0  0  0  0  0  0  0  0  0
   11.4479  -15.6114   25.4845 C   0  0  0  0  0  0  0  0  0  0  0  0
   12.2029  -16.3766   24.4401 C   0  0  2  0  0  0  0  0  0  0  0  0
   11.4024  -16.4392   23.1976 N   0  0  0  0  0  0  0  0  0  0  0  0
   12.5190  -17.7373   24.8974 C   0  0  0  0  0  0  0  0  0  0  0  0
   13.7848  -17.9771   25.4815 O   0  0  0  0  0  0  0  0  0  0  0  0
   11.7894  -18.7440   24.8347 O   0  0  0  0  0  0  0  0  0  0  0  0
  1  2  1  0
  3  4  1  0
  3  2  1  0
  5  4  1  0
  5  6  1  1
  7  5  1  0
  8  7  2  0
  9 10  1  0
  9  7  1  0
 11 10  1  0
 12 13  1  0
 12 11  1  0
 13  9  1  0
 14 21  1  0
 13 14  1  1
 15 14  2  0
 17 16  1  0
 18 17  1  0
 19 18  1  0
 20 19  1  1
 20 21  1  0
 22 20  1  0
 22 23  1  0
 24 22  2  0
M  END
$$$$
