MPM.pdb
     RDKit          3D

 24 24  0  0  1  0  0  0  0  0999 V2000
    6.6452  -11.7135   26.6084 C   0  0  0  0  0  0  0  0  0  0  0  0
    5.6212  -12.9680   25.8127 S   0  0  0  0  0  0  0  0  0  0  0  0
    6.4391  -14.6109   25.8532 C   0  0  0  0  0  0  0  0  0  0  0  0
    5.6047  -15.5541   25.0618 C   0  0  0  0  0  0  0  0  0  0  0  0
    6.2334  -16.8916   24.7738 C   0  0  2  0  0  0  0  0  0  0  0  0
    6.4620  -17.5354   26.0277 N   0  0  0  0  0  0  0  0  0  0  0  0
    7.3742  -16.8511   23.8548 C   0  0  0  0  0  0  0  0  0  0  0  0
    7.9520  -17.9728   23.6067 O   0  0  0  0  0  0  0  0  0  0  0  0
    7.9121  -15.7153   23.2090 N   0  0  0  0  0  0  0  0  0  0  0  0
    7.6537  -14.2994   23.3502 C   0  0  0  0  0  0  0  0  0  0  0  0
    7.5513  -13.8630   21.8868 C   0  0  0  0  0  0  0  0  0  0  0  0
    8.7181  -14.5954   21.2624 C   0  0  0  0  0  0  0  0  0  0  0  0
    8.9373  -15.7767   22.1785 C   0  0  1  0  0  0  0  0  0  0  0  0
   10.2979  -15.6901   22.7420 C   0  0  0  0  0  0  0  0  0  0  0  0
   10.9550  -14.6431   22.4706 O   0  0  0  0  0  0  0  0  0  0  0  0
   10.3858  -14.8978   29.3279 C   0  0  0  0  0  0  0  0  0  0  0  0
   10.9941  -13.9356   27.9314 S   0  0  0  0  0  0  0  0  0  0  0  0
   11.9154  -15.0362   26.7878 C   0  0  0  0  0  0  0  0  0  0  0  0
   11.0974  -15.3175   25.5613 C   0  0  0  0  0  0  0  0  0  0  0  0
   11.8067  -16.2823   24.6600 C   0  0  2  0  0  0  0  0  0  0  0  0
   10.9123  -16.6676   23.5463 N   0  0  0  0  0  0  0  0  0  0  0  0
   12.2352  -17.4827   25.3921 C   0  0  0  0  0  0  0  0  0  0  0  0
   11.4437  -18.6512   25.2965 O   0  0  0  0  0  0  0  0  0  0  0  0
   13.2426  -17.6089   26.1125 O   0  0  0  0  0  0  0  0  0  0  0  0
  1  2  1  0
  3  4  1  0
  3  2  1  0
  5  4  1  0
  5  6  1  1
  7  5  1  0
  8  7  2  0
  9 10  1  0
  9  7  1  0
 11 10  1  0
 12 13  1  0
 12 11  1  0
 13  9  1  0
 14 21  1  0
 13 14  1  1
 15 14  2  0
 17 16  1  0
 18 17  1  0
 19 18  1  0
 20 19  1  1
 20 21  1  0
 22 20  1  0
 22 23  1  0
 24 22  2  0
M  END
$$$$
