MPM.pdb
     RDKit          3D

 24 24  0  0  1  0  0  0  0  0999 V2000
    6.8629  -20.4541   20.1202 C   0  0  0  0  0  0  0  0  0  0  0  0
    8.4699  -20.8326   20.8480 S   0  0  0  0  0  0  0  0  0  0  0  0
    9.5701  -19.3634   20.8195 C   0  0  0  0  0  0  0  0  0  0  0  0
    9.2368  -18.5689   19.6072 C   0  0  0  0  0  0  0  0  0  0  0  0
    9.8343  -17.1879   19.5520 C   0  0  2  0  0  0  0  0  0  0  0  0
   11.1972  -17.3276   19.1496 N   0  0  0  0  0  0  0  0  0  0  0  0
    9.5964  -16.3657   20.7416 C   0  0  0  0  0  0  0  0  0  0  0  0
   10.6211  -16.1038   21.4729 O   0  0  0  0  0  0  0  0  0  0  0  0
    8.3646  -15.8271   21.1764 N   0  0  0  0  0  0  0  0  0  0  0  0
    7.0214  -15.9133   20.6474 C   0  0  0  0  0  0  0  0  0  0  0  0
    6.5663  -14.4549   20.7380 C   0  0  0  0  0  0  0  0  0  0  0  0
    7.0623  -14.0600   22.1113 C   0  0  0  0  0  0  0  0  0  0  0  0
    8.2133  -15.0047   22.3670 C   0  0  1  0  0  0  0  0  0  0  0  0
    7.9049  -15.8103   23.5636 C   0  0  0  0  0  0  0  0  0  0  0  0
    7.4177  -16.9604   23.3590 O   0  0  0  0  0  0  0  0  0  0  0  0
    8.2694  -11.8390   27.4777 C   0  0  0  0  0  0  0  0  0  0  0  0
    8.9966  -13.2419   28.3432 S   0  0  0  0  0  0  0  0  0  0  0  0
    9.2508  -14.6224   27.1610 C   0  0  0  0  0  0  0  0  0  0  0  0
    8.1664  -15.6485   27.3152 C   0  0  0  0  0  0  0  0  0  0  0  0
    7.9113  -16.3507   26.0159 C   0  0  2  0  0  0  0  0  0  0  0  0
    8.1077  -15.4047   24.8957 N   0  0  0  0  0  0  0  0  0  0  0  0
    6.5511  -16.9059   25.9656 C   0  0  0  0  0  0  0  0  0  0  0  0
    6.2853  -18.1074   26.6632 O   0  0  0  0  0  0  0  0  0  0  0  0
    5.5658  -16.4380   25.3657 O   0  0  0  0  0  0  0  0  0  0  0  0
  1  2  1  0
  3  4  1  0
  3  2  1  0
  5  4  1  0
  5  6  1  1
  7  5  1  0
  8  7  2  0
  9 10  1  0
  9  7  1  0
 11 10  1  0
 12 13  1  0
 12 11  1  0
 13  9  1  0
 14 21  1  0
 13 14  1  1
 15 14  2  0
 17 16  1  0
 18 17  1  0
 19 18  1  0
 20 19  1  1
 20 21  1  0
 22 20  1  0
 22 23  1  0
 24 22  2  0
M  END
$$$$
