MPM.pdb
     RDKit          3D

 24 24  0  0  1  0  0  0  0  0999 V2000
    6.8279  -12.4596   27.7695 C   0  0  0  0  0  0  0  0  0  0  0  0
    5.8399  -12.5755   26.2642 S   0  0  0  0  0  0  0  0  0  0  0  0
    6.4515  -13.9206   25.1750 C   0  0  0  0  0  0  0  0  0  0  0  0
    6.0656  -15.2173   25.7929 C   0  0  0  0  0  0  0  0  0  0  0  0
    6.2003  -16.4251   24.9040 C   0  0  2  0  0  0  0  0  0  0  0  0
    5.9047  -17.5749   25.6975 N   0  0  0  0  0  0  0  0  0  0  0  0
    7.4411  -16.4826   24.1264 C   0  0  0  0  0  0  0  0  0  0  0  0
    8.2309  -17.4659   24.3770 O   0  0  0  0  0  0  0  0  0  0  0  0
    7.8683  -15.5768   23.1297 N   0  0  0  0  0  0  0  0  0  0  0  0
    7.4087  -14.2601   22.7467 C   0  0  0  0  0  0  0  0  0  0  0  0
    7.3638  -14.3868   21.2222 C   0  0  0  0  0  0  0  0  0  0  0  0
    8.6653  -15.1006   20.9318 C   0  0  0  0  0  0  0  0  0  0  0  0
    8.9705  -15.8356   22.2160 C   0  0  1  0  0  0  0  0  0  0  0  0
   10.2577  -15.3460   22.7449 C   0  0  0  0  0  0  0  0  0  0  0  0
   10.3877  -14.0906   22.8390 O   0  0  0  0  0  0  0  0  0  0  0  0
   10.6704  -12.8839   28.0015 C   0  0  0  0  0  0  0  0  0  0  0  0
   10.9537  -14.6612   28.0846 S   0  0  0  0  0  0  0  0  0  0  0  0
   12.0605  -15.1671   26.7108 C   0  0  0  0  0  0  0  0  0  0  0  0
   11.2561  -15.5053   25.4895 C   0  0  0  0  0  0  0  0  0  0  0  0
   12.1547  -15.7990   24.3266 C   0  0  2  0  0  0  0  0  0  0  0  0
   11.3363  -16.1553   23.1469 N   0  0  0  0  0  0  0  0  0  0  0  0
   13.0874  -16.8929   24.6338 C   0  0  0  0  0  0  0  0  0  0  0  0
   12.6088  -18.2231   24.5847 O   0  0  0  0  0  0  0  0  0  0  0  0
   14.2893  -16.7963   24.9433 O   0  0  0  0  0  0  0  0  0  0  0  0
  1  2  1  0
  3  4  1  0
  3  2  1  0
  5  4  1  0
  5  6  1  1
  7  5  1  0
  8  7  2  0
  9 10  1  0
  9  7  1  0
 11 10  1  0
 12 13  1  0
 12 11  1  0
 13  9  1  0
 14 21  1  0
 13 14  1  1
 15 14  2  0
 17 16  1  0
 18 17  1  0
 19 18  1  0
 20 19  1  1
 20 21  1  0
 22 20  1  0
 22 23  1  0
 24 22  2  0
M  END
$$$$
