MPM.pdb
     RDKit          3D

 24 24  0  0  1  0  0  0  0  0999 V2000
   12.0442  -20.9079   22.8502 C   0  0  0  0  0  0  0  0  0  0  0  0
   12.9487  -20.8031   21.2925 S   0  0  0  0  0  0  0  0  0  0  0  0
   12.0582  -19.7494   20.0816 C   0  0  0  0  0  0  0  0  0  0  0  0
   11.5217  -18.5703   20.8124 C   0  0  0  0  0  0  0  0  0  0  0  0
   11.0280  -17.4408   19.9479 C   0  0  2  0  0  0  0  0  0  0  0  0
   12.1301  -16.9943   19.1574 N   0  0  0  0  0  0  0  0  0  0  0  0
   10.2847  -16.3985   20.6611 C   0  0  0  0  0  0  0  0  0  0  0  0
   10.9401  -15.3370   20.9730 O   0  0  0  0  0  0  0  0  0  0  0  0
    8.9254  -16.4288   21.0457 N   0  0  0  0  0  0  0  0  0  0  0  0
    7.9023  -17.4447   20.9331 C   0  0  0  0  0  0  0  0  0  0  0  0
    6.7181  -16.6255   20.4147 C   0  0  0  0  0  0  0  0  0  0  0  0
    6.7905  -15.3906   21.2850 C   0  0  0  0  0  0  0  0  0  0  0  0
    8.2418  -15.3233   21.6995 C   0  0  1  0  0  0  0  0  0  0  0  0
    8.3169  -15.4148   23.1699 C   0  0  0  0  0  0  0  0  0  0  0  0
    8.4924  -16.5706   23.6547 O   0  0  0  0  0  0  0  0  0  0  0  0
    6.4738  -11.3070   28.5396 C   0  0  0  0  0  0  0  0  0  0  0  0
    5.9744  -11.4097   26.8115 S   0  0  0  0  0  0  0  0  0  0  0  0
    6.4162  -13.0622   26.1464 C   0  0  0  0  0  0  0  0  0  0  0  0
    7.8985  -13.2811   26.2336 C   0  0  0  0  0  0  0  0  0  0  0  0
    8.2915  -14.5414   25.5241 C   0  0  2  0  0  0  0  0  0  0  0  0
    8.2100  -14.3318   24.0620 N   0  0  0  0  0  0  0  0  0  0  0  0
    7.4297  -15.6665   25.9143 C   0  0  0  0  0  0  0  0  0  0  0  0
    7.7751  -16.4157   27.0634 O   0  0  0  0  0  0  0  0  0  0  0  0
    6.3962  -16.0601   25.3427 O   0  0  0  0  0  0  0  0  0  0  0  0
  1  2  1  0
  3  4  1  0
  3  2  1  0
  5  4  1  0
  5  6  1  1
  7  5  1  0
  8  7  2  0
  9 10  1  0
  9  7  1  0
 11 10  1  0
 12 13  1  0
 12 11  1  0
 13  9  1  0
 14 21  1  0
 13 14  1  1
 15 14  2  0
 17 16  1  0
 18 17  1  0
 19 18  1  0
 20 19  1  1
 20 21  1  0
 22 20  1  0
 22 23  1  0
 24 22  2  0
M  END
$$$$
