MPM.pdb
     RDKit          3D

 24 24  0  0  1  0  0  0  0  0999 V2000
    6.1516  -12.7796   26.9439 C   0  0  0  0  0  0  0  0  0  0  0  0
    7.4711  -13.9749   26.6509 S   0  0  0  0  0  0  0  0  0  0  0  0
    6.8051  -15.6826   26.5525 C   0  0  0  0  0  0  0  0  0  0  0  0
    5.9573  -15.7707   25.3337 C   0  0  0  0  0  0  0  0  0  0  0  0
    6.1958  -16.9759   24.4632 C   0  0  2  0  0  0  0  0  0  0  0  0
    5.9812  -18.1347   25.2693 N   0  0  0  0  0  0  0  0  0  0  0  0
    7.4464  -16.9467   23.6998 C   0  0  0  0  0  0  0  0  0  0  0  0
    8.0863  -18.0579   23.6031 O   0  0  0  0  0  0  0  0  0  0  0  0
    8.0298  -15.8321   23.0565 N   0  0  0  0  0  0  0  0  0  0  0  0
    7.6346  -14.4442   22.9606 C   0  0  0  0  0  0  0  0  0  0  0  0
    7.8450  -14.1720   21.4694 C   0  0  0  0  0  0  0  0  0  0  0  0
    9.1799  -14.8372   21.2180 C   0  0  0  0  0  0  0  0  0  0  0  0
    9.2700  -15.8897   22.2981 C   0  0  1  0  0  0  0  0  0  0  0  0
   10.4488  -15.6037   23.1377 C   0  0  0  0  0  0  0  0  0  0  0  0
   10.6908  -14.3840   23.3732 O   0  0  0  0  0  0  0  0  0  0  0  0
   10.6588  -12.7495   27.4165 C   0  0  0  0  0  0  0  0  0  0  0  0
   10.5503  -14.3450   28.2465 S   0  0  0  0  0  0  0  0  0  0  0  0
   11.4200  -15.6135   27.2453 C   0  0  0  0  0  0  0  0  0  0  0  0
   11.2514  -15.3293   25.7812 C   0  0  0  0  0  0  0  0  0  0  0  0
   12.0290  -16.3101   24.9570 C   0  0  2  0  0  0  0  0  0  0  0  0
   11.3122  -16.5684   23.6889 N   0  0  0  0  0  0  0  0  0  0  0  0
   12.2326  -17.5739   25.6797 C   0  0  0  0  0  0  0  0  0  0  0  0
   11.4773  -18.7046   25.2900 O   0  0  0  0  0  0  0  0  0  0  0  0
   13.0132  -17.7857   26.6260 O   0  0  0  0  0  0  0  0  0  0  0  0
  1  2  1  0
  3  4  1  0
  3  2  1  0
  5  4  1  0
  5  6  1  1
  7  5  1  0
  8  7  2  0
  9 10  1  0
  9  7  1  0
 11 10  1  0
 12 13  1  0
 12 11  1  0
 13  9  1  0
 14 21  1  0
 13 14  1  1
 15 14  2  0
 17 16  1  0
 18 17  1  0
 19 18  1  0
 20 19  1  1
 20 21  1  0
 22 20  1  0
 22 23  1  0
 24 22  2  0
M  END
$$$$
