YTH.pdb
     RDKit          3D

 30 31  0  0  1  0  0  0  0  0999 V2000
   18.8791  -26.5246  -10.7902 O   0  0  0  0  0  0  0  0  0  0  0  0
   19.5422  -27.6866  -10.3811 C   0  0  0  0  0  0  0  0  0  0  0  0
   20.9181  -27.7390  -10.3514 C   0  0  0  0  0  0  0  0  0  0  0  0
   21.5775  -28.8877   -9.9469 C   0  0  0  0  0  0  0  0  0  0  0  0
   20.8709  -30.0021   -9.5659 C   0  0  0  0  0  0  0  0  0  0  0  0
   21.5940  -31.2063   -9.1416 C   0  0  0  0  0  0  0  0  0  0  0  0
   22.4352  -31.8137  -10.2498 C   0  0  2  0  0  0  0  0  0  0  0  0
   21.5015  -32.3167  -11.2538 N   0  0  0  0  0  0  0  0  0  0  0  0
   23.1424  -32.9843   -9.6545 C   0  0  0  0  0  0  0  0  0  0  0  0
   22.6576  -34.1147   -9.8934 O   0  0  0  0  0  0  0  0  0  0  0  0
   19.4980  -29.9493   -9.5958 C   0  0  0  0  0  0  0  0  0  0  0  0
   18.8202  -28.8078   -9.9979 C   0  0  0  0  0  0  0  0  0  0  0  0
   26.6309  -34.0448  -10.2999 C   0  0  0  0  0  0  0  0  0  0  0  0
   26.5284  -33.9085   -8.7882 C   0  0  1  0  0  0  0  0  0  0  0  0
   26.9697  -32.6305   -8.4714 O   0  0  0  0  0  0  0  0  0  0  0  0
   25.0895  -34.0155   -8.4195 C   0  0  2  0  0  0  0  0  0  0  0  0
   24.2899  -32.9007   -8.8622 N   0  0  0  0  0  0  0  0  0  0  0  0
   24.9677  -34.0630   -6.9405 C   0  0  0  0  0  0  0  0  0  0  0  0
   24.8135  -32.9865   -6.2591 O   0  0  0  0  0  0  0  0  0  0  0  0
   25.0047  -35.2391   -6.1577 N   0  0  0  0  0  0  0  0  0  0  0  0
   25.0306  -35.1662   -4.6858 C   0  0  1  0  0  0  0  0  0  0  0  0
   24.8452  -36.5134   -4.0801 C   0  0  0  0  0  0  0  0  0  0  0  0
   24.0255  -36.4762   -2.8619 C   0  0  0  0  0  0  0  0  0  0  0  0
   23.4862  -35.3625   -2.2678 C   0  0  0  0  0  0  0  0  0  0  0  0
   22.8197  -35.7438   -1.1553 N   0  0  0  0  0  0  0  0  0  0  0  0
   22.9328  -37.0732   -1.0435 C   0  0  0  0  0  0  0  0  0  0  0  0
   23.6639  -37.5154   -2.0785 N   0  0  0  0  0  0  0  0  0  0  0  0
   26.3239  -34.5876   -4.3040 C   0  0  0  0  0  0  0  0  0  0  0  0
   26.3943  -33.8040   -3.3305 O   0  0  0  0  0  0  0  0  0  0  0  0
   27.4959  -34.8712   -4.9779 O   0  0  0  0  0  0  0  0  0  0  0  0
  2  3  2  0
  2  1  1  0
  4  3  1  0
  5  4  2  0
  6  5  1  0
  7  9  1  0
  7  6  1  0
  7  8  1  6
  9 10  2  0
 11  5  1  0
 11 12  2  0
 12  2  1  0
 14 13  1  6
 15 14  1  0
 16 14  1  0
 16 17  1  1
 17  9  1  0
 18 16  1  0
 19 18  2  0
 20 18  1  0
 21 20  1  0
 21 22  1  1
 23 22  1  0
 24 23  2  0
 25 26  1  0
 25 24  1  0
 26 27  2  0
 27 23  1  0
 28 30  1  0
 28 21  1  0
 29 28  2  0
M  END
$$$$
