YTH.pdb
     RDKit          3D

 30 31  0  0  1  0  0  0  0  0999 V2000
   11.9676   -9.2074  -20.6338 O   0  0  0  0  0  0  0  0  0  0  0  0
   13.0669   -9.0743  -19.7788 C   0  0  0  0  0  0  0  0  0  0  0  0
   12.8952   -8.7078  -18.4625 C   0  0  0  0  0  0  0  0  0  0  0  0
   13.9813   -8.5752  -17.6135 C   0  0  0  0  0  0  0  0  0  0  0  0
   15.2564   -8.8072  -18.0681 C   0  0  0  0  0  0  0  0  0  0  0  0
   16.3898   -8.6596  -17.1480 C   0  0  0  0  0  0  0  0  0  0  0  0
   16.9087   -9.9885  -16.6291 C   0  0  2  0  0  0  0  0  0  0  0  0
   15.8960  -10.5013  -15.7102 N   0  0  0  0  0  0  0  0  0  0  0  0
   18.1355   -9.6863  -15.8364 C   0  0  0  0  0  0  0  0  0  0  0  0
   17.9748   -9.4696  -14.6128 O   0  0  0  0  0  0  0  0  0  0  0  0
   15.4273   -9.1728  -19.3817 C   0  0  0  0  0  0  0  0  0  0  0  0
   14.3516   -9.3107  -20.2467 C   0  0  0  0  0  0  0  0  0  0  0  0
   23.0010   -9.7298  -15.2198 C   0  0  0  0  0  0  0  0  0  0  0  0
   21.7974  -10.1864  -16.0305 C   0  0  1  0  0  0  0  0  0  0  0  0
   21.5518  -11.5055  -15.6726 O   0  0  0  0  0  0  0  0  0  0  0  0
   20.6304   -9.3598  -15.6148 C   0  0  2  0  0  0  0  0  0  0  0  0
   19.4282   -9.6307  -16.3630 N   0  0  0  0  0  0  0  0  0  0  0  0
   20.9483   -7.9254  -15.8292 C   0  0  0  0  0  0  0  0  0  0  0  0
   20.6054   -7.3316  -16.9139 O   0  0  0  0  0  0  0  0  0  0  0  0
   21.6281   -7.0957  -14.9090 N   0  0  0  0  0  0  0  0  0  0  0  0
   21.9039   -5.6831  -15.2266 C   0  0  1  0  0  0  0  0  0  0  0  0
   20.6423   -4.9373  -15.4882 C   0  0  0  0  0  0  0  0  0  0  0  0
   20.8801   -3.5293  -15.8316 C   0  0  0  0  0  0  0  0  0  0  0  0
   22.0814   -2.9572  -16.1694 C   0  0  0  0  0  0  0  0  0  0  0  0
   21.8866   -1.6380  -16.3911 N   0  0  0  0  0  0  0  0  0  0  0  0
   20.5880   -1.3758  -16.1981 C   0  0  0  0  0  0  0  0  0  0  0  0
   19.9795   -2.5230  -15.8590 N   0  0  0  0  0  0  0  0  0  0  0  0
   22.6267   -5.1156  -14.0827 C   0  0  0  0  0  0  0  0  0  0  0  0
   22.4171   -5.5570  -12.9303 O   0  0  0  0  0  0  0  0  0  0  0  0
   23.5500   -4.0967  -14.2149 O   0  0  0  0  0  0  0  0  0  0  0  0
  2  3  2  0
  2  1  1  0
  4  3  1  0
  5  4  2  0
  6  5  1  0
  7  9  1  0
  7  6  1  0
  7  8  1  1
  9 10  2  0
 11  5  1  0
 11 12  2  0
 12  2  1  0
 14 13  1  1
 15 14  1  0
 16 14  1  0
 16 17  1  6
 17  9  1  0
 18 16  1  0
 19 18  2  0
 20 18  1  0
 21 20  1  0
 21 22  1  1
 23 22  1  0
 24 23  2  0
 25 26  1  0
 25 24  1  0
 26 27  2  0
 27 23  1  0
 28 30  1  0
 28 21  1  0
 29 28  2  0
M  END
$$$$
