YTH.pdb
     RDKit          3D

 30 31  0  0  1  0  0  0  0  0999 V2000
   22.2539  -16.8899  -20.4546 O   0  0  0  0  0  0  0  0  0  0  0  0
   22.1479  -15.4953  -20.4225 C   0  0  0  0  0  0  0  0  0  0  0  0
   22.2179  -14.7567  -21.5827 C   0  0  0  0  0  0  0  0  0  0  0  0
   22.1133  -13.3760  -21.5544 C   0  0  0  0  0  0  0  0  0  0  0  0
   21.9370  -12.7125  -20.3647 C   0  0  0  0  0  0  0  0  0  0  0  0
   21.8291  -11.2492  -20.3624 C   0  0  0  0  0  0  0  0  0  0  0  0
   20.4423  -10.7578  -19.9885 C   0  0  2  0  0  0  0  0  0  0  0  0
   19.5458  -11.1855  -21.0590 N   0  0  0  0  0  0  0  0  0  0  0  0
   20.4995   -9.2675  -20.0068 C   0  0  0  0  0  0  0  0  0  0  0  0
   20.5282   -8.7200  -21.1335 O   0  0  0  0  0  0  0  0  0  0  0  0
   21.8672  -13.4500  -19.2073 C   0  0  0  0  0  0  0  0  0  0  0  0
   21.9699  -14.8334  -19.2161 C   0  0  0  0  0  0  0  0  0  0  0  0
   18.1028   -6.7293  -19.0391 C   0  0  0  0  0  0  0  0  0  0  0  0
   19.3225   -6.4292  -18.1806 C   0  0  1  0  0  0  0  0  0  0  0  0
   19.1336   -7.0892  -16.9735 O   0  0  0  0  0  0  0  0  0  0  0  0
   20.5106   -7.0175  -18.8590 C   0  0  2  0  0  0  0  0  0  0  0  0
   20.5224   -8.4590  -18.8677 N   0  0  0  0  0  0  0  0  0  0  0  0
   21.7405   -6.5883  -18.1465 C   0  0  0  0  0  0  0  0  0  0  0  0
   22.2546   -7.3186  -17.2251 O   0  0  0  0  0  0  0  0  0  0  0  0
   22.4474   -5.3894  -18.3921 N   0  0  0  0  0  0  0  0  0  0  0  0
   23.6359   -5.0366  -17.5949 C   0  0  1  0  0  0  0  0  0  0  0  0
   24.5830   -4.2042  -18.3862 C   0  0  0  0  0  0  0  0  0  0  0  0
   25.7342   -3.7520  -17.5940 C   0  0  0  0  0  0  0  0  0  0  0  0
   26.9857   -4.3154  -17.5673 C   0  0  0  0  0  0  0  0  0  0  0  0
   27.7548   -3.6231  -16.6974 N   0  0  0  0  0  0  0  0  0  0  0  0
   27.0077   -2.6395  -16.1808 C   0  0  0  0  0  0  0  0  0  0  0  0
   25.7836   -2.7191  -16.7251 N   0  0  0  0  0  0  0  0  0  0  0  0
   23.1622   -4.3158  -16.4078 C   0  0  0  0  0  0  0  0  0  0  0  0
   22.0721   -3.7016  -16.4439 O   0  0  0  0  0  0  0  0  0  0  0  0
   23.8727   -4.2808  -15.2237 O   0  0  0  0  0  0  0  0  0  0  0  0
  2  3  2  0
  2  1  1  0
  4  3  1  0
  5  4  2  0
  6  5  1  0
  7  9  1  0
  7  6  1  0
  7  8  1  6
  9 10  2  0
 11  5  1  0
 11 12  2  0
 12  2  1  0
 14 13  1  6
 15 14  1  0
 16 14  1  0
 16 17  1  1
 17  9  1  0
 18 16  1  0
 19 18  2  0
 20 18  1  0
 21 20  1  0
 21 22  1  6
 23 22  1  0
 24 23  2  0
 25 26  1  0
 25 24  1  0
 26 27  2  0
 27 23  1  0
 28 30  1  0
 28 21  1  0
 29 28  2  0
M  END
$$$$
