YTH.pdb
     RDKit          3D

 30 31  0  0  1  0  0  0  0  0999 V2000
   25.5892  -38.9482  -16.7832 O   0  0  0  0  0  0  0  0  0  0  0  0
   25.1989  -37.7831  -16.1144 C   0  0  0  0  0  0  0  0  0  0  0  0
   24.1478  -37.8002  -15.2248 C   0  0  0  0  0  0  0  0  0  0  0  0
   23.7588  -36.6486  -14.5611 C   0  0  0  0  0  0  0  0  0  0  0  0
   24.4154  -35.4616  -14.7769 C   0  0  0  0  0  0  0  0  0  0  0  0
   23.9833  -34.2560  -14.0608 C   0  0  0  0  0  0  0  0  0  0  0  0
   22.9143  -33.4761  -14.8047 C   0  0  2  0  0  0  0  0  0  0  0  0
   23.6014  -32.7149  -15.8446 N   0  0  0  0  0  0  0  0  0  0  0  0
   22.3400  -32.5046  -13.8295 C   0  0  0  0  0  0  0  0  0  0  0  0
   22.6160  -31.2960  -14.0115 O   0  0  0  0  0  0  0  0  0  0  0  0
   25.4642  -35.4451  -15.6647 C   0  0  0  0  0  0  0  0  0  0  0  0
   25.8680  -36.5884  -16.3386 C   0  0  0  0  0  0  0  0  0  0  0  0
   18.7975  -30.5533  -11.5888 C   0  0  0  0  0  0  0  0  0  0  0  0
   19.5298  -31.4328  -12.5911 C   0  0  1  0  0  0  0  0  0  0  0  0
   19.8924  -30.6133  -13.6518 O   0  0  0  0  0  0  0  0  0  0  0  0
   20.7703  -31.9320  -11.9353 C   0  0  2  0  0  0  0  0  0  0  0  0
   21.5289  -32.8513  -12.7463 N   0  0  0  0  0  0  0  0  0  0  0  0
   20.4055  -32.6630  -10.6954 C   0  0  0  0  0  0  0  0  0  0  0  0
   19.9379  -33.8568  -10.7501 O   0  0  0  0  0  0  0  0  0  0  0  0
   20.5278  -32.1524   -9.3833 N   0  0  0  0  0  0  0  0  0  0  0  0
   20.0272  -32.9158   -8.2261 C   0  0  1  0  0  0  0  0  0  0  0  0
   20.3817  -32.2420   -6.9469 C   0  0  0  0  0  0  0  0  0  0  0  0
   19.9565  -33.0089   -5.7686 C   0  0  0  0  0  0  0  0  0  0  0  0
   19.3566  -34.2437   -5.7642 C   0  0  0  0  0  0  0  0  0  0  0  0
   19.1008  -34.5973   -4.4848 N   0  0  0  0  0  0  0  0  0  0  0  0
   19.5290  -33.6076   -3.6912 C   0  0  0  0  0  0  0  0  0  0  0  0
   20.0472  -32.6459   -4.4708 N   0  0  0  0  0  0  0  0  0  0  0  0
   18.5723  -33.0291   -8.3793 C   0  0  0  0  0  0  0  0  0  0  0  0
   18.0218  -34.1507   -8.3026 O   0  0  0  0  0  0  0  0  0  0  0  0
   17.7589  -31.9361   -8.6070 O   0  0  0  0  0  0  0  0  0  0  0  0
  2  3  2  0
  2  1  1  0
  4  3  1  0
  5  4  2  0
  6  5  1  0
  7  9  1  0
  7  6  1  0
  7  8  1  6
  9 10  2  0
 11  5  1  0
 11 12  2  0
 12  2  1  0
 14 13  1  1
 15 14  1  0
 16 14  1  0
 16 17  1  6
 17  9  1  0
 18 16  1  0
 19 18  2  0
 20 18  1  0
 21 20  1  0
 21 22  1  1
 23 22  1  0
 24 23  2  0
 25 26  1  0
 25 24  1  0
 26 27  2  0
 27 23  1  0
 28 30  1  0
 28 21  1  0
 29 28  2  0
M  END
$$$$
