YTH.pdb
     RDKit          3D

 30 31  0  0  1  0  0  0  0  0999 V2000
   33.5970  -29.1458  -20.5190 O   0  0  0  0  0  0  0  0  0  0  0  0
   32.4455  -29.7668  -20.0236 C   0  0  0  0  0  0  0  0  0  0  0  0
   31.2928  -29.0445  -19.8084 C   0  0  0  0  0  0  0  0  0  0  0  0
   30.1512  -29.6562  -19.3181 C   0  0  0  0  0  0  0  0  0  0  0  0
   30.1447  -31.0002  -19.0352 C   0  0  0  0  0  0  0  0  0  0  0  0
   28.9219  -31.6238  -18.5166 C   0  0  0  0  0  0  0  0  0  0  0  0
   28.7535  -31.4424  -17.0189 C   0  0  2  0  0  0  0  0  0  0  0  0
   29.7349  -32.3153  -16.3803 N   0  0  0  0  0  0  0  0  0  0  0  0
   27.3947  -31.9544  -16.6782 C   0  0  0  0  0  0  0  0  0  0  0  0
   27.3287  -33.1286  -16.2459 O   0  0  0  0  0  0  0  0  0  0  0  0
   31.2951  -31.7206  -19.2501 C   0  0  0  0  0  0  0  0  0  0  0  0
   32.4480  -31.1252  -19.7406 C   0  0  0  0  0  0  0  0  0  0  0  0
   25.7665  -32.9985  -14.5430 C   0  0  0  0  0  0  0  0  0  0  0  0
   24.8081  -31.8730  -14.9025 C   0  0  1  0  0  0  0  0  0  0  0  0
   25.2644  -30.7358  -14.2492 O   0  0  0  0  0  0  0  0  0  0  0  0
   24.9067  -31.6449  -16.3709 C   0  0  2  0  0  0  0  0  0  0  0  0
   26.2132  -31.2205  -16.8084 N   0  0  0  0  0  0  0  0  0  0  0  0
   23.9596  -30.5703  -16.7617 C   0  0  0  0  0  0  0  0  0  0  0  0
   24.3372  -29.6049  -17.5181 O   0  0  0  0  0  0  0  0  0  0  0  0
   22.6050  -30.4952  -16.3659 N   0  0  0  0  0  0  0  0  0  0  0  0
   21.7483  -29.3821  -16.8124 C   0  0  1  0  0  0  0  0  0  0  0  0
   21.7121  -29.2976  -18.2983 C   0  0  0  0  0  0  0  0  0  0  0  0
   20.7772  -28.2736  -18.7825 C   0  0  0  0  0  0  0  0  0  0  0  0
   20.7715  -26.9421  -18.4485 C   0  0  0  0  0  0  0  0  0  0  0  0
   19.7417  -26.3397  -19.0842 N   0  0  0  0  0  0  0  0  0  0  0  0
   19.1050  -27.2690  -19.8078 C   0  0  0  0  0  0  0  0  0  0  0  0
   19.7337  -28.4403  -19.6238 N   0  0  0  0  0  0  0  0  0  0  0  0
   20.4086  -29.6199  -16.2630 C   0  0  0  0  0  0  0  0  0  0  0  0
   19.9635  -30.7873  -16.1859 O   0  0  0  0  0  0  0  0  0  0  0  0
   19.5946  -28.5983  -15.8138 O   0  0  0  0  0  0  0  0  0  0  0  0
  2  3  2  0
  2  1  1  0
  4  3  1  0
  5  4  2  0
  6  5  1  0
  7  9  1  0
  7  6  1  0
  7  8  1  1
  9 10  2  0
 11  5  1  0
 11 12  2  0
 12  2  1  0
 14 13  1  1
 15 14  1  0
 16 14  1  0
 16 17  1  1
 17  9  1  0
 18 16  1  0
 19 18  2  0
 20 18  1  0
 21 20  1  0
 21 22  1  6
 23 22  1  0
 24 23  2  0
 25 26  1  0
 25 24  1  0
 26 27  2  0
 27 23  1  0
 28 30  1  0
 28 21  1  0
 29 28  2  0
M  END
$$$$
