YTH.pdb
     RDKit          3D

 30 31  0  0  1  0  0  0  0  0999 V2000
   15.4413  -18.0564  -18.9523 O   0  0  0  0  0  0  0  0  0  0  0  0
   16.4395  -17.0766  -18.9313 C   0  0  0  0  0  0  0  0  0  0  0  0
   17.4036  -17.0742  -17.9479 C   0  0  0  0  0  0  0  0  0  0  0  0
   18.3932  -16.1056  -17.9243 C   0  0  0  0  0  0  0  0  0  0  0  0
   18.4339  -15.1241  -18.8842 C   0  0  0  0  0  0  0  0  0  0  0  0
   19.4929  -14.1097  -18.8362 C   0  0  0  0  0  0  0  0  0  0  0  0
   20.5141  -14.2661  -19.9485 C   0  0  2  0  0  0  0  0  0  0  0  0
   21.2767  -15.4746  -19.6474 N   0  0  0  0  0  0  0  0  0  0  0  0
   21.4403  -13.1017  -19.8429 C   0  0  0  0  0  0  0  0  0  0  0  0
   22.5028  -13.2849  -19.2045 O   0  0  0  0  0  0  0  0  0  0  0  0
   17.4716  -15.1268  -19.8653 C   0  0  0  0  0  0  0  0  0  0  0  0
   16.4728  -16.0887  -19.9052 C   0  0  0  0  0  0  0  0  0  0  0  0
   22.8734  -11.0174  -22.6808 C   0  0  0  0  0  0  0  0  0  0  0  0
   22.2440  -10.0388  -21.7006 C   0  0  1  0  0  0  0  0  0  0  0  0
   20.9692   -9.7612  -22.1760 O   0  0  0  0  0  0  0  0  0  0  0  0
   22.1176  -10.7301  -20.3875 C   0  0  2  0  0  0  0  0  0  0  0  0
   21.2018  -11.8434  -20.4008 N   0  0  0  0  0  0  0  0  0  0  0  0
   21.6021   -9.7698  -19.3791 C   0  0  0  0  0  0  0  0  0  0  0  0
   20.3707   -9.7934  -19.0188 O   0  0  0  0  0  0  0  0  0  0  0  0
   22.3712   -8.7743  -18.7350 N   0  0  0  0  0  0  0  0  0  0  0  0
   21.7471   -7.8321  -17.7890 C   0  0  1  0  0  0  0  0  0  0  0  0
   22.7668   -7.2156  -16.8967 C   0  0  0  0  0  0  0  0  0  0  0  0
   22.1767   -6.2913  -15.9196 C   0  0  0  0  0  0  0  0  0  0  0  0
   20.8396   -6.0725  -15.6987 C   0  0  0  0  0  0  0  0  0  0  0  0
   20.7070   -5.1326  -14.7362 N   0  0  0  0  0  0  0  0  0  0  0  0
   21.9346   -4.7607  -14.3526 C   0  0  0  0  0  0  0  0  0  0  0  0
   22.8241   -5.4638  -15.0708 N   0  0  0  0  0  0  0  0  0  0  0  0
   21.0558   -6.8126  -18.5865 C   0  0  0  0  0  0  0  0  0  0  0  0
   21.5531   -6.4215  -19.6665 O   0  0  0  0  0  0  0  0  0  0  0  0
   19.8551   -6.2501  -18.1990 O   0  0  0  0  0  0  0  0  0  0  0  0
  2  3  2  0
  2  1  1  0
  4  3  1  0
  5  4  2  0
  6  5  1  0
  7  9  1  0
  7  6  1  0
  7  8  1  1
  9 10  2  0
 11  5  1  0
 11 12  2  0
 12  2  1  0
 14 13  1  6
 15 14  1  0
 16 14  1  0
 16 17  1  6
 17  9  1  0
 18 16  1  0
 19 18  2  0
 20 18  1  0
 21 20  1  0
 21 22  1  6
 23 22  1  0
 24 23  2  0
 25 26  1  0
 25 24  1  0
 26 27  2  0
 27 23  1  0
 28 30  1  0
 28 21  1  0
 29 28  2  0
M  END
$$$$
