YTH.pdb
     RDKit          3D

 30 31  0  0  1  0  0  0  0  0999 V2000
   29.1403  -20.4863   -3.4704 O   0  0  0  0  0  0  0  0  0  0  0  0
   28.6385  -20.3463   -4.7688 C   0  0  0  0  0  0  0  0  0  0  0  0
   27.3672  -20.7730   -5.0824 C   0  0  0  0  0  0  0  0  0  0  0  0
   26.8674  -20.6358   -6.3666 C   0  0  0  0  0  0  0  0  0  0  0  0
   27.6317  -20.0695   -7.3575 C   0  0  0  0  0  0  0  0  0  0  0  0
   27.0783  -19.9360   -8.7099 C   0  0  0  0  0  0  0  0  0  0  0  0
   27.0608  -21.2469   -9.4752 C   0  0  2  0  0  0  0  0  0  0  0  0
   28.4492  -21.6884   -9.5775 N   0  0  0  0  0  0  0  0  0  0  0  0
   26.5782  -20.9305  -10.8505 C   0  0  0  0  0  0  0  0  0  0  0  0
   27.4505  -20.8416  -11.7456 O   0  0  0  0  0  0  0  0  0  0  0  0
   28.9002  -19.6439   -7.0441 C   0  0  0  0  0  0  0  0  0  0  0  0
   29.4177  -19.7730   -5.7635 C   0  0  0  0  0  0  0  0  0  0  0  0
   26.5033  -21.9288  -13.4894 C   0  0  0  0  0  0  0  0  0  0  0  0
   24.9972  -21.7217  -13.4309 C   0  0  1  0  0  0  0  0  0  0  0  0
   24.4598  -22.8601  -12.8449 O   0  0  0  0  0  0  0  0  0  0  0  0
   24.7334  -20.5610  -12.5358 C   0  0  2  0  0  0  0  0  0  0  0  0
   25.2396  -20.7308  -11.1967 N   0  0  0  0  0  0  0  0  0  0  0  0
   23.2668  -20.3646  -12.4122 C   0  0  0  0  0  0  0  0  0  0  0  0
   22.6641  -20.5965  -11.3033 O   0  0  0  0  0  0  0  0  0  0  0  0
   22.4144  -19.9214  -13.4487 N   0  0  0  0  0  0  0  0  0  0  0  0
   20.9964  -19.6196  -13.1833 C   0  0  1  0  0  0  0  0  0  0  0  0
   20.6453  -18.2492  -13.6468 C   0  0  0  0  0  0  0  0  0  0  0  0
   19.2045  -17.9769  -13.5622 C   0  0  0  0  0  0  0  0  0  0  0  0
   18.4492  -17.8956  -12.4189 C   0  0  0  0  0  0  0  0  0  0  0  0
   17.1646  -17.6538  -12.7637 N   0  0  0  0  0  0  0  0  0  0  0  0
   17.1037  -17.5830  -14.0993 C   0  0  0  0  0  0  0  0  0  0  0  0
   18.3407  -17.7790  -14.5816 N   0  0  0  0  0  0  0  0  0  0  0  0
   20.1998  -20.6349  -13.8816 C   0  0  0  0  0  0  0  0  0  0  0  0
   20.6177  -21.1277  -14.9537 O   0  0  0  0  0  0  0  0  0  0  0  0
   18.9849  -21.0874  -13.4049 O   0  0  0  0  0  0  0  0  0  0  0  0
  2  3  2  0
  2  1  1  0
  4  3  1  0
  5  4  2  0
  6  5  1  0
  7  9  1  0
  7  6  1  0
  7  8  1  6
  9 10  2  0
 11  5  1  0
 11 12  2  0
 12  2  1  0
 14 13  1  1
 15 14  1  0
 16 14  1  0
 16 17  1  1
 17  9  1  0
 18 16  1  0
 19 18  2  0
 20 18  1  0
 21 20  1  0
 21 22  1  6
 23 22  1  0
 24 23  2  0
 25 26  1  0
 25 24  1  0
 26 27  2  0
 27 23  1  0
 28 30  1  0
 28 21  1  0
 29 28  2  0
M  END
$$$$
