YTH.pdb
     RDKit          3D

 30 31  0  0  1  0  0  0  0  0999 V2000
   21.5168  -19.9354  -19.3842 O   0  0  0  0  0  0  0  0  0  0  0  0
   22.2347  -18.7372  -19.3061 C   0  0  0  0  0  0  0  0  0  0  0  0
   23.4229  -18.5825  -19.9851 C   0  0  0  0  0  0  0  0  0  0  0  0
   24.1360  -17.3977  -19.9100 C   0  0  0  0  0  0  0  0  0  0  0  0
   23.6717  -16.3489  -19.1543 C   0  0  0  0  0  0  0  0  0  0  0  0
   24.4466  -15.1045  -19.0916 C   0  0  0  0  0  0  0  0  0  0  0  0
   25.6967  -15.2271  -18.2392 C   0  0  2  0  0  0  0  0  0  0  0  0
   25.7104  -16.5894  -17.7130 N   0  0  0  0  0  0  0  0  0  0  0  0
   25.5211  -14.2936  -17.0892 C   0  0  0  0  0  0  0  0  0  0  0  0
   24.9764  -14.7624  -16.0629 O   0  0  0  0  0  0  0  0  0  0  0  0
   22.4861  -16.5038  -18.4769 C   0  0  0  0  0  0  0  0  0  0  0  0
   21.7581  -17.6829  -18.5402 C   0  0  0  0  0  0  0  0  0  0  0  0
   27.6285  -10.6364  -16.7196 C   0  0  0  0  0  0  0  0  0  0  0  0
   27.0763  -11.4307  -15.5454 C   0  0  1  0  0  0  0  0  0  0  0  0
   26.8126  -10.5170  -14.5336 O   0  0  0  0  0  0  0  0  0  0  0  0
   25.7884  -12.0417  -15.9766 C   0  0  2  0  0  0  0  0  0  0  0  0
   25.9186  -12.9543  -17.0850 N   0  0  0  0  0  0  0  0  0  0  0  0
   24.8636  -10.9677  -16.4189 C   0  0  0  0  0  0  0  0  0  0  0  0
   24.9030  -10.5206  -17.6211 O   0  0  0  0  0  0  0  0  0  0  0  0
   23.8852  -10.3502  -15.6071 N   0  0  0  0  0  0  0  0  0  0  0  0
   22.9952   -9.3111  -16.1553 C   0  0  1  0  0  0  0  0  0  0  0  0
   21.7218   -9.2379  -15.3877 C   0  0  0  0  0  0  0  0  0  0  0  0
   20.8320   -8.1741  -15.8711 C   0  0  0  0  0  0  0  0  0  0  0  0
   20.5288   -7.0003  -15.2271 C   0  0  0  0  0  0  0  0  0  0  0  0
   19.6574   -6.3007  -15.9877 N   0  0  0  0  0  0  0  0  0  0  0  0
   19.4108   -7.0149  -17.0930 C   0  0  0  0  0  0  0  0  0  0  0  0
   20.1233   -8.1499  -17.0207 N   0  0  0  0  0  0  0  0  0  0  0  0
   23.7248   -8.0395  -16.0928 C   0  0  0  0  0  0  0  0  0  0  0  0
   24.5099   -7.8161  -15.1438 O   0  0  0  0  0  0  0  0  0  0  0  0
   23.5885   -7.0537  -17.0507 O   0  0  0  0  0  0  0  0  0  0  0  0
  2  3  2  0
  2  1  1  0
  4  3  1  0
  5  4  2  0
  6  5  1  0
  7  9  1  0
  7  6  1  0
  7  8  1  1
  9 10  2  0
 11  5  1  0
 11 12  2  0
 12  2  1  0
 14 13  1  6
 15 14  1  0
 16 14  1  0
 16 17  1  6
 17  9  1  0
 18 16  1  0
 19 18  2  0
 20 18  1  0
 21 20  1  0
 21 22  1  1
 23 22  1  0
 24 23  2  0
 25 26  1  0
 25 24  1  0
 26 27  2  0
 27 23  1  0
 28 30  1  0
 28 21  1  0
 29 28  2  0
M  END
$$$$
