YTH.pdb
     RDKit          3D

 30 31  0  0  1  0  0  0  0  0999 V2000
   20.6177  -18.4759  -20.5105 O   0  0  0  0  0  0  0  0  0  0  0  0
   20.8050  -17.0982  -20.6655 C   0  0  0  0  0  0  0  0  0  0  0  0
   19.7918  -16.2124  -20.3731 C   0  0  0  0  0  0  0  0  0  0  0  0
   19.9739  -14.8481  -20.5253 C   0  0  0  0  0  0  0  0  0  0  0  0
   21.1726  -14.3483  -20.9726 C   0  0  0  0  0  0  0  0  0  0  0  0
   21.3394  -12.8985  -21.1251 C   0  0  0  0  0  0  0  0  0  0  0  0
   20.5269  -12.3260  -22.2726 C   0  0  2  0  0  0  0  0  0  0  0  0
   21.1705  -12.7758  -23.5041 N   0  0  0  0  0  0  0  0  0  0  0  0
   20.6691  -10.8432  -22.1967 C   0  0  0  0  0  0  0  0  0  0  0  0
   21.5856  -10.3307  -22.8802 O   0  0  0  0  0  0  0  0  0  0  0  0
   22.1832  -15.2326  -21.2642 C   0  0  0  0  0  0  0  0  0  0  0  0
   22.0193  -16.6023  -21.1178 C   0  0  0  0  0  0  0  0  0  0  0  0
   18.5677   -8.2675  -23.4207 C   0  0  0  0  0  0  0  0  0  0  0  0
   18.6777   -7.9162  -21.9446 C   0  0  1  0  0  0  0  0  0  0  0  0
   17.5765   -8.4824  -21.3160 O   0  0  0  0  0  0  0  0  0  0  0  0
   19.9089   -8.5650  -21.4143 C   0  0  2  0  0  0  0  0  0  0  0  0
   19.8594  -10.0058  -21.4255 N   0  0  0  0  0  0  0  0  0  0  0  0
   20.1027   -8.1590  -19.9993 C   0  0  0  0  0  0  0  0  0  0  0  0
   19.6878   -8.9030  -19.0396 O   0  0  0  0  0  0  0  0  0  0  0  0
   20.7350   -6.9691  -19.5730 N   0  0  0  0  0  0  0  0  0  0  0  0
   20.8495   -6.6467  -18.1393 C   0  0  1  0  0  0  0  0  0  0  0  0
   21.8243   -5.5442  -17.9151 C   0  0  0  0  0  0  0  0  0  0  0  0
   21.9602   -5.1912  -16.4959 C   0  0  0  0  0  0  0  0  0  0  0  0
   21.6894   -5.9979  -15.4187 C   0  0  0  0  0  0  0  0  0  0  0  0
   21.9177   -5.2985  -14.2846 N   0  0  0  0  0  0  0  0  0  0  0  0
   22.3252   -4.0717  -14.6330 C   0  0  0  0  0  0  0  0  0  0  0  0
   22.3504   -4.0084  -15.9734 N   0  0  0  0  0  0  0  0  0  0  0  0
   19.5100   -6.2721  -17.6718 C   0  0  0  0  0  0  0  0  0  0  0  0
   18.7436   -5.6284  -18.4235 O   0  0  0  0  0  0  0  0  0  0  0  0
   19.0389   -6.6026  -16.4160 O   0  0  0  0  0  0  0  0  0  0  0  0
  2  3  2  0
  2  1  1  0
  4  3  1  0
  5  4  2  0
  6  5  1  0
  7  9  1  0
  7  6  1  0
  7  8  1  6
  9 10  2  0
 11  5  1  0
 11 12  2  0
 12  2  1  0
 14 13  1  6
 15 14  1  0
 16 14  1  0
 16 17  1  1
 17  9  1  0
 18 16  1  0
 19 18  2  0
 20 18  1  0
 21 20  1  0
 21 22  1  6
 23 22  1  0
 24 23  2  0
 25 26  1  0
 25 24  1  0
 26 27  2  0
 27 23  1  0
 28 30  1  0
 28 21  1  0
 29 28  2  0
M  END
$$$$
