YTH.pdb
     RDKit          3D

 30 31  0  0  1  0  0  0  0  0999 V2000
   29.8547  -10.2155  -17.2173 O   0  0  0  0  0  0  0  0  0  0  0  0
   28.8961  -11.2190  -17.3941 C   0  0  0  0  0  0  0  0  0  0  0  0
   28.3194  -11.8411  -16.3092 C   0  0  0  0  0  0  0  0  0  0  0  0
   27.3702  -12.8348  -16.4807 C   0  0  0  0  0  0  0  0  0  0  0  0
   26.9830  -13.2219  -17.7404 C   0  0  0  0  0  0  0  0  0  0  0  0
   25.9753  -14.2772  -17.8944 C   0  0  0  0  0  0  0  0  0  0  0  0
   26.5008  -15.6553  -17.5350 C   0  0  2  0  0  0  0  0  0  0  0  0
   27.5779  -15.9493  -18.4765 N   0  0  0  0  0  0  0  0  0  0  0  0
   25.3898  -16.6158  -17.7954 C   0  0  0  0  0  0  0  0  0  0  0  0
   25.5046  -17.3472  -18.8063 O   0  0  0  0  0  0  0  0  0  0  0  0
   27.5587  -12.6008  -18.8226 C   0  0  0  0  0  0  0  0  0  0  0  0
   28.5110  -11.6036  -18.6704 C   0  0  0  0  0  0  0  0  0  0  0  0
   24.8367  -19.3624  -18.0316 C   0  0  0  0  0  0  0  0  0  0  0  0
   23.7483  -19.1526  -16.9896 C   0  0  1  0  0  0  0  0  0  0  0  0
   24.3582  -19.2629  -15.7470 O   0  0  0  0  0  0  0  0  0  0  0  0
   23.2361  -17.7625  -17.1420 C   0  0  2  0  0  0  0  0  0  0  0  0
   24.2506  -16.7485  -16.9977 N   0  0  0  0  0  0  0  0  0  0  0  0
   22.2216  -17.4991  -16.0904 C   0  0  0  0  0  0  0  0  0  0  0  0
   22.5743  -17.1027  -14.9219 O   0  0  0  0  0  0  0  0  0  0  0  0
   20.8252  -17.6463  -16.2510 N   0  0  0  0  0  0  0  0  0  0  0  0
   19.8994  -17.3108  -15.1543 C   0  0  1  0  0  0  0  0  0  0  0  0
   18.8303  -16.3858  -15.6208 C   0  0  0  0  0  0  0  0  0  0  0  0
   17.8454  -16.0876  -14.5728 C   0  0  0  0  0  0  0  0  0  0  0  0
   18.0702  -15.4029  -13.4045 C   0  0  0  0  0  0  0  0  0  0  0  0
   16.9184  -15.3600  -12.6982 N   0  0  0  0  0  0  0  0  0  0  0  0
   15.9798  -16.0044  -13.4026 C   0  0  0  0  0  0  0  0  0  0  0  0
   16.5433  -16.4448  -14.5383 N   0  0  0  0  0  0  0  0  0  0  0  0
   19.3316  -18.5727  -14.6661 C   0  0  0  0  0  0  0  0  0  0  0  0
   19.3141  -19.5788  -15.4106 O   0  0  0  0  0  0  0  0  0  0  0  0
   18.8050  -18.7118  -13.3967 O   0  0  0  0  0  0  0  0  0  0  0  0
  2  3  2  0
  2  1  1  0
  4  3  1  0
  5  4  2  0
  6  5  1  0
  7  9  1  0
  7  6  1  0
  7  8  1  6
  9 10  2  0
 11  5  1  0
 11 12  2  0
 12  2  1  0
 14 13  1  6
 15 14  1  0
 16 14  1  0
 16 17  1  1
 17  9  1  0
 18 16  1  0
 19 18  2  0
 20 18  1  0
 21 20  1  0
 21 22  1  6
 23 22  1  0
 24 23  2  0
 25 26  1  0
 25 24  1  0
 26 27  2  0
 27 23  1  0
 28 30  1  0
 28 21  1  0
 29 28  2  0
M  END
$$$$
