YTH.pdb
     RDKit          3D

 30 31  0  0  1  0  0  0  0  0999 V2000
   17.3813  -19.0227  -21.5781 O   0  0  0  0  0  0  0  0  0  0  0  0
   18.1571  -18.0572  -20.9274 C   0  0  0  0  0  0  0  0  0  0  0  0
   18.8071  -17.0766  -21.6432 C   0  0  0  0  0  0  0  0  0  0  0  0
   19.5758  -16.1194  -21.0023 C   0  0  0  0  0  0  0  0  0  0  0  0
   19.7063  -16.1282  -19.6350 C   0  0  0  0  0  0  0  0  0  0  0  0
   20.5266  -15.1026  -18.9806 C   0  0  0  0  0  0  0  0  0  0  0  0
   22.0167  -15.3465  -19.1377 C   0  0  2  0  0  0  0  0  0  0  0  0
   22.3318  -16.5293  -18.3411 N   0  0  0  0  0  0  0  0  0  0  0  0
   22.7069  -14.1790  -18.5170 C   0  0  0  0  0  0  0  0  0  0  0  0
   23.0315  -14.2934  -17.3122 O   0  0  0  0  0  0  0  0  0  0  0  0
   19.0574  -17.1069  -18.9212 C   0  0  0  0  0  0  0  0  0  0  0  0
   18.2832  -18.0738  -19.5458 C   0  0  0  0  0  0  0  0  0  0  0  0
   24.3523  -10.9931  -20.7900 C   0  0  0  0  0  0  0  0  0  0  0  0
   24.8663  -11.3991  -19.4169 C   0  0  1  0  0  0  0  0  0  0  0  0
   25.3818  -10.2521  -18.8280 O   0  0  0  0  0  0  0  0  0  0  0  0
   23.6995  -11.8583  -18.6133 C   0  0  2  0  0  0  0  0  0  0  0  0
   23.0083  -12.9882  -19.1824 N   0  0  0  0  0  0  0  0  0  0  0  0
   22.7075  -10.7574  -18.5218 C   0  0  0  0  0  0  0  0  0  0  0  0
   21.7810  -10.6331  -19.4009 O   0  0  0  0  0  0  0  0  0  0  0  0
   22.6734   -9.7743  -17.5070 N   0  0  0  0  0  0  0  0  0  0  0  0
   21.6290   -8.7343  -17.4978 C   0  0  1  0  0  0  0  0  0  0  0  0
   21.2244   -8.3947  -16.1060 C   0  0  0  0  0  0  0  0  0  0  0  0
   20.1366   -7.4090  -16.0592 C   0  0  0  0  0  0  0  0  0  0  0  0
   19.5005   -6.8355  -17.1320 C   0  0  0  0  0  0  0  0  0  0  0  0
   18.5753   -5.9635  -16.6726 N   0  0  0  0  0  0  0  0  0  0  0  0
   18.6220   -5.9815  -15.3347 C   0  0  0  0  0  0  0  0  0  0  0  0
   19.5687   -6.8579  -14.9647 N   0  0  0  0  0  0  0  0  0  0  0  0
   22.1786   -7.5631  -18.1899 C   0  0  0  0  0  0  0  0  0  0  0  0
   23.3965   -7.2924  -18.0885 O   0  0  0  0  0  0  0  0  0  0  0  0
   21.4038   -6.7249  -18.9678 O   0  0  0  0  0  0  0  0  0  0  0  0
  2  3  2  0
  2  1  1  0
  4  3  1  0
  5  4  2  0
  6  5  1  0
  7  9  1  0
  7  6  1  0
  7  8  1  1
  9 10  2  0
 11  5  1  0
 11 12  2  0
 12  2  1  0
 14 13  1  6
 15 14  1  0
 16 14  1  0
 16 17  1  6
 17  9  1  0
 18 16  1  0
 19 18  2  0
 20 18  1  0
 21 20  1  0
 21 22  1  1
 23 22  1  0
 24 23  2  0
 25 26  1  0
 25 24  1  0
 26 27  2  0
 27 23  1  0
 28 30  1  0
 28 21  1  0
 29 28  2  0
M  END
$$$$
