YTH.pdb
     RDKit          3D

 30 31  0  0  1  0  0  0  0  0999 V2000
   34.9554  -25.1744  -20.4864 O   0  0  0  0  0  0  0  0  0  0  0  0
   34.1238  -26.2705  -20.2332 C   0  0  0  0  0  0  0  0  0  0  0  0
   33.8366  -26.6534  -18.9419 C   0  0  0  0  0  0  0  0  0  0  0  0
   33.0138  -27.7380  -18.6879 C   0  0  0  0  0  0  0  0  0  0  0  0
   32.4653  -28.4567  -19.7218 C   0  0  0  0  0  0  0  0  0  0  0  0
   31.5968  -29.6016  -19.4253 C   0  0  0  0  0  0  0  0  0  0  0  0
   32.3184  -30.7190  -18.6938 C   0  0  2  0  0  0  0  0  0  0  0  0
   33.3385  -31.2252  -19.6082 N   0  0  0  0  0  0  0  0  0  0  0  0
   31.3171  -31.8034  -18.4790 C   0  0  0  0  0  0  0  0  0  0  0  0
   31.0972  -32.5656  -19.4489 O   0  0  0  0  0  0  0  0  0  0  0  0
   32.7521  -28.0743  -21.0102 C   0  0  0  0  0  0  0  0  0  0  0  0
   33.5740  -26.9908  -21.2840 C   0  0  0  0  0  0  0  0  0  0  0  0
   31.3572  -34.5795  -16.1868 C   0  0  0  0  0  0  0  0  0  0  0  0
   30.0026  -33.9491  -15.9004 C   0  0  1  0  0  0  0  0  0  0  0  0
   30.1610  -33.1578  -14.7704 O   0  0  0  0  0  0  0  0  0  0  0  0
   29.6607  -33.0664  -17.0502 C   0  0  2  0  0  0  0  0  0  0  0  0
   30.6220  -32.0184  -17.2864 N   0  0  0  0  0  0  0  0  0  0  0  0
   28.3626  -32.3976  -16.7818 C   0  0  0  0  0  0  0  0  0  0  0  0
   28.2506  -31.1221  -16.8675 O   0  0  0  0  0  0  0  0  0  0  0  0
   27.1657  -33.0574  -16.4219 N   0  0  0  0  0  0  0  0  0  0  0  0
   25.9201  -32.2990  -16.2084 C   0  0  1  0  0  0  0  0  0  0  0  0
   25.5704  -31.4948  -17.4114 C   0  0  0  0  0  0  0  0  0  0  0  0
   24.2637  -30.8356  -17.2891 C   0  0  0  0  0  0  0  0  0  0  0  0
   24.0075  -29.6213  -16.7024 C   0  0  0  0  0  0  0  0  0  0  0  0
   22.6796  -29.3775  -16.7716 N   0  0  0  0  0  0  0  0  0  0  0  0
   22.1026  -30.4156  -17.3896 C   0  0  0  0  0  0  0  0  0  0  0  0
   23.0639  -31.2983  -17.7024 N   0  0  0  0  0  0  0  0  0  0  0  0
   24.8677  -33.2737  -15.8991 C   0  0  0  0  0  0  0  0  0  0  0  0
   24.8378  -34.3718  -16.4992 O   0  0  0  0  0  0  0  0  0  0  0  0
   23.8863  -33.0376  -14.9562 O   0  0  0  0  0  0  0  0  0  0  0  0
  2  3  2  0
  2  1  1  0
  4  3  1  0
  5  4  2  0
  6  5  1  0
  7  9  1  0
  7  6  1  0
  7  8  1  6
  9 10  2  0
 11  5  1  0
 11 12  2  0
 12  2  1  0
 14 13  1  6
 15 14  1  0
 16 14  1  0
 16 17  1  1
 17  9  1  0
 18 16  1  0
 19 18  2  0
 20 18  1  0
 21 20  1  0
 21 22  1  6
 23 22  1  0
 24 23  2  0
 25 26  1  0
 25 24  1  0
 26 27  2  0
 27 23  1  0
 28 30  1  0
 28 21  1  0
 29 28  2  0
M  END
$$$$
