YTH.pdb
     RDKit          3D

 30 31  0  0  1  0  0  0  0  0999 V2000
   17.1726  -16.2340  -22.7259 O   0  0  0  0  0  0  0  0  0  0  0  0
   17.8885  -15.3056  -21.9626 C   0  0  0  0  0  0  0  0  0  0  0  0
   18.3088  -15.6159  -20.6884 C   0  0  0  0  0  0  0  0  0  0  0  0
   19.0177  -14.6992  -19.9302 C   0  0  0  0  0  0  0  0  0  0  0  0
   19.3174  -13.4573  -20.4348 C   0  0  0  0  0  0  0  0  0  0  0  0
   20.0697  -12.5046  -19.6107 C   0  0  0  0  0  0  0  0  0  0  0  0
   21.5535  -12.4866  -19.9309 C   0  0  2  0  0  0  0  0  0  0  0  0
   22.1019  -13.7466  -19.4364 N   0  0  0  0  0  0  0  0  0  0  0  0
   22.1492  -11.3807  -19.1266 C   0  0  0  0  0  0  0  0  0  0  0  0
   23.1908  -11.6507  -18.4847 O   0  0  0  0  0  0  0  0  0  0  0  0
   18.8978  -13.1481  -21.7063 C   0  0  0  0  0  0  0  0  0  0  0  0
   18.1868  -14.0534  -22.4806 C   0  0  0  0  0  0  0  0  0  0  0  0
   23.3635   -8.2461  -20.4736 C   0  0  0  0  0  0  0  0  0  0  0  0
   23.5931   -8.6139  -19.0153 C   0  0  1  0  0  0  0  0  0  0  0  0
   24.0741   -7.4731  -18.3865 O   0  0  0  0  0  0  0  0  0  0  0  0
   22.2718   -8.9585  -18.4210 C   0  0  2  0  0  0  0  0  0  0  0  0
   21.6282  -10.0871  -19.0458 N   0  0  0  0  0  0  0  0  0  0  0  0
   21.3506   -7.8048  -18.5791 C   0  0  0  0  0  0  0  0  0  0  0  0
   20.9031   -7.4752  -19.7357 O   0  0  0  0  0  0  0  0  0  0  0  0
   20.8861   -6.9836  -17.5269 N   0  0  0  0  0  0  0  0  0  0  0  0
   19.9248   -5.8966  -17.7852 C   0  0  1  0  0  0  0  0  0  0  0  0
   18.6814   -6.0812  -16.9877 C   0  0  0  0  0  0  0  0  0  0  0  0
   17.9271   -7.2764  -17.3873 C   0  0  0  0  0  0  0  0  0  0  0  0
   17.3266   -7.5017  -18.6010 C   0  0  0  0  0  0  0  0  0  0  0  0
   16.7143   -8.7063  -18.5652 N   0  0  0  0  0  0  0  0  0  0  0  0
   16.9206   -9.2366  -17.3534 C   0  0  0  0  0  0  0  0  0  0  0  0
   17.6557   -8.3688  -16.6408 N   0  0  0  0  0  0  0  0  0  0  0  0
   20.5931   -4.6368  -17.4398 C   0  0  0  0  0  0  0  0  0  0  0  0
   19.9935   -3.5490  -17.5947 O   0  0  0  0  0  0  0  0  0  0  0  0
   21.8794   -4.5879  -16.9386 O   0  0  0  0  0  0  0  0  0  0  0  0
  2  3  2  0
  2  1  1  0
  4  3  1  0
  5  4  2  0
  6  5  1  0
  7  9  1  0
  7  6  1  0
  7  8  1  1
  9 10  2  0
 11  5  1  0
 11 12  2  0
 12  2  1  0
 14 13  1  6
 15 14  1  0
 16 14  1  0
 16 17  1  6
 17  9  1  0
 18 16  1  0
 19 18  2  0
 20 18  1  0
 21 20  1  0
 21 22  1  1
 23 22  1  0
 24 23  2  0
 25 26  1  0
 25 24  1  0
 26 27  2  0
 27 23  1  0
 28 30  1  0
 28 21  1  0
 29 28  2  0
M  END
$$$$
