KSE.pdb
     RDKit          3D

 25 24  0  0  1  0  0  0  0  0999 V2000
   18.8015  -13.6006  -15.7525 N   0  0  0  0  0  0  0  0  0  0  0  0
   19.3180  -12.5458  -16.6691 C   0  0  1  0  0  0  0  0  0  0  0  0
   18.0542  -11.9817  -17.3037 C   0  0  0  0  0  0  0  0  0  0  0  0
   16.7875  -12.5178  -16.7508 C   0  0  0  0  0  0  0  0  0  0  0  0
   15.5229  -11.9285  -17.2922 C   0  0  0  0  0  0  0  0  0  0  0  0
   14.2489  -12.3626  -16.6544 C   0  0  0  0  0  0  0  0  0  0  0  0
   13.0654  -11.6677  -17.1046 N   0  0  0  0  0  0  0  0  0  0  0  0
   19.9100  -11.4605  -15.8107 C   0  0  0  0  0  0  0  0  0  0  0  0
   19.2189  -11.0252  -14.8695 O   0  0  0  0  0  0  0  0  0  0  0  0
   23.5801   -9.9663  -16.7422 O   0  0  0  0  0  0  0  0  0  0  0  0
   23.3270  -10.0363  -15.3565 C   0  0  0  0  0  0  0  0  0  0  0  0
   21.8137   -9.9596  -15.2328 C   0  0  2  0  0  0  0  0  0  0  0  0
   21.2105  -10.9604  -16.0788 N   0  0  0  0  0  0  0  0  0  0  0  0
   21.3364   -8.5901  -15.6334 C   0  0  0  0  0  0  0  0  0  0  0  0
   21.0772   -8.3768  -16.8486 O   0  0  0  0  0  0  0  0  0  0  0  0
   21.1616   -7.5287  -14.7219 N   0  0  0  0  0  0  0  0  0  0  0  0
   20.7928   -6.1871  -15.0805 C   0  0  1  0  0  0  0  0  0  0  0  0
   19.4589   -5.7703  -14.4940 C   0  0  0  0  0  0  0  0  0  0  0  0
   19.1451   -4.3257  -14.8252 C   0  0  0  0  0  0  0  0  0  0  0  0
   17.9102   -4.2482  -15.6317 C   0  0  0  0  0  0  0  0  0  0  0  0
   17.3812   -5.2131  -16.2283 O   0  0  0  0  0  0  0  0  0  0  0  0
   21.8636   -5.2001  -14.7564 C   0  0  0  0  0  0  0  0  0  0  0  0
   21.8397   -4.0669  -15.2751 O   0  0  0  0  0  0  0  0  0  0  0  0
   17.3035   -2.9883  -15.7213 O   0  0  0  0  0  0  0  0  0  0  0  0
   22.9107   -5.4970  -13.8812 O   0  0  0  0  0  0  0  0  0  0  0  0
  2  1  1  1
  3  2  1  0
  4  3  1  0
  5  6  1  0
  5  4  1  0
  6  7  1  0
  8  2  1  0
  8  9  2  0
 10 11  1  0
 12 11  1  6
 12 13  1  0
 13  8  1  0
 14 12  1  0
 15 14  2  0
 16 14  1  0
 17 22  1  0
 17 16  1  0
 17 18  1  1
 19 18  1  0
 20 21  2  0
 20 19  1  0
 22 25  1  0
 23 22  2  0
 24 20  1  0
M  END
$$$$
