KSE.pdb
     RDKit          3D

 25 24  0  0  1  0  0  0  0  0999 V2000
   20.8445  -17.2964  -15.8521 N   0  0  0  0  0  0  0  0  0  0  0  0
   20.0876  -16.4477  -16.8146 C   0  0  1  0  0  0  0  0  0  0  0  0
   18.6334  -16.7182  -16.4538 C   0  0  0  0  0  0  0  0  0  0  0  0
   18.1231  -18.0438  -16.8782 C   0  0  0  0  0  0  0  0  0  0  0  0
   17.8383  -19.0278  -15.7872 C   0  0  0  0  0  0  0  0  0  0  0  0
   17.1806  -20.3039  -16.1840 C   0  0  0  0  0  0  0  0  0  0  0  0
   17.1434  -21.3229  -15.1611 N   0  0  0  0  0  0  0  0  0  0  0  0
   20.3753  -15.0124  -16.4650 C   0  0  0  0  0  0  0  0  0  0  0  0
   20.6008  -14.7418  -15.2697 O   0  0  0  0  0  0  0  0  0  0  0  0
   22.1896  -10.8995  -17.6299 O   0  0  0  0  0  0  0  0  0  0  0  0
   21.8580  -12.1940  -18.0810 C   0  0  0  0  0  0  0  0  0  0  0  0
   20.7308  -12.6478  -17.1674 C   0  0  2  0  0  0  0  0  0  0  0  0
   20.3839  -14.0142  -17.4734 N   0  0  0  0  0  0  0  0  0  0  0  0
   19.5320  -11.7577  -17.3530 C   0  0  0  0  0  0  0  0  0  0  0  0
   18.7879  -11.9540  -18.3516 O   0  0  0  0  0  0  0  0  0  0  0  0
   19.1930  -10.7132  -16.4686 N   0  0  0  0  0  0  0  0  0  0  0  0
   18.0485   -9.8556  -16.6067 C   0  0  1  0  0  0  0  0  0  0  0  0
   17.6284   -9.2246  -15.2943 C   0  0  0  0  0  0  0  0  0  0  0  0
   16.3631   -8.4085  -15.4619 C   0  0  0  0  0  0  0  0  0  0  0  0
   16.0489   -7.6981  -14.2057 C   0  0  0  0  0  0  0  0  0  0  0  0
   15.4060   -6.6269  -14.1288 O   0  0  0  0  0  0  0  0  0  0  0  0
   18.2371   -8.8272  -17.6708 C   0  0  0  0  0  0  0  0  0  0  0  0
   19.3882   -8.4997  -18.0194 O   0  0  0  0  0  0  0  0  0  0  0  0
   16.5172   -8.2873  -13.0238 O   0  0  0  0  0  0  0  0  0  0  0  0
   17.1596   -8.2041  -18.3044 O   0  0  0  0  0  0  0  0  0  0  0  0
  2  1  1  1
  3  2  1  0
  4  3  1  0
  5  6  1  0
  5  4  1  0
  6  7  1  0
  8  2  1  0
  8  9  2  0
 10 11  1  0
 12 11  1  6
 12 13  1  0
 13  8  1  0
 14 12  1  0
 15 14  2  0
 16 14  1  0
 17 22  1  0
 17 16  1  0
 17 18  1  1
 19 18  1  0
 20 21  2  0
 20 19  1  0
 22 25  1  0
 23 22  2  0
 24 20  1  0
M  END
$$$$
