KSE.pdb
     RDKit          3D

 25 24  0  0  1  0  0  0  0  0999 V2000
   17.0476  -14.1829  -15.9695 N   0  0  0  0  0  0  0  0  0  0  0  0
   17.1470  -12.8050  -16.5270 C   0  0  1  0  0  0  0  0  0  0  0  0
   15.9391  -12.0960  -15.9299 C   0  0  0  0  0  0  0  0  0  0  0  0
   14.6419  -12.4385  -16.5604 C   0  0  0  0  0  0  0  0  0  0  0  0
   13.4423  -11.6967  -16.0602 C   0  0  0  0  0  0  0  0  0  0  0  0
   12.1441  -11.9809  -16.7327 C   0  0  0  0  0  0  0  0  0  0  0  0
   10.9892  -11.3521  -16.1355 N   0  0  0  0  0  0  0  0  0  0  0  0
   18.3760  -12.1715  -15.9327 C   0  0  0  0  0  0  0  0  0  0  0  0
   18.6038  -12.3719  -14.7240 O   0  0  0  0  0  0  0  0  0  0  0  0
   21.2060  -11.4036  -18.3593 O   0  0  0  0  0  0  0  0  0  0  0  0
   21.6360  -11.4531  -17.0169 C   0  0  0  0  0  0  0  0  0  0  0  0
   20.4823  -10.8699  -16.2169 C   0  0  2  0  0  0  0  0  0  0  0  0
   19.2341  -11.3750  -16.7344 N   0  0  0  0  0  0  0  0  0  0  0  0
   20.5067   -9.3681  -16.3043 C   0  0  0  0  0  0  0  0  0  0  0  0
   19.7332   -8.8022  -17.1234 O   0  0  0  0  0  0  0  0  0  0  0  0
   21.3489   -8.5557  -15.5177 N   0  0  0  0  0  0  0  0  0  0  0  0
   21.4998   -7.1349  -15.6699 C   0  0  1  0  0  0  0  0  0  0  0  0
   21.8014   -6.4349  -14.3599 C   0  0  0  0  0  0  0  0  0  0  0  0
   21.9927   -4.9466  -14.5684 C   0  0  0  0  0  0  0  0  0  0  0  0
   22.3444   -4.2975  -13.2892 C   0  0  0  0  0  0  0  0  0  0  0  0
   22.4873   -3.0647  -13.1256 O   0  0  0  0  0  0  0  0  0  0  0  0
   22.4985   -6.7812  -16.7201 C   0  0  0  0  0  0  0  0  0  0  0  0
   23.4952   -7.5084  -16.8979 O   0  0  0  0  0  0  0  0  0  0  0  0
   22.5271   -5.1469  -12.1899 O   0  0  0  0  0  0  0  0  0  0  0  0
   22.3623   -5.6493  -17.5270 O   0  0  0  0  0  0  0  0  0  0  0  0
  2  1  1  1
  3  2  1  0
  4  3  1  0
  5  6  1  0
  5  4  1  0
  6  7  1  0
  8  2  1  0
  8  9  2  0
 10 11  1  0
 12 11  1  6
 12 13  1  0
 13  8  1  0
 14 12  1  0
 15 14  2  0
 16 14  1  0
 17 22  1  0
 17 16  1  0
 17 18  1  1
 19 18  1  0
 20 21  2  0
 20 19  1  0
 22 25  1  0
 23 22  2  0
 24 20  1  0
M  END
$$$$
