KSE.pdb
     RDKit          3D

 25 24  0  0  1  0  0  0  0  0999 V2000
   15.5074  -13.1094  -17.7399 N   0  0  0  0  0  0  0  0  0  0  0  0
   16.0093  -12.3886  -16.5365 C   0  0  1  0  0  0  0  0  0  0  0  0
   17.4496  -12.8670  -16.4153 C   0  0  0  0  0  0  0  0  0  0  0  0
   17.6023  -14.2891  -16.0254 C   0  0  0  0  0  0  0  0  0  0  0  0
   18.9825  -14.7330  -15.6543 C   0  0  0  0  0  0  0  0  0  0  0  0
   19.1235  -16.1097  -15.1039 C   0  0  0  0  0  0  0  0  0  0  0  0
   20.4642  -16.4868  -14.7211 N   0  0  0  0  0  0  0  0  0  0  0  0
   16.0521  -10.9240  -16.8800 C   0  0  0  0  0  0  0  0  0  0  0  0
   16.3466  -10.6122  -18.0500 O   0  0  0  0  0  0  0  0  0  0  0  0
   14.4528   -6.6618  -16.5774 O   0  0  0  0  0  0  0  0  0  0  0  0
   14.3636   -7.9833  -16.0926 C   0  0  0  0  0  0  0  0  0  0  0  0
   15.7737   -8.5385  -16.2141 C   0  0  2  0  0  0  0  0  0  0  0  0
   15.7662   -9.9450  -15.8934 N   0  0  0  0  0  0  0  0  0  0  0  0
   16.6957   -7.8019  -15.2809 C   0  0  0  0  0  0  0  0  0  0  0  0
   16.7051   -8.1302  -14.0637 O   0  0  0  0  0  0  0  0  0  0  0  0
   17.5534   -6.7616  -15.6937 N   0  0  0  0  0  0  0  0  0  0  0  0
   18.4069   -6.0027  -14.8219 C   0  0  1  0  0  0  0  0  0  0  0  0
   19.8729   -6.3471  -14.9931 C   0  0  0  0  0  0  0  0  0  0  0  0
   20.7354   -5.5519  -14.0344 C   0  0  0  0  0  0  0  0  0  0  0  0
   22.1604   -5.8766  -14.2474 C   0  0  0  0  0  0  0  0  0  0  0  0
   22.5866   -6.7580  -15.0273 O   0  0  0  0  0  0  0  0  0  0  0  0
   18.1741   -4.5339  -14.9400 C   0  0  0  0  0  0  0  0  0  0  0  0
   17.7731   -4.0545  -16.0185 O   0  0  0  0  0  0  0  0  0  0  0  0
   23.0863   -5.1281  -13.5086 O   0  0  0  0  0  0  0  0  0  0  0  0
   18.3905   -3.6570  -13.8746 O   0  0  0  0  0  0  0  0  0  0  0  0
  2  1  1  6
  3  2  1  0
  4  3  1  0
  5  6  1  0
  5  4  1  0
  6  7  1  0
  8  2  1  0
  8  9  2  0
 10 11  1  0
 12 11  1  1
 12 13  1  0
 13  8  1  0
 14 12  1  0
 15 14  2  0
 16 14  1  0
 17 22  1  0
 17 16  1  0
 17 18  1  6
 19 18  1  0
 20 21  2  0
 20 19  1  0
 22 25  1  0
 23 22  2  0
 24 20  1  0
M  END
$$$$
