KSE.pdb
     RDKit          3D

 25 24  0  0  1  0  0  0  0  0999 V2000
   20.2619  -26.0291  -12.6187 N   0  0  0  0  0  0  0  0  0  0  0  0
   19.6235  -26.9835  -11.6695 C   0  0  1  0  0  0  0  0  0  0  0  0
   20.5976  -28.1533  -11.6385 C   0  0  0  0  0  0  0  0  0  0  0  0
   20.7402  -28.8786  -12.9235 C   0  0  0  0  0  0  0  0  0  0  0  0
   19.5532  -29.6693  -13.3768 C   0  0  0  0  0  0  0  0  0  0  0  0
   19.7053  -30.4547  -14.6332 C   0  0  0  0  0  0  0  0  0  0  0  0
   18.5465  -31.2228  -15.0247 N   0  0  0  0  0  0  0  0  0  0  0  0
   19.6506  -26.3430  -10.3079 C   0  0  0  0  0  0  0  0  0  0  0  0
   20.2439  -26.9490   -9.3949 O   0  0  0  0  0  0  0  0  0  0  0  0
   17.4797  -23.0112   -9.7159 O   0  0  0  0  0  0  0  0  0  0  0  0
   18.6526  -22.9982   -8.9327 C   0  0  0  0  0  0  0  0  0  0  0  0
   19.0427  -24.4608   -8.7917 C   0  0  2  0  0  0  0  0  0  0  0  0
   19.0161  -25.0930  -10.0881 N   0  0  0  0  0  0  0  0  0  0  0  0
   18.0891  -25.1570   -7.8590 C   0  0  0  0  0  0  0  0  0  0  0  0
   17.0126  -25.6121   -8.3315 O   0  0  0  0  0  0  0  0  0  0  0  0
   18.3340  -25.3300   -6.4812 N   0  0  0  0  0  0  0  0  0  0  0  0
   17.3983  -25.8823   -5.5412 C   0  0  1  0  0  0  0  0  0  0  0  0
   18.0750  -26.4732   -4.3205 C   0  0  0  0  0  0  0  0  0  0  0  0
   17.0635  -27.1169   -3.3943 C   0  0  0  0  0  0  0  0  0  0  0  0
   17.7458  -27.6745   -2.2090 C   0  0  0  0  0  0  0  0  0  0  0  0
   18.3222  -26.9972   -1.3281 O   0  0  0  0  0  0  0  0  0  0  0  0
   16.3378  -24.9055   -5.1579 C   0  0  0  0  0  0  0  0  0  0  0  0
   16.5903  -23.6849   -5.1573 O   0  0  0  0  0  0  0  0  0  0  0  0
   17.7339  -29.0700   -2.0832 O   0  0  0  0  0  0  0  0  0  0  0  0
   15.0511  -25.3076   -4.7927 O   0  0  0  0  0  0  0  0  0  0  0  0
  2  1  1  6
  3  2  1  0
  4  3  1  0
  5  6  1  0
  5  4  1  0
  6  7  1  0
  8  2  1  0
  8  9  2  0
 10 11  1  0
 12 11  1  6
 12 13  1  0
 13  8  1  0
 14 12  1  0
 15 14  2  0
 16 14  1  0
 17 22  1  0
 17 16  1  0
 17 18  1  1
 19 18  1  0
 20 21  2  0
 20 19  1  0
 22 25  1  0
 23 22  2  0
 24 20  1  0
M  END
$$$$
