KSE.pdb
     RDKit          3D

 25 24  0  0  1  0  0  0  0  0999 V2000
   15.6725  -12.0915  -17.4079 N   0  0  0  0  0  0  0  0  0  0  0  0
   14.9293  -10.8014  -17.4596 C   0  0  1  0  0  0  0  0  0  0  0  0
   14.3392  -10.6791  -16.0614 C   0  0  0  0  0  0  0  0  0  0  0  0
   13.3251  -11.7057  -15.7218 C   0  0  0  0  0  0  0  0  0  0  0  0
   12.7964  -11.6815  -14.3220 C   0  0  0  0  0  0  0  0  0  0  0  0
   11.8033  -12.7299  -13.9574 C   0  0  0  0  0  0  0  0  0  0  0  0
   11.4185  -12.7579  -12.5656 N   0  0  0  0  0  0  0  0  0  0  0  0
   15.9493   -9.7053  -17.6118 C   0  0  0  0  0  0  0  0  0  0  0  0
   17.1425   -9.9906  -17.3934 O   0  0  0  0  0  0  0  0  0  0  0  0
   14.7215   -5.9287  -18.5320 O   0  0  0  0  0  0  0  0  0  0  0  0
   15.9019   -6.3279  -19.1928 C   0  0  0  0  0  0  0  0  0  0  0  0
   16.5232   -7.3744  -18.2818 C   0  0  2  0  0  0  0  0  0  0  0  0
   15.5489   -8.3975  -17.9898 N   0  0  0  0  0  0  0  0  0  0  0  0
   16.9911   -6.7290  -17.0057 C   0  0  0  0  0  0  0  0  0  0  0  0
   16.1479   -6.5296  -16.0900 O   0  0  0  0  0  0  0  0  0  0  0  0
   18.3251   -6.3343  -16.7762 N   0  0  0  0  0  0  0  0  0  0  0  0
   18.7951   -5.6676  -15.5934 C   0  0  1  0  0  0  0  0  0  0  0  0
   20.1773   -6.1259  -15.1734 C   0  0  0  0  0  0  0  0  0  0  0  0
   20.1563   -7.5683  -14.7106 C   0  0  0  0  0  0  0  0  0  0  0  0
   21.5282   -8.0216  -14.4042 C   0  0  0  0  0  0  0  0  0  0  0  0
   22.4225   -8.2277  -15.2554 O   0  0  0  0  0  0  0  0  0  0  0  0
   18.7267   -4.1823  -15.7161 C   0  0  0  0  0  0  0  0  0  0  0  0
   18.7408   -3.6522  -16.8442 O   0  0  0  0  0  0  0  0  0  0  0  0
   21.8271   -8.2302  -13.0513 O   0  0  0  0  0  0  0  0  0  0  0  0
   18.6465   -3.3453  -14.6009 O   0  0  0  0  0  0  0  0  0  0  0  0
  2  1  1  1
  3  2  1  0
  4  3  1  0
  5  6  1  0
  5  4  1  0
  6  7  1  0
  8  2  1  0
  8  9  2  0
 10 11  1  0
 12 11  1  6
 12 13  1  0
 13  8  1  0
 14 12  1  0
 15 14  2  0
 16 14  1  0
 17 22  1  0
 17 16  1  0
 17 18  1  6
 19 18  1  0
 20 21  2  0
 20 19  1  0
 22 25  1  0
 23 22  2  0
 24 20  1  0
M  END
$$$$
