KSE.pdb
     RDKit          3D

 25 24  0  0  1  0  0  0  0  0999 V2000
   20.0942  -12.6506  -17.9799 N   0  0  0  0  0  0  0  0  0  0  0  0
   19.6695  -11.2854  -17.5612 C   0  0  1  0  0  0  0  0  0  0  0  0
   18.2520  -11.4999  -17.0485 C   0  0  0  0  0  0  0  0  0  0  0  0
   17.2427  -11.7648  -18.1014 C   0  0  0  0  0  0  0  0  0  0  0  0
   15.8234  -11.8953  -17.6451 C   0  0  0  0  0  0  0  0  0  0  0  0
   14.8043  -12.1987  -18.6881 C   0  0  0  0  0  0  0  0  0  0  0  0
   13.4368  -12.2289  -18.2243 N   0  0  0  0  0  0  0  0  0  0  0  0
   20.5180  -10.8973  -16.3804 C   0  0  0  0  0  0  0  0  0  0  0  0
   21.2963  -11.7548  -15.9200 O   0  0  0  0  0  0  0  0  0  0  0  0
   22.7811   -8.2912  -16.3134 O   0  0  0  0  0  0  0  0  0  0  0  0
   22.7392   -9.2093  -15.2436 C   0  0  0  0  0  0  0  0  0  0  0  0
   21.2992   -9.1749  -14.7573 C   0  0  2  0  0  0  0  0  0  0  0  0
   20.4216   -9.5965  -15.8219 N   0  0  0  0  0  0  0  0  0  0  0  0
   20.9415   -7.7818  -14.3155 C   0  0  0  0  0  0  0  0  0  0  0  0
   20.7059   -6.9141  -15.1992 O   0  0  0  0  0  0  0  0  0  0  0  0
   20.8542   -7.3919  -12.9633 N   0  0  0  0  0  0  0  0  0  0  0  0
   20.3269   -6.1382  -12.4999 C   0  0  1  0  0  0  0  0  0  0  0  0
   19.5301   -6.2766  -11.2181 C   0  0  0  0  0  0  0  0  0  0  0  0
   18.9511   -4.9439  -10.7893 C   0  0  0  0  0  0  0  0  0  0  0  0
   18.1906   -5.1031   -9.5333 C   0  0  0  0  0  0  0  0  0  0  0  0
   16.9444   -5.0379   -9.4359 O   0  0  0  0  0  0  0  0  0  0  0  0
   21.3827   -5.0915  -12.3757 C   0  0  0  0  0  0  0  0  0  0  0  0
   21.0637   -3.8866  -12.3723 O   0  0  0  0  0  0  0  0  0  0  0  0
   18.9435   -5.3440   -8.3763 O   0  0  0  0  0  0  0  0  0  0  0  0
   22.7378   -5.4098  -12.2614 O   0  0  0  0  0  0  0  0  0  0  0  0
  2  1  1  1
  3  2  1  0
  4  3  1  0
  5  6  1  0
  5  4  1  0
  6  7  1  0
  8  2  1  0
  8  9  2  0
 10 11  1  0
 12 11  1  6
 12 13  1  0
 13  8  1  0
 14 12  1  0
 15 14  2  0
 16 14  1  0
 17 22  1  0
 17 16  1  0
 17 18  1  1
 19 18  1  0
 20 21  2  0
 20 19  1  0
 22 25  1  0
 23 22  2  0
 24 20  1  0
M  END
$$$$
