KSE.pdb
     RDKit          3D

 25 24  0  0  1  0  0  0  0  0999 V2000
   27.7094  -19.1695  -15.8649 N   0  0  0  0  0  0  0  0  0  0  0  0
   26.3424  -18.6788  -16.1964 C   0  0  1  0  0  0  0  0  0  0  0  0
   26.2936  -18.7730  -17.7153 C   0  0  0  0  0  0  0  0  0  0  0  0
   27.0604  -17.7239  -18.4288 C   0  0  0  0  0  0  0  0  0  0  0  0
   28.4628  -18.0727  -18.8176 C   0  0  0  0  0  0  0  0  0  0  0  0
   29.2460  -17.0253  -19.5301 C   0  0  0  0  0  0  0  0  0  0  0  0
   30.5598  -17.4310  -19.9720 N   0  0  0  0  0  0  0  0  0  0  0  0
   25.3639  -19.6857  -15.6545 C   0  0  0  0  0  0  0  0  0  0  0  0
   24.2402  -19.7470  -16.1898 O   0  0  0  0  0  0  0  0  0  0  0  0
   25.9757  -21.5186  -12.0498 O   0  0  0  0  0  0  0  0  0  0  0  0
   25.5275  -22.4023  -13.0535 C   0  0  0  0  0  0  0  0  0  0  0  0
   24.8079  -21.5173  -14.0585 C   0  0  2  0  0  0  0  0  0  0  0  0
   25.7238  -20.5270  -14.5701 N   0  0  0  0  0  0  0  0  0  0  0  0
   23.6354  -20.8432  -13.3991 C   0  0  0  0  0  0  0  0  0  0  0  0
   23.8550  -19.8485  -12.6563 O   0  0  0  0  0  0  0  0  0  0  0  0
   22.2999  -21.2632  -13.5673 N   0  0  0  0  0  0  0  0  0  0  0  0
   21.1483  -20.5710  -13.0582 C   0  0  1  0  0  0  0  0  0  0  0  0
   20.9633  -19.2034  -13.6848 C   0  0  0  0  0  0  0  0  0  0  0  0
   20.8212  -19.3077  -15.1894 C   0  0  0  0  0  0  0  0  0  0  0  0
   20.7263  -17.9588  -15.7835 C   0  0  0  0  0  0  0  0  0  0  0  0
   19.8341  -17.1208  -15.5219 O   0  0  0  0  0  0  0  0  0  0  0  0
   19.9055  -21.3899  -13.1591 C   0  0  0  0  0  0  0  0  0  0  0  0
   19.9241  -22.4711  -13.7791 O   0  0  0  0  0  0  0  0  0  0  0  0
   21.7218  -17.6144  -16.7076 O   0  0  0  0  0  0  0  0  0  0  0  0
   18.7000  -20.9896  -12.5782 O   0  0  0  0  0  0  0  0  0  0  0  0
  2  1  1  1
  3  2  1  0
  4  3  1  0
  5  6  1  0
  5  4  1  0
  6  7  1  0
  8  2  1  0
  8  9  2  0
 10 11  1  0
 12 11  1  1
 12 13  1  0
 13  8  1  0
 14 12  1  0
 15 14  2  0
 16 14  1  0
 17 22  1  0
 17 16  1  0
 17 18  1  6
 19 18  1  0
 20 21  2  0
 20 19  1  0
 22 25  1  0
 23 22  2  0
 24 20  1  0
M  END
$$$$
