KSE.pdb
     RDKit          3D

 25 24  0  0  1  0  0  0  0  0999 V2000
   23.8479  -12.1053  -20.3043 N   0  0  0  0  0  0  0  0  0  0  0  0
   24.6100  -10.9973  -19.6633 C   0  0  1  0  0  0  0  0  0  0  0  0
   24.8684  -10.0357  -20.8150 C   0  0  0  0  0  0  0  0  0  0  0  0
   25.6938  -10.5895  -21.9149 C   0  0  0  0  0  0  0  0  0  0  0  0
   27.1402  -10.2053  -21.9201 C   0  0  0  0  0  0  0  0  0  0  0  0
   27.9493  -10.6383  -23.0931 C   0  0  0  0  0  0  0  0  0  0  0  0
   29.3405  -10.2515  -23.0596 N   0  0  0  0  0  0  0  0  0  0  0  0
   23.6745  -10.3080  -18.7069 C   0  0  0  0  0  0  0  0  0  0  0  0
   22.4796  -10.1988  -19.0434 O   0  0  0  0  0  0  0  0  0  0  0  0
   24.7776   -9.8332  -14.9357 O   0  0  0  0  0  0  0  0  0  0  0  0
   23.3908   -9.7365  -15.1742 C   0  0  0  0  0  0  0  0  0  0  0  0
   23.2760   -9.1135  -16.5562 C   0  0  2  0  0  0  0  0  0  0  0  0
   24.1531   -9.8042  -17.4697 N   0  0  0  0  0  0  0  0  0  0  0  0
   23.6427   -7.6556  -16.4922 C   0  0  0  0  0  0  0  0  0  0  0  0
   24.8623   -7.3469  -16.4104 O   0  0  0  0  0  0  0  0  0  0  0  0
   22.6949   -6.6122  -16.5197 N   0  0  0  0  0  0  0  0  0  0  0  0
   23.0063   -5.2134  -16.4145 C   0  0  1  0  0  0  0  0  0  0  0  0
   22.0861   -4.3448  -17.2487 C   0  0  0  0  0  0  0  0  0  0  0  0
   22.4315   -2.8780  -17.0932 C   0  0  0  0  0  0  0  0  0  0  0  0
   21.5062   -2.0523  -17.8953 C   0  0  0  0  0  0  0  0  0  0  0  0
   20.6319   -2.5016  -18.6702 O   0  0  0  0  0  0  0  0  0  0  0  0
   23.0575   -4.7501  -14.9974 C   0  0  0  0  0  0  0  0  0  0  0  0
   22.3386   -5.2986  -14.1394 O   0  0  0  0  0  0  0  0  0  0  0  0
   21.6367   -0.6636  -17.7622 O   0  0  0  0  0  0  0  0  0  0  0  0
   23.8914   -3.7089  -14.5834 O   0  0  0  0  0  0  0  0  0  0  0  0
  2  1  1  6
  3  2  1  0
  4  3  1  0
  5  6  1  0
  5  4  1  0
  6  7  1  0
  8  2  1  0
  8  9  2  0
 10 11  1  0
 12 11  1  1
 12 13  1  0
 13  8  1  0
 14 12  1  0
 15 14  2  0
 16 14  1  0
 17 22  1  0
 17 16  1  0
 17 18  1  6
 19 18  1  0
 20 21  2  0
 20 19  1  0
 22 25  1  0
 23 22  2  0
 24 20  1  0
M  END
$$$$
