KSE.pdb
     RDKit          3D

 25 24  0  0  1  0  0  0  0  0999 V2000
   19.2875  -12.2779  -17.8076 N   0  0  0  0  0  0  0  0  0  0  0  0
   18.9996  -10.8274  -17.9880 C   0  0  1  0  0  0  0  0  0  0  0  0
   17.5350  -10.8086  -18.4037 C   0  0  0  0  0  0  0  0  0  0  0  0
   17.2704  -11.3096  -19.7735 C   0  0  0  0  0  0  0  0  0  0  0  0
   16.4422  -12.5516  -19.8795 C   0  0  0  0  0  0  0  0  0  0  0  0
   16.0032  -12.9556  -21.2442 C   0  0  0  0  0  0  0  0  0  0  0  0
   15.5986  -14.3356  -21.3789 N   0  0  0  0  0  0  0  0  0  0  0  0
   19.0873  -10.1836  -16.6305 C   0  0  0  0  0  0  0  0  0  0  0  0
   18.5203  -10.7567  -15.6802 O   0  0  0  0  0  0  0  0  0  0  0  0
   21.9742   -9.3398  -14.7211 O   0  0  0  0  0  0  0  0  0  0  0  0
   20.6565   -9.2952  -14.2200 C   0  0  0  0  0  0  0  0  0  0  0  0
   19.9158   -8.3533  -15.1557 C   0  0  2  0  0  0  0  0  0  0  0  0
   19.7934   -8.9652  -16.4564 N   0  0  0  0  0  0  0  0  0  0  0  0
   20.6615   -7.0512  -15.2666 C   0  0  0  0  0  0  0  0  0  0  0  0
   21.6777   -7.0034  -16.0112 O   0  0  0  0  0  0  0  0  0  0  0  0
   20.2851   -5.8774  -14.5822 N   0  0  0  0  0  0  0  0  0  0  0  0
   20.9835   -4.6236  -14.6513 C   0  0  1  0  0  0  0  0  0  0  0  0
   20.1056   -3.4438  -14.2847 C   0  0  0  0  0  0  0  0  0  0  0  0
   18.9130   -3.3422  -15.2134 C   0  0  0  0  0  0  0  0  0  0  0  0
   18.0629   -2.1995  -14.8222 C   0  0  0  0  0  0  0  0  0  0  0  0
   18.4394   -1.0065  -14.7800 O   0  0  0  0  0  0  0  0  0  0  0  0
   22.2446   -4.6338  -13.8542 C   0  0  0  0  0  0  0  0  0  0  0  0
   23.0220   -3.6611  -13.9114 O   0  0  0  0  0  0  0  0  0  0  0  0
   16.7386   -2.4990  -14.4759 O   0  0  0  0  0  0  0  0  0  0  0  0
   22.5978   -5.7061  -13.0319 O   0  0  0  0  0  0  0  0  0  0  0  0
  2  1  1  1
  3  2  1  0
  4  3  1  0
  5  6  1  0
  5  4  1  0
  6  7  1  0
  8  2  1  0
  8  9  2  0
 10 11  1  0
 12 11  1  1
 12 13  1  0
 13  8  1  0
 14 12  1  0
 15 14  2  0
 16 14  1  0
 17 22  1  0
 17 16  1  0
 17 18  1  1
 19 18  1  0
 20 21  2  0
 20 19  1  0
 22 25  1  0
 23 22  2  0
 24 20  1  0
M  END
$$$$
