KSE.pdb
     RDKit          3D

 25 24  0  0  1  0  0  0  0  0999 V2000
   27.8048  -21.3907  -16.2884 N   0  0  0  0  0  0  0  0  0  0  0  0
   27.6257  -20.5038  -15.1048 C   0  0  1  0  0  0  0  0  0  0  0  0
   27.1818  -19.1832  -15.7189 C   0  0  0  0  0  0  0  0  0  0  0  0
   27.6568  -18.9499  -17.1036 C   0  0  0  0  0  0  0  0  0  0  0  0
   29.1340  -18.7896  -17.2825 C   0  0  0  0  0  0  0  0  0  0  0  0
   29.6131  -18.4234  -18.6443 C   0  0  0  0  0  0  0  0  0  0  0  0
   31.0396  -18.5281  -18.8453 N   0  0  0  0  0  0  0  0  0  0  0  0
   26.4631  -21.0431  -14.3159 C   0  0  0  0  0  0  0  0  0  0  0  0
   25.5354  -21.5839  -14.9483 O   0  0  0  0  0  0  0  0  0  0  0  0
   25.7508  -19.8398  -10.4652 O   0  0  0  0  0  0  0  0  0  0  0  0
   25.5989  -21.2295  -10.6523 C   0  0  0  0  0  0  0  0  0  0  0  0
   25.3079  -21.3932  -12.1354 C   0  0  2  0  0  0  0  0  0  0  0  0
   26.4391  -20.9299  -12.9016 N   0  0  0  0  0  0  0  0  0  0  0  0
   24.0786  -20.6084  -12.5052 C   0  0  0  0  0  0  0  0  0  0  0  0
   24.2242  -19.4314  -12.9327 O   0  0  0  0  0  0  0  0  0  0  0  0
   22.7683  -21.1185  -12.4005 N   0  0  0  0  0  0  0  0  0  0  0  0
   21.6103  -20.5514  -13.0346 C   0  0  1  0  0  0  0  0  0  0  0  0
   21.7385  -20.4946  -14.5437 C   0  0  0  0  0  0  0  0  0  0  0  0
   20.5160  -19.8569  -15.1712 C   0  0  0  0  0  0  0  0  0  0  0  0
   20.6507  -19.8435  -16.6420 C   0  0  0  0  0  0  0  0  0  0  0  0
   21.6760  -19.4870  -17.2653 O   0  0  0  0  0  0  0  0  0  0  0  0
   20.3484  -21.2302  -12.6194 C   0  0  0  0  0  0  0  0  0  0  0  0
   19.3066  -20.5629  -12.4675 O   0  0  0  0  0  0  0  0  0  0  0  0
   19.5325  -20.2658  -17.3732 O   0  0  0  0  0  0  0  0  0  0  0  0
   20.2833  -22.6063  -12.3892 O   0  0  0  0  0  0  0  0  0  0  0  0
  2  1  1  6
  3  2  1  0
  4  3  1  0
  5  6  1  0
  5  4  1  0
  6  7  1  0
  8  2  1  0
  8  9  2  0
 10 11  1  0
 12 11  1  1
 12 13  1  0
 13  8  1  0
 14 12  1  0
 15 14  2  0
 16 14  1  0
 17 22  1  0
 17 16  1  0
 17 18  1  6
 19 18  1  0
 20 21  2  0
 20 19  1  0
 22 25  1  0
 23 22  2  0
 24 20  1  0
M  END
$$$$
