SEW.pdb
     RDKit          3D

 30 31  0  0  1  0  0  0  0  0999 V2000
   28.1258  -19.9671  -17.1103 O   0  0  0  0  0  0  0  0  0  0  0  0
   28.5560  -19.2334  -15.9997 C   0  0  0  0  0  0  0  0  0  0  0  0
   28.5350  -20.0711  -14.7655 C   0  0  2  0  0  0  0  0  0  0  0  0
   28.1212  -21.4143  -15.1688 N   0  0  0  0  0  0  0  0  0  0  0  0
   27.6031  -19.5098  -13.7710 C   0  0  0  0  0  0  0  0  0  0  0  0
   27.0591  -18.3865  -14.0744 O   0  0  0  0  0  0  0  0  0  0  0  0
   27.3293  -20.1928  -12.5561 N   0  0  0  0  0  0  0  0  0  0  0  0
   25.9982  -20.4001  -12.1153 C   0  0  1  0  0  0  0  0  0  0  0  0
   24.9934  -20.9175  -13.0483 C   0  0  0  0  0  0  0  0  0  0  0  0
   23.5989  -21.0641  -12.5570 C   0  0  0  0  0  0  0  0  0  0  0  0
   22.5987  -20.1500  -13.0743 C   0  0  0  0  0  0  0  0  0  0  0  0
   22.8020  -19.5579  -14.1802 O   0  0  0  0  0  0  0  0  0  0  0  0
   26.0051  -21.0092  -10.7548 C   0  0  0  0  0  0  0  0  0  0  0  0
   26.3029  -22.2134  -10.5764 O   0  0  0  0  0  0  0  0  0  0  0  0
   21.4150  -19.8790  -12.4189 O   0  0  0  0  0  0  0  0  0  0  0  0
   25.6843  -20.3022   -9.5694 N   0  0  0  0  0  0  0  0  0  0  0  0
   25.6473  -20.8954   -8.2490 C   0  0  1  0  0  0  0  0  0  0  0  0
   25.5223  -19.8859   -7.1596 C   0  0  0  0  0  0  0  0  0  0  0  0
   26.8665  -19.3485   -6.8387 C   0  0  0  0  0  0  0  0  0  0  0  0
   27.5379  -18.2514   -7.3780 C   0  0  0  0  0  0  0  0  0  0  0  0
   28.7362  -18.1051   -6.8222 N   0  0  0  0  0  0  0  0  0  0  0  0
   28.9096  -19.0720   -5.9138 C   0  0  0  0  0  0  0  0  0  0  0  0
   29.9526  -19.3847   -5.0630 C   0  0  0  0  0  0  0  0  0  0  0  0
   29.8507  -20.4560   -4.2250 C   0  0  0  0  0  0  0  0  0  0  0  0
   28.7181  -21.2232   -4.2237 C   0  0  0  0  0  0  0  0  0  0  0  0
   27.6582  -20.9398   -5.0595 C   0  0  0  0  0  0  0  0  0  0  0  0
   27.7749  -19.8549   -5.9003 C   0  0  0  0  0  0  0  0  0  0  0  0
   24.5095  -21.8210   -8.1907 C   0  0  0  0  0  0  0  0  0  0  0  0
   23.5938  -21.7464   -9.0329 O   0  0  0  0  0  0  0  0  0  0  0  0
   24.4475  -22.7781   -7.2036 O   0  0  0  0  0  0  0  0  0  0  0  0
  1  2  1  0
  3  2  1  0
  3  5  1  0
  3  4  1  6
  5  6  2  0
  7  5  1  0
  7  8  1  0
  8  9  1  6
  9 10  1  0
 10 11  1  0
 11 12  2  0
 11 15  1  0
 13  8  1  0
 13 14  2  0
 16 13  1  0
 17 16  1  0
 17 18  1  1
 19 18  1  0
 19 27  1  0
 20 21  1  0
 20 19  2  0
 21 22  1  0
 22 23  1  0
 22 27  2  0
 23 24  2  0
 24 25  1  0
 26 25  2  0
 27 26  1  0
 28 17  1  0
 29 28  2  0
 30 28  1  0
M  END
$$$$
