SEW.pdb
     RDKit          3D

 30 31  0  0  1  0  0  0  0  0999 V2000
   30.3963  -23.3633  -15.4621 O   0  0  0  0  0  0  0  0  0  0  0  0
   29.3784  -22.4063  -15.5322 C   0  0  0  0  0  0  0  0  0  0  0  0
   28.4480  -22.6981  -16.6612 C   0  0  2  0  0  0  0  0  0  0  0  0
   28.9739  -22.0058  -17.8369 N   0  0  0  0  0  0  0  0  0  0  0  0
   27.0844  -22.2364  -16.3449 C   0  0  0  0  0  0  0  0  0  0  0  0
   26.7312  -21.1152  -16.8626 O   0  0  0  0  0  0  0  0  0  0  0  0
   26.2229  -23.0070  -15.5196 N   0  0  0  0  0  0  0  0  0  0  0  0
   24.8887  -22.5990  -15.2695 C   0  0  1  0  0  0  0  0  0  0  0  0
   23.7840  -23.2349  -15.9928 C   0  0  0  0  0  0  0  0  0  0  0  0
   22.6722  -22.3693  -16.4640 C   0  0  0  0  0  0  0  0  0  0  0  0
   21.3171  -22.7668  -16.1333 C   0  0  0  0  0  0  0  0  0  0  0  0
   20.9684  -22.8528  -14.9143 O   0  0  0  0  0  0  0  0  0  0  0  0
   24.6863  -22.4009  -13.8060 C   0  0  0  0  0  0  0  0  0  0  0  0
   24.8442  -23.3380  -12.9889 O   0  0  0  0  0  0  0  0  0  0  0  0
   20.3656  -23.0658  -17.0869 O   0  0  0  0  0  0  0  0  0  0  0  0
   24.3071  -21.1682  -13.2190 N   0  0  0  0  0  0  0  0  0  0  0  0
   24.0300  -20.9855  -11.8096 C   0  0  1  0  0  0  0  0  0  0  0  0
   24.7943  -19.8569  -11.2067 C   0  0  0  0  0  0  0  0  0  0  0  0
   26.2006  -20.2787  -10.9989 C   0  0  0  0  0  0  0  0  0  0  0  0
   27.1637  -20.6556  -11.9346 C   0  0  0  0  0  0  0  0  0  0  0  0
   28.3089  -20.9725  -11.3393 N   0  0  0  0  0  0  0  0  0  0  0  0
   28.1616  -20.8244  -10.0177 C   0  0  0  0  0  0  0  0  0  0  0  0
   29.0184  -21.0150   -8.9504 C   0  0  0  0  0  0  0  0  0  0  0  0
   28.5850  -20.7814   -7.6784 C   0  0  0  0  0  0  0  0  0  0  0  0
   27.3034  -20.3586   -7.4551 C   0  0  0  0  0  0  0  0  0  0  0  0
   26.4218  -20.1582   -8.4967 C   0  0  0  0  0  0  0  0  0  0  0  0
   26.8732  -20.3978   -9.7759 C   0  0  0  0  0  0  0  0  0  0  0  0
   22.5913  -20.7421  -11.6499 C   0  0  0  0  0  0  0  0  0  0  0  0
   22.0869  -20.6755  -10.5120 O   0  0  0  0  0  0  0  0  0  0  0  0
   21.7898  -20.5859  -12.7578 O   0  0  0  0  0  0  0  0  0  0  0  0
  1  2  1  0
  3  2  1  0
  3  5  1  0
  3  4  1  6
  5  6  2  0
  7  5  1  0
  7  8  1  0
  8  9  1  1
  9 10  1  0
 10 11  1  0
 11 12  2  0
 11 15  1  0
 13  8  1  0
 13 14  2  0
 16 13  1  0
 17 16  1  0
 17 18  1  6
 19 18  1  0
 19 27  1  0
 20 21  1  0
 20 19  2  0
 21 22  1  0
 22 23  1  0
 22 27  2  0
 23 24  2  0
 24 25  1  0
 26 25  2  0
 27 26  1  0
 28 17  1  0
 29 28  2  0
 30 28  1  0
M  END
$$$$
