SEW.pdb
     RDKit          3D

 30 31  0  0  1  0  0  0  0  0999 V2000
   16.5730  -21.0534    1.5609 O   0  0  0  0  0  0  0  0  0  0  0  0
   16.9967  -20.6224    2.8225 C   0  0  0  0  0  0  0  0  0  0  0  0
   15.8961  -20.7360    3.8231 C   0  0  2  0  0  0  0  0  0  0  0  0
   14.7103  -20.1253    3.2239 N   0  0  0  0  0  0  0  0  0  0  0  0
   16.2612  -20.0553    5.0784 C   0  0  0  0  0  0  0  0  0  0  0  0
   15.7448  -18.8941    5.2646 O   0  0  0  0  0  0  0  0  0  0  0  0
   17.1294  -20.6698    6.0195 N   0  0  0  0  0  0  0  0  0  0  0  0
   17.3609  -20.0894    7.2917 C   0  0  1  0  0  0  0  0  0  0  0  0
   17.2784  -20.9185    8.4974 C   0  0  0  0  0  0  0  0  0  0  0  0
   17.3992  -20.2430    9.8151 C   0  0  0  0  0  0  0  0  0  0  0  0
   17.2789  -21.0588   11.0083 C   0  0  0  0  0  0  0  0  0  0  0  0
   17.1062  -22.3128   10.8962 O   0  0  0  0  0  0  0  0  0  0  0  0
   18.5187  -19.1533    7.2175 C   0  0  0  0  0  0  0  0  0  0  0  0
   19.5658  -19.4526    6.5975 O   0  0  0  0  0  0  0  0  0  0  0  0
   17.3398  -20.5395   12.2853 O   0  0  0  0  0  0  0  0  0  0  0  0
   18.5417  -17.8732    7.8246 N   0  0  0  0  0  0  0  0  0  0  0  0
   19.7071  -17.0156    7.8789 C   0  0  1  0  0  0  0  0  0  0  0  0
   19.4105  -15.6629    8.4301 C   0  0  0  0  0  0  0  0  0  0  0  0
   18.9430  -14.7828    7.3321 C   0  0  0  0  0  0  0  0  0  0  0  0
   17.7738  -14.8501    6.5747 C   0  0  0  0  0  0  0  0  0  0  0  0
   17.7308  -13.8722    5.6757 N   0  0  0  0  0  0  0  0  0  0  0  0
   18.8392  -13.1319    5.7927 C   0  0  0  0  0  0  0  0  0  0  0  0
   19.2979  -12.0156    5.1196 C   0  0  0  0  0  0  0  0  0  0  0  0
   20.4956  -11.4589    5.4600 C   0  0  0  0  0  0  0  0  0  0  0  0
   21.2455  -12.0024    6.4667 C   0  0  0  0  0  0  0  0  0  0  0  0
   20.8182  -13.1160    7.1593 C   0  0  0  0  0  0  0  0  0  0  0  0
   19.6067  -13.6675    6.8049 C   0  0  0  0  0  0  0  0  0  0  0  0
   20.7237  -17.6704    8.7110 C   0  0  0  0  0  0  0  0  0  0  0  0
   20.3835  -18.4243    9.6434 O   0  0  0  0  0  0  0  0  0  0  0  0
   22.0608  -17.4550    8.4659 O   0  0  0  0  0  0  0  0  0  0  0  0
  1  2  1  0
  3  2  1  0
  3  5  1  0
  3  4  1  6
  5  6  2  0
  7  5  1  0
  7  8  1  0
  8  9  1  1
  9 10  1  0
 10 11  1  0
 11 12  2  0
 11 15  1  0
 13  8  1  0
 13 14  2  0
 16 13  1  0
 17 16  1  0
 17 18  1  1
 19 18  1  0
 19 27  1  0
 20 21  1  0
 20 19  2  0
 21 22  1  0
 22 23  1  0
 22 27  2  0
 23 24  2  0
 24 25  1  0
 26 25  2  0
 27 26  1  0
 28 17  1  0
 29 28  2  0
 30 28  1  0
M  END
$$$$
