SEW.pdb
     RDKit          3D

 30 31  0  0  1  0  0  0  0  0999 V2000
   25.5044  -15.3681   14.4250 O   0  0  0  0  0  0  0  0  0  0  0  0
   25.2012  -16.4450   13.5852 C   0  0  0  0  0  0  0  0  0  0  0  0
   26.4138  -17.2718   13.3181 C   0  0  2  0  0  0  0  0  0  0  0  0
   27.2903  -16.4781   12.4580 N   0  0  0  0  0  0  0  0  0  0  0  0
   26.0453  -18.5412   12.6658 C   0  0  0  0  0  0  0  0  0  0  0  0
   25.9351  -18.5100   11.3865 O   0  0  0  0  0  0  0  0  0  0  0  0
   25.8370  -19.7225   13.4263 N   0  0  0  0  0  0  0  0  0  0  0  0
   25.5857  -20.9663   12.7949 C   0  0  1  0  0  0  0  0  0  0  0  0
   26.0806  -22.2052   13.4017 C   0  0  0  0  0  0  0  0  0  0  0  0
   27.5369  -22.3115   13.6757 C   0  0  0  0  0  0  0  0  0  0  0  0
   28.0296  -23.5480   14.2518 C   0  0  0  0  0  0  0  0  0  0  0  0
   28.2211  -23.6232   15.5059 O   0  0  0  0  0  0  0  0  0  0  0  0
   24.1859  -21.0003   12.2835 C   0  0  0  0  0  0  0  0  0  0  0  0
   23.2259  -20.5791   12.9702 O   0  0  0  0  0  0  0  0  0  0  0  0
   28.3107  -24.6702   13.4997 O   0  0  0  0  0  0  0  0  0  0  0  0
   23.8210  -21.4983   11.0080 N   0  0  0  0  0  0  0  0  0  0  0  0
   22.4558  -21.6497   10.5501 C   0  0  1  0  0  0  0  0  0  0  0  0
   22.3625  -22.0621    9.1208 C   0  0  0  0  0  0  0  0  0  0  0  0
   20.9488  -21.9765    8.6817 C   0  0  0  0  0  0  0  0  0  0  0  0
   20.1449  -20.8540    8.4848 C   0  0  0  0  0  0  0  0  0  0  0  0
   18.9242  -21.2042    8.0930 N   0  0  0  0  0  0  0  0  0  0  0  0
   18.8643  -22.5385    8.0146 C   0  0  0  0  0  0  0  0  0  0  0  0
   17.8538  -23.4139    7.6653 C   0  0  0  0  0  0  0  0  0  0  0  0
   18.0828  -24.7585    7.6768 C   0  0  0  0  0  0  0  0  0  0  0  0
   19.3109  -25.2442    8.0334 C   0  0  0  0  0  0  0  0  0  0  0  0
   20.3418  -24.3992    8.3876 C   0  0  0  0  0  0  0  0  0  0  0  0
   20.0963  -23.0438    8.3714 C   0  0  0  0  0  0  0  0  0  0  0  0
   21.7951  -22.6539   11.3926 C   0  0  0  0  0  0  0  0  0  0  0  0
   22.4396  -23.6222   11.8404 O   0  0  0  0  0  0  0  0  0  0  0  0
   20.4576  -22.5316   11.6932 O   0  0  0  0  0  0  0  0  0  0  0  0
  1  2  1  0
  3  2  1  0
  3  5  1  0
  3  4  1  6
  5  6  2  0
  7  5  1  0
  7  8  1  0
  8  9  1  1
  9 10  1  0
 10 11  1  0
 11 12  2  0
 11 15  1  0
 13  8  1  0
 13 14  2  0
 16 13  1  0
 17 16  1  0
 17 18  1  6
 19 18  1  0
 19 27  1  0
 20 21  1  0
 20 19  2  0
 21 22  1  0
 22 23  1  0
 22 27  2  0
 23 24  2  0
 24 25  1  0
 26 25  2  0
 27 26  1  0
 28 17  1  0
 29 28  2  0
 30 28  1  0
M  END
$$$$
