SEW.pdb
     RDKit          3D

 30 31  0  0  1  0  0  0  0  0999 V2000
   29.4446  -20.6868  -14.2013 O   0  0  0  0  0  0  0  0  0  0  0  0
   28.5275  -21.6919  -14.5264 C   0  0  0  0  0  0  0  0  0  0  0  0
   27.1724  -21.1189  -14.7729 C   0  0  2  0  0  0  0  0  0  0  0  0
   27.2781  -20.2680  -15.9573 N   0  0  0  0  0  0  0  0  0  0  0  0
   26.7152  -20.3425  -13.6064 C   0  0  0  0  0  0  0  0  0  0  0  0
   26.8264  -19.0660  -13.6961 O   0  0  0  0  0  0  0  0  0  0  0  0
   26.1772  -20.9882  -12.4615 N   0  0  0  0  0  0  0  0  0  0  0  0
   25.2777  -20.3170  -11.5958 C   0  0  1  0  0  0  0  0  0  0  0  0
   24.0235  -19.7747  -12.1257 C   0  0  0  0  0  0  0  0  0  0  0  0
   23.1382  -20.6906  -12.8902 C   0  0  0  0  0  0  0  0  0  0  0  0
   21.9004  -20.1514  -13.4198 C   0  0  0  0  0  0  0  0  0  0  0  0
   21.1110  -20.9098  -14.0652 O   0  0  0  0  0  0  0  0  0  0  0  0
   25.1803  -21.0492  -10.3011 C   0  0  0  0  0  0  0  0  0  0  0  0
   25.0837  -22.2980  -10.2591 O   0  0  0  0  0  0  0  0  0  0  0  0
   21.5243  -18.8331  -13.2618 O   0  0  0  0  0  0  0  0  0  0  0  0
   25.1880  -20.4183   -9.0323 N   0  0  0  0  0  0  0  0  0  0  0  0
   24.9682  -21.1054   -7.7769 C   0  0  1  0  0  0  0  0  0  0  0  0
   25.4265  -20.3213   -6.5951 C   0  0  0  0  0  0  0  0  0  0  0  0
   26.8317  -19.8983   -6.8080 C   0  0  0  0  0  0  0  0  0  0  0  0
   27.5024  -19.6057   -7.9953 C   0  0  0  0  0  0  0  0  0  0  0  0
   28.7662  -19.2692   -7.7589 N   0  0  0  0  0  0  0  0  0  0  0  0
   28.9854  -19.3220   -6.4401 C   0  0  0  0  0  0  0  0  0  0  0  0
   30.1014  -19.0754   -5.6633 C   0  0  0  0  0  0  0  0  0  0  0  0
   30.0327  -19.2141   -4.3082 C   0  0  0  0  0  0  0  0  0  0  0  0
   28.8613  -19.5969   -3.7143 C   0  0  0  0  0  0  0  0  0  0  0  0
   27.7285  -19.8509   -4.4589 C   0  0  0  0  0  0  0  0  0  0  0  0
   27.8125  -19.7067   -5.8263 C   0  0  0  0  0  0  0  0  0  0  0  0
   23.5332  -21.3871   -7.6500 C   0  0  0  0  0  0  0  0  0  0  0  0
   22.7215  -20.8954   -8.4581 O   0  0  0  0  0  0  0  0  0  0  0  0
   23.0751  -22.1970   -6.6358 O   0  0  0  0  0  0  0  0  0  0  0  0
  1  2  1  0
  3  2  1  0
  3  5  1  0
  3  4  1  6
  5  6  2  0
  7  5  1  0
  7  8  1  0
  8  9  1  6
  9 10  1  0
 10 11  1  0
 11 12  2  0
 11 15  1  0
 13  8  1  0
 13 14  2  0
 16 13  1  0
 17 16  1  0
 17 18  1  1
 19 18  1  0
 19 27  1  0
 20 21  1  0
 20 19  2  0
 21 22  1  0
 22 23  1  0
 22 27  2  0
 23 24  2  0
 24 25  1  0
 26 25  2  0
 27 26  1  0
 28 17  1  0
 29 28  2  0
 30 28  1  0
M  END
$$$$
