SEW.pdb
     RDKit          3D

 30 31  0  0  1  0  0  0  0  0999 V2000
   27.3734  -15.8490  -18.1941 O   0  0  0  0  0  0  0  0  0  0  0  0
   26.4898  -15.7657  -19.2754 C   0  0  0  0  0  0  0  0  0  0  0  0
   25.0822  -15.6170  -18.8045 C   0  0  2  0  0  0  0  0  0  0  0  0
   25.0027  -14.3417  -18.0937 N   0  0  0  0  0  0  0  0  0  0  0  0
   24.7076  -16.7359  -17.9211 C   0  0  0  0  0  0  0  0  0  0  0  0
   24.6172  -16.4640  -16.6691 O   0  0  0  0  0  0  0  0  0  0  0  0
   24.4565  -18.0315  -18.4460 N   0  0  0  0  0  0  0  0  0  0  0  0
   23.9183  -19.0604  -17.6332 C   0  0  1  0  0  0  0  0  0  0  0  0
   23.0521  -20.0819  -18.2282 C   0  0  0  0  0  0  0  0  0  0  0  0
   22.1647  -19.6743  -19.3479 C   0  0  0  0  0  0  0  0  0  0  0  0
   21.7267  -20.7012  -20.2737 C   0  0  0  0  0  0  0  0  0  0  0  0
   21.1207  -21.7272  -19.8319 O   0  0  0  0  0  0  0  0  0  0  0  0
   24.9589  -19.5535  -16.6865 C   0  0  0  0  0  0  0  0  0  0  0  0
   26.1128  -19.8497  -17.0756 O   0  0  0  0  0  0  0  0  0  0  0  0
   21.9373  -20.6276  -21.6355 O   0  0  0  0  0  0  0  0  0  0  0  0
   24.7455  -19.7282  -15.2966 N   0  0  0  0  0  0  0  0  0  0  0  0
   25.7612  -20.1683  -14.3631 C   0  0  1  0  0  0  0  0  0  0  0  0
   26.0398  -19.1706  -13.2914 C   0  0  0  0  0  0  0  0  0  0  0  0
   27.0341  -19.7360  -12.3479 C   0  0  0  0  0  0  0  0  0  0  0  0
   28.3788  -20.0449  -12.5521 C   0  0  0  0  0  0  0  0  0  0  0  0
   28.9264  -20.5444  -11.4489 N   0  0  0  0  0  0  0  0  0  0  0  0
   27.9954  -20.5885  -10.4890 C   0  0  0  0  0  0  0  0  0  0  0  0
   28.0223  -21.0116   -9.1738 C   0  0  0  0  0  0  0  0  0  0  0  0
   26.8935  -20.9400   -8.4116 C   0  0  0  0  0  0  0  0  0  0  0  0
   25.7331  -20.4501   -8.9452 C   0  0  0  0  0  0  0  0  0  0  0  0
   25.6706  -20.0191  -10.2538 C   0  0  0  0  0  0  0  0  0  0  0  0
   26.8182  -20.0971  -11.0117 C   0  0  0  0  0  0  0  0  0  0  0  0
   25.3145  -21.4272  -13.7547 C   0  0  0  0  0  0  0  0  0  0  0  0
   24.1200  -21.5823  -13.4341 O   0  0  0  0  0  0  0  0  0  0  0  0
   26.2139  -22.4454  -13.5342 O   0  0  0  0  0  0  0  0  0  0  0  0
  1  2  1  0
  3  2  1  0
  3  5  1  0
  3  4  1  1
  5  6  2  0
  7  5  1  0
  7  8  1  0
  8  9  1  6
  9 10  1  0
 10 11  1  0
 11 12  2  0
 11 15  1  0
 13  8  1  0
 13 14  2  0
 16 13  1  0
 17 16  1  0
 17 18  1  1
 19 18  1  0
 19 27  1  0
 20 21  1  0
 20 19  2  0
 21 22  1  0
 22 23  1  0
 22 27  2  0
 23 24  2  0
 24 25  1  0
 26 25  2  0
 27 26  1  0
 28 17  1  0
 29 28  2  0
 30 28  1  0
M  END
$$$$
