SEW.pdb
     RDKit          3D

 30 31  0  0  1  0  0  0  0  0999 V2000
   30.0011  -22.2867  -15.2581 O   0  0  0  0  0  0  0  0  0  0  0  0
   29.2709  -21.5114  -14.3511 C   0  0  0  0  0  0  0  0  0  0  0  0
   28.2062  -20.7340  -15.0491 C   0  0  2  0  0  0  0  0  0  0  0  0
   28.8641  -19.6073  -15.7092 N   0  0  0  0  0  0  0  0  0  0  0  0
   27.1918  -20.2623  -14.0894 C   0  0  0  0  0  0  0  0  0  0  0  0
   27.3009  -19.0421  -13.7031 O   0  0  0  0  0  0  0  0  0  0  0  0
   26.1556  -21.1217  -13.6367 N   0  0  0  0  0  0  0  0  0  0  0  0
   25.1177  -20.6413  -12.7994 C   0  0  1  0  0  0  0  0  0  0  0  0
   23.7292  -20.6754  -13.2667 C   0  0  0  0  0  0  0  0  0  0  0  0
   22.6659  -20.2553  -12.3179 C   0  0  0  0  0  0  0  0  0  0  0  0
   21.2854  -20.4136  -12.7337 C   0  0  0  0  0  0  0  0  0  0  0  0
   20.3495  -20.0724  -11.9447 O   0  0  0  0  0  0  0  0  0  0  0  0
   25.3492  -21.0923  -11.3976 C   0  0  0  0  0  0  0  0  0  0  0  0
   25.5136  -22.3024  -11.1162 O   0  0  0  0  0  0  0  0  0  0  0  0
   20.9227  -20.9268  -13.9622 O   0  0  0  0  0  0  0  0  0  0  0  0
   25.4033  -20.2182  -10.2836 N   0  0  0  0  0  0  0  0  0  0  0  0
   25.5562  -20.6528   -8.9109 C   0  0  1  0  0  0  0  0  0  0  0  0
   26.2528  -19.6501   -8.0560 C   0  0  0  0  0  0  0  0  0  0  0  0
   27.5870  -20.1761   -7.6792 C   0  0  0  0  0  0  0  0  0  0  0  0
   28.4073  -21.0832   -8.3495 C   0  0  0  0  0  0  0  0  0  0  0  0
   29.5294  -21.3026   -7.6720 N   0  0  0  0  0  0  0  0  0  0  0  0
   29.5051  -20.5712   -6.5519 C   0  0  0  0  0  0  0  0  0  0  0  0
   30.3979  -20.4236   -5.5075 C   0  0  0  0  0  0  0  0  0  0  0  0
   30.1016  -19.5887   -4.4705 C   0  0  0  0  0  0  0  0  0  0  0  0
   28.9221  -18.8958   -4.4605 C   0  0  0  0  0  0  0  0  0  0  0  0
   28.0084  -19.0192   -5.4863 C   0  0  0  0  0  0  0  0  0  0  0  0
   28.3210  -19.8658   -6.5271 C   0  0  0  0  0  0  0  0  0  0  0  0
   24.2223  -20.9219   -8.3605 C   0  0  0  0  0  0  0  0  0  0  0  0
   23.2061  -20.4734   -8.9260 O   0  0  0  0  0  0  0  0  0  0  0  0
   24.0860  -21.6721   -7.2148 O   0  0  0  0  0  0  0  0  0  0  0  0
  1  2  1  0
  3  2  1  0
  3  5  1  0
  3  4  1  1
  5  6  2  0
  7  5  1  0
  7  8  1  0
  8  9  1  6
  9 10  1  0
 10 11  1  0
 11 12  2  0
 11 15  1  0
 13  8  1  0
 13 14  2  0
 16 13  1  0
 17 16  1  0
 17 18  1  1
 19 18  1  0
 19 27  1  0
 20 21  1  0
 20 19  2  0
 21 22  1  0
 22 23  1  0
 22 27  2  0
 23 24  2  0
 24 25  1  0
 26 25  2  0
 27 26  1  0
 28 17  1  0
 29 28  2  0
 30 28  1  0
M  END
$$$$
