SEW.pdb
     RDKit          3D

 30 31  0  0  1  0  0  0  0  0999 V2000
   21.1847  -23.0771  -15.5882 O   0  0  0  0  0  0  0  0  0  0  0  0
   21.4804  -22.4910  -16.8235 C   0  0  0  0  0  0  0  0  0  0  0  0
   22.7253  -23.0712  -17.4056 C   0  0  2  0  0  0  0  0  0  0  0  0
   22.4397  -24.4718  -17.7132 N   0  0  0  0  0  0  0  0  0  0  0  0
   23.8461  -22.9592  -16.4550 C   0  0  0  0  0  0  0  0  0  0  0  0
   24.1873  -24.0402  -15.8510 O   0  0  0  0  0  0  0  0  0  0  0  0
   24.5036  -21.7188  -16.2400 N   0  0  0  0  0  0  0  0  0  0  0  0
   25.6460  -21.6292  -15.4059 C   0  0  1  0  0  0  0  0  0  0  0  0
   26.8049  -20.8433  -15.8386 C   0  0  0  0  0  0  0  0  0  0  0  0
   27.7236  -21.4507  -16.8357 C   0  0  0  0  0  0  0  0  0  0  0  0
   28.8494  -22.2191  -16.3401 C   0  0  0  0  0  0  0  0  0  0  0  0
   29.1579  -22.1571  -15.1088 O   0  0  0  0  0  0  0  0  0  0  0  0
   25.2239  -21.4488  -13.9877 C   0  0  0  0  0  0  0  0  0  0  0  0
   24.1406  -20.8929  -13.6910 O   0  0  0  0  0  0  0  0  0  0  0  0
   29.6227  -23.0287  -17.1467 O   0  0  0  0  0  0  0  0  0  0  0  0
   25.9877  -21.8776  -12.8738 N   0  0  0  0  0  0  0  0  0  0  0  0
   25.7334  -21.4769  -11.5059 C   0  0  1  0  0  0  0  0  0  0  0  0
   26.9335  -21.5976  -10.6303 C   0  0  0  0  0  0  0  0  0  0  0  0
   26.6968  -20.8446   -9.3750 C   0  0  0  0  0  0  0  0  0  0  0  0
   25.5014  -20.3744   -8.8317 C   0  0  0  0  0  0  0  0  0  0  0  0
   25.7166  -19.7353   -7.6866 N   0  0  0  0  0  0  0  0  0  0  0  0
   27.0287  -19.7517   -7.4253 C   0  0  0  0  0  0  0  0  0  0  0  0
   27.7856  -19.2430   -6.3871 C   0  0  0  0  0  0  0  0  0  0  0  0
   29.1389  -19.4132   -6.3833 C   0  0  0  0  0  0  0  0  0  0  0  0
   29.7505  -20.0865   -7.4050 C   0  0  0  0  0  0  0  0  0  0  0  0
   29.0259  -20.6072   -8.4567 C   0  0  0  0  0  0  0  0  0  0  0  0
   27.6601  -20.4280   -8.4473 C   0  0  0  0  0  0  0  0  0  0  0  0
   25.2705  -20.0839  -11.5114 C   0  0  0  0  0  0  0  0  0  0  0  0
   24.2212  -19.7671  -10.9181 O   0  0  0  0  0  0  0  0  0  0  0  0
   25.9939  -19.1181  -12.1733 O   0  0  0  0  0  0  0  0  0  0  0  0
  1  2  1  0
  3  2  1  0
  3  5  1  0
  3  4  1  1
  5  6  2  0
  7  5  1  0
  7  8  1  0
  8  9  1  6
  9 10  1  0
 10 11  1  0
 11 12  2  0
 11 15  1  0
 13  8  1  0
 13 14  2  0
 16 13  1  0
 17 16  1  0
 17 18  1  1
 19 18  1  0
 19 27  1  0
 20 21  1  0
 20 19  2  0
 21 22  1  0
 22 23  1  0
 22 27  2  0
 23 24  2  0
 24 25  1  0
 26 25  2  0
 27 26  1  0
 28 17  1  0
 29 28  2  0
 30 28  1  0
M  END
$$$$
