SEW.pdb
     RDKit          3D

 30 31  0  0  1  0  0  0  0  0999 V2000
   28.3761  -20.8247  -14.4284 O   0  0  0  0  0  0  0  0  0  0  0  0
   27.5830  -20.5922  -15.5569 C   0  0  0  0  0  0  0  0  0  0  0  0
   26.7220  -19.3891  -15.3659 C   0  0  2  0  0  0  0  0  0  0  0  0
   27.6095  -18.2271  -15.3540 N   0  0  0  0  0  0  0  0  0  0  0  0
   25.9645  -19.4856  -14.1051 C   0  0  0  0  0  0  0  0  0  0  0  0
   26.0587  -18.4820  -13.3090 O   0  0  0  0  0  0  0  0  0  0  0  0
   25.1743  -20.6284  -13.8106 N   0  0  0  0  0  0  0  0  0  0  0  0
   24.4411  -20.7211  -12.6012 C   0  0  1  0  0  0  0  0  0  0  0  0
   23.1324  -21.3807  -12.5906 C   0  0  0  0  0  0  0  0  0  0  0  0
   22.1548  -20.9689  -11.5504 C   0  0  0  0  0  0  0  0  0  0  0  0
   21.2536  -19.8761  -11.8621 C   0  0  0  0  0  0  0  0  0  0  0  0
   20.5467  -19.9272  -12.9169 O   0  0  0  0  0  0  0  0  0  0  0  0
   25.3588  -21.0669  -11.4786 C   0  0  0  0  0  0  0  0  0  0  0  0
   25.9940  -22.1471  -11.4592 O   0  0  0  0  0  0  0  0  0  0  0  0
   21.1191  -18.7591  -11.0630 O   0  0  0  0  0  0  0  0  0  0  0  0
   25.5918  -20.2291  -10.3598 N   0  0  0  0  0  0  0  0  0  0  0  0
   26.3858  -20.6050   -9.2089 C   0  0  1  0  0  0  0  0  0  0  0  0
   26.9969  -19.4360   -8.5150 C   0  0  0  0  0  0  0  0  0  0  0  0
   27.9770  -19.9227   -7.5144 C   0  0  0  0  0  0  0  0  0  0  0  0
   28.8689  -20.9923   -7.5902 C   0  0  0  0  0  0  0  0  0  0  0  0
   29.5763  -21.1038   -6.4706 N   0  0  0  0  0  0  0  0  0  0  0  0
   29.1961  -20.1398   -5.6243 C   0  0  0  0  0  0  0  0  0  0  0  0
   29.5961  -19.8017   -4.3455 C   0  0  0  0  0  0  0  0  0  0  0  0
   29.0182  -18.7435   -3.7080 C   0  0  0  0  0  0  0  0  0  0  0  0
   28.0424  -18.0145   -4.3308 C   0  0  0  0  0  0  0  0  0  0  0  0
   27.6191  -18.3239   -5.6065 C   0  0  0  0  0  0  0  0  0  0  0  0
   28.2117  -19.3950   -6.2382 C   0  0  0  0  0  0  0  0  0  0  0  0
   25.5232  -21.3339   -8.2711 C   0  0  0  0  0  0  0  0  0  0  0  0
   24.3108  -21.0577   -8.1867 O   0  0  0  0  0  0  0  0  0  0  0  0
   26.0496  -22.3282   -7.4783 O   0  0  0  0  0  0  0  0  0  0  0  0
  1  2  1  0
  3  2  1  0
  3  5  1  0
  3  4  1  1
  5  6  2  0
  7  5  1  0
  7  8  1  0
  8  9  1  6
  9 10  1  0
 10 11  1  0
 11 12  2  0
 11 15  1  0
 13  8  1  0
 13 14  2  0
 16 13  1  0
 17 16  1  0
 17 18  1  1
 19 18  1  0
 19 27  1  0
 20 21  1  0
 20 19  2  0
 21 22  1  0
 22 23  1  0
 22 27  2  0
 23 24  2  0
 24 25  1  0
 26 25  2  0
 27 26  1  0
 28 17  1  0
 29 28  2  0
 30 28  1  0
M  END
$$$$
