SEW.pdb
     RDKit          3D

 30 31  0  0  1  0  0  0  0  0999 V2000
   23.2452  -20.7836   -9.6551 O   0  0  0  0  0  0  0  0  0  0  0  0
   24.4897  -20.4962   -9.0846 C   0  0  0  0  0  0  0  0  0  0  0  0
   25.6007  -20.9731   -9.9584 C   0  0  2  0  0  0  0  0  0  0  0  0
   26.8516  -20.6028   -9.2982 N   0  0  0  0  0  0  0  0  0  0  0  0
   25.5105  -20.3610  -11.2962 C   0  0  0  0  0  0  0  0  0  0  0  0
   25.8278  -19.1188  -11.3738 O   0  0  0  0  0  0  0  0  0  0  0  0
   25.1022  -21.1215  -12.4241 N   0  0  0  0  0  0  0  0  0  0  0  0
   25.0260  -20.5379  -13.7135 C   0  0  1  0  0  0  0  0  0  0  0  0
   26.0590  -20.8338  -14.7100 C   0  0  0  0  0  0  0  0  0  0  0  0
   26.1805  -22.2345  -15.1903 C   0  0  0  0  0  0  0  0  0  0  0  0
   27.2650  -22.5468  -16.1013 C   0  0  0  0  0  0  0  0  0  0  0  0
   27.0008  -22.9089  -17.2904 O   0  0  0  0  0  0  0  0  0  0  0  0
   23.6173  -20.5687  -14.2002 C   0  0  0  0  0  0  0  0  0  0  0  0
   22.9187  -21.6063  -14.1224 O   0  0  0  0  0  0  0  0  0  0  0  0
   28.5953  -22.4742  -15.7421 O   0  0  0  0  0  0  0  0  0  0  0  0
   22.9556  -19.4579  -14.7800 N   0  0  0  0  0  0  0  0  0  0  0  0
   21.5949  -19.4843  -15.2742 C   0  0  1  0  0  0  0  0  0  0  0  0
   21.0910  -18.1377  -15.6668 C   0  0  0  0  0  0  0  0  0  0  0  0
   19.6519  -18.2385  -16.0099 C   0  0  0  0  0  0  0  0  0  0  0  0
   18.5551  -18.4803  -15.1829 C   0  0  0  0  0  0  0  0  0  0  0  0
   17.4256  -18.5021  -15.8828 N   0  0  0  0  0  0  0  0  0  0  0  0
   17.7137  -18.2819  -17.1707 C   0  0  0  0  0  0  0  0  0  0  0  0
   16.9319  -18.2028  -18.3074 C   0  0  0  0  0  0  0  0  0  0  0  0
   17.5120  -17.9630  -19.5182 C   0  0  0  0  0  0  0  0  0  0  0  0
   18.8671  -17.8005  -19.6117 C   0  0  0  0  0  0  0  0  0  0  0  0
   19.6773  -17.8731  -18.4979 C   0  0  0  0  0  0  0  0  0  0  0  0
   19.0777  -18.1156  -17.2817 C   0  0  0  0  0  0  0  0  0  0  0  0
   21.5422  -20.3831  -16.4335 C   0  0  0  0  0  0  0  0  0  0  0  0
   20.5420  -21.1007  -16.6285 O   0  0  0  0  0  0  0  0  0  0  0  0
   22.5991  -20.4385  -17.3133 O   0  0  0  0  0  0  0  0  0  0  0  0
  1  2  1  0
  3  2  1  0
  3  5  1  0
  3  4  1  1
  5  6  2  0
  7  5  1  0
  7  8  1  0
  8  9  1  6
  9 10  1  0
 10 11  1  0
 11 12  2  0
 11 15  1  0
 13  8  1  0
 13 14  2  0
 16 13  1  0
 17 16  1  0
 17 18  1  6
 19 18  1  0
 19 27  1  0
 20 21  1  0
 20 19  2  0
 21 22  1  0
 22 23  1  0
 22 27  2  0
 23 24  2  0
 24 25  1  0
 26 25  2  0
 27 26  1  0
 28 17  1  0
 29 28  2  0
 30 28  1  0
M  END
$$$$
