SEW.pdb
     RDKit          3D

 30 31  0  0  1  0  0  0  0  0999 V2000
   27.1474  -15.5363  -16.2078 O   0  0  0  0  0  0  0  0  0  0  0  0
   27.1796  -16.4367  -15.1378 C   0  0  0  0  0  0  0  0  0  0  0  0
   27.5893  -17.7960  -15.5958 C   0  0  2  0  0  0  0  0  0  0  0  0
   28.7001  -17.6147  -16.5293 N   0  0  0  0  0  0  0  0  0  0  0  0
   26.4624  -18.4878  -16.2469 C   0  0  0  0  0  0  0  0  0  0  0  0
   25.7852  -17.7972  -17.0920 O   0  0  0  0  0  0  0  0  0  0  0  0
   26.1645  -19.8441  -15.9490 N   0  0  0  0  0  0  0  0  0  0  0  0
   25.0842  -20.5128  -16.5774 C   0  0  1  0  0  0  0  0  0  0  0  0
   25.3378  -21.3928  -17.7215 C   0  0  0  0  0  0  0  0  0  0  0  0
   26.4474  -22.3746  -17.6108 C   0  0  0  0  0  0  0  0  0  0  0  0
   27.7938  -21.8601  -17.4494 C   0  0  0  0  0  0  0  0  0  0  0  0
   28.2140  -20.9471  -18.2271 O   0  0  0  0  0  0  0  0  0  0  0  0
   24.1427  -21.0335  -15.5456 C   0  0  0  0  0  0  0  0  0  0  0  0
   22.9732  -21.3762  -15.8377 O   0  0  0  0  0  0  0  0  0  0  0  0
   28.6640  -22.3170  -16.4808 O   0  0  0  0  0  0  0  0  0  0  0  0
   24.4740  -21.1851  -14.1763 N   0  0  0  0  0  0  0  0  0  0  0  0
   23.6006  -21.7783  -13.1853 C   0  0  1  0  0  0  0  0  0  0  0  0
   24.3421  -22.4886  -12.1050 C   0  0  0  0  0  0  0  0  0  0  0  0
   25.2182  -21.5217  -11.4004 C   0  0  0  0  0  0  0  0  0  0  0  0
   24.9532  -20.7333  -10.2808 C   0  0  0  0  0  0  0  0  0  0  0  0
   26.0066  -19.9884   -9.9617 N   0  0  0  0  0  0  0  0  0  0  0  0
   26.9913  -20.2417  -10.8314 C   0  0  0  0  0  0  0  0  0  0  0  0
   28.2773  -19.7532  -10.9618 C   0  0  0  0  0  0  0  0  0  0  0  0
   29.0780  -20.2025  -11.9705 C   0  0  0  0  0  0  0  0  0  0  0  0
   28.6118  -21.1362  -12.8548 C   0  0  0  0  0  0  0  0  0  0  0  0
   27.3339  -21.6451  -12.7543 C   0  0  0  0  0  0  0  0  0  0  0  0
   26.5365  -21.1824  -11.7307 C   0  0  0  0  0  0  0  0  0  0  0  0
   22.7802  -20.7131  -12.5963 C   0  0  0  0  0  0  0  0  0  0  0  0
   23.2002  -19.5400  -12.5647 O   0  0  0  0  0  0  0  0  0  0  0  0
   21.5405  -21.0044  -12.0743 O   0  0  0  0  0  0  0  0  0  0  0  0
  1  2  1  0
  3  2  1  0
  3  5  1  0
  3  4  1  6
  5  6  2  0
  7  5  1  0
  7  8  1  0
  8  9  1  1
  9 10  1  0
 10 11  1  0
 11 12  2  0
 11 15  1  0
 13  8  1  0
 13 14  2  0
 16 13  1  0
 17 16  1  0
 17 18  1  1
 19 18  1  0
 19 27  1  0
 20 21  1  0
 20 19  2  0
 21 22  1  0
 22 23  1  0
 22 27  2  0
 23 24  2  0
 24 25  1  0
 26 25  2  0
 27 26  1  0
 28 17  1  0
 29 28  2  0
 30 28  1  0
M  END
$$$$
