SEW.pdb
     RDKit          3D

 30 31  0  0  1  0  0  0  0  0999 V2000
   28.8585  -22.3374  -15.1290 O   0  0  0  0  0  0  0  0  0  0  0  0
   27.9088  -22.4591  -16.1488 C   0  0  0  0  0  0  0  0  0  0  0  0
   27.1359  -21.1937  -16.3125 C   0  0  2  0  0  0  0  0  0  0  0  0
   28.0521  -20.2045  -16.8780 N   0  0  0  0  0  0  0  0  0  0  0  0
   26.6035  -20.7372  -15.0160 C   0  0  0  0  0  0  0  0  0  0  0  0
   27.0487  -19.6122  -14.5848 O   0  0  0  0  0  0  0  0  0  0  0  0
   25.6465  -21.5084  -14.3043 N   0  0  0  0  0  0  0  0  0  0  0  0
   24.8916  -20.9449  -13.2453 C   0  0  1  0  0  0  0  0  0  0  0  0
   23.4273  -20.9813  -13.2939 C   0  0  0  0  0  0  0  0  0  0  0  0
   22.6791  -20.0588  -12.4014 C   0  0  0  0  0  0  0  0  0  0  0  0
   21.2367  -20.1972  -12.3395 C   0  0  0  0  0  0  0  0  0  0  0  0
   20.5733  -19.4909  -11.5173 O   0  0  0  0  0  0  0  0  0  0  0  0
   25.5133  -21.2979  -11.9373 C   0  0  0  0  0  0  0  0  0  0  0  0
   25.6214  -22.4888  -11.5622 O   0  0  0  0  0  0  0  0  0  0  0  0
   20.5288  -21.0726  -13.1375 O   0  0  0  0  0  0  0  0  0  0  0  0
   26.0258  -20.3455  -11.0217 N   0  0  0  0  0  0  0  0  0  0  0  0
   26.5108  -20.6659   -9.6956 C   0  0  1  0  0  0  0  0  0  0  0  0
   27.5089  -19.6830   -9.1865 C   0  0  0  0  0  0  0  0  0  0  0  0
   28.2954  -20.3094   -8.0967 C   0  0  0  0  0  0  0  0  0  0  0  0
   29.0187  -21.5019   -8.0938 C   0  0  0  0  0  0  0  0  0  0  0  0
   29.5813  -21.7158   -6.9090 N   0  0  0  0  0  0  0  0  0  0  0  0
   29.2654  -20.7027   -6.0941 C   0  0  0  0  0  0  0  0  0  0  0  0
   29.5773  -20.4252   -4.7768 C   0  0  0  0  0  0  0  0  0  0  0  0
   29.1028  -19.2896   -4.1888 C   0  0  0  0  0  0  0  0  0  0  0  0
   28.3180  -18.4233   -4.8993 C   0  0  0  0  0  0  0  0  0  0  0  0
   27.9873  -18.6690   -6.2156 C   0  0  0  0  0  0  0  0  0  0  0  0
   28.4737  -19.8194   -6.7965 C   0  0  0  0  0  0  0  0  0  0  0  0
   25.3620  -20.7134   -8.7830 C   0  0  0  0  0  0  0  0  0  0  0  0
   25.4793  -21.2182   -7.6494 O   0  0  0  0  0  0  0  0  0  0  0  0
   24.1467  -20.1998   -9.1748 O   0  0  0  0  0  0  0  0  0  0  0  0
  1  2  1  0
  3  2  1  0
  3  5  1  0
  3  4  1  1
  5  6  2  0
  7  5  1  0
  7  8  1  0
  8  9  1  1
  9 10  1  0
 10 11  1  0
 11 12  2  0
 11 15  1  0
 13  8  1  0
 13 14  2  0
 16 13  1  0
 17 16  1  0
 17 18  1  1
 19 18  1  0
 19 27  1  0
 20 21  1  0
 20 19  2  0
 21 22  1  0
 22 23  1  0
 22 27  2  0
 23 24  2  0
 24 25  1  0
 26 25  2  0
 27 26  1  0
 28 17  1  0
 29 28  2  0
 30 28  1  0
M  END
$$$$
