SEW.pdb
     RDKit          3D

 30 31  0  0  1  0  0  0  0  0999 V2000
   28.7272  -27.1214  -15.8913 O   0  0  0  0  0  0  0  0  0  0  0  0
   29.4085  -27.1193  -17.1131 C   0  0  0  0  0  0  0  0  0  0  0  0
   28.4723  -26.8637  -18.2461 C   0  0  2  0  0  0  0  0  0  0  0  0
   29.2799  -26.8156  -19.4640 N   0  0  0  0  0  0  0  0  0  0  0  0
   27.7461  -25.5968  -18.0459 C   0  0  0  0  0  0  0  0  0  0  0  0
   28.3872  -24.5233  -18.3397 O   0  0  0  0  0  0  0  0  0  0  0  0
   26.4105  -25.5862  -17.5629 N   0  0  0  0  0  0  0  0  0  0  0  0
   25.6851  -24.3748  -17.4388 C   0  0  1  0  0  0  0  0  0  0  0  0
   24.6226  -24.0597  -18.3977 C   0  0  0  0  0  0  0  0  0  0  0  0
   23.4092  -24.9170  -18.3972 C   0  0  0  0  0  0  0  0  0  0  0  0
   22.3813  -24.6371  -19.3814 C   0  0  0  0  0  0  0  0  0  0  0  0
   21.1982  -24.3777  -18.9965 O   0  0  0  0  0  0  0  0  0  0  0  0
   25.3713  -24.1178  -16.0044 C   0  0  0  0  0  0  0  0  0  0  0  0
   25.0790  -25.0499  -15.2194 O   0  0  0  0  0  0  0  0  0  0  0  0
   22.6190  -24.6390  -20.7406 O   0  0  0  0  0  0  0  0  0  0  0  0
   25.3745  -22.8307  -15.4117 N   0  0  0  0  0  0  0  0  0  0  0  0
   24.9880  -22.5608  -14.0426 C   0  0  1  0  0  0  0  0  0  0  0  0
   25.4886  -21.2486  -13.5434 C   0  0  0  0  0  0  0  0  0  0  0  0
   25.2710  -21.1711  -12.0787 C   0  0  0  0  0  0  0  0  0  0  0  0
   26.1373  -21.4885  -11.0327 C   0  0  0  0  0  0  0  0  0  0  0  0
   25.5567  -21.2865   -9.8544 N   0  0  0  0  0  0  0  0  0  0  0  0
   24.3128  -20.8383  -10.0595 C   0  0  0  0  0  0  0  0  0  0  0  0
   23.2916  -20.4773   -9.2014 C   0  0  0  0  0  0  0  0  0  0  0  0
   22.0989  -20.0472   -9.7042 C   0  0  0  0  0  0  0  0  0  0  0  0
   21.9097  -19.9717  -11.0569 C   0  0  0  0  0  0  0  0  0  0  0  0
   22.9072  -20.3239  -11.9420 C   0  0  0  0  0  0  0  0  0  0  0  0
   24.1064  -20.7563  -11.4201 C   0  0  0  0  0  0  0  0  0  0  0  0
   23.5226  -22.5873  -13.9630 C   0  0  0  0  0  0  0  0  0  0  0  0
   22.8370  -21.9115  -14.7546 O   0  0  0  0  0  0  0  0  0  0  0  0
   22.8962  -23.3599  -13.0117 O   0  0  0  0  0  0  0  0  0  0  0  0
  1  2  1  0
  3  2  1  0
  3  5  1  0
  3  4  1  6
  5  6  2  0
  7  5  1  0
  7  8  1  0
  8  9  1  6
  9 10  1  0
 10 11  1  0
 11 12  2  0
 11 15  1  0
 13  8  1  0
 13 14  2  0
 16 13  1  0
 17 16  1  0
 17 18  1  6
 19 18  1  0
 19 27  1  0
 20 21  1  0
 20 19  2  0
 21 22  1  0
 22 23  1  0
 22 27  2  0
 23 24  2  0
 24 25  1  0
 26 25  2  0
 27 26  1  0
 28 17  1  0
 29 28  2  0
 30 28  1  0
M  END
$$$$
