SEW.pdb
     RDKit          3D

 30 31  0  0  1  0  0  0  0  0999 V2000
   17.6614   -6.3437  -22.2659 O   0  0  0  0  0  0  0  0  0  0  0  0
   19.0054   -6.0112  -22.4654 C   0  0  0  0  0  0  0  0  0  0  0  0
   19.8696   -6.6294  -21.4183 C   0  0  2  0  0  0  0  0  0  0  0  0
   19.7196   -8.0786  -21.5425 N   0  0  0  0  0  0  0  0  0  0  0  0
   19.4689   -6.1720  -20.0756 C   0  0  0  0  0  0  0  0  0  0  0  0
   18.2939   -6.5156  -19.6869 O   0  0  0  0  0  0  0  0  0  0  0  0
   20.3505   -5.4033  -19.2699 N   0  0  0  0  0  0  0  0  0  0  0  0
   20.0062   -5.0448  -17.9426 C   0  0  1  0  0  0  0  0  0  0  0  0
   20.3010   -5.9635  -16.8394 C   0  0  0  0  0  0  0  0  0  0  0  0
   19.9132   -5.5483  -15.4666 C   0  0  0  0  0  0  0  0  0  0  0  0
   20.3667   -6.3660  -14.3578 C   0  0  0  0  0  0  0  0  0  0  0  0
   21.2565   -5.9165  -13.5697 O   0  0  0  0  0  0  0  0  0  0  0  0
   20.3320   -3.6096  -17.7056 C   0  0  0  0  0  0  0  0  0  0  0  0
   21.5126   -3.2233  -17.5400 O   0  0  0  0  0  0  0  0  0  0  0  0
   19.8787   -7.6319  -14.1062 O   0  0  0  0  0  0  0  0  0  0  0  0
   19.3632   -2.5772  -17.6474 N   0  0  0  0  0  0  0  0  0  0  0  0
   19.6647   -1.1887  -17.3682 C   0  0  1  0  0  0  0  0  0  0  0  0
   18.6105   -0.2540  -17.8544 C   0  0  0  0  0  0  0  0  0  0  0  0
   19.0730    1.1418  -17.6631 C   0  0  0  0  0  0  0  0  0  0  0  0
   20.1565    1.8064  -18.2372 C   0  0  0  0  0  0  0  0  0  0  0  0
   20.2361    3.0579  -17.7971 N   0  0  0  0  0  0  0  0  0  0  0  0
   19.2365    3.2745  -16.9345 C   0  0  0  0  0  0  0  0  0  0  0  0
   18.8569    4.3788  -16.1956 C   0  0  0  0  0  0  0  0  0  0  0  0
   17.7682    4.3095  -15.3768 C   0  0  0  0  0  0  0  0  0  0  0  0
   17.0497    3.1490  -15.2844 C   0  0  0  0  0  0  0  0  0  0  0  0
   17.4003    2.0281  -16.0076 C   0  0  0  0  0  0  0  0  0  0  0  0
   18.5018    2.1127  -16.8304 C   0  0  0  0  0  0  0  0  0  0  0  0
   19.8240   -1.0338  -15.9172 C   0  0  0  0  0  0  0  0  0  0  0  0
   19.1723   -1.7501  -15.1326 O   0  0  0  0  0  0  0  0  0  0  0  0
   20.6954   -0.0947  -15.4142 O   0  0  0  0  0  0  0  0  0  0  0  0
  1  2  1  0
  3  2  1  0
  3  5  1  0
  3  4  1  1
  5  6  2  0
  7  5  1  0
  7  8  1  0
  8  9  1  1
  9 10  1  0
 10 11  1  0
 11 12  2  0
 11 15  1  0
 13  8  1  0
 13 14  2  0
 16 13  1  0
 17 16  1  0
 17 18  1  1
 19 18  1  0
 19 27  1  0
 20 21  1  0
 20 19  2  0
 21 22  1  0
 22 23  1  0
 22 27  2  0
 23 24  2  0
 24 25  1  0
 26 25  2  0
 27 26  1  0
 28 17  1  0
 29 28  2  0
 30 28  1  0
M  END
$$$$
