SEW.pdb
     RDKit          3D

 30 31  0  0  1  0  0  0  0  0999 V2000
   28.0633  -21.5139  -14.2162 O   0  0  0  0  0  0  0  0  0  0  0  0
   27.2071  -21.6075  -15.3185 C   0  0  0  0  0  0  0  0  0  0  0  0
   26.2723  -20.4460  -15.3687 C   0  0  2  0  0  0  0  0  0  0  0  0
   27.0508  -19.2909  -15.8132 N   0  0  0  0  0  0  0  0  0  0  0  0
   25.6757  -20.2000  -14.0435 C   0  0  0  0  0  0  0  0  0  0  0  0
   26.1533  -19.2080  -13.3821 O   0  0  0  0  0  0  0  0  0  0  0  0
   24.6271  -21.0200  -13.5483 N   0  0  0  0  0  0  0  0  0  0  0  0
   24.0626  -20.7950  -12.2677 C   0  0  1  0  0  0  0  0  0  0  0  0
   22.6733  -21.1806  -12.0053 C   0  0  0  0  0  0  0  0  0  0  0  0
   21.6445  -20.1087  -11.9953 C   0  0  0  0  0  0  0  0  0  0  0  0
   20.9909  -19.7850  -13.2489 C   0  0  0  0  0  0  0  0  0  0  0  0
   20.0456  -20.5214  -13.6721 O   0  0  0  0  0  0  0  0  0  0  0  0
   25.0520  -21.1476  -11.2099 C   0  0  0  0  0  0  0  0  0  0  0  0
   25.6074  -22.2706  -11.1789 O   0  0  0  0  0  0  0  0  0  0  0  0
   21.3463  -18.7016  -14.0262 O   0  0  0  0  0  0  0  0  0  0  0  0
   25.4454  -20.2694  -10.1697 N   0  0  0  0  0  0  0  0  0  0  0  0
   26.3523  -20.6260   -9.0988 C   0  0  1  0  0  0  0  0  0  0  0  0
   27.1869  -19.4811   -8.6360 C   0  0  0  0  0  0  0  0  0  0  0  0
   28.1701  -19.9685   -7.6387 C   0  0  0  0  0  0  0  0  0  0  0  0
   29.1349  -20.9687   -7.7560 C   0  0  0  0  0  0  0  0  0  0  0  0
   29.8170  -21.1088   -6.6240 N   0  0  0  0  0  0  0  0  0  0  0  0
   29.3484  -20.2319   -5.7287 C   0  0  0  0  0  0  0  0  0  0  0  0
   29.6888  -19.9557   -4.4182 C   0  0  0  0  0  0  0  0  0  0  0  0
   29.0222  -18.9840   -3.7312 C   0  0  0  0  0  0  0  0  0  0  0  0
   28.0165  -18.2809   -4.3357 C   0  0  0  0  0  0  0  0  0  0  0  0
   27.6509  -18.5304   -5.6420 C   0  0  0  0  0  0  0  0  0  0  0  0
   28.3327  -19.5143   -6.3236 C   0  0  0  0  0  0  0  0  0  0  0  0
   25.5600  -21.1391   -7.9746 C   0  0  0  0  0  0  0  0  0  0  0  0
   26.0288  -22.0154   -7.2224 O   0  0  0  0  0  0  0  0  0  0  0  0
   24.2925  -20.6546   -7.7447 O   0  0  0  0  0  0  0  0  0  0  0  0
  1  2  1  0
  3  2  1  0
  3  5  1  0
  3  4  1  1
  5  6  2  0
  7  5  1  0
  7  8  1  0
  8  9  1  1
  9 10  1  0
 10 11  1  0
 11 12  2  0
 11 15  1  0
 13  8  1  0
 13 14  2  0
 16 13  1  0
 17 16  1  0
 17 18  1  1
 19 18  1  0
 19 27  1  0
 20 21  1  0
 20 19  2  0
 21 22  1  0
 22 23  1  0
 22 27  2  0
 23 24  2  0
 24 25  1  0
 26 25  2  0
 27 26  1  0
 28 17  1  0
 29 28  2  0
 30 28  1  0
M  END
$$$$
