KAF.pdb
     RDKit          3D

 26 26  0  0  1  0  0  0  0  0999 V2000
   24.2416  -19.0641  -15.2987 N   0  0  0  0  0  0  0  0  0  0  0  0
   23.1714  -19.0405  -14.2915 C   0  0  1  0  0  0  0  0  0  0  0  0
   21.9620  -19.6492  -14.9577 C   0  0  0  0  0  0  0  0  0  0  0  0
   20.8659  -18.6501  -15.0375 C   0  0  0  0  0  0  0  0  0  0  0  0
   19.5185  -19.2449  -14.6309 C   0  0  0  0  0  0  0  0  0  0  0  0
   18.4892  -18.1542  -14.8618 C   0  0  0  0  0  0  0  0  0  0  0  0
   17.2314  -18.5927  -14.3296 N   0  0  0  0  0  0  0  0  0  0  0  0
   23.5439  -19.8802  -13.1324 C   0  0  0  0  0  0  0  0  0  0  0  0
   22.7943  -20.0199  -12.1406 O   0  0  0  0  0  0  0  0  0  0  0  0
   25.8334  -22.7126  -12.4786 C   0  0  0  0  0  0  0  0  0  0  0  0
   25.1715  -21.4341  -11.9769 C   0  0  2  0  0  0  0  0  0  0  0  0
   24.8073  -20.5834  -13.0985 N   0  0  0  0  0  0  0  0  0  0  0  0
   26.1228  -20.6914  -11.1174 C   0  0  0  0  0  0  0  0  0  0  0  0
   26.8798  -19.7976  -11.5835 O   0  0  0  0  0  0  0  0  0  0  0  0
   26.2318  -20.9473   -9.7225 N   0  0  0  0  0  0  0  0  0  0  0  0
   27.2419  -20.2369   -8.9216 C   0  0  1  0  0  0  0  0  0  0  0  0
   26.6122  -20.0615   -7.5551 C   0  0  0  0  0  0  0  0  0  0  0  0
   27.5609  -19.6952   -6.5007 C   0  0  0  0  0  0  0  0  0  0  0  0
   27.5307  -18.4454   -5.9294 C   0  0  0  0  0  0  0  0  0  0  0  0
   28.4209  -18.0827   -4.9270 C   0  0  0  0  0  0  0  0  0  0  0  0
   29.3577  -19.0085   -4.4993 C   0  0  0  0  0  0  0  0  0  0  0  0
   29.3753  -20.2538   -5.0801 C   0  0  0  0  0  0  0  0  0  0  0  0
   28.4901  -20.6139   -6.0765 C   0  0  0  0  0  0  0  0  0  0  0  0
   28.4683  -21.0514   -8.9036 C   0  0  0  0  0  0  0  0  0  0  0  0
   29.5619  -20.4784   -8.6644 O   0  0  0  0  0  0  0  0  0  0  0  0
   28.4982  -22.4194   -9.1346 O   0  0  0  0  0  0  0  0  0  0  0  0
  2  3  1  0
  2  1  1  6
  4  3  1  0
  5  4  1  0
  6  5  1  0
  7  6  1  0
  8  9  2  0
  8  2  1  0
 11 10  1  6
 11 12  1  0
 12  8  1  0
 13 14  2  0
 13 11  1  0
 15 13  1  0
 16 17  1  1
 16 15  1  0
 18 17  1  0
 18 23  2  0
 19 18  1  0
 20 19  2  0
 20 21  1  0
 21 22  2  0
 22 23  1  0
 24 16  1  0
 25 24  2  0
 26 24  1  0
M  END
$$$$
