KAF.pdb
     RDKit          3D

 26 26  0  0  1  0  0  0  0  0999 V2000
   26.7603  -20.2824  -15.7444 N   0  0  0  0  0  0  0  0  0  0  0  0
   26.7673  -19.7016  -14.3943 C   0  0  1  0  0  0  0  0  0  0  0  0
   25.3185  -19.5181  -14.0147 C   0  0  0  0  0  0  0  0  0  0  0  0
   24.5329  -19.0778  -15.1958 C   0  0  0  0  0  0  0  0  0  0  0  0
   23.0778  -18.7802  -14.8368 C   0  0  0  0  0  0  0  0  0  0  0  0
   22.4022  -18.3597  -16.1287 C   0  0  0  0  0  0  0  0  0  0  0  0
   22.3774  -16.9267  -16.1862 N   0  0  0  0  0  0  0  0  0  0  0  0
   27.3898  -20.6426  -13.4379 C   0  0  0  0  0  0  0  0  0  0  0  0
   27.2814  -21.8833  -13.5555 O   0  0  0  0  0  0  0  0  0  0  0  0
   30.0326  -20.4404  -10.7692 C   0  0  0  0  0  0  0  0  0  0  0  0
   28.7851  -21.0756  -11.3729 C   0  0  2  0  0  0  0  0  0  0  0  0
   28.1594  -20.1594  -12.3127 N   0  0  0  0  0  0  0  0  0  0  0  0
   27.8134  -21.3742  -10.2950 C   0  0  0  0  0  0  0  0  0  0  0  0
   28.1607  -21.9520   -9.2297 O   0  0  0  0  0  0  0  0  0  0  0  0
   26.4390  -21.0251  -10.4051 N   0  0  0  0  0  0  0  0  0  0  0  0
   25.6319  -20.8249   -9.1907 C   0  0  1  0  0  0  0  0  0  0  0  0
   26.1134  -19.5127   -8.6069 C   0  0  0  0  0  0  0  0  0  0  0  0
   26.8713  -19.6532   -7.3610 C   0  0  0  0  0  0  0  0  0  0  0  0
   26.5342  -20.6126   -6.4363 C   0  0  0  0  0  0  0  0  0  0  0  0
   27.2436  -20.7611   -5.2516 C   0  0  0  0  0  0  0  0  0  0  0  0
   28.3143  -19.9183   -5.0046 C   0  0  0  0  0  0  0  0  0  0  0  0
   28.6389  -18.9642   -5.9388 C   0  0  0  0  0  0  0  0  0  0  0  0
   27.9335  -18.8169   -7.1164 C   0  0  0  0  0  0  0  0  0  0  0  0
   24.2124  -20.8088   -9.5813 C   0  0  0  0  0  0  0  0  0  0  0  0
   23.9293  -20.6496  -10.7962 O   0  0  0  0  0  0  0  0  0  0  0  0
   23.1580  -20.9588   -8.6915 O   0  0  0  0  0  0  0  0  0  0  0  0
  2  3  1  0
  2  1  1  6
  4  3  1  0
  5  4  1  0
  6  5  1  0
  7  6  1  0
  8  9  2  0
  8  2  1  0
 11 10  1  1
 11 12  1  0
 12  8  1  0
 13 14  2  0
 13 11  1  0
 15 13  1  0
 16 17  1  6
 16 15  1  0
 18 17  1  0
 18 23  2  0
 19 18  1  0
 20 19  2  0
 20 21  1  0
 21 22  2  0
 22 23  1  0
 24 16  1  0
 25 24  2  0
 26 24  1  0
M  END
$$$$
