KAF.pdb
     RDKit          3D

 26 26  0  0  1  0  0  0  0  0999 V2000
   20.8610  -21.9312  -17.2071 N   0  0  0  0  0  0  0  0  0  0  0  0
   21.1618  -21.3649  -15.8846 C   0  0  1  0  0  0  0  0  0  0  0  0
   21.3020  -19.8770  -16.0933 C   0  0  0  0  0  0  0  0  0  0  0  0
   22.4931  -19.5890  -16.9326 C   0  0  0  0  0  0  0  0  0  0  0  0
   23.6894  -19.1410  -16.0941 C   0  0  0  0  0  0  0  0  0  0  0  0
   24.8094  -18.8546  -17.0768 C   0  0  0  0  0  0  0  0  0  0  0  0
   26.0110  -18.5955  -16.3376 N   0  0  0  0  0  0  0  0  0  0  0  0
   20.0345  -21.6069  -14.9582 C   0  0  0  0  0  0  0  0  0  0  0  0
   19.1716  -20.7347  -14.7143 O   0  0  0  0  0  0  0  0  0  0  0  0
   17.9496  -24.3370  -13.9565 C   0  0  0  0  0  0  0  0  0  0  0  0
   18.7445  -23.1500  -13.4241 C   0  0  2  0  0  0  0  0  0  0  0  0
   19.8825  -22.8795  -14.2878 N   0  0  0  0  0  0  0  0  0  0  0  0
   19.2521  -23.4652  -12.0683 C   0  0  0  0  0  0  0  0  0  0  0  0
   20.2319  -24.2381  -11.8895 O   0  0  0  0  0  0  0  0  0  0  0  0
   18.6615  -22.9130  -10.8982 N   0  0  0  0  0  0  0  0  0  0  0  0
   19.2422  -23.1993   -9.5764 C   0  0  1  0  0  0  0  0  0  0  0  0
   19.6336  -21.8482   -9.0145 C   0  0  0  0  0  0  0  0  0  0  0  0
   20.9034  -21.3300   -9.5297 C   0  0  0  0  0  0  0  0  0  0  0  0
   20.9604  -20.6835  -10.7413 C   0  0  0  0  0  0  0  0  0  0  0  0
   22.1552  -20.1839  -11.2430 C   0  0  0  0  0  0  0  0  0  0  0  0
   23.3113  -20.3455  -10.4982 C   0  0  0  0  0  0  0  0  0  0  0  0
   23.2381  -20.9939   -9.2888 C   0  0  0  0  0  0  0  0  0  0  0  0
   22.0502  -21.4903   -8.7904 C   0  0  0  0  0  0  0  0  0  0  0  0
   18.2270  -23.8990   -8.7715 C   0  0  0  0  0  0  0  0  0  0  0  0
   17.0399  -23.9101   -9.1866 O   0  0  0  0  0  0  0  0  0  0  0  0
   18.4947  -24.5517   -7.5766 O   0  0  0  0  0  0  0  0  0  0  0  0
  2  3  1  0
  2  1  1  6
  4  3  1  0
  5  4  1  0
  6  5  1  0
  7  6  1  0
  8  9  2  0
  8  2  1  0
 11 10  1  6
 11 12  1  0
 12  8  1  0
 13 14  2  0
 13 11  1  0
 15 13  1  0
 16 17  1  1
 16 15  1  0
 18 17  1  0
 18 23  2  0
 19 18  1  0
 20 19  2  0
 20 21  1  0
 21 22  2  0
 22 23  1  0
 24 16  1  0
 25 24  2  0
 26 24  1  0
M  END
$$$$
