KAF.pdb
     RDKit          3D

 26 26  0  0  1  0  0  0  0  0999 V2000
   27.4407  -22.8058  -15.9460 N   0  0  0  0  0  0  0  0  0  0  0  0
   28.2743  -21.6525  -15.5781 C   0  0  1  0  0  0  0  0  0  0  0  0
   28.5776  -20.9320  -16.8688 C   0  0  0  0  0  0  0  0  0  0  0  0
   29.0896  -21.8909  -17.8808 C   0  0  0  0  0  0  0  0  0  0  0  0
   30.4084  -22.5300  -17.4481 C   0  0  0  0  0  0  0  0  0  0  0  0
   30.9125  -23.3102  -18.6478 C   0  0  0  0  0  0  0  0  0  0  0  0
   32.1348  -23.9674  -18.2850 N   0  0  0  0  0  0  0  0  0  0  0  0
   27.5184  -20.7387  -14.6943 C   0  0  0  0  0  0  0  0  0  0  0  0
   27.9346  -19.5954  -14.4031 O   0  0  0  0  0  0  0  0  0  0  0  0
   24.1031  -20.0337  -13.7417 C   0  0  0  0  0  0  0  0  0  0  0  0
   25.5180  -20.2610  -13.2216 C   0  0  2  0  0  0  0  0  0  0  0  0
   26.2503  -21.1356  -14.1232 N   0  0  0  0  0  0  0  0  0  0  0  0
   25.4556  -20.9093  -11.8907 C   0  0  0  0  0  0  0  0  0  0  0  0
   25.5207  -22.1613  -11.7587 O   0  0  0  0  0  0  0  0  0  0  0  0
   25.3190  -20.1541  -10.6932 N   0  0  0  0  0  0  0  0  0  0  0  0
   25.1539  -20.8442   -9.4037 C   0  0  1  0  0  0  0  0  0  0  0  0
   25.5091  -19.8119   -8.3536 C   0  0  0  0  0  0  0  0  0  0  0  0
   26.8693  -19.9388   -7.8246 C   0  0  0  0  0  0  0  0  0  0  0  0
   27.6780  -20.9833   -8.2045 C   0  0  0  0  0  0  0  0  0  0  0  0
   28.9707  -21.1170   -7.7147 C   0  0  0  0  0  0  0  0  0  0  0  0
   29.4477  -20.1710   -6.8229 C   0  0  0  0  0  0  0  0  0  0  0  0
   28.6273  -19.1327   -6.4528 C   0  0  0  0  0  0  0  0  0  0  0  0
   27.3423  -19.0001   -6.9399 C   0  0  0  0  0  0  0  0  0  0  0  0
   23.7635  -21.3202   -9.3135 C   0  0  0  0  0  0  0  0  0  0  0  0
   23.4556  -22.0876   -8.3659 O   0  0  0  0  0  0  0  0  0  0  0  0
   22.7626  -20.9760  -10.2110 O   0  0  0  0  0  0  0  0  0  0  0  0
  2  3  1  0
  2  1  1  6
  4  3  1  0
  5  4  1  0
  6  5  1  0
  7  6  1  0
  8  9  2  0
  8  2  1  0
 11 10  1  6
 11 12  1  0
 12  8  1  0
 13 14  2  0
 13 11  1  0
 15 13  1  0
 16 17  1  1
 16 15  1  0
 18 17  1  0
 18 23  2  0
 19 18  1  0
 20 19  2  0
 20 21  1  0
 21 22  2  0
 22 23  1  0
 24 16  1  0
 25 24  2  0
 26 24  1  0
M  END
$$$$
