KAF.pdb
     RDKit          3D

 26 26  0  0  1  0  0  0  0  0999 V2000
   27.9436  -19.8996  -15.0131 N   0  0  0  0  0  0  0  0  0  0  0  0
   27.8462  -18.7274  -14.1318 C   0  0  1  0  0  0  0  0  0  0  0  0
   27.2935  -17.6124  -14.9852 C   0  0  0  0  0  0  0  0  0  0  0  0
   27.9272  -17.6350  -16.3283 C   0  0  0  0  0  0  0  0  0  0  0  0
   29.1603  -16.7350  -16.3945 C   0  0  0  0  0  0  0  0  0  0  0  0
   29.6629  -16.8131  -17.8241 C   0  0  0  0  0  0  0  0  0  0  0  0
   30.9175  -16.1227  -17.9058 N   0  0  0  0  0  0  0  0  0  0  0  0
   26.8949  -18.9949  -13.0314 C   0  0  0  0  0  0  0  0  0  0  0  0
   26.4500  -18.0848  -12.2973 O   0  0  0  0  0  0  0  0  0  0  0  0
   24.6743  -21.8379  -11.9668 C   0  0  0  0  0  0  0  0  0  0  0  0
   25.5325  -20.6182  -11.6503 C   0  0  2  0  0  0  0  0  0  0  0  0
   26.4344  -20.3379  -12.7559 N   0  0  0  0  0  0  0  0  0  0  0  0
   26.3457  -20.8882  -10.4415 C   0  0  0  0  0  0  0  0  0  0  0  0
   27.4958  -21.3990  -10.5159 O   0  0  0  0  0  0  0  0  0  0  0  0
   25.8722  -20.5855   -9.1350 N   0  0  0  0  0  0  0  0  0  0  0  0
   26.6756  -20.9543   -7.9582 C   0  0  1  0  0  0  0  0  0  0  0  0
   27.6604  -19.8174   -7.7786 C   0  0  0  0  0  0  0  0  0  0  0  0
   28.3367  -19.8100   -6.4791 C   0  0  0  0  0  0  0  0  0  0  0  0
   28.0346  -18.8592   -5.5336 C   0  0  0  0  0  0  0  0  0  0  0  0
   28.6643  -18.8393   -4.2959 C   0  0  0  0  0  0  0  0  0  0  0  0
   29.6176  -19.8041   -4.0165 C   0  0  0  0  0  0  0  0  0  0  0  0
   29.9085  -20.7479   -4.9719 C   0  0  0  0  0  0  0  0  0  0  0  0
   29.2823  -20.7673   -6.2022 C   0  0  0  0  0  0  0  0  0  0  0  0
   25.7627  -21.1272   -6.8159 C   0  0  0  0  0  0  0  0  0  0  0  0
   26.2444  -21.5119   -5.7198 O   0  0  0  0  0  0  0  0  0  0  0  0
   24.3960  -20.8923   -6.8687 O   0  0  0  0  0  0  0  0  0  0  0  0
  2  3  1  0
  2  1  1  6
  4  3  1  0
  5  4  1  0
  6  5  1  0
  7  6  1  0
  8  9  2  0
  8  2  1  0
 11 10  1  6
 11 12  1  0
 12  8  1  0
 13 14  2  0
 13 11  1  0
 15 13  1  0
 16 17  1  1
 16 15  1  0
 18 17  1  0
 18 23  2  0
 19 18  1  0
 20 19  2  0
 20 21  1  0
 21 22  2  0
 22 23  1  0
 24 16  1  0
 25 24  2  0
 26 24  1  0
M  END
$$$$
