KAF.pdb
     RDKit          3D

 26 26  0  0  1  0  0  0  0  0999 V2000
   24.2552  -20.5218  -17.2125 N   0  0  0  0  0  0  0  0  0  0  0  0
   25.3515  -21.4862  -17.0439 C   0  0  1  0  0  0  0  0  0  0  0  0
   26.2293  -21.3325  -18.2616 C   0  0  0  0  0  0  0  0  0  0  0  0
   26.1355  -19.9466  -18.7873 C   0  0  0  0  0  0  0  0  0  0  0  0
   27.0063  -19.7442  -20.0264 C   0  0  0  0  0  0  0  0  0  0  0  0
   26.9354  -18.2645  -20.3546 C   0  0  0  0  0  0  0  0  0  0  0  0
   27.6530  -18.0319  -21.5746 N   0  0  0  0  0  0  0  0  0  0  0  0
   26.1469  -21.1487  -15.8436 C   0  0  0  0  0  0  0  0  0  0  0  0
   27.0428  -21.9024  -15.4026 O   0  0  0  0  0  0  0  0  0  0  0  0
   26.6307  -18.1127  -13.6356 C   0  0  0  0  0  0  0  0  0  0  0  0
   26.6313  -19.6157  -13.8906 C   0  0  2  0  0  0  0  0  0  0  0  0
   25.9178  -19.9168  -15.1213 N   0  0  0  0  0  0  0  0  0  0  0  0
   25.9453  -20.3053  -12.7729 C   0  0  0  0  0  0  0  0  0  0  0  0
   24.7042  -20.5258  -12.7908 O   0  0  0  0  0  0  0  0  0  0  0  0
   26.6502  -20.7545  -11.6220 N   0  0  0  0  0  0  0  0  0  0  0  0
   25.9399  -21.4971  -10.5684 C   0  0  1  0  0  0  0  0  0  0  0  0
   27.0226  -21.9809   -9.6260 C   0  0  0  0  0  0  0  0  0  0  0  0
   27.5042  -20.9601   -8.6920 C   0  0  0  0  0  0  0  0  0  0  0  0
   26.6230  -20.2346   -7.9263 C   0  0  0  0  0  0  0  0  0  0  0  0
   27.0628  -19.2652   -7.0341 C   0  0  0  0  0  0  0  0  0  0  0  0
   28.4228  -19.0310   -6.9200 C   0  0  0  0  0  0  0  0  0  0  0  0
   29.2911  -19.7645   -7.6922 C   0  0  0  0  0  0  0  0  0  0  0  0
   28.8536  -20.7281   -8.5789 C   0  0  0  0  0  0  0  0  0  0  0  0
   24.9744  -20.5834   -9.9350 C   0  0  0  0  0  0  0  0  0  0  0  0
   23.9977  -21.0809   -9.3185 O   0  0  0  0  0  0  0  0  0  0  0  0
   25.0711  -19.1996   -9.9734 O   0  0  0  0  0  0  0  0  0  0  0  0
  2  3  1  0
  2  1  1  6
  4  3  1  0
  5  4  1  0
  6  5  1  0
  7  6  1  0
  8  9  2  0
  8  2  1  0
 11 10  1  1
 11 12  1  0
 12  8  1  0
 13 14  2  0
 13 11  1  0
 15 13  1  0
 16 17  1  1
 16 15  1  0
 18 17  1  0
 18 23  2  0
 19 18  1  0
 20 19  2  0
 20 21  1  0
 21 22  2  0
 22 23  1  0
 24 16  1  0
 25 24  2  0
 26 24  1  0
M  END
$$$$
