KAF.pdb
     RDKit          3D

 26 26  0  0  1  0  0  0  0  0999 V2000
   28.8689  -23.8634  -16.4774 N   0  0  0  0  0  0  0  0  0  0  0  0
   27.4483  -23.9118  -16.8511 C   0  0  1  0  0  0  0  0  0  0  0  0
   26.9214  -25.2175  -16.3084 C   0  0  0  0  0  0  0  0  0  0  0  0
   27.4934  -26.3558  -17.0718 C   0  0  0  0  0  0  0  0  0  0  0  0
   26.8877  -26.4691  -18.4701 C   0  0  0  0  0  0  0  0  0  0  0  0
   27.5143  -27.6978  -19.1027 C   0  0  0  0  0  0  0  0  0  0  0  0
   27.0291  -27.8174  -20.4472 N   0  0  0  0  0  0  0  0  0  0  0  0
   26.7135  -22.8021  -16.2058 C   0  0  0  0  0  0  0  0  0  0  0  0
   26.7881  -22.5770  -14.9775 O   0  0  0  0  0  0  0  0  0  0  0  0
   24.5197  -19.9250  -17.3943 C   0  0  0  0  0  0  0  0  0  0  0  0
   25.0720  -20.8825  -16.3442 C   0  0  2  0  0  0  0  0  0  0  0  0
   25.8676  -21.9205  -16.9798 N   0  0  0  0  0  0  0  0  0  0  0  0
   23.9480  -21.5291  -15.6273 C   0  0  0  0  0  0  0  0  0  0  0  0
   23.5612  -22.6944  -15.9132 O   0  0  0  0  0  0  0  0  0  0  0  0
   23.2470  -20.8699  -14.5800 N   0  0  0  0  0  0  0  0  0  0  0  0
   22.1669  -21.5687  -13.8649 C   0  0  1  0  0  0  0  0  0  0  0  0
   22.8673  -22.5727  -12.9727 C   0  0  0  0  0  0  0  0  0  0  0  0
   23.7302  -21.9696  -11.9539 C   0  0  0  0  0  0  0  0  0  0  0  0
   23.2147  -21.1086  -11.0146 C   0  0  0  0  0  0  0  0  0  0  0  0
   24.0181  -20.5303  -10.0404 C   0  0  0  0  0  0  0  0  0  0  0  0
   25.3690  -20.8340  -10.0226 C   0  0  0  0  0  0  0  0  0  0  0  0
   25.8693  -21.6965  -10.9682 C   0  0  0  0  0  0  0  0  0  0  0  0
   25.0704  -22.2712  -11.9365 C   0  0  0  0  0  0  0  0  0  0  0  0
   21.3858  -20.5661  -13.1215 C   0  0  0  0  0  0  0  0  0  0  0  0
   21.8455  -19.3992  -13.0300 O   0  0  0  0  0  0  0  0  0  0  0  0
   20.1669  -20.8249  -12.5106 O   0  0  0  0  0  0  0  0  0  0  0  0
  2  3  1  0
  2  1  1  1
  4  3  1  0
  5  4  1  0
  6  5  1  0
  7  6  1  0
  8  9  2  0
  8  2  1  0
 11 10  1  6
 11 12  1  0
 12  8  1  0
 13 14  2  0
 13 11  1  0
 15 13  1  0
 16 17  1  1
 16 15  1  0
 18 17  1  0
 18 23  2  0
 19 18  1  0
 20 19  2  0
 20 21  1  0
 21 22  2  0
 22 23  1  0
 24 16  1  0
 25 24  2  0
 26 24  1  0
M  END
$$$$
