KAF.pdb
     RDKit          3D

 26 26  0  0  1  0  0  0  0  0999 V2000
   22.3156  -17.6799  -14.6360 N   0  0  0  0  0  0  0  0  0  0  0  0
   22.5927  -18.4523  -15.8554 C   0  0  1  0  0  0  0  0  0  0  0  0
   21.7385  -17.8387  -16.9375 C   0  0  0  0  0  0  0  0  0  0  0  0
   20.4057  -17.4759  -16.3918 C   0  0  0  0  0  0  0  0  0  0  0  0
   19.5221  -16.8016  -17.4404 C   0  0  0  0  0  0  0  0  0  0  0  0
   18.2908  -16.3110  -16.7018 C   0  0  0  0  0  0  0  0  0  0  0  0
   17.4213  -15.6644  -17.6418 N   0  0  0  0  0  0  0  0  0  0  0  0
   24.0141  -18.3080  -16.2381 C   0  0  0  0  0  0  0  0  0  0  0  0
   24.5021  -18.8967  -17.2282 O   0  0  0  0  0  0  0  0  0  0  0  0
   26.9496  -16.1901  -15.0575 C   0  0  0  0  0  0  0  0  0  0  0  0
   26.3178  -17.3529  -15.8144 C   0  0  2  0  0  0  0  0  0  0  0  0
   24.9093  -17.4690  -15.4723 N   0  0  0  0  0  0  0  0  0  0  0  0
   26.9957  -18.6145  -15.4346 C   0  0  0  0  0  0  0  0  0  0  0  0
   28.0735  -18.9783  -15.9780 O   0  0  0  0  0  0  0  0  0  0  0  0
   26.4669  -19.4806  -14.4381 N   0  0  0  0  0  0  0  0  0  0  0  0
   27.1403  -20.7547  -14.1390 C   0  0  1  0  0  0  0  0  0  0  0  0
   27.7440  -20.5700  -12.7620 C   0  0  0  0  0  0  0  0  0  0  0  0
   26.7569  -20.4269  -11.6891 C   0  0  0  0  0  0  0  0  0  0  0  0
   26.2341  -19.1956  -11.3730 C   0  0  0  0  0  0  0  0  0  0  0  0
   25.2956  -19.0426  -10.3607 C   0  0  0  0  0  0  0  0  0  0  0  0
   24.8827  -20.1625   -9.6586 C   0  0  0  0  0  0  0  0  0  0  0  0
   25.4145  -21.3865   -9.9864 C   0  0  0  0  0  0  0  0  0  0  0  0
   26.3474  -21.5381  -10.9928 C   0  0  0  0  0  0  0  0  0  0  0  0
   26.1360  -21.8296  -14.2011 C   0  0  0  0  0  0  0  0  0  0  0  0
   26.5193  -23.0153  -14.0317 O   0  0  0  0  0  0  0  0  0  0  0  0
   24.7844  -21.6200  -14.4360 O   0  0  0  0  0  0  0  0  0  0  0  0
  2  3  1  0
  2  1  1  1
  4  3  1  0
  5  4  1  0
  6  5  1  0
  7  6  1  0
  8  9  2  0
  8  2  1  0
 11 10  1  1
 11 12  1  0
 12  8  1  0
 13 14  2  0
 13 11  1  0
 15 13  1  0
 16 17  1  1
 16 15  1  0
 18 17  1  0
 18 23  2  0
 19 18  1  0
 20 19  2  0
 20 21  1  0
 21 22  2  0
 22 23  1  0
 24 16  1  0
 25 24  2  0
 26 24  1  0
M  END
$$$$
