KAF.pdb
     RDKit          3D

 26 26  0  0  1  0  0  0  0  0999 V2000
   20.8942  -12.0312  -22.7546 N   0  0  0  0  0  0  0  0  0  0  0  0
   20.9036  -11.8368  -21.2977 C   0  0  1  0  0  0  0  0  0  0  0  0
   21.9974  -12.7309  -20.7675 C   0  0  0  0  0  0  0  0  0  0  0  0
   21.5113  -14.1311  -20.6724 C   0  0  0  0  0  0  0  0  0  0  0  0
   22.5984  -15.0817  -20.1729 C   0  0  0  0  0  0  0  0  0  0  0  0
   21.9899  -16.4713  -20.2035 C   0  0  0  0  0  0  0  0  0  0  0  0
   22.9820  -17.4143  -19.7745 N   0  0  0  0  0  0  0  0  0  0  0  0
   21.2423  -10.4341  -20.9730 C   0  0  0  0  0  0  0  0  0  0  0  0
   21.7146   -9.6472  -21.8232 O   0  0  0  0  0  0  0  0  0  0  0  0
   20.3030   -7.6228  -20.0941 C   0  0  0  0  0  0  0  0  0  0  0  0
   21.2827   -8.5088  -19.3328 C   0  0  2  0  0  0  0  0  0  0  0  0
   21.0381   -9.9086  -19.6411 N   0  0  0  0  0  0  0  0  0  0  0  0
   21.0955   -8.3121  -17.8762 C   0  0  0  0  0  0  0  0  0  0  0  0
   19.9639   -8.4223  -17.3317 O   0  0  0  0  0  0  0  0  0  0  0  0
   22.1815   -7.9890  -17.0164 N   0  0  0  0  0  0  0  0  0  0  0  0
   21.9516   -7.8238  -15.5721 C   0  0  1  0  0  0  0  0  0  0  0  0
   22.4061   -9.1266  -14.9470 C   0  0  0  0  0  0  0  0  0  0  0  0
   23.6660   -9.6431  -15.4874 C   0  0  0  0  0  0  0  0  0  0  0  0
   24.8739   -9.1939  -15.0093 C   0  0  0  0  0  0  0  0  0  0  0  0
   26.0774   -9.6749  -15.5085 C   0  0  0  0  0  0  0  0  0  0  0  0
   26.0501  -10.6294  -16.5114 C   0  0  0  0  0  0  0  0  0  0  0  0
   24.8348  -11.0685  -16.9788 C   0  0  0  0  0  0  0  0  0  0  0  0
   23.6386  -10.5901  -16.4823 C   0  0  0  0  0  0  0  0  0  0  0  0
   22.7202   -6.6535  -15.1166 C   0  0  0  0  0  0  0  0  0  0  0  0
   22.5949   -6.2858  -13.9205 O   0  0  0  0  0  0  0  0  0  0  0  0
   23.5802   -5.9237  -15.9251 O   0  0  0  0  0  0  0  0  0  0  0  0
  2  3  1  0
  2  1  1  6
  4  3  1  0
  5  4  1  0
  6  5  1  0
  7  6  1  0
  8  9  2  0
  8  2  1  0
 11 10  1  6
 11 12  1  0
 12  8  1  0
 13 14  2  0
 13 11  1  0
 15 13  1  0
 16 17  1  1
 16 15  1  0
 18 17  1  0
 18 23  2  0
 19 18  1  0
 20 19  2  0
 20 21  1  0
 21 22  2  0
 22 23  1  0
 24 16  1  0
 25 24  2  0
 26 24  1  0
M  END
$$$$
