KAF.pdb
     RDKit          3D

 26 26  0  0  1  0  0  0  0  0999 V2000
   28.3361  -24.6552  -17.2907 N   0  0  0  0  0  0  0  0  0  0  0  0
   27.3862  -23.5388  -17.3978 C   0  0  1  0  0  0  0  0  0  0  0  0
   26.0238  -24.1678  -17.5570 C   0  0  0  0  0  0  0  0  0  0  0  0
   25.5547  -24.0218  -18.9586 C   0  0  0  0  0  0  0  0  0  0  0  0
   26.3765  -24.8695  -19.9286 C   0  0  0  0  0  0  0  0  0  0  0  0
   25.8190  -24.5879  -21.3114 C   0  0  0  0  0  0  0  0  0  0  0  0
   26.5871  -25.3249  -22.2727 N   0  0  0  0  0  0  0  0  0  0  0  0
   27.3946  -22.7413  -16.1522 C   0  0  0  0  0  0  0  0  0  0  0  0
   27.8211  -23.1993  -15.0689 O   0  0  0  0  0  0  0  0  0  0  0  0
   26.8668  -19.0774  -15.3224 C   0  0  0  0  0  0  0  0  0  0  0  0
   27.0165  -20.5481  -14.9498 C   0  0  2  0  0  0  0  0  0  0  0  0
   26.9034  -21.3810  -16.1363 N   0  0  0  0  0  0  0  0  0  0  0  0
   25.9388  -20.9297  -14.0073 C   0  0  0  0  0  0  0  0  0  0  0  0
   24.7832  -21.2344  -14.4086 O   0  0  0  0  0  0  0  0  0  0  0  0
   26.1510  -20.9723  -12.6015 N   0  0  0  0  0  0  0  0  0  0  0  0
   25.0783  -21.4426  -11.7102 C   0  0  1  0  0  0  0  0  0  0  0  0
   25.7899  -22.0120  -10.5002 C   0  0  0  0  0  0  0  0  0  0  0  0
   26.5429  -21.0217   -9.7267 C   0  0  0  0  0  0  0  0  0  0  0  0
   25.8950  -20.1221   -8.9142 C   0  0  0  0  0  0  0  0  0  0  0  0
   26.5936  -19.1785   -8.1722 C   0  0  0  0  0  0  0  0  0  0  0  0
   27.9754  -19.1509   -8.2593 C   0  0  0  0  0  0  0  0  0  0  0  0
   28.6086  -20.0567   -9.0758 C   0  0  0  0  0  0  0  0  0  0  0  0
   27.9137  -20.9945   -9.8132 C   0  0  0  0  0  0  0  0  0  0  0  0
   24.2085  -20.2970  -11.3955 C   0  0  0  0  0  0  0  0  0  0  0  0
   23.0872  -20.5246  -10.8737 O   0  0  0  0  0  0  0  0  0  0  0  0
   24.5462  -18.9731  -11.6381 O   0  0  0  0  0  0  0  0  0  0  0  0
  2  3  1  0
  2  1  1  1
  4  3  1  0
  5  4  1  0
  6  5  1  0
  7  6  1  0
  8  9  2  0
  8  2  1  0
 11 10  1  6
 11 12  1  0
 12  8  1  0
 13 14  2  0
 13 11  1  0
 15 13  1  0
 16 17  1  1
 16 15  1  0
 18 17  1  0
 18 23  2  0
 19 18  1  0
 20 19  2  0
 20 21  1  0
 21 22  2  0
 22 23  1  0
 24 16  1  0
 25 24  2  0
 26 24  1  0
M  END
$$$$
