KAF.pdb
     RDKit          3D

 26 26  0  0  1  0  0  0  0  0999 V2000
   27.8811  -20.5463  -14.6210 N   0  0  0  0  0  0  0  0  0  0  0  0
   27.9833  -19.2746  -13.8912 C   0  0  1  0  0  0  0  0  0  0  0  0
   27.5852  -18.2003  -14.8732 C   0  0  0  0  0  0  0  0  0  0  0  0
   28.3503  -18.3544  -16.1369 C   0  0  0  0  0  0  0  0  0  0  0  0
   27.9997  -17.2696  -17.1543 C   0  0  0  0  0  0  0  0  0  0  0  0
   28.8710  -17.5328  -18.3683 C   0  0  0  0  0  0  0  0  0  0  0  0
   28.6452  -16.4904  -19.3275 N   0  0  0  0  0  0  0  0  0  0  0  0
   27.0293  -19.2574  -12.7612 C   0  0  0  0  0  0  0  0  0  0  0  0
   26.8396  -18.2369  -12.0628 O   0  0  0  0  0  0  0  0  0  0  0  0
   24.2043  -21.3742  -11.4985 C   0  0  0  0  0  0  0  0  0  0  0  0
   25.3983  -20.4602  -11.2472 C   0  0  2  0  0  0  0  0  0  0  0  0
   26.2667  -20.4361  -12.4132 N   0  0  0  0  0  0  0  0  0  0  0  0
   26.1773  -20.9726  -10.0957 C   0  0  0  0  0  0  0  0  0  0  0  0
   27.3398  -21.4397  -10.2359 O   0  0  0  0  0  0  0  0  0  0  0  0
   25.6551  -20.9646   -8.7727 N   0  0  0  0  0  0  0  0  0  0  0  0
   26.5516  -21.1891   -7.6272 C   0  0  1  0  0  0  0  0  0  0  0  0
   27.5784  -20.0781   -7.7039 C   0  0  0  0  0  0  0  0  0  0  0  0
   28.3794  -19.9173   -6.4879 C   0  0  0  0  0  0  0  0  0  0  0  0
   29.3109  -20.8618   -6.1284 C   0  0  0  0  0  0  0  0  0  0  0  0
   30.0804  -20.7236   -4.9805 C   0  0  0  0  0  0  0  0  0  0  0  0
   29.8979  -19.6045   -4.1855 C   0  0  0  0  0  0  0  0  0  0  0  0
   28.9629  -18.6692   -4.5582 C   0  0  0  0  0  0  0  0  0  0  0  0
   28.1982  -18.8069   -5.6995 C   0  0  0  0  0  0  0  0  0  0  0  0
   25.7416  -21.1571   -6.3981 C   0  0  0  0  0  0  0  0  0  0  0  0
   26.2749  -21.5297   -5.3218 O   0  0  0  0  0  0  0  0  0  0  0  0
   24.4190  -20.7401   -6.3476 O   0  0  0  0  0  0  0  0  0  0  0  0
  2  3  1  0
  2  1  1  6
  4  3  1  0
  5  4  1  0
  6  5  1  0
  7  6  1  0
  8  9  2  0
  8  2  1  0
 11 10  1  6
 11 12  1  0
 12  8  1  0
 13 14  2  0
 13 11  1  0
 15 13  1  0
 16 17  1  1
 16 15  1  0
 18 17  1  0
 18 23  2  0
 19 18  1  0
 20 19  2  0
 20 21  1  0
 21 22  2  0
 22 23  1  0
 24 16  1  0
 25 24  2  0
 26 24  1  0
M  END
$$$$
