KAF.pdb
     RDKit          3D

 26 26  0  0  1  0  0  0  0  0999 V2000
   23.3041  -18.9624  -14.7235 N   0  0  0  0  0  0  0  0  0  0  0  0
   23.0896  -20.3699  -14.3584 C   0  0  1  0  0  0  0  0  0  0  0  0
   22.3743  -20.9973  -15.5296 C   0  0  0  0  0  0  0  0  0  0  0  0
   20.9761  -20.5013  -15.5994 C   0  0  0  0  0  0  0  0  0  0  0  0
   20.3437  -20.3750  -14.2141 C   0  0  0  0  0  0  0  0  0  0  0  0
   18.9014  -19.9643  -14.4449 C   0  0  0  0  0  0  0  0  0  0  0  0
   18.2522  -19.8404  -13.1718 N   0  0  0  0  0  0  0  0  0  0  0  0
   24.3888  -21.0533  -14.1782 C   0  0  0  0  0  0  0  0  0  0  0  0
   24.4703  -22.2714  -13.9049 O   0  0  0  0  0  0  0  0  0  0  0  0
   28.0452  -20.0740  -14.6176 C   0  0  0  0  0  0  0  0  0  0  0  0
   26.9178  -21.0007  -14.1767 C   0  0  2  0  0  0  0  0  0  0  0  0
   25.6345  -20.3308  -14.3127 N   0  0  0  0  0  0  0  0  0  0  0  0
   27.1065  -21.3631  -12.7524 C   0  0  0  0  0  0  0  0  0  0  0  0
   27.9794  -22.1973  -12.3898 O   0  0  0  0  0  0  0  0  0  0  0  0
   26.3135  -20.7896  -11.7203 N   0  0  0  0  0  0  0  0  0  0  0  0
   26.6325  -21.0639  -10.3099 C   0  0  1  0  0  0  0  0  0  0  0  0
   27.5415  -19.9303   -9.8816 C   0  0  0  0  0  0  0  0  0  0  0  0
   27.9028  -19.9556   -8.4621 C   0  0  0  0  0  0  0  0  0  0  0  0
   27.2787  -19.1254   -7.5619 C   0  0  0  0  0  0  0  0  0  0  0  0
   27.6073  -19.1384   -6.2125 C   0  0  0  0  0  0  0  0  0  0  0  0
   28.5880  -20.0116   -5.7728 C   0  0  0  0  0  0  0  0  0  0  0  0
   29.2027  -20.8352   -6.6849 C   0  0  0  0  0  0  0  0  0  0  0  0
   28.8758  -20.8220   -8.0262 C   0  0  0  0  0  0  0  0  0  0  0  0
   25.3685  -21.1204   -9.5567 C   0  0  0  0  0  0  0  0  0  0  0  0
   25.4053  -21.4923   -8.3560 O   0  0  0  0  0  0  0  0  0  0  0  0
   24.1301  -20.7883  -10.0876 O   0  0  0  0  0  0  0  0  0  0  0  0
  2  3  1  0
  2  1  1  6
  4  3  1  0
  5  4  1  0
  6  5  1  0
  7  6  1  0
  8  9  2  0
  8  2  1  0
 11 10  1  1
 11 12  1  0
 12  8  1  0
 13 14  2  0
 13 11  1  0
 15 13  1  0
 16 17  1  1
 16 15  1  0
 18 17  1  0
 18 23  2  0
 19 18  1  0
 20 19  2  0
 20 21  1  0
 21 22  2  0
 22 23  1  0
 24 16  1  0
 25 24  2  0
 26 24  1  0
M  END
$$$$
