KAM.pdb
     RDKit          3D

 23 22  0  0  1  0  0  0  0  0999 V2000
   28.3581  -32.7153  -14.4155 N   0  0  0  0  0  0  0  0  0  0  0  0
   27.7417  -32.9539  -15.7055 C   0  0  1  0  0  0  0  0  0  0  0  0
   26.2467  -32.7358  -15.6092 C   0  0  0  0  0  0  0  0  0  0  0  0
   25.7238  -32.9705  -14.2277 C   0  0  0  0  0  0  0  0  0  0  0  0
   25.2651  -34.4045  -14.1007 C   0  0  0  0  0  0  0  0  0  0  0  0
   23.7665  -34.4664  -13.8953 C   0  0  0  0  0  0  0  0  0  0  0  0
   23.2886  -35.8285  -13.8329 N   0  0  0  0  0  0  0  0  0  0  0  0
   28.3577  -32.0691  -16.7266 C   0  0  0  0  0  0  0  0  0  0  0  0
   28.3572  -32.3624  -17.9535 O   0  0  0  0  0  0  0  0  0  0  0  0
   29.4835  -28.4980  -17.0193 C   0  0  0  0  0  0  0  0  0  0  0  0
   29.5302  -29.9458  -17.4238 C   0  0  2  0  0  0  0  0  0  0  0  0
   28.9951  -30.8230  -16.3944 N   0  0  0  0  0  0  0  0  0  0  0  0
   30.8944  -30.3725  -17.8374 C   0  0  0  0  0  0  0  0  0  0  0  0
   31.7699  -30.5489  -16.9527 O   0  0  0  0  0  0  0  0  0  0  0  0
   35.1690  -35.3865  -21.6858 C   0  0  0  0  0  0  0  0  0  0  0  0
   33.5761  -34.6724  -21.2575 S   0  0  0  0  0  0  0  0  0  0  0  0
   33.7296  -32.9850  -20.6271 C   0  0  0  0  0  0  0  0  0  0  0  0
   32.3976  -32.4442  -20.1536 C   0  0  0  0  0  0  0  0  0  0  0  0
   32.5614  -31.0131  -19.6274 C   0  0  2  0  0  0  0  0  0  0  0  0
   31.2496  -30.5894  -19.1913 N   0  0  0  0  0  0  0  0  0  0  0  0
   33.0680  -30.1898  -20.7481 C   0  0  0  0  0  0  0  0  0  0  0  0
   34.2796  -29.8614  -20.7404 O   0  0  0  0  0  0  0  0  0  0  0  0
   32.2879  -29.7586  -21.8055 O   0  0  0  0  0  0  0  0  0  0  0  0
  2  1  1  1
  2  8  1  0
  2  3  1  0
  4  3  1  0
  5  4  1  0
  6  5  1  0
  7  6  1  0
  8 12  1  0
  8  9  2  0
 11 10  1  1
 12 11  1  0
 13 14  2  0
 13 11  1  0
 16 17  1  0
 16 15  1  0
 17 18  1  0
 19 18  1  6
 19 20  1  0
 20 13  1  0
 21 19  1  0
 22 21  2  0
 23 21  1  0
M  END
$$$$
