KAM.pdb
     RDKit          3D

 23 22  0  0  1  0  0  0  0  0999 V2000
   27.6588  -23.0581  -14.8040 N   0  0  0  0  0  0  0  0  0  0  0  0
   28.2078  -22.2939  -15.9064 C   0  0  1  0  0  0  0  0  0  0  0  0
   27.6432  -22.8022  -17.2160 C   0  0  0  0  0  0  0  0  0  0  0  0
   28.3132  -24.0576  -17.6769 C   0  0  0  0  0  0  0  0  0  0  0  0
   27.6492  -25.2493  -17.0274 C   0  0  0  0  0  0  0  0  0  0  0  0
   28.3234  -26.5339  -17.4600 C   0  0  0  0  0  0  0  0  0  0  0  0
   27.7021  -27.6939  -16.8635 N   0  0  0  0  0  0  0  0  0  0  0  0
   27.9167  -20.8511  -15.7101 C   0  0  0  0  0  0  0  0  0  0  0  0
   28.0261  -20.0133  -16.6468 O   0  0  0  0  0  0  0  0  0  0  0  0
   25.1847  -20.3777  -15.2873 C   0  0  0  0  0  0  0  0  0  0  0  0
   26.1256  -19.8567  -14.2361 C   0  0  2  0  0  0  0  0  0  0  0  0
   27.4922  -20.3073  -14.4477 N   0  0  0  0  0  0  0  0  0  0  0  0
   25.6629  -20.1733  -12.8577 C   0  0  0  0  0  0  0  0  0  0  0  0
   24.5004  -19.8389  -12.5154 O   0  0  0  0  0  0  0  0  0  0  0  0
   27.1166  -19.4188   -5.4182 C   0  0  0  0  0  0  0  0  0  0  0  0
   27.3721  -19.0942   -7.1674 S   0  0  0  0  0  0  0  0  0  0  0  0
   26.5049  -20.2826   -8.2181 C   0  0  0  0  0  0  0  0  0  0  0  0
   26.8811  -20.1165   -9.6747 C   0  0  0  0  0  0  0  0  0  0  0  0
   26.0889  -21.1004  -10.5442 C   0  0  2  0  0  0  0  0  0  0  0  0
   26.4801  -20.8385  -11.9112 N   0  0  0  0  0  0  0  0  0  0  0  0
   24.6522  -20.8287  -10.3149 C   0  0  0  0  0  0  0  0  0  0  0  0
   24.0231  -21.5883   -9.5383 O   0  0  0  0  0  0  0  0  0  0  0  0
   23.9581  -19.7878  -10.9043 O   0  0  0  0  0  0  0  0  0  0  0  0
  2  1  1  1
  2  8  1  0
  2  3  1  0
  4  3  1  0
  5  4  1  0
  6  5  1  0
  7  6  1  0
  8 12  1  0
  8  9  2  0
 11 10  1  6
 12 11  1  0
 13 14  2  0
 13 11  1  0
 16 17  1  0
 16 15  1  0
 17 18  1  0
 19 18  1  1
 19 20  1  0
 20 13  1  0
 21 19  1  0
 22 21  2  0
 23 21  1  0
M  END
$$$$
