KAM.pdb
     RDKit          3D

 23 22  0  0  1  0  0  0  0  0999 V2000
   22.5324  -26.4059  -18.7650 N   0  0  0  0  0  0  0  0  0  0  0  0
   23.0831  -25.8961  -17.5250 C   0  0  1  0  0  0  0  0  0  0  0  0
   22.8755  -26.9062  -16.4165 C   0  0  0  0  0  0  0  0  0  0  0  0
   22.7978  -28.3088  -16.9301 C   0  0  0  0  0  0  0  0  0  0  0  0
   24.0261  -29.0726  -16.4937 C   0  0  0  0  0  0  0  0  0  0  0  0
   23.9253  -30.5242  -16.9120 C   0  0  0  0  0  0  0  0  0  0  0  0
   25.1622  -31.2357  -16.6854 N   0  0  0  0  0  0  0  0  0  0  0  0
   24.5214  -25.5762  -17.7094 C   0  0  0  0  0  0  0  0  0  0  0  0
   25.2066  -26.0876  -18.6370 O   0  0  0  0  0  0  0  0  0  0  0  0
   27.0013  -22.9925  -16.5311 C   0  0  0  0  0  0  0  0  0  0  0  0
   26.6315  -24.3417  -17.0829 C   0  0  2  0  0  0  0  0  0  0  0  0
   25.2331  -24.6675  -16.8509 N   0  0  0  0  0  0  0  0  0  0  0  0
   27.5249  -25.4208  -16.5812 C   0  0  0  0  0  0  0  0  0  0  0  0
   27.1880  -26.0585  -15.5515 O   0  0  0  0  0  0  0  0  0  0  0  0
   28.1769  -31.8112  -15.8344 C   0  0  0  0  0  0  0  0  0  0  0  0
   28.5720  -30.8902  -17.3264 S   0  0  0  0  0  0  0  0  0  0  0  0
   29.5359  -29.4013  -16.9767 C   0  0  0  0  0  0  0  0  0  0  0  0
   28.7216  -28.1453  -17.2007 C   0  0  0  0  0  0  0  0  0  0  0  0
   29.5540  -26.9037  -16.8584 C   0  0  2  0  0  0  0  0  0  0  0  0
   28.7437  -25.7613  -17.2174 N   0  0  0  0  0  0  0  0  0  0  0  0
   30.7979  -26.9765  -17.6571 C   0  0  0  0  0  0  0  0  0  0  0  0
   30.7719  -26.5395  -18.8337 O   0  0  0  0  0  0  0  0  0  0  0  0
   31.9897  -27.4973  -17.1870 O   0  0  0  0  0  0  0  0  0  0  0  0
  2  1  1  6
  2  8  1  0
  2  3  1  0
  4  3  1  0
  5  4  1  0
  6  5  1  0
  7  6  1  0
  8 12  1  0
  8  9  2  0
 11 10  1  1
 12 11  1  0
 13 14  2  0
 13 11  1  0
 16 17  1  0
 16 15  1  0
 17 18  1  0
 19 18  1  6
 19 20  1  0
 20 13  1  0
 21 19  1  0
 22 21  2  0
 23 21  1  0
M  END
$$$$
