KAM.pdb
     RDKit          3D

 23 22  0  0  1  0  0  0  0  0999 V2000
   33.2064  -25.8896  -16.3672 N   0  0  0  0  0  0  0  0  0  0  0  0
   32.0852  -25.0579  -16.7572 C   0  0  1  0  0  0  0  0  0  0  0  0
   32.1331  -24.7961  -18.2476 C   0  0  0  0  0  0  0  0  0  0  0  0
   32.8977  -23.5555  -18.5845 C   0  0  0  0  0  0  0  0  0  0  0  0
   31.9307  -22.4501  -18.9395 C   0  0  0  0  0  0  0  0  0  0  0  0
   32.3333  -21.7903  -20.2413 C   0  0  0  0  0  0  0  0  0  0  0  0
   31.4297  -20.7230  -20.6045 N   0  0  0  0  0  0  0  0  0  0  0  0
   30.8133  -25.7124  -16.3587 C   0  0  0  0  0  0  0  0  0  0  0  0
   30.7821  -26.8821  -15.8874 O   0  0  0  0  0  0  0  0  0  0  0  0
   27.1193  -24.8104  -16.1067 C   0  0  0  0  0  0  0  0  0  0  0  0
   28.3043  -25.7362  -16.0868 C   0  0  2  0  0  0  0  0  0  0  0  0
   29.5338  -25.0660  -16.4800 N   0  0  0  0  0  0  0  0  0  0  0  0
   28.0768  -26.9616  -16.8999 C   0  0  0  0  0  0  0  0  0  0  0  0
   28.2588  -26.9084  -18.1427 O   0  0  0  0  0  0  0  0  0  0  0  0
   27.9184  -34.8566  -16.5223 C   0  0  0  0  0  0  0  0  0  0  0  0
   27.8574  -33.2770  -15.6671 S   0  0  0  0  0  0  0  0  0  0  0  0
   27.5861  -31.8949  -16.8004 C   0  0  0  0  0  0  0  0  0  0  0  0
   27.7140  -30.5623  -16.0942 C   0  0  0  0  0  0  0  0  0  0  0  0
   27.4824  -29.4124  -17.0820 C   0  0  2  0  0  0  0  0  0  0  0  0
   27.6623  -28.1904  -16.3305 N   0  0  0  0  0  0  0  0  0  0  0  0
   26.1022  -29.5500  -17.5983 C   0  0  0  0  0  0  0  0  0  0  0  0
   25.1844  -28.9319  -17.0054 O   0  0  0  0  0  0  0  0  0  0  0  0
   25.7598  -30.3189  -18.6957 O   0  0  0  0  0  0  0  0  0  0  0  0
  2  1  1  6
  2  8  1  0
  2  3  1  0
  4  3  1  0
  5  4  1  0
  6  5  1  0
  7  6  1  0
  8 12  1  0
  8  9  2  0
 11 10  1  6
 12 11  1  0
 13 14  2  0
 13 11  1  0
 16 17  1  0
 16 15  1  0
 17 18  1  0
 19 18  1  1
 19 20  1  0
 20 13  1  0
 21 19  1  0
 22 21  2  0
 23 21  1  0
M  END
$$$$
