KAM.pdb
     RDKit          3D

 23 22  0  0  1  0  0  0  0  0999 V2000
   24.3890  -20.5184  -16.6194 N   0  0  0  0  0  0  0  0  0  0  0  0
   24.4829  -19.7405  -15.4000 C   0  0  1  0  0  0  0  0  0  0  0  0
   23.1063  -19.5650  -14.7948 C   0  0  0  0  0  0  0  0  0  0  0  0
   22.0128  -19.9098  -15.7553 C   0  0  0  0  0  0  0  0  0  0  0  0
   21.2627  -21.1199  -15.2494 C   0  0  0  0  0  0  0  0  0  0  0  0
   19.7743  -20.8453  -15.2134 C   0  0  0  0  0  0  0  0  0  0  0  0
   19.4621  -19.6807  -14.4172 N   0  0  0  0  0  0  0  0  0  0  0  0
   25.4149  -20.4035  -14.4531 C   0  0  0  0  0  0  0  0  0  0  0  0
   25.3479  -21.6381  -14.2029 O   0  0  0  0  0  0  0  0  0  0  0  0
   28.7190  -19.8164  -12.8147 C   0  0  0  0  0  0  0  0  0  0  0  0
   27.3167  -20.3594  -12.7946 C   0  0  2  0  0  0  0  0  0  0  0  0
   26.4538  -19.6925  -13.7570 N   0  0  0  0  0  0  0  0  0  0  0  0
   26.7212  -20.3341  -11.4312 C   0  0  0  0  0  0  0  0  0  0  0  0
   26.2120  -19.2644  -11.0105 O   0  0  0  0  0  0  0  0  0  0  0  0
   28.3651  -19.9224   -4.5006 C   0  0  0  0  0  0  0  0  0  0  0  0
   27.8713  -19.2633   -6.0981 S   0  0  0  0  0  0  0  0  0  0  0  0
   26.7988  -20.4007   -7.0061 C   0  0  0  0  0  0  0  0  0  0  0  0
   27.2020  -20.5044   -8.4613 C   0  0  0  0  0  0  0  0  0  0  0  0
   26.2531  -21.4480   -9.2101 C   0  0  2  0  0  0  0  0  0  0  0  0
   26.7035  -21.4689  -10.5838 N   0  0  0  0  0  0  0  0  0  0  0  0
   24.8884  -20.8902   -9.0805 C   0  0  0  0  0  0  0  0  0  0  0  0
   24.4435  -20.1900  -10.0227 O   0  0  0  0  0  0  0  0  0  0  0  0
   24.0710  -21.0926   -7.9834 O   0  0  0  0  0  0  0  0  0  0  0  0
  2  1  1  6
  2  8  1  0
  2  3  1  0
  4  3  1  0
  5  4  1  0
  6  5  1  0
  7  6  1  0
  8 12  1  0
  8  9  2  0
 11 10  1  1
 12 11  1  0
 13 14  2  0
 13 11  1  0
 16 17  1  0
 16 15  1  0
 17 18  1  0
 19 18  1  1
 19 20  1  0
 20 13  1  0
 21 19  1  0
 22 21  2  0
 23 21  1  0
M  END
$$$$
