KAM.pdb
     RDKit          3D

 23 22  0  0  1  0  0  0  0  0999 V2000
   18.9654  -12.1023  -18.8280 N   0  0  0  0  0  0  0  0  0  0  0  0
   18.1792  -11.4090  -17.8271 C   0  0  1  0  0  0  0  0  0  0  0  0
   18.0889  -12.2496  -16.5712 C   0  0  0  0  0  0  0  0  0  0  0  0
   17.3728  -13.5426  -16.8006 C   0  0  0  0  0  0  0  0  0  0  0  0
   17.4470  -14.3869  -15.5497 C   0  0  0  0  0  0  0  0  0  0  0  0
   16.9095  -15.7772  -15.8150 C   0  0  0  0  0  0  0  0  0  0  0  0
   17.0966  -16.6511  -14.6796 N   0  0  0  0  0  0  0  0  0  0  0  0
   18.7790  -10.0789  -17.5515 C   0  0  0  0  0  0  0  0  0  0  0  0
   20.0136   -9.8603  -17.6908 O   0  0  0  0  0  0  0  0  0  0  0  0
   17.5767   -6.5468  -16.8430 C   0  0  0  0  0  0  0  0  0  0  0  0
   18.6056   -7.6408  -16.9230 C   0  0  2  0  0  0  0  0  0  0  0  0
   18.0029   -8.9514  -17.1090 N   0  0  0  0  0  0  0  0  0  0  0  0
   19.5280   -7.6345  -15.7554 C   0  0  0  0  0  0  0  0  0  0  0  0
   19.4585   -8.5726  -14.9214 O   0  0  0  0  0  0  0  0  0  0  0  0
   26.4575   -9.2766  -14.1812 C   0  0  0  0  0  0  0  0  0  0  0  0
   24.9571   -9.1018  -15.1553 S   0  0  0  0  0  0  0  0  0  0  0  0
   23.8096   -7.9042  -14.4363 C   0  0  0  0  0  0  0  0  0  0  0  0
   22.5609   -7.7544  -15.2784 C   0  0  0  0  0  0  0  0  0  0  0  0
   21.6117   -6.7302  -14.6447 C   0  0  2  0  0  0  0  0  0  0  0  0
   20.4850   -6.6122  -15.5431 N   0  0  0  0  0  0  0  0  0  0  0  0
   22.3592   -5.4590  -14.5197 C   0  0  0  0  0  0  0  0  0  0  0  0
   22.4556   -4.7271  -15.5350 O   0  0  0  0  0  0  0  0  0  0  0  0
   22.9597   -5.0263  -13.3514 O   0  0  0  0  0  0  0  0  0  0  0  0
  2  1  1  6
  2  8  1  0
  2  3  1  0
  4  3  1  0
  5  4  1  0
  6  5  1  0
  7  6  1  0
  8 12  1  0
  8  9  2  0
 11 10  1  1
 12 11  1  0
 13 14  2  0
 13 11  1  0
 16 17  1  0
 16 15  1  0
 17 18  1  0
 19 18  1  6
 19 20  1  0
 20 13  1  0
 21 19  1  0
 22 21  2  0
 23 21  1  0
M  END
$$$$
