KAM.pdb
     RDKit          3D

 23 22  0  0  1  0  0  0  0  0999 V2000
   20.8666  -20.7246  -12.1622 N   0  0  0  0  0  0  0  0  0  0  0  0
   21.6839  -21.2674  -13.2291 C   0  0  1  0  0  0  0  0  0  0  0  0
   21.0028  -21.0449  -14.5627 C   0  0  0  0  0  0  0  0  0  0  0  0
   19.7100  -21.7890  -14.6741 C   0  0  0  0  0  0  0  0  0  0  0  0
   19.9922  -23.2533  -14.9171 C   0  0  0  0  0  0  0  0  0  0  0  0
   18.7071  -24.0019  -15.1999 C   0  0  0  0  0  0  0  0  0  0  0  0
   18.9346  -25.4202  -15.3549 N   0  0  0  0  0  0  0  0  0  0  0  0
   23.0317  -20.6451  -13.1941 C   0  0  0  0  0  0  0  0  0  0  0  0
   23.1980  -19.4020  -13.3300 O   0  0  0  0  0  0  0  0  0  0  0  0
   26.5972  -21.5486  -12.3394 C   0  0  0  0  0  0  0  0  0  0  0  0
   25.5497  -20.7908  -13.1077 C   0  0  2  0  0  0  0  0  0  0  0  0
   24.2366  -21.4077  -13.0045 N   0  0  0  0  0  0  0  0  0  0  0  0
   25.9343  -20.5807  -14.5297 C   0  0  0  0  0  0  0  0  0  0  0  0
   25.5363  -21.4021  -15.3942 O   0  0  0  0  0  0  0  0  0  0  0  0
   28.7077  -14.9491  -16.6023 C   0  0  0  0  0  0  0  0  0  0  0  0
   29.3995  -16.1276  -17.7699 S   0  0  0  0  0  0  0  0  0  0  0  0
   28.5837  -17.7384  -17.6812 C   0  0  0  0  0  0  0  0  0  0  0  0
   27.9631  -17.9743  -16.3210 C   0  0  0  0  0  0  0  0  0  0  0  0
   27.2003  -19.3045  -16.3079 C   0  0  2  0  0  0  0  0  0  0  0  0
   26.7331  -19.4901  -14.9522 N   0  0  0  0  0  0  0  0  0  0  0  0
   28.1536  -20.3600  -16.7172 C   0  0  0  0  0  0  0  0  0  0  0  0
   28.1433  -20.7342  -17.9154 O   0  0  0  0  0  0  0  0  0  0  0  0
   29.0571  -20.9612  -15.8598 O   0  0  0  0  0  0  0  0  0  0  0  0
  2  1  1  1
  2  8  1  0
  2  3  1  0
  4  3  1  0
  5  4  1  0
  6  5  1  0
  7  6  1  0
  8 12  1  0
  8  9  2  0
 11 10  1  6
 12 11  1  0
 13 14  2  0
 13 11  1  0
 16 17  1  0
 16 15  1  0
 17 18  1  0
 19 18  1  1
 19 20  1  0
 20 13  1  0
 21 19  1  0
 22 21  2  0
 23 21  1  0
M  END
$$$$
