KAM.pdb
     RDKit          3D

 23 22  0  0  1  0  0  0  0  0999 V2000
   25.8814  -17.9435  -17.5493 N   0  0  0  0  0  0  0  0  0  0  0  0
   24.8176  -18.8034  -17.0699 C   0  0  1  0  0  0  0  0  0  0  0  0
   24.2866  -19.6480  -18.2087 C   0  0  0  0  0  0  0  0  0  0  0  0
   23.6381  -18.8243  -19.2755 C   0  0  0  0  0  0  0  0  0  0  0  0
   22.8363  -17.7147  -18.6361 C   0  0  0  0  0  0  0  0  0  0  0  0
   22.0547  -16.9521  -19.6847 C   0  0  0  0  0  0  0  0  0  0  0  0
   21.3014  -15.8631  -19.1067 N   0  0  0  0  0  0  0  0  0  0  0  0
   25.3181  -19.6450  -15.9536 C   0  0  0  0  0  0  0  0  0  0  0  0
   24.5503  -20.3792  -15.2734 O   0  0  0  0  0  0  0  0  0  0  0  0
   28.6574  -20.6308  -14.4191 C   0  0  0  0  0  0  0  0  0  0  0  0
   27.1595  -20.5007  -14.4548 C   0  0  2  0  0  0  0  0  0  0  0  0
   26.7038  -19.6844  -15.5690 N   0  0  0  0  0  0  0  0  0  0  0  0
   26.6049  -20.0073  -13.1652 C   0  0  0  0  0  0  0  0  0  0  0  0
   26.7593  -18.7973  -12.8610 O   0  0  0  0  0  0  0  0  0  0  0  0
   21.1237  -20.5797  -14.0657 C   0  0  0  0  0  0  0  0  0  0  0  0
   22.0020  -21.2628  -12.6542 S   0  0  0  0  0  0  0  0  0  0  0  0
   23.2823  -20.1450  -12.0382 C   0  0  0  0  0  0  0  0  0  0  0  0
   23.9990  -20.7264  -10.8385 C   0  0  0  0  0  0  0  0  0  0  0  0
   25.5042  -20.4486  -10.9320 C   0  0  2  0  0  0  0  0  0  0  0  0
   25.9076  -20.8466  -12.2622 N   0  0  0  0  0  0  0  0  0  0  0  0
   26.1650  -21.2588   -9.8845 C   0  0  0  0  0  0  0  0  0  0  0  0
   25.8981  -21.0054   -8.6843 O   0  0  0  0  0  0  0  0  0  0  0  0
   27.0602  -22.2800  -10.1461 O   0  0  0  0  0  0  0  0  0  0  0  0
  2  1  1  6
  2  8  1  0
  2  3  1  0
  4  3  1  0
  5  4  1  0
  6  5  1  0
  7  6  1  0
  8 12  1  0
  8  9  2  0
 11 10  1  1
 12 11  1  0
 13 14  2  0
 13 11  1  0
 16 17  1  0
 16 15  1  0
 17 18  1  0
 19 18  1  6
 19 20  1  0
 20 13  1  0
 21 19  1  0
 22 21  2  0
 23 21  1  0
M  END
$$$$
