KAM.pdb
     RDKit          3D

 23 22  0  0  1  0  0  0  0  0999 V2000
   24.3812  -23.1902  -17.4735 N   0  0  0  0  0  0  0  0  0  0  0  0
   25.3001  -22.8970  -16.3916 C   0  0  1  0  0  0  0  0  0  0  0  0
   26.1965  -21.7397  -16.7778 C   0  0  0  0  0  0  0  0  0  0  0  0
   27.1329  -22.0901  -17.8903 C   0  0  0  0  0  0  0  0  0  0  0  0
   28.0600  -20.9262  -18.1522 C   0  0  0  0  0  0  0  0  0  0  0  0
   29.0035  -21.2451  -19.2925 C   0  0  0  0  0  0  0  0  0  0  0  0
   29.1933  -20.1100  -20.1661 N   0  0  0  0  0  0  0  0  0  0  0  0
   24.5374  -22.6062  -15.1512 C   0  0  0  0  0  0  0  0  0  0  0  0
   23.4104  -22.0399  -15.1763 O   0  0  0  0  0  0  0  0  0  0  0  0
   25.2934  -22.6926  -11.4121 C   0  0  0  0  0  0  0  0  0  0  0  0
   24.6666  -22.1589  -12.6707 C   0  0  2  0  0  0  0  0  0  0  0  0
   25.0237  -22.9460  -13.8406 N   0  0  0  0  0  0  0  0  0  0  0  0
   24.9651  -20.7166  -12.8821 C   0  0  0  0  0  0  0  0  0  0  0  0
   24.3902  -19.8648  -12.1578 O   0  0  0  0  0  0  0  0  0  0  0  0
   30.2547  -19.9763  -11.6260 C   0  0  0  0  0  0  0  0  0  0  0  0
   29.3927  -18.4684  -11.1636 S   0  0  0  0  0  0  0  0  0  0  0  0
   27.7736  -18.3349  -11.9565 C   0  0  0  0  0  0  0  0  0  0  0  0
   27.7833  -18.9329  -13.3469 C   0  0  0  0  0  0  0  0  0  0  0  0
   26.3725  -18.9061  -13.9473 C   0  0  2  0  0  0  0  0  0  0  0  0
   25.8732  -20.2607  -13.8688 N   0  0  0  0  0  0  0  0  0  0  0  0
   26.5008  -18.4405  -15.3463 C   0  0  0  0  0  0  0  0  0  0  0  0
   26.8200  -17.2427  -15.5443 O   0  0  0  0  0  0  0  0  0  0  0  0
   26.2903  -19.2447  -16.4516 O   0  0  0  0  0  0  0  0  0  0  0  0
  2  1  1  6
  2  8  1  0
  2  3  1  0
  4  3  1  0
  5  4  1  0
  6  5  1  0
  7  6  1  0
  8 12  1  0
  8  9  2  0
 11 10  1  1
 12 11  1  0
 13 14  2  0
 13 11  1  0
 16 17  1  0
 16 15  1  0
 17 18  1  0
 19 18  1  6
 19 20  1  0
 20 13  1  0
 21 19  1  0
 22 21  2  0
 23 21  1  0
M  END
$$$$
