KAM.pdb
     RDKit          3D

 23 22  0  0  1  0  0  0  0  0999 V2000
   21.6192  -14.3497  -18.8912 N   0  0  0  0  0  0  0  0  0  0  0  0
   20.9226  -13.1221  -19.2208 C   0  0  1  0  0  0  0  0  0  0  0  0
   19.4275  -13.3602  -19.2091 C   0  0  0  0  0  0  0  0  0  0  0  0
   19.0091  -14.4081  -20.1910 C   0  0  0  0  0  0  0  0  0  0  0  0
   18.5632  -15.6449  -19.4465 C   0  0  0  0  0  0  0  0  0  0  0  0
   18.0908  -16.7071  -20.4164 C   0  0  0  0  0  0  0  0  0  0  0  0
   17.6514  -17.9016  -19.7328 N   0  0  0  0  0  0  0  0  0  0  0  0
   21.3125  -12.0530  -18.2669 C   0  0  0  0  0  0  0  0  0  0  0  0
   21.1792  -12.1884  -17.0198 O   0  0  0  0  0  0  0  0  0  0  0  0
   23.0625   -8.6747  -18.3627 C   0  0  0  0  0  0  0  0  0  0  0  0
   22.2513   -9.7724  -17.7312 C   0  0  2  0  0  0  0  0  0  0  0  0
   21.8660  -10.7949  -18.6913 N   0  0  0  0  0  0  0  0  0  0  0  0
   21.0662   -9.2489  -16.9994 C   0  0  0  0  0  0  0  0  0  0  0  0
   19.9792   -9.1189  -17.6175 O   0  0  0  0  0  0  0  0  0  0  0  0
   17.1836   -9.1715  -10.2359 C   0  0  0  0  0  0  0  0  0  0  0  0
   18.4914   -9.7796  -11.3084 S   0  0  0  0  0  0  0  0  0  0  0  0
   18.6885   -8.7641  -12.7910 C   0  0  0  0  0  0  0  0  0  0  0  0
   19.8041   -9.2794  -13.6747 C   0  0  0  0  0  0  0  0  0  0  0  0
   19.9838   -8.3646  -14.8923 C   0  0  2  0  0  0  0  0  0  0  0  0
   21.1111   -8.8893  -15.6301 N   0  0  0  0  0  0  0  0  0  0  0  0
   20.2403   -6.9998  -14.3806 C   0  0  0  0  0  0  0  0  0  0  0  0
   21.4330   -6.6245  -14.2685 O   0  0  0  0  0  0  0  0  0  0  0  0
   19.2457   -6.1102  -14.0173 O   0  0  0  0  0  0  0  0  0  0  0  0
  2  1  1  1
  2  8  1  0
  2  3  1  0
  4  3  1  0
  5  4  1  0
  6  5  1  0
  7  6  1  0
  8 12  1  0
  8  9  2  0
 11 10  1  6
 12 11  1  0
 13 14  2  0
 13 11  1  0
 16 17  1  0
 16 15  1  0
 17 18  1  0
 19 18  1  1
 19 20  1  0
 20 13  1  0
 21 19  1  0
 22 21  2  0
 23 21  1  0
M  END
$$$$
