KAM.pdb
     RDKit          3D

 23 22  0  0  1  0  0  0  0  0999 V2000
   19.5149  -20.3361  -14.6132 N   0  0  0  0  0  0  0  0  0  0  0  0
   19.5935  -21.3150  -13.5472 C   0  0  1  0  0  0  0  0  0  0  0  0
   18.4719  -22.3218  -13.6900 C   0  0  0  0  0  0  0  0  0  0  0  0
   17.4883  -22.2431  -12.5658 C   0  0  0  0  0  0  0  0  0  0  0  0
   17.8122  -23.3037  -11.5396 C   0  0  0  0  0  0  0  0  0  0  0  0
   16.7369  -23.3585  -10.4752 C   0  0  0  0  0  0  0  0  0  0  0  0
   16.9777  -24.4177   -9.5225 N   0  0  0  0  0  0  0  0  0  0  0  0
   20.9241  -21.9738  -13.5689 C   0  0  0  0  0  0  0  0  0  0  0  0
   21.3603  -22.6325  -12.5854 O   0  0  0  0  0  0  0  0  0  0  0  0
   23.4558  -23.2135  -15.9736 C   0  0  0  0  0  0  0  0  0  0  0  0
   23.1228  -22.5273  -14.6774 C   0  0  2  0  0  0  0  0  0  0  0  0
   21.8063  -21.9095  -14.7034 N   0  0  0  0  0  0  0  0  0  0  0  0
   24.1676  -21.5483  -14.2724 C   0  0  0  0  0  0  0  0  0  0  0  0
   24.0472  -20.3489  -14.6293 O   0  0  0  0  0  0  0  0  0  0  0  0
   27.8871  -21.7635   -8.6895 C   0  0  0  0  0  0  0  0  0  0  0  0
   29.0444  -21.4347  -10.0247 S   0  0  0  0  0  0  0  0  0  0  0  0
   28.2266  -20.7596  -11.4888 C   0  0  0  0  0  0  0  0  0  0  0  0
   27.0933  -21.6488  -11.9534 C   0  0  0  0  0  0  0  0  0  0  0  0
   26.3557  -20.9990  -13.1304 C   0  0  2  0  0  0  0  0  0  0  0  0
   25.2968  -21.9121  -13.4985 N   0  0  0  0  0  0  0  0  0  0  0  0
   27.3410  -20.8214  -14.2204 C   0  0  0  0  0  0  0  0  0  0  0  0
   27.5787  -21.8010  -14.9685 O   0  0  0  0  0  0  0  0  0  0  0  0
   28.0178  -19.6407  -14.4665 O   0  0  0  0  0  0  0  0  0  0  0  0
  2  1  1  6
  2  8  1  0
  2  3  1  0
  4  3  1  0
  5  4  1  0
  6  5  1  0
  7  6  1  0
  8 12  1  0
  8  9  2  0
 11 10  1  6
 12 11  1  0
 13 14  2  0
 13 11  1  0
 16 17  1  0
 16 15  1  0
 17 18  1  0
 19 18  1  1
 19 20  1  0
 20 13  1  0
 21 19  1  0
 22 21  2  0
 23 21  1  0
M  END
$$$$
