KAM.pdb
     RDKit          3D

 23 22  0  0  1  0  0  0  0  0999 V2000
   24.1879  -18.5142  -13.8269 N   0  0  0  0  0  0  0  0  0  0  0  0
   24.0412  -19.9455  -14.0016 C   0  0  1  0  0  0  0  0  0  0  0  0
   23.6842  -20.2540  -15.4401 C   0  0  0  0  0  0  0  0  0  0  0  0
   23.8823  -19.0773  -16.3419 C   0  0  0  0  0  0  0  0  0  0  0  0
   23.3418  -19.4001  -17.7154 C   0  0  0  0  0  0  0  0  0  0  0  0
   24.3640  -20.1747  -18.5198 C   0  0  0  0  0  0  0  0  0  0  0  0
   23.8838  -20.4792  -19.8480 N   0  0  0  0  0  0  0  0  0  0  0  0
   25.2925  -20.6314  -13.5907 C   0  0  0  0  0  0  0  0  0  0  0  0
   25.3781  -21.8887  -13.5332 O   0  0  0  0  0  0  0  0  0  0  0  0
   28.8823  -19.7336  -12.7089 C   0  0  0  0  0  0  0  0  0  0  0  0
   27.6613  -20.6115  -12.7202 C   0  0  2  0  0  0  0  0  0  0  0  0
   26.4891  -19.9184  -13.2309 N   0  0  0  0  0  0  0  0  0  0  0  0
   27.3895  -21.2174  -11.3886 C   0  0  0  0  0  0  0  0  0  0  0  0
   28.2067  -22.0513  -10.9224 O   0  0  0  0  0  0  0  0  0  0  0  0
   28.3500  -19.7763   -4.4296 C   0  0  0  0  0  0  0  0  0  0  0  0
   28.0107  -19.2143   -6.1028 S   0  0  0  0  0  0  0  0  0  0  0  0
   26.8984  -20.3313   -6.9878 C   0  0  0  0  0  0  0  0  0  0  0  0
   27.0398  -20.1851   -8.4877 C   0  0  0  0  0  0  0  0  0  0  0  0
   26.1104  -21.1695   -9.2080 C   0  0  2  0  0  0  0  0  0  0  0  0
   26.2443  -20.8929  -10.6208 N   0  0  0  0  0  0  0  0  0  0  0  0
   24.7374  -20.9135   -8.7186 C   0  0  0  0  0  0  0  0  0  0  0  0
   24.4656  -21.2195   -7.5318 O   0  0  0  0  0  0  0  0  0  0  0  0
   23.7327  -20.3569   -9.4891 O   0  0  0  0  0  0  0  0  0  0  0  0
  2  1  1  6
  2  8  1  0
  2  3  1  0
  4  3  1  0
  5  4  1  0
  6  5  1  0
  7  6  1  0
  8 12  1  0
  8  9  2  0
 11 10  1  1
 12 11  1  0
 13 14  2  0
 13 11  1  0
 16 17  1  0
 16 15  1  0
 17 18  1  0
 19 18  1  1
 19 20  1  0
 20 13  1  0
 21 19  1  0
 22 21  2  0
 23 21  1  0
M  END
$$$$
