KAM.pdb
     RDKit          3D

 23 22  0  0  1  0  0  0  0  0999 V2000
   25.6201  -25.5461  -16.2860 N   0  0  0  0  0  0  0  0  0  0  0  0
   26.6476  -24.8174  -17.0029 C   0  0  1  0  0  0  0  0  0  0  0  0
   27.1280  -25.6339  -18.1838 C   0  0  0  0  0  0  0  0  0  0  0  0
   27.1850  -27.0974  -17.8800 C   0  0  0  0  0  0  0  0  0  0  0  0
   28.4853  -27.4149  -17.1790 C   0  0  0  0  0  0  0  0  0  0  0  0
   28.6018  -28.9028  -16.9246 C   0  0  0  0  0  0  0  0  0  0  0  0
   29.8265  -29.2353  -16.2339 N   0  0  0  0  0  0  0  0  0  0  0  0
   26.1197  -23.4972  -17.4309 C   0  0  0  0  0  0  0  0  0  0  0  0
   26.8432  -22.6454  -18.0161 O   0  0  0  0  0  0  0  0  0  0  0  0
   22.9215  -21.8798  -18.3027 C   0  0  0  0  0  0  0  0  0  0  0  0
   24.2690  -21.7941  -17.6405 C   0  0  2  0  0  0  0  0  0  0  0  0
   24.7558  -23.0958  -17.2113 N   0  0  0  0  0  0  0  0  0  0  0  0
   24.2850  -20.8177  -16.5177 C   0  0  0  0  0  0  0  0  0  0  0  0
   23.7122  -21.1212  -15.4406 O   0  0  0  0  0  0  0  0  0  0  0  0
   26.5268  -13.4054  -14.5624 C   0  0  0  0  0  0  0  0  0  0  0  0
   26.4791  -14.7388  -15.7666 S   0  0  0  0  0  0  0  0  0  0  0  0
   25.5505  -16.1695  -15.1674 C   0  0  0  0  0  0  0  0  0  0  0  0
   25.6447  -17.3363  -16.1269 C   0  0  0  0  0  0  0  0  0  0  0  0
   24.8183  -18.5194  -15.6085 C   0  0  2  0  0  0  0  0  0  0  0  0
   24.9209  -19.5556  -16.6116 N   0  0  0  0  0  0  0  0  0  0  0  0
   23.4273  -18.0422  -15.4417 C   0  0  0  0  0  0  0  0  0  0  0  0
   23.0294  -17.7724  -14.2820 O   0  0  0  0  0  0  0  0  0  0  0  0
   22.5365  -17.8748  -16.4862 O   0  0  0  0  0  0  0  0  0  0  0  0
  2  1  1  6
  2  8  1  0
  2  3  1  0
  4  3  1  0
  5  4  1  0
  6  5  1  0
  7  6  1  0
  8 12  1  0
  8  9  2  0
 11 10  1  1
 12 11  1  0
 13 14  2  0
 13 11  1  0
 16 17  1  0
 16 15  1  0
 17 18  1  0
 19 18  1  6
 19 20  1  0
 20 13  1  0
 21 19  1  0
 22 21  2  0
 23 21  1  0
M  END
$$$$
