KAM.pdb
     RDKit          3D

 23 22  0  0  1  0  0  0  0  0999 V2000
   16.5562  -11.0159  -18.0379 N   0  0  0  0  0  0  0  0  0  0  0  0
   16.3407  -10.3813  -16.7527 C   0  0  1  0  0  0  0  0  0  0  0  0
   16.6152  -11.3693  -15.6389 C   0  0  0  0  0  0  0  0  0  0  0  0
   16.2269  -12.7661  -16.0069 C   0  0  0  0  0  0  0  0  0  0  0  0
   16.4587  -13.6798  -14.8261 C   0  0  0  0  0  0  0  0  0  0  0  0
   16.2433  -15.1249  -15.2227 C   0  0  0  0  0  0  0  0  0  0  0  0
   16.4523  -16.0239  -14.1111 N   0  0  0  0  0  0  0  0  0  0  0  0
   17.2013   -9.1767  -16.6380 C   0  0  0  0  0  0  0  0  0  0  0  0
   18.3585   -9.1314  -17.1383 O   0  0  0  0  0  0  0  0  0  0  0  0
   16.9047   -5.5792  -15.4612 C   0  0  0  0  0  0  0  0  0  0  0  0
   17.6559   -6.8252  -15.8420 C   0  0  2  0  0  0  0  0  0  0  0  0
   16.7822   -7.9828  -15.9535 N   0  0  0  0  0  0  0  0  0  0  0  0
   18.7960   -7.0990  -14.9258 C   0  0  0  0  0  0  0  0  0  0  0  0
   18.5875   -7.7610  -13.8776 O   0  0  0  0  0  0  0  0  0  0  0  0
   25.6481  -10.2894  -14.3929 C   0  0  0  0  0  0  0  0  0  0  0  0
   24.2563   -9.6671  -15.3448 S   0  0  0  0  0  0  0  0  0  0  0  0
   23.3149   -8.4149  -14.4425 C   0  0  0  0  0  0  0  0  0  0  0  0
   22.0817   -7.9863  -15.2082 C   0  0  0  0  0  0  0  0  0  0  0  0
   21.2627   -6.9876  -14.3814 C   0  0  2  0  0  0  0  0  0  0  0  0
   20.1117   -6.6436  -15.1860 N   0  0  0  0  0  0  0  0  0  0  0  0
   22.1309   -5.8172  -14.1230 C   0  0  0  0  0  0  0  0  0  0  0  0
   22.8581   -5.8344  -13.0999 O   0  0  0  0  0  0  0  0  0  0  0  0
   22.1909   -4.7031  -14.9403 O   0  0  0  0  0  0  0  0  0  0  0  0
  2  1  1  6
  2  8  1  0
  2  3  1  0
  4  3  1  0
  5  4  1  0
  6  5  1  0
  7  6  1  0
  8 12  1  0
  8  9  2  0
 11 10  1  1
 12 11  1  0
 13 14  2  0
 13 11  1  0
 16 17  1  0
 16 15  1  0
 17 18  1  0
 19 18  1  6
 19 20  1  0
 20 13  1  0
 21 19  1  0
 22 21  2  0
 23 21  1  0
M  END
$$$$
