KAM.pdb
     RDKit          3D

 23 22  0  0  1  0  0  0  0  0999 V2000
   26.3522  -25.1350  -16.2328 N   0  0  0  0  0  0  0  0  0  0  0  0
   25.2412  -24.3401  -15.7484 C   0  0  1  0  0  0  0  0  0  0  0  0
   24.2269  -25.2348  -15.0681 C   0  0  0  0  0  0  0  0  0  0  0  0
   23.1763  -25.7268  -16.0123 C   0  0  0  0  0  0  0  0  0  0  0  0
   23.1852  -27.2376  -16.0309 C   0  0  0  0  0  0  0  0  0  0  0  0
   22.1823  -27.7621  -17.0365 C   0  0  0  0  0  0  0  0  0  0  0  0
   22.1522  -29.2064  -17.0619 N   0  0  0  0  0  0  0  0  0  0  0  0
   25.7419  -23.2860  -14.8302 C   0  0  0  0  0  0  0  0  0  0  0  0
   26.6492  -23.5125  -13.9835 O   0  0  0  0  0  0  0  0  0  0  0  0
   25.2927  -19.5482  -14.2833 C   0  0  0  0  0  0  0  0  0  0  0  0
   25.7196  -20.9391  -13.9025 C   0  0  2  0  0  0  0  0  0  0  0  0
   25.2332  -21.9405  -14.8385 N   0  0  0  0  0  0  0  0  0  0  0  0
   25.3424  -21.2823  -12.5046 C   0  0  0  0  0  0  0  0  0  0  0  0
   24.2923  -21.9435  -12.3037 O   0  0  0  0  0  0  0  0  0  0  0  0
   27.3321  -19.9402   -4.8915 C   0  0  0  0  0  0  0  0  0  0  0  0
   27.5984  -19.6171   -6.6394 S   0  0  0  0  0  0  0  0  0  0  0  0
   26.4022  -20.4798   -7.6850 C   0  0  0  0  0  0  0  0  0  0  0  0
   26.7632  -20.3705   -9.1508 C   0  0  0  0  0  0  0  0  0  0  0  0
   25.7157  -21.0874  -10.0114 C   0  0  2  0  0  0  0  0  0  0  0  0
   26.1198  -20.8940  -11.3860 N   0  0  0  0  0  0  0  0  0  0  0  0
   24.4072  -20.4591   -9.7224 C   0  0  0  0  0  0  0  0  0  0  0  0
   24.1126  -19.4002  -10.3289 O   0  0  0  0  0  0  0  0  0  0  0  0
   23.4868  -20.9670   -8.8237 O   0  0  0  0  0  0  0  0  0  0  0  0
  2  1  1  1
  2  8  1  0
  2  3  1  0
  4  3  1  0
  5  4  1  0
  6  5  1  0
  7  6  1  0
  8 12  1  0
  8  9  2  0
 11 10  1  6
 12 11  1  0
 13 14  2  0
 13 11  1  0
 16 17  1  0
 16 15  1  0
 17 18  1  0
 19 18  1  1
 19 20  1  0
 20 13  1  0
 21 19  1  0
 22 21  2  0
 23 21  1  0
M  END
$$$$
