EKC.pdb
     RDKit          3D

 25 24  0  0  1  0  0  0  0  0999 V2000
   26.6530  -24.4899  -15.9634 N   0  0  0  0  0  0  0  0  0  0  0  0
   26.6954  -23.0387  -15.6747 C   0  0  1  0  0  0  0  0  0  0  0  0
   26.4539  -22.3471  -16.9746 C   0  0  0  0  0  0  0  0  0  0  0  0
   27.6614  -22.3697  -17.8512 C   0  0  0  0  0  0  0  0  0  0  0  0
   28.4895  -21.1733  -17.6280 C   0  0  0  0  0  0  0  0  0  0  0  0
   28.1940  -20.2245  -16.8767 O   0  0  0  0  0  0  0  0  0  0  0  0
   25.6070  -22.7711  -14.7177 C   0  0  0  0  0  0  0  0  0  0  0  0
   24.5065  -23.4240  -14.7860 O   0  0  0  0  0  0  0  0  0  0  0  0
   29.7048  -21.1161  -18.3263 O   0  0  0  0  0  0  0  0  0  0  0  0
   25.7751  -21.7871  -13.7148 N   0  0  0  0  0  0  0  0  0  0  0  0
   24.6712  -21.4395  -12.8610 C   0  0  1  0  0  0  0  0  0  0  0  0
   25.1373  -20.5724  -11.7228 C   0  0  0  0  0  0  0  0  0  0  0  0
   24.0092  -20.0892  -10.8431 C   0  0  0  0  0  0  0  0  0  0  0  0
   24.0424  -20.9581   -9.5931 C   0  0  0  0  0  0  0  0  0  0  0  0
   22.9346  -20.6324   -8.6393 C   0  0  0  0  0  0  0  0  0  0  0  0
   23.0073  -21.5894   -7.5493 N   0  0  0  0  0  0  0  0  0  0  0  0
   23.5473  -20.8413  -13.6183 C   0  0  0  0  0  0  0  0  0  0  0  0
   23.6386  -19.8608  -14.3640 O   0  0  0  0  0  0  0  0  0  0  0  0
   22.2698  -21.4498  -13.4688 N   0  0  0  0  0  0  0  0  0  0  0  0
   21.1115  -20.9458  -14.1753 C   0  0  1  0  0  0  0  0  0  0  0  0
   20.9406  -21.6492  -15.5187 C   0  0  0  0  0  0  0  0  0  0  0  0
   19.4063  -21.0673  -16.2921 S   0  0  0  0  0  0  0  0  0  0  0  0
   19.8900  -20.9871  -13.3613 C   0  0  0  0  0  0  0  0  0  0  0  0
   19.6788  -21.8661  -12.4897 O   0  0  0  0  0  0  0  0  0  0  0  0
   18.8833  -20.0251  -13.5257 O   0  0  0  0  0  0  0  0  0  0  0  0
  2  7  1  0
  2  1  1  6
  3  2  1  0
  4  3  1  0
  5  4  1  0
  5  9  1  0
  6  5  2  0
  7  8  2  0
 10 11  1  0
 10  7  1  0
 11 12  1  1
 12 13  1  0
 13 14  1  0
 15 14  1  0
 16 15  1  0
 17 11  1  0
 18 17  2  0
 19 17  1  0
 20 19  1  0
 20 21  1  6
 22 21  1  0
 23 20  1  0
 23 25  1  0
 24 23  2  0
M  END
$$$$
