EKC.pdb
     RDKit          3D

 25 24  0  0  1  0  0  0  0  0999 V2000
   15.2272   -8.4838   -8.3156 N   0  0  0  0  0  0  0  0  0  0  0  0
   15.0985   -7.5723   -9.4748 C   0  0  1  0  0  0  0  0  0  0  0  0
   15.2276   -6.1878   -8.9337 C   0  0  0  0  0  0  0  0  0  0  0  0
   13.9147   -5.6408   -8.4819 C   0  0  0  0  0  0  0  0  0  0  0  0
   14.0546   -4.2402   -8.0510 C   0  0  0  0  0  0  0  0  0  0  0  0
   15.1126   -3.5828   -8.0757 O   0  0  0  0  0  0  0  0  0  0  0  0
   16.2113   -7.8951  -10.3856 C   0  0  0  0  0  0  0  0  0  0  0  0
   17.3489   -8.2564   -9.9192 O   0  0  0  0  0  0  0  0  0  0  0  0
   12.8921   -3.6134   -7.5782 O   0  0  0  0  0  0  0  0  0  0  0  0
   16.0257   -7.8068  -11.7855 N   0  0  0  0  0  0  0  0  0  0  0  0
   17.0591   -8.2648  -12.6748 C   0  0  1  0  0  0  0  0  0  0  0  0
   16.4586   -8.8484  -13.9252 C   0  0  0  0  0  0  0  0  0  0  0  0
   17.4936   -9.3521  -14.9025 C   0  0  0  0  0  0  0  0  0  0  0  0
   17.1455  -10.8086  -15.1778 C   0  0  0  0  0  0  0  0  0  0  0  0
   18.0829  -11.4468  -16.1560 C   0  0  0  0  0  0  0  0  0  0  0  0
   17.6608  -12.8264  -16.3223 N   0  0  0  0  0  0  0  0  0  0  0  0
   18.0615   -7.2106  -12.9548 C   0  0  0  0  0  0  0  0  0  0  0  0
   17.8064   -6.0099  -13.0922 O   0  0  0  0  0  0  0  0  0  0  0  0
   19.4183   -7.6228  -13.0722 N   0  0  0  0  0  0  0  0  0  0  0  0
   20.4693   -6.6704  -13.3610 C   0  0  1  0  0  0  0  0  0  0  0  0
   21.8017   -7.1316  -12.7774 C   0  0  0  0  0  0  0  0  0  0  0  0
   23.0542   -5.8607  -13.1044 S   0  0  0  0  0  0  0  0  0  0  0  0
   20.5645   -6.3489  -14.7906 C   0  0  0  0  0  0  0  0  0  0  0  0
   20.5876   -7.2266  -15.6885 O   0  0  0  0  0  0  0  0  0  0  0  0
   20.6354   -5.0179  -15.2253 O   0  0  0  0  0  0  0  0  0  0  0  0
  2  7  1  0
  2  1  1  1
  3  2  1  0
  4  3  1  0
  5  4  1  0
  5  9  1  0
  6  5  2  0
  7  8  2  0
 10 11  1  0
 10  7  1  0
 11 12  1  6
 12 13  1  0
 13 14  1  0
 15 14  1  0
 16 15  1  0
 17 11  1  0
 18 17  2  0
 19 17  1  0
 20 19  1  0
 20 21  1  6
 22 21  1  0
 23 20  1  0
 23 25  1  0
 24 23  2  0
M  END
$$$$
