EKC.pdb
     RDKit          3D

 25 24  0  0  1  0  0  0  0  0999 V2000
   17.5261  -12.4497  -16.1301 N   0  0  0  0  0  0  0  0  0  0  0  0
   17.0529  -11.0476  -16.0947 C   0  0  1  0  0  0  0  0  0  0  0  0
   16.3417  -10.8796  -14.7938 C   0  0  0  0  0  0  0  0  0  0  0  0
   15.0272  -11.5862  -14.7815 C   0  0  0  0  0  0  0  0  0  0  0  0
   14.3701  -11.4407  -13.4723 C   0  0  0  0  0  0  0  0  0  0  0  0
   13.9388  -10.3719  -12.9993 O   0  0  0  0  0  0  0  0  0  0  0  0
   18.2561  -10.1988  -16.1584 C   0  0  0  0  0  0  0  0  0  0  0  0
   19.3212  -10.5332  -15.5292 O   0  0  0  0  0  0  0  0  0  0  0  0
   14.2275  -12.6108  -12.7119 O   0  0  0  0  0  0  0  0  0  0  0  0
   18.2386   -9.0058  -16.9189 N   0  0  0  0  0  0  0  0  0  0  0  0
   19.4109   -8.1743  -16.9730 C   0  0  1  0  0  0  0  0  0  0  0  0
   19.4547   -7.4078  -18.2674 C   0  0  0  0  0  0  0  0  0  0  0  0
   19.6908   -8.2878  -19.4715 C   0  0  0  0  0  0  0  0  0  0  0  0
   19.6210   -7.3732  -20.6869 C   0  0  0  0  0  0  0  0  0  0  0  0
   19.7937   -8.1177  -21.9749 C   0  0  0  0  0  0  0  0  0  0  0  0
   19.7353   -7.1423  -23.0493 N   0  0  0  0  0  0  0  0  0  0  0  0
   19.5309   -7.3014  -15.7822 C   0  0  0  0  0  0  0  0  0  0  0  0
   18.5951   -6.6927  -15.2535 O   0  0  0  0  0  0  0  0  0  0  0  0
   20.8266   -7.1602  -15.2113 N   0  0  0  0  0  0  0  0  0  0  0  0
   21.0489   -6.3199  -14.0540 C   0  0  1  0  0  0  0  0  0  0  0  0
   21.9138   -7.0323  -13.0181 C   0  0  0  0  0  0  0  0  0  0  0  0
   22.1859   -5.9144  -11.6156 S   0  0  0  0  0  0  0  0  0  0  0  0
   21.5752   -4.9958  -14.4088 C   0  0  0  0  0  0  0  0  0  0  0  0
   22.5061   -4.8293  -15.2352 O   0  0  0  0  0  0  0  0  0  0  0  0
   21.0496   -3.8334  -13.8272 O   0  0  0  0  0  0  0  0  0  0  0  0
  2  7  1  0
  2  1  1  1
  3  2  1  0
  4  3  1  0
  5  4  1  0
  5  9  1  0
  6  5  2  0
  7  8  2  0
 10 11  1  0
 10  7  1  0
 11 12  1  6
 12 13  1  0
 13 14  1  0
 15 14  1  0
 16 15  1  0
 17 11  1  0
 18 17  2  0
 19 17  1  0
 20 19  1  0
 20 21  1  1
 22 21  1  0
 23 20  1  0
 23 25  1  0
 24 23  2  0
M  END
$$$$
