EKC.pdb
     RDKit          3D

 25 24  0  0  1  0  0  0  0  0999 V2000
   17.3793  -14.4776  -15.5579 N   0  0  0  0  0  0  0  0  0  0  0  0
   17.3287  -13.2924  -16.4432 C   0  0  1  0  0  0  0  0  0  0  0  0
   16.1059  -12.5316  -16.0530 C   0  0  0  0  0  0  0  0  0  0  0  0
   14.8619  -13.1689  -16.5758 C   0  0  0  0  0  0  0  0  0  0  0  0
   15.1331  -13.8877  -17.8315 C   0  0  0  0  0  0  0  0  0  0  0  0
   15.5446  -13.3647  -18.8846 O   0  0  0  0  0  0  0  0  0  0  0  0
   18.5505  -12.5147  -16.1705 C   0  0  0  0  0  0  0  0  0  0  0  0
   19.0550  -12.4887  -14.9927 O   0  0  0  0  0  0  0  0  0  0  0  0
   14.9039  -15.2716  -17.8207 O   0  0  0  0  0  0  0  0  0  0  0  0
   19.1739  -11.7907  -17.2142 N   0  0  0  0  0  0  0  0  0  0  0  0
   20.3503  -11.0100  -16.9403 C   0  0  1  0  0  0  0  0  0  0  0  0
   21.3518  -11.1564  -18.0540 C   0  0  0  0  0  0  0  0  0  0  0  0
   22.6179  -10.3670  -17.8224 C   0  0  0  0  0  0  0  0  0  0  0  0
   23.4666  -10.5475  -19.0736 C   0  0  0  0  0  0  0  0  0  0  0  0
   24.8071   -9.8900  -18.9566 C   0  0  0  0  0  0  0  0  0  0  0  0
   25.4615  -10.0095  -20.2475 N   0  0  0  0  0  0  0  0  0  0  0  0
   20.0242   -9.5963  -16.6409 C   0  0  0  0  0  0  0  0  0  0  0  0
   19.2732   -8.8848  -17.3159 O   0  0  0  0  0  0  0  0  0  0  0  0
   20.6265   -9.0239  -15.4858 N   0  0  0  0  0  0  0  0  0  0  0  0
   20.3729   -7.6492  -15.1107 C   0  0  1  0  0  0  0  0  0  0  0  0
   20.4126   -7.4790  -13.5948 C   0  0  0  0  0  0  0  0  0  0  0  0
   19.0503   -8.4283  -12.8641 S   0  0  0  0  0  0  0  0  0  0  0  0
   21.2541   -6.7015  -15.8046 C   0  0  0  0  0  0  0  0  0  0  0  0
   21.1874   -5.4585  -15.6384 O   0  0  0  0  0  0  0  0  0  0  0  0
   22.2306   -7.1534  -16.7035 O   0  0  0  0  0  0  0  0  0  0  0  0
  2  7  1  0
  2  1  1  1
  3  2  1  0
  4  3  1  0
  5  4  1  0
  5  9  1  0
  6  5  2  0
  7  8  2  0
 10 11  1  0
 10  7  1  0
 11 12  1  6
 12 13  1  0
 13 14  1  0
 15 14  1  0
 16 15  1  0
 17 11  1  0
 18 17  2  0
 19 17  1  0
 20 19  1  0
 20 21  1  1
 22 21  1  0
 23 20  1  0
 23 25  1  0
 24 23  2  0
M  END
$$$$
