EKC.pdb
     RDKit          3D

 25 24  0  0  1  0  0  0  0  0999 V2000
   25.1103  -22.6832  -13.0141 N   0  0  0  0  0  0  0  0  0  0  0  0
   25.3053  -21.2285  -12.8222 C   0  0  1  0  0  0  0  0  0  0  0  0
   26.7366  -20.9533  -13.1415 C   0  0  0  0  0  0  0  0  0  0  0  0
   27.1903  -21.6953  -14.3541 C   0  0  0  0  0  0  0  0  0  0  0  0
   27.8672  -20.7892  -15.2962 C   0  0  0  0  0  0  0  0  0  0  0  0
   28.0679  -19.5743  -15.1067 O   0  0  0  0  0  0  0  0  0  0  0  0
   24.4068  -20.5568  -13.7780 C   0  0  0  0  0  0  0  0  0  0  0  0
   24.7937  -20.3183  -14.9762 O   0  0  0  0  0  0  0  0  0  0  0  0
   28.3149  -21.3584  -16.4976 O   0  0  0  0  0  0  0  0  0  0  0  0
   23.1068  -20.1714  -13.3734 N   0  0  0  0  0  0  0  0  0  0  0  0
   22.2126  -19.5639  -14.3219 C   0  0  1  0  0  0  0  0  0  0  0  0
   20.7960  -20.0036  -14.0680 C   0  0  0  0  0  0  0  0  0  0  0  0
   20.5439  -21.4437  -14.4454 C   0  0  0  0  0  0  0  0  0  0  0  0
   19.0462  -21.6688  -14.2879 C   0  0  0  0  0  0  0  0  0  0  0  0
   18.6504  -23.0903  -14.5442 C   0  0  0  0  0  0  0  0  0  0  0  0
   17.2247  -23.1949  -14.2884 N   0  0  0  0  0  0  0  0  0  0  0  0
   22.3601  -18.0904  -14.3627 C   0  0  0  0  0  0  0  0  0  0  0  0
   22.3366  -17.3491  -13.3750 O   0  0  0  0  0  0  0  0  0  0  0  0
   22.5423  -17.4935  -15.6414 N   0  0  0  0  0  0  0  0  0  0  0  0
   22.8038  -16.0765  -15.7774 C   0  0  1  0  0  0  0  0  0  0  0  0
   24.1367  -15.7016  -15.1360 C   0  0  0  0  0  0  0  0  0  0  0  0
   24.3319  -13.8993  -15.2047 S   0  0  0  0  0  0  0  0  0  0  0  0
   22.7000  -15.6127  -17.1668 C   0  0  0  0  0  0  0  0  0  0  0  0
   22.5522  -16.3939  -18.1389 O   0  0  0  0  0  0  0  0  0  0  0  0
   22.7630  -14.2466  -17.4756 O   0  0  0  0  0  0  0  0  0  0  0  0
  2  7  1  0
  2  1  1  6
  3  2  1  0
  4  3  1  0
  5  4  1  0
  5  9  1  0
  6  5  2  0
  7  8  2  0
 10 11  1  0
 10  7  1  0
 11 12  1  1
 12 13  1  0
 13 14  1  0
 15 14  1  0
 16 15  1  0
 17 11  1  0
 18 17  2  0
 19 17  1  0
 20 19  1  0
 20 21  1  6
 22 21  1  0
 23 20  1  0
 23 25  1  0
 24 23  2  0
M  END
$$$$
