EKC.pdb
     RDKit          3D

 25 24  0  0  1  0  0  0  0  0999 V2000
   19.9512  -15.5416  -16.6170 N   0  0  0  0  0  0  0  0  0  0  0  0
   19.1019  -14.4328  -17.1072 C   0  0  1  0  0  0  0  0  0  0  0  0
   17.9484  -14.3423  -16.1650 C   0  0  0  0  0  0  0  0  0  0  0  0
   17.0226  -15.5045  -16.3035 C   0  0  0  0  0  0  0  0  0  0  0  0
   15.8836  -15.3759  -15.3799 C   0  0  0  0  0  0  0  0  0  0  0  0
   15.6815  -14.4115  -14.6178 O   0  0  0  0  0  0  0  0  0  0  0  0
   19.9314  -13.2158  -17.0533 C   0  0  0  0  0  0  0  0  0  0  0  0
   20.8353  -13.0847  -16.1545 O   0  0  0  0  0  0  0  0  0  0  0  0
   14.9632  -16.4345  -15.3726 O   0  0  0  0  0  0  0  0  0  0  0  0
   19.7313  -12.1829  -17.9995 N   0  0  0  0  0  0  0  0  0  0  0  0
   20.6046  -11.0402  -18.0072 C   0  0  1  0  0  0  0  0  0  0  0  0
   20.6601  -10.4279  -19.3807 C   0  0  0  0  0  0  0  0  0  0  0  0
   21.3308  -11.3164  -20.4009 C   0  0  0  0  0  0  0  0  0  0  0  0
   21.2857  -10.5581  -21.7206 C   0  0  0  0  0  0  0  0  0  0  0  0
   21.7880  -11.3770  -22.8695 C   0  0  0  0  0  0  0  0  0  0  0  0
   21.5162  -10.6297  -24.0846 N   0  0  0  0  0  0  0  0  0  0  0  0
   20.2508  -10.0609  -16.9536 C   0  0  0  0  0  0  0  0  0  0  0  0
   19.1538   -9.9927  -16.3901 O   0  0  0  0  0  0  0  0  0  0  0  0
   21.2581   -9.1327  -16.5684 N   0  0  0  0  0  0  0  0  0  0  0  0
   21.0402   -8.1946  -15.4879 C   0  0  1  0  0  0  0  0  0  0  0  0
   20.7972   -8.9242  -14.1699 C   0  0  0  0  0  0  0  0  0  0  0  0
   20.6336   -7.6970  -12.8440 S   0  0  0  0  0  0  0  0  0  0  0  0
   22.1081   -7.1919  -15.3851 C   0  0  0  0  0  0  0  0  0  0  0  0
   23.2825   -7.4015  -15.7771 O   0  0  0  0  0  0  0  0  0  0  0  0
   21.8572   -5.9282  -14.8320 O   0  0  0  0  0  0  0  0  0  0  0  0
  2  7  1  0
  2  1  1  1
  3  2  1  0
  4  3  1  0
  5  4  1  0
  5  9  1  0
  6  5  2  0
  7  8  2  0
 10 11  1  0
 10  7  1  0
 11 12  1  6
 12 13  1  0
 13 14  1  0
 15 14  1  0
 16 15  1  0
 17 11  1  0
 18 17  2  0
 19 17  1  0
 20 19  1  0
 20 21  1  1
 22 21  1  0
 23 20  1  0
 23 25  1  0
 24 23  2  0
M  END
$$$$
