EKC.pdb
     RDKit          3D

 25 24  0  0  1  0  0  0  0  0999 V2000
   26.4882  -15.0230  -18.0753 N   0  0  0  0  0  0  0  0  0  0  0  0
   26.0098  -16.0682  -19.0080 C   0  0  1  0  0  0  0  0  0  0  0  0
   27.1606  -16.3884  -19.9022 C   0  0  0  0  0  0  0  0  0  0  0  0
   28.0226  -15.1958  -20.1507 C   0  0  0  0  0  0  0  0  0  0  0  0
   29.0762  -15.5097  -21.1296 C   0  0  0  0  0  0  0  0  0  0  0  0
   30.1487  -16.0882  -20.8706 O   0  0  0  0  0  0  0  0  0  0  0  0
   25.6386  -17.2293  -18.1797 C   0  0  0  0  0  0  0  0  0  0  0  0
   25.1864  -18.2977  -18.7238 O   0  0  0  0  0  0  0  0  0  0  0  0
   28.8341  -15.1180  -22.4546 O   0  0  0  0  0  0  0  0  0  0  0  0
   25.7816  -17.1674  -16.7733 N   0  0  0  0  0  0  0  0  0  0  0  0
   25.4082  -18.2973  -15.9656 C   0  0  1  0  0  0  0  0  0  0  0  0
   26.4689  -18.5844  -14.9375 C   0  0  0  0  0  0  0  0  0  0  0  0
   27.7163  -19.1989  -15.5261 C   0  0  0  0  0  0  0  0  0  0  0  0
   27.3780  -20.6553  -15.8139 C   0  0  0  0  0  0  0  0  0  0  0  0
   28.5275  -21.4022  -16.4169 C   0  0  0  0  0  0  0  0  0  0  0  0
   28.0941  -22.7735  -16.6185 N   0  0  0  0  0  0  0  0  0  0  0  0
   24.0597  -18.1381  -15.3733 C   0  0  0  0  0  0  0  0  0  0  0  0
   23.7304  -17.2375  -14.5948 O   0  0  0  0  0  0  0  0  0  0  0  0
   23.0763  -19.1006  -15.7352 N   0  0  0  0  0  0  0  0  0  0  0  0
   21.6733  -18.8816  -15.4545 C   0  0  1  0  0  0  0  0  0  0  0  0
   21.2077  -17.5376  -16.0071 C   0  0  0  0  0  0  0  0  0  0  0  0
   19.4982  -17.2473  -15.4741 S   0  0  0  0  0  0  0  0  0  0  0  0
   20.8265  -19.9952  -15.9009 C   0  0  0  0  0  0  0  0  0  0  0  0
   20.9800  -20.5701  -17.0067 O   0  0  0  0  0  0  0  0  0  0  0  0
   19.7859  -20.4758  -15.0934 O   0  0  0  0  0  0  0  0  0  0  0  0
  2  7  1  0
  2  1  1  1
  3  2  1  0
  4  3  1  0
  5  4  1  0
  5  9  1  0
  6  5  2  0
  7  8  2  0
 10 11  1  0
 10  7  1  0
 11 12  1  1
 12 13  1  0
 13 14  1  0
 15 14  1  0
 16 15  1  0
 17 11  1  0
 18 17  2  0
 19 17  1  0
 20 19  1  0
 20 21  1  6
 22 21  1  0
 23 20  1  0
 23 25  1  0
 24 23  2  0
M  END
$$$$
