EKC.pdb
     RDKit          3D

 25 24  0  0  1  0  0  0  0  0999 V2000
   19.3595  -23.2560  -17.3532 N   0  0  0  0  0  0  0  0  0  0  0  0
   20.5117  -23.5766  -16.4810 C   0  0  1  0  0  0  0  0  0  0  0  0
   21.0292  -22.2713  -15.9761 C   0  0  0  0  0  0  0  0  0  0  0  0
   19.9255  -21.3568  -15.5606 C   0  0  0  0  0  0  0  0  0  0  0  0
   20.2861  -20.6299  -14.3324 C   0  0  0  0  0  0  0  0  0  0  0  0
   20.4177  -19.3945  -14.2407 O   0  0  0  0  0  0  0  0  0  0  0  0
   19.9854  -24.4035  -15.3805 C   0  0  0  0  0  0  0  0  0  0  0  0
   18.8235  -24.1721  -14.8921 O   0  0  0  0  0  0  0  0  0  0  0  0
   20.4938  -21.4087  -13.1842 O   0  0  0  0  0  0  0  0  0  0  0  0
   20.7657  -25.4615  -14.8573 N   0  0  0  0  0  0  0  0  0  0  0  0
   20.2457  -26.2751  -13.7914 C   0  0  1  0  0  0  0  0  0  0  0  0
   21.1806  -27.4164  -13.4945 C   0  0  0  0  0  0  0  0  0  0  0  0
   20.6557  -28.3542  -12.4339 C   0  0  0  0  0  0  0  0  0  0  0  0
   21.6995  -29.4525  -12.2829 C   0  0  0  0  0  0  0  0  0  0  0  0
   21.2778  -30.5147  -11.3150 C   0  0  0  0  0  0  0  0  0  0  0  0
   22.2582  -31.5833  -11.3915 N   0  0  0  0  0  0  0  0  0  0  0  0
   19.9138  -25.4747  -12.5899 C   0  0  0  0  0  0  0  0  0  0  0  0
   20.6088  -24.5612  -12.1338 O   0  0  0  0  0  0  0  0  0  0  0  0
   18.6999  -25.7898  -11.9176 N   0  0  0  0  0  0  0  0  0  0  0  0
   18.2786  -25.0527  -10.7453 C   0  0  1  0  0  0  0  0  0  0  0  0
   16.8891  -24.4543  -10.9449 C   0  0  0  0  0  0  0  0  0  0  0  0
   16.3540  -23.6880   -9.3902 S   0  0  0  0  0  0  0  0  0  0  0  0
   18.3759  -25.8456   -9.5132 C   0  0  0  0  0  0  0  0  0  0  0  0
   18.0541  -27.0580   -9.4534 O   0  0  0  0  0  0  0  0  0  0  0  0
   18.8428  -25.2705   -8.3228 O   0  0  0  0  0  0  0  0  0  0  0  0
  2  7  1  0
  2  1  1  6
  3  2  1  0
  4  3  1  0
  5  4  1  0
  5  9  1  0
  6  5  2  0
  7  8  2  0
 10 11  1  0
 10  7  1  0
 11 12  1  1
 12 13  1  0
 13 14  1  0
 15 14  1  0
 16 15  1  0
 17 11  1  0
 18 17  2  0
 19 17  1  0
 20 19  1  0
 20 21  1  6
 22 21  1  0
 23 20  1  0
 23 25  1  0
 24 23  2  0
M  END
$$$$
