EKC.pdb
     RDKit          3D

 25 24  0  0  1  0  0  0  0  0999 V2000
   19.1461  -12.8217  -17.5367 N   0  0  0  0  0  0  0  0  0  0  0  0
   18.1281  -11.7951  -17.2194 C   0  0  1  0  0  0  0  0  0  0  0  0
   17.5536  -12.1720  -15.8950 C   0  0  0  0  0  0  0  0  0  0  0  0
   16.6973  -13.3909  -15.9848 C   0  0  0  0  0  0  0  0  0  0  0  0
   15.9769  -13.6155  -14.7209 C   0  0  0  0  0  0  0  0  0  0  0  0
   16.1252  -14.6018  -13.9745 O   0  0  0  0  0  0  0  0  0  0  0  0
   18.8420  -10.5079  -17.1445 C   0  0  0  0  0  0  0  0  0  0  0  0
   20.0891  -10.4725  -16.8521 O   0  0  0  0  0  0  0  0  0  0  0  0
   15.0539  -12.6284  -14.3445 O   0  0  0  0  0  0  0  0  0  0  0  0
   18.1485   -9.3006  -17.3970 N   0  0  0  0  0  0  0  0  0  0  0  0
   18.8643   -8.0532  -17.4093 C   0  0  1  0  0  0  0  0  0  0  0  0
   18.0614   -6.9912  -18.1109 C   0  0  0  0  0  0  0  0  0  0  0  0
   18.7809   -5.6670  -18.2047 C   0  0  0  0  0  0  0  0  0  0  0  0
   17.8655   -4.7404  -18.9932 C   0  0  0  0  0  0  0  0  0  0  0  0
   18.4691   -3.3871  -19.2102 C   0  0  0  0  0  0  0  0  0  0  0  0
   17.4426   -2.5451  -19.7988 N   0  0  0  0  0  0  0  0  0  0  0  0
   19.2979   -7.6457  -16.0527 C   0  0  0  0  0  0  0  0  0  0  0  0
   18.5964   -7.7048  -15.0378 O   0  0  0  0  0  0  0  0  0  0  0  0
   20.6251   -7.1503  -15.9192 N   0  0  0  0  0  0  0  0  0  0  0  0
   21.1170   -6.6555  -14.6511 C   0  0  1  0  0  0  0  0  0  0  0  0
   21.9401   -7.7192  -13.9303 C   0  0  0  0  0  0  0  0  0  0  0  0
   22.5765   -7.0170  -12.3834 S   0  0  0  0  0  0  0  0  0  0  0  0
   21.8370   -5.3823  -14.7814 C   0  0  0  0  0  0  0  0  0  0  0  0
   21.8266   -4.4969  -13.8909 O   0  0  0  0  0  0  0  0  0  0  0  0
   22.5842   -5.0931  -15.9320 O   0  0  0  0  0  0  0  0  0  0  0  0
  2  7  1  0
  2  1  1  1
  3  2  1  0
  4  3  1  0
  5  4  1  0
  5  9  1  0
  6  5  2  0
  7  8  2  0
 10 11  1  0
 10  7  1  0
 11 12  1  1
 12 13  1  0
 13 14  1  0
 15 14  1  0
 16 15  1  0
 17 11  1  0
 18 17  2  0
 19 17  1  0
 20 19  1  0
 20 21  1  6
 22 21  1  0
 23 20  1  0
 23 25  1  0
 24 23  2  0
M  END
$$$$
