EKC.pdb
     RDKit          3D

 25 24  0  0  1  0  0  0  0  0999 V2000
   19.2218  -15.0295  -16.6125 N   0  0  0  0  0  0  0  0  0  0  0  0
   18.2840  -13.9154  -16.8780 C   0  0  1  0  0  0  0  0  0  0  0  0
   17.2340  -13.9926  -15.8207 C   0  0  0  0  0  0  0  0  0  0  0  0
   16.2910  -15.1257  -16.0527 C   0  0  0  0  0  0  0  0  0  0  0  0
   15.1905  -15.0957  -15.0755 C   0  0  0  0  0  0  0  0  0  0  0  0
   14.7340  -16.0880  -14.4763 O   0  0  0  0  0  0  0  0  0  0  0  0
   19.0678  -12.6728  -16.7618 C   0  0  0  0  0  0  0  0  0  0  0  0
   20.0274  -12.5863  -15.9169 O   0  0  0  0  0  0  0  0  0  0  0  0
   14.6239  -13.8398  -14.8116 O   0  0  0  0  0  0  0  0  0  0  0  0
   18.7616  -11.5655  -17.5877 N   0  0  0  0  0  0  0  0  0  0  0  0
   19.6235  -10.4142  -17.5899 C   0  0  1  0  0  0  0  0  0  0  0  0
   19.7135   -9.8250  -18.9717 C   0  0  0  0  0  0  0  0  0  0  0  0
   20.5956  -10.6230  -19.9018 C   0  0  0  0  0  0  0  0  0  0  0  0
   20.6518   -9.8431  -21.2083 C   0  0  0  0  0  0  0  0  0  0  0  0
   21.4281  -10.5591  -22.2702 C   0  0  0  0  0  0  0  0  0  0  0  0
   21.2998   -9.7876  -23.4939 N   0  0  0  0  0  0  0  0  0  0  0  0
   19.2292   -9.4205  -16.5644 C   0  0  0  0  0  0  0  0  0  0  0  0
   18.0788   -9.0092  -16.3827 O   0  0  0  0  0  0  0  0  0  0  0  0
   20.2614   -8.9071  -15.7303 N   0  0  0  0  0  0  0  0  0  0  0  0
   19.9779   -7.9288  -14.7020 C   0  0  1  0  0  0  0  0  0  0  0  0
   20.7502   -8.2392  -13.4230 C   0  0  0  0  0  0  0  0  0  0  0  0
   22.5121   -7.9182  -13.7116 S   0  0  0  0  0  0  0  0  0  0  0  0
   20.1846   -6.5493  -15.1609 C   0  0  0  0  0  0  0  0  0  0  0  0
   20.8250   -6.2643  -16.2029 O   0  0  0  0  0  0  0  0  0  0  0  0
   19.6643   -5.4657  -14.4393 O   0  0  0  0  0  0  0  0  0  0  0  0
  2  7  1  0
  2  1  1  1
  3  2  1  0
  4  3  1  0
  5  4  1  0
  5  9  1  0
  6  5  2  0
  7  8  2  0
 10 11  1  0
 10  7  1  0
 11 12  1  6
 12 13  1  0
 13 14  1  0
 15 14  1  0
 16 15  1  0
 17 11  1  0
 18 17  2  0
 19 17  1  0
 20 19  1  0
 20 21  1  1
 22 21  1  0
 23 20  1  0
 23 25  1  0
 24 23  2  0
M  END
$$$$
