EKC.pdb
     RDKit          3D

 25 24  0  0  1  0  0  0  0  0999 V2000
   23.1287  -11.0760  -18.0863 N   0  0  0  0  0  0  0  0  0  0  0  0
   22.8438  -10.5968  -16.7151 C   0  0  1  0  0  0  0  0  0  0  0  0
   24.1009   -9.9588  -16.2262 C   0  0  0  0  0  0  0  0  0  0  0  0
   25.1611  -10.9675  -15.9334 C   0  0  0  0  0  0  0  0  0  0  0  0
   26.4054  -10.3065  -15.5072 C   0  0  0  0  0  0  0  0  0  0  0  0
   26.5956   -9.0754  -15.4892 O   0  0  0  0  0  0  0  0  0  0  0  0
   21.7562   -9.6095  -16.8350 C   0  0  0  0  0  0  0  0  0  0  0  0
   21.7551   -8.7568  -17.7916 O   0  0  0  0  0  0  0  0  0  0  0  0
   27.4483  -11.1475  -15.0915 O   0  0  0  0  0  0  0  0  0  0  0  0
   20.7039   -9.6005  -15.8891 N   0  0  0  0  0  0  0  0  0  0  0  0
   19.6374   -8.6438  -16.0142 C   0  0  1  0  0  0  0  0  0  0  0  0
   18.3027   -9.3390  -16.0178 C   0  0  0  0  0  0  0  0  0  0  0  0
   17.1388   -8.3904  -16.1768 C   0  0  0  0  0  0  0  0  0  0  0  0
   15.8937   -9.2597  -16.2892 C   0  0  0  0  0  0  0  0  0  0  0  0
   14.6352   -8.4513  -16.3632 C   0  0  0  0  0  0  0  0  0  0  0  0
   13.5235   -9.3849  -16.4047 N   0  0  0  0  0  0  0  0  0  0  0  0
   19.7264   -7.5729  -14.9945 C   0  0  0  0  0  0  0  0  0  0  0  0
   19.7931   -7.7600  -13.7754 O   0  0  0  0  0  0  0  0  0  0  0  0
   19.7354   -6.2302  -15.4654 N   0  0  0  0  0  0  0  0  0  0  0  0
   19.7640   -5.1129  -14.5458 C   0  0  1  0  0  0  0  0  0  0  0  0
   21.1783   -4.8649  -14.0291 C   0  0  0  0  0  0  0  0  0  0  0  0
   22.2278   -4.3579  -15.4191 S   0  0  0  0  0  0  0  0  0  0  0  0
   19.1519   -3.9020  -15.1074 C   0  0  0  0  0  0  0  0  0  0  0  0
   18.7687   -3.8201  -16.3005 O   0  0  0  0  0  0  0  0  0  0  0  0
   18.9643   -2.7586  -14.3180 O   0  0  0  0  0  0  0  0  0  0  0  0
  2  7  1  0
  2  1  1  6
  3  2  1  0
  4  3  1  0
  5  4  1  0
  5  9  1  0
  6  5  2  0
  7  8  2  0
 10 11  1  0
 10  7  1  0
 11 12  1  1
 12 13  1  0
 13 14  1  0
 15 14  1  0
 16 15  1  0
 17 11  1  0
 18 17  2  0
 19 17  1  0
 20 19  1  0
 20 21  1  6
 22 21  1  0
 23 20  1  0
 23 25  1  0
 24 23  2  0
M  END
$$$$
