EKC.pdb
     RDKit          3D

 25 24  0  0  1  0  0  0  0  0999 V2000
   25.4910  -22.3077  -15.3922 N   0  0  0  0  0  0  0  0  0  0  0  0
   25.0365  -20.9652  -14.9654 C   0  0  1  0  0  0  0  0  0  0  0  0
   25.5732  -20.0031  -15.9717 C   0  0  0  0  0  0  0  0  0  0  0  0
   26.9947  -20.2951  -16.3198 C   0  0  0  0  0  0  0  0  0  0  0  0
   27.5048  -19.3144  -17.2919 C   0  0  0  0  0  0  0  0  0  0  0  0
   27.3498  -19.3786  -18.5264 O   0  0  0  0  0  0  0  0  0  0  0  0
   23.5633  -20.9957  -14.9892 C   0  0  0  0  0  0  0  0  0  0  0  0
   22.9420  -21.7215  -15.8433 O   0  0  0  0  0  0  0  0  0  0  0  0
   28.2197  -18.2280  -16.7662 O   0  0  0  0  0  0  0  0  0  0  0  0
   22.8263  -20.2196  -14.0637 N   0  0  0  0  0  0  0  0  0  0  0  0
   21.3924  -20.3239  -14.0237 C   0  0  1  0  0  0  0  0  0  0  0  0
   20.8990  -20.2718  -12.6030 C   0  0  0  0  0  0  0  0  0  0  0  0
   19.4053  -20.4588  -12.4853 C   0  0  0  0  0  0  0  0  0  0  0  0
   19.1984  -21.7432  -11.6942 C   0  0  0  0  0  0  0  0  0  0  0  0
   17.7501  -22.0474  -11.4640 C   0  0  0  0  0  0  0  0  0  0  0  0
   17.6852  -23.2078  -10.5932 N   0  0  0  0  0  0  0  0  0  0  0  0
   20.7360  -19.3249  -14.8987 C   0  0  0  0  0  0  0  0  0  0  0  0
   21.0606  -18.1361  -14.9832 O   0  0  0  0  0  0  0  0  0  0  0  0
   19.6505  -19.7791  -15.6985 N   0  0  0  0  0  0  0  0  0  0  0  0
   18.9345  -18.8761  -16.5742 C   0  0  1  0  0  0  0  0  0  0  0  0
   18.5497  -19.5683  -17.8786 C   0  0  0  0  0  0  0  0  0  0  0  0
   20.0606  -20.1358  -18.7068 S   0  0  0  0  0  0  0  0  0  0  0  0
   17.7854  -18.2418  -15.9158 C   0  0  0  0  0  0  0  0  0  0  0  0
   17.1195  -18.8042  -15.0117 O   0  0  0  0  0  0  0  0  0  0  0  0
   17.3721  -16.9514  -16.2762 O   0  0  0  0  0  0  0  0  0  0  0  0
  2  7  1  0
  2  1  1  6
  3  2  1  0
  4  3  1  0
  5  4  1  0
  5  9  1  0
  6  5  2  0
  7  8  2  0
 10 11  1  0
 10  7  1  0
 11 12  1  1
 12 13  1  0
 13 14  1  0
 15 14  1  0
 16 15  1  0
 17 11  1  0
 18 17  2  0
 19 17  1  0
 20 19  1  0
 20 21  1  6
 22 21  1  0
 23 20  1  0
 23 25  1  0
 24 23  2  0
M  END
$$$$
