GCA.pdb
     RDKit          3D

 16 15  0  0  1  0  0  0  0  0999 V2000
   21.0793  -12.6914  -18.5711 N   0  0  0  0  0  0  0  0  0  0  0  0
   21.7907  -11.4297  -18.4748 C   0  0  0  0  0  0  0  0  0  0  0  0
   21.1758  -10.6503  -17.3630 C   0  0  0  0  0  0  0  0  0  0  0  0
   19.9248  -10.7056  -17.1213 O   0  0  0  0  0  0  0  0  0  0  0  0
   21.9287   -9.8033  -16.5064 N   0  0  0  0  0  0  0  0  0  0  0  0
   21.3129   -9.0948  -15.4101 C   0  0  1  0  0  0  0  0  0  0  0  0
   21.7455   -9.7811  -14.1346 C   0  0  0  0  0  0  0  0  0  0  0  0
   23.5515   -9.7662  -14.0209 S   0  0  0  0  0  0  0  0  0  0  0  0
   21.6328   -7.6531  -15.4084 C   0  0  0  0  0  0  0  0  0  0  0  0
   22.7402   -7.2957  -15.8803 O   0  0  0  0  0  0  0  0  0  0  0  0
   19.7354   -4.5007  -14.8874 C   0  0  0  0  0  0  0  0  0  0  0  0
   21.0624   -5.2479  -14.8834 C   0  0  2  0  0  0  0  0  0  0  0  0
   20.7657   -6.6571  -14.9072 N   0  0  0  0  0  0  0  0  0  0  0  0
   21.9224   -4.8490  -13.7687 C   0  0  0  0  0  0  0  0  0  0  0  0
   22.5648   -3.6260  -13.8068 O   0  0  0  0  0  0  0  0  0  0  0  0
   22.1029   -5.5783  -12.7693 O   0  0  0  0  0  0  0  0  0  0  0  0
  2  1  1  0
  2  3  1  0
  3  4  2  0
  5  3  1  0
  5  6  1  0
  6  7  1  1
  7  8  1  0
  9 13  1  0
  9  6  1  0
 10  9  2  0
 12 11  1  1
 12 14  1  0
 12 13  1  0
 14 15  1  0
 16 14  2  0
M  END
$$$$
