GCA.pdb
     RDKit          3D

 16 15  0  0  1  0  0  0  0  0999 V2000
   14.9286   -7.0099   -7.3620 N   0  0  0  0  0  0  0  0  0  0  0  0
   15.2651   -6.1866   -8.5093 C   0  0  0  0  0  0  0  0  0  0  0  0
   16.3033   -6.9124   -9.2947 C   0  0  0  0  0  0  0  0  0  0  0  0
   17.3141   -7.4476   -8.7305 O   0  0  0  0  0  0  0  0  0  0  0  0
   16.2413   -7.0572  -10.7065 N   0  0  0  0  0  0  0  0  0  0  0  0
   17.2501   -7.7854  -11.4380 C   0  0  1  0  0  0  0  0  0  0  0  0
   16.5303   -8.7005  -12.4022 C   0  0  0  0  0  0  0  0  0  0  0  0
   16.0497  -10.2223  -11.5492 S   0  0  0  0  0  0  0  0  0  0  0  0
   18.2152   -6.8992  -12.1191 C   0  0  0  0  0  0  0  0  0  0  0  0
   17.7892   -5.8146  -12.5869 O   0  0  0  0  0  0  0  0  0  0  0  0
   21.9070   -7.0112  -12.8113 C   0  0  0  0  0  0  0  0  0  0  0  0
   20.5287   -6.3912  -12.9998 C   0  0  2  0  0  0  0  0  0  0  0  0
   19.5862   -7.2024  -12.2731 N   0  0  0  0  0  0  0  0  0  0  0  0
   20.1854   -6.2166  -14.4115 C   0  0  0  0  0  0  0  0  0  0  0  0
   20.5709   -5.0641  -15.0696 O   0  0  0  0  0  0  0  0  0  0  0  0
   19.5490   -7.0782  -15.0563 O   0  0  0  0  0  0  0  0  0  0  0  0
  2  1  1  0
  2  3  1  0
  3  4  2  0
  5  3  1  0
  5  6  1  0
  6  7  1  6
  7  8  1  0
  9 13  1  0
  9  6  1  0
 10  9  2  0
 12 11  1  6
 12 14  1  0
 12 13  1  0
 14 15  1  0
 16 14  2  0
M  END
$$$$
