GCA.pdb
     RDKit          3D

 16 15  0  0  1  0  0  0  0  0999 V2000
   28.9998  -23.8213  -17.2502 N   0  0  0  0  0  0  0  0  0  0  0  0
   27.7231  -24.4282  -16.9204 C   0  0  0  0  0  0  0  0  0  0  0  0
   27.8112  -25.8760  -17.2638 C   0  0  0  0  0  0  0  0  0  0  0  0
   28.7932  -26.3457  -17.9282 O   0  0  0  0  0  0  0  0  0  0  0  0
   26.8221  -26.8211  -16.8810 N   0  0  0  0  0  0  0  0  0  0  0  0
   26.9608  -28.2259  -17.1811 C   0  0  1  0  0  0  0  0  0  0  0  0
   27.6975  -28.8600  -16.0233 C   0  0  0  0  0  0  0  0  0  0  0  0
   27.8019  -30.6486  -16.2782 S   0  0  0  0  0  0  0  0  0  0  0  0
   25.6669  -28.8842  -17.4515 C   0  0  0  0  0  0  0  0  0  0  0  0
   24.7310  -28.6995  -16.6350 O   0  0  0  0  0  0  0  0  0  0  0  0
   24.3336  -31.1098  -20.1721 C   0  0  0  0  0  0  0  0  0  0  0  0
   24.1621  -30.3334  -18.8732 C   0  0  2  0  0  0  0  0  0  0  0  0
   25.4240  -29.7072  -18.5734 N   0  0  0  0  0  0  0  0  0  0  0  0
   23.6511  -31.1710  -17.7876 C   0  0  0  0  0  0  0  0  0  0  0  0
   24.5394  -31.8176  -16.9493 O   0  0  0  0  0  0  0  0  0  0  0  0
   22.4277  -31.3284  -17.5837 O   0  0  0  0  0  0  0  0  0  0  0  0
  2  1  1  0
  2  3  1  0
  3  4  2  0
  5  3  1  0
  5  6  1  0
  6  7  1  1
  7  8  1  0
  9 13  1  0
  9  6  1  0
 10  9  2  0
 12 11  1  6
 12 14  1  0
 12 13  1  0
 14 15  1  0
 16 14  2  0
M  END
$$$$
