GCA.pdb
     RDKit          3D

 16 15  0  0  1  0  0  0  0  0999 V2000
   21.0270  -12.2058  -18.4674 N   0  0  0  0  0  0  0  0  0  0  0  0
   21.0846  -10.7683  -18.6606 C   0  0  0  0  0  0  0  0  0  0  0  0
   20.8053  -10.1261  -17.3448 C   0  0  0  0  0  0  0  0  0  0  0  0
   19.6815  -10.2669  -16.7586 O   0  0  0  0  0  0  0  0  0  0  0  0
   21.7571   -9.3234  -16.6608 N   0  0  0  0  0  0  0  0  0  0  0  0
   21.4727   -8.7476  -15.3683 C   0  0  1  0  0  0  0  0  0  0  0  0
   22.3202   -9.4824  -14.3550 C   0  0  0  0  0  0  0  0  0  0  0  0
   22.0532   -8.7715  -12.7123 S   0  0  0  0  0  0  0  0  0  0  0  0
   21.6921   -7.2877  -15.3311 C   0  0  0  0  0  0  0  0  0  0  0  0
   22.8218   -6.8540  -15.6665 O   0  0  0  0  0  0  0  0  0  0  0  0
   19.4980   -4.2965  -14.8167 C   0  0  0  0  0  0  0  0  0  0  0  0
   20.8784   -4.9254  -14.9528 C   0  0  2  0  0  0  0  0  0  0  0  0
   20.7057   -6.3552  -14.9405 N   0  0  0  0  0  0  0  0  0  0  0  0
   21.8138   -4.4394  -13.9380 C   0  0  0  0  0  0  0  0  0  0  0  0
   22.1350   -5.2475  -12.8639 O   0  0  0  0  0  0  0  0  0  0  0  0
   22.3421   -3.3081  -14.0027 O   0  0  0  0  0  0  0  0  0  0  0  0
  2  1  1  0
  2  3  1  0
  3  4  2  0
  5  3  1  0
  5  6  1  0
  6  7  1  1
  7  8  1  0
  9 13  1  0
  9  6  1  0
 10  9  2  0
 12 11  1  1
 12 14  1  0
 12 13  1  0
 14 15  1  0
 16 14  2  0
M  END
$$$$
