GCA.pdb
     RDKit          3D

 16 15  0  0  1  0  0  0  0  0999 V2000
   17.2003  -10.1461  -13.3062 N   0  0  0  0  0  0  0  0  0  0  0  0
   17.8196   -9.1819  -12.4151 C   0  0  0  0  0  0  0  0  0  0  0  0
   16.7266   -8.4178  -11.7494 C   0  0  0  0  0  0  0  0  0  0  0  0
   15.6315   -8.1595  -12.3498 O   0  0  0  0  0  0  0  0  0  0  0  0
   16.8259   -7.9305  -10.4188 N   0  0  0  0  0  0  0  0  0  0  0  0
   15.7616   -7.1691   -9.8099 C   0  0  1  0  0  0  0  0  0  0  0  0
   15.6462   -7.6301   -8.3749 C   0  0  0  0  0  0  0  0  0  0  0  0
   14.2660   -6.7771   -7.5736 S   0  0  0  0  0  0  0  0  0  0  0  0
   15.9675   -5.7107   -9.9164 C   0  0  0  0  0  0  0  0  0  0  0  0
   17.0478   -5.2362   -9.4867 O   0  0  0  0  0  0  0  0  0  0  0  0
   14.0541   -2.8518  -11.4185 C   0  0  0  0  0  0  0  0  0  0  0  0
   15.1849   -3.3941  -10.5545 C   0  0  2  0  0  0  0  0  0  0  0  0
   15.0204   -4.8226  -10.4727 N   0  0  0  0  0  0  0  0  0  0  0  0
   15.2524   -2.7365   -9.2491 C   0  0  0  0  0  0  0  0  0  0  0  0
   15.7287   -1.4421   -9.1613 O   0  0  0  0  0  0  0  0  0  0  0  0
   14.8922   -3.3042   -8.1950 O   0  0  0  0  0  0  0  0  0  0  0  0
  2  1  1  0
  2  3  1  0
  3  4  2  0
  5  3  1  0
  5  6  1  0
  6  7  1  1
  7  8  1  0
  9 13  1  0
  9  6  1  0
 10  9  2  0
 12 11  1  6
 12 14  1  0
 12 13  1  0
 14 15  1  0
 16 14  2  0
M  END
$$$$
