GCA.pdb
     RDKit          3D

 16 15  0  0  1  0  0  0  0  0999 V2000
   28.6511  -21.6710  -15.9906 N   0  0  0  0  0  0  0  0  0  0  0  0
   28.1504  -20.5880  -15.1638 C   0  0  0  0  0  0  0  0  0  0  0  0
   27.1327  -21.1621  -14.2384 C   0  0  0  0  0  0  0  0  0  0  0  0
   26.4459  -22.1887  -14.5557 O   0  0  0  0  0  0  0  0  0  0  0  0
   26.8599  -20.6144  -12.9564 N   0  0  0  0  0  0  0  0  0  0  0  0
   25.7911  -21.1200  -12.1288 C   0  0  1  0  0  0  0  0  0  0  0  0
   26.1062  -20.7294  -10.7029 C   0  0  0  0  0  0  0  0  0  0  0  0
   24.7740  -21.2880   -9.6130 S   0  0  0  0  0  0  0  0  0  0  0  0
   24.4603  -20.6466  -12.5597 C   0  0  0  0  0  0  0  0  0  0  0  0
   24.2805  -19.4079  -12.6594 O   0  0  0  0  0  0  0  0  0  0  0  0
   21.5369  -22.0936  -14.2659 C   0  0  0  0  0  0  0  0  0  0  0  0
   22.0741  -21.0667  -13.2777 C   0  0  2  0  0  0  0  0  0  0  0  0
   23.3820  -21.5065  -12.8649 N   0  0  0  0  0  0  0  0  0  0  0  0
   21.1554  -20.8334  -12.1630 C   0  0  0  0  0  0  0  0  0  0  0  0
   20.0503  -20.0244  -12.3479 O   0  0  0  0  0  0  0  0  0  0  0  0
   21.3307  -21.3423  -11.0345 O   0  0  0  0  0  0  0  0  0  0  0  0
  2  1  1  0
  2  3  1  0
  3  4  2  0
  5  3  1  0
  5  6  1  0
  6  7  1  1
  7  8  1  0
  9 13  1  0
  9  6  1  0
 10  9  2  0
 12 11  1  6
 12 14  1  0
 12 13  1  0
 14 15  1  0
 16 14  2  0
M  END
$$$$
