GCA.pdb
     RDKit          3D

 16 15  0  0  1  0  0  0  0  0999 V2000
   18.2465  -11.9817  -17.8840 N   0  0  0  0  0  0  0  0  0  0  0  0
   19.0281  -10.7869  -18.1461 C   0  0  0  0  0  0  0  0  0  0  0  0
   19.4023  -10.1965  -16.8296 C   0  0  0  0  0  0  0  0  0  0  0  0
   18.5623  -10.1100  -15.8740 O   0  0  0  0  0  0  0  0  0  0  0  0
   20.7021   -9.6957  -16.5505 N   0  0  0  0  0  0  0  0  0  0  0  0
   21.0139   -9.0579  -15.2939 C   0  0  1  0  0  0  0  0  0  0  0  0
   22.2357   -9.7489  -14.7326 C   0  0  0  0  0  0  0  0  0  0  0  0
   22.7068   -8.9708  -13.1682 S   0  0  0  0  0  0  0  0  0  0  0  0
   21.2038   -7.5992  -15.4237 C   0  0  0  0  0  0  0  0  0  0  0  0
   22.0531   -7.1880  -16.2521 O   0  0  0  0  0  0  0  0  0  0  0  0
   19.4152   -4.5337  -14.3350 C   0  0  0  0  0  0  0  0  0  0  0  0
   20.7197   -5.2234  -14.7117 C   0  0  2  0  0  0  0  0  0  0  0  0
   20.4859   -6.6439  -14.6706 N   0  0  0  0  0  0  0  0  0  0  0  0
   21.8400   -4.7896  -13.8763 C   0  0  0  0  0  0  0  0  0  0  0  0
   22.3327   -5.6373  -12.9024 O   0  0  0  0  0  0  0  0  0  0  0  0
   22.3777   -3.6686  -14.0083 O   0  0  0  0  0  0  0  0  0  0  0  0
  2  1  1  0
  2  3  1  0
  3  4  2  0
  5  3  1  0
  5  6  1  0
  6  7  1  6
  7  8  1  0
  9 13  1  0
  9  6  1  0
 10  9  2  0
 12 11  1  1
 12 14  1  0
 12 13  1  0
 14 15  1  0
 16 14  2  0
M  END
$$$$
