GCA.pdb
     RDKit          3D

 16 15  0  0  1  0  0  0  0  0999 V2000
   19.9277  -11.8008  -17.7977 N   0  0  0  0  0  0  0  0  0  0  0  0
   20.4286  -10.4909  -18.1724 C   0  0  0  0  0  0  0  0  0  0  0  0
   19.9364   -9.5144  -17.1595 C   0  0  0  0  0  0  0  0  0  0  0  0
   19.2969   -8.4649  -17.5000 O   0  0  0  0  0  0  0  0  0  0  0  0
   20.1419   -9.6814  -15.7638 N   0  0  0  0  0  0  0  0  0  0  0  0
   19.6765   -8.7053  -14.8079 C   0  0  1  0  0  0  0  0  0  0  0  0
   19.3265   -9.4517  -13.5408 C   0  0  0  0  0  0  0  0  0  0  0  0
   18.8584   -8.2709  -12.2518 S   0  0  0  0  0  0  0  0  0  0  0  0
   20.6543   -7.6243  -14.5711 C   0  0  0  0  0  0  0  0  0  0  0  0
   21.8185   -7.9486  -14.2302 O   0  0  0  0  0  0  0  0  0  0  0  0
   20.7102   -3.9348  -15.1774 C   0  0  0  0  0  0  0  0  0  0  0  0
   21.3070   -5.1832  -14.5412 C   0  0  2  0  0  0  0  0  0  0  0  0
   20.3543   -6.2507  -14.7061 N   0  0  0  0  0  0  0  0  0  0  0  0
   21.7051   -4.9630  -13.1505 C   0  0  0  0  0  0  0  0  0  0  0  0
   22.8748   -4.2800  -12.8760 O   0  0  0  0  0  0  0  0  0  0  0  0
   21.0221   -5.3725  -12.1866 O   0  0  0  0  0  0  0  0  0  0  0  0
  2  1  1  0
  2  3  1  0
  3  4  2  0
  5  3  1  0
  5  6  1  0
  6  7  1  1
  7  8  1  0
  9 13  1  0
  9  6  1  0
 10  9  2  0
 12 11  1  1
 12 14  1  0
 12 13  1  0
 14 15  1  0
 16 14  2  0
M  END
$$$$
