GCA.pdb
     RDKit          3D

 16 15  0  0  1  0  0  0  0  0999 V2000
   22.7392  -20.5224  -15.5992 N   0  0  0  0  0  0  0  0  0  0  0  0
   23.3367  -19.6301  -16.5760 C   0  0  0  0  0  0  0  0  0  0  0  0
   23.6459  -18.3470  -15.8833 C   0  0  0  0  0  0  0  0  0  0  0  0
   23.0777  -18.0264  -14.7876 O   0  0  0  0  0  0  0  0  0  0  0  0
   24.5817  -17.4045  -16.3873 N   0  0  0  0  0  0  0  0  0  0  0  0
   24.6704  -16.0663  -15.8542 C   0  0  1  0  0  0  0  0  0  0  0  0
   26.1360  -15.7689  -15.6334 C   0  0  0  0  0  0  0  0  0  0  0  0
   26.3209  -14.0989  -14.9614 S   0  0  0  0  0  0  0  0  0  0  0  0
   24.0174  -15.0616  -16.7173 C   0  0  0  0  0  0  0  0  0  0  0  0
   24.3477  -15.0226  -17.9282 O   0  0  0  0  0  0  0  0  0  0  0  0
   21.5147  -12.3123  -16.1605 C   0  0  0  0  0  0  0  0  0  0  0  0
   22.4933  -13.0728  -17.0457 C   0  0  2  0  0  0  0  0  0  0  0  0
   23.0453  -14.1453  -16.2585 N   0  0  0  0  0  0  0  0  0  0  0  0
   23.5066  -12.1972  -17.6353 C   0  0  0  0  0  0  0  0  0  0  0  0
   24.6062  -11.8252  -16.8855 O   0  0  0  0  0  0  0  0  0  0  0  0
   23.4181  -11.7654  -18.8053 O   0  0  0  0  0  0  0  0  0  0  0  0
  2  1  1  0
  2  3  1  0
  3  4  2  0
  5  3  1  0
  5  6  1  0
  6  7  1  6
  7  8  1  0
  9 13  1  0
  9  6  1  0
 10  9  2  0
 12 11  1  1
 12 14  1  0
 12 13  1  0
 14 15  1  0
 16 14  2  0
M  END
$$$$
