GCA.pdb
     RDKit          3D

 16 15  0  0  1  0  0  0  0  0999 V2000
   20.3289  -23.2471  -11.6272 N   0  0  0  0  0  0  0  0  0  0  0  0
   21.1714  -23.3763  -12.8022 C   0  0  0  0  0  0  0  0  0  0  0  0
   21.9379  -22.1063  -12.9480 C   0  0  0  0  0  0  0  0  0  0  0  0
   21.3586  -21.0057  -13.2298 O   0  0  0  0  0  0  0  0  0  0  0  0
   23.3473  -22.0332  -12.7857 N   0  0  0  0  0  0  0  0  0  0  0  0
   24.0600  -20.7845  -12.9107 C   0  0  1  0  0  0  0  0  0  0  0  0
   25.3512  -20.9270  -12.1376 C   0  0  0  0  0  0  0  0  0  0  0  0
   24.9913  -21.0011  -10.3656 S   0  0  0  0  0  0  0  0  0  0  0  0
   24.2875  -20.3932  -14.3164 C   0  0  0  0  0  0  0  0  0  0  0  0
   24.7421  -21.2608  -15.1023 O   0  0  0  0  0  0  0  0  0  0  0  0
   23.3490  -17.4562  -16.4210 C   0  0  0  0  0  0  0  0  0  0  0  0
   24.1753  -18.7170  -16.2042 C   0  0  2  0  0  0  0  0  0  0  0  0
   24.0233  -19.1021  -14.8246 N   0  0  0  0  0  0  0  0  0  0  0  0
   25.5694  -18.5461  -16.6146 C   0  0  0  0  0  0  0  0  0  0  0  0
   25.8877  -18.5340  -17.9593 O   0  0  0  0  0  0  0  0  0  0  0  0
   26.4976  -18.4087  -15.7883 O   0  0  0  0  0  0  0  0  0  0  0  0
  2  1  1  0
  2  3  1  0
  3  4  2  0
  5  3  1  0
  5  6  1  0
  6  7  1  1
  7  8  1  0
  9 13  1  0
  9  6  1  0
 10  9  2  0
 12 11  1  1
 12 14  1  0
 12 13  1  0
 14 15  1  0
 16 14  2  0
M  END
$$$$
