GCA.pdb
     RDKit          3D

 16 15  0  0  1  0  0  0  0  0999 V2000
   23.1228  -12.5907  -20.8201 N   0  0  0  0  0  0  0  0  0  0  0  0
   24.4105  -12.1290  -20.3346 C   0  0  0  0  0  0  0  0  0  0  0  0
   24.2277  -11.6907  -18.9217 C   0  0  0  0  0  0  0  0  0  0  0  0
   23.5199  -12.3626  -18.1008 O   0  0  0  0  0  0  0  0  0  0  0  0
   24.8203  -10.5109  -18.3974 N   0  0  0  0  0  0  0  0  0  0  0  0
   24.5863  -10.0857  -17.0382 C   0  0  1  0  0  0  0  0  0  0  0  0
   25.9352   -9.9795  -16.3641 C   0  0  0  0  0  0  0  0  0  0  0  0
   25.7216   -9.3692  -14.6739 S   0  0  0  0  0  0  0  0  0  0  0  0
   23.8168   -8.8280  -16.9561 C   0  0  0  0  0  0  0  0  0  0  0  0
   24.2840   -7.8140  -17.5309 O   0  0  0  0  0  0  0  0  0  0  0  0
   20.4208   -7.8698  -15.7049 C   0  0  0  0  0  0  0  0  0  0  0  0
   21.8133   -7.4910  -16.1916 C   0  0  2  0  0  0  0  0  0  0  0  0
   22.5889   -8.7022  -16.2695 N   0  0  0  0  0  0  0  0  0  0  0  0
   22.4290   -6.4533  -15.3638 C   0  0  0  0  0  0  0  0  0  0  0  0
   21.9488   -5.1588  -15.4240 O   0  0  0  0  0  0  0  0  0  0  0  0
   23.3846   -6.6918  -14.5936 O   0  0  0  0  0  0  0  0  0  0  0  0
  2  1  1  0
  2  3  1  0
  3  4  2  0
  5  3  1  0
  5  6  1  0
  6  7  1  6
  7  8  1  0
  9 13  1  0
  9  6  1  0
 10  9  2  0
 12 11  1  1
 12 14  1  0
 12 13  1  0
 14 15  1  0
 16 14  2  0
M  END
$$$$
