GCA.pdb
     RDKit          3D

 16 15  0  0  1  0  0  0  0  0999 V2000
   20.8765  -16.8099  -18.4011 N   0  0  0  0  0  0  0  0  0  0  0  0
   20.2523  -15.5426  -18.7350 C   0  0  0  0  0  0  0  0  0  0  0  0
   20.5140  -14.6018  -17.6090 C   0  0  0  0  0  0  0  0  0  0  0  0
   19.7833  -14.5921  -16.5638 O   0  0  0  0  0  0  0  0  0  0  0  0
   21.5802  -13.6631  -17.6202 N   0  0  0  0  0  0  0  0  0  0  0  0
   21.8055  -12.7599  -16.5172 C   0  0  1  0  0  0  0  0  0  0  0  0
   23.2999  -12.5683  -16.3940 C   0  0  0  0  0  0  0  0  0  0  0  0
   24.0060  -13.9208  -15.4208 S   0  0  0  0  0  0  0  0  0  0  0  0
   21.0858  -11.4794  -16.6695 C   0  0  0  0  0  0  0  0  0  0  0  0
   21.4000  -10.7392  -17.6338 O   0  0  0  0  0  0  0  0  0  0  0  0
   18.2192   -9.8171  -14.9019 C   0  0  0  0  0  0  0  0  0  0  0  0
   19.3371   -9.8090  -15.9362 C   0  0  2  0  0  0  0  0  0  0  0  0
   20.0672  -11.0424  -15.7940 N   0  0  0  0  0  0  0  0  0  0  0  0
   20.1780   -8.6156  -15.8376 C   0  0  0  0  0  0  0  0  0  0  0  0
   19.7769   -7.4459  -16.4546 O   0  0  0  0  0  0  0  0  0  0  0  0
   21.2592   -8.6096  -15.2098 O   0  0  0  0  0  0  0  0  0  0  0  0
  2  1  1  0
  2  3  1  0
  3  4  2  0
  5  3  1  0
  5  6  1  0
  6  7  1  6
  7  8  1  0
  9 13  1  0
  9  6  1  0
 10  9  2  0
 12 11  1  1
 12 14  1  0
 12 13  1  0
 14 15  1  0
 16 14  2  0
M  END
$$$$
