GCA.pdb
     RDKit          3D

 16 15  0  0  1  0  0  0  0  0999 V2000
   21.1018  -13.9944  -17.8447 N   0  0  0  0  0  0  0  0  0  0  0  0
   19.9777  -13.0853  -17.9754 C   0  0  0  0  0  0  0  0  0  0  0  0
   20.1232  -12.0363  -16.9266 C   0  0  0  0  0  0  0  0  0  0  0  0
   19.4058  -12.0427  -15.8723 O   0  0  0  0  0  0  0  0  0  0  0  0
   21.0576  -10.9709  -17.0258 N   0  0  0  0  0  0  0  0  0  0  0  0
   21.1794   -9.9719  -15.9913 C   0  0  1  0  0  0  0  0  0  0  0  0
   22.6489   -9.8493  -15.6586 C   0  0  0  0  0  0  0  0  0  0  0  0
   22.8390   -9.3422  -13.9319 S   0  0  0  0  0  0  0  0  0  0  0  0
   20.5800   -8.6771  -16.3722 C   0  0  0  0  0  0  0  0  0  0  0  0
   20.9469   -8.1545  -17.4534 O   0  0  0  0  0  0  0  0  0  0  0  0
   17.8486   -6.4835  -15.0572 C   0  0  0  0  0  0  0  0  0  0  0  0
   19.1186   -6.6763  -15.8753 C   0  0  2  0  0  0  0  0  0  0  0  0
   19.6204   -7.9960  -15.5909 N   0  0  0  0  0  0  0  0  0  0  0  0
   20.0977   -5.6142  -15.6417 C   0  0  0  0  0  0  0  0  0  0  0  0
   19.8828   -4.3587  -16.1776 O   0  0  0  0  0  0  0  0  0  0  0  0
   21.1350   -5.7975  -14.9681 O   0  0  0  0  0  0  0  0  0  0  0  0
  2  1  1  0
  2  3  1  0
  3  4  2  0
  5  3  1  0
  5  6  1  0
  6  7  1  6
  7  8  1  0
  9 13  1  0
  9  6  1  0
 10  9  2  0
 12 11  1  1
 12 14  1  0
 12 13  1  0
 14 15  1  0
 16 14  2  0
M  END
$$$$
