DAS.pdb
     RDKit          3D

 20 19  0  0  1  0  0  0  0  0999 V2000
   26.3368  -19.3919  -14.0522 N   0  0  0  0  0  0  0  0  0  0  0  0
   26.5348  -20.4663  -13.1245 C   0  0  1  0  0  0  0  0  0  0  0  0
   27.9174  -21.0547  -13.2660 C   0  0  0  0  0  0  0  0  0  0  0  0
   27.9658  -21.9977  -14.4064 C   0  0  0  0  0  0  0  0  0  0  0  0
   26.8983  -22.3965  -14.9087 O   0  0  0  0  0  0  0  0  0  0  0  0
   26.3277  -19.9582  -11.7438 C   0  0  0  0  0  0  0  0  0  0  0  0
   26.8395  -18.8342  -11.4713 O   0  0  0  0  0  0  0  0  0  0  0  0
   29.1951  -22.4463  -14.9260 O   0  0  0  0  0  0  0  0  0  0  0  0
   24.0715  -20.7658   -8.9451 C   0  0  0  0  0  0  0  0  0  0  0  0
   25.3623  -20.2034   -9.4652 C   0  0  2  0  0  0  0  0  0  0  0  0
   25.6016  -20.6925  -10.7970 N   0  0  0  0  0  0  0  0  0  0  0  0
   26.4973  -20.5558   -8.5710 C   0  0  0  0  0  0  0  0  0  0  0  0
   27.1826  -21.5881   -8.6844 O   0  0  0  0  0  0  0  0  0  0  0  0
   29.7705  -19.0958   -5.4074 O   0  0  0  0  0  0  0  0  0  0  0  0
   28.8047  -18.7154   -6.3492 C   0  0  0  0  0  0  0  0  0  0  0  0
   27.8945  -19.9103   -6.5713 C   0  0  2  0  0  0  0  0  0  0  0  0
   26.8388  -19.6625   -7.5036 N   0  0  0  0  0  0  0  0  0  0  0  0
   27.4166  -20.4458   -5.2789 C   0  0  0  0  0  0  0  0  0  0  0  0
   28.2346  -21.0603   -4.3460 O   0  0  0  0  0  0  0  0  0  0  0  0
   26.1966  -20.3381   -5.0094 O   0  0  0  0  0  0  0  0  0  0  0  0
  2  1  1  6
  2  3  1  0
  3  4  1  0
  4  8  1  0
  5  4  2  0
  6  2  1  0
  6  7  2  0
 10  9  1  1
 10 11  1  0
 11  6  1  0
 12 13  2  0
 12 10  1  0
 14 15  1  0
 16 17  1  0
 16 15  1  1
 17 12  1  0
 18 16  1  0
 19 18  1  0
 20 18  2  0
M  END
$$$$
