DAS.pdb
     RDKit          3D

 20 19  0  0  1  0  0  0  0  0999 V2000
   18.3447  -12.7244  -16.4518 N   0  0  0  0  0  0  0  0  0  0  0  0
   17.7282  -11.4686  -16.1403 C   0  0  1  0  0  0  0  0  0  0  0  0
   17.2308  -11.4494  -14.7154 C   0  0  0  0  0  0  0  0  0  0  0  0
   16.1297  -12.4230  -14.5371 C   0  0  0  0  0  0  0  0  0  0  0  0
   15.1208  -12.3363  -15.2620 O   0  0  0  0  0  0  0  0  0  0  0  0
   18.7135  -10.3782  -16.3588 C   0  0  0  0  0  0  0  0  0  0  0  0
   19.8695  -10.5544  -15.8769 O   0  0  0  0  0  0  0  0  0  0  0  0
   16.2085  -13.4383  -13.5648 O   0  0  0  0  0  0  0  0  0  0  0  0
   18.8353   -7.2745  -18.4016 C   0  0  0  0  0  0  0  0  0  0  0  0
   19.3062   -8.1418  -17.2706 C   0  0  2  0  0  0  0  0  0  0  0  0
   18.3721   -9.2164  -17.0636 N   0  0  0  0  0  0  0  0  0  0  0  0
   19.4710   -7.3495  -16.0228 C   0  0  0  0  0  0  0  0  0  0  0  0
   18.5850   -7.2109  -15.1602 O   0  0  0  0  0  0  0  0  0  0  0  0
   22.5809   -5.0508  -13.1089 O   0  0  0  0  0  0  0  0  0  0  0  0
   22.4713   -5.7223  -14.3343 C   0  0  0  0  0  0  0  0  0  0  0  0
   20.9910   -5.9054  -14.6188 C   0  0  2  0  0  0  0  0  0  0  0  0
   20.7229   -6.6955  -15.7801 N   0  0  0  0  0  0  0  0  0  0  0  0
   20.2995   -4.5988  -14.6306 C   0  0  0  0  0  0  0  0  0  0  0  0
   19.6743   -4.0442  -13.5268 O   0  0  0  0  0  0  0  0  0  0  0  0
   20.2767   -3.9520  -15.7048 O   0  0  0  0  0  0  0  0  0  0  0  0
  2  1  1  1
  2  3  1  0
  3  4  1  0
  4  8  1  0
  5  4  2  0
  6  2  1  0
  6  7  2  0
 10  9  1  6
 10 11  1  0
 11  6  1  0
 12 13  2  0
 12 10  1  0
 14 15  1  0
 16 17  1  0
 16 15  1  6
 17 12  1  0
 18 16  1  0
 19 18  1  0
 20 18  2  0
M  END
$$$$
