DAS.pdb
     RDKit          3D

 20 19  0  0  1  0  0  0  0  0999 V2000
   16.5454  -10.0077  -12.0779 N   0  0  0  0  0  0  0  0  0  0  0  0
   17.1492   -8.7928  -11.6159 C   0  0  1  0  0  0  0  0  0  0  0  0
   17.7698   -8.0285  -12.7599 C   0  0  0  0  0  0  0  0  0  0  0  0
   18.9323   -8.7652  -13.3059 C   0  0  0  0  0  0  0  0  0  0  0  0
   18.8646   -9.2372  -14.4564 O   0  0  0  0  0  0  0  0  0  0  0  0
   16.1164   -7.9650  -10.9409 C   0  0  0  0  0  0  0  0  0  0  0  0
   15.0412   -7.7706  -11.5780 O   0  0  0  0  0  0  0  0  0  0  0  0
   20.1048   -8.9378  -12.5458 O   0  0  0  0  0  0  0  0  0  0  0  0
   15.3558   -7.0070   -7.5078 C   0  0  0  0  0  0  0  0  0  0  0  0
   15.3219   -6.6724   -8.9706 C   0  0  2  0  0  0  0  0  0  0  0  0
   16.3298   -7.4300   -9.6637 N   0  0  0  0  0  0  0  0  0  0  0  0
   15.5249   -5.2155   -9.1902 C   0  0  0  0  0  0  0  0  0  0  0  0
   16.6394   -4.6740   -9.3040 O   0  0  0  0  0  0  0  0  0  0  0  0
   13.3731   -0.9833  -10.2042 O   0  0  0  0  0  0  0  0  0  0  0  0
   13.1223   -2.3229   -9.8774 C   0  0  0  0  0  0  0  0  0  0  0  0
   14.4516   -2.9531   -9.5012 C   0  0  2  0  0  0  0  0  0  0  0  0
   14.3759   -4.3636   -9.2784 N   0  0  0  0  0  0  0  0  0  0  0  0
   15.0750   -2.2187   -8.3797 C   0  0  0  0  0  0  0  0  0  0  0  0
   15.9688   -1.1737   -8.5408 O   0  0  0  0  0  0  0  0  0  0  0  0
   14.7774   -2.5617   -7.2107 O   0  0  0  0  0  0  0  0  0  0  0  0
  2  1  1  6
  2  3  1  0
  3  4  1  0
  4  8  1  0
  5  4  2  0
  6  2  1  0
  6  7  2  0
 10  9  1  1
 10 11  1  0
 11  6  1  0
 12 13  2  0
 12 10  1  0
 14 15  1  0
 16 17  1  0
 16 15  1  1
 17 12  1  0
 18 16  1  0
 19 18  1  0
 20 18  2  0
M  END
$$$$
