DAS.pdb
     RDKit          3D

 20 19  0  0  1  0  0  0  0  0999 V2000
   17.7601  -11.6366  -15.5567 N   0  0  0  0  0  0  0  0  0  0  0  0
   19.0727  -11.8621  -16.0862 C   0  0  1  0  0  0  0  0  0  0  0  0
   19.0370  -12.8713  -17.2079 C   0  0  0  0  0  0  0  0  0  0  0  0
   18.4649  -14.1524  -16.7352 C   0  0  0  0  0  0  0  0  0  0  0  0
   18.8003  -14.5906  -15.6187 O   0  0  0  0  0  0  0  0  0  0  0  0
   19.6282  -10.5715  -16.5693 C   0  0  0  0  0  0  0  0  0  0  0  0
   20.8147  -10.5939  -17.0068 O   0  0  0  0  0  0  0  0  0  0  0  0
   17.5531  -14.8766  -17.5268 O   0  0  0  0  0  0  0  0  0  0  0  0
   18.4363   -7.4436  -17.8746 C   0  0  0  0  0  0  0  0  0  0  0  0
   19.4066   -8.1246  -16.9539 C   0  0  2  0  0  0  0  0  0  0  0  0
   18.8704   -9.3935  -16.5384 N   0  0  0  0  0  0  0  0  0  0  0  0
   19.7064   -7.2750  -15.7706 C   0  0  0  0  0  0  0  0  0  0  0  0
   19.1333   -7.3797  -14.6712 O   0  0  0  0  0  0  0  0  0  0  0  0
   22.6061   -5.9520  -12.7814 O   0  0  0  0  0  0  0  0  0  0  0  0
   21.8906   -6.6689  -13.7501 C   0  0  0  0  0  0  0  0  0  0  0  0
   21.3645   -5.6639  -14.7595 C   0  0  2  0  0  0  0  0  0  0  0  0
   20.7165   -6.2647  -15.8838 N   0  0  0  0  0  0  0  0  0  0  0  0
   22.4255   -4.7077  -15.1409 C   0  0  0  0  0  0  0  0  0  0  0  0
   22.9847   -4.6362  -16.4055 O   0  0  0  0  0  0  0  0  0  0  0  0
   22.8460   -3.9122  -14.2674 O   0  0  0  0  0  0  0  0  0  0  0  0
  2  1  1  6
  2  3  1  0
  3  4  1  0
  4  8  1  0
  5  4  2  0
  6  2  1  0
  6  7  2  0
 10  9  1  6
 10 11  1  0
 11  6  1  0
 12 13  2  0
 12 10  1  0
 14 15  1  0
 16 17  1  0
 16 15  1  1
 17 12  1  0
 18 16  1  0
 19 18  1  0
 20 18  2  0
M  END
$$$$
