DAS.pdb
     RDKit          3D

 20 19  0  0  1  0  0  0  0  0999 V2000
   20.0147  -12.0782  -15.8272 N   0  0  0  0  0  0  0  0  0  0  0  0
   19.7467  -10.7900  -16.3955 C   0  0  1  0  0  0  0  0  0  0  0  0
   18.3245  -10.3643  -16.1229 C   0  0  0  0  0  0  0  0  0  0  0  0
   17.3720  -11.2737  -16.7994 C   0  0  0  0  0  0  0  0  0  0  0  0
   16.4228  -11.7499  -16.1490 O   0  0  0  0  0  0  0  0  0  0  0  0
   20.7001   -9.8022  -15.8273 C   0  0  0  0  0  0  0  0  0  0  0  0
   20.5307   -9.4843  -14.6149 O   0  0  0  0  0  0  0  0  0  0  0  0
   17.5252  -11.6047  -18.1593 O   0  0  0  0  0  0  0  0  0  0  0  0
   23.9401   -8.3419  -16.8572 C   0  0  0  0  0  0  0  0  0  0  0  0
   22.6624   -8.2943  -16.0709 C   0  0  2  0  0  0  0  0  0  0  0  0
   21.7317   -9.2549  -16.6012 N   0  0  0  0  0  0  0  0  0  0  0  0
   22.0708   -6.9300  -16.0953 C   0  0  0  0  0  0  0  0  0  0  0  0
   21.2214   -6.5506  -16.9217 O   0  0  0  0  0  0  0  0  0  0  0  0
   21.4281   -4.8347  -12.8570 O   0  0  0  0  0  0  0  0  0  0  0  0
   22.1006   -3.9689  -13.7302 C   0  0  0  0  0  0  0  0  0  0  0  0
   22.0773   -4.6080  -15.1075 C   0  0  2  0  0  0  0  0  0  0  0  0
   22.4935   -5.9761  -15.1128 N   0  0  0  0  0  0  0  0  0  0  0  0
   22.8122   -3.7716  -16.0800 C   0  0  0  0  0  0  0  0  0  0  0  0
   22.3800   -2.5305  -16.5156 O   0  0  0  0  0  0  0  0  0  0  0  0
   23.8931   -4.2113  -16.5396 O   0  0  0  0  0  0  0  0  0  0  0  0
  2  1  1  1
  2  3  1  0
  3  4  1  0
  4  8  1  0
  5  4  2  0
  6  2  1  0
  6  7  2  0
 10  9  1  6
 10 11  1  0
 11  6  1  0
 12 13  2  0
 12 10  1  0
 14 15  1  0
 16 17  1  0
 16 15  1  1
 17 12  1  0
 18 16  1  0
 19 18  1  0
 20 18  2  0
M  END
$$$$
