DAS.pdb
     RDKit          3D

 20 19  0  0  1  0  0  0  0  0999 V2000
   14.1578  -11.1665  -11.1206 N   0  0  0  0  0  0  0  0  0  0  0  0
   15.4010  -10.5212  -10.8169 C   0  0  1  0  0  0  0  0  0  0  0  0
   16.3745  -10.6573  -11.9623 C   0  0  0  0  0  0  0  0  0  0  0  0
   16.7085  -12.0811  -12.1929 C   0  0  0  0  0  0  0  0  0  0  0  0
   16.7133  -12.5215  -13.3578 O   0  0  0  0  0  0  0  0  0  0  0  0
   15.1435   -9.0874  -10.5247 C   0  0  0  0  0  0  0  0  0  0  0  0
   14.4212   -8.4614  -11.3529 O   0  0  0  0  0  0  0  0  0  0  0  0
   17.0181  -12.9375  -11.1190 O   0  0  0  0  0  0  0  0  0  0  0  0
   15.7987   -6.7940   -7.6664 C   0  0  0  0  0  0  0  0  0  0  0  0
   15.4658   -7.0725   -9.1033 C   0  0  2  0  0  0  0  0  0  0  0  0
   15.6774   -8.4670   -9.3876 N   0  0  0  0  0  0  0  0  0  0  0  0
   16.2826   -6.2271  -10.0143 C   0  0  0  0  0  0  0  0  0  0  0  0
   17.3082   -6.6188  -10.6000 O   0  0  0  0  0  0  0  0  0  0  0  0
   16.8384   -3.8048  -13.5997 O   0  0  0  0  0  0  0  0  0  0  0  0
   16.2844   -4.6998  -12.6743 C   0  0  0  0  0  0  0  0  0  0  0  0
   16.3992   -4.0601  -11.3020 C   0  0  2  0  0  0  0  0  0  0  0  0
   15.8797   -4.8713  -10.2450 N   0  0  0  0  0  0  0  0  0  0  0  0
   15.8363   -2.6933  -11.3180 C   0  0  0  0  0  0  0  0  0  0  0  0
   16.5744   -1.5557  -11.5974 O   0  0  0  0  0  0  0  0  0  0  0  0
   14.6164   -2.5535  -11.0632 O   0  0  0  0  0  0  0  0  0  0  0  0
  2  1  1  6
  2  3  1  0
  3  4  1  0
  4  8  1  0
  5  4  2  0
  6  2  1  0
  6  7  2  0
 10  9  1  1
 10 11  1  0
 11  6  1  0
 12 13  2  0
 12 10  1  0
 14 15  1  0
 16 17  1  0
 16 15  1  6
 17 12  1  0
 18 16  1  0
 19 18  1  0
 20 18  2  0
M  END
$$$$
