DAS.pdb
     RDKit          3D

 20 19  0  0  1  0  0  0  0  0999 V2000
   19.4532  -12.5255  -16.9209 N   0  0  0  0  0  0  0  0  0  0  0  0
   19.2710  -11.2203  -17.4843 C   0  0  1  0  0  0  0  0  0  0  0  0
   17.9094  -10.6680  -17.1394 C   0  0  0  0  0  0  0  0  0  0  0  0
   16.8433  -11.5150  -17.7208 C   0  0  0  0  0  0  0  0  0  0  0  0
   16.9275  -11.8610  -18.9141 O   0  0  0  0  0  0  0  0  0  0  0  0
   20.3382  -10.3203  -16.9760 C   0  0  0  0  0  0  0  0  0  0  0  0
   20.4752  -10.2571  -15.7202 O   0  0  0  0  0  0  0  0  0  0  0  0
   15.7431  -11.9308  -16.9468 O   0  0  0  0  0  0  0  0  0  0  0  0
   23.1375   -8.4237  -18.5383 C   0  0  0  0  0  0  0  0  0  0  0  0
   22.2478   -8.7802  -17.3832 C   0  0  2  0  0  0  0  0  0  0  0  0
   21.1476   -9.5819  -17.8492 N   0  0  0  0  0  0  0  0  0  0  0  0
   21.7466   -7.5589  -16.6983 C   0  0  0  0  0  0  0  0  0  0  0  0
   20.7022   -6.9597  -17.0120 O   0  0  0  0  0  0  0  0  0  0  0  0
   22.3147   -4.5331  -12.9438 O   0  0  0  0  0  0  0  0  0  0  0  0
   22.8124   -5.6976  -13.5443 C   0  0  0  0  0  0  0  0  0  0  0  0
   22.1308   -5.8371  -14.8940 C   0  0  2  0  0  0  0  0  0  0  0  0
   22.5011   -7.0214  -15.6048 N   0  0  0  0  0  0  0  0  0  0  0  0
   22.2993   -4.6030  -15.6903 C   0  0  0  0  0  0  0  0  0  0  0  0
   21.3652   -3.5824  -15.7429 O   0  0  0  0  0  0  0  0  0  0  0  0
   23.3515   -4.4706  -16.3596 O   0  0  0  0  0  0  0  0  0  0  0  0
  2  1  1  1
  2  3  1  0
  3  4  1  0
  4  8  1  0
  5  4  2  0
  6  2  1  0
  6  7  2  0
 10  9  1  6
 10 11  1  0
 11  6  1  0
 12 13  2  0
 12 10  1  0
 14 15  1  0
 16 17  1  0
 16 15  1  1
 17 12  1  0
 18 16  1  0
 19 18  1  0
 20 18  2  0
M  END
$$$$
