DAS.pdb
     RDKit          3D

 20 19  0  0  1  0  0  0  0  0999 V2000
   17.0267  -10.6454  -16.5555 N   0  0  0  0  0  0  0  0  0  0  0  0
   16.7109  -10.6052  -15.1580 C   0  0  1  0  0  0  0  0  0  0  0  0
   16.4034  -11.9866  -14.6334 C   0  0  0  0  0  0  0  0  0  0  0  0
   15.0667  -12.4296  -15.0907 C   0  0  0  0  0  0  0  0  0  0  0  0
   14.2389  -11.5757  -15.4602 O   0  0  0  0  0  0  0  0  0  0  0  0
   17.8570  -10.0148  -14.4195 C   0  0  0  0  0  0  0  0  0  0  0  0
   17.7916  -10.0424  -13.1567 O   0  0  0  0  0  0  0  0  0  0  0  0
   14.7221  -13.7946  -15.1123 O   0  0  0  0  0  0  0  0  0  0  0  0
   21.2253   -8.7299  -15.3664 C   0  0  0  0  0  0  0  0  0  0  0  0
   20.0962   -8.9333  -14.3986 C   0  0  2  0  0  0  0  0  0  0  0  0
   18.9509   -9.4573  -15.0943 N   0  0  0  0  0  0  0  0  0  0  0  0
   19.7481   -7.6623  -13.7092 C   0  0  0  0  0  0  0  0  0  0  0  0
   19.0646   -6.7553  -14.2176 O   0  0  0  0  0  0  0  0  0  0  0  0
   19.5111   -5.2965   -9.5148 O   0  0  0  0  0  0  0  0  0  0  0  0
   19.8158   -6.5228  -10.1212 C   0  0  0  0  0  0  0  0  0  0  0  0
   19.9415   -6.2705  -11.6133 C   0  0  2  0  0  0  0  0  0  0  0  0
   20.2213   -7.4490  -12.3734 N   0  0  0  0  0  0  0  0  0  0  0  0
   20.8920   -5.1690  -11.8750 C   0  0  0  0  0  0  0  0  0  0  0  0
   22.2544   -5.3467  -12.0457 O   0  0  0  0  0  0  0  0  0  0  0  0
   20.4388   -4.0019  -11.9471 O   0  0  0  0  0  0  0  0  0  0  0  0
  2  1  1  6
  2  3  1  0
  3  4  1  0
  4  8  1  0
  5  4  2  0
  6  2  1  0
  6  7  2  0
 10  9  1  6
 10 11  1  0
 11  6  1  0
 12 13  2  0
 12 10  1  0
 14 15  1  0
 16 17  1  0
 16 15  1  1
 17 12  1  0
 18 16  1  0
 19 18  1  0
 20 18  2  0
M  END
$$$$
