DAS.pdb
     RDKit          3D

 20 19  0  0  1  0  0  0  0  0999 V2000
   17.9243  -11.9271  -16.3848 N   0  0  0  0  0  0  0  0  0  0  0  0
   17.9880  -10.6277  -16.9864 C   0  0  1  0  0  0  0  0  0  0  0  0
   16.7473   -9.8266  -16.6751 C   0  0  0  0  0  0  0  0  0  0  0  0
   15.5546  -10.4609  -17.2812 C   0  0  0  0  0  0  0  0  0  0  0  0
   14.4549  -10.3571  -16.7060 O   0  0  0  0  0  0  0  0  0  0  0  0
   19.1973   -9.9225  -16.4886 C   0  0  0  0  0  0  0  0  0  0  0  0
   19.3892   -9.9408  -15.2386 O   0  0  0  0  0  0  0  0  0  0  0  0
   15.6477  -11.1753  -18.4908 O   0  0  0  0  0  0  0  0  0  0  0  0
   22.2645   -8.5758  -18.0722 C   0  0  0  0  0  0  0  0  0  0  0  0
   21.3104   -8.6840  -16.9185 C   0  0  2  0  0  0  0  0  0  0  0  0
   20.0757   -9.2722  -17.3652 N   0  0  0  0  0  0  0  0  0  0  0  0
   21.0593   -7.3520  -16.3063 C   0  0  0  0  0  0  0  0  0  0  0  0
   20.1476   -6.5815  -16.6574 O   0  0  0  0  0  0  0  0  0  0  0  0
   22.1920   -4.3940  -12.6290 O   0  0  0  0  0  0  0  0  0  0  0  0
   22.6499   -5.5042  -13.3516 C   0  0  0  0  0  0  0  0  0  0  0  0
   21.7400   -5.6662  -14.5564 C   0  0  2  0  0  0  0  0  0  0  0  0
   21.9118   -6.9088  -15.2429 N   0  0  0  0  0  0  0  0  0  0  0  0
   21.8430   -4.4900  -15.4461 C   0  0  0  0  0  0  0  0  0  0  0  0
   20.9804   -3.4079  -15.4013 O   0  0  0  0  0  0  0  0  0  0  0  0
   22.7671   -4.4692  -16.2936 O   0  0  0  0  0  0  0  0  0  0  0  0
  2  1  1  1
  2  3  1  0
  3  4  1  0
  4  8  1  0
  5  4  2  0
  6  2  1  0
  6  7  2  0
 10  9  1  6
 10 11  1  0
 11  6  1  0
 12 13  2  0
 12 10  1  0
 14 15  1  0
 16 17  1  0
 16 15  1  1
 17 12  1  0
 18 16  1  0
 19 18  1  0
 20 18  2  0
M  END
$$$$
