DAS.pdb
     RDKit          3D

 20 19  0  0  1  0  0  0  0  0999 V2000
   19.4557  -12.9032  -16.5515 N   0  0  0  0  0  0  0  0  0  0  0  0
   18.5595  -11.8185  -16.2787 C   0  0  1  0  0  0  0  0  0  0  0  0
   17.9932  -11.9231  -14.8836 C   0  0  0  0  0  0  0  0  0  0  0  0
   17.0836  -13.0866  -14.7787 C   0  0  0  0  0  0  0  0  0  0  0  0
   17.0952  -13.7730  -13.7397 O   0  0  0  0  0  0  0  0  0  0  0  0
   19.2882  -10.5346  -16.4462 C   0  0  0  0  0  0  0  0  0  0  0  0
   20.4011  -10.4336  -15.8538 O   0  0  0  0  0  0  0  0  0  0  0  0
   16.2124  -13.4245  -15.8318 O   0  0  0  0  0  0  0  0  0  0  0  0
   18.7785   -7.4675  -18.5156 C   0  0  0  0  0  0  0  0  0  0  0  0
   19.4962   -8.2820  -17.4791 C   0  0  2  0  0  0  0  0  0  0  0  0
   18.7629   -9.4930  -17.2221 N   0  0  0  0  0  0  0  0  0  0  0  0
   19.6768   -7.5078  -16.2222 C   0  0  0  0  0  0  0  0  0  0  0  0
   18.8771   -7.5251  -15.2690 O   0  0  0  0  0  0  0  0  0  0  0  0
   22.7944   -5.4524  -13.2562 O   0  0  0  0  0  0  0  0  0  0  0  0
   22.6075   -6.2022  -14.4255 C   0  0  0  0  0  0  0  0  0  0  0  0
   21.1740   -5.9857  -14.8771 C   0  0  2  0  0  0  0  0  0  0  0  0
   20.8396   -6.6822  -16.0805 N   0  0  0  0  0  0  0  0  0  0  0  0
   20.8600   -4.5422  -14.9329 C   0  0  0  0  0  0  0  0  0  0  0  0
   20.3679   -3.8154  -13.8622 O   0  0  0  0  0  0  0  0  0  0  0  0
   21.0502   -3.9375  -16.0150 O   0  0  0  0  0  0  0  0  0  0  0  0
  2  1  1  1
  2  3  1  0
  3  4  1  0
  4  8  1  0
  5  4  2  0
  6  2  1  0
  6  7  2  0
 10  9  1  6
 10 11  1  0
 11  6  1  0
 12 13  2  0
 12 10  1  0
 14 15  1  0
 16 17  1  0
 16 15  1  6
 17 12  1  0
 18 16  1  0
 19 18  1  0
 20 18  2  0
M  END
$$$$
