DAS.pdb
     RDKit          3D

 20 19  0  0  1  0  0  0  0  0999 V2000
   20.6482  -12.0618  -17.8100 N   0  0  0  0  0  0  0  0  0  0  0  0
   19.7597  -10.9549  -17.6114 C   0  0  1  0  0  0  0  0  0  0  0  0
   18.3379  -11.4286  -17.4314 C   0  0  0  0  0  0  0  0  0  0  0  0
   17.9770  -12.4003  -18.4886 C   0  0  0  0  0  0  0  0  0  0  0  0
   18.1491  -12.0890  -19.6821 O   0  0  0  0  0  0  0  0  0  0  0  0
   20.2032  -10.1857  -16.4202 C   0  0  0  0  0  0  0  0  0  0  0  0
   19.3386   -9.4435  -15.8712 O   0  0  0  0  0  0  0  0  0  0  0  0
   17.4451  -13.6628  -18.1636 O   0  0  0  0  0  0  0  0  0  0  0  0
   23.3414   -9.9374  -14.4130 C   0  0  0  0  0  0  0  0  0  0  0  0
   22.0085   -9.4333  -14.8843 C   0  0  2  0  0  0  0  0  0  0  0  0
   21.5142  -10.2822  -15.9356 N   0  0  0  0  0  0  0  0  0  0  0  0
   22.1059   -8.0262  -15.3559 C   0  0  0  0  0  0  0  0  0  0  0  0
   22.5341   -7.6917  -16.4753 O   0  0  0  0  0  0  0  0  0  0  0  0
   19.5145   -5.1467  -14.6649 O   0  0  0  0  0  0  0  0  0  0  0  0
   20.6229   -4.9974  -15.5096 C   0  0  0  0  0  0  0  0  0  0  0  0
   21.8234   -5.5838  -14.7880 C   0  0  2  0  0  0  0  0  0  0  0  0
   21.6855   -6.9732  -14.4792 N   0  0  0  0  0  0  0  0  0  0  0  0
   22.1771   -4.7583  -13.6138 C   0  0  0  0  0  0  0  0  0  0  0  0
   22.5253   -3.4201  -13.6852 O   0  0  0  0  0  0  0  0  0  0  0  0
   22.1615   -5.3012  -12.4834 O   0  0  0  0  0  0  0  0  0  0  0  0
  2  1  1  1
  2  3  1  0
  3  4  1  0
  4  8  1  0
  5  4  2  0
  6  2  1  0
  6  7  2  0
 10  9  1  6
 10 11  1  0
 11  6  1  0
 12 13  2  0
 12 10  1  0
 14 15  1  0
 16 17  1  0
 16 15  1  1
 17 12  1  0
 18 16  1  0
 19 18  1  0
 20 18  2  0
M  END
$$$$
