DAS.pdb
     RDKit          3D

 20 19  0  0  1  0  0  0  0  0999 V2000
   18.6383  -12.4207  -16.4706 N   0  0  0  0  0  0  0  0  0  0  0  0
   19.2903  -11.3048  -17.0901 C   0  0  1  0  0  0  0  0  0  0  0  0
   18.3697  -10.6150  -18.0671 C   0  0  0  0  0  0  0  0  0  0  0  0
   18.0623  -11.5065  -19.2084 C   0  0  0  0  0  0  0  0  0  0  0  0
   16.8729  -11.7017  -19.5217 O   0  0  0  0  0  0  0  0  0  0  0  0
   19.7309  -10.3551  -16.0358 C   0  0  0  0  0  0  0  0  0  0  0  0
   18.8244   -9.8554  -15.3091 O   0  0  0  0  0  0  0  0  0  0  0  0
   19.0907  -12.1324  -19.9385 O   0  0  0  0  0  0  0  0  0  0  0  0
   22.9116   -9.5243  -14.3871 C   0  0  0  0  0  0  0  0  0  0  0  0
   21.5324   -9.1340  -14.8327 C   0  0  2  0  0  0  0  0  0  0  0  0
   21.0835  -10.0341  -15.8616 N   0  0  0  0  0  0  0  0  0  0  0  0
   21.5069   -7.7303  -15.3236 C   0  0  0  0  0  0  0  0  0  0  0  0
   21.8160   -7.3877  -16.4791 O   0  0  0  0  0  0  0  0  0  0  0  0
   18.7987   -5.1064  -14.3292 O   0  0  0  0  0  0  0  0  0  0  0  0
   20.0308   -4.4989  -14.0515 C   0  0  0  0  0  0  0  0  0  0  0  0
   21.1026   -5.3027  -14.7662 C   0  0  2  0  0  0  0  0  0  0  0  0
   21.1041   -6.6909  -14.4229 N   0  0  0  0  0  0  0  0  0  0  0  0
   22.4251   -4.6616  -14.6063 C   0  0  0  0  0  0  0  0  0  0  0  0
   22.9472   -3.7335  -15.4912 O   0  0  0  0  0  0  0  0  0  0  0  0
   23.1176   -4.9761  -13.6092 O   0  0  0  0  0  0  0  0  0  0  0  0
  2  1  1  1
  2  3  1  0
  3  4  1  0
  4  8  1  0
  5  4  2  0
  6  2  1  0
  6  7  2  0
 10  9  1  6
 10 11  1  0
 11  6  1  0
 12 13  2  0
 12 10  1  0
 14 15  1  0
 16 17  1  0
 16 15  1  1
 17 12  1  0
 18 16  1  0
 19 18  1  0
 20 18  2  0
M  END
$$$$
