PAR.pdb
     RDKit          3D

 24 24  0  0  1  0  0  0  0  0999 V2000
   26.1616  -17.7557  -16.6660 N   0  0  0  0  0  0  0  0  0  0  0  0
   27.5232  -17.2836  -16.9616 C   0  0  0  0  0  0  0  0  0  0  0  0
   27.8387  -16.2409  -15.9152 C   0  0  0  0  0  0  0  0  0  0  0  0
   26.4811  -15.9912  -15.2397 C   0  0  0  0  0  0  0  0  0  0  0  0
   25.9060  -17.3794  -15.2912 C   0  0  1  0  0  0  0  0  0  0  0  0
   24.4873  -17.4840  -14.9597 C   0  0  0  0  0  0  0  0  0  0  0  0
   24.0045  -17.2161  -13.8264 O   0  0  0  0  0  0  0  0  0  0  0  0
   21.3743  -17.7336  -16.9953 C   0  0  0  0  0  0  0  0  0  0  0  0
   22.1417  -18.0093  -15.7207 C   0  0  2  0  0  0  0  0  0  0  0  0
   23.5671  -17.9089  -15.9419 N   0  0  0  0  0  0  0  0  0  0  0  0
   21.7436  -19.3474  -15.2412 C   0  0  0  0  0  0  0  0  0  0  0  0
   22.4555  -20.3288  -15.6100 O   0  0  0  0  0  0  0  0  0  0  0  0
   17.7211  -24.6082  -10.3140 N   0  0  0  0  0  0  0  0  0  0  0  0
   18.6997  -23.8735   -9.5738 C   0  0  0  0  0  0  0  0  0  0  0  0
   19.3893  -24.5187   -8.6995 N   0  0  0  0  0  0  0  0  0  0  0  0
   18.9164  -22.4864   -9.7816 N   0  0  0  0  0  0  0  0  0  0  0  0
   18.1932  -21.7855  -10.8173 C   0  0  0  0  0  0  0  0  0  0  0  0
   18.8855  -21.9743  -12.1710 C   0  0  0  0  0  0  0  0  0  0  0  0
   19.8237  -20.8404  -12.4544 C   0  0  0  0  0  0  0  0  0  0  0  0
   20.4251  -20.9573  -13.8033 C   0  0  2  0  0  0  0  0  0  0  0  0
   20.6415  -19.6358  -14.4076 N   0  0  0  0  0  0  0  0  0  0  0  0
   19.5087  -21.6757  -14.7166 C   0  0  0  0  0  0  0  0  0  0  0  0
   19.5067  -23.0390  -14.9523 O   0  0  0  0  0  0  0  0  0  0  0  0
   18.6176  -21.0235  -15.3774 O   0  0  0  0  0  0  0  0  0  0  0  0
  1  2  1  0
  3  2  1  0
  4  5  1  0
  4  3  1  0
  5  1  1  0
  5  6  1  6
  6  7  2  0
  9  8  1  6
  9 10  1  0
 10  6  1  0
 11  9  1  0
 12 11  2  0
 14 13  1  0
 14 15  2  0
 16 14  1  0
 17 16  1  0
 18 17  1  0
 19 18  1  0
 20 21  1  0
 20 19  1  1
 21 11  1  0
 22 20  1  0
 23 22  1  0
 24 22  2  0
M  END
$$$$
