PAR.pdb
     RDKit          3D

 24 24  0  0  1  0  0  0  0  0999 V2000
   22.0034   -8.1966  -16.3419 N   0  0  0  0  0  0  0  0  0  0  0  0
   22.6150   -9.1464  -17.2844 C   0  0  0  0  0  0  0  0  0  0  0  0
   22.9670  -10.3704  -16.4723 C   0  0  0  0  0  0  0  0  0  0  0  0
   22.7707   -9.9043  -15.0210 C   0  0  0  0  0  0  0  0  0  0  0  0
   21.5932   -8.9867  -15.1998 C   0  0  1  0  0  0  0  0  0  0  0  0
   21.2733   -8.1446  -14.0501 C   0  0  0  0  0  0  0  0  0  0  0  0
   20.8850   -8.5876  -12.9355 O   0  0  0  0  0  0  0  0  0  0  0  0
   21.5531   -4.4299  -13.3936 C   0  0  0  0  0  0  0  0  0  0  0  0
   21.0484   -5.8238  -13.0905 C   0  0  2  0  0  0  0  0  0  0  0  0
   21.3924   -6.7420  -14.1533 N   0  0  0  0  0  0  0  0  0  0  0  0
   19.5901   -5.7341  -12.8800 C   0  0  0  0  0  0  0  0  0  0  0  0
   18.8562   -5.7322  -13.9132 O   0  0  0  0  0  0  0  0  0  0  0  0
   13.7752   -8.0501   -6.4172 N   0  0  0  0  0  0  0  0  0  0  0  0
   13.0705   -7.7364   -7.6215 C   0  0  0  0  0  0  0  0  0  0  0  0
   11.8341   -8.0864   -7.6934 N   0  0  0  0  0  0  0  0  0  0  0  0
   13.6934   -7.0651   -8.7058 N   0  0  0  0  0  0  0  0  0  0  0  0
   15.1178   -7.1869   -8.9134 C   0  0  0  0  0  0  0  0  0  0  0  0
   15.5603   -6.3154  -10.0933 C   0  0  0  0  0  0  0  0  0  0  0  0
   17.0450   -6.3885  -10.2848 C   0  0  0  0  0  0  0  0  0  0  0  0
   17.4727   -5.6549  -11.4987 C   0  0  2  0  0  0  0  0  0  0  0  0
   18.9358   -5.6506  -11.6320 N   0  0  0  0  0  0  0  0  0  0  0  0
   17.0693   -4.2337  -11.4121 C   0  0  0  0  0  0  0  0  0  0  0  0
   15.8434   -3.7167  -11.7914 O   0  0  0  0  0  0  0  0  0  0  0  0
   17.8936   -3.3580  -10.9540 O   0  0  0  0  0  0  0  0  0  0  0  0
  1  2  1  0
  3  2  1  0
  4  5  1  0
  4  3  1  0
  5  1  1  0
  5  6  1  1
  6  7  2  0
  9  8  1  6
  9 10  1  0
 10  6  1  0
 11  9  1  0
 12 11  2  0
 14 13  1  0
 14 15  2  0
 16 14  1  0
 17 16  1  0
 18 17  1  0
 19 18  1  0
 20 21  1  0
 20 19  1  1
 21 11  1  0
 22 20  1  0
 23 22  1  0
 24 22  2  0
M  END
$$$$
