PAR.pdb
     RDKit          3D

 24 24  0  0  1  0  0  0  0  0999 V2000
   25.4547  -19.4809  -16.5435 N   0  0  0  0  0  0  0  0  0  0  0  0
   26.7715  -19.1694  -17.1209 C   0  0  0  0  0  0  0  0  0  0  0  0
   27.5762  -18.5412  -16.0075 C   0  0  0  0  0  0  0  0  0  0  0  0
   26.5293  -18.2832  -14.9124 C   0  0  0  0  0  0  0  0  0  0  0  0
   25.6469  -19.4846  -15.1082 C   0  0  1  0  0  0  0  0  0  0  0  0
   24.3728  -19.4507  -14.3949 C   0  0  0  0  0  0  0  0  0  0  0  0
   24.2665  -19.3952  -13.1399 O   0  0  0  0  0  0  0  0  0  0  0  0
   20.8528  -18.8156  -15.5349 C   0  0  0  0  0  0  0  0  0  0  0  0
   21.8584  -19.3103  -14.5182 C   0  0  2  0  0  0  0  0  0  0  0  0
   23.1621  -19.4816  -15.1197 N   0  0  0  0  0  0  0  0  0  0  0  0
   21.3357  -20.5684  -13.9499 C   0  0  0  0  0  0  0  0  0  0  0  0
   21.7696  -21.6507  -14.4461 O   0  0  0  0  0  0  0  0  0  0  0  0
   17.3659  -25.6109   -8.3158 N   0  0  0  0  0  0  0  0  0  0  0  0
   18.4349  -24.9144   -7.6696 C   0  0  0  0  0  0  0  0  0  0  0  0
   19.0268  -25.5101   -6.6944 N   0  0  0  0  0  0  0  0  0  0  0  0
   18.8418  -23.6165   -8.0745 N   0  0  0  0  0  0  0  0  0  0  0  0
   18.1433  -22.9359   -9.1402 C   0  0  0  0  0  0  0  0  0  0  0  0
   18.8833  -23.1259  -10.4683 C   0  0  0  0  0  0  0  0  0  0  0  0
   19.2618  -21.8034  -11.0634 C   0  0  0  0  0  0  0  0  0  0  0  0
   19.9515  -21.9705  -12.3638 C   0  0  2  0  0  0  0  0  0  0  0  0
   20.3959  -20.6779  -12.9023 N   0  0  0  0  0  0  0  0  0  0  0  0
   19.0248  -22.5327  -13.3713 C   0  0  0  0  0  0  0  0  0  0  0  0
   18.8914  -23.8727  -13.6886 O   0  0  0  0  0  0  0  0  0  0  0  0
   18.2541  -21.7510  -14.0430 O   0  0  0  0  0  0  0  0  0  0  0  0
  1  2  1  0
  3  2  1  0
  4  5  1  0
  4  3  1  0
  5  1  1  0
  5  6  1  1
  6  7  2  0
  9  8  1  6
  9 10  1  0
 10  6  1  0
 11  9  1  0
 12 11  2  0
 14 13  1  0
 14 15  2  0
 16 14  1  0
 17 16  1  0
 18 17  1  0
 19 18  1  0
 20 21  1  0
 20 19  1  1
 21 11  1  0
 22 20  1  0
 23 22  1  0
 24 22  2  0
M  END
$$$$
