PAR.pdb
     RDKit          3D

 24 24  0  0  1  0  0  0  0  0999 V2000
   30.7797  -22.4204  -11.4292 N   0  0  0  0  0  0  0  0  0  0  0  0
   31.8782  -22.9454  -10.6033 C   0  0  0  0  0  0  0  0  0  0  0  0
   31.6610  -22.3858   -9.2172 C   0  0  0  0  0  0  0  0  0  0  0  0
   30.5685  -21.3257   -9.4275 C   0  0  0  0  0  0  0  0  0  0  0  0
   29.7546  -21.9999  -10.4969 C   0  0  1  0  0  0  0  0  0  0  0  0
   28.7501  -21.1603  -11.1445 C   0  0  0  0  0  0  0  0  0  0  0  0
   27.7355  -20.6933  -10.5599 O   0  0  0  0  0  0  0  0  0  0  0  0
   28.7009  -19.3550  -14.4438 C   0  0  0  0  0  0  0  0  0  0  0  0
   28.0256  -19.8979  -13.2033 C   0  0  2  0  0  0  0  0  0  0  0  0
   28.8873  -20.8292  -12.5096 N   0  0  0  0  0  0  0  0  0  0  0  0
   26.7545  -20.5196  -13.6235 C   0  0  0  0  0  0  0  0  0  0  0  0
   26.8193  -21.6751  -14.1399 O   0  0  0  0  0  0  0  0  0  0  0  0
   19.1717  -22.6801  -13.3584 N   0  0  0  0  0  0  0  0  0  0  0  0
   19.4188  -22.0977  -12.0758 C   0  0  0  0  0  0  0  0  0  0  0  0
   18.9903  -22.7346  -11.0428 N   0  0  0  0  0  0  0  0  0  0  0  0
   20.1086  -20.8662  -11.9279 N   0  0  0  0  0  0  0  0  0  0  0  0
   20.5590  -20.1416  -13.0937 C   0  0  0  0  0  0  0  0  0  0  0  0
   21.8065  -20.8065  -13.6847 C   0  0  0  0  0  0  0  0  0  0  0  0
   23.0436  -20.0445  -13.3170 C   0  0  0  0  0  0  0  0  0  0  0  0
   24.2488  -20.6265  -13.9520 C   0  0  2  0  0  0  0  0  0  0  0  0
   25.4706  -19.9455  -13.5026 N   0  0  0  0  0  0  0  0  0  0  0  0
   24.1987  -20.4431  -15.4196 C   0  0  0  0  0  0  0  0  0  0  0  0
   23.9347  -21.4328  -16.3496 O   0  0  0  0  0  0  0  0  0  0  0  0
   24.4152  -19.2819  -15.9303 O   0  0  0  0  0  0  0  0  0  0  0  0
  1  2  1  0
  3  2  1  0
  4  5  1  0
  4  3  1  0
  5  1  1  0
  5  6  1  6
  6  7  2  0
  9  8  1  6
  9 10  1  0
 10  6  1  0
 11  9  1  0
 12 11  2  0
 14 13  1  0
 14 15  2  0
 16 14  1  0
 17 16  1  0
 18 17  1  0
 19 18  1  0
 20 21  1  0
 20 19  1  1
 21 11  1  0
 22 20  1  0
 23 22  1  0
 24 22  2  0
M  END
$$$$
