PAR.pdb
     RDKit          3D

 24 24  0  0  1  0  0  0  0  0999 V2000
   22.2337  -20.3519  -15.7571 N   0  0  0  0  0  0  0  0  0  0  0  0
   23.2718  -19.8227  -16.6553 C   0  0  0  0  0  0  0  0  0  0  0  0
   23.6498  -18.4688  -16.1026 C   0  0  0  0  0  0  0  0  0  0  0  0
   22.5658  -18.1989  -15.0472 C   0  0  0  0  0  0  0  0  0  0  0  0
   22.3546  -19.5944  -14.5289 C   0  0  1  0  0  0  0  0  0  0  0  0
   21.1880  -19.7748  -13.6687 C   0  0  0  0  0  0  0  0  0  0  0  0
   21.0762  -19.2773  -12.5157 O   0  0  0  0  0  0  0  0  0  0  0  0
   17.6715  -20.7713  -14.2445 C   0  0  0  0  0  0  0  0  0  0  0  0
   18.8923  -20.7675  -13.3505 C   0  0  2  0  0  0  0  0  0  0  0  0
   20.0971  -20.5485  -14.1195 N   0  0  0  0  0  0  0  0  0  0  0  0
   18.9182  -22.0531  -12.6257 C   0  0  0  0  0  0  0  0  0  0  0  0
   19.4039  -23.0514  -13.2368 O   0  0  0  0  0  0  0  0  0  0  0  0
   16.0605  -25.5988   -5.0898 N   0  0  0  0  0  0  0  0  0  0  0  0
   17.2420  -26.3490   -5.3839 C   0  0  0  0  0  0  0  0  0  0  0  0
   17.4111  -27.4594   -4.7556 N   0  0  0  0  0  0  0  0  0  0  0  0
   18.2020  -25.9027   -6.3291 N   0  0  0  0  0  0  0  0  0  0  0  0
   18.0227  -24.6384   -7.0046 C   0  0  0  0  0  0  0  0  0  0  0  0
   18.4219  -24.7610   -8.4787 C   0  0  0  0  0  0  0  0  0  0  0  0
   18.2700  -23.4478   -9.1848 C   0  0  0  0  0  0  0  0  0  0  0  0
   18.5823  -23.5678  -10.6280 C   0  0  2  0  0  0  0  0  0  0  0  0
   18.4516  -22.2741  -11.3119 N   0  0  0  0  0  0  0  0  0  0  0  0
   17.6201  -24.4760  -11.2907 C   0  0  0  0  0  0  0  0  0  0  0  0
   16.3897  -24.1121  -11.8083 O   0  0  0  0  0  0  0  0  0  0  0  0
   17.9001  -25.7252  -11.4214 O   0  0  0  0  0  0  0  0  0  0  0  0
  1  2  1  0
  3  2  1  0
  4  5  1  0
  4  3  1  0
  5  1  1  0
  5  6  1  1
  6  7  2  0
  9  8  1  6
  9 10  1  0
 10  6  1  0
 11  9  1  0
 12 11  2  0
 14 13  1  0
 14 15  2  0
 16 14  1  0
 17 16  1  0
 18 17  1  0
 19 18  1  0
 20 21  1  0
 20 19  1  1
 21 11  1  0
 22 20  1  0
 23 22  1  0
 24 22  2  0
M  END
$$$$
