PAR.pdb
     RDKit          3D

 24 24  0  0  1  0  0  0  0  0999 V2000
   26.3822  -16.8866  -17.0293 N   0  0  0  0  0  0  0  0  0  0  0  0
   27.8117  -16.5663  -17.1640 C   0  0  0  0  0  0  0  0  0  0  0  0
   28.2490  -16.0396  -15.8175 C   0  0  0  0  0  0  0  0  0  0  0  0
   26.9237  -15.8360  -15.0665 C   0  0  0  0  0  0  0  0  0  0  0  0
   26.1378  -16.9985  -15.6064 C   0  0  1  0  0  0  0  0  0  0  0  0
   24.7090  -16.9853  -15.3033 C   0  0  0  0  0  0  0  0  0  0  0  0
   24.2305  -17.1278  -14.1457 O   0  0  0  0  0  0  0  0  0  0  0  0
   21.6713  -15.9815  -17.2678 C   0  0  0  0  0  0  0  0  0  0  0  0
   22.3436  -16.7312  -16.1384 C   0  0  2  0  0  0  0  0  0  0  0  0
   23.7730  -16.8055  -16.3442 N   0  0  0  0  0  0  0  0  0  0  0  0
   21.7207  -18.0670  -16.0570 C   0  0  0  0  0  0  0  0  0  0  0  0
   22.1999  -18.9743  -16.8007 O   0  0  0  0  0  0  0  0  0  0  0  0
   17.4120  -23.7479  -11.4474 N   0  0  0  0  0  0  0  0  0  0  0  0
   18.6087  -24.3941  -11.8898 C   0  0  0  0  0  0  0  0  0  0  0  0
   18.6045  -25.6801  -11.9398 N   0  0  0  0  0  0  0  0  0  0  0  0
   19.7658  -23.6624  -12.2638 N   0  0  0  0  0  0  0  0  0  0  0  0
   19.7621  -22.2189  -12.2069 C   0  0  0  0  0  0  0  0  0  0  0  0
   19.5321  -21.6317  -13.6032 C   0  0  0  0  0  0  0  0  0  0  0  0
   20.3193  -20.3698  -13.7889 C   0  0  0  0  0  0  0  0  0  0  0  0
   20.1227  -19.8014  -15.1427 C   0  0  2  0  0  0  0  0  0  0  0  0
   20.6389  -18.4284  -15.2253 N   0  0  0  0  0  0  0  0  0  0  0  0
   18.6802  -19.7121  -15.4608 C   0  0  0  0  0  0  0  0  0  0  0  0
   17.9083  -20.7225  -16.0062 O   0  0  0  0  0  0  0  0  0  0  0  0
   18.0378  -18.6204  -15.2330 O   0  0  0  0  0  0  0  0  0  0  0  0
  1  2  1  0
  3  2  1  0
  4  5  1  0
  4  3  1  0
  5  1  1  0
  5  6  1  6
  6  7  2  0
  9  8  1  6
  9 10  1  0
 10  6  1  0
 11  9  1  0
 12 11  2  0
 14 13  1  0
 14 15  2  0
 16 14  1  0
 17 16  1  0
 18 17  1  0
 19 18  1  0
 20 21  1  0
 20 19  1  1
 21 11  1  0
 22 20  1  0
 23 22  1  0
 24 22  2  0
M  END
$$$$
