PAR.pdb
     RDKit          3D

 24 24  0  0  1  0  0  0  0  0999 V2000
   26.9758  -18.0962  -18.5113 N   0  0  0  0  0  0  0  0  0  0  0  0
   28.2707  -17.8529  -19.1659 C   0  0  0  0  0  0  0  0  0  0  0  0
   29.0133  -16.8867  -18.2734 C   0  0  0  0  0  0  0  0  0  0  0  0
   27.9386  -16.4225  -17.2778 C   0  0  0  0  0  0  0  0  0  0  0  0
   27.1530  -17.6960  -17.1309 C   0  0  1  0  0  0  0  0  0  0  0  0
   25.8728  -17.5678  -16.4395 C   0  0  0  0  0  0  0  0  0  0  0  0
   25.7518  -17.2134  -15.2357 O   0  0  0  0  0  0  0  0  0  0  0  0
   22.2775  -17.7481  -17.5741 C   0  0  0  0  0  0  0  0  0  0  0  0
   23.3622  -17.7865  -16.5199 C   0  0  2  0  0  0  0  0  0  0  0  0
   24.6730  -17.8503  -17.1271 N   0  0  0  0  0  0  0  0  0  0  0  0
   23.0942  -18.9459  -15.6464 C   0  0  0  0  0  0  0  0  0  0  0  0
   23.2611  -20.0978  -16.1476 O   0  0  0  0  0  0  0  0  0  0  0  0
   27.3561  -21.4759  -10.5764 N   0  0  0  0  0  0  0  0  0  0  0  0
   26.3704  -21.0032   -9.6543 C   0  0  0  0  0  0  0  0  0  0  0  0
   26.5457  -21.2740   -8.4084 N   0  0  0  0  0  0  0  0  0  0  0  0
   25.2364  -20.2624  -10.0779 N   0  0  0  0  0  0  0  0  0  0  0  0
   23.9108  -20.8187   -9.9353 C   0  0  0  0  0  0  0  0  0  0  0  0
   23.2984  -21.0949  -11.3123 C   0  0  0  0  0  0  0  0  0  0  0  0
   23.2480  -19.8436  -12.1357 C   0  0  0  0  0  0  0  0  0  0  0  0
   22.5902  -20.0793  -13.4420 C   0  0  2  0  0  0  0  0  0  0  0  0
   22.6689  -18.8903  -14.3015 N   0  0  0  0  0  0  0  0  0  0  0  0
   21.1473  -20.3478  -13.2524 C   0  0  0  0  0  0  0  0  0  0  0  0
   20.5560  -21.5980  -13.2115 O   0  0  0  0  0  0  0  0  0  0  0  0
   20.3241  -19.3687  -13.1112 O   0  0  0  0  0  0  0  0  0  0  0  0
  1  2  1  0
  3  2  1  0
  4  5  1  0
  4  3  1  0
  5  1  1  0
  5  6  1  6
  6  7  2  0
  9  8  1  6
  9 10  1  0
 10  6  1  0
 11  9  1  0
 12 11  2  0
 14 13  1  0
 14 15  2  0
 16 14  1  0
 17 16  1  0
 18 17  1  0
 19 18  1  0
 20 21  1  0
 20 19  1  1
 21 11  1  0
 22 20  1  0
 23 22  1  0
 24 22  2  0
M  END
$$$$
