PAR.pdb
     RDKit          3D

 24 24  0  0  1  0  0  0  0  0999 V2000
   22.4053   -9.0628  -15.9720 N   0  0  0  0  0  0  0  0  0  0  0  0
   23.0493  -10.2345  -16.5861 C   0  0  0  0  0  0  0  0  0  0  0  0
   23.5326  -11.0920  -15.4404 C   0  0  0  0  0  0  0  0  0  0  0  0
   23.3628  -10.1797  -14.2154 C   0  0  0  0  0  0  0  0  0  0  0  0
   22.1093   -9.4482  -14.6079 C   0  0  1  0  0  0  0  0  0  0  0  0
   21.7733   -8.2907  -13.7829 C   0  0  0  0  0  0  0  0  0  0  0  0
   21.4344   -8.3611  -12.5706 O   0  0  0  0  0  0  0  0  0  0  0  0
   22.0512   -4.5674  -14.3136 C   0  0  0  0  0  0  0  0  0  0  0  0
   21.5104   -5.7895  -13.6040 C   0  0  2  0  0  0  0  0  0  0  0  0
   21.8178   -6.9951  -14.3409 N   0  0  0  0  0  0  0  0  0  0  0  0
   20.0574   -5.5969  -13.4289 C   0  0  0  0  0  0  0  0  0  0  0  0
   19.3046   -5.9940  -14.3679 O   0  0  0  0  0  0  0  0  0  0  0  0
   14.2188   -6.9406   -7.2131 N   0  0  0  0  0  0  0  0  0  0  0  0
   14.5225   -7.6289   -8.4294 C   0  0  0  0  0  0  0  0  0  0  0  0
   14.2206   -8.8783   -8.4950 N   0  0  0  0  0  0  0  0  0  0  0  0
   15.1325   -6.9763   -9.5322 N   0  0  0  0  0  0  0  0  0  0  0  0
   15.4407   -5.5666   -9.4620 C   0  0  0  0  0  0  0  0  0  0  0  0
   15.9695   -5.0695  -10.8114 C   0  0  0  0  0  0  0  0  0  0  0  0
   17.4386   -5.3366  -10.9411 C   0  0  0  0  0  0  0  0  0  0  0  0
   17.9728   -4.8226  -12.2237 C   0  0  2  0  0  0  0  0  0  0  0  0
   19.4273   -5.0109  -12.3099 N   0  0  0  0  0  0  0  0  0  0  0  0
   17.7456   -3.3642  -12.3303 C   0  0  0  0  0  0  0  0  0  0  0  0
   16.5304   -2.7511  -12.5782 O   0  0  0  0  0  0  0  0  0  0  0  0
   18.7310   -2.5481  -12.1914 O   0  0  0  0  0  0  0  0  0  0  0  0
  1  2  1  0
  3  2  1  0
  4  5  1  0
  4  3  1  0
  5  1  1  0
  5  6  1  1
  6  7  2  0
  9  8  1  6
  9 10  1  0
 10  6  1  0
 11  9  1  0
 12 11  2  0
 14 13  1  0
 14 15  2  0
 16 14  1  0
 17 16  1  0
 18 17  1  0
 19 18  1  0
 20 21  1  0
 20 19  1  1
 21 11  1  0
 22 20  1  0
 23 22  1  0
 24 22  2  0
M  END
$$$$
