PAR.pdb
     RDKit          3D

 24 24  0  0  1  0  0  0  0  0999 V2000
   28.9323  -21.2270  -17.5056 N   0  0  0  0  0  0  0  0  0  0  0  0
   30.0635  -22.0543  -17.9531 C   0  0  0  0  0  0  0  0  0  0  0  0
   30.0553  -23.2819  -17.0730 C   0  0  0  0  0  0  0  0  0  0  0  0
   29.0480  -22.9229  -15.9693 C   0  0  0  0  0  0  0  0  0  0  0  0
   28.0610  -22.1192  -16.7697 C   0  0  1  0  0  0  0  0  0  0  0  0
   27.0716  -21.3816  -15.9884 C   0  0  0  0  0  0  0  0  0  0  0  0
   26.1173  -21.9212  -15.3658 O   0  0  0  0  0  0  0  0  0  0  0  0
   26.9341  -17.9092  -14.6237 C   0  0  0  0  0  0  0  0  0  0  0  0
   26.2473  -19.1624  -15.1211 C   0  0  2  0  0  0  0  0  0  0  0  0
   27.1537  -19.9754  -15.9010 N   0  0  0  0  0  0  0  0  0  0  0  0
   25.0635  -18.7439  -15.8973 C   0  0  0  0  0  0  0  0  0  0  0  0
   25.2687  -18.2784  -17.0580 O   0  0  0  0  0  0  0  0  0  0  0  0
   18.5562  -22.5902  -17.8567 N   0  0  0  0  0  0  0  0  0  0  0  0
   18.2440  -22.2042  -16.5155 C   0  0  0  0  0  0  0  0  0  0  0  0
   17.4975  -22.9965  -15.8289 N   0  0  0  0  0  0  0  0  0  0  0  0
   18.7298  -20.9984  -15.9462 N   0  0  0  0  0  0  0  0  0  0  0  0
   19.6308  -20.1531  -16.6950 C   0  0  0  0  0  0  0  0  0  0  0  0
   21.0701  -20.3440  -16.2057 C   0  0  0  0  0  0  0  0  0  0  0  0
   22.0303  -19.5637  -17.0516 C   0  0  0  0  0  0  0  0  0  0  0  0
   22.5910  -18.4089  -16.3122 C   0  0  2  0  0  0  0  0  0  0  0  0
   23.7213  -18.8148  -15.4660 N   0  0  0  0  0  0  0  0  0  0  0  0
   21.5785  -17.8437  -15.3928 C   0  0  0  0  0  0  0  0  0  0  0  0
   20.5334  -17.0120  -15.7535 O   0  0  0  0  0  0  0  0  0  0  0  0
   21.6289  -18.1147  -14.1357 O   0  0  0  0  0  0  0  0  0  0  0  0
  1  2  1  0
  3  2  1  0
  4  5  1  0
  4  3  1  0
  5  1  1  0
  5  6  1  1
  6  7  2  0
  9  8  1  6
  9 10  1  0
 10  6  1  0
 11  9  1  0
 12 11  2  0
 14 13  1  0
 14 15  2  0
 16 14  1  0
 17 16  1  0
 18 17  1  0
 19 18  1  0
 20 21  1  0
 20 19  1  1
 21 11  1  0
 22 20  1  0
 23 22  1  0
 24 22  2  0
M  END
$$$$
