PAR.pdb
     RDKit          3D

 24 24  0  0  1  0  0  0  0  0999 V2000
   17.5719  -10.6426  -16.3227 N   0  0  0  0  0  0  0  0  0  0  0  0
   17.4917  -11.8162  -17.2062 C   0  0  0  0  0  0  0  0  0  0  0  0
   17.8369  -13.0091  -16.3463 C   0  0  0  0  0  0  0  0  0  0  0  0
   18.3734  -12.3739  -15.0538 C   0  0  0  0  0  0  0  0  0  0  0  0
   17.4881  -11.1613  -14.9733 C   0  0  1  0  0  0  0  0  0  0  0  0
   17.8836  -10.1597  -13.9864 C   0  0  0  0  0  0  0  0  0  0  0  0
   17.9110  -10.3648  -12.7428 O   0  0  0  0  0  0  0  0  0  0  0  0
   19.1784   -6.6119  -14.2699 C   0  0  0  0  0  0  0  0  0  0  0  0
   18.6261   -7.7979  -13.5096 C   0  0  2  0  0  0  0  0  0  0  0  0
   18.2647   -8.8689  -14.4113 N   0  0  0  0  0  0  0  0  0  0  0  0
   17.4752   -7.3225  -12.7169 C   0  0  0  0  0  0  0  0  0  0  0  0
   16.3534   -7.2658  -13.3038 O   0  0  0  0  0  0  0  0  0  0  0  0
   11.8711  -10.1831   -7.3185 N   0  0  0  0  0  0  0  0  0  0  0  0
   11.6039   -8.7781   -7.3177 C   0  0  0  0  0  0  0  0  0  0  0  0
   10.5004   -8.3847   -6.7850 N   0  0  0  0  0  0  0  0  0  0  0  0
   12.5087   -7.8389   -7.8775 N   0  0  0  0  0  0  0  0  0  0  0  0
   13.7062   -8.2935   -8.5457 C   0  0  0  0  0  0  0  0  0  0  0  0
   14.4663   -7.1048   -9.1431 C   0  0  0  0  0  0  0  0  0  0  0  0
   15.6957   -7.5653   -9.8662 C   0  0  0  0  0  0  0  0  0  0  0  0
   16.3153   -6.4641  -10.6395 C   0  0  2  0  0  0  0  0  0  0  0  0
   17.5081   -6.9251  -11.3628 N   0  0  0  0  0  0  0  0  0  0  0  0
   16.7809   -5.3931   -9.7306 C   0  0  0  0  0  0  0  0  0  0  0  0
   15.9850   -4.4198   -9.1532 O   0  0  0  0  0  0  0  0  0  0  0  0
   18.0267   -5.3111   -9.4183 O   0  0  0  0  0  0  0  0  0  0  0  0
  1  2  1  0
  3  2  1  0
  4  5  1  0
  4  3  1  0
  5  1  1  0
  5  6  1  1
  6  7  2  0
  9  8  1  6
  9 10  1  0
 10  6  1  0
 11  9  1  0
 12 11  2  0
 14 13  1  0
 14 15  2  0
 16 14  1  0
 17 16  1  0
 18 17  1  0
 19 18  1  0
 20 21  1  0
 20 19  1  1
 21 11  1  0
 22 20  1  0
 23 22  1  0
 24 22  2  0
M  END
$$$$
