PAR.pdb
     RDKit          3D

 24 24  0  0  1  0  0  0  0  0999 V2000
   23.5097  -18.7875  -17.9352 N   0  0  0  0  0  0  0  0  0  0  0  0
   24.4329  -18.6738  -19.0750 C   0  0  0  0  0  0  0  0  0  0  0  0
   25.8234  -18.8000  -18.4986 C   0  0  0  0  0  0  0  0  0  0  0  0
   25.5918  -18.7002  -16.9827 C   0  0  0  0  0  0  0  0  0  0  0  0
   24.2719  -19.4121  -16.8741 C   0  0  1  0  0  0  0  0  0  0  0  0
   23.5975  -19.2910  -15.5842 C   0  0  0  0  0  0  0  0  0  0  0  0
   24.0923  -19.6722  -14.4891 O   0  0  0  0  0  0  0  0  0  0  0  0
   20.7505  -17.2493  -14.3503 C   0  0  0  0  0  0  0  0  0  0  0  0
   21.5824  -18.5116  -14.2846 C   0  0  2  0  0  0  0  0  0  0  0  0
   22.3095  -18.7178  -15.5174 N   0  0  0  0  0  0  0  0  0  0  0  0
   20.6701  -19.6314  -13.9801 C   0  0  0  0  0  0  0  0  0  0  0  0
   20.0462  -20.1496  -14.9538 O   0  0  0  0  0  0  0  0  0  0  0  0
   16.3906  -23.8101   -9.4507 N   0  0  0  0  0  0  0  0  0  0  0  0
   17.1289  -25.0348   -9.4359 C   0  0  0  0  0  0  0  0  0  0  0  0
   16.4569  -26.1321   -9.4123 N   0  0  0  0  0  0  0  0  0  0  0  0
   18.5479  -25.0592   -9.4470 N   0  0  0  0  0  0  0  0  0  0  0  0
   19.2941  -23.8321   -9.6035 C   0  0  0  0  0  0  0  0  0  0  0  0
   18.9714  -23.1811  -10.9524 C   0  0  0  0  0  0  0  0  0  0  0  0
   19.7353  -21.9033  -11.1257 C   0  0  0  0  0  0  0  0  0  0  0  0
   19.5634  -21.3484  -12.4885 C   0  0  2  0  0  0  0  0  0  0  0  0
   20.4283  -20.1802  -12.7022 N   0  0  0  0  0  0  0  0  0  0  0  0
   18.1771  -20.8669  -12.6789 C   0  0  0  0  0  0  0  0  0  0  0  0
   17.1432  -21.5852  -13.2527 O   0  0  0  0  0  0  0  0  0  0  0  0
   17.8499  -19.6819  -12.2980 O   0  0  0  0  0  0  0  0  0  0  0  0
  1  2  1  0
  3  2  1  0
  4  5  1  0
  4  3  1  0
  5  1  1  0
  5  6  1  1
  6  7  2  0
  9  8  1  6
  9 10  1  0
 10  6  1  0
 11  9  1  0
 12 11  2  0
 14 13  1  0
 14 15  2  0
 16 14  1  0
 17 16  1  0
 18 17  1  0
 19 18  1  0
 20 21  1  0
 20 19  1  1
 21 11  1  0
 22 20  1  0
 23 22  1  0
 24 22  2  0
M  END
$$$$
