MQS.pdb
     RDKit          3D

 24 23  0  0  1  0  0  0  0  0999 V2000
   10.8685  -12.1370  -11.0127 C   0  0  0  0  0  0  0  0  0  0  0  0
   12.0745  -11.2491  -10.0153 S   0  0  0  0  0  0  0  0  0  0  0  0
   13.6530  -11.1727  -10.9304 C   0  0  0  0  0  0  0  0  0  0  0  0
   14.6351  -10.4390  -10.0763 C   0  0  0  0  0  0  0  0  0  0  0  0
   15.9840  -10.2591  -10.7051 C   0  0  2  0  0  0  0  0  0  0  0  0
   16.6282  -11.5068  -10.9479 N   0  0  0  0  0  0  0  0  0  0  0  0
   16.8430   -9.2584  -10.0281 C   0  0  0  0  0  0  0  0  0  0  0  0
   17.5455   -9.5584   -9.0494 O   0  0  0  0  0  0  0  0  0  0  0  0
   21.3554   -5.5806  -11.5130 N   0  0  0  0  0  0  0  0  0  0  0  0
   20.2784   -5.8988  -12.4352 C   0  0  0  0  0  0  0  0  0  0  0  0
   20.5386   -5.7579  -13.6371 O   0  0  0  0  0  0  0  0  0  0  0  0
   18.9980   -6.3453  -11.9093 C   0  0  0  0  0  0  0  0  0  0  0  0
   18.8636   -6.5296  -10.4548 C   0  0  0  0  0  0  0  0  0  0  0  0
   17.5291   -6.8386   -9.9009 C   0  0  2  0  0  0  0  0  0  0  0  0
   16.8619   -7.9215  -10.5057 N   0  0  0  0  0  0  0  0  0  0  0  0
   16.6951   -5.5895   -9.9005 C   0  0  0  0  0  0  0  0  0  0  0  0
   16.1593   -5.2709  -10.9910 O   0  0  0  0  0  0  0  0  0  0  0  0
   14.5314   -2.0098   -7.4382 O   0  0  0  0  0  0  0  0  0  0  0  0
   15.2893   -3.1575   -7.3652 C   0  0  0  0  0  0  0  0  0  0  0  0
   15.6905   -3.5803   -8.7553 C   0  0  2  0  0  0  0  0  0  0  0  0
   16.4883   -4.7769   -8.7644 N   0  0  0  0  0  0  0  0  0  0  0  0
   16.3130   -2.4557   -9.4567 C   0  0  0  0  0  0  0  0  0  0  0  0
   15.5112   -1.6133  -10.2105 O   0  0  0  0  0  0  0  0  0  0  0  0
   17.5435   -2.2069   -9.4150 O   0  0  0  0  0  0  0  0  0  0  0  0
  1  2  1  0
  2  3  1  0
  3  4  1  0
  5  4  1  0
  5  7  1  0
  5  6  1  1
  7  8  2  0
  9 10  1  0
 10 12  1  0
 10 11  2  0
 12 13  1  0
 14 13  1  6
 15 14  1  0
 15  7  1  0
 16 17  2  0
 16 14  1  0
 18 19  1  0
 20 19  1  1
 20 22  1  0
 20 21  1  0
 21 16  1  0
 22 23  1  0
 24 22  2  0
M  END
$$$$
