MQS.pdb
     RDKit          3D

 24 23  0  0  1  0  0  0  0  0999 V2000
   16.8523  -14.2335  -17.1187 C   0  0  0  0  0  0  0  0  0  0  0  0
   17.9854  -15.4178  -17.8610 S   0  0  0  0  0  0  0  0  0  0  0  0
   19.5242  -14.5499  -18.3230 C   0  0  0  0  0  0  0  0  0  0  0  0
   19.8913  -13.6476  -17.1901 C   0  0  0  0  0  0  0  0  0  0  0  0
   21.1581  -12.8752  -17.4040 C   0  0  2  0  0  0  0  0  0  0  0  0
   22.2680  -13.7329  -17.6551 N   0  0  0  0  0  0  0  0  0  0  0  0
   21.4185  -11.8363  -16.3791 C   0  0  0  0  0  0  0  0  0  0  0  0
   22.1655  -12.0493  -15.4106 O   0  0  0  0  0  0  0  0  0  0  0  0
   23.3037   -6.1630  -17.2858 N   0  0  0  0  0  0  0  0  0  0  0  0
   22.3322   -6.8300  -18.1360 C   0  0  0  0  0  0  0  0  0  0  0  0
   22.2127   -6.3724  -19.2798 O   0  0  0  0  0  0  0  0  0  0  0  0
   21.5782   -7.9566  -17.6091 C   0  0  0  0  0  0  0  0  0  0  0  0
   21.8177   -8.3703  -16.2165 C   0  0  0  0  0  0  0  0  0  0  0  0
   20.9979   -9.4622  -15.6517 C   0  0  2  0  0  0  0  0  0  0  0  0
   20.7962  -10.5661  -16.5027 N   0  0  0  0  0  0  0  0  0  0  0  0
   19.7027   -8.8942  -15.1458 C   0  0  0  0  0  0  0  0  0  0  0  0
   18.7473   -8.8606  -15.9605 O   0  0  0  0  0  0  0  0  0  0  0  0
   18.2258   -9.0147  -11.3865 O   0  0  0  0  0  0  0  0  0  0  0  0
   18.2056   -7.7260  -11.8721 C   0  0  0  0  0  0  0  0  0  0  0  0
   18.3136   -7.7570  -13.3753 C   0  0  2  0  0  0  0  0  0  0  0  0
   19.5108   -8.4091  -13.8337 N   0  0  0  0  0  0  0  0  0  0  0  0
   18.1387   -6.4068  -13.9143 C   0  0  0  0  0  0  0  0  0  0  0  0
   19.1246   -5.8835  -14.7357 O   0  0  0  0  0  0  0  0  0  0  0  0
   17.1375   -5.6876  -13.6735 O   0  0  0  0  0  0  0  0  0  0  0  0
  1  2  1  0
  2  3  1  0
  3  4  1  0
  5  4  1  0
  5  7  1  0
  5  6  1  1
  7  8  2  0
  9 10  1  0
 10 12  1  0
 10 11  2  0
 12 13  1  0
 14 13  1  6
 15 14  1  0
 15  7  1  0
 16 17  2  0
 16 14  1  0
 18 19  1  0
 20 19  1  1
 20 22  1  0
 20 21  1  0
 21 16  1  0
 22 23  1  0
 24 22  2  0
M  END
$$$$
