MQS.pdb
     RDKit          3D

 24 23  0  0  1  0  0  0  0  0999 V2000
   30.9058  -14.0514  -18.4369 C   0  0  0  0  0  0  0  0  0  0  0  0
   29.1314  -14.3160  -18.5758 S   0  0  0  0  0  0  0  0  0  0  0  0
   28.7346  -15.9851  -17.9502 C   0  0  0  0  0  0  0  0  0  0  0  0
   27.2525  -16.1562  -18.0288 C   0  0  0  0  0  0  0  0  0  0  0  0
   26.7587  -17.4819  -17.5328 C   0  0  2  0  0  0  0  0  0  0  0  0
   27.4530  -18.5687  -18.1392 N   0  0  0  0  0  0  0  0  0  0  0  0
   25.2834  -17.6262  -17.5459 C   0  0  0  0  0  0  0  0  0  0  0  0
   24.7044  -18.3226  -18.3951 O   0  0  0  0  0  0  0  0  0  0  0  0
   21.4577  -20.3497  -15.1179 N   0  0  0  0  0  0  0  0  0  0  0  0
   20.5527  -19.2159  -15.2020 C   0  0  0  0  0  0  0  0  0  0  0  0
   19.3477  -19.4916  -15.2655 O   0  0  0  0  0  0  0  0  0  0  0  0
   21.0979  -17.8676  -15.2110 C   0  0  0  0  0  0  0  0  0  0  0  0
   22.5571  -17.7023  -15.3154 C   0  0  0  0  0  0  0  0  0  0  0  0
   23.1047  -16.9624  -16.4712 C   0  0  2  0  0  0  0  0  0  0  0  0
   24.5098  -16.9489  -16.5668 N   0  0  0  0  0  0  0  0  0  0  0  0
   22.5235  -15.5776  -16.4893 C   0  0  0  0  0  0  0  0  0  0  0  0
   22.9311  -14.7851  -15.6040 O   0  0  0  0  0  0  0  0  0  0  0  0
   22.0690  -13.1025  -19.4078 O   0  0  0  0  0  0  0  0  0  0  0  0
   20.8278  -13.2635  -18.8331 C   0  0  0  0  0  0  0  0  0  0  0  0
   20.9904  -13.8160  -17.4400 C   0  0  2  0  0  0  0  0  0  0  0  0
   21.5666  -15.1337  -17.4280 N   0  0  0  0  0  0  0  0  0  0  0  0
   19.7198  -13.7254  -16.7178 C   0  0  0  0  0  0  0  0  0  0  0  0
   19.2688  -12.4785  -16.3150 O   0  0  0  0  0  0  0  0  0  0  0  0
   19.0073  -14.7216  -16.4391 O   0  0  0  0  0  0  0  0  0  0  0  0
  1  2  1  0
  2  3  1  0
  3  4  1  0
  5  4  1  0
  5  7  1  0
  5  6  1  6
  7  8  2  0
  9 10  1  0
 10 12  1  0
 10 11  2  0
 12 13  1  0
 14 13  1  1
 15 14  1  0
 15  7  1  0
 16 17  2  0
 16 14  1  0
 18 19  1  0
 20 19  1  6
 20 22  1  0
 20 21  1  0
 21 16  1  0
 22 23  1  0
 24 22  2  0
M  END
$$$$
