MQS.pdb
     RDKit          3D

 24 23  0  0  1  0  0  0  0  0999 V2000
   27.5685  -13.0616  -14.9033 C   0  0  0  0  0  0  0  0  0  0  0  0
   26.6470  -13.2484  -16.4375 S   0  0  0  0  0  0  0  0  0  0  0  0
   25.0108  -13.9647  -16.0575 C   0  0  0  0  0  0  0  0  0  0  0  0
   24.2349  -12.9398  -15.2960 C   0  0  0  0  0  0  0  0  0  0  0  0
   23.2004  -12.2215  -16.1090 C   0  0  2  0  0  0  0  0  0  0  0  0
   23.7333  -11.7350  -17.3378 N   0  0  0  0  0  0  0  0  0  0  0  0
   22.4195  -11.2158  -15.3499 C   0  0  0  0  0  0  0  0  0  0  0  0
   21.8748  -11.4939  -14.2695 O   0  0  0  0  0  0  0  0  0  0  0  0
   23.4896   -4.9521  -15.3810 N   0  0  0  0  0  0  0  0  0  0  0  0
   22.2790   -5.1165  -14.5942 C   0  0  0  0  0  0  0  0  0  0  0  0
   21.8884   -4.1097  -13.9893 O   0  0  0  0  0  0  0  0  0  0  0  0
   21.6209   -6.4130  -14.5607 C   0  0  0  0  0  0  0  0  0  0  0  0
   22.2622   -7.5426  -15.2539 C   0  0  0  0  0  0  0  0  0  0  0  0
   21.5682   -8.8469  -15.2740 C   0  0  2  0  0  0  0  0  0  0  0  0
   22.2856   -9.9018  -15.8706 N   0  0  0  0  0  0  0  0  0  0  0  0
   20.2078   -8.6711  -15.8857 C   0  0  0  0  0  0  0  0  0  0  0  0
   20.1482   -8.6940  -17.1402 O   0  0  0  0  0  0  0  0  0  0  0  0
   15.4009   -8.3197  -15.3678 O   0  0  0  0  0  0  0  0  0  0  0  0
   16.6112   -8.3547  -14.7114 C   0  0  0  0  0  0  0  0  0  0  0  0
   17.7283   -8.2451  -15.7176 C   0  0  2  0  0  0  0  0  0  0  0  0
   19.0231   -8.4867  -15.1399 N   0  0  0  0  0  0  0  0  0  0  0  0
   17.6330   -6.9689  -16.4293 C   0  0  0  0  0  0  0  0  0  0  0  0
   18.0775   -5.8181  -15.7978 O   0  0  0  0  0  0  0  0  0  0  0  0
   17.1674   -6.8546  -17.5902 O   0  0  0  0  0  0  0  0  0  0  0  0
  1  2  1  0
  2  3  1  0
  3  4  1  0
  5  4  1  0
  5  7  1  0
  5  6  1  6
  7  8  2  0
  9 10  1  0
 10 12  1  0
 10 11  2  0
 12 13  1  0
 14 13  1  6
 15 14  1  0
 15  7  1  0
 16 17  2  0
 16 14  1  0
 18 19  1  0
 20 19  1  1
 20 22  1  0
 20 21  1  0
 21 16  1  0
 22 23  1  0
 24 22  2  0
M  END
$$$$
