MQS.pdb
     RDKit          3D

 24 23  0  0  1  0  0  0  0  0999 V2000
   29.4941  -14.5084  -16.1299 C   0  0  0  0  0  0  0  0  0  0  0  0
   28.0833  -13.5733  -16.7406 S   0  0  0  0  0  0  0  0  0  0  0  0
   27.7723  -12.1726  -15.6110 C   0  0  0  0  0  0  0  0  0  0  0  0
   26.7186  -11.3157  -16.2337 C   0  0  0  0  0  0  0  0  0  0  0  0
   25.3699  -11.9642  -16.3208 C   0  0  2  0  0  0  0  0  0  0  0  0
   25.4396  -13.2590  -16.9120 N   0  0  0  0  0  0  0  0  0  0  0  0
   24.3125  -11.0965  -16.8922 C   0  0  0  0  0  0  0  0  0  0  0  0
   23.7804  -11.3511  -17.9846 O   0  0  0  0  0  0  0  0  0  0  0  0
   18.9145  -10.8561  -16.7543 N   0  0  0  0  0  0  0  0  0  0  0  0
   19.7334  -11.0798  -15.5749 C   0  0  0  0  0  0  0  0  0  0  0  0
   19.2052  -11.7371  -14.6688 O   0  0  0  0  0  0  0  0  0  0  0  0
   21.0800  -10.5324  -15.5276 C   0  0  0  0  0  0  0  0  0  0  0  0
   21.5187   -9.6548  -16.6254 C   0  0  0  0  0  0  0  0  0  0  0  0
   22.8695   -9.0596  -16.5588 C   0  0  2  0  0  0  0  0  0  0  0  0
   23.8984   -9.9421  -16.1768 N   0  0  0  0  0  0  0  0  0  0  0  0
   22.8250   -7.8338  -15.6921 C   0  0  0  0  0  0  0  0  0  0  0  0
   22.9555   -8.0143  -14.4559 O   0  0  0  0  0  0  0  0  0  0  0  0
   22.7958   -2.9800  -15.4007 O   0  0  0  0  0  0  0  0  0  0  0  0
   22.4712   -4.0757  -16.1694 C   0  0  0  0  0  0  0  0  0  0  0  0
   22.7286   -5.3337  -15.3796 C   0  0  2  0  0  0  0  0  0  0  0  0
   22.6489   -6.5224  -16.1852 N   0  0  0  0  0  0  0  0  0  0  0  0
   21.8617   -5.3661  -14.1998 C   0  0  0  0  0  0  0  0  0  0  0  0
   22.3062   -4.7728  -13.0289 O   0  0  0  0  0  0  0  0  0  0  0  0
   20.7275   -5.9054  -14.1865 O   0  0  0  0  0  0  0  0  0  0  0  0
  1  2  1  0
  2  3  1  0
  3  4  1  0
  5  4  1  0
  5  7  1  0
  5  6  1  6
  7  8  2  0
  9 10  1  0
 10 12  1  0
 10 11  2  0
 12 13  1  0
 14 13  1  1
 15 14  1  0
 15  7  1  0
 16 17  2  0
 16 14  1  0
 18 19  1  0
 20 19  1  6
 20 22  1  0
 20 21  1  0
 21 16  1  0
 22 23  1  0
 24 22  2  0
M  END
$$$$
