MQS.pdb
     RDKit          3D

 24 23  0  0  1  0  0  0  0  0999 V2000
   28.4627  -21.0817   -9.0475 C   0  0  0  0  0  0  0  0  0  0  0  0
   29.4525  -22.1837  -10.0691 S   0  0  0  0  0  0  0  0  0  0  0  0
   29.6573  -21.4302  -11.7199 C   0  0  0  0  0  0  0  0  0  0  0  0
   28.5456  -20.4502  -11.9101 C   0  0  0  0  0  0  0  0  0  0  0  0
   27.3750  -20.9884  -12.6764 C   0  0  2  0  0  0  0  0  0  0  0  0
   27.7708  -21.5578  -13.9213 N   0  0  0  0  0  0  0  0  0  0  0  0
   26.2309  -20.0513  -12.7783 C   0  0  0  0  0  0  0  0  0  0  0  0
   25.8081  -19.4295  -11.7904 O   0  0  0  0  0  0  0  0  0  0  0  0
   25.2834  -16.2157  -17.5684 N   0  0  0  0  0  0  0  0  0  0  0  0
   26.3408  -16.4640  -16.6030 C   0  0  0  0  0  0  0  0  0  0  0  0
   27.4031  -15.8603  -16.7999 O   0  0  0  0  0  0  0  0  0  0  0  0
   26.0985  -17.3811  -15.5004 C   0  0  0  0  0  0  0  0  0  0  0  0
   24.7718  -18.0098  -15.3903 C   0  0  0  0  0  0  0  0  0  0  0  0
   24.5346  -18.9752  -14.2971 C   0  0  2  0  0  0  0  0  0  0  0  0
   25.5977  -19.8610  -14.0347 N   0  0  0  0  0  0  0  0  0  0  0  0
   23.2443  -19.7003  -14.5521 C   0  0  0  0  0  0  0  0  0  0  0  0
   23.1856  -20.3925  -15.5987 O   0  0  0  0  0  0  0  0  0  0  0  0
   21.1448  -21.3472  -11.7426 O   0  0  0  0  0  0  0  0  0  0  0  0
   20.2351  -20.7522  -12.5884 C   0  0  0  0  0  0  0  0  0  0  0  0
   20.9156  -20.4019  -13.8871 C   0  0  2  0  0  0  0  0  0  0  0  0
   22.1230  -19.6442  -13.6958 N   0  0  0  0  0  0  0  0  0  0  0  0
   19.9592  -19.7618  -14.7926 C   0  0  0  0  0  0  0  0  0  0  0  0
   18.8497  -20.4808  -15.2079 O   0  0  0  0  0  0  0  0  0  0  0  0
   20.0866  -18.5874  -15.2193 O   0  0  0  0  0  0  0  0  0  0  0  0
  1  2  1  0
  2  3  1  0
  3  4  1  0
  5  4  1  0
  5  7  1  0
  5  6  1  6
  7  8  2  0
  9 10  1  0
 10 12  1  0
 10 11  2  0
 12 13  1  0
 14 13  1  6
 15 14  1  0
 15  7  1  0
 16 17  2  0
 16 14  1  0
 18 19  1  0
 20 19  1  1
 20 22  1  0
 20 21  1  0
 21 16  1  0
 22 23  1  0
 24 22  2  0
M  END
$$$$
