MQS.pdb
     RDKit          3D

 24 23  0  0  1  0  0  0  0  0999 V2000
   21.3031  -19.9404  -17.4766 C   0  0  0  0  0  0  0  0  0  0  0  0
   20.6604  -20.4371  -15.8710 S   0  0  0  0  0  0  0  0  0  0  0  0
   19.5221  -19.1432  -15.2670 C   0  0  0  0  0  0  0  0  0  0  0  0
   20.2737  -17.8519  -15.2514 C   0  0  0  0  0  0  0  0  0  0  0  0
   19.4103  -16.6353  -15.3982 C   0  0  2  0  0  0  0  0  0  0  0  0
   18.4153  -16.8075  -16.4037 N   0  0  0  0  0  0  0  0  0  0  0  0
   20.1636  -15.3632  -15.5067 C   0  0  0  0  0  0  0  0  0  0  0  0
   21.1631  -15.1361  -14.8061 O   0  0  0  0  0  0  0  0  0  0  0  0
   22.1516  -14.0107  -20.7433 N   0  0  0  0  0  0  0  0  0  0  0  0
   21.1286  -13.0600  -20.3418 C   0  0  0  0  0  0  0  0  0  0  0  0
   20.9542  -12.1014  -21.1050 O   0  0  0  0  0  0  0  0  0  0  0  0
   20.3964  -13.2806  -19.1046 C   0  0  0  0  0  0  0  0  0  0  0  0
   21.0144  -12.8528  -17.8387 C   0  0  0  0  0  0  0  0  0  0  0  0
   20.2801  -13.0870  -16.5780 C   0  0  2  0  0  0  0  0  0  0  0  0
   19.7316  -14.3759  -16.4310 N   0  0  0  0  0  0  0  0  0  0  0  0
   19.2483  -12.0099  -16.4019 C   0  0  0  0  0  0  0  0  0  0  0  0
   18.1139  -12.2323  -16.8935 O   0  0  0  0  0  0  0  0  0  0  0  0
   17.2448   -8.5509  -13.9361 O   0  0  0  0  0  0  0  0  0  0  0  0
   18.1911   -9.5444  -14.0576 C   0  0  0  0  0  0  0  0  0  0  0  0
   18.4894   -9.7741  -15.5172 C   0  0  2  0  0  0  0  0  0  0  0  0
   19.4838  -10.7915  -15.7284 N   0  0  0  0  0  0  0  0  0  0  0  0
   18.8071   -8.5004  -16.1662 C   0  0  0  0  0  0  0  0  0  0  0  0
   17.8459   -7.5022  -16.1829 O   0  0  0  0  0  0  0  0  0  0  0  0
   19.9108   -8.2569  -16.7141 O   0  0  0  0  0  0  0  0  0  0  0  0
  1  2  1  0
  2  3  1  0
  3  4  1  0
  5  4  1  0
  5  7  1  0
  5  6  1  6
  7  8  2  0
  9 10  1  0
 10 12  1  0
 10 11  2  0
 12 13  1  0
 14 13  1  6
 15 14  1  0
 15  7  1  0
 16 17  2  0
 16 14  1  0
 18 19  1  0
 20 19  1  1
 20 22  1  0
 20 21  1  0
 21 16  1  0
 22 23  1  0
 24 22  2  0
M  END
$$$$
