MQS.pdb
     RDKit          3D

 24 23  0  0  1  0  0  0  0  0999 V2000
   20.0662  -11.8830  -22.7440 C   0  0  0  0  0  0  0  0  0  0  0  0
   19.6292  -10.8508  -21.3365 S   0  0  0  0  0  0  0  0  0  0  0  0
   18.5375  -11.8032  -20.2248 C   0  0  0  0  0  0  0  0  0  0  0  0
   18.1622  -10.9106  -19.0869 C   0  0  0  0  0  0  0  0  0  0  0  0
   19.2418  -10.7327  -18.0622 C   0  0  2  0  0  0  0  0  0  0  0  0
   19.6230  -11.9718  -17.4706 N   0  0  0  0  0  0  0  0  0  0  0  0
   18.9792   -9.6519  -17.0822 C   0  0  0  0  0  0  0  0  0  0  0  0
   18.0103   -9.6963  -16.3073 O   0  0  0  0  0  0  0  0  0  0  0  0
   23.5213   -6.1700  -14.3642 N   0  0  0  0  0  0  0  0  0  0  0  0
   22.3111   -5.4262  -14.0576 C   0  0  0  0  0  0  0  0  0  0  0  0
   22.4480   -4.4684  -13.2858 O   0  0  0  0  0  0  0  0  0  0  0  0
   21.0500   -5.8400  -14.6525 C   0  0  0  0  0  0  0  0  0  0  0  0
   21.0548   -6.9818  -15.5819 C   0  0  0  0  0  0  0  0  0  0  0  0
   19.7652   -7.4606  -16.1214 C   0  0  2  0  0  0  0  0  0  0  0  0
   19.8534   -8.5344  -17.0286 N   0  0  0  0  0  0  0  0  0  0  0  0
   19.0089   -6.2966  -16.6948 C   0  0  0  0  0  0  0  0  0  0  0  0
   19.3647   -5.9004  -17.8325 O   0  0  0  0  0  0  0  0  0  0  0  0
   15.2167   -3.2809  -16.5019 O   0  0  0  0  0  0  0  0  0  0  0  0
   15.8972   -4.3015  -15.8756 C   0  0  0  0  0  0  0  0  0  0  0  0
   17.2075   -4.5360  -16.5831 C   0  0  2  0  0  0  0  0  0  0  0  0
   17.9451   -5.6427  -16.0357 N   0  0  0  0  0  0  0  0  0  0  0  0
   17.9741   -3.2894  -16.6356 C   0  0  0  0  0  0  0  0  0  0  0  0
   18.6997   -2.9049  -15.5193 O   0  0  0  0  0  0  0  0  0  0  0  0
   18.0131   -2.5405  -17.6432 O   0  0  0  0  0  0  0  0  0  0  0  0
  1  2  1  0
  2  3  1  0
  3  4  1  0
  5  4  1  0
  5  7  1  0
  5  6  1  1
  7  8  2  0
  9 10  1  0
 10 12  1  0
 10 11  2  0
 12 13  1  0
 14 13  1  6
 15 14  1  0
 15  7  1  0
 16 17  2  0
 16 14  1  0
 18 19  1  0
 20 19  1  1
 20 22  1  0
 20 21  1  0
 21 16  1  0
 22 23  1  0
 24 22  2  0
M  END
$$$$
