MQS.pdb
     RDKit          3D

 24 23  0  0  1  0  0  0  0  0999 V2000
   13.4672  -12.7972  -17.0003 C   0  0  0  0  0  0  0  0  0  0  0  0
   14.1129  -11.9389  -15.5567 S   0  0  0  0  0  0  0  0  0  0  0  0
   15.7611  -11.2648  -15.9612 C   0  0  0  0  0  0  0  0  0  0  0  0
   16.3404  -10.7032  -14.7037 C   0  0  0  0  0  0  0  0  0  0  0  0
   17.7243  -10.1479  -14.8578 C   0  0  2  0  0  0  0  0  0  0  0  0
   18.6670  -11.1583  -15.2058 N   0  0  0  0  0  0  0  0  0  0  0  0
   18.1590   -9.2766  -13.7400 C   0  0  0  0  0  0  0  0  0  0  0  0
   18.8242   -9.7191  -12.7897 O   0  0  0  0  0  0  0  0  0  0  0  0
   21.2971   -5.6555  -11.6527 N   0  0  0  0  0  0  0  0  0  0  0  0
   21.4890   -6.0549  -13.0367 C   0  0  0  0  0  0  0  0  0  0  0  0
   22.6509   -6.3317  -13.3616 O   0  0  0  0  0  0  0  0  0  0  0  0
   20.3431   -6.1002  -13.9312 C   0  0  0  0  0  0  0  0  0  0  0  0
   19.0093   -5.8157  -13.3764 C   0  0  0  0  0  0  0  0  0  0  0  0
   18.2220   -6.9341  -12.8175 C   0  0  2  0  0  0  0  0  0  0  0  0
   17.8038   -7.9020  -13.7512 N   0  0  0  0  0  0  0  0  0  0  0  0
   17.0731   -6.3796  -12.0248 C   0  0  0  0  0  0  0  0  0  0  0  0
   16.0754   -5.9878  -12.6798 O   0  0  0  0  0  0  0  0  0  0  0  0
   16.2450   -7.4267   -8.2185 O   0  0  0  0  0  0  0  0  0  0  0  0
   16.0720   -6.0699   -8.3804 C   0  0  0  0  0  0  0  0  0  0  0  0
   15.9623   -5.7524   -9.8500 C   0  0  2  0  0  0  0  0  0  0  0  0
   17.0591   -6.2797  -10.6164 N   0  0  0  0  0  0  0  0  0  0  0  0
   15.7568   -4.3142  -10.0338 C   0  0  0  0  0  0  0  0  0  0  0  0
   16.6851   -3.5965  -10.7711 O   0  0  0  0  0  0  0  0  0  0  0  0
   14.7786   -3.6865   -9.5577 O   0  0  0  0  0  0  0  0  0  0  0  0
  1  2  1  0
  2  3  1  0
  3  4  1  0
  5  4  1  0
  5  7  1  0
  5  6  1  1
  7  8  2  0
  9 10  1  0
 10 12  1  0
 10 11  2  0
 12 13  1  0
 14 13  1  6
 15 14  1  0
 15  7  1  0
 16 17  2  0
 16 14  1  0
 18 19  1  0
 20 19  1  1
 20 22  1  0
 20 21  1  0
 21 16  1  0
 22 23  1  0
 24 22  2  0
M  END
$$$$
