MQS.pdb
     RDKit          3D

 24 23  0  0  1  0  0  0  0  0999 V2000
   28.1588  -12.5195  -15.4096 C   0  0  0  0  0  0  0  0  0  0  0  0
   27.6610  -14.2264  -15.6860 S   0  0  0  0  0  0  0  0  0  0  0  0
   25.8401  -14.3304  -15.5950 C   0  0  0  0  0  0  0  0  0  0  0  0
   25.2830  -13.1718  -16.3563 C   0  0  0  0  0  0  0  0  0  0  0  0
   24.4241  -12.2542  -15.5393 C   0  0  2  0  0  0  0  0  0  0  0  0
   23.3681  -12.9545  -14.8873 N   0  0  0  0  0  0  0  0  0  0  0  0
   23.9858  -11.0322  -16.2550 C   0  0  0  0  0  0  0  0  0  0  0  0
   24.7658  -10.3786  -16.9662 O   0  0  0  0  0  0  0  0  0  0  0  0
   17.9448   -9.9098  -18.0070 N   0  0  0  0  0  0  0  0  0  0  0  0
   19.0055  -10.3422  -18.9012 C   0  0  0  0  0  0  0  0  0  0  0  0
   18.6391  -10.7854  -19.9973 O   0  0  0  0  0  0  0  0  0  0  0  0
   20.3900  -10.2368  -18.4686 C   0  0  0  0  0  0  0  0  0  0  0  0
   20.6719   -9.6072  -17.1679 C   0  0  0  0  0  0  0  0  0  0  0  0
   22.0794   -9.4606  -16.7427 C   0  0  2  0  0  0  0  0  0  0  0  0
   22.6422  -10.5930  -16.1226 N   0  0  0  0  0  0  0  0  0  0  0  0
   22.2118   -8.2275  -15.8955 C   0  0  0  0  0  0  0  0  0  0  0  0
   22.1289   -8.3879  -14.6525 O   0  0  0  0  0  0  0  0  0  0  0  0
   23.3994   -3.5261  -15.5931 O   0  0  0  0  0  0  0  0  0  0  0  0
   23.0370   -4.5564  -16.4323 C   0  0  0  0  0  0  0  0  0  0  0  0
   22.6678   -5.7643  -15.6094 C   0  0  2  0  0  0  0  0  0  0  0  0
   22.4199   -6.9306  -16.4137 N   0  0  0  0  0  0  0  0  0  0  0  0
   21.5658   -5.4314  -14.7044 C   0  0  0  0  0  0  0  0  0  0  0  0
   21.8636   -4.9793  -13.4287 O   0  0  0  0  0  0  0  0  0  0  0  0
   20.3542   -5.5325  -15.0195 O   0  0  0  0  0  0  0  0  0  0  0  0
  1  2  1  0
  2  3  1  0
  3  4  1  0
  5  4  1  0
  5  7  1  0
  5  6  1  6
  7  8  2  0
  9 10  1  0
 10 12  1  0
 10 11  2  0
 12 13  1  0
 14 13  1  1
 15 14  1  0
 15  7  1  0
 16 17  2  0
 16 14  1  0
 18 19  1  0
 20 19  1  6
 20 22  1  0
 20 21  1  0
 21 16  1  0
 22 23  1  0
 24 22  2  0
M  END
$$$$
