MQS.pdb
     RDKit          3D

 24 23  0  0  1  0  0  0  0  0999 V2000
   28.4125  -14.0113  -15.5687 C   0  0  0  0  0  0  0  0  0  0  0  0
   27.1220  -12.7735  -15.7689 S   0  0  0  0  0  0  0  0  0  0  0  0
   27.0479  -12.2795  -17.5253 C   0  0  0  0  0  0  0  0  0  0  0  0
   25.9627  -11.2618  -17.6628 C   0  0  0  0  0  0  0  0  0  0  0  0
   24.5860  -11.7894  -17.3913 C   0  0  2  0  0  0  0  0  0  0  0  0
   24.3199  -12.9826  -18.1234 N   0  0  0  0  0  0  0  0  0  0  0  0
   23.5133  -10.7707  -17.4877 C   0  0  0  0  0  0  0  0  0  0  0  0
   22.9717  -10.4953  -18.5704 O   0  0  0  0  0  0  0  0  0  0  0  0
   18.3436  -10.7646  -14.5482 N   0  0  0  0  0  0  0  0  0  0  0  0
   18.3553   -9.4046  -15.0601 C   0  0  0  0  0  0  0  0  0  0  0  0
   17.2725   -8.8061  -15.0249 O   0  0  0  0  0  0  0  0  0  0  0  0
   19.5969   -8.8460  -15.5716 C   0  0  0  0  0  0  0  0  0  0  0  0
   20.7821   -9.7170  -15.6386 C   0  0  0  0  0  0  0  0  0  0  0  0
   22.0248   -9.1770  -16.2281 C   0  0  2  0  0  0  0  0  0  0  0  0
   23.0954  -10.0879  -16.3151 N   0  0  0  0  0  0  0  0  0  0  0  0
   22.4092   -7.9205  -15.5006 C   0  0  0  0  0  0  0  0  0  0  0  0
   23.1433   -8.0578  -14.4906 O   0  0  0  0  0  0  0  0  0  0  0  0
   22.2711   -3.0706  -15.1647 O   0  0  0  0  0  0  0  0  0  0  0  0
   21.8623   -4.1766  -15.8766 C   0  0  0  0  0  0  0  0  0  0  0  0
   22.3016   -5.4252  -15.1552 C   0  0  2  0  0  0  0  0  0  0  0  0
   21.9973   -6.6260  -15.8859 N   0  0  0  0  0  0  0  0  0  0  0  0
   21.7750   -5.4212  -13.7888 C   0  0  0  0  0  0  0  0  0  0  0  0
   22.4596   -4.7157  -12.8121 O   0  0  0  0  0  0  0  0  0  0  0  0
   20.7287   -6.0258  -13.4465 O   0  0  0  0  0  0  0  0  0  0  0  0
  1  2  1  0
  2  3  1  0
  3  4  1  0
  5  4  1  0
  5  7  1  0
  5  6  1  6
  7  8  2  0
  9 10  1  0
 10 12  1  0
 10 11  2  0
 12 13  1  0
 14 13  1  1
 15 14  1  0
 15  7  1  0
 16 17  2  0
 16 14  1  0
 18 19  1  0
 20 19  1  6
 20 22  1  0
 20 21  1  0
 21 16  1  0
 22 23  1  0
 24 22  2  0
M  END
$$$$
