VDQ.pdb
     RDKit          3D

 25 24  0  0  1  0  0  0  0  0999 V2000
   19.5978  -22.2823  -12.5467 C   0  0  0  0  0  0  0  0  0  0  0  0
   19.0356  -21.4481  -13.6776 C   0  0  2  0  0  0  0  0  0  0  0  0
   17.7662  -21.9661  -14.2465 C   0  0  0  0  0  0  0  0  0  0  0  0
   20.0966  -21.2498  -14.7634 C   0  0  2  0  0  0  0  0  0  0  0  0
   20.3736  -22.6191  -15.2385 N   0  0  0  0  0  0  0  0  0  0  0  0
   21.3310  -20.7721  -14.0827 C   0  0  0  0  0  0  0  0  0  0  0  0
   21.3366  -19.6074  -13.5979 O   0  0  0  0  0  0  0  0  0  0  0  0
   22.5000  -21.5319  -13.9349 N   0  0  0  0  0  0  0  0  0  0  0  0
   23.7010  -20.9039  -13.3916 C   0  0  1  0  0  0  0  0  0  0  0  0
   24.5485  -21.9484  -12.6982 C   0  0  0  0  0  0  0  0  0  0  0  0
   25.5090  -21.3188  -11.7871 C   0  0  0  0  0  0  0  0  0  0  0  0
   25.6667  -20.0956  -11.5726 O   0  0  0  0  0  0  0  0  0  0  0  0
   24.4585  -20.2481  -14.4927 C   0  0  0  0  0  0  0  0  0  0  0  0
   24.7752  -20.8385  -15.5722 O   0  0  0  0  0  0  0  0  0  0  0  0
   26.3996  -22.1310  -11.0236 O   0  0  0  0  0  0  0  0  0  0  0  0
   28.1658  -16.2351  -17.0469 N   0  0  0  0  0  0  0  0  0  0  0  0
   28.7347  -17.4833  -16.6368 C   0  0  0  0  0  0  0  0  0  0  0  0
   29.7881  -17.8286  -17.2259 O   0  0  0  0  0  0  0  0  0  0  0  0
   28.1108  -18.3165  -15.5758 C   0  0  0  0  0  0  0  0  0  0  0  0
   26.8865  -17.5863  -15.0758 C   0  0  0  0  0  0  0  0  0  0  0  0
   25.6069  -18.2458  -15.5319 C   0  0  2  0  0  0  0  0  0  0  0  0
   24.9058  -18.8862  -14.4506 N   0  0  0  0  0  0  0  0  0  0  0  0
   25.8084  -19.1548  -16.6671 C   0  0  0  0  0  0  0  0  0  0  0  0
   26.0212  -18.7462  -17.8411 O   0  0  0  0  0  0  0  0  0  0  0  0
   25.7741  -20.5317  -16.4995 O   0  0  0  0  0  0  0  0  0  0  0  0
  2  1  1  1
  2  3  1  0
  4  5  1  1
  4  6  1  0
  4  2  1  0
  6  8  1  0
  7  6  2  0
  8  9  1  0
  9 10  1  6
 10 11  1  0
 11 15  1  0
 11 12  2  0
 13 14  2  0
 13  9  1  0
 16 17  1  0
 17 19  1  0
 18 17  2  0
 19 20  1  0
 21 22  1  0
 21 20  1  1
 22 13  1  0
 23 21  1  0
 24 23  2  0
 25 23  1  0
M  END
$$$$
