VDQ.pdb
     RDKit          3D

 25 24  0  0  1  0  0  0  0  0999 V2000
   19.6309  -14.9368  -17.7546 C   0  0  0  0  0  0  0  0  0  0  0  0
   19.5904  -13.5837  -17.0773 C   0  0  2  0  0  0  0  0  0  0  0  0
   20.7778  -13.2847  -16.2383 C   0  0  0  0  0  0  0  0  0  0  0  0
   18.2903  -13.4310  -16.2834 C   0  0  2  0  0  0  0  0  0  0  0  0
   17.2350  -13.6387  -17.2938 N   0  0  0  0  0  0  0  0  0  0  0  0
   18.2054  -12.0072  -15.8583 C   0  0  0  0  0  0  0  0  0  0  0  0
   18.9320  -11.6221  -14.9016 O   0  0  0  0  0  0  0  0  0  0  0  0
   17.3709  -11.0502  -16.4530 N   0  0  0  0  0  0  0  0  0  0  0  0
   17.3604   -9.6851  -15.9349 C   0  0  1  0  0  0  0  0  0  0  0  0
   18.0264   -8.7609  -16.9311 C   0  0  0  0  0  0  0  0  0  0  0  0
   18.1792   -7.4147  -16.3712 C   0  0  0  0  0  0  0  0  0  0  0  0
   18.5778   -6.3849  -16.9609 O   0  0  0  0  0  0  0  0  0  0  0  0
   15.9563   -9.2648  -15.6741 C   0  0  0  0  0  0  0  0  0  0  0  0
   14.9471   -9.8394  -16.1895 O   0  0  0  0  0  0  0  0  0  0  0  0
   17.8557   -7.1751  -15.0024 O   0  0  0  0  0  0  0  0  0  0  0  0
   12.1805  -10.9751  -12.5859 N   0  0  0  0  0  0  0  0  0  0  0  0
   11.4545   -9.7622  -12.8126 C   0  0  0  0  0  0  0  0  0  0  0  0
   10.2676   -9.7460  -12.4042 O   0  0  0  0  0  0  0  0  0  0  0  0
   12.0747   -8.5944  -13.4915 C   0  0  0  0  0  0  0  0  0  0  0  0
   13.4804   -8.9826  -13.8856 C   0  0  0  0  0  0  0  0  0  0  0  0
   14.2385   -7.8275  -14.4947 C   0  0  2  0  0  0  0  0  0  0  0  0
   15.5980   -8.1735  -14.8156 N   0  0  0  0  0  0  0  0  0  0  0  0
   14.1622   -6.6059  -13.6839 C   0  0  0  0  0  0  0  0  0  0  0  0
   13.0685   -6.0835  -13.3354 O   0  0  0  0  0  0  0  0  0  0  0  0
   15.3104   -5.9562  -13.2542 O   0  0  0  0  0  0  0  0  0  0  0  0
  2  1  1  1
  2  3  1  0
  4  5  1  6
  4  6  1  0
  4  2  1  0
  6  8  1  0
  7  6  2  0
  8  9  1  0
  9 10  1  6
 10 11  1  0
 11 15  1  0
 11 12  2  0
 13 14  2  0
 13  9  1  0
 16 17  1  0
 17 19  1  0
 18 17  2  0
 19 20  1  0
 21 22  1  0
 21 20  1  1
 22 13  1  0
 23 21  1  0
 24 23  2  0
 25 23  1  0
M  END
$$$$
