VDQ.pdb
     RDKit          3D

 25 24  0  0  1  0  0  0  0  0999 V2000
   26.5808  -12.9992  -15.8567 C   0  0  0  0  0  0  0  0  0  0  0  0
   25.7204  -14.1563  -15.3967 C   0  0  2  0  0  0  0  0  0  0  0  0
   26.4821  -15.2940  -14.8234 C   0  0  0  0  0  0  0  0  0  0  0  0
   24.8011  -14.6130  -16.5327 C   0  0  2  0  0  0  0  0  0  0  0  0
   25.7361  -15.0281  -17.5961 N   0  0  0  0  0  0  0  0  0  0  0  0
   24.0919  -13.4030  -17.0310 C   0  0  0  0  0  0  0  0  0  0  0  0
   24.6202  -12.7397  -17.9651 O   0  0  0  0  0  0  0  0  0  0  0  0
   22.8633  -12.9434  -16.5359 N   0  0  0  0  0  0  0  0  0  0  0  0
   22.2566  -11.7489  -17.1163 C   0  0  1  0  0  0  0  0  0  0  0  0
   21.0070  -12.1352  -17.8775 C   0  0  0  0  0  0  0  0  0  0  0  0
   20.3913  -10.9590  -18.4992 C   0  0  0  0  0  0  0  0  0  0  0  0
   19.2111  -10.5610  -18.3744 O   0  0  0  0  0  0  0  0  0  0  0  0
   21.9419  -10.7769  -16.0335 C   0  0  0  0  0  0  0  0  0  0  0  0
   21.5609  -11.1230  -14.8719 O   0  0  0  0  0  0  0  0  0  0  0  0
   21.1659  -10.1242  -19.3589 O   0  0  0  0  0  0  0  0  0  0  0  0
   21.7453   -3.5026  -14.3911 N   0  0  0  0  0  0  0  0  0  0  0  0
   22.4146   -4.7041  -14.7888 C   0  0  0  0  0  0  0  0  0  0  0  0
   23.4188   -4.5566  -15.5275 O   0  0  0  0  0  0  0  0  0  0  0  0
   21.9439   -6.0439  -14.3498 C   0  0  0  0  0  0  0  0  0  0  0  0
   22.1791   -7.0109  -15.4864 C   0  0  0  0  0  0  0  0  0  0  0  0
   21.7737   -8.4200  -15.1255 C   0  0  2  0  0  0  0  0  0  0  0  0
   22.0381   -9.3544  -16.1875 N   0  0  0  0  0  0  0  0  0  0  0  0
   20.3870   -8.5094  -14.6513 C   0  0  0  0  0  0  0  0  0  0  0  0
   19.4032   -8.6222  -15.4322 O   0  0  0  0  0  0  0  0  0  0  0  0
   20.0874   -8.4737  -13.2971 O   0  0  0  0  0  0  0  0  0  0  0  0
  2  1  1  6
  2  3  1  0
  4  5  1  6
  4  6  1  0
  4  2  1  0
  6  8  1  0
  7  6  2  0
  8  9  1  0
  9 10  1  1
 10 11  1  0
 11 15  1  0
 11 12  2  0
 13 14  2  0
 13  9  1  0
 16 17  1  0
 17 19  1  0
 18 17  2  0
 19 20  1  0
 21 22  1  0
 21 20  1  6
 22 13  1  0
 23 21  1  0
 24 23  2  0
 25 23  1  0
M  END
$$$$
