VDQ.pdb
     RDKit          3D

 25 24  0  0  1  0  0  0  0  0999 V2000
   36.6121   -1.5717  -10.7355 C   0  0  0  0  0  0  0  0  0  0  0  0
   38.1147   -1.6229  -10.5615 C   0  0  2  0  0  0  0  0  0  0  0  0
   38.8584   -2.0146  -11.7850 C   0  0  0  0  0  0  0  0  0  0  0  0
   38.4771   -2.5191   -9.3743 C   0  0  2  0  0  0  0  0  0  0  0  0
   38.0151   -3.8574   -9.7903 N   0  0  0  0  0  0  0  0  0  0  0  0
   37.6153   -2.1008   -8.2351 C   0  0  0  0  0  0  0  0  0  0  0  0
   36.5129   -2.6910   -8.0682 O   0  0  0  0  0  0  0  0  0  0  0  0
   37.9446   -1.0903   -7.3206 N   0  0  0  0  0  0  0  0  0  0  0  0
   37.0328   -0.7929   -6.2197 C   0  0  1  0  0  0  0  0  0  0  0  0
   37.8176   -0.6716   -4.9315 C   0  0  0  0  0  0  0  0  0  0  0  0
   36.9165   -0.5327   -3.7836 C   0  0  0  0  0  0  0  0  0  0  0  0
   35.7354   -0.9367   -3.6888 O   0  0  0  0  0  0  0  0  0  0  0  0
   36.2942    0.4656   -6.5143 C   0  0  0  0  0  0  0  0  0  0  0  0
   36.8301    1.4794   -7.0613 O   0  0  0  0  0  0  0  0  0  0  0  0
   37.3687    0.1286   -2.6029 O   0  0  0  0  0  0  0  0  0  0  0  0
   32.7221    1.9370  -10.1915 N   0  0  0  0  0  0  0  0  0  0  0  0
   32.1981    2.9680   -9.3474 C   0  0  0  0  0  0  0  0  0  0  0  0
   31.5942    3.9023   -9.9290 O   0  0  0  0  0  0  0  0  0  0  0  0
   32.3622    2.9289   -7.8707 C   0  0  0  0  0  0  0  0  0  0  0  0
   33.0804    1.6469   -7.5199 C   0  0  0  0  0  0  0  0  0  0  0  0
   34.1903    1.8733   -6.5214 C   0  0  2  0  0  0  0  0  0  0  0  0
   34.9057    0.6628   -6.2148 N   0  0  0  0  0  0  0  0  0  0  0  0
   33.7323    2.5601   -5.3073 C   0  0  0  0  0  0  0  0  0  0  0  0
   33.2817    1.9454   -4.3026 O   0  0  0  0  0  0  0  0  0  0  0  0
   33.7742    3.9432   -5.2054 O   0  0  0  0  0  0  0  0  0  0  0  0
  2  1  1  6
  2  3  1  0
  4  5  1  6
  4  6  1  0
  4  2  1  0
  6  8  1  0
  7  6  2  0
  8  9  1  0
  9 10  1  1
 10 11  1  0
 11 15  1  0
 11 12  2  0
 13 14  2  0
 13  9  1  0
 16 17  1  0
 17 19  1  0
 18 17  2  0
 19 20  1  0
 21 22  1  0
 21 20  1  6
 22 13  1  0
 23 21  1  0
 24 23  2  0
 25 23  1  0
M  END
$$$$
