VDQ.pdb
     RDKit          3D

 25 24  0  0  1  0  0  0  0  0999 V2000
   27.2223  -21.2865  -10.5992 C   0  0  0  0  0  0  0  0  0  0  0  0
   25.9388  -20.4842  -10.6049 C   0  0  2  0  0  0  0  0  0  0  0  0
   25.3819  -20.2128   -9.2560 C   0  0  0  0  0  0  0  0  0  0  0  0
   24.9042  -21.1524  -11.5144 C   0  0  2  0  0  0  0  0  0  0  0  0
   25.5788  -22.3837  -11.9687 N   0  0  0  0  0  0  0  0  0  0  0  0
   24.7490  -20.2800  -12.7103 C   0  0  0  0  0  0  0  0  0  0  0  0
   24.1667  -19.1695  -12.5715 O   0  0  0  0  0  0  0  0  0  0  0  0
   25.2117  -20.6035  -13.9937 N   0  0  0  0  0  0  0  0  0  0  0  0
   24.9074  -19.7154  -15.1120 C   0  0  1  0  0  0  0  0  0  0  0  0
   26.1340  -19.5628  -15.9850 C   0  0  0  0  0  0  0  0  0  0  0  0
   26.9572  -20.7750  -15.9431 C   0  0  0  0  0  0  0  0  0  0  0  0
   27.8747  -21.0455  -15.1356 O   0  0  0  0  0  0  0  0  0  0  0  0
   23.7657  -20.2709  -15.8893 C   0  0  0  0  0  0  0  0  0  0  0  0
   23.6713  -21.4953  -16.2151 O   0  0  0  0  0  0  0  0  0  0  0  0
   26.7453  -21.8096  -16.9026 O   0  0  0  0  0  0  0  0  0  0  0  0
   20.5527  -22.9976  -14.8348 N   0  0  0  0  0  0  0  0  0  0  0  0
   19.4369  -22.1045  -14.9208 C   0  0  0  0  0  0  0  0  0  0  0  0
   18.3631  -22.6031  -15.3381 O   0  0  0  0  0  0  0  0  0  0  0  0
   19.5492  -20.6730  -14.5369 C   0  0  0  0  0  0  0  0  0  0  0  0
   20.9886  -20.2558  -14.7269 C   0  0  0  0  0  0  0  0  0  0  0  0
   21.2817  -19.8626  -16.1551 C   0  0  2  0  0  0  0  0  0  0  0  0
   22.6570  -19.4853  -16.3476 N   0  0  0  0  0  0  0  0  0  0  0  0
   20.3582  -18.8415  -16.6651 C   0  0  0  0  0  0  0  0  0  0  0  0
   20.4260  -17.6282  -16.3277 O   0  0  0  0  0  0  0  0  0  0  0  0
   19.3487  -19.1684  -17.5590 O   0  0  0  0  0  0  0  0  0  0  0  0
  2  1  1  1
  2  3  1  0
  4  5  1  6
  4  6  1  0
  4  2  1  0
  6  8  1  0
  7  6  2  0
  8  9  1  0
  9 10  1  6
 10 11  1  0
 11 15  1  0
 11 12  2  0
 13 14  2  0
 13  9  1  0
 16 17  1  0
 17 19  1  0
 18 17  2  0
 19 20  1  0
 21 22  1  0
 21 20  1  1
 22 13  1  0
 23 21  1  0
 24 23  2  0
 25 23  1  0
M  END
$$$$
