VDQ.pdb
     RDKit          3D

 25 24  0  0  1  0  0  0  0  0999 V2000
   18.4694  -13.7595  -18.2602 C   0  0  0  0  0  0  0  0  0  0  0  0
   19.9504  -13.7295  -18.5711 C   0  0  2  0  0  0  0  0  0  0  0  0
   20.5557  -15.0669  -18.7909 C   0  0  0  0  0  0  0  0  0  0  0  0
   20.6996  -12.9460  -17.4900 C   0  0  2  0  0  0  0  0  0  0  0  0
   20.5068  -13.7559  -16.2717 N   0  0  0  0  0  0  0  0  0  0  0  0
   19.9571  -11.6728  -17.2828 C   0  0  0  0  0  0  0  0  0  0  0  0
   19.9338  -10.8317  -18.2229 O   0  0  0  0  0  0  0  0  0  0  0  0
   19.2696  -11.3375  -16.1077 N   0  0  0  0  0  0  0  0  0  0  0  0
   18.6450  -10.0229  -15.9911 C   0  0  1  0  0  0  0  0  0  0  0  0
   17.4020  -10.1277  -15.1343 C   0  0  0  0  0  0  0  0  0  0  0  0
   16.3295  -10.8200  -15.8550 C   0  0  0  0  0  0  0  0  0  0  0  0
   15.9441  -10.6152  -17.0282 O   0  0  0  0  0  0  0  0  0  0  0  0
   19.6184   -9.0623  -15.4029 C   0  0  0  0  0  0  0  0  0  0  0  0
   20.2771   -9.2955  -14.3418 O   0  0  0  0  0  0  0  0  0  0  0  0
   15.5960  -11.8587  -15.2078 O   0  0  0  0  0  0  0  0  0  0  0  0
   22.6752   -4.4506  -18.3841 N   0  0  0  0  0  0  0  0  0  0  0  0
   23.1129   -4.2644  -17.0337 C   0  0  0  0  0  0  0  0  0  0  0  0
   24.0162   -3.4101  -16.8602 O   0  0  0  0  0  0  0  0  0  0  0  0
   22.5284   -5.0393  -15.9080 C   0  0  0  0  0  0  0  0  0  0  0  0
   21.4810   -5.9655  -16.4799 C   0  0  0  0  0  0  0  0  0  0  0  0
   20.8927   -6.8752  -15.4280 C   0  0  2  0  0  0  0  0  0  0  0  0
   19.9143   -7.7796  -15.9718 N   0  0  0  0  0  0  0  0  0  0  0  0
   20.3733   -6.1415  -14.2672 C   0  0  0  0  0  0  0  0  0  0  0  0
   19.1797   -5.7419  -14.1888 O   0  0  0  0  0  0  0  0  0  0  0  0
   21.1853   -5.8476  -13.1812 O   0  0  0  0  0  0  0  0  0  0  0  0
  2  1  1  1
  2  3  1  0
  4  5  1  1
  4  6  1  0
  4  2  1  0
  6  8  1  0
  7  6  2  0
  8  9  1  0
  9 10  1  1
 10 11  1  0
 11 15  1  0
 11 12  2  0
 13 14  2  0
 13  9  1  0
 16 17  1  0
 17 19  1  0
 18 17  2  0
 19 20  1  0
 21 22  1  0
 21 20  1  6
 22 13  1  0
 23 21  1  0
 24 23  2  0
 25 23  1  0
M  END
$$$$
