VDQ.pdb
     RDKit          3D

 25 24  0  0  1  0  0  0  0  0999 V2000
   20.1037  -12.9267  -16.5732 C   0  0  0  0  0  0  0  0  0  0  0  0
   19.3457  -12.8642  -17.8818 C   0  0  2  0  0  0  0  0  0  0  0  0
   19.6242  -13.9938  -18.8037 C   0  0  0  0  0  0  0  0  0  0  0  0
   19.5817  -11.5135  -18.5630 C   0  0  2  0  0  0  0  0  0  0  0  0
   21.0124  -11.5466  -18.9230 N   0  0  0  0  0  0  0  0  0  0  0  0
   19.4248  -10.4661  -17.5173 C   0  0  0  0  0  0  0  0  0  0  0  0
   18.2786  -10.2757  -17.0258 O   0  0  0  0  0  0  0  0  0  0  0  0
   20.4703   -9.6694  -17.0293 N   0  0  0  0  0  0  0  0  0  0  0  0
   20.1653   -8.5413  -16.1540 C   0  0  1  0  0  0  0  0  0  0  0  0
   21.3060   -8.3327  -15.1816 C   0  0  0  0  0  0  0  0  0  0  0  0
   20.9800   -7.2804  -14.2144 C   0  0  0  0  0  0  0  0  0  0  0  0
   19.9285   -7.1588  -13.5461 O   0  0  0  0  0  0  0  0  0  0  0  0
   19.9376   -7.3224  -16.9779 C   0  0  0  0  0  0  0  0  0  0  0  0
   20.6606   -7.0061  -17.9736 O   0  0  0  0  0  0  0  0  0  0  0  0
   21.9218   -6.2408  -13.9533 O   0  0  0  0  0  0  0  0  0  0  0  0
   14.7751   -5.0536  -19.1709 N   0  0  0  0  0  0  0  0  0  0  0  0
   15.6667   -3.9824  -19.4987 C   0  0  0  0  0  0  0  0  0  0  0  0
   15.1925   -3.0725  -20.2219 O   0  0  0  0  0  0  0  0  0  0  0  0
   17.0697   -3.9546  -19.0086 C   0  0  0  0  0  0  0  0  0  0  0  0
   17.2789   -5.1718  -18.1387 C   0  0  0  0  0  0  0  0  0  0  0  0
   18.6632   -5.2077  -17.5366 C   0  0  2  0  0  0  0  0  0  0  0  0
   18.8812   -6.3833  -16.7356 N   0  0  0  0  0  0  0  0  0  0  0  0
   18.9982   -3.9789  -16.8063 C   0  0  0  0  0  0  0  0  0  0  0  0
   18.6822   -3.7927  -15.5997 O   0  0  0  0  0  0  0  0  0  0  0  0
   19.6913   -2.9452  -17.4197 O   0  0  0  0  0  0  0  0  0  0  0  0
  2  1  1  1
  2  3  1  0
  4  5  1  1
  4  6  1  0
  4  2  1  0
  6  8  1  0
  7  6  2  0
  8  9  1  0
  9 10  1  1
 10 11  1  0
 11 15  1  0
 11 12  2  0
 13 14  2  0
 13  9  1  0
 16 17  1  0
 17 19  1  0
 18 17  2  0
 19 20  1  0
 21 22  1  0
 21 20  1  1
 22 13  1  0
 23 21  1  0
 24 23  2  0
 25 23  1  0
M  END
$$$$
