VDQ.pdb
     RDKit          3D

 25 24  0  0  1  0  0  0  0  0999 V2000
   20.6189  -13.6548  -16.4916 C   0  0  0  0  0  0  0  0  0  0  0  0
   19.1659  -14.0754  -16.4377 C   0  0  2  0  0  0  0  0  0  0  0  0
   18.8477  -15.2788  -17.2463 C   0  0  0  0  0  0  0  0  0  0  0  0
   18.2624  -12.8962  -16.8082 C   0  0  2  0  0  0  0  0  0  0  0  0
   18.5632  -12.6569  -18.2328 N   0  0  0  0  0  0  0  0  0  0  0  0
   18.7630  -11.7125  -16.0575 C   0  0  0  0  0  0  0  0  0  0  0  0
   18.5600  -11.6609  -14.8134 O   0  0  0  0  0  0  0  0  0  0  0  0
   19.4558  -10.6403  -16.6374 N   0  0  0  0  0  0  0  0  0  0  0  0
   19.8495   -9.5060  -15.8065 C   0  0  1  0  0  0  0  0  0  0  0  0
   21.3120   -9.1932  -16.0376 C   0  0  0  0  0  0  0  0  0  0  0  0
   21.7428   -8.0695  -15.2005 C   0  0  0  0  0  0  0  0  0  0  0  0
   22.3084   -7.0161  -15.5713 O   0  0  0  0  0  0  0  0  0  0  0  0
   18.9951   -8.3317  -16.1340 C   0  0  0  0  0  0  0  0  0  0  0  0
   18.8460   -7.8823  -17.3130 O   0  0  0  0  0  0  0  0  0  0  0  0
   21.5257   -8.1112  -13.7909 O   0  0  0  0  0  0  0  0  0  0  0  0
   13.5312   -6.6579  -13.9718 N   0  0  0  0  0  0  0  0  0  0  0  0
   13.8966   -5.4632  -14.6711 C   0  0  0  0  0  0  0  0  0  0  0  0
   12.9918   -4.6030  -14.8023 O   0  0  0  0  0  0  0  0  0  0  0  0
   15.2676   -5.2590  -15.2076 C   0  0  0  0  0  0  0  0  0  0  0  0
   16.0656   -6.5098  -14.9233 C   0  0  0  0  0  0  0  0  0  0  0  0
   17.4704   -6.4232  -15.4700 C   0  0  2  0  0  0  0  0  0  0  0  0
   18.2524   -7.5900  -15.1569 N   0  0  0  0  0  0  0  0  0  0  0  0
   18.1568   -5.1848  -15.0817 C   0  0  0  0  0  0  0  0  0  0  0  0
   18.9020   -5.1050  -14.0674 O   0  0  0  0  0  0  0  0  0  0  0  0
   18.0162   -4.0221  -15.8257 O   0  0  0  0  0  0  0  0  0  0  0  0
  2  1  1  6
  2  3  1  0
  4  5  1  6
  4  6  1  0
  4  2  1  0
  6  8  1  0
  7  6  2  0
  8  9  1  0
  9 10  1  6
 10 11  1  0
 11 15  1  0
 11 12  2  0
 13 14  2  0
 13  9  1  0
 16 17  1  0
 17 19  1  0
 18 17  2  0
 19 20  1  0
 21 22  1  0
 21 20  1  1
 22 13  1  0
 23 21  1  0
 24 23  2  0
 25 23  1  0
M  END
$$$$
