VDQ.pdb
     RDKit          3D

 25 24  0  0  1  0  0  0  0  0999 V2000
   27.3362  -10.9790  -16.2575 C   0  0  0  0  0  0  0  0  0  0  0  0
   26.8159  -12.3044  -15.7442 C   0  0  2  0  0  0  0  0  0  0  0  0
   27.8760  -13.2623  -15.3416 C   0  0  0  0  0  0  0  0  0  0  0  0
   25.8580  -12.9249  -16.7647 C   0  0  2  0  0  0  0  0  0  0  0  0
   26.6979  -13.1192  -17.9623 N   0  0  0  0  0  0  0  0  0  0  0  0
   24.8533  -11.8817  -17.1078 C   0  0  0  0  0  0  0  0  0  0  0  0
   25.1001  -11.1043  -18.0702 O   0  0  0  0  0  0  0  0  0  0  0  0
   23.6365  -11.7004  -16.4351 N   0  0  0  0  0  0  0  0  0  0  0  0
   22.7130  -10.6641  -16.8879 C   0  0  1  0  0  0  0  0  0  0  0  0
   21.3357  -11.2617  -17.0775 C   0  0  0  0  0  0  0  0  0  0  0  0
   21.3362  -12.2335  -18.1750 C   0  0  0  0  0  0  0  0  0  0  0  0
   21.0673  -13.4545  -18.1118 O   0  0  0  0  0  0  0  0  0  0  0  0
   22.6817   -9.5586  -15.8913 C   0  0  0  0  0  0  0  0  0  0  0  0
   22.6682   -9.7494  -14.6353 O   0  0  0  0  0  0  0  0  0  0  0  0
   21.6725  -11.8114  -19.4958 O   0  0  0  0  0  0  0  0  0  0  0  0
   22.5941   -3.2842  -17.0704 N   0  0  0  0  0  0  0  0  0  0  0  0
   22.4678   -3.3386  -15.6453 C   0  0  0  0  0  0  0  0  0  0  0  0
   22.3597   -2.2337  -15.0592 O   0  0  0  0  0  0  0  0  0  0  0  0
   22.4653   -4.6296  -14.9088 C   0  0  0  0  0  0  0  0  0  0  0  0
   22.5984   -5.7404  -15.9240 C   0  0  0  0  0  0  0  0  0  0  0  0
   22.5341   -7.1059  -15.2827 C   0  0  2  0  0  0  0  0  0  0  0  0
   22.6659   -8.1687  -16.2440 N   0  0  0  0  0  0  0  0  0  0  0  0
   21.3491   -7.2807  -14.4336 C   0  0  0  0  0  0  0  0  0  0  0  0
   21.3659   -7.0866  -13.1876 O   0  0  0  0  0  0  0  0  0  0  0  0
   20.1322   -7.6746  -14.9712 O   0  0  0  0  0  0  0  0  0  0  0  0
  2  1  1  6
  2  3  1  0
  4  5  1  6
  4  6  1  0
  4  2  1  0
  6  8  1  0
  7  6  2  0
  8  9  1  0
  9 10  1  1
 10 11  1  0
 11 15  1  0
 11 12  2  0
 13 14  2  0
 13  9  1  0
 16 17  1  0
 17 19  1  0
 18 17  2  0
 19 20  1  0
 21 22  1  0
 21 20  1  6
 22 13  1  0
 23 21  1  0
 24 23  2  0
 25 23  1  0
M  END
$$$$
