VDQ.pdb
     RDKit          3D

 25 24  0  0  1  0  0  0  0  0999 V2000
   18.5491  -13.4189  -17.5991 C   0  0  0  0  0  0  0  0  0  0  0  0
   17.1485  -13.0510  -17.1586 C   0  0  2  0  0  0  0  0  0  0  0  0
   16.6544  -11.7628  -17.7062 C   0  0  0  0  0  0  0  0  0  0  0  0
   17.0510  -13.0848  -15.6311 C   0  0  2  0  0  0  0  0  0  0  0  0
   15.6055  -12.9479  -15.3680 N   0  0  0  0  0  0  0  0  0  0  0  0
   17.7000  -11.8440  -15.1266 C   0  0  0  0  0  0  0  0  0  0  0  0
   18.9580  -11.7622  -15.1756 O   0  0  0  0  0  0  0  0  0  0  0  0
   17.0077  -10.7448  -14.5990 N   0  0  0  0  0  0  0  0  0  0  0  0
   17.7584   -9.6135  -14.0620 C   0  0  1  0  0  0  0  0  0  0  0  0
   18.6722   -9.0586  -15.1332 C   0  0  0  0  0  0  0  0  0  0  0  0
   19.5788   -8.0516  -14.5739 C   0  0  0  0  0  0  0  0  0  0  0  0
   19.2944   -6.8876  -14.2114 O   0  0  0  0  0  0  0  0  0  0  0  0
   16.8092   -8.5730  -13.5798 C   0  0  0  0  0  0  0  0  0  0  0  0
   15.9548   -8.0046  -14.3289 O   0  0  0  0  0  0  0  0  0  0  0  0
   20.9595   -8.3627  -14.3931 O   0  0  0  0  0  0  0  0  0  0  0  0
   15.5042   -7.2816   -7.5026 N   0  0  0  0  0  0  0  0  0  0  0  0
   14.5511   -6.4735   -8.2015 C   0  0  0  0  0  0  0  0  0  0  0  0
   13.7217   -5.8584   -7.4876 O   0  0  0  0  0  0  0  0  0  0  0  0
   14.5487   -6.3725   -9.6844 C   0  0  0  0  0  0  0  0  0  0  0  0
   15.6572   -7.2548  -10.2088 C   0  0  0  0  0  0  0  0  0  0  0  0
   15.7240   -7.2459  -11.7173 C   0  0  2  0  0  0  0  0  0  0  0  0
   16.7591   -8.1075  -12.2244 N   0  0  0  0  0  0  0  0  0  0  0  0
   15.8188   -5.8909  -12.2748 C   0  0  0  0  0  0  0  0  0  0  0  0
   14.8057   -5.1947  -12.5562 O   0  0  0  0  0  0  0  0  0  0  0  0
   17.0499   -5.3009  -12.5228 O   0  0  0  0  0  0  0  0  0  0  0  0
  2  1  1  1
  2  3  1  0
  4  5  1  6
  4  6  1  0
  4  2  1  0
  6  8  1  0
  7  6  2  0
  8  9  1  0
  9 10  1  6
 10 11  1  0
 11 15  1  0
 11 12  2  0
 13 14  2  0
 13  9  1  0
 16 17  1  0
 17 19  1  0
 18 17  2  0
 19 20  1  0
 21 22  1  0
 21 20  1  1
 22 13  1  0
 23 21  1  0
 24 23  2  0
 25 23  1  0
M  END
$$$$
