VDQ.pdb
     RDKit          3D

 25 24  0  0  1  0  0  0  0  0999 V2000
   13.1834  -13.8438  -15.0121 C   0  0  0  0  0  0  0  0  0  0  0  0
   14.0514  -12.7880  -14.3617 C   0  0  2  0  0  0  0  0  0  0  0  0
   13.5079  -11.4097  -14.4519 C   0  0  0  0  0  0  0  0  0  0  0  0
   15.4774  -12.8655  -14.9137 C   0  0  2  0  0  0  0  0  0  0  0  0
   16.0091  -14.1165  -14.3394 N   0  0  0  0  0  0  0  0  0  0  0  0
   16.2435  -11.7486  -14.2966 C   0  0  0  0  0  0  0  0  0  0  0  0
   16.6026  -11.8604  -13.0924 O   0  0  0  0  0  0  0  0  0  0  0  0
   16.6036  -10.5695  -14.9644 N   0  0  0  0  0  0  0  0  0  0  0  0
   17.3794   -9.5531  -14.2595 C   0  0  1  0  0  0  0  0  0  0  0  0
   18.5496   -9.1242  -15.1180 C   0  0  0  0  0  0  0  0  0  0  0  0
   19.3586   -8.1145  -14.4289 C   0  0  0  0  0  0  0  0  0  0  0  0
   20.0523   -7.2104  -14.9471 O   0  0  0  0  0  0  0  0  0  0  0  0
   16.5016   -8.3945  -13.9377 C   0  0  0  0  0  0  0  0  0  0  0  0
   15.7618   -7.8182  -14.7949 O   0  0  0  0  0  0  0  0  0  0  0  0
   19.4098   -8.0990  -13.0031 O   0  0  0  0  0  0  0  0  0  0  0  0
   15.4892   -7.6798   -8.3542 N   0  0  0  0  0  0  0  0  0  0  0  0
   16.2757   -6.5350   -8.7017 C   0  0  0  0  0  0  0  0  0  0  0  0
   17.0440   -6.1025   -7.8081 O   0  0  0  0  0  0  0  0  0  0  0  0
   16.1840   -5.9006  -10.0428 C   0  0  0  0  0  0  0  0  0  0  0  0
   15.1643   -6.6706  -10.8488 C   0  0  0  0  0  0  0  0  0  0  0  0
   15.5189   -6.7178  -12.3158 C   0  0  2  0  0  0  0  0  0  0  0  0
   16.3984   -7.8123  -12.6313 N   0  0  0  0  0  0  0  0  0  0  0  0
   16.0363   -5.4387  -12.8176 C   0  0  0  0  0  0  0  0  0  0  0  0
   17.2117   -5.2999  -13.2530 O   0  0  0  0  0  0  0  0  0  0  0  0
   15.2423   -4.3009  -12.8375 O   0  0  0  0  0  0  0  0  0  0  0  0
  2  1  1  6
  2  3  1  0
  4  5  1  1
  4  6  1  0
  4  2  1  0
  6  8  1  0
  7  6  2  0
  8  9  1  0
  9 10  1  6
 10 11  1  0
 11 15  1  0
 11 12  2  0
 13 14  2  0
 13  9  1  0
 16 17  1  0
 17 19  1  0
 18 17  2  0
 19 20  1  0
 21 22  1  0
 21 20  1  1
 22 13  1  0
 23 21  1  0
 24 23  2  0
 25 23  1  0
M  END
$$$$
