VDQ.pdb
     RDKit          3D

 25 24  0  0  1  0  0  0  0  0999 V2000
   17.5197  -13.2392  -16.8487 C   0  0  0  0  0  0  0  0  0  0  0  0
   18.3403  -13.0005  -18.0980 C   0  0  2  0  0  0  0  0  0  0  0  0
   18.2169  -14.0671  -19.1230 C   0  0  0  0  0  0  0  0  0  0  0  0
   19.8037  -12.7469  -17.7263 C   0  0  2  0  0  0  0  0  0  0  0  0
   20.2425  -14.0253  -17.1342 N   0  0  0  0  0  0  0  0  0  0  0  0
   19.8054  -11.7410  -16.6293 C   0  0  0  0  0  0  0  0  0  0  0  0
   19.8124  -12.1533  -15.4370 O   0  0  0  0  0  0  0  0  0  0  0  0
   19.8044  -10.3528  -16.8259 N   0  0  0  0  0  0  0  0  0  0  0  0
   19.7593   -9.4635  -15.6687 C   0  0  1  0  0  0  0  0  0  0  0  0
   20.7429   -8.3300  -15.8633 C   0  0  0  0  0  0  0  0  0  0  0  0
   20.7307   -7.4260  -14.7094 C   0  0  0  0  0  0  0  0  0  0  0  0
   20.6558   -6.1764  -14.7211 O   0  0  0  0  0  0  0  0  0  0  0  0
   18.3749   -8.9441  -15.4966 C   0  0  0  0  0  0  0  0  0  0  0  0
   17.6516   -8.5472  -16.4629 O   0  0  0  0  0  0  0  0  0  0  0  0
   20.8105   -7.9605  -13.3889 O   0  0  0  0  0  0  0  0  0  0  0  0
   14.2688  -10.2352  -10.9622 N   0  0  0  0  0  0  0  0  0  0  0  0
   13.5603   -9.2554  -11.7289 C   0  0  0  0  0  0  0  0  0  0  0  0
   12.3969   -8.9878  -11.3405 O   0  0  0  0  0  0  0  0  0  0  0  0
   14.1711   -8.5972  -12.9134 C   0  0  0  0  0  0  0  0  0  0  0  0
   15.5823   -9.1177  -13.0539 C   0  0  0  0  0  0  0  0  0  0  0  0
   16.3798   -8.3291  -14.0650 C   0  0  2  0  0  0  0  0  0  0  0  0
   17.7153   -8.8403  -14.2276 N   0  0  0  0  0  0  0  0  0  0  0  0
   16.3762   -6.8864  -13.7926 C   0  0  0  0  0  0  0  0  0  0  0  0
   17.3379   -6.2938  -13.2319 O   0  0  0  0  0  0  0  0  0  0  0  0
   15.2950   -6.0916  -14.1456 O   0  0  0  0  0  0  0  0  0  0  0  0
  2  1  1  1
  2  3  1  0
  4  5  1  1
  4  6  1  0
  4  2  1  0
  6  8  1  0
  7  6  2  0
  8  9  1  0
  9 10  1  6
 10 11  1  0
 11 15  1  0
 11 12  2  0
 13 14  2  0
 13  9  1  0
 16 17  1  0
 17 19  1  0
 18 17  2  0
 19 20  1  0
 21 22  1  0
 21 20  1  1
 22 13  1  0
 23 21  1  0
 24 23  2  0
 25 23  1  0
M  END
$$$$
