VDQ.pdb
     RDKit          3D

 25 24  0  0  1  0  0  0  0  0999 V2000
   17.8515  -13.2767  -16.3177 C   0  0  0  0  0  0  0  0  0  0  0  0
   17.8070  -13.6482  -17.7843 C   0  0  2  0  0  0  0  0  0  0  0  0
   16.8094  -14.6950  -18.1194 C   0  0  0  0  0  0  0  0  0  0  0  0
   19.2065  -14.0306  -18.2733 C   0  0  2  0  0  0  0  0  0  0  0  0
   19.5528  -15.2115  -17.4591 N   0  0  0  0  0  0  0  0  0  0  0  0
   20.1260  -12.9364  -17.8581 C   0  0  0  0  0  0  0  0  0  0  0  0
   20.7805  -13.0759  -16.7886 O   0  0  0  0  0  0  0  0  0  0  0  0
   20.3241  -11.7502  -18.5789 N   0  0  0  0  0  0  0  0  0  0  0  0
   21.2246  -10.7300  -18.0496 C   0  0  1  0  0  0  0  0  0  0  0  0
   21.9585  -10.0614  -19.1918 C   0  0  0  0  0  0  0  0  0  0  0  0
   22.8918   -9.0487  -18.6893 C   0  0  0  0  0  0  0  0  0  0  0  0
   23.6451   -9.1342  -17.6931 O   0  0  0  0  0  0  0  0  0  0  0  0
   20.4411   -9.7364  -17.2653 C   0  0  0  0  0  0  0  0  0  0  0  0
   19.2504   -9.3998  -17.5535 O   0  0  0  0  0  0  0  0  0  0  0  0
   23.0088   -7.7960  -19.3623 O   0  0  0  0  0  0  0  0  0  0  0  0
   18.1582   -9.9073  -12.0950 N   0  0  0  0  0  0  0  0  0  0  0  0
   17.9403   -8.5092  -12.3132 C   0  0  0  0  0  0  0  0  0  0  0  0
   17.2042   -7.9294  -11.4779 O   0  0  0  0  0  0  0  0  0  0  0  0
   18.5523   -7.7920  -13.4623 C   0  0  0  0  0  0  0  0  0  0  0  0
   19.4690   -8.7589  -14.1745 C   0  0  0  0  0  0  0  0  0  0  0  0
   20.1790   -8.1134  -15.3404 C   0  0  2  0  0  0  0  0  0  0  0  0
   20.9462   -9.0601  -16.1060 N   0  0  0  0  0  0  0  0  0  0  0  0
   20.9835   -6.9510  -14.9440 C   0  0  0  0  0  0  0  0  0  0  0  0
   20.4795   -5.8201  -14.7044 O   0  0  0  0  0  0  0  0  0  0  0  0
   22.3616   -7.0429  -14.8115 O   0  0  0  0  0  0  0  0  0  0  0  0
  2  1  1  1
  2  3  1  0
  4  5  1  1
  4  6  1  0
  4  2  1  0
  6  8  1  0
  7  6  2  0
  8  9  1  0
  9 10  1  6
 10 11  1  0
 11 15  1  0
 11 12  2  0
 13 14  2  0
 13  9  1  0
 16 17  1  0
 17 19  1  0
 18 17  2  0
 19 20  1  0
 21 22  1  0
 21 20  1  1
 22 13  1  0
 23 21  1  0
 24 23  2  0
 25 23  1  0
M  END
$$$$
