VDQ.pdb
     RDKit          3D

 25 24  0  0  1  0  0  0  0  0999 V2000
   23.4189  -15.7913  -15.4085 C   0  0  0  0  0  0  0  0  0  0  0  0
   22.8381  -14.4518  -15.8079 C   0  0  2  0  0  0  0  0  0  0  0  0
   23.4609  -13.2886  -15.1279 C   0  0  0  0  0  0  0  0  0  0  0  0
   21.3182  -14.4609  -15.6238 C   0  0  2  0  0  0  0  0  0  0  0  0
   20.8540  -15.4807  -16.5839 N   0  0  0  0  0  0  0  0  0  0  0  0
   20.8135  -13.1485  -16.1117 C   0  0  0  0  0  0  0  0  0  0  0  0
   20.9150  -12.8860  -17.3415 O   0  0  0  0  0  0  0  0  0  0  0  0
   20.2224  -12.1730  -15.2963 N   0  0  0  0  0  0  0  0  0  0  0  0
   19.8395  -10.8886  -15.8754 C   0  0  1  0  0  0  0  0  0  0  0  0
   18.4102  -10.5681  -15.4950 C   0  0  0  0  0  0  0  0  0  0  0  0
   18.0048   -9.2692  -16.0405 C   0  0  0  0  0  0  0  0  0  0  0  0
   17.9293   -8.1775  -15.4327 O   0  0  0  0  0  0  0  0  0  0  0  0
   20.7694   -9.8307  -15.3932 C   0  0  0  0  0  0  0  0  0  0  0  0
   21.1681   -9.7455  -14.1899 O   0  0  0  0  0  0  0  0  0  0  0  0
   17.6398   -9.1603  -17.4155 O   0  0  0  0  0  0  0  0  0  0  0  0
   25.9156   -7.8334  -17.9124 N   0  0  0  0  0  0  0  0  0  0  0  0
   24.7455   -7.4061  -18.6181 C   0  0  0  0  0  0  0  0  0  0  0  0
   24.9164   -7.0694  -19.8153 O   0  0  0  0  0  0  0  0  0  0  0  0
   23.4100   -7.3658  -17.9668 C   0  0  0  0  0  0  0  0  0  0  0  0
   23.5653   -7.9000  -16.5622 C   0  0  0  0  0  0  0  0  0  0  0  0
   22.2734   -7.8324  -15.7834 C   0  0  2  0  0  0  0  0  0  0  0  0
   21.3115   -8.8033  -16.2340 N   0  0  0  0  0  0  0  0  0  0  0  0
   21.7052   -6.4793  -15.7400 C   0  0  0  0  0  0  0  0  0  0  0  0
   22.2775   -5.5154  -15.1622 O   0  0  0  0  0  0  0  0  0  0  0  0
   20.4896   -6.1911  -16.3437 O   0  0  0  0  0  0  0  0  0  0  0  0
  2  1  1  1
  2  3  1  0
  4  5  1  6
  4  6  1  0
  4  2  1  0
  6  8  1  0
  7  6  2  0
  8  9  1  0
  9 10  1  1
 10 11  1  0
 11 15  1  0
 11 12  2  0
 13 14  2  0
 13  9  1  0
 16 17  1  0
 17 19  1  0
 18 17  2  0
 19 20  1  0
 21 22  1  0
 21 20  1  6
 22 13  1  0
 23 21  1  0
 24 23  2  0
 25 23  1  0
M  END
$$$$
