CQM.pdb
     RDKit          3D

 24 23  0  0  1  0  0  0  0  0999 V2000
    7.6719  -15.0573   17.4531 N   0  0  0  0  0  0  0  0  0  0  0  0
    8.3623  -14.4419   18.5657 C   0  0  1  0  0  0  0  0  0  0  0  0
    7.8833  -13.0333   18.8312 C   0  0  0  0  0  0  0  0  0  0  0  0
    8.7486  -12.3734   20.2832 S   0  0  0  0  0  0  0  0  0  0  0  0
    8.2844  -15.3197   19.7311 C   0  0  0  0  0  0  0  0  0  0  0  0
    7.2116  -15.8143   20.1762 O   0  0  0  0  0  0  0  0  0  0  0  0
   12.7223  -19.1951   21.2213 N   0  0  0  0  0  0  0  0  0  0  0  0
   12.0411  -19.1980   22.4764 C   0  0  0  0  0  0  0  0  0  0  0  0
   12.5004  -19.9409   23.3767 O   0  0  0  0  0  0  0  0  0  0  0  0
   10.8550  -18.3410   22.6449 C   0  0  0  0  0  0  0  0  0  0  0  0
   10.7157  -17.3570   21.5152 C   0  0  0  0  0  0  0  0  0  0  0  0
    9.4731  -16.5080   21.6037 C   0  0  2  0  0  0  0  0  0  0  0  0
    9.4703  -15.6567   20.4284 N   0  0  0  0  0  0  0  0  0  0  0  0
    9.5328  -15.7068   22.8561 C   0  0  0  0  0  0  0  0  0  0  0  0
   10.4443  -14.8512   22.9554 O   0  0  0  0  0  0  0  0  0  0  0  0
    6.0934  -10.6134   26.0829 C   0  0  0  0  0  0  0  0  0  0  0  0
    5.8775  -12.3239   26.5877 S   0  0  0  0  0  0  0  0  0  0  0  0
    7.3447  -13.3136   26.4310 C   0  0  0  0  0  0  0  0  0  0  0  0
    7.4603  -14.2236   25.2836 C   0  0  0  0  0  0  0  0  0  0  0  0
    8.6913  -15.0466   25.1584 C   0  0  2  0  0  0  0  0  0  0  0  0
    8.6235  -15.8607   23.9264 N   0  0  0  0  0  0  0  0  0  0  0  0
    9.0689  -15.8940   26.2937 C   0  0  0  0  0  0  0  0  0  0  0  0
    9.0677  -17.1374   26.3234 O   0  0  0  0  0  0  0  0  0  0  0  0
    9.4885  -15.2956   27.5157 O   0  0  0  0  0  0  0  0  0  0  0  0
  2  1  1  6
  3  2  1  0
  3  4  1  0
  5  2  1  0
  5  6  2  0
  7  8  1  0
  8  9  2  0
  8 10  1  0
 10 11  1  0
 12 11  1  6
 12 13  1  0
 13  5  1  0
 14 12  1  0
 15 14  2  0
 16 17  1  0
 17 18  1  0
 18 19  1  0
 20 19  1  1
 20 22  1  0
 20 21  1  0
 21 14  1  0
 22 24  1  0
 23 22  2  0
M  END
$$$$
