CQM.pdb
     RDKit          3D

 24 23  0  0  1  0  0  0  0  0999 V2000
    7.5534  -14.7990   17.8942 N   0  0  0  0  0  0  0  0  0  0  0  0
    8.3307  -14.3286   19.0202 C   0  0  1  0  0  0  0  0  0  0  0  0
    7.9154  -12.9462   19.4680 C   0  0  0  0  0  0  0  0  0  0  0  0
    8.7602  -11.7093   18.4438 S   0  0  0  0  0  0  0  0  0  0  0  0
    8.2957  -15.3279   20.0856 C   0  0  0  0  0  0  0  0  0  0  0  0
    7.2539  -15.9408   20.4495 O   0  0  0  0  0  0  0  0  0  0  0  0
   12.9131  -19.0647   21.3078 N   0  0  0  0  0  0  0  0  0  0  0  0
   12.1588  -19.2940   22.4986 C   0  0  0  0  0  0  0  0  0  0  0  0
   12.5489  -20.2141   23.2565 O   0  0  0  0  0  0  0  0  0  0  0  0
   10.9825  -18.4501   22.7699 C   0  0  0  0  0  0  0  0  0  0  0  0
   10.7705  -17.4276   21.6867 C   0  0  0  0  0  0  0  0  0  0  0  0
    9.5277  -16.5956   21.8764 C   0  0  2  0  0  0  0  0  0  0  0  0
    9.4902  -15.6524   20.7741 N   0  0  0  0  0  0  0  0  0  0  0  0
    9.6183  -15.8976   23.1874 C   0  0  0  0  0  0  0  0  0  0  0  0
   10.5501  -15.0730   23.3432 O   0  0  0  0  0  0  0  0  0  0  0  0
    6.7471  -10.9459   26.1226 C   0  0  0  0  0  0  0  0  0  0  0  0
    6.3526  -12.4229   27.0662 S   0  0  0  0  0  0  0  0  0  0  0  0
    7.5788  -13.7034   26.9490 C   0  0  0  0  0  0  0  0  0  0  0  0
    7.7185  -14.4296   25.6798 C   0  0  0  0  0  0  0  0  0  0  0  0
    8.8238  -15.4143   25.5496 C   0  0  2  0  0  0  0  0  0  0  0  0
    8.7164  -16.1157   24.2528 N   0  0  0  0  0  0  0  0  0  0  0  0
    9.0047  -16.3900   26.6287 C   0  0  0  0  0  0  0  0  0  0  0  0
    9.0927  -16.1430   27.8446 O   0  0  0  0  0  0  0  0  0  0  0  0
    9.0968  -17.7773   26.3215 O   0  0  0  0  0  0  0  0  0  0  0  0
  2  1  1  6
  3  2  1  0
  3  4  1  0
  5  2  1  0
  5  6  2  0
  7  8  1  0
  8  9  2  0
  8 10  1  0
 10 11  1  0
 12 11  1  6
 12 13  1  0
 13  5  1  0
 14 12  1  0
 15 14  2  0
 16 17  1  0
 17 18  1  0
 18 19  1  0
 20 19  1  1
 20 22  1  0
 20 21  1  0
 21 14  1  0
 22 24  1  0
 23 22  2  0
M  END
$$$$
