CQM.pdb
     RDKit          3D

 24 23  0  0  1  0  0  0  0  0999 V2000
    7.6322  -14.6449   17.5723 N   0  0  0  0  0  0  0  0  0  0  0  0
    8.3229  -14.1765   18.7542 C   0  0  1  0  0  0  0  0  0  0  0  0
    7.8831  -12.7904   19.1656 C   0  0  0  0  0  0  0  0  0  0  0  0
    8.8545  -12.2591   20.6031 S   0  0  0  0  0  0  0  0  0  0  0  0
    8.1991  -15.1727   19.8158 C   0  0  0  0  0  0  0  0  0  0  0  0
    7.1095  -15.7069   20.1639 O   0  0  0  0  0  0  0  0  0  0  0  0
   12.4648  -19.9918   23.1183 N   0  0  0  0  0  0  0  0  0  0  0  0
   11.6438  -19.5644   22.0307 C   0  0  0  0  0  0  0  0  0  0  0  0
   11.9433  -19.9829   20.8869 O   0  0  0  0  0  0  0  0  0  0  0  0
   10.5062  -18.6702   22.3060 C   0  0  0  0  0  0  0  0  0  0  0  0
   10.4765  -17.5014   21.3589 C   0  0  0  0  0  0  0  0  0  0  0  0
    9.3149  -16.5680   21.5878 C   0  0  2  0  0  0  0  0  0  0  0  0
    9.3567  -15.5873   20.5189 N   0  0  0  0  0  0  0  0  0  0  0  0
    9.4753  -15.9273   22.9211 C   0  0  0  0  0  0  0  0  0  0  0  0
   10.4963  -15.2236   23.1083 O   0  0  0  0  0  0  0  0  0  0  0  0
    6.1888  -10.7848   26.5738 C   0  0  0  0  0  0  0  0  0  0  0  0
    6.0494  -12.5730   26.4734 S   0  0  0  0  0  0  0  0  0  0  0  0
    7.5152  -13.3790   25.8744 C   0  0  0  0  0  0  0  0  0  0  0  0
    7.5329  -14.8462   25.8049 C   0  0  0  0  0  0  0  0  0  0  0  0
    8.7706  -15.5138   25.3247 C   0  0  2  0  0  0  0  0  0  0  0  0
    8.5446  -16.0710   23.9743 N   0  0  0  0  0  0  0  0  0  0  0  0
    9.3803  -16.5312   26.1863 C   0  0  0  0  0  0  0  0  0  0  0  0
   10.0018  -16.3306   27.2449 O   0  0  0  0  0  0  0  0  0  0  0  0
    9.2882  -17.9073   25.8322 O   0  0  0  0  0  0  0  0  0  0  0  0
  2  1  1  6
  3  2  1  0
  3  4  1  0
  5  2  1  0
  5  6  2  0
  7  8  1  0
  8  9  2  0
  8 10  1  0
 10 11  1  0
 12 11  1  6
 12 13  1  0
 13  5  1  0
 14 12  1  0
 15 14  2  0
 16 17  1  0
 17 18  1  0
 18 19  1  0
 20 19  1  1
 20 22  1  0
 20 21  1  0
 21 14  1  0
 22 24  1  0
 23 22  2  0
M  END
$$$$
