CQM.pdb
     RDKit          3D

 24 23  0  0  1  0  0  0  0  0999 V2000
    5.3627  -14.9191   25.5959 N   0  0  0  0  0  0  0  0  0  0  0  0
    6.4093  -14.3028   24.8098 C   0  0  1  0  0  0  0  0  0  0  0  0
    6.9532  -13.0504   25.4578 C   0  0  0  0  0  0  0  0  0  0  0  0
    5.6002  -11.8638   25.6897 S   0  0  0  0  0  0  0  0  0  0  0  0
    7.4335  -15.2976   24.4998 C   0  0  0  0  0  0  0  0  0  0  0  0
    7.7889  -16.2188   25.2864 O   0  0  0  0  0  0  0  0  0  0  0  0
    8.8817  -17.3050   19.3166 N   0  0  0  0  0  0  0  0  0  0  0  0
   10.2117  -17.4928   19.8015 C   0  0  0  0  0  0  0  0  0  0  0  0
   10.9198  -18.3478   19.2176 O   0  0  0  0  0  0  0  0  0  0  0  0
   10.6745  -16.6842   20.9423 C   0  0  0  0  0  0  0  0  0  0  0  0
    9.5772  -15.8091   21.4845 C   0  0  0  0  0  0  0  0  0  0  0  0
    9.0943  -16.2230   22.8513 C   0  0  2  0  0  0  0  0  0  0  0  0
    8.0888  -15.2533   23.2449 N   0  0  0  0  0  0  0  0  0  0  0  0
   10.2516  -16.2174   23.7864 C   0  0  0  0  0  0  0  0  0  0  0  0
   11.2177  -15.4669   23.5105 O   0  0  0  0  0  0  0  0  0  0  0  0
    9.5885  -13.3276   28.8322 C   0  0  0  0  0  0  0  0  0  0  0  0
   10.8150  -14.4708   29.4775 S   0  0  0  0  0  0  0  0  0  0  0  0
   11.5072  -15.5546   28.2515 C   0  0  0  0  0  0  0  0  0  0  0  0
   10.7191  -15.8490   27.0472 C   0  0  0  0  0  0  0  0  0  0  0  0
   11.2994  -16.7666   26.0326 C   0  0  2  0  0  0  0  0  0  0  0  0
   10.3147  -17.0067   24.9565 N   0  0  0  0  0  0  0  0  0  0  0  0
   11.8494  -18.0439   26.4967 C   0  0  0  0  0  0  0  0  0  0  0  0
   11.4098  -19.1782   26.2380 O   0  0  0  0  0  0  0  0  0  0  0  0
   13.0027  -18.0570   27.3318 O   0  0  0  0  0  0  0  0  0  0  0  0
  2  1  1  1
  3  2  1  0
  3  4  1  0
  5  2  1  0
  5  6  2  0
  7  8  1  0
  8  9  2  0
  8 10  1  0
 10 11  1  0
 12 11  1  6
 12 13  1  0
 13  5  1  0
 14 12  1  0
 15 14  2  0
 16 17  1  0
 17 18  1  0
 18 19  1  0
 20 19  1  1
 20 22  1  0
 20 21  1  0
 21 14  1  0
 22 24  1  0
 23 22  2  0
M  END
$$$$
