CQM.pdb
     RDKit          3D

 24 23  0  0  1  0  0  0  0  0999 V2000
    9.7027  -14.1005   18.7774 N   0  0  0  0  0  0  0  0  0  0  0  0
    8.4679  -13.8142   19.4750 C   0  0  1  0  0  0  0  0  0  0  0  0
    7.2911  -13.6933   18.5344 C   0  0  0  0  0  0  0  0  0  0  0  0
    7.5704  -12.2993   17.4069 S   0  0  0  0  0  0  0  0  0  0  0  0
    8.2725  -14.7961   20.5392 C   0  0  0  0  0  0  0  0  0  0  0  0
    7.2322  -14.8744   21.2500 O   0  0  0  0  0  0  0  0  0  0  0  0
    9.5346  -20.2699   21.9160 N   0  0  0  0  0  0  0  0  0  0  0  0
    9.7811  -19.7971   20.5912 C   0  0  0  0  0  0  0  0  0  0  0  0
    9.6018  -20.6070   19.6504 O   0  0  0  0  0  0  0  0  0  0  0  0
   10.2243  -18.4051   20.4029 C   0  0  0  0  0  0  0  0  0  0  0  0
   10.3271  -17.6727   21.7132 C   0  0  0  0  0  0  0  0  0  0  0  0
    9.2280  -16.6636   21.9289 C   0  0  2  0  0  0  0  0  0  0  0  0
    9.2967  -15.7343   20.8163 N   0  0  0  0  0  0  0  0  0  0  0  0
    9.4617  -15.9762   23.2276 C   0  0  0  0  0  0  0  0  0  0  0  0
   10.4366  -15.1910   23.3021 O   0  0  0  0  0  0  0  0  0  0  0  0
    6.7269  -10.7884   26.3829 C   0  0  0  0  0  0  0  0  0  0  0  0
    6.3220  -12.3856   27.0989 S   0  0  0  0  0  0  0  0  0  0  0  0
    7.6214  -13.5894   26.9597 C   0  0  0  0  0  0  0  0  0  0  0  0
    7.6767  -14.4289   25.7555 C   0  0  0  0  0  0  0  0  0  0  0  0
    8.8139  -15.3739   25.6072 C   0  0  2  0  0  0  0  0  0  0  0  0
    8.6484  -16.1624   24.3679 N   0  0  0  0  0  0  0  0  0  0  0  0
    9.1135  -16.2688   26.7291 C   0  0  0  0  0  0  0  0  0  0  0  0
    9.2307  -15.9457   27.9245 O   0  0  0  0  0  0  0  0  0  0  0  0
    9.3012  -17.6607   26.4946 O   0  0  0  0  0  0  0  0  0  0  0  0
  2  1  1  6
  3  2  1  0
  3  4  1  0
  5  2  1  0
  5  6  2  0
  7  8  1  0
  8  9  2  0
  8 10  1  0
 10 11  1  0
 12 11  1  6
 12 13  1  0
 13  5  1  0
 14 12  1  0
 15 14  2  0
 16 17  1  0
 17 18  1  0
 18 19  1  0
 20 19  1  1
 20 22  1  0
 20 21  1  0
 21 14  1  0
 22 24  1  0
 23 22  2  0
M  END
$$$$
