CQM.pdb
     RDKit          3D

 24 23  0  0  1  0  0  0  0  0999 V2000
    7.3566  -15.7394   18.6812 N   0  0  0  0  0  0  0  0  0  0  0  0
    7.7827  -14.9248   19.7984 C   0  0  1  0  0  0  0  0  0  0  0  0
    7.5387  -13.4522   19.5622 C   0  0  0  0  0  0  0  0  0  0  0  0
    8.8209  -12.8063   18.4525 S   0  0  0  0  0  0  0  0  0  0  0  0
    7.1777  -15.4321   21.0278 C   0  0  0  0  0  0  0  0  0  0  0  0
    5.9809  -15.2206   21.3692 O   0  0  0  0  0  0  0  0  0  0  0  0
    7.6978  -20.8734   23.2722 N   0  0  0  0  0  0  0  0  0  0  0  0
    7.3079  -20.2450   24.4939 C   0  0  0  0  0  0  0  0  0  0  0  0
    7.0612  -20.9926   25.4703 O   0  0  0  0  0  0  0  0  0  0  0  0
    7.2189  -18.7755   24.5420 C   0  0  0  0  0  0  0  0  0  0  0  0
    7.5232  -18.1564   23.2049 C   0  0  0  0  0  0  0  0  0  0  0  0
    7.4688  -16.6498   23.2105 C   0  0  2  0  0  0  0  0  0  0  0  0
    7.9568  -16.2144   21.9150 N   0  0  0  0  0  0  0  0  0  0  0  0
    8.3309  -16.1470   24.3141 C   0  0  0  0  0  0  0  0  0  0  0  0
    9.5720  -16.2711   24.1844 O   0  0  0  0  0  0  0  0  0  0  0  0
    5.4584  -11.2627   26.7596 C   0  0  0  0  0  0  0  0  0  0  0  0
    7.1943  -11.2400   27.2215 S   0  0  0  0  0  0  0  0  0  0  0  0
    8.1349  -12.5949   26.5610 C   0  0  0  0  0  0  0  0  0  0  0  0
    8.0742  -13.8934   27.2454 C   0  0  0  0  0  0  0  0  0  0  0  0
    8.6972  -15.0686   26.5830 C   0  0  2  0  0  0  0  0  0  0  0  0
    7.8257  -15.5434   25.4875 N   0  0  0  0  0  0  0  0  0  0  0  0
    9.0967  -16.1998   27.4257 C   0  0  0  0  0  0  0  0  0  0  0  0
    8.4988  -17.2841   27.5435 O   0  0  0  0  0  0  0  0  0  0  0  0
   10.2788  -16.1128   28.2148 O   0  0  0  0  0  0  0  0  0  0  0  0
  2  1  1  6
  3  2  1  0
  3  4  1  0
  5  2  1  0
  5  6  2  0
  7  8  1  0
  8  9  2  0
  8 10  1  0
 10 11  1  0
 12 11  1  6
 12 13  1  0
 13  5  1  0
 14 12  1  0
 15 14  2  0
 16 17  1  0
 17 18  1  0
 18 19  1  0
 20 19  1  1
 20 22  1  0
 20 21  1  0
 21 14  1  0
 22 24  1  0
 23 22  2  0
M  END
$$$$
