CQM.pdb
     RDKit          3D

 24 23  0  0  1  0  0  0  0  0999 V2000
    7.1577  -13.8823   18.4088 N   0  0  0  0  0  0  0  0  0  0  0  0
    8.4758  -14.0481   18.9819 C   0  0  1  0  0  0  0  0  0  0  0  0
    9.1693  -12.7267   19.2204 C   0  0  0  0  0  0  0  0  0  0  0  0
    8.1969  -11.7476   20.3987 S   0  0  0  0  0  0  0  0  0  0  0  0
    8.3849  -14.8889   20.1734 C   0  0  0  0  0  0  0  0  0  0  0  0
    7.3444  -15.0111   20.8778 O   0  0  0  0  0  0  0  0  0  0  0  0
   13.2528  -18.6302   22.2344 N   0  0  0  0  0  0  0  0  0  0  0  0
   12.0246  -19.3366   22.4135 C   0  0  0  0  0  0  0  0  0  0  0  0
   12.0837  -20.5888   22.4539 O   0  0  0  0  0  0  0  0  0  0  0  0
   10.7738  -18.5692   22.5406 C   0  0  0  0  0  0  0  0  0  0  0  0
   10.7107  -17.4411   21.5470 C   0  0  0  0  0  0  0  0  0  0  0  0
    9.4690  -16.5953   21.6717 C   0  0  2  0  0  0  0  0  0  0  0  0
    9.5190  -15.6270   20.5919 N   0  0  0  0  0  0  0  0  0  0  0  0
    9.4796  -15.9285   23.0018 C   0  0  0  0  0  0  0  0  0  0  0  0
   10.2086  -14.9174   23.1390 O   0  0  0  0  0  0  0  0  0  0  0  0
    7.8736  -11.3485   27.2188 C   0  0  0  0  0  0  0  0  0  0  0  0
    6.7062  -12.2937   26.2333 S   0  0  0  0  0  0  0  0  0  0  0  0
    6.8394  -14.0526   26.4466 C   0  0  0  0  0  0  0  0  0  0  0  0
    7.2283  -14.8738   25.2924 C   0  0  0  0  0  0  0  0  0  0  0  0
    8.5408  -15.5694   25.3331 C   0  0  2  0  0  0  0  0  0  0  0  0
    8.7172  -16.3732   24.1051 N   0  0  0  0  0  0  0  0  0  0  0  0
    8.8483  -16.3871   26.5105 C   0  0  0  0  0  0  0  0  0  0  0  0
    9.0863  -15.9731   27.6590 O   0  0  0  0  0  0  0  0  0  0  0  0
    8.8952  -17.8056   26.3954 O   0  0  0  0  0  0  0  0  0  0  0  0
  2  1  1  1
  3  2  1  0
  3  4  1  0
  5  2  1  0
  5  6  2  0
  7  8  1  0
  8  9  2  0
  8 10  1  0
 10 11  1  0
 12 11  1  1
 12 13  1  0
 13  5  1  0
 14 12  1  0
 15 14  2  0
 16 17  1  0
 17 18  1  0
 18 19  1  0
 20 19  1  1
 20 22  1  0
 20 21  1  0
 21 14  1  0
 22 24  1  0
 23 22  2  0
M  END
$$$$
