CQM.pdb
     RDKit          3D

 24 23  0  0  1  0  0  0  0  0999 V2000
    7.3313  -14.9339   18.2438 N   0  0  0  0  0  0  0  0  0  0  0  0
    8.0224  -14.3186   19.3560 C   0  0  1  0  0  0  0  0  0  0  0  0
    7.4162  -12.9901   19.7453 C   0  0  0  0  0  0  0  0  0  0  0  0
    8.3461  -12.2969   21.1408 S   0  0  0  0  0  0  0  0  0  0  0  0
    8.1106  -15.2716   20.4601 C   0  0  0  0  0  0  0  0  0  0  0  0
    7.1369  -15.9490   20.8920 O   0  0  0  0  0  0  0  0  0  0  0  0
   11.7832  -19.6752   22.4483 N   0  0  0  0  0  0  0  0  0  0  0  0
   11.0453  -19.5422   21.2329 C   0  0  0  0  0  0  0  0  0  0  0  0
   10.8644  -20.5819   20.5550 O   0  0  0  0  0  0  0  0  0  0  0  0
   10.5426  -18.2126   20.8468 C   0  0  0  0  0  0  0  0  0  0  0  0
   10.7413  -17.2032   21.9447 C   0  0  0  0  0  0  0  0  0  0  0  0
    9.5150  -16.3749   22.2327 C   0  0  2  0  0  0  0  0  0  0  0  0
    9.3539  -15.4714   21.1085 N   0  0  0  0  0  0  0  0  0  0  0  0
    9.7314  -15.6306   23.5028 C   0  0  0  0  0  0  0  0  0  0  0  0
   10.0953  -14.4334   23.4196 O   0  0  0  0  0  0  0  0  0  0  0  0
    6.8287  -11.4897   25.2465 C   0  0  0  0  0  0  0  0  0  0  0  0
    6.7268  -12.3291   26.8316 S   0  0  0  0  0  0  0  0  0  0  0  0
    7.9227  -13.6265   27.0396 C   0  0  0  0  0  0  0  0  0  0  0  0
    8.3261  -14.4069   25.8622 C   0  0  0  0  0  0  0  0  0  0  0  0
    9.4333  -15.3867   26.0120 C   0  0  2  0  0  0  0  0  0  0  0  0
    9.5491  -16.1998   24.7830 N   0  0  0  0  0  0  0  0  0  0  0  0
    9.4207  -16.2624   27.1877 C   0  0  0  0  0  0  0  0  0  0  0  0
    9.3694  -15.9049   28.3780 O   0  0  0  0  0  0  0  0  0  0  0  0
    9.4706  -17.6754   27.0193 O   0  0  0  0  0  0  0  0  0  0  0  0
  2  1  1  6
  3  2  1  0
  3  4  1  0
  5  2  1  0
  5  6  2  0
  7  8  1  0
  8  9  2  0
  8 10  1  0
 10 11  1  0
 12 11  1  6
 12 13  1  0
 13  5  1  0
 14 12  1  0
 15 14  2  0
 16 17  1  0
 17 18  1  0
 18 19  1  0
 20 19  1  6
 20 22  1  0
 20 21  1  0
 21 14  1  0
 22 24  1  0
 23 22  2  0
M  END
$$$$
