CQM.pdb
     RDKit          3D

 24 23  0  0  1  0  0  0  0  0999 V2000
    6.5172  -19.0541   19.9487 N   0  0  0  0  0  0  0  0  0  0  0  0
    6.6298  -17.9357   20.8598 C   0  0  1  0  0  0  0  0  0  0  0  0
    5.4435  -17.8306   21.7901 C   0  0  0  0  0  0  0  0  0  0  0  0
    3.9256  -17.6875   20.8063 S   0  0  0  0  0  0  0  0  0  0  0  0
    7.9158  -17.9996   21.5504 C   0  0  0  0  0  0  0  0  0  0  0  0
    8.3604  -19.0302   22.1281 O   0  0  0  0  0  0  0  0  0  0  0  0
   13.6914  -17.2499   20.5298 N   0  0  0  0  0  0  0  0  0  0  0  0
   12.3853  -17.7722   20.2831 C   0  0  0  0  0  0  0  0  0  0  0  0
   12.2743  -19.0179   20.1873 O   0  0  0  0  0  0  0  0  0  0  0  0
   11.2558  -16.8353   20.1578 C   0  0  0  0  0  0  0  0  0  0  0  0
   10.9892  -16.1104   21.4491 C   0  0  0  0  0  0  0  0  0  0  0  0
    9.9864  -16.8044   22.3353 C   0  0  2  0  0  0  0  0  0  0  0  0
    8.7403  -16.8487   21.5927 N   0  0  0  0  0  0  0  0  0  0  0  0
    9.8429  -16.0232   23.5935 C   0  0  0  0  0  0  0  0  0  0  0  0
   10.1061  -14.7979   23.5497 O   0  0  0  0  0  0  0  0  0  0  0  0
    7.2021  -11.3535   25.8626 C   0  0  0  0  0  0  0  0  0  0  0  0
    6.6428  -12.7085   26.9011 S   0  0  0  0  0  0  0  0  0  0  0  0
    7.8382  -14.0083   27.0978 C   0  0  0  0  0  0  0  0  0  0  0  0
    8.2283  -14.7899   25.9168 C   0  0  0  0  0  0  0  0  0  0  0  0
    9.3092  -15.7987   26.0653 C   0  0  2  0  0  0  0  0  0  0  0  0
    9.4292  -16.5876   24.8210 N   0  0  0  0  0  0  0  0  0  0  0  0
    9.2539  -16.6991   27.2210 C   0  0  0  0  0  0  0  0  0  0  0  0
    9.0319  -17.9227   27.1977 O   0  0  0  0  0  0  0  0  0  0  0  0
    9.4668  -16.1839   28.5313 O   0  0  0  0  0  0  0  0  0  0  0  0
  2  1  1  1
  3  2  1  0
  3  4  1  0
  5  2  1  0
  5  6  2  0
  7  8  1  0
  8  9  2  0
  8 10  1  0
 10 11  1  0
 12 11  1  6
 12 13  1  0
 13  5  1  0
 14 12  1  0
 15 14  2  0
 16 17  1  0
 17 18  1  0
 18 19  1  0
 20 19  1  6
 20 22  1  0
 20 21  1  0
 21 14  1  0
 22 24  1  0
 23 22  2  0
M  END
$$$$
