FWI.pdb
     RDKit          3D

 34 36  0  0  1  0  0  0  0  0999 V2000
   11.0173  -19.2864   26.6023 N   0  0  0  0  0  0  0  0  0  0  0  0
   10.2456  -18.0841   26.4099 C   0  0  1  0  0  0  0  0  0  0  0  0
   11.2597  -16.9564   26.1857 C   0  0  0  0  0  0  0  0  0  0  0  0
   10.8624  -15.7799   26.9684 C   0  0  0  0  0  0  0  0  0  0  0  0
   11.0748  -15.7763   28.3300 C   0  0  0  0  0  0  0  0  0  0  0  0
   10.6860  -14.6424   29.0475 C   0  0  0  0  0  0  0  0  0  0  0  0
   10.1090  -13.5787   28.3705 C   0  0  0  0  0  0  0  0  0  0  0  0
    9.8962  -13.5807   27.0105 C   0  0  0  0  0  0  0  0  0  0  0  0
   10.2879  -14.7178   26.3022 C   0  0  0  0  0  0  0  0  0  0  0  0
    9.4800  -18.2049   25.1499 C   0  0  0  0  0  0  0  0  0  0  0  0
    9.9027  -18.9673   24.2553 O   0  0  0  0  0  0  0  0  0  0  0  0
    8.2911  -17.4616   24.9786 N   0  0  0  0  0  0  0  0  0  0  0  0
    7.4014  -17.6257   23.8003 C   0  0  1  0  0  0  0  0  0  0  0  0
    6.0892  -16.9748   24.0805 C   0  0  0  0  0  0  0  0  0  0  0  0
    6.1450  -16.0379   25.2048 C   0  0  0  0  0  0  0  0  0  0  0  0
    5.8866  -16.3420   26.5242 C   0  0  0  0  0  0  0  0  0  0  0  0
    6.0180  -15.1997   27.2081 N   0  0  0  0  0  0  0  0  0  0  0  0
    6.3525  -14.1720   26.3684 C   0  0  0  0  0  0  0  0  0  0  0  0
    6.5900  -12.8344   26.5973 C   0  0  0  0  0  0  0  0  0  0  0  0
    6.9121  -12.0034   25.5595 C   0  0  0  0  0  0  0  0  0  0  0  0
    6.9983  -12.5109   24.2814 C   0  0  0  0  0  0  0  0  0  0  0  0
    6.7607  -13.8522   24.0492 C   0  0  0  0  0  0  0  0  0  0  0  0
    6.4377  -14.6830   25.0943 C   0  0  0  0  0  0  0  0  0  0  0  0
    8.0783  -17.0550   22.6403 C   0  0  0  0  0  0  0  0  0  0  0  0
    7.6541  -17.4063   21.4794 O   0  0  0  0  0  0  0  0  0  0  0  0
    7.3954  -12.8003   20.6981 C   0  0  0  0  0  0  0  0  0  0  0  0
    7.8763  -14.2221   20.9718 C   0  0  0  0  0  0  0  0  0  0  0  0
    9.3577  -14.3063   21.0455 C   0  0  2  0  0  0  0  0  0  0  0  0
   10.0487  -13.7972   19.8043 C   0  0  0  0  0  0  0  0  0  0  0  0
    9.7599  -15.7417   21.3547 C   0  0  2  0  0  0  0  0  0  0  0  0
    9.1593  -16.1392   22.6283 N   0  0  0  0  0  0  0  0  0  0  0  0
   11.1933  -15.9880   21.3397 C   0  0  0  0  0  0  0  0  0  0  0  0
   11.9709  -15.9552   20.1647 O   0  0  0  0  0  0  0  0  0  0  0  0
   11.8957  -16.2585   22.3737 O   0  0  0  0  0  0  0  0  0  0  0  0
  2  1  1  6
  3  2  1  0
  4  3  1  0
  4  5  2  0
  6  5  1  0
  7  6  2  0
  8  9  2  0
  8  7  1  0
  9  4  1  0
 10  2  1  0
 11 10  2  0
 12 10  1  0
 13 12  1  0
 13 14  1  1
 15 23  1  0
 15 14  1  0
 16 15  2  0
 17 16  1  0
 17 18  1  0
 18 23  2  0
 19 18  1  0
 19 20  2  0
 20 21  1  0
 21 22  2  0
 23 22  1  0
 24 25  2  0
 24 13  1  0
 26 27  1  0
 27 28  1  0
 28 30  1  0
 28 29  1  6
 30 31  1  1
 31 24  1  0
 32 30  1  0
 33 32  1  0
 34 32  2  0
M  END
$$$$
