FWI.pdb
     RDKit          3D

 34 36  0  0  1  0  0  0  0  0999 V2000
    6.3580  -18.6301   19.8467 N   0  0  0  0  0  0  0  0  0  0  0  0
    7.0231  -17.4582   20.3588 C   0  0  1  0  0  0  0  0  0  0  0  0
    6.3056  -16.2538   19.7383 C   0  0  0  0  0  0  0  0  0  0  0  0
    6.9832  -15.0178   20.1480 C   0  0  0  0  0  0  0  0  0  0  0  0
    6.5934  -14.3928   21.3128 C   0  0  0  0  0  0  0  0  0  0  0  0
    7.2570  -13.2183   21.6761 C   0  0  0  0  0  0  0  0  0  0  0  0
    8.2687  -12.7336   20.8611 C   0  0  0  0  0  0  0  0  0  0  0  0
    8.6592  -13.3566   19.6975 C   0  0  0  0  0  0  0  0  0  0  0  0
    7.9905  -14.5292   19.3427 C   0  0  0  0  0  0  0  0  0  0  0  0
    6.7847  -17.3726   21.8162 C   0  0  0  0  0  0  0  0  0  0  0  0
    5.6102  -17.4063   22.2405 O   0  0  0  0  0  0  0  0  0  0  0  0
    7.8804  -17.2549   22.6997 N   0  0  0  0  0  0  0  0  0  0  0  0
    7.7346  -17.3184   24.1767 C   0  0  1  0  0  0  0  0  0  0  0  0
    8.4707  -18.5084   24.6928 C   0  0  0  0  0  0  0  0  0  0  0  0
    8.2525  -18.7391   26.1225 C   0  0  0  0  0  0  0  0  0  0  0  0
    7.0820  -19.1812   26.7007 C   0  0  0  0  0  0  0  0  0  0  0  0
    7.3037  -19.2223   28.0194 N   0  0  0  0  0  0  0  0  0  0  0  0
    8.5803  -18.8201   28.3053 C   0  0  0  0  0  0  0  0  0  0  0  0
    9.2627  -18.6944   29.4955 C   0  0  0  0  0  0  0  0  0  0  0  0
   10.5596  -18.2594   29.5046 C   0  0  0  0  0  0  0  0  0  0  0  0
   11.1821  -17.9468   28.3158 C   0  0  0  0  0  0  0  0  0  0  0  0
   10.4999  -18.0721   27.1206 C   0  0  0  0  0  0  0  0  0  0  0  0
    9.1978  -18.5095   27.1163 C   0  0  0  0  0  0  0  0  0  0  0  0
    8.2290  -16.0636   24.7339 C   0  0  0  0  0  0  0  0  0  0  0  0
    9.2707  -15.5469   24.1873 O   0  0  0  0  0  0  0  0  0  0  0  0
    5.3973  -11.8196   26.2876 C   0  0  0  0  0  0  0  0  0  0  0  0
    6.4894  -12.7630   25.7928 C   0  0  0  0  0  0  0  0  0  0  0  0
    7.4241  -13.1542   26.8792 C   0  0  2  0  0  0  0  0  0  0  0  0
    8.1235  -11.9800   27.5189 C   0  0  0  0  0  0  0  0  0  0  0  0
    8.4237  -14.1659   26.3357 C   0  0  2  0  0  0  0  0  0  0  0  0
    7.6936  -15.3226   25.8163 N   0  0  0  0  0  0  0  0  0  0  0  0
    9.4576  -14.5651   27.2776 C   0  0  0  0  0  0  0  0  0  0  0  0
   10.7142  -13.9323   27.3599 O   0  0  0  0  0  0  0  0  0  0  0  0
    9.3438  -15.5199   28.1209 O   0  0  0  0  0  0  0  0  0  0  0  0
  2  1  1  6
  3  2  1  0
  4  3  1  0
  4  5  2  0
  6  5  1  0
  7  6  2  0
  8  9  2  0
  8  7  1  0
  9  4  1  0
 10  2  1  0
 11 10  2  0
 12 10  1  0
 13 12  1  0
 13 14  1  1
 15 23  1  0
 15 14  1  0
 16 15  2  0
 17 16  1  0
 17 18  1  0
 18 23  2  0
 19 18  1  0
 19 20  2  0
 20 21  1  0
 21 22  2  0
 23 22  1  0
 24 25  2  0
 24 13  1  0
 26 27  1  0
 27 28  1  0
 28 30  1  0
 28 29  1  6
 30 31  1  1
 31 24  1  0
 32 30  1  0
 33 32  1  0
 34 32  2  0
M  END
$$$$
