FWI.pdb
     RDKit          3D

 34 36  0  0  1  0  0  0  0  0999 V2000
    6.3588  -21.3737   22.5105 N   0  0  0  0  0  0  0  0  0  0  0  0
    6.4673  -20.8092   23.8324 C   0  0  1  0  0  0  0  0  0  0  0  0
    7.3856  -21.7475   24.6241 C   0  0  0  0  0  0  0  0  0  0  0  0
    7.4881  -21.2754   26.0101 C   0  0  0  0  0  0  0  0  0  0  0  0
    6.4536  -21.5298   26.8844 C   0  0  0  0  0  0  0  0  0  0  0  0
    6.5805  -21.0678   28.1967 C   0  0  0  0  0  0  0  0  0  0  0  0
    7.7274  -20.3802   28.5636 C   0  0  0  0  0  0  0  0  0  0  0  0
    8.7615  -20.1253   27.6916 C   0  0  0  0  0  0  0  0  0  0  0  0
    8.6258  -20.5907   26.3828 C   0  0  0  0  0  0  0  0  0  0  0  0
    7.1801  -19.5161   23.7423 C   0  0  0  0  0  0  0  0  0  0  0  0
    8.2137  -19.4420   23.0447 O   0  0  0  0  0  0  0  0  0  0  0  0
    6.6851  -18.3930   24.4413 N   0  0  0  0  0  0  0  0  0  0  0  0
    7.4002  -17.0916   24.4842 C   0  0  1  0  0  0  0  0  0  0  0  0
    6.5236  -16.0697   25.1256 C   0  0  0  0  0  0  0  0  0  0  0  0
    6.8083  -14.7068   24.6713 C   0  0  0  0  0  0  0  0  0  0  0  0
    7.2800  -14.3518   23.4257 C   0  0  0  0  0  0  0  0  0  0  0  0
    7.4308  -13.0226   23.4433 N   0  0  0  0  0  0  0  0  0  0  0  0
    7.0705  -12.5137   24.6617 C   0  0  0  0  0  0  0  0  0  0  0  0
    7.0536  -11.2276   25.1553 C   0  0  0  0  0  0  0  0  0  0  0  0
    6.6417  -10.9859   26.4372 C   0  0  0  0  0  0  0  0  0  0  0  0
    6.2431  -12.0365   27.2345 C   0  0  0  0  0  0  0  0  0  0  0  0
    6.2591  -13.3274   26.7419 C   0  0  0  0  0  0  0  0  0  0  0  0
    6.6732  -13.5654   25.4540 C   0  0  0  0  0  0  0  0  0  0  0  0
    8.6552  -17.2893   25.2021 C   0  0  0  0  0  0  0  0  0  0  0  0
    8.6645  -18.1670   26.1404 O   0  0  0  0  0  0  0  0  0  0  0  0
   12.5099  -20.7905   25.0355 C   0  0  0  0  0  0  0  0  0  0  0  0
   12.3896  -19.3461   25.5119 C   0  0  0  0  0  0  0  0  0  0  0  0
   11.2584  -18.6358   24.8615 C   0  0  2  0  0  0  0  0  0  0  0  0
   11.3749  -18.5746   23.3582 C   0  0  0  0  0  0  0  0  0  0  0  0
   11.1319  -17.2437   25.4649 C   0  0  2  0  0  0  0  0  0  0  0  0
    9.8914  -16.6309   24.9889 N   0  0  0  0  0  0  0  0  0  0  0  0
   12.2776  -16.3767   25.2387 C   0  0  0  0  0  0  0  0  0  0  0  0
   13.4553  -16.4350   26.0107 O   0  0  0  0  0  0  0  0  0  0  0  0
   12.3422  -15.4790   24.3300 O   0  0  0  0  0  0  0  0  0  0  0  0
  2  1  1  6
  3  2  1  0
  4  3  1  0
  4  5  2  0
  6  5  1  0
  7  6  2  0
  8  9  2  0
  8  7  1  0
  9  4  1  0
 10  2  1  0
 11 10  2  0
 12 10  1  0
 13 12  1  0
 13 14  1  1
 15 23  1  0
 15 14  1  0
 16 15  2  0
 17 16  1  0
 17 18  1  0
 18 23  2  0
 19 18  1  0
 19 20  2  0
 20 21  1  0
 21 22  2  0
 23 22  1  0
 24 25  2  0
 24 13  1  0
 26 27  1  0
 27 28  1  0
 28 30  1  0
 28 29  1  6
 30 31  1  6
 31 24  1  0
 32 30  1  0
 33 32  1  0
 34 32  2  0
M  END
$$$$
