FWI.pdb
     RDKit          3D

 34 36  0  0  1  0  0  0  0  0999 V2000
    7.0660  -17.8605   21.4890 N   0  0  0  0  0  0  0  0  0  0  0  0
    7.6887  -16.6191   21.1028 C   0  0  1  0  0  0  0  0  0  0  0  0
    6.5559  -15.5940   20.9752 C   0  0  0  0  0  0  0  0  0  0  0  0
    7.0885  -14.3447   20.4183 C   0  0  0  0  0  0  0  0  0  0  0  0
    7.1590  -13.2275   21.2221 C   0  0  0  0  0  0  0  0  0  0  0  0
    7.6704  -12.0536   20.6634 C   0  0  0  0  0  0  0  0  0  0  0  0
    8.0819  -12.0583   19.3393 C   0  0  0  0  0  0  0  0  0  0  0  0
    8.0121  -13.1733   18.5351 C   0  0  0  0  0  0  0  0  0  0  0  0
    7.4998  -14.3413   19.1019 C   0  0  0  0  0  0  0  0  0  0  0  0
    8.5453  -16.1490   22.2134 C   0  0  0  0  0  0  0  0  0  0  0  0
    9.2292  -15.1157   22.0549 O   0  0  0  0  0  0  0  0  0  0  0  0
    8.5768  -16.8701   23.4276 N   0  0  0  0  0  0  0  0  0  0  0  0
    9.3892  -16.4445   24.5963 C   0  0  1  0  0  0  0  0  0  0  0  0
    8.5698  -16.5687   25.8361 C   0  0  0  0  0  0  0  0  0  0  0  0
    7.4726  -15.6004   25.8949 C   0  0  0  0  0  0  0  0  0  0  0  0
    6.1418  -15.8712   25.6589 C   0  0  0  0  0  0  0  0  0  0  0  0
    5.4914  -14.7088   25.7843 N   0  0  0  0  0  0  0  0  0  0  0  0
    6.3637  -13.7005   26.0934 C   0  0  0  0  0  0  0  0  0  0  0  0
    6.1751  -12.3540   26.3159 C   0  0  0  0  0  0  0  0  0  0  0  0
    7.2398  -11.5479   26.6124 C   0  0  0  0  0  0  0  0  0  0  0  0
    8.5045  -12.0894   26.6877 C   0  0  0  0  0  0  0  0  0  0  0  0
    8.6964  -13.4396   26.4650 C   0  0  0  0  0  0  0  0  0  0  0  0
    7.6243  -14.2453   26.1678 C   0  0  0  0  0  0  0  0  0  0  0  0
   10.5947  -17.2662   24.6317 C   0  0  0  0  0  0  0  0  0  0  0  0
   10.4401  -18.5405   24.5765 O   0  0  0  0  0  0  0  0  0  0  0  0
   15.3560  -15.7059   22.6856 C   0  0  0  0  0  0  0  0  0  0  0  0
   14.1095  -16.4615   23.1359 C   0  0  0  0  0  0  0  0  0  0  0  0
   14.3263  -17.1845   24.4156 C   0  0  2  0  0  0  0  0  0  0  0  0
   15.4319  -18.2090   24.3444 C   0  0  0  0  0  0  0  0  0  0  0  0
   13.0137  -17.8153   24.8595 C   0  0  2  0  0  0  0  0  0  0  0  0
   11.9406  -16.8315   24.7130 N   0  0  0  0  0  0  0  0  0  0  0  0
   13.0357  -18.3871   26.1967 C   0  0  0  0  0  0  0  0  0  0  0  0
   12.7123  -17.6541   27.3562 O   0  0  0  0  0  0  0  0  0  0  0  0
   13.3473  -19.5982   26.4647 O   0  0  0  0  0  0  0  0  0  0  0  0
  2  1  1  1
  3  2  1  0
  4  3  1  0
  4  5  2  0
  6  5  1  0
  7  6  2  0
  8  9  2  0
  8  7  1  0
  9  4  1  0
 10  2  1  0
 11 10  2  0
 12 10  1  0
 13 12  1  0
 13 14  1  1
 15 23  1  0
 15 14  1  0
 16 15  2  0
 17 16  1  0
 17 18  1  0
 18 23  2  0
 19 18  1  0
 19 20  2  0
 20 21  1  0
 21 22  2  0
 23 22  1  0
 24 25  2  0
 24 13  1  0
 26 27  1  0
 27 28  1  0
 28 30  1  0
 28 29  1  6
 30 31  1  1
 31 24  1  0
 32 30  1  0
 33 32  1  0
 34 32  2  0
M  END
$$$$
