FWI.pdb
     RDKit          3D

 34 36  0  0  1  0  0  0  0  0999 V2000
    7.9733  -16.1752   19.7843 N   0  0  0  0  0  0  0  0  0  0  0  0
    9.0765  -15.4919   20.4119 C   0  0  1  0  0  0  0  0  0  0  0  0
    9.2114  -14.1455   19.6911 C   0  0  0  0  0  0  0  0  0  0  0  0
    8.8355  -14.3067   18.2814 C   0  0  0  0  0  0  0  0  0  0  0  0
    9.4530  -15.2826   17.5292 C   0  0  0  0  0  0  0  0  0  0  0  0
    9.0739  -15.4114   16.1907 C   0  0  0  0  0  0  0  0  0  0  0  0
    8.1039  -14.5636   15.6780 C   0  0  0  0  0  0  0  0  0  0  0  0
    7.4863  -13.5884   16.4279 C   0  0  0  0  0  0  0  0  0  0  0  0
    7.8714  -13.4672   17.7640 C   0  0  0  0  0  0  0  0  0  0  0  0
    8.7089  -15.1749   21.8093 C   0  0  0  0  0  0  0  0  0  0  0  0
    7.8956  -14.2520   22.0269 O   0  0  0  0  0  0  0  0  0  0  0  0
    9.2788  -15.9150   22.8688 N   0  0  0  0  0  0  0  0  0  0  0  0
    8.8748  -15.7334   24.2868 C   0  0  1  0  0  0  0  0  0  0  0  0
    7.5903  -16.4517   24.5279 C   0  0  0  0  0  0  0  0  0  0  0  0
    6.5657  -15.6008   25.1371 C   0  0  0  0  0  0  0  0  0  0  0  0
    5.2649  -15.9684   25.4065 C   0  0  0  0  0  0  0  0  0  0  0  0
    4.6675  -14.8905   25.9274 N   0  0  0  0  0  0  0  0  0  0  0  0
    5.5449  -13.8425   26.0005 C   0  0  0  0  0  0  0  0  0  0  0  0
    5.4010  -12.5495   26.4535 C   0  0  0  0  0  0  0  0  0  0  0  0
    6.4586  -11.6827   26.4135 C   0  0  0  0  0  0  0  0  0  0  0  0
    7.6710  -12.1092   25.9170 C   0  0  0  0  0  0  0  0  0  0  0  0
    7.8179  -13.4057   25.4619 C   0  0  0  0  0  0  0  0  0  0  0  0
    6.7533  -14.2727   25.5043 C   0  0  0  0  0  0  0  0  0  0  0  0
    9.9606  -16.2197   25.1317 C   0  0  0  0  0  0  0  0  0  0  0  0
   10.9015  -16.8809   24.5586 O   0  0  0  0  0  0  0  0  0  0  0  0
   10.6078  -14.0213   29.8798 C   0  0  0  0  0  0  0  0  0  0  0  0
   11.1772  -14.5665   28.5736 C   0  0  0  0  0  0  0  0  0  0  0  0
   11.3620  -16.0400   28.6167 C   0  0  2  0  0  0  0  0  0  0  0  0
   12.6302  -16.4640   29.3162 C   0  0  0  0  0  0  0  0  0  0  0  0
   11.3002  -16.5911   27.1988 C   0  0  2  0  0  0  0  0  0  0  0  0
   10.1187  -16.0469   26.5290 N   0  0  0  0  0  0  0  0  0  0  0  0
   11.3453  -18.0421   27.1081 C   0  0  0  0  0  0  0  0  0  0  0  0
   10.2101  -18.8620   27.2674 O   0  0  0  0  0  0  0  0  0  0  0  0
   12.4027  -18.7240   26.8790 O   0  0  0  0  0  0  0  0  0  0  0  0
  2  1  1  6
  3  2  1  0
  4  3  1  0
  4  5  2  0
  6  5  1  0
  7  6  2  0
  8  9  2  0
  8  7  1  0
  9  4  1  0
 10  2  1  0
 11 10  2  0
 12 10  1  0
 13 12  1  0
 13 14  1  1
 15 23  1  0
 15 14  1  0
 16 15  2  0
 17 16  1  0
 17 18  1  0
 18 23  2  0
 19 18  1  0
 19 20  2  0
 20 21  1  0
 21 22  2  0
 23 22  1  0
 24 25  2  0
 24 13  1  0
 26 27  1  0
 27 28  1  0
 28 30  1  0
 28 29  1  6
 30 31  1  1
 31 24  1  0
 32 30  1  0
 33 32  1  0
 34 32  2  0
M  END
$$$$
