FWI.pdb
     RDKit          3D

 34 36  0  0  1  0  0  0  0  0999 V2000
   11.2257  -16.7472   18.8463 N   0  0  0  0  0  0  0  0  0  0  0  0
   11.2779  -17.3462   20.1565 C   0  0  1  0  0  0  0  0  0  0  0  0
   12.7635  -17.4483   20.5212 C   0  0  0  0  0  0  0  0  0  0  0  0
   13.0211  -18.7441   21.1608 C   0  0  0  0  0  0  0  0  0  0  0  0
   11.9638  -19.5926   21.4086 C   0  0  0  0  0  0  0  0  0  0  0  0
   12.2408  -20.8186   22.0185 C   0  0  0  0  0  0  0  0  0  0  0  0
   13.5517  -21.1299   22.3464 C   0  0  0  0  0  0  0  0  0  0  0  0
   14.6088  -20.2835   22.0995 C   0  0  0  0  0  0  0  0  0  0  0  0
   14.3223  -19.0611   21.4899 C   0  0  0  0  0  0  0  0  0  0  0  0
   10.6783  -16.4108   21.1332 C   0  0  0  0  0  0  0  0  0  0  0  0
   10.8809  -15.1853   21.0008 O   0  0  0  0  0  0  0  0  0  0  0  0
    9.8916  -16.9137   22.1930 N   0  0  0  0  0  0  0  0  0  0  0  0
    9.2283  -16.0355   23.1908 C   0  0  1  0  0  0  0  0  0  0  0  0
    7.7776  -16.3748   23.2572 C   0  0  0  0  0  0  0  0  0  0  0  0
    7.0639  -15.6300   24.2968 C   0  0  0  0  0  0  0  0  0  0  0  0
    6.3044  -16.1789   25.3077 C   0  0  0  0  0  0  0  0  0  0  0  0
    5.8090  -15.1525   26.0084 N   0  0  0  0  0  0  0  0  0  0  0  0
    6.2270  -13.9619   25.4783 C   0  0  0  0  0  0  0  0  0  0  0  0
    5.9853  -12.6552   25.8419 C   0  0  0  0  0  0  0  0  0  0  0  0
    6.5348  -11.6270   25.1262 C   0  0  0  0  0  0  0  0  0  0  0  0
    7.3328  -11.9042   24.0377 C   0  0  0  0  0  0  0  0  0  0  0  0
    7.5769  -13.2140   23.6711 C   0  0  0  0  0  0  0  0  0  0  0  0
    7.0232  -14.2433   24.3927 C   0  0  0  0  0  0  0  0  0  0  0  0
    9.9082  -16.2113   24.4700 C   0  0  0  0  0  0  0  0  0  0  0  0
   10.2545  -17.4056   24.7932 O   0  0  0  0  0  0  0  0  0  0  0  0
   10.5594  -14.1334   30.1709 C   0  0  0  0  0  0  0  0  0  0  0  0
   11.2436  -14.8213   28.9934 C   0  0  0  0  0  0  0  0  0  0  0  0
   10.6229  -14.4543   27.6945 C   0  0  2  0  0  0  0  0  0  0  0  0
    9.1715  -14.0591   27.8151 C   0  0  0  0  0  0  0  0  0  0  0  0
   10.8047  -15.6041   26.7133 C   0  0  2  0  0  0  0  0  0  0  0  0
   10.2495  -15.2143   25.4170 N   0  0  0  0  0  0  0  0  0  0  0  0
   10.2672  -16.8784   27.1638 C   0  0  0  0  0  0  0  0  0  0  0  0
   11.0241  -17.8261   27.8816 O   0  0  0  0  0  0  0  0  0  0  0  0
    9.0683  -17.2745   26.9608 O   0  0  0  0  0  0  0  0  0  0  0  0
  2  1  1  6
  3  2  1  0
  4  3  1  0
  4  5  2  0
  6  5  1  0
  7  6  2  0
  8  9  2  0
  8  7  1  0
  9  4  1  0
 10  2  1  0
 11 10  2  0
 12 10  1  0
 13 12  1  0
 13 14  1  1
 15 23  1  0
 15 14  1  0
 16 15  2  0
 17 16  1  0
 17 18  1  0
 18 23  2  0
 19 18  1  0
 19 20  2  0
 20 21  1  0
 21 22  2  0
 23 22  1  0
 24 25  2  0
 24 13  1  0
 26 27  1  0
 27 28  1  0
 28 30  1  0
 28 29  1  1
 30 31  1  6
 31 24  1  0
 32 30  1  0
 33 32  1  0
 34 32  2  0
M  END
$$$$
