FWI.pdb
     RDKit          3D

 34 36  0  0  1  0  0  0  0  0999 V2000
   10.0280  -17.7179   18.8593 N   0  0  0  0  0  0  0  0  0  0  0  0
    9.1316  -17.9561   19.9628 C   0  0  1  0  0  0  0  0  0  0  0  0
    9.2790  -19.4395   20.3211 C   0  0  0  0  0  0  0  0  0  0  0  0
    8.7013  -20.2602   19.2500 C   0  0  0  0  0  0  0  0  0  0  0  0
    9.5176  -21.1219   18.5498 C   0  0  0  0  0  0  0  0  0  0  0  0
    8.9385  -21.8896   17.5363 C   0  0  0  0  0  0  0  0  0  0  0  0
    7.5827  -21.7562   17.2778 C   0  0  0  0  0  0  0  0  0  0  0  0
    6.7661  -20.8960   17.9762 C   0  0  0  0  0  0  0  0  0  0  0  0
    7.3535  -20.1333   18.9868 C   0  0  0  0  0  0  0  0  0  0  0  0
    9.6116  -17.1994   21.1397 C   0  0  0  0  0  0  0  0  0  0  0  0
   10.8367  -17.1705   21.3824 O   0  0  0  0  0  0  0  0  0  0  0  0
    8.6845  -16.5258   21.9654 N   0  0  0  0  0  0  0  0  0  0  0  0
    9.0971  -15.6519   23.0937 C   0  0  1  0  0  0  0  0  0  0  0  0
    7.9532  -14.7774   23.4822 C   0  0  0  0  0  0  0  0  0  0  0  0
    8.3007  -13.8142   24.5292 C   0  0  0  0  0  0  0  0  0  0  0  0
    9.4406  -13.0403   24.5699 C   0  0  0  0  0  0  0  0  0  0  0  0
    9.3765  -12.3320   25.7031 N   0  0  0  0  0  0  0  0  0  0  0  0
    8.2308  -12.6276   26.3910 C   0  0  0  0  0  0  0  0  0  0  0  0
    7.7289  -12.1660   27.5880 C   0  0  0  0  0  0  0  0  0  0  0  0
    6.5353  -12.6361   28.0630 C   0  0  0  0  0  0  0  0  0  0  0  0
    5.8355  -13.5756   27.3375 C   0  0  0  0  0  0  0  0  0  0  0  0
    6.3367  -14.0402   26.1366 C   0  0  0  0  0  0  0  0  0  0  0  0
    7.5355  -13.5651   25.6634 C   0  0  0  0  0  0  0  0  0  0  0  0
    9.5497  -16.5076   24.1857 C   0  0  0  0  0  0  0  0  0  0  0  0
    8.8543  -17.5584   24.4369 O   0  0  0  0  0  0  0  0  0  0  0  0
   14.2382  -18.3830   24.4266 C   0  0  0  0  0  0  0  0  0  0  0  0
   12.7398  -18.2017   24.6490 C   0  0  0  0  0  0  0  0  0  0  0  0
   12.4350  -17.6901   26.0100 C   0  0  2  0  0  0  0  0  0  0  0  0
   12.7953  -18.6598   27.1087 C   0  0  0  0  0  0  0  0  0  0  0  0
   10.9654  -17.2979   26.0768 C   0  0  2  0  0  0  0  0  0  0  0  0
   10.6836  -16.3301   25.0162 N   0  0  0  0  0  0  0  0  0  0  0  0
   10.5243  -16.8120   27.3749 C   0  0  0  0  0  0  0  0  0  0  0  0
   10.0759  -17.6613   28.4064 O   0  0  0  0  0  0  0  0  0  0  0  0
   10.4935  -15.5805   27.7184 O   0  0  0  0  0  0  0  0  0  0  0  0
  2  1  1  6
  3  2  1  0
  4  3  1  0
  4  5  2  0
  6  5  1  0
  7  6  2  0
  8  9  2  0
  8  7  1  0
  9  4  1  0
 10  2  1  0
 11 10  2  0
 12 10  1  0
 13 12  1  0
 13 14  1  1
 15 23  1  0
 15 14  1  0
 16 15  2  0
 17 16  1  0
 17 18  1  0
 18 23  2  0
 19 18  1  0
 19 20  2  0
 20 21  1  0
 21 22  2  0
 23 22  1  0
 24 25  2  0
 24 13  1  0
 26 27  1  0
 27 28  1  0
 28 30  1  0
 28 29  1  1
 30 31  1  6
 31 24  1  0
 32 30  1  0
 33 32  1  0
 34 32  2  0
M  END
$$$$
