WKW.pdb
     RDKit          3D

 38 41  0  0  1  0  0  0  0  0999 V2000
    6.4850  -18.5062   24.7862 N   0  0  0  0  0  0  0  0  0  0  0  0
    6.8438  -17.1376   24.4605 C   0  0  1  0  0  0  0  0  0  0  0  0
    7.6185  -16.6094   25.6590 C   0  0  0  0  0  0  0  0  0  0  0  0
    6.8825  -15.4367   26.1930 C   0  0  0  0  0  0  0  0  0  0  0  0
    5.8614  -15.4057   27.1166 C   0  0  0  0  0  0  0  0  0  0  0  0
    5.4703  -14.1202   27.3278 N   0  0  0  0  0  0  0  0  0  0  0  0
    6.2134  -13.3113   26.5621 C   0  0  0  0  0  0  0  0  0  0  0  0
    6.2105  -11.9475   26.4106 C   0  0  0  0  0  0  0  0  0  0  0  0
    7.1162  -11.3634   25.5193 C   0  0  0  0  0  0  0  0  0  0  0  0
    8.0015  -12.1240   24.7999 C   0  0  0  0  0  0  0  0  0  0  0  0
    7.9774  -13.4921   24.9778 C   0  0  0  0  0  0  0  0  0  0  0  0
    7.0911  -14.0992   25.8528 C   0  0  0  0  0  0  0  0  0  0  0  0
    7.6312  -17.1331   23.2221 C   0  0  0  0  0  0  0  0  0  0  0  0
    8.3268  -18.1268   22.9227 O   0  0  0  0  0  0  0  0  0  0  0  0
    7.6107  -16.0180   22.3637 N   0  0  0  0  0  0  0  0  0  0  0  0
    8.3986  -16.0382   21.0919 C   0  0  1  0  0  0  0  0  0  0  0  0
    7.9660  -14.8091   20.3055 C   0  0  0  0  0  0  0  0  0  0  0  0
    8.7268  -14.6521   19.0336 C   0  0  0  0  0  0  0  0  0  0  0  0
    8.2405  -13.5388   18.1528 C   0  0  0  0  0  0  0  0  0  0  0  0
    8.8015  -13.7698   16.7503 C   0  0  0  0  0  0  0  0  0  0  0  0
    8.4222  -12.6788   15.8959 N   0  0  0  0  0  0  0  0  0  0  0  0
    9.8110  -16.0341   21.4804 C   0  0  0  0  0  0  0  0  0  0  0  0
   10.7180  -16.1794   20.5718 O   0  0  0  0  0  0  0  0  0  0  0  0
   10.3016  -15.8801   22.7851 N   0  0  0  0  0  0  0  0  0  0  0  0
   11.7394  -15.6963   23.0589 C   0  0  1  0  0  0  0  0  0  0  0  0
   11.9387  -14.8014   24.2284 C   0  0  0  0  0  0  0  0  0  0  0  0
   11.4746  -15.4224   25.4735 C   0  0  0  0  0  0  0  0  0  0  0  0
   11.7867  -16.7252   25.8914 C   0  0  0  0  0  0  0  0  0  0  0  0
   11.1556  -16.9861   27.0325 N   0  0  0  0  0  0  0  0  0  0  0  0
   10.4346  -15.9183   27.4020 C   0  0  0  0  0  0  0  0  0  0  0  0
    9.6320  -15.6680   28.4938 C   0  0  0  0  0  0  0  0  0  0  0  0
    9.0027  -14.4565   28.6683 C   0  0  0  0  0  0  0  0  0  0  0  0
    9.1979  -13.4817   27.7072 C   0  0  0  0  0  0  0  0  0  0  0  0
    9.9911  -13.7050   26.6089 C   0  0  0  0  0  0  0  0  0  0  0  0
   10.6256  -14.9324   26.4347 C   0  0  0  0  0  0  0  0  0  0  0  0
   12.3418  -17.0017   23.2538 C   0  0  0  0  0  0  0  0  0  0  0  0
   13.5666  -17.1668   23.4539 O   0  0  0  0  0  0  0  0  0  0  0  0
   11.5603  -18.1401   23.2237 O   0  0  0  0  0  0  0  0  0  0  0  0
  2  1  1  1
  3  2  1  0
  4  3  1  0
  4  5  2  0
  6  5  1  0
  7  6  1  0
  8  7  2  0
  9  8  1  0
 10  9  2  0
 10 11  1  0
 11 12  2  0
 12  7  1  0
 12  4  1  0
 13  2  1  0
 13 15  1  0
 14 13  2  0
 16 15  1  0
 16 17  1  6
 18 17  1  0
 19 20  1  0
 19 18  1  0
 21 20  1  0
 22 23  2  0
 22 16  1  0
 24 22  1  0
 25 24  1  0
 25 36  1  0
 25 26  1  1
 27 26  1  0
 28 27  2  0
 29 28  1  0
 30 29  1  0
 30 35  2  0
 31 32  2  0
 31 30  1  0
 32 33  1  0
 33 34  2  0
 35 34  1  0
 35 27  1  0
 36 38  1  0
 37 36  2  0
M  END
$$$$
