WKW.pdb
     RDKit          3D

 38 41  0  0  1  0  0  0  0  0999 V2000
   12.7217  -17.4359   25.4858 N   0  0  0  0  0  0  0  0  0  0  0  0
   11.3085  -17.5056   25.1611 C   0  0  1  0  0  0  0  0  0  0  0  0
   10.6625  -16.3033   25.8341 C   0  0  0  0  0  0  0  0  0  0  0  0
   10.7835  -16.4866   27.3017 C   0  0  0  0  0  0  0  0  0  0  0  0
   10.8655  -17.6577   28.0217 C   0  0  0  0  0  0  0  0  0  0  0  0
   10.9680  -17.3765   29.3485 N   0  0  0  0  0  0  0  0  0  0  0  0
   10.9544  -16.0474   29.5106 C   0  0  0  0  0  0  0  0  0  0  0  0
   11.0296  -15.2684   30.6378 C   0  0  0  0  0  0  0  0  0  0  0  0
   10.9883  -13.8770   30.5031 C   0  0  0  0  0  0  0  0  0  0  0  0
   10.8757  -13.2816   29.2732 C   0  0  0  0  0  0  0  0  0  0  0  0
   10.8034  -14.0953   28.1611 C   0  0  0  0  0  0  0  0  0  0  0  0
   10.8410  -15.4766   28.2634 C   0  0  0  0  0  0  0  0  0  0  0  0
   11.1536  -17.4970   23.7018 C   0  0  0  0  0  0  0  0  0  0  0  0
   11.6935  -16.5973   23.0235 O   0  0  0  0  0  0  0  0  0  0  0  0
   10.4018  -18.4954   23.0548 N   0  0  0  0  0  0  0  0  0  0  0  0
    9.9669  -18.3034   21.6361 C   0  0  1  0  0  0  0  0  0  0  0  0
   10.0651  -19.6702   20.9737 C   0  0  0  0  0  0  0  0  0  0  0  0
   11.3852  -19.8895   20.3176 C   0  0  0  0  0  0  0  0  0  0  0  0
   11.8082  -18.7877   19.3907 C   0  0  0  0  0  0  0  0  0  0  0  0
   13.1185  -19.2090   18.7268 C   0  0  0  0  0  0  0  0  0  0  0  0
   12.9097  -19.3746   17.3151 N   0  0  0  0  0  0  0  0  0  0  0  0
    8.6075  -17.7604   21.6902 C   0  0  0  0  0  0  0  0  0  0  0  0
    7.8448  -18.0612   22.6887 O   0  0  0  0  0  0  0  0  0  0  0  0
    8.0251  -16.9129   20.7367 N   0  0  0  0  0  0  0  0  0  0  0  0
    6.6619  -16.3744   20.9037 C   0  0  1  0  0  0  0  0  0  0  0  0
    6.6565  -14.8995   20.7226 C   0  0  0  0  0  0  0  0  0  0  0  0
    7.3437  -14.2142   21.8223 C   0  0  0  0  0  0  0  0  0  0  0  0
    8.6369  -13.6735   21.7543 C   0  0  0  0  0  0  0  0  0  0  0  0
    8.9721  -13.1795   22.9426 N   0  0  0  0  0  0  0  0  0  0  0  0
    7.9633  -13.3616   23.8062 C   0  0  0  0  0  0  0  0  0  0  0  0
    7.7976  -13.0214   25.1312 C   0  0  0  0  0  0  0  0  0  0  0  0
    6.6338  -13.2996   25.8109 C   0  0  0  0  0  0  0  0  0  0  0  0
    5.6192  -13.9386   25.1221 C   0  0  0  0  0  0  0  0  0  0  0  0
    5.7583  -14.2902   23.8022 C   0  0  0  0  0  0  0  0  0  0  0  0
    6.9377  -14.0082   23.1175 C   0  0  0  0  0  0  0  0  0  0  0  0
    5.7825  -17.0488   19.9674 C   0  0  0  0  0  0  0  0  0  0  0  0
    6.1862  -17.8953   19.1380 O   0  0  0  0  0  0  0  0  0  0  0  0
    4.4296  -16.7706   19.9596 O   0  0  0  0  0  0  0  0  0  0  0  0
  2  1  1  6
  3  2  1  0
  4  3  1  0
  4  5  2  0
  6  5  1  0
  7  6  1  0
  8  7  2  0
  9  8  1  0
 10  9  2  0
 10 11  1  0
 11 12  2  0
 12  7  1  0
 12  4  1  0
 13  2  1  0
 13 15  1  0
 14 13  2  0
 16 15  1  0
 16 17  1  6
 18 17  1  0
 19 20  1  0
 19 18  1  0
 21 20  1  0
 22 23  2  0
 22 16  1  0
 24 22  1  0
 25 24  1  0
 25 36  1  0
 25 26  1  6
 27 26  1  0
 28 27  2  0
 29 28  1  0
 30 29  1  0
 30 35  2  0
 31 32  2  0
 31 30  1  0
 32 33  1  0
 33 34  2  0
 35 34  1  0
 35 27  1  0
 36 38  1  0
 37 36  2  0
M  END
$$$$
