WKW.pdb
     RDKit          3D

 38 41  0  0  1  0  0  0  0  0999 V2000
    6.2934  -17.7034   23.6276 N   0  0  0  0  0  0  0  0  0  0  0  0
    7.0663  -16.5227   23.2866 C   0  0  1  0  0  0  0  0  0  0  0  0
    7.6561  -16.0142   24.5940 C   0  0  0  0  0  0  0  0  0  0  0  0
    6.6083  -15.2236   25.2863 C   0  0  0  0  0  0  0  0  0  0  0  0
    5.7595  -15.6140   26.2981 C   0  0  0  0  0  0  0  0  0  0  0  0
    4.9521  -14.5769   26.6479 N   0  0  0  0  0  0  0  0  0  0  0  0
    5.2551  -13.5179   25.8866 C   0  0  0  0  0  0  0  0  0  0  0  0
    4.7361  -12.2482   25.8477 C   0  0  0  0  0  0  0  0  0  0  0  0
    5.2570  -11.3317   24.9287 C   0  0  0  0  0  0  0  0  0  0  0  0
    6.2707  -11.6769   24.0724 C   0  0  0  0  0  0  0  0  0  0  0  0
    6.7693  -12.9617   24.1395 C   0  0  0  0  0  0  0  0  0  0  0  0
    6.2728  -13.8915   25.0388 C   0  0  0  0  0  0  0  0  0  0  0  0
    8.0897  -16.8910   22.3014 C   0  0  0  0  0  0  0  0  0  0  0  0
    8.6869  -17.9839   22.4026 O   0  0  0  0  0  0  0  0  0  0  0  0
    8.4067  -16.0244   21.2388 N   0  0  0  0  0  0  0  0  0  0  0  0
    9.8155  -15.9316   20.7437 C   0  0  1  0  0  0  0  0  0  0  0  0
    9.8681  -14.7072   19.8412 C   0  0  0  0  0  0  0  0  0  0  0  0
    8.6496  -14.5742   18.9934 C   0  0  0  0  0  0  0  0  0  0  0  0
    8.7030  -13.4487   18.0022 C   0  0  0  0  0  0  0  0  0  0  0  0
    7.4367  -13.5130   17.1493 C   0  0  0  0  0  0  0  0  0  0  0  0
    7.5296  -12.5586   16.0794 N   0  0  0  0  0  0  0  0  0  0  0  0
   10.6662  -15.8363   21.9325 C   0  0  0  0  0  0  0  0  0  0  0  0
   10.7432  -14.7138   22.5676 O   0  0  0  0  0  0  0  0  0  0  0  0
   11.4332  -16.8766   22.4767 N   0  0  0  0  0  0  0  0  0  0  0  0
   11.8122  -16.9000   23.9022 C   0  0  1  0  0  0  0  0  0  0  0  0
   10.6240  -16.6653   24.7631 C   0  0  0  0  0  0  0  0  0  0  0  0
   10.9746  -16.6717   26.1872 C   0  0  0  0  0  0  0  0  0  0  0  0
   10.9519  -17.8014   27.0194 C   0  0  0  0  0  0  0  0  0  0  0  0
   11.2682  -17.4424   28.2602 N   0  0  0  0  0  0  0  0  0  0  0  0
   11.5039  -16.1236   28.3006 C   0  0  0  0  0  0  0  0  0  0  0  0
   11.8796  -15.2745   29.3188 C   0  0  0  0  0  0  0  0  0  0  0  0
   12.0899  -13.9317   29.1024 C   0  0  0  0  0  0  0  0  0  0  0  0
   11.9121  -13.4475   27.8195 C   0  0  0  0  0  0  0  0  0  0  0  0
   11.5367  -14.2709   26.7869 C   0  0  0  0  0  0  0  0  0  0  0  0
   11.3236  -15.6291   27.0093 C   0  0  0  0  0  0  0  0  0  0  0  0
   12.4580  -18.1678   24.1862 C   0  0  0  0  0  0  0  0  0  0  0  0
   12.0997  -19.2493   23.6671 O   0  0  0  0  0  0  0  0  0  0  0  0
   13.5213  -18.2254   25.0657 O   0  0  0  0  0  0  0  0  0  0  0  0
  2  1  1  1
  3  2  1  0
  4  3  1  0
  4  5  2  0
  6  5  1  0
  7  6  1  0
  8  7  2  0
  9  8  1  0
 10  9  2  0
 10 11  1  0
 11 12  2  0
 12  7  1  0
 12  4  1  0
 13  2  1  0
 13 15  1  0
 14 13  2  0
 16 15  1  0
 16 17  1  6
 18 17  1  0
 19 20  1  0
 19 18  1  0
 21 20  1  0
 22 23  2  0
 22 16  1  0
 24 22  1  0
 25 24  1  0
 25 36  1  0
 25 26  1  1
 27 26  1  0
 28 27  2  0
 29 28  1  0
 30 29  1  0
 30 35  2  0
 31 32  2  0
 31 30  1  0
 32 33  1  0
 33 34  2  0
 35 34  1  0
 35 27  1  0
 36 38  1  0
 37 36  2  0
M  END
$$$$
