WKW.pdb
     RDKit          3D

 38 41  0  0  1  0  0  0  0  0999 V2000
    4.6366  -18.3262   20.8733 N   0  0  0  0  0  0  0  0  0  0  0  0
    5.1643  -18.3450   22.2256 C   0  0  1  0  0  0  0  0  0  0  0  0
    5.1511  -19.8028   22.6619 C   0  0  0  0  0  0  0  0  0  0  0  0
    3.7555  -20.1548   23.0234 C   0  0  0  0  0  0  0  0  0  0  0  0
    3.2841  -20.7408   24.1770 C   0  0  0  0  0  0  0  0  0  0  0  0
    1.9339  -20.8861   24.1014 N   0  0  0  0  0  0  0  0  0  0  0  0
    1.5134  -20.4078   22.9235 C   0  0  0  0  0  0  0  0  0  0  0  0
    0.2599  -20.3251   22.3714 C   0  0  0  0  0  0  0  0  0  0  0  0
    0.1171  -19.7685   21.0964 C   0  0  0  0  0  0  0  0  0  0  0  0
    1.1999  -19.3063   20.3936 C   0  0  0  0  0  0  0  0  0  0  0  0
    2.4453  -19.4043   20.9796 C   0  0  0  0  0  0  0  0  0  0  0  0
    2.6178  -19.9517   22.2407 C   0  0  0  0  0  0  0  0  0  0  0  0
    6.5104  -17.7608   22.2203 C   0  0  0  0  0  0  0  0  0  0  0  0
    7.5130  -18.5065   22.2158 O   0  0  0  0  0  0  0  0  0  0  0  0
    6.6859  -16.3644   22.2191 N   0  0  0  0  0  0  0  0  0  0  0  0
    7.8062  -15.7517   21.4391 C   0  0  1  0  0  0  0  0  0  0  0  0
    7.2681  -14.4417   20.8817 C   0  0  0  0  0  0  0  0  0  0  0  0
    8.2649  -13.7361   20.0276 C   0  0  0  0  0  0  0  0  0  0  0  0
    7.7517  -12.4830   19.3808 C   0  0  0  0  0  0  0  0  0  0  0  0
    8.7751  -12.0402   18.3360 C   0  0  0  0  0  0  0  0  0  0  0  0
    8.8119  -12.9966   17.2646 N   0  0  0  0  0  0  0  0  0  0  0  0
    8.9220  -15.5912   22.3746 C   0  0  0  0  0  0  0  0  0  0  0  0
   10.0477  -15.1261   21.9436 O   0  0  0  0  0  0  0  0  0  0  0  0
    8.8950  -15.8983   23.7427 N   0  0  0  0  0  0  0  0  0  0  0  0
   10.1019  -15.8026   24.5854 C   0  0  1  0  0  0  0  0  0  0  0  0
    9.7799  -15.1677   25.8897 C   0  0  0  0  0  0  0  0  0  0  0  0
    8.3554  -14.8346   25.9953 C   0  0  0  0  0  0  0  0  0  0  0  0
    7.2992  -15.7446   25.8351 C   0  0  0  0  0  0  0  0  0  0  0  0
    6.1409  -15.0993   25.9369 N   0  0  0  0  0  0  0  0  0  0  0  0
    6.3694  -13.7975   26.1597 C   0  0  0  0  0  0  0  0  0  0  0  0
    5.5283  -12.7238   26.3567 C   0  0  0  0  0  0  0  0  0  0  0  0
    6.0127  -11.4584   26.5976 C   0  0  0  0  0  0  0  0  0  0  0  0
    7.3843  -11.2873   26.6376 C   0  0  0  0  0  0  0  0  0  0  0  0
    8.2449  -12.3393   26.4432 C   0  0  0  0  0  0  0  0  0  0  0  0
    7.7517  -13.6185   26.1986 C   0  0  0  0  0  0  0  0  0  0  0  0
   10.6610  -17.1322   24.7418 C   0  0  0  0  0  0  0  0  0  0  0  0
   10.0609  -18.1725   24.3879 O   0  0  0  0  0  0  0  0  0  0  0  0
   11.9116  -17.2995   25.3036 O   0  0  0  0  0  0  0  0  0  0  0  0
  2  1  1  6
  3  2  1  0
  4  3  1  0
  4  5  2  0
  6  5  1  0
  7  6  1  0
  8  7  2  0
  9  8  1  0
 10  9  2  0
 10 11  1  0
 11 12  2  0
 12  7  1  0
 12  4  1  0
 13  2  1  0
 13 15  1  0
 14 13  2  0
 16 15  1  0
 16 17  1  1
 18 17  1  0
 19 20  1  0
 19 18  1  0
 21 20  1  0
 22 23  2  0
 22 16  1  0
 24 22  1  0
 25 24  1  0
 25 36  1  0
 25 26  1  1
 27 26  1  0
 28 27  2  0
 29 28  1  0
 30 29  1  0
 30 35  2  0
 31 32  2  0
 31 30  1  0
 32 33  1  0
 33 34  2  0
 35 34  1  0
 35 27  1  0
 36 38  1  0
 37 36  2  0
M  END
$$$$
