WKW.pdb
     RDKit          3D

 38 41  0  0  1  0  0  0  0  0999 V2000
    7.7451  -20.9330   23.1375 N   0  0  0  0  0  0  0  0  0  0  0  0
    7.9750  -19.6623   23.8009 C   0  0  1  0  0  0  0  0  0  0  0  0
    8.9527  -19.9487   24.9312 C   0  0  0  0  0  0  0  0  0  0  0  0
    8.4827  -19.2163   26.1332 C   0  0  0  0  0  0  0  0  0  0  0  0
    7.2169  -19.1660   26.6734 C   0  0  0  0  0  0  0  0  0  0  0  0
    7.2203  -18.3780   27.7820 N   0  0  0  0  0  0  0  0  0  0  0  0
    8.4605  -17.9125   27.9773 C   0  0  0  0  0  0  0  0  0  0  0  0
    8.9803  -17.0883   28.9435 C   0  0  0  0  0  0  0  0  0  0  0  0
   10.3392  -16.7616   28.8951 C   0  0  0  0  0  0  0  0  0  0  0  0
   11.1558  -17.2476   27.9067 C   0  0  0  0  0  0  0  0  0  0  0  0
   10.5999  -18.0744   26.9521 C   0  0  0  0  0  0  0  0  0  0  0  0
    9.2570  -18.4148   26.9736 C   0  0  0  0  0  0  0  0  0  0  0  0
    8.4963  -18.7011   22.8222 C   0  0  0  0  0  0  0  0  0  0  0  0
    9.4985  -18.9930   22.1355 O   0  0  0  0  0  0  0  0  0  0  0  0
    7.8772  -17.4495   22.6467 N   0  0  0  0  0  0  0  0  0  0  0  0
    8.5392  -16.3973   21.8140 C   0  0  1  0  0  0  0  0  0  0  0  0
    7.4222  -15.5063   21.2898 C   0  0  0  0  0  0  0  0  0  0  0  0
    7.9303  -14.4211   20.4036 C   0  0  0  0  0  0  0  0  0  0  0  0
    6.9874  -14.0237   19.3059 C   0  0  0  0  0  0  0  0  0  0  0  0
    7.7934  -13.9081   18.0128 C   0  0  0  0  0  0  0  0  0  0  0  0
    6.9360  -13.4583   16.9513 N   0  0  0  0  0  0  0  0  0  0  0  0
    9.4897  -15.7118   22.6929 C   0  0  0  0  0  0  0  0  0  0  0  0
   10.2774  -14.8156   22.1973 O   0  0  0  0  0  0  0  0  0  0  0  0
    9.6384  -15.9323   24.0699 N   0  0  0  0  0  0  0  0  0  0  0  0
   10.5708  -15.1351   24.8891 C   0  0  1  0  0  0  0  0  0  0  0  0
    9.9708  -14.8266   26.2131 C   0  0  0  0  0  0  0  0  0  0  0  0
    8.6094  -14.2965   26.0829 C   0  0  0  0  0  0  0  0  0  0  0  0
    7.4653  -15.0652   25.8198 C   0  0  0  0  0  0  0  0  0  0  0  0
    6.4105  -14.2631   25.7074 N   0  0  0  0  0  0  0  0  0  0  0  0
    6.7923  -12.9906   25.8844 C   0  0  0  0  0  0  0  0  0  0  0  0
    6.0973  -11.8007   25.8883 C   0  0  0  0  0  0  0  0  0  0  0  0
    6.7218  -10.5972   26.1237 C   0  0  0  0  0  0  0  0  0  0  0  0
    8.0843  -10.6105   26.3597 C   0  0  0  0  0  0  0  0  0  0  0  0
    8.8014  -11.7814   26.3601 C   0  0  0  0  0  0  0  0  0  0  0  0
    8.1666  -12.9976   26.1204 C   0  0  0  0  0  0  0  0  0  0  0  0
   11.8201  -15.8636   25.0054 C   0  0  0  0  0  0  0  0  0  0  0  0
   12.0048  -16.9908   24.4929 O   0  0  0  0  0  0  0  0  0  0  0  0
   12.8790  -15.3213   25.7070 O   0  0  0  0  0  0  0  0  0  0  0  0
  2  1  1  6
  3  2  1  0
  4  3  1  0
  4  5  2  0
  6  5  1  0
  7  6  1  0
  8  7  2  0
  9  8  1  0
 10  9  2  0
 10 11  1  0
 11 12  2  0
 12  7  1  0
 12  4  1  0
 13  2  1  0
 13 15  1  0
 14 13  2  0
 16 15  1  0
 16 17  1  1
 18 17  1  0
 19 20  1  0
 19 18  1  0
 21 20  1  0
 22 23  2  0
 22 16  1  0
 24 22  1  0
 25 24  1  0
 25 36  1  0
 25 26  1  1
 27 26  1  0
 28 27  2  0
 29 28  1  0
 30 29  1  0
 30 35  2  0
 31 32  2  0
 31 30  1  0
 32 33  1  0
 33 34  2  0
 35 34  1  0
 35 27  1  0
 36 38  1  0
 37 36  2  0
M  END
$$$$
