WKW.pdb
     RDKit          3D

 38 41  0  0  1  0  0  0  0  0999 V2000
    7.2031  -17.0708   23.4590 N   0  0  0  0  0  0  0  0  0  0  0  0
    8.5955  -17.0201   23.8669 C   0  0  1  0  0  0  0  0  0  0  0  0
    8.5931  -16.5453   25.3127 C   0  0  0  0  0  0  0  0  0  0  0  0
    7.3627  -15.7430   25.5239 C   0  0  0  0  0  0  0  0  0  0  0  0
    6.0675  -16.1779   25.6965 C   0  0  0  0  0  0  0  0  0  0  0  0
    5.2412  -15.1101   25.8613 N   0  0  0  0  0  0  0  0  0  0  0  0
    5.9686  -13.9876   25.7999 C   0  0  0  0  0  0  0  0  0  0  0  0
    5.6120  -12.6667   25.9050 C   0  0  0  0  0  0  0  0  0  0  0  0
    6.6041  -11.6870   25.7965 C   0  0  0  0  0  0  0  0  0  0  0  0
    7.9178  -12.0208   25.5893 C   0  0  0  0  0  0  0  0  0  0  0  0
    8.2407  -13.3586   25.4896 C   0  0  0  0  0  0  0  0  0  0  0  0
    7.2795  -14.3513   25.5921 C   0  0  0  0  0  0  0  0  0  0  0  0
    9.1893  -18.3520   23.7024 C   0  0  0  0  0  0  0  0  0  0  0  0
    8.5483  -19.2519   23.1190 O   0  0  0  0  0  0  0  0  0  0  0  0
   10.4784  -18.6280   24.1951 N   0  0  0  0  0  0  0  0  0  0  0  0
   11.6438  -17.8050   23.7445 C   0  0  1  0  0  0  0  0  0  0  0  0
   11.0884  -16.7873   22.7586 C   0  0  0  0  0  0  0  0  0  0  0  0
   11.1547  -17.2674   21.3493 C   0  0  0  0  0  0  0  0  0  0  0  0
   11.7212  -16.2713   20.3803 C   0  0  0  0  0  0  0  0  0  0  0  0
   11.7027  -16.9052   18.9900 C   0  0  0  0  0  0  0  0  0  0  0  0
   10.9744  -16.0587   18.0861 N   0  0  0  0  0  0  0  0  0  0  0  0
   12.2242  -17.2137   24.9526 C   0  0  0  0  0  0  0  0  0  0  0  0
   13.4057  -16.6938   24.8983 O   0  0  0  0  0  0  0  0  0  0  0  0
   11.6071  -17.1472   26.2102 N   0  0  0  0  0  0  0  0  0  0  0  0
   12.3469  -16.7383   27.4191 C   0  0  1  0  0  0  0  0  0  0  0  0
   11.5055  -15.8630   28.2759 C   0  0  0  0  0  0  0  0  0  0  0  0
   10.1899  -15.6172   27.6758 C   0  0  0  0  0  0  0  0  0  0  0  0
    9.1581  -16.5630   27.5766 C   0  0  0  0  0  0  0  0  0  0  0  0
    8.1285  -16.0271   26.9276 N   0  0  0  0  0  0  0  0  0  0  0  0
    8.4199  -14.7640   26.5869 C   0  0  0  0  0  0  0  0  0  0  0  0
    7.7025  -13.7856   25.9334 C   0  0  0  0  0  0  0  0  0  0  0  0
    8.2198  -12.5283   25.7194 C   0  0  0  0  0  0  0  0  0  0  0  0
    9.4961  -12.2664   26.1826 C   0  0  0  0  0  0  0  0  0  0  0  0
   10.2333  -13.2231   26.8355 C   0  0  0  0  0  0  0  0  0  0  0  0
    9.7075  -14.4948   27.0495 C   0  0  0  0  0  0  0  0  0  0  0  0
   12.7881  -17.9325   28.1149 C   0  0  0  0  0  0  0  0  0  0  0  0
   13.4506  -17.8999   29.1768 O   0  0  0  0  0  0  0  0  0  0  0  0
   12.4830  -19.1827   27.6136 O   0  0  0  0  0  0  0  0  0  0  0  0
  2  1  1  1
  3  2  1  0
  4  3  1  0
  4  5  2  0
  6  5  1  0
  7  6  1  0
  8  7  2  0
  9  8  1  0
 10  9  2  0
 10 11  1  0
 11 12  2  0
 12  7  1  0
 12  4  1  0
 13  2  1  0
 13 15  1  0
 14 13  2  0
 16 15  1  0
 16 17  1  6
 18 17  1  0
 19 20  1  0
 19 18  1  0
 21 20  1  0
 22 23  2  0
 22 16  1  0
 24 22  1  0
 25 24  1  0
 25 36  1  0
 25 26  1  1
 27 26  1  0
 28 27  2  0
 29 28  1  0
 30 29  1  0
 30 35  2  0
 31 32  2  0
 31 30  1  0
 32 33  1  0
 33 34  2  0
 35 34  1  0
 35 27  1  0
 36 38  1  0
 37 36  2  0
M  END
$$$$
