WKW.pdb
     RDKit          3D

 38 41  0  0  1  0  0  0  0  0999 V2000
    9.3439  -16.4769   20.5848 N   0  0  0  0  0  0  0  0  0  0  0  0
    8.5233  -15.9582   21.6643 C   0  0  1  0  0  0  0  0  0  0  0  0
    7.1069  -15.8765   21.1139 C   0  0  0  0  0  0  0  0  0  0  0  0
    7.1444  -15.0388   19.8896 C   0  0  0  0  0  0  0  0  0  0  0  0
    6.6510  -15.3207   18.6351 C   0  0  0  0  0  0  0  0  0  0  0  0
    6.8943  -14.2759   17.7989 N   0  0  0  0  0  0  0  0  0  0  0  0
    7.5359  -13.3181   18.4799 C   0  0  0  0  0  0  0  0  0  0  0  0
    7.9987  -12.0846   18.0960 C   0  0  0  0  0  0  0  0  0  0  0  0
    8.6472  -11.2812   19.0393 C   0  0  0  0  0  0  0  0  0  0  0  0
    8.8266  -11.7009   20.3322 C   0  0  0  0  0  0  0  0  0  0  0  0
    8.3478  -12.9463   20.6838 C   0  0  0  0  0  0  0  0  0  0  0  0
    7.7022  -13.7648   19.7710 C   0  0  0  0  0  0  0  0  0  0  0  0
    8.6373  -16.8528   22.8220 C   0  0  0  0  0  0  0  0  0  0  0  0
    7.6877  -16.9524   23.6279 O   0  0  0  0  0  0  0  0  0  0  0  0
    9.8083  -17.6038   23.0351 N   0  0  0  0  0  0  0  0  0  0  0  0
    9.9414  -18.4505   24.2614 C   0  0  1  0  0  0  0  0  0  0  0  0
   11.0154  -19.4828   23.9496 C   0  0  0  0  0  0  0  0  0  0  0  0
   10.7241  -20.2464   22.7033 C   0  0  0  0  0  0  0  0  0  0  0  0
   11.8259  -21.1673   22.2678 C   0  0  0  0  0  0  0  0  0  0  0  0
   11.4065  -21.8102   20.9465 C   0  0  0  0  0  0  0  0  0  0  0  0
   12.4574  -22.6694   20.4758 N   0  0  0  0  0  0  0  0  0  0  0  0
   10.2853  -17.5406   25.3568 C   0  0  0  0  0  0  0  0  0  0  0  0
   11.0490  -16.5256   25.1206 O   0  0  0  0  0  0  0  0  0  0  0  0
    9.8535  -17.6581   26.6858 N   0  0  0  0  0  0  0  0  0  0  0  0
   10.2725  -16.7013   27.7274 C   0  0  1  0  0  0  0  0  0  0  0  0
    9.0903  -16.1633   28.4493 C   0  0  0  0  0  0  0  0  0  0  0  0
    8.1108  -15.5778   27.5280 C   0  0  0  0  0  0  0  0  0  0  0  0
    7.1378  -16.2986   26.8187 C   0  0  0  0  0  0  0  0  0  0  0  0
    6.4581  -15.4682   26.0333 N   0  0  0  0  0  0  0  0  0  0  0  0
    6.9281  -14.2219   26.1828 C   0  0  0  0  0  0  0  0  0  0  0  0
    6.5646  -13.0154   25.6250 C   0  0  0  0  0  0  0  0  0  0  0  0
    7.1960  -11.8405   25.9641 C   0  0  0  0  0  0  0  0  0  0  0  0
    8.2197  -11.9005   26.8918 C   0  0  0  0  0  0  0  0  0  0  0  0
    8.6031  -13.0893   27.4619 C   0  0  0  0  0  0  0  0  0  0  0  0
    7.9628  -14.2766   27.1159 C   0  0  0  0  0  0  0  0  0  0  0  0
   11.2060  -17.3675   28.6161 C   0  0  0  0  0  0  0  0  0  0  0  0
   11.7679  -16.7907   29.5748 O   0  0  0  0  0  0  0  0  0  0  0  0
   11.5152  -18.7004   28.4280 O   0  0  0  0  0  0  0  0  0  0  0  0
  2  1  1  6
  3  2  1  0
  4  3  1  0
  4  5  2  0
  6  5  1  0
  7  6  1  0
  8  7  2  0
  9  8  1  0
 10  9  2  0
 10 11  1  0
 11 12  2  0
 12  7  1  0
 12  4  1  0
 13  2  1  0
 13 15  1  0
 14 13  2  0
 16 15  1  0
 16 17  1  6
 18 17  1  0
 19 20  1  0
 19 18  1  0
 21 20  1  0
 22 23  2  0
 22 16  1  0
 24 22  1  0
 25 24  1  0
 25 36  1  0
 25 26  1  1
 27 26  1  0
 28 27  2  0
 29 28  1  0
 30 29  1  0
 30 35  2  0
 31 32  2  0
 31 30  1  0
 32 33  1  0
 33 34  2  0
 35 34  1  0
 35 27  1  0
 36 38  1  0
 37 36  2  0
M  END
$$$$
