WKW.pdb
     RDKit          3D

 38 41  0  0  1  0  0  0  0  0999 V2000
    6.3699  -17.7504   22.9282 N   0  0  0  0  0  0  0  0  0  0  0  0
    7.5645  -16.9401   22.7728 C   0  0  1  0  0  0  0  0  0  0  0  0
    7.1770  -15.5328   23.2028 C   0  0  0  0  0  0  0  0  0  0  0  0
    6.8610  -14.7560   21.9785 C   0  0  0  0  0  0  0  0  0  0  0  0
    5.6888  -14.7217   21.2563 C   0  0  0  0  0  0  0  0  0  0  0  0
    5.8227  -13.8743   20.2010 N   0  0  0  0  0  0  0  0  0  0  0  0
    7.0566  -13.3546   20.2181 C   0  0  0  0  0  0  0  0  0  0  0  0
    7.6785  -12.4618   19.3820 C   0  0  0  0  0  0  0  0  0  0  0  0
    9.0011  -12.0933   19.6481 C   0  0  0  0  0  0  0  0  0  0  0  0
    9.6822  -12.6041   20.7229 C   0  0  0  0  0  0  0  0  0  0  0  0
    9.0258  -13.4986   21.5432 C   0  0  0  0  0  0  0  0  0  0  0  0
    7.7163  -13.8831   21.3042 C   0  0  0  0  0  0  0  0  0  0  0  0
    8.6393  -17.5136   23.5911 C   0  0  0  0  0  0  0  0  0  0  0  0
    8.3658  -18.0770   24.6723 O   0  0  0  0  0  0  0  0  0  0  0  0
    9.9799  -17.4370   23.1697 N   0  0  0  0  0  0  0  0  0  0  0  0
   11.0611  -18.0568   23.9976 C   0  0  1  0  0  0  0  0  0  0  0  0
   12.2732  -18.1836   23.0861 C   0  0  0  0  0  0  0  0  0  0  0  0
   13.3615  -18.9969   23.6986 C   0  0  0  0  0  0  0  0  0  0  0  0
   14.5897  -19.1324   22.8469 C   0  0  0  0  0  0  0  0  0  0  0  0
   15.5952  -19.9969   23.6061 C   0  0  0  0  0  0  0  0  0  0  0  0
   16.7745  -20.1768   22.8056 N   0  0  0  0  0  0  0  0  0  0  0  0
   11.2644  -17.1684   25.1445 C   0  0  0  0  0  0  0  0  0  0  0  0
   11.8578  -16.0341   24.9694 O   0  0  0  0  0  0  0  0  0  0  0  0
   10.8646  -17.4282   26.4633 N   0  0  0  0  0  0  0  0  0  0  0  0
   11.4534  -16.7113   27.6102 C   0  0  1  0  0  0  0  0  0  0  0  0
   10.8954  -15.3377   27.7105 C   0  0  0  0  0  0  0  0  0  0  0  0
    9.4618  -15.3093   27.4022 C   0  0  0  0  0  0  0  0  0  0  0  0
    8.5718  -16.3760   27.6006 C   0  0  0  0  0  0  0  0  0  0  0  0
    7.3649  -16.0318   27.1610 N   0  0  0  0  0  0  0  0  0  0  0  0
    7.4018  -14.7823   26.6774 C   0  0  0  0  0  0  0  0  0  0  0  0
    6.4353  -13.9644   26.1335 C   0  0  0  0  0  0  0  0  0  0  0  0
    6.7185  -12.6815   25.7233 C   0  0  0  0  0  0  0  0  0  0  0  0
    8.0156  -12.2261   25.8720 C   0  0  0  0  0  0  0  0  0  0  0  0
    8.9982  -13.0204   26.4095 C   0  0  0  0  0  0  0  0  0  0  0  0
    8.7087  -14.3185   26.8226 C   0  0  0  0  0  0  0  0  0  0  0  0
   11.2187  -17.4915   28.8107 C   0  0  0  0  0  0  0  0  0  0  0  0
   10.5940  -18.5765   28.8100 O   0  0  0  0  0  0  0  0  0  0  0  0
   11.6906  -17.0494   30.0311 O   0  0  0  0  0  0  0  0  0  0  0  0
  2  1  1  1
  3  2  1  0
  4  3  1  0
  4  5  2  0
  6  5  1  0
  7  6  1  0
  8  7  2  0
  9  8  1  0
 10  9  2  0
 10 11  1  0
 11 12  2  0
 12  7  1  0
 12  4  1  0
 13  2  1  0
 13 15  1  0
 14 13  2  0
 16 15  1  0
 16 17  1  6
 18 17  1  0
 19 20  1  0
 19 18  1  0
 21 20  1  0
 22 23  2  0
 22 16  1  0
 24 22  1  0
 25 24  1  0
 25 36  1  0
 25 26  1  1
 27 26  1  0
 28 27  2  0
 29 28  1  0
 30 29  1  0
 30 35  2  0
 31 32  2  0
 31 30  1  0
 32 33  1  0
 33 34  2  0
 35 34  1  0
 35 27  1  0
 36 38  1  0
 37 36  2  0
M  END
$$$$
