WKW.pdb
     RDKit          3D

 38 41  0  0  1  0  0  0  0  0999 V2000
    8.8128  -17.5655   18.2171 N   0  0  0  0  0  0  0  0  0  0  0  0
    8.8659  -16.5330   19.2363 C   0  0  1  0  0  0  0  0  0  0  0  0
    7.6194  -15.6827   19.0390 C   0  0  0  0  0  0  0  0  0  0  0  0
    7.9137  -14.3216   19.5517 C   0  0  0  0  0  0  0  0  0  0  0  0
    8.4122  -13.2323   18.8724 C   0  0  0  0  0  0  0  0  0  0  0  0
    8.5298  -12.1751   19.7200 N   0  0  0  0  0  0  0  0  0  0  0  0
    8.1191  -12.5504   20.9380 C   0  0  0  0  0  0  0  0  0  0  0  0
    8.0426  -11.8630   22.1232 C   0  0  0  0  0  0  0  0  0  0  0  0
    7.5667  -12.5244   23.2598 C   0  0  0  0  0  0  0  0  0  0  0  0
    7.1770  -13.8381   23.2110 C   0  0  0  0  0  0  0  0  0  0  0  0
    7.2665  -14.4982   22.0026 C   0  0  0  0  0  0  0  0  0  0  0  0
    7.7348  -13.8696   20.8601 C   0  0  0  0  0  0  0  0  0  0  0  0
    8.9220  -17.1695   20.5574 C   0  0  0  0  0  0  0  0  0  0  0  0
    7.9335  -17.8018   20.9865 O   0  0  0  0  0  0  0  0  0  0  0  0
   10.0817  -17.0766   21.3493 N   0  0  0  0  0  0  0  0  0  0  0  0
   10.2481  -17.9672   22.5400 C   0  0  1  0  0  0  0  0  0  0  0  0
   11.3976  -18.9080   22.2086 C   0  0  0  0  0  0  0  0  0  0  0  0
   11.6971  -19.8526   23.3219 C   0  0  0  0  0  0  0  0  0  0  0  0
   12.9122  -20.7053   23.1023 C   0  0  0  0  0  0  0  0  0  0  0  0
   12.6039  -22.1070   23.6271 C   0  0  0  0  0  0  0  0  0  0  0  0
   12.7249  -22.1209   25.0586 N   0  0  0  0  0  0  0  0  0  0  0  0
   10.5049  -17.0868   23.6822 C   0  0  0  0  0  0  0  0  0  0  0  0
   11.3578  -16.1240   23.5604 O   0  0  0  0  0  0  0  0  0  0  0  0
    9.8965  -17.1806   24.9423 N   0  0  0  0  0  0  0  0  0  0  0  0
   10.3975  -16.4255   26.1063 C   0  0  1  0  0  0  0  0  0  0  0  0
    9.3837  -16.4059   27.1925 C   0  0  0  0  0  0  0  0  0  0  0  0
    8.1199  -15.8104   26.7460 C   0  0  0  0  0  0  0  0  0  0  0  0
    7.0560  -16.5160   26.1633 C   0  0  0  0  0  0  0  0  0  0  0  0
    6.0931  -15.6634   25.8253 N   0  0  0  0  0  0  0  0  0  0  0  0
    6.4597  -14.4171   26.1551 C   0  0  0  0  0  0  0  0  0  0  0  0
    5.8275  -13.1981   26.0397 C   0  0  0  0  0  0  0  0  0  0  0  0
    6.4112  -12.0339   26.4845 C   0  0  0  0  0  0  0  0  0  0  0  0
    7.6665  -12.1177   27.0585 C   0  0  0  0  0  0  0  0  0  0  0  0
    8.3194  -13.3189   27.1846 C   0  0  0  0  0  0  0  0  0  0  0  0
    7.7265  -14.4952   26.7325 C   0  0  0  0  0  0  0  0  0  0  0  0
   11.6523  -17.0159   26.5328 C   0  0  0  0  0  0  0  0  0  0  0  0
   12.3726  -16.5189   27.4283 O   0  0  0  0  0  0  0  0  0  0  0  0
   12.1078  -18.1809   25.9472 O   0  0  0  0  0  0  0  0  0  0  0  0
  2  1  1  6
  3  2  1  0
  4  3  1  0
  4  5  2  0
  6  5  1  0
  7  6  1  0
  8  7  2  0
  9  8  1  0
 10  9  2  0
 10 11  1  0
 11 12  2  0
 12  7  1  0
 12  4  1  0
 13  2  1  0
 13 15  1  0
 14 13  2  0
 16 15  1  0
 16 17  1  6
 18 17  1  0
 19 20  1  0
 19 18  1  0
 21 20  1  0
 22 23  2  0
 22 16  1  0
 24 22  1  0
 25 24  1  0
 25 36  1  0
 25 26  1  1
 27 26  1  0
 28 27  2  0
 29 28  1  0
 30 29  1  0
 30 35  2  0
 31 32  2  0
 31 30  1  0
 32 33  1  0
 33 34  2  0
 35 34  1  0
 35 27  1  0
 36 38  1  0
 37 36  2  0
M  END
$$$$
