WKW.pdb
     RDKit          3D

 38 41  0  0  1  0  0  0  0  0999 V2000
    7.4194  -17.6281   22.4072 N   0  0  0  0  0  0  0  0  0  0  0  0
    8.5502  -16.7610   22.6851 C   0  0  1  0  0  0  0  0  0  0  0  0
    7.9881  -15.5662   23.4415 C   0  0  0  0  0  0  0  0  0  0  0  0
    7.2395  -14.7280   22.4723 C   0  0  0  0  0  0  0  0  0  0  0  0
    5.9245  -14.3217   22.5175 C   0  0  0  0  0  0  0  0  0  0  0  0
    5.6401  -13.5598   21.4273 N   0  0  0  0  0  0  0  0  0  0  0  0
    6.7406  -13.4600   20.6711 C   0  0  0  0  0  0  0  0  0  0  0  0
    6.9723  -12.8108   19.4846 C   0  0  0  0  0  0  0  0  0  0  0  0
    8.2457  -12.8828   18.9110 C   0  0  0  0  0  0  0  0  0  0  0  0
    9.2600  -13.5849   19.5095 C   0  0  0  0  0  0  0  0  0  0  0  0
    8.9919  -14.2248   20.7023 C   0  0  0  0  0  0  0  0  0  0  0  0
    7.7401  -14.1721   21.2940 C   0  0  0  0  0  0  0  0  0  0  0  0
    9.5472  -17.5108   23.4580 C   0  0  0  0  0  0  0  0  0  0  0  0
    9.3155  -17.8106   24.6486 O   0  0  0  0  0  0  0  0  0  0  0  0
   10.7659  -17.8989   22.8707 N   0  0  0  0  0  0  0  0  0  0  0  0
   11.9109  -18.3244   23.7346 C   0  0  1  0  0  0  0  0  0  0  0  0
   13.0963  -18.5221   22.8007 C   0  0  0  0  0  0  0  0  0  0  0  0
   14.2563  -19.1618   23.4834 C   0  0  0  0  0  0  0  0  0  0  0  0
   15.3927  -19.5206   22.5713 C   0  0  0  0  0  0  0  0  0  0  0  0
   16.5866  -19.9139   23.4401 C   0  0  0  0  0  0  0  0  0  0  0  0
   16.6719  -21.3459   23.5189 N   0  0  0  0  0  0  0  0  0  0  0  0
   12.0993  -17.2613   24.7247 C   0  0  0  0  0  0  0  0  0  0  0  0
   12.9448  -16.3145   24.4840 O   0  0  0  0  0  0  0  0  0  0  0  0
   11.4302  -17.1574   25.9528 N   0  0  0  0  0  0  0  0  0  0  0  0
   12.0328  -16.4713   27.1113 C   0  0  1  0  0  0  0  0  0  0  0  0
   11.5075  -15.0863   27.2300 C   0  0  0  0  0  0  0  0  0  0  0  0
   10.0431  -15.0652   27.3101 C   0  0  0  0  0  0  0  0  0  0  0  0
    9.2687  -15.8769   28.1532 C   0  0  0  0  0  0  0  0  0  0  0  0
    7.9790  -15.6421   27.9297 N   0  0  0  0  0  0  0  0  0  0  0  0
    7.8503  -14.7089   26.9763 C   0  0  0  0  0  0  0  0  0  0  0  0
    6.7511  -14.1071   26.4032 C   0  0  0  0  0  0  0  0  0  0  0  0
    6.8782  -13.1345   25.4378 C   0  0  0  0  0  0  0  0  0  0  0  0
    8.1547  -12.7701   25.0506 C   0  0  0  0  0  0  0  0  0  0  0  0
    9.2671  -13.3545   25.6041 C   0  0  0  0  0  0  0  0  0  0  0  0
    9.1351  -14.3392   26.5800 C   0  0  0  0  0  0  0  0  0  0  0  0
   11.7762  -17.2627   28.2999 C   0  0  0  0  0  0  0  0  0  0  0  0
   11.0497  -18.2823   28.2990 O   0  0  0  0  0  0  0  0  0  0  0  0
   12.3418  -16.9064   29.5086 O   0  0  0  0  0  0  0  0  0  0  0  0
  2  1  1  1
  3  2  1  0
  4  3  1  0
  4  5  2  0
  6  5  1  0
  7  6  1  0
  8  7  2  0
  9  8  1  0
 10  9  2  0
 10 11  1  0
 11 12  2  0
 12  7  1  0
 12  4  1  0
 13  2  1  0
 13 15  1  0
 14 13  2  0
 16 15  1  0
 16 17  1  6
 18 17  1  0
 19 20  1  0
 19 18  1  0
 21 20  1  0
 22 23  2  0
 22 16  1  0
 24 22  1  0
 25 24  1  0
 25 36  1  0
 25 26  1  1
 27 26  1  0
 28 27  2  0
 29 28  1  0
 30 29  1  0
 30 35  2  0
 31 32  2  0
 31 30  1  0
 32 33  1  0
 33 34  2  0
 35 34  1  0
 35 27  1  0
 36 38  1  0
 37 36  2  0
M  END
$$$$
