WKW.pdb
     RDKit          3D

 38 41  0  0  1  0  0  0  0  0999 V2000
    5.8169  -17.6815   24.2613 N   0  0  0  0  0  0  0  0  0  0  0  0
    6.8756  -16.7774   23.8498 C   0  0  1  0  0  0  0  0  0  0  0  0
    7.5055  -16.2557   25.1331 C   0  0  0  0  0  0  0  0  0  0  0  0
    6.6953  -15.1032   25.5993 C   0  0  0  0  0  0  0  0  0  0  0  0
    5.7010  -15.0758   26.5517 C   0  0  0  0  0  0  0  0  0  0  0  0
    5.2168  -13.8109   26.6759 N   0  0  0  0  0  0  0  0  0  0  0  0
    5.8731  -13.0118   25.8253 C   0  0  0  0  0  0  0  0  0  0  0  0
    5.7596  -11.6685   25.5689 C   0  0  0  0  0  0  0  0  0  0  0  0
    6.5918  -11.0905   24.6050 C   0  0  0  0  0  0  0  0  0  0  0  0
    7.5135  -11.8371   23.9171 C   0  0  0  0  0  0  0  0  0  0  0  0
    7.6012  -13.1845   24.2010 C   0  0  0  0  0  0  0  0  0  0  0  0
    6.7895  -13.7851   25.1499 C   0  0  0  0  0  0  0  0  0  0  0  0
    7.8244  -17.5087   23.0021 C   0  0  0  0  0  0  0  0  0  0  0  0
    8.2357  -18.6344   23.3554 O   0  0  0  0  0  0  0  0  0  0  0  0
    8.2772  -16.9548   21.7901 N   0  0  0  0  0  0  0  0  0  0  0  0
    9.6112  -17.3492   21.2394 C   0  0  1  0  0  0  0  0  0  0  0  0
    9.6668  -16.7933   19.8237 C   0  0  0  0  0  0  0  0  0  0  0  0
   10.8607  -17.2734   19.0718 C   0  0  0  0  0  0  0  0  0  0  0  0
   10.9386  -16.7864   17.6545 C   0  0  0  0  0  0  0  0  0  0  0  0
   12.2090  -17.3611   17.0292 C   0  0  0  0  0  0  0  0  0  0  0  0
   12.3628  -16.8474   15.6963 N   0  0  0  0  0  0  0  0  0  0  0  0
   10.6154  -16.7848   22.1444 C   0  0  0  0  0  0  0  0  0  0  0  0
   10.8509  -15.5147   22.1159 O   0  0  0  0  0  0  0  0  0  0  0  0
   11.3755  -17.5055   23.0769 N   0  0  0  0  0  0  0  0  0  0  0  0
   12.5107  -16.8943   23.7938 C   0  0  1  0  0  0  0  0  0  0  0  0
   12.5250  -17.3267   25.2154 C   0  0  0  0  0  0  0  0  0  0  0  0
   11.3678  -16.8087   25.9529 C   0  0  0  0  0  0  0  0  0  0  0  0
   10.0325  -17.1715   25.7186 C   0  0  0  0  0  0  0  0  0  0  0  0
    9.2372  -16.4720   26.5227 N   0  0  0  0  0  0  0  0  0  0  0  0
    9.9761  -15.6567   27.2881 C   0  0  0  0  0  0  0  0  0  0  0  0
    9.6479  -14.7572   28.2791 C   0  0  0  0  0  0  0  0  0  0  0  0
   10.6090  -14.0389   28.9532 C   0  0  0  0  0  0  0  0  0  0  0  0
   11.9319  -14.2442   28.6070 C   0  0  0  0  0  0  0  0  0  0  0  0
   12.2866  -15.1331   27.6225 C   0  0  0  0  0  0  0  0  0  0  0  0
   11.3116  -15.8577   26.9414 C   0  0  0  0  0  0  0  0  0  0  0  0
   13.7356  -17.2424   23.0986 C   0  0  0  0  0  0  0  0  0  0  0  0
   13.7664  -18.0093   22.1094 O   0  0  0  0  0  0  0  0  0  0  0  0
   14.9451  -16.7238   23.5180 O   0  0  0  0  0  0  0  0  0  0  0  0
  2  1  1  1
  3  2  1  0
  4  3  1  0
  4  5  2  0
  6  5  1  0
  7  6  1  0
  8  7  2  0
  9  8  1  0
 10  9  2  0
 10 11  1  0
 11 12  2  0
 12  7  1  0
 12  4  1  0
 13  2  1  0
 13 15  1  0
 14 13  2  0
 16 15  1  0
 16 17  1  6
 18 17  1  0
 19 20  1  0
 19 18  1  0
 21 20  1  0
 22 23  2  0
 22 16  1  0
 24 22  1  0
 25 24  1  0
 25 36  1  0
 25 26  1  1
 27 26  1  0
 28 27  2  0
 29 28  1  0
 30 29  1  0
 30 35  2  0
 31 32  2  0
 31 30  1  0
 32 33  1  0
 33 34  2  0
 35 34  1  0
 35 27  1  0
 36 38  1  0
 37 36  2  0
M  END
$$$$
