WKW.pdb
     RDKit          3D

 38 41  0  0  1  0  0  0  0  0999 V2000
    6.0880  -18.7308   23.7830 N   0  0  0  0  0  0  0  0  0  0  0  0
    6.7837  -17.4600   23.8767 C   0  0  1  0  0  0  0  0  0  0  0  0
    7.4277  -17.4338   25.2552 C   0  0  0  0  0  0  0  0  0  0  0  0
    6.9881  -16.1911   25.9369 C   0  0  0  0  0  0  0  0  0  0  0  0
    5.8788  -15.9859   26.7269 C   0  0  0  0  0  0  0  0  0  0  0  0
    5.8519  -14.6959   27.1570 N   0  0  0  0  0  0  0  0  0  0  0  0
    6.9192  -14.0542   26.6650 C   0  0  0  0  0  0  0  0  0  0  0  0
    7.3424  -12.7561   26.8024 C   0  0  0  0  0  0  0  0  0  0  0  0
    8.5181  -12.3558   26.1596 C   0  0  0  0  0  0  0  0  0  0  0  0
    9.2508  -13.2315   25.4005 C   0  0  0  0  0  0  0  0  0  0  0  0
    8.7963  -14.5292   25.2848 C   0  0  0  0  0  0  0  0  0  0  0  0
    7.6349  -14.9546   25.9092 C   0  0  0  0  0  0  0  0  0  0  0  0
    7.7612  -17.3700   22.7859 C   0  0  0  0  0  0  0  0  0  0  0  0
    8.4002  -18.3854   22.4369 O   0  0  0  0  0  0  0  0  0  0  0  0
    7.9873  -16.1483   22.1248 N   0  0  0  0  0  0  0  0  0  0  0  0
    9.0733  -16.0412   21.1013 C   0  0  1  0  0  0  0  0  0  0  0  0
    8.7001  -14.8666   20.2083 C   0  0  0  0  0  0  0  0  0  0  0  0
    7.8804  -15.2832   19.0353 C   0  0  0  0  0  0  0  0  0  0  0  0
    8.4598  -16.4202   18.2457 C   0  0  0  0  0  0  0  0  0  0  0  0
    7.5280  -16.6965   17.0665 C   0  0  0  0  0  0  0  0  0  0  0  0
    8.0210  -17.8192   16.3179 N   0  0  0  0  0  0  0  0  0  0  0  0
   10.3233  -15.8566   21.8424 C   0  0  0  0  0  0  0  0  0  0  0  0
   10.9634  -14.7393   21.7360 O   0  0  0  0  0  0  0  0  0  0  0  0
   10.9200  -16.8004   22.6908 N   0  0  0  0  0  0  0  0  0  0  0  0
   12.1575  -16.5035   23.4367 C   0  0  1  0  0  0  0  0  0  0  0  0
   11.9686  -15.3178   24.3123 C   0  0  0  0  0  0  0  0  0  0  0  0
   11.2822  -15.6675   25.5604 C   0  0  0  0  0  0  0  0  0  0  0  0
   11.0193  -16.9745   25.9986 C   0  0  0  0  0  0  0  0  0  0  0  0
   10.3321  -16.9290   27.1362 N   0  0  0  0  0  0  0  0  0  0  0  0
   10.1220  -15.6518   27.4840 C   0  0  0  0  0  0  0  0  0  0  0  0
    9.4929  -15.0711   28.5639 C   0  0  0  0  0  0  0  0  0  0  0  0
    9.4270  -13.7048   28.7157 C   0  0  0  0  0  0  0  0  0  0  0  0
   10.0159  -12.9167   27.7440 C   0  0  0  0  0  0  0  0  0  0  0  0
   10.6477  -13.4690   26.6573 C   0  0  0  0  0  0  0  0  0  0  0  0
   10.7117  -14.8519   26.5060 C   0  0  0  0  0  0  0  0  0  0  0  0
   12.5398  -17.6866   24.1844 C   0  0  0  0  0  0  0  0  0  0  0  0
   13.6288  -17.7885   24.7936 O   0  0  0  0  0  0  0  0  0  0  0  0
   11.6892  -18.7728   24.2506 O   0  0  0  0  0  0  0  0  0  0  0  0
  2  1  1  6
  3  2  1  0
  4  3  1  0
  4  5  2  0
  6  5  1  0
  7  6  1  0
  8  7  2  0
  9  8  1  0
 10  9  2  0
 10 11  1  0
 11 12  2  0
 12  7  1  0
 12  4  1  0
 13  2  1  0
 13 15  1  0
 14 13  2  0
 16 15  1  0
 16 17  1  6
 18 17  1  0
 19 20  1  0
 19 18  1  0
 21 20  1  0
 22 23  2  0
 22 16  1  0
 24 22  1  0
 25 24  1  0
 25 36  1  0
 25 26  1  1
 27 26  1  0
 28 27  2  0
 29 28  1  0
 30 29  1  0
 30 35  2  0
 31 32  2  0
 31 30  1  0
 32 33  1  0
 33 34  2  0
 35 34  1  0
 35 27  1  0
 36 38  1  0
 37 36  2  0
M  END
$$$$
