WKW.pdb
     RDKit          3D

 38 41  0  0  1  0  0  0  0  0999 V2000
    8.8532  -16.9798   20.6989 N   0  0  0  0  0  0  0  0  0  0  0  0
    8.8721  -16.2332   21.9439 C   0  0  1  0  0  0  0  0  0  0  0  0
    7.4453  -15.7546   22.1689 C   0  0  0  0  0  0  0  0  0  0  0  0
    7.0305  -14.9867   20.9687 C   0  0  0  0  0  0  0  0  0  0  0  0
    5.9571  -15.2033   20.1336 C   0  0  0  0  0  0  0  0  0  0  0  0
    5.9403  -14.2624   19.1516 N   0  0  0  0  0  0  0  0  0  0  0  0
    6.9794  -13.4363   19.3271 C   0  0  0  0  0  0  0  0  0  0  0  0
    7.4000  -12.3409   18.6157 C   0  0  0  0  0  0  0  0  0  0  0  0
    8.5449  -11.6580   19.0382 C   0  0  0  0  0  0  0  0  0  0  0  0
    9.2492  -12.0603   20.1438 C   0  0  0  0  0  0  0  0  0  0  0  0
    8.7973  -13.1651   20.8359 C   0  0  0  0  0  0  0  0  0  0  0  0
    7.6670  -13.8623   20.4407 C   0  0  0  0  0  0  0  0  0  0  0  0
    9.3589  -17.1080   23.0170 C   0  0  0  0  0  0  0  0  0  0  0  0
    8.5682  -17.5176   23.8934 O   0  0  0  0  0  0  0  0  0  0  0  0
   10.7114  -17.4933   23.0697 N   0  0  0  0  0  0  0  0  0  0  0  0
   11.2142  -18.3036   24.2227 C   0  0  1  0  0  0  0  0  0  0  0  0
   12.5344  -18.9109   23.7705 C   0  0  0  0  0  0  0  0  0  0  0  0
   13.1496  -19.7754   24.8171 C   0  0  0  0  0  0  0  0  0  0  0  0
   14.4318  -20.4354   24.4021 C   0  0  0  0  0  0  0  0  0  0  0  0
   14.8712  -21.3627   25.5344 C   0  0  0  0  0  0  0  0  0  0  0  0
   16.0284  -22.1080   25.1229 N   0  0  0  0  0  0  0  0  0  0  0  0
   11.3355  -17.3814   25.3544 C   0  0  0  0  0  0  0  0  0  0  0  0
   12.0405  -16.3067   25.2228 O   0  0  0  0  0  0  0  0  0  0  0  0
   10.7414  -17.5472   26.6139 N   0  0  0  0  0  0  0  0  0  0  0  0
   11.0525  -16.6524   27.7446 C   0  0  1  0  0  0  0  0  0  0  0  0
   10.6707  -15.2526   27.4241 C   0  0  0  0  0  0  0  0  0  0  0  0
    9.2327  -15.1273   27.1634 C   0  0  0  0  0  0  0  0  0  0  0  0
    8.3375  -16.2011   27.0420 C   0  0  0  0  0  0  0  0  0  0  0  0
    7.1267  -15.7357   26.7488 N   0  0  0  0  0  0  0  0  0  0  0  0
    7.1661  -14.3983   26.6690 C   0  0  0  0  0  0  0  0  0  0  0  0
    6.1980  -13.4506   26.4170 C   0  0  0  0  0  0  0  0  0  0  0  0
    6.4850  -12.1046   26.4130 C   0  0  0  0  0  0  0  0  0  0  0  0
    7.7879  -11.7201   26.6716 C   0  0  0  0  0  0  0  0  0  0  0  0
    8.7722  -12.6433   26.9243 C   0  0  0  0  0  0  0  0  0  0  0  0
    8.4788  -14.0047   26.9266 C   0  0  0  0  0  0  0  0  0  0  0  0
   10.3762  -17.1521   28.9269 C   0  0  0  0  0  0  0  0  0  0  0  0
   10.3824  -16.5496   30.0244 O   0  0  0  0  0  0  0  0  0  0  0  0
    9.6825  -18.3455   28.8796 O   0  0  0  0  0  0  0  0  0  0  0  0
  2  1  1  6
  3  2  1  0
  4  3  1  0
  4  5  2  0
  6  5  1  0
  7  6  1  0
  8  7  2  0
  9  8  1  0
 10  9  2  0
 10 11  1  0
 11 12  2  0
 12  7  1  0
 12  4  1  0
 13  2  1  0
 13 15  1  0
 14 13  2  0
 16 15  1  0
 16 17  1  6
 18 17  1  0
 19 20  1  0
 19 18  1  0
 21 20  1  0
 22 23  2  0
 22 16  1  0
 24 22  1  0
 25 24  1  0
 25 36  1  0
 25 26  1  6
 27 26  1  0
 28 27  2  0
 29 28  1  0
 30 29  1  0
 30 35  2  0
 31 32  2  0
 31 30  1  0
 32 33  1  0
 33 34  2  0
 35 34  1  0
 35 27  1  0
 36 38  1  0
 37 36  2  0
M  END
$$$$
