WKW.pdb
     RDKit          3D

 38 41  0  0  1  0  0  0  0  0999 V2000
    7.7226  -18.4941   22.2191 N   0  0  0  0  0  0  0  0  0  0  0  0
    8.5323  -17.3079   22.4315 C   0  0  1  0  0  0  0  0  0  0  0  0
    7.6657  -16.3444   23.2291 C   0  0  0  0  0  0  0  0  0  0  0  0
    7.0009  -15.4307   22.2671 C   0  0  0  0  0  0  0  0  0  0  0  0
    5.6673  -15.3509   21.9326 C   0  0  0  0  0  0  0  0  0  0  0  0
    5.4823  -14.3710   21.0077 N   0  0  0  0  0  0  0  0  0  0  0  0
    6.6658  -13.8093   20.7309 C   0  0  0  0  0  0  0  0  0  0  0  0
    7.0119  -12.7930   19.8762 C   0  0  0  0  0  0  0  0  0  0  0  0
    8.3539  -12.4095   19.7887 C   0  0  0  0  0  0  0  0  0  0  0  0
    9.3231  -13.0260   20.5375 C   0  0  0  0  0  0  0  0  0  0  0  0
    8.9394  -14.0432   21.3871 C   0  0  0  0  0  0  0  0  0  0  0  0
    7.6178  -14.4456   21.4943 C   0  0  0  0  0  0  0  0  0  0  0  0
    9.7618  -17.6898   23.1358 C   0  0  0  0  0  0  0  0  0  0  0  0
    9.7737  -18.7072   23.8610 O   0  0  0  0  0  0  0  0  0  0  0  0
   10.9328  -16.9207   23.0023 N   0  0  0  0  0  0  0  0  0  0  0  0
   12.2131  -17.3944   23.6148 C   0  0  1  0  0  0  0  0  0  0  0  0
   13.3301  -16.6757   22.8719 C   0  0  0  0  0  0  0  0  0  0  0  0
   14.6827  -17.1025   23.3296 C   0  0  0  0  0  0  0  0  0  0  0  0
   15.6397  -17.4269   22.2202 C   0  0  0  0  0  0  0  0  0  0  0  0
   16.9425  -17.9163   22.8513 C   0  0  0  0  0  0  0  0  0  0  0  0
   17.8265  -18.3890   21.8221 N   0  0  0  0  0  0  0  0  0  0  0  0
   12.1351  -17.0676   25.0407 C   0  0  0  0  0  0  0  0  0  0  0  0
   13.1344  -17.3481   25.8101 O   0  0  0  0  0  0  0  0  0  0  0  0
   11.0489  -16.4558   25.6829 N   0  0  0  0  0  0  0  0  0  0  0  0
   11.1069  -16.0604   27.1029 C   0  0  1  0  0  0  0  0  0  0  0  0
   10.2890  -14.8427   27.3403 C   0  0  0  0  0  0  0  0  0  0  0  0
    8.8935  -15.0371   26.9329 C   0  0  0  0  0  0  0  0  0  0  0  0
    8.2252  -16.2707   26.9033 C   0  0  0  0  0  0  0  0  0  0  0  0
    6.9948  -16.0952   26.4303 N   0  0  0  0  0  0  0  0  0  0  0  0
    6.8043  -14.8002   26.1418 C   0  0  0  0  0  0  0  0  0  0  0  0
    5.7199  -14.1035   25.6543 C   0  0  0  0  0  0  0  0  0  0  0  0
    5.7606  -12.7414   25.4616 C   0  0  0  0  0  0  0  0  0  0  0  0
    6.9334  -12.0786   25.7733 C   0  0  0  0  0  0  0  0  0  0  0  0
    8.0292  -12.7483   26.2590 C   0  0  0  0  0  0  0  0  0  0  0  0
    7.9852  -14.1268   26.4519 C   0  0  0  0  0  0  0  0  0  0  0  0
   10.6724  -17.1836   27.9119 C   0  0  0  0  0  0  0  0  0  0  0  0
   10.5937  -17.1372   29.1606 O   0  0  0  0  0  0  0  0  0  0  0  0
   10.3210  -18.3776   27.3132 O   0  0  0  0  0  0  0  0  0  0  0  0
  2  1  1  1
  3  2  1  0
  4  3  1  0
  4  5  2  0
  6  5  1  0
  7  6  1  0
  8  7  2  0
  9  8  1  0
 10  9  2  0
 10 11  1  0
 11 12  2  0
 12  7  1  0
 12  4  1  0
 13  2  1  0
 13 15  1  0
 14 13  2  0
 16 15  1  0
 16 17  1  6
 18 17  1  0
 19 20  1  0
 19 18  1  0
 21 20  1  0
 22 23  2  0
 22 16  1  0
 24 22  1  0
 25 24  1  0
 25 36  1  0
 25 26  1  6
 27 26  1  0
 28 27  2  0
 29 28  1  0
 30 29  1  0
 30 35  2  0
 31 32  2  0
 31 30  1  0
 32 33  1  0
 33 34  2  0
 35 34  1  0
 35 27  1  0
 36 38  1  0
 37 36  2  0
M  END
$$$$
