WKW.pdb
     RDKit          3D

 38 41  0  0  1  0  0  0  0  0999 V2000
    6.4526  -17.2145   24.3683 N   0  0  0  0  0  0  0  0  0  0  0  0
    7.3154  -16.0944   24.0385 C   0  0  1  0  0  0  0  0  0  0  0  0
    7.7989  -15.5307   25.3667 C   0  0  0  0  0  0  0  0  0  0  0  0
    6.7110  -14.6897   25.9248 C   0  0  0  0  0  0  0  0  0  0  0  0
    5.6785  -15.0557   26.7593 C   0  0  0  0  0  0  0  0  0  0  0  0
    4.9024  -13.9730   27.0340 N   0  0  0  0  0  0  0  0  0  0  0  0
    5.4054  -12.9082   26.3969 C   0  0  0  0  0  0  0  0  0  0  0  0
    4.9950  -11.5996   26.3498 C   0  0  0  0  0  0  0  0  0  0  0  0
    5.7283  -10.6873   25.5844 C   0  0  0  0  0  0  0  0  0  0  0  0
    6.8429  -11.0744   24.8859 C   0  0  0  0  0  0  0  0  0  0  0  0
    7.2274  -12.3977   24.9567 C   0  0  0  0  0  0  0  0  0  0  0  0
    6.5204  -13.3244   25.7058 C   0  0  0  0  0  0  0  0  0  0  0  0
    8.4105  -16.5710   23.1858 C   0  0  0  0  0  0  0  0  0  0  0  0
    8.8800  -17.7162   23.3571 O   0  0  0  0  0  0  0  0  0  0  0  0
    8.9393  -15.7501   22.1724 N   0  0  0  0  0  0  0  0  0  0  0  0
   10.1410  -16.1950   21.3999 C   0  0  1  0  0  0  0  0  0  0  0  0
   10.2514  -15.2544   20.2085 C   0  0  0  0  0  0  0  0  0  0  0  0
    8.9609  -15.1107   19.4771 C   0  0  0  0  0  0  0  0  0  0  0  0
    8.9883  -14.1080   18.3610 C   0  0  0  0  0  0  0  0  0  0  0  0
    7.5777  -14.0110   17.7814 C   0  0  0  0  0  0  0  0  0  0  0  0
    7.5820  -13.1198   16.6545 N   0  0  0  0  0  0  0  0  0  0  0  0
   11.2753  -16.1265   22.3243 C   0  0  0  0  0  0  0  0  0  0  0  0
   11.8862  -15.0008   22.4947 O   0  0  0  0  0  0  0  0  0  0  0  0
   11.7861  -17.1950   23.0753 N   0  0  0  0  0  0  0  0  0  0  0  0
   13.1697  -17.1951   23.5868 C   0  0  1  0  0  0  0  0  0  0  0  0
   13.3056  -16.2522   24.7272 C   0  0  0  0  0  0  0  0  0  0  0  0
   12.3217  -16.5265   25.7797 C   0  0  0  0  0  0  0  0  0  0  0  0
   11.9580  -17.8042   26.2321 C   0  0  0  0  0  0  0  0  0  0  0  0
   11.0008  -17.6923   27.1485 N   0  0  0  0  0  0  0  0  0  0  0  0
   10.7051  -16.3983   27.3343 C   0  0  0  0  0  0  0  0  0  0  0  0
    9.8177  -15.7556   28.1700 C   0  0  0  0  0  0  0  0  0  0  0  0
    9.7116  -14.3838   28.1975 C   0  0  0  0  0  0  0  0  0  0  0  0
   10.5289  -13.6545   27.3536 C   0  0  0  0  0  0  0  0  0  0  0  0
   11.4208  -14.2693   26.5098 C   0  0  0  0  0  0  0  0  0  0  0  0
   11.5250  -15.6579   26.4836 C   0  0  0  0  0  0  0  0  0  0  0  0
   13.5270  -18.5540   23.9485 C   0  0  0  0  0  0  0  0  0  0  0  0
   12.7227  -19.5116   23.8886 O   0  0  0  0  0  0  0  0  0  0  0  0
   14.8048  -18.8449   24.3845 O   0  0  0  0  0  0  0  0  0  0  0  0
  2  1  1  1
  3  2  1  0
  4  3  1  0
  4  5  2  0
  6  5  1  0
  7  6  1  0
  8  7  2  0
  9  8  1  0
 10  9  2  0
 10 11  1  0
 11 12  2  0
 12  7  1  0
 12  4  1  0
 13  2  1  0
 13 15  1  0
 14 13  2  0
 16 15  1  0
 16 17  1  6
 18 17  1  0
 19 20  1  0
 19 18  1  0
 21 20  1  0
 22 23  2  0
 22 16  1  0
 24 22  1  0
 25 24  1  0
 25 36  1  0
 25 26  1  1
 27 26  1  0
 28 27  2  0
 29 28  1  0
 30 29  1  0
 30 35  2  0
 31 32  2  0
 31 30  1  0
 32 33  1  0
 33 34  2  0
 35 34  1  0
 35 27  1  0
 36 38  1  0
 37 36  2  0
M  END
$$$$
