FWK.pdb
     RDKit          3D

 35 37  0  0  1  0  0  0  0  0999 V2000
   27.8756  -21.9052  -15.8549 N   0  0  0  0  0  0  0  0  0  0  0  0
   26.7747  -21.0639  -15.4827 C   0  0  1  0  0  0  0  0  0  0  0  0
   25.7198  -21.0095  -16.5715 C   0  0  0  0  0  0  0  0  0  0  0  0
   26.0848  -19.9588  -17.5479 C   0  0  0  0  0  0  0  0  0  0  0  0
   26.6694  -20.2354  -18.7521 C   0  0  0  0  0  0  0  0  0  0  0  0
   26.9965  -19.2382  -19.6374 C   0  0  0  0  0  0  0  0  0  0  0  0
   26.7270  -17.9256  -19.2994 C   0  0  0  0  0  0  0  0  0  0  0  0
   26.1308  -17.6236  -18.0749 C   0  0  0  0  0  0  0  0  0  0  0  0
   25.8167  -18.6550  -17.2113 C   0  0  0  0  0  0  0  0  0  0  0  0
   26.0997  -21.5731  -14.2468 C   0  0  0  0  0  0  0  0  0  0  0  0
   25.7981  -22.7885  -14.1403 O   0  0  0  0  0  0  0  0  0  0  0  0
   25.8145  -20.6471  -13.2096 N   0  0  0  0  0  0  0  0  0  0  0  0
   25.0590  -21.0499  -12.0367 C   0  0  1  0  0  0  0  0  0  0  0  0
   25.4604  -20.1463  -10.8887 C   0  0  0  0  0  0  0  0  0  0  0  0
   26.7489  -20.6130  -10.3509 C   0  0  0  0  0  0  0  0  0  0  0  0
   27.6876  -21.3700  -10.9950 C   0  0  0  0  0  0  0  0  0  0  0  0
   28.7016  -21.5673  -10.1412 N   0  0  0  0  0  0  0  0  0  0  0  0
   28.4588  -20.9639   -8.9565 C   0  0  0  0  0  0  0  0  0  0  0  0
   29.1749  -20.8736   -7.7808 C   0  0  0  0  0  0  0  0  0  0  0  0
   28.6873  -20.1754   -6.6856 C   0  0  0  0  0  0  0  0  0  0  0  0
   27.4524  -19.5792   -6.8363 C   0  0  0  0  0  0  0  0  0  0  0  0
   26.7278  -19.6592   -7.9976 C   0  0  0  0  0  0  0  0  0  0  0  0
   27.2217  -20.3591   -9.0889 C   0  0  0  0  0  0  0  0  0  0  0  0
   23.5934  -20.8682  -12.2836 C   0  0  0  0  0  0  0  0  0  0  0  0
   23.1437  -19.9054  -12.9360 O   0  0  0  0  0  0  0  0  0  0  0  0
   22.7063  -21.8208  -11.7575 N   0  0  0  0  0  0  0  0  0  0  0  0
   21.2520  -21.7856  -11.9587 C   0  0  1  0  0  0  0  0  0  0  0  0
   20.7269  -23.0921  -11.4342 C   0  0  0  0  0  0  0  0  0  0  0  0
   19.2497  -23.2395  -11.5328 C   0  0  0  0  0  0  0  0  0  0  0  0
   18.7490  -24.5855  -11.0679 C   0  0  0  0  0  0  0  0  0  0  0  0
   17.2358  -24.6455  -11.2333 C   0  0  0  0  0  0  0  0  0  0  0  0
   16.6993  -25.8782  -10.6873 N   0  0  0  0  0  0  0  0  0  0  0  0
   20.7435  -20.6185  -11.2359 C   0  0  0  0  0  0  0  0  0  0  0  0
   19.5675  -19.9695  -11.5789 O   0  0  0  0  0  0  0  0  0  0  0  0
   21.3930  -20.1735  -10.2570 O   0  0  0  0  0  0  0  0  0  0  0  0
  2  1  1  6
  2  3  1  0
  3  4  1  0
  4  5  2  0
  5  6  1  0
  7  6  2  0
  8  7  1  0
  9  8  2  0
  9  4  1  0
 10  2  1  0
 11 10  2  0
 12 10  1  0
 13 12  1  0
 13 14  1  1
 14 15  1  0
 15 23  1  0
 15 16  2  0
 16 17  1  0
 18 19  2  0
 18 17  1  0
 20 19  1  0
 21 20  2  0
 22 21  1  0
 22 23  2  0
 23 18  1  0
 24 26  1  0
 24 13  1  0
 25 24  2  0
 27 33  1  0
 27 26  1  0
 27 28  1  1
 28 29  1  0
 29 30  1  0
 31 30  1  0
 32 31  1  0
 33 34  1  0
 35 33  2  0
M  END
$$$$
