FWK.pdb
     RDKit          3D

 35 37  0  0  1  0  0  0  0  0999 V2000
   23.9446  -20.4513   -9.1756 N   0  0  0  0  0  0  0  0  0  0  0  0
   25.2593  -20.2160   -9.6997 C   0  0  1  0  0  0  0  0  0  0  0  0
   26.2024  -21.3596   -9.3777 C   0  0  0  0  0  0  0  0  0  0  0  0
   27.1336  -20.9338   -8.3091 C   0  0  0  0  0  0  0  0  0  0  0  0
   28.4926  -21.0087   -8.4355 C   0  0  0  0  0  0  0  0  0  0  0  0
   29.3310  -20.6056   -7.4257 C   0  0  0  0  0  0  0  0  0  0  0  0
   28.7844  -20.1133   -6.2559 C   0  0  0  0  0  0  0  0  0  0  0  0
   27.3997  -20.0292   -6.1082 C   0  0  0  0  0  0  0  0  0  0  0  0
   26.5897  -20.4448   -7.1472 C   0  0  0  0  0  0  0  0  0  0  0  0
   25.2301  -20.0815  -11.1908 C   0  0  0  0  0  0  0  0  0  0  0  0
   24.2678  -20.5444  -11.8535 O   0  0  0  0  0  0  0  0  0  0  0  0
   26.3143  -19.4205  -11.8250 N   0  0  0  0  0  0  0  0  0  0  0  0
   26.1937  -18.9251  -13.1848 C   0  0  1  0  0  0  0  0  0  0  0  0
   27.5034  -18.2616  -13.5587 C   0  0  0  0  0  0  0  0  0  0  0  0
   27.3302  -17.5718  -14.8477 C   0  0  0  0  0  0  0  0  0  0  0  0
   26.5281  -16.4957  -15.1077 C   0  0  0  0  0  0  0  0  0  0  0  0
   26.6695  -16.1914  -16.4052 N   0  0  0  0  0  0  0  0  0  0  0  0
   27.5393  -17.0336  -17.0059 C   0  0  0  0  0  0  0  0  0  0  0  0
   28.0121  -17.1359  -18.2979 C   0  0  0  0  0  0  0  0  0  0  0  0
   28.9239  -18.1162  -18.6618 C   0  0  0  0  0  0  0  0  0  0  0  0
   29.3299  -18.9791  -17.6649 C   0  0  0  0  0  0  0  0  0  0  0  0
   28.8700  -18.8913  -16.3762 C   0  0  0  0  0  0  0  0  0  0  0  0
   27.9582  -17.9084  -16.0195 C   0  0  0  0  0  0  0  0  0  0  0  0
   25.9622  -20.0655  -14.1271 C   0  0  0  0  0  0  0  0  0  0  0  0
   26.6351  -21.1143  -14.0794 O   0  0  0  0  0  0  0  0  0  0  0  0
   24.9505  -19.9371  -15.0920 N   0  0  0  0  0  0  0  0  0  0  0  0
   24.6315  -20.9688  -16.0874 C   0  0  1  0  0  0  0  0  0  0  0  0
   23.2298  -21.4187  -15.7868 C   0  0  0  0  0  0  0  0  0  0  0  0
   22.7169  -22.4714  -16.7046 C   0  0  0  0  0  0  0  0  0  0  0  0
   21.3408  -22.9703  -16.3357 C   0  0  0  0  0  0  0  0  0  0  0  0
   20.8883  -24.0048  -17.3583 C   0  0  0  0  0  0  0  0  0  0  0  0
   19.6209  -24.5984  -16.9749 N   0  0  0  0  0  0  0  0  0  0  0  0
   24.7781  -20.3553  -17.4084 C   0  0  0  0  0  0  0  0  0  0  0  0
   25.4622  -20.9598  -18.4516 O   0  0  0  0  0  0  0  0  0  0  0  0
   24.2650  -19.2284  -17.6207 O   0  0  0  0  0  0  0  0  0  0  0  0
  2  1  1  6
  2  3  1  0
  3  4  1  0
  4  5  2  0
  5  6  1  0
  7  6  2  0
  8  7  1  0
  9  8  2  0
  9  4  1  0
 10  2  1  0
 11 10  2  0
 12 10  1  0
 13 12  1  0
 13 14  1  6
 14 15  1  0
 15 23  1  0
 15 16  2  0
 16 17  1  0
 18 19  2  0
 18 17  1  0
 20 19  1  0
 21 20  2  0
 22 21  1  0
 22 23  2  0
 23 18  1  0
 24 26  1  0
 24 13  1  0
 25 24  2  0
 27 33  1  0
 27 26  1  0
 27 28  1  1
 28 29  1  0
 29 30  1  0
 31 30  1  0
 32 31  1  0
 33 34  1  0
 35 33  2  0
M  END
$$$$
