FWK.pdb
     RDKit          3D

 35 37  0  0  1  0  0  0  0  0999 V2000
   25.7606  -19.1288  -17.8720 N   0  0  0  0  0  0  0  0  0  0  0  0
   24.4975  -18.8930  -17.2337 C   0  0  1  0  0  0  0  0  0  0  0  0
   23.3442  -19.0266  -18.2100 C   0  0  0  0  0  0  0  0  0  0  0  0
   23.3255  -17.8461  -19.1024 C   0  0  0  0  0  0  0  0  0  0  0  0
   23.8212  -17.8704  -20.3760 C   0  0  0  0  0  0  0  0  0  0  0  0
   23.7894  -16.7581  -21.1803 C   0  0  0  0  0  0  0  0  0  0  0  0
   23.2428  -15.5887  -20.6871 C   0  0  0  0  0  0  0  0  0  0  0  0
   22.7318  -15.5443  -19.3897 C   0  0  0  0  0  0  0  0  0  0  0  0
   22.7821  -16.6847  -18.6116 C   0  0  0  0  0  0  0  0  0  0  0  0
   24.2552  -19.8810  -16.1348 C   0  0  0  0  0  0  0  0  0  0  0  0
   24.4582  -21.1067  -16.3238 O   0  0  0  0  0  0  0  0  0  0  0  0
   23.7931  -19.3924  -14.8848 N   0  0  0  0  0  0  0  0  0  0  0  0
   23.5549  -20.2953  -13.7727 C   0  0  1  0  0  0  0  0  0  0  0  0
   23.8543  -19.5467  -12.4900 C   0  0  0  0  0  0  0  0  0  0  0  0
   24.9783  -20.2104  -11.8093 C   0  0  0  0  0  0  0  0  0  0  0  0
   24.9240  -20.9721  -10.6753 C   0  0  0  0  0  0  0  0  0  0  0  0
   26.1717  -21.3777  -10.4018 N   0  0  0  0  0  0  0  0  0  0  0  0
   27.0441  -20.9065  -11.3203 C   0  0  0  0  0  0  0  0  0  0  0  0
   28.4081  -21.0389  -11.4791 C   0  0  0  0  0  0  0  0  0  0  0  0
   29.0775  -20.4386  -12.5356 C   0  0  0  0  0  0  0  0  0  0  0  0
   28.3076  -19.7053  -13.4146 C   0  0  0  0  0  0  0  0  0  0  0  0
   26.9513  -19.5637  -13.2713 C   0  0  0  0  0  0  0  0  0  0  0  0
   26.2884  -20.1669  -12.2123 C   0  0  0  0  0  0  0  0  0  0  0  0
   22.1159  -20.7086  -13.7471 C   0  0  0  0  0  0  0  0  0  0  0  0
   21.1986  -19.9451  -14.1084 O   0  0  0  0  0  0  0  0  0  0  0  0
   21.8023  -22.0017  -13.2993 N   0  0  0  0  0  0  0  0  0  0  0  0
   20.4327  -22.4813  -13.0736 C   0  0  1  0  0  0  0  0  0  0  0  0
   20.5649  -23.8308  -12.4263 C   0  0  0  0  0  0  0  0  0  0  0  0
   19.2682  -24.4610  -12.0591 C   0  0  0  0  0  0  0  0  0  0  0  0
   19.4240  -25.7839  -11.3491 C   0  0  0  0  0  0  0  0  0  0  0  0
   18.0586  -26.2672  -10.8773 C   0  0  0  0  0  0  0  0  0  0  0  0
   18.1457  -27.5955  -10.2998 N   0  0  0  0  0  0  0  0  0  0  0  0
   19.7613  -21.4913  -12.2298 C   0  0  0  0  0  0  0  0  0  0  0  0
   18.4664  -21.0537  -12.4610 O   0  0  0  0  0  0  0  0  0  0  0  0
   20.3755  -21.0071  -11.2466 O   0  0  0  0  0  0  0  0  0  0  0  0
  2  1  1  6
  2  3  1  0
  3  4  1  0
  4  5  2  0
  5  6  1  0
  7  6  2  0
  8  7  1  0
  9  8  2  0
  9  4  1  0
 10  2  1  0
 11 10  2  0
 12 10  1  0
 13 12  1  0
 13 14  1  1
 14 15  1  0
 15 23  1  0
 15 16  2  0
 16 17  1  0
 18 19  2  0
 18 17  1  0
 20 19  1  0
 21 20  2  0
 22 21  1  0
 22 23  2  0
 23 18  1  0
 24 26  1  0
 24 13  1  0
 25 24  2  0
 27 33  1  0
 27 26  1  0
 27 28  1  1
 28 29  1  0
 29 30  1  0
 31 30  1  0
 32 31  1  0
 33 34  1  0
 35 33  2  0
M  END
$$$$
