FWK.pdb
     RDKit          3D

 35 37  0  0  1  0  0  0  0  0999 V2000
   28.8812  -23.4221  -16.3383 N   0  0  0  0  0  0  0  0  0  0  0  0
   28.4283  -22.0963  -16.0290 C   0  0  1  0  0  0  0  0  0  0  0  0
   27.5865  -21.5175  -17.1503 C   0  0  0  0  0  0  0  0  0  0  0  0
   27.2207  -20.1239  -16.8118 C   0  0  0  0  0  0  0  0  0  0  0  0
   26.0375  -19.7914  -16.2136 C   0  0  0  0  0  0  0  0  0  0  0  0
   25.7265  -18.4886  -15.9119 C   0  0  0  0  0  0  0  0  0  0  0  0
   26.6335  -17.4931  -16.2218 C   0  0  0  0  0  0  0  0  0  0  0  0
   27.8463  -17.8128  -16.8326 C   0  0  0  0  0  0  0  0  0  0  0  0
   28.1223  -19.1354  -17.1201 C   0  0  0  0  0  0  0  0  0  0  0  0
   27.5773  -22.0902  -14.7970 C   0  0  0  0  0  0  0  0  0  0  0  0
   26.4992  -22.7352  -14.7641 O   0  0  0  0  0  0  0  0  0  0  0  0
   28.0237  -21.3391  -13.6783 N   0  0  0  0  0  0  0  0  0  0  0  0
   27.2151  -21.2387  -12.4763 C   0  0  1  0  0  0  0  0  0  0  0  0
   28.0595  -20.5921  -11.3972 C   0  0  0  0  0  0  0  0  0  0  0  0
   27.2285  -20.4093  -10.1959 C   0  0  0  0  0  0  0  0  0  0  0  0
   25.8772  -20.2070  -10.1489 C   0  0  0  0  0  0  0  0  0  0  0  0
   25.5317  -20.0890   -8.8594 N   0  0  0  0  0  0  0  0  0  0  0  0
   26.6133  -20.2074   -8.0577 C   0  0  0  0  0  0  0  0  0  0  0  0
   26.7813  -20.1615   -6.6892 C   0  0  0  0  0  0  0  0  0  0  0  0
   28.0303  -20.3164   -6.1055 C   0  0  0  0  0  0  0  0  0  0  0  0
   29.0903  -20.5178   -6.9651 C   0  0  0  0  0  0  0  0  0  0  0  0
   28.9407  -20.5660   -8.3273 C   0  0  0  0  0  0  0  0  0  0  0  0
   27.6886  -20.4104   -8.9040 C   0  0  0  0  0  0  0  0  0  0  0  0
   26.0281  -20.3616  -12.7288 C   0  0  0  0  0  0  0  0  0  0  0  0
   26.1418  -19.1458  -12.9814 O   0  0  0  0  0  0  0  0  0  0  0  0
   24.7498  -20.9396  -12.6764 N   0  0  0  0  0  0  0  0  0  0  0  0
   23.5082  -20.2111  -12.9672 C   0  0  1  0  0  0  0  0  0  0  0  0
   23.2921  -20.3306  -14.4493 C   0  0  0  0  0  0  0  0  0  0  0  0
   22.0156  -19.7362  -14.9295 C   0  0  0  0  0  0  0  0  0  0  0  0
   21.8179  -19.8641  -16.4206 C   0  0  0  0  0  0  0  0  0  0  0  0
   22.6937  -18.8427  -17.1350 C   0  0  0  0  0  0  0  0  0  0  0  0
   22.5839  -18.9773  -18.5756 N   0  0  0  0  0  0  0  0  0  0  0  0
   22.4474  -20.8290  -12.1698 C   0  0  0  0  0  0  0  0  0  0  0  0
   21.3237  -20.1393  -11.7414 O   0  0  0  0  0  0  0  0  0  0  0  0
   22.5468  -22.0402  -11.8516 O   0  0  0  0  0  0  0  0  0  0  0  0
  2  1  1  6
  2  3  1  0
  3  4  1  0
  4  5  2  0
  5  6  1  0
  7  6  2  0
  8  7  1  0
  9  8  2  0
  9  4  1  0
 10  2  1  0
 11 10  2  0
 12 10  1  0
 13 12  1  0
 13 14  1  1
 14 15  1  0
 15 23  1  0
 15 16  2  0
 16 17  1  0
 18 19  2  0
 18 17  1  0
 20 19  1  0
 21 20  2  0
 22 21  1  0
 22 23  2  0
 23 18  1  0
 24 26  1  0
 24 13  1  0
 25 24  2  0
 27 33  1  0
 27 26  1  0
 27 28  1  6
 28 29  1  0
 29 30  1  0
 31 30  1  0
 32 31  1  0
 33 34  1  0
 35 33  2  0
M  END
$$$$
