FWK.pdb
     RDKit          3D

 35 37  0  0  1  0  0  0  0  0999 V2000
   28.2304  -21.5463  -15.2329 N   0  0  0  0  0  0  0  0  0  0  0  0
   27.9751  -20.4824  -14.3048 C   0  0  1  0  0  0  0  0  0  0  0  0
   27.1178  -19.3946  -14.9235 C   0  0  0  0  0  0  0  0  0  0  0  0
   27.8818  -18.7307  -16.0032 C   0  0  0  0  0  0  0  0  0  0  0  0
   27.4816  -18.7411  -17.3102 C   0  0  0  0  0  0  0  0  0  0  0  0
   28.2124  -18.1156  -18.2899 C   0  0  0  0  0  0  0  0  0  0  0  0
   29.3790  -17.4613  -17.9426 C   0  0  0  0  0  0  0  0  0  0  0  0
   29.8037  -17.4397  -16.6139 C   0  0  0  0  0  0  0  0  0  0  0  0
   29.0407  -18.0808  -15.6573 C   0  0  0  0  0  0  0  0  0  0  0  0
   27.2419  -20.9823  -13.0987 C   0  0  0  0  0  0  0  0  0  0  0  0
   26.1493  -21.5906  -13.2240 O   0  0  0  0  0  0  0  0  0  0  0  0
   27.8157  -20.7488  -11.8216 N   0  0  0  0  0  0  0  0  0  0  0  0
   27.0771  -21.0438  -10.6065 C   0  0  1  0  0  0  0  0  0  0  0  0
   27.9802  -20.7476   -9.4266 C   0  0  0  0  0  0  0  0  0  0  0  0
   27.1796  -20.8140   -8.1930 C   0  0  0  0  0  0  0  0  0  0  0  0
   25.9983  -21.4773   -8.0094 C   0  0  0  0  0  0  0  0  0  0  0  0
   25.6138  -21.2729   -6.7420 N   0  0  0  0  0  0  0  0  0  0  0  0
   26.5051  -20.4962   -6.0870 C   0  0  0  0  0  0  0  0  0  0  0  0
   26.5634  -20.0116   -4.7967 C   0  0  0  0  0  0  0  0  0  0  0  0
   27.6151  -19.2151   -4.3672 C   0  0  0  0  0  0  0  0  0  0  0  0
   28.5949  -18.9357   -5.2974 C   0  0  0  0  0  0  0  0  0  0  0  0
   28.5522  -19.4093   -6.5835 C   0  0  0  0  0  0  0  0  0  0  0  0
   27.4974  -20.2053   -7.0060 C   0  0  0  0  0  0  0  0  0  0  0  0
   25.8751  -20.1563  -10.5091 C   0  0  0  0  0  0  0  0  0  0  0  0
   25.9515  -18.9179  -10.6336 O   0  0  0  0  0  0  0  0  0  0  0  0
   24.6261  -20.7506  -10.2691 N   0  0  0  0  0  0  0  0  0  0  0  0
   23.3444  -20.1545  -10.6678 C   0  0  1  0  0  0  0  0  0  0  0  0
   23.0872  -20.6203  -12.0729 C   0  0  0  0  0  0  0  0  0  0  0  0
   21.7929  -20.1569  -12.6418 C   0  0  0  0  0  0  0  0  0  0  0  0
   21.5491  -20.6416  -14.0504 C   0  0  0  0  0  0  0  0  0  0  0  0
   20.2528  -20.0372  -14.5747 C   0  0  0  0  0  0  0  0  0  0  0  0
   20.4533  -18.6671  -15.0083 N   0  0  0  0  0  0  0  0  0  0  0  0
   22.3381  -20.6101   -9.7072 C   0  0  0  0  0  0  0  0  0  0  0  0
   22.5673  -21.6321   -8.7990 O   0  0  0  0  0  0  0  0  0  0  0  0
   21.2097  -20.0581   -9.6940 O   0  0  0  0  0  0  0  0  0  0  0  0
  2  1  1  6
  2  3  1  0
  3  4  1  0
  4  5  2  0
  5  6  1  0
  7  6  2  0
  8  7  1  0
  9  8  2  0
  9  4  1  0
 10  2  1  0
 11 10  2  0
 12 10  1  0
 13 12  1  0
 13 14  1  1
 14 15  1  0
 15 23  1  0
 15 16  2  0
 16 17  1  0
 18 19  2  0
 18 17  1  0
 20 19  1  0
 21 20  2  0
 22 21  1  0
 22 23  2  0
 23 18  1  0
 24 26  1  0
 24 13  1  0
 25 24  2  0
 27 33  1  0
 27 26  1  0
 27 28  1  6
 28 29  1  0
 29 30  1  0
 31 30  1  0
 32 31  1  0
 33 34  1  0
 35 33  2  0
M  END
$$$$
