FWK.pdb
     RDKit          3D

 35 37  0  0  1  0  0  0  0  0999 V2000
   27.4104  -21.1618  -14.9547 N   0  0  0  0  0  0  0  0  0  0  0  0
   26.8316  -21.0600  -13.6459 C   0  0  1  0  0  0  0  0  0  0  0  0
   27.7096  -20.2540  -12.7076 C   0  0  0  0  0  0  0  0  0  0  0  0
   27.1360  -20.3043  -11.3441 C   0  0  0  0  0  0  0  0  0  0  0  0
   27.2591  -21.3930  -10.5269 C   0  0  0  0  0  0  0  0  0  0  0  0
   26.7155  -21.4097   -9.2662 C   0  0  0  0  0  0  0  0  0  0  0  0
   26.0288  -20.2979   -8.8167 C   0  0  0  0  0  0  0  0  0  0  0  0
   25.8928  -19.1771   -9.6363 C   0  0  0  0  0  0  0  0  0  0  0  0
   26.4540  -19.1993  -10.8984 C   0  0  0  0  0  0  0  0  0  0  0  0
   25.5015  -20.3738  -13.6957 C   0  0  0  0  0  0  0  0  0  0  0  0
   25.4329  -19.1199  -13.7452 O   0  0  0  0  0  0  0  0  0  0  0  0
   24.3321  -21.1782  -13.6852 N   0  0  0  0  0  0  0  0  0  0  0  0
   23.0138  -20.5798  -13.7980 C   0  0  1  0  0  0  0  0  0  0  0  0
   22.8573  -20.0561  -15.2111 C   0  0  0  0  0  0  0  0  0  0  0  0
   21.6044  -19.2873  -15.2918 C   0  0  0  0  0  0  0  0  0  0  0  0
   21.2402  -18.2178  -14.5220 C   0  0  0  0  0  0  0  0  0  0  0  0
   20.0247  -17.8246  -14.9271 N   0  0  0  0  0  0  0  0  0  0  0  0
   19.5788  -18.6020  -15.9387 C   0  0  0  0  0  0  0  0  0  0  0  0
   18.4167  -18.6060  -16.6822 C   0  0  0  0  0  0  0  0  0  0  0  0
   18.2025  -19.5356  -17.6895 C   0  0  0  0  0  0  0  0  0  0  0  0
   19.2111  -20.4517  -17.9057 C   0  0  0  0  0  0  0  0  0  0  0  0
   20.3720  -20.4616  -17.1760 C   0  0  0  0  0  0  0  0  0  0  0  0
   20.5793  -19.5288  -16.1702 C   0  0  0  0  0  0  0  0  0  0  0  0
   21.9587  -21.6162  -13.5646 C   0  0  0  0  0  0  0  0  0  0  0  0
   21.9344  -22.6932  -14.1926 O   0  0  0  0  0  0  0  0  0  0  0  0
   20.9693  -21.3546  -12.6035 N   0  0  0  0  0  0  0  0  0  0  0  0
   19.9570  -22.3317  -12.1822 C   0  0  1  0  0  0  0  0  0  0  0  0
   20.0303  -22.3875  -10.6825 C   0  0  0  0  0  0  0  0  0  0  0  0
   19.1142  -23.3830  -10.0636 C   0  0  0  0  0  0  0  0  0  0  0  0
   19.2735  -23.4953   -8.5667 C   0  0  0  0  0  0  0  0  0  0  0  0
   18.3350  -24.5730   -8.0389 C   0  0  0  0  0  0  0  0  0  0  0  0
   18.4105  -24.6688   -6.5930 N   0  0  0  0  0  0  0  0  0  0  0  0
   18.6659  -21.8619  -12.6874 C   0  0  0  0  0  0  0  0  0  0  0  0
   17.6611  -22.7191  -13.1087 O   0  0  0  0  0  0  0  0  0  0  0  0
   18.4443  -20.6267  -12.7476 O   0  0  0  0  0  0  0  0  0  0  0  0
  2  1  1  6
  2  3  1  0
  3  4  1  0
  4  5  2  0
  5  6  1  0
  7  6  2  0
  8  7  1  0
  9  8  2  0
  9  4  1  0
 10  2  1  0
 11 10  2  0
 12 10  1  0
 13 12  1  0
 13 14  1  6
 14 15  1  0
 15 23  1  0
 15 16  2  0
 16 17  1  0
 18 19  2  0
 18 17  1  0
 20 19  1  0
 21 20  2  0
 22 21  1  0
 22 23  2  0
 23 18  1  0
 24 26  1  0
 24 13  1  0
 25 24  2  0
 27 33  1  0
 27 26  1  0
 27 28  1  1
 28 29  1  0
 29 30  1  0
 31 30  1  0
 32 31  1  0
 33 34  1  0
 35 33  2  0
M  END
$$$$
