FWK.pdb
     RDKit          3D

 35 37  0  0  1  0  0  0  0  0999 V2000
   20.7435  -20.7687  -11.8310 N   0  0  0  0  0  0  0  0  0  0  0  0
   21.8053  -21.3836  -12.5746 C   0  0  1  0  0  0  0  0  0  0  0  0
   21.5739  -21.2789  -14.0701 C   0  0  0  0  0  0  0  0  0  0  0  0
   20.4568  -22.1718  -14.4514 C   0  0  0  0  0  0  0  0  0  0  0  0
   19.1573  -21.7518  -14.5090 C   0  0  0  0  0  0  0  0  0  0  0  0
   18.1422  -22.6044  -14.8663 C   0  0  0  0  0  0  0  0  0  0  0  0
   18.4454  -23.9170  -15.1743 C   0  0  0  0  0  0  0  0  0  0  0  0
   19.7658  -24.3642  -15.1213 C   0  0  0  0  0  0  0  0  0  0  0  0
   20.7590  -23.4757  -14.7573 C   0  0  0  0  0  0  0  0  0  0  0  0
   23.1179  -20.7220  -12.2891 C   0  0  0  0  0  0  0  0  0  0  0  0
   23.1903  -19.4724  -12.1758 O   0  0  0  0  0  0  0  0  0  0  0  0
   24.2667  -21.5444  -12.1521 N   0  0  0  0  0  0  0  0  0  0  0  0
   25.5785  -20.9626  -11.9298 C   0  0  1  0  0  0  0  0  0  0  0  0
   26.3035  -21.8191  -10.9118 C   0  0  0  0  0  0  0  0  0  0  0  0
   26.4945  -21.0301   -9.6837 C   0  0  0  0  0  0  0  0  0  0  0  0
   25.5702  -20.2427   -9.0554 C   0  0  0  0  0  0  0  0  0  0  0  0
   26.1619  -19.7070   -7.9789 N   0  0  0  0  0  0  0  0  0  0  0  0
   27.4458  -20.1176   -7.8799 C   0  0  0  0  0  0  0  0  0  0  0  0
   28.4514  -19.8560   -6.9725 C   0  0  0  0  0  0  0  0  0  0  0  0
   29.7122  -20.4200   -7.1034 C   0  0  0  0  0  0  0  0  0  0  0  0
   29.9039  -21.2531   -8.1862 C   0  0  0  0  0  0  0  0  0  0  0  0
   28.9154  -21.5235   -9.0972 C   0  0  0  0  0  0  0  0  0  0  0  0
   27.6569  -20.9559   -8.9599 C   0  0  0  0  0  0  0  0  0  0  0  0
   26.3688  -20.9790  -13.2015 C   0  0  0  0  0  0  0  0  0  0  0  0
   26.4915  -22.0084  -13.8945 O   0  0  0  0  0  0  0  0  0  0  0  0
   26.9875  -19.7891  -13.6165 N   0  0  0  0  0  0  0  0  0  0  0  0
   27.6827  -19.6313  -14.9005 C   0  0  1  0  0  0  0  0  0  0  0  0
   28.1913  -18.2177  -14.9282 C   0  0  0  0  0  0  0  0  0  0  0  0
   29.0283  -17.8937  -16.1147 C   0  0  0  0  0  0  0  0  0  0  0  0
   28.3862  -16.8951  -17.0469 C   0  0  0  0  0  0  0  0  0  0  0  0
   29.3278  -16.6136  -18.2109 C   0  0  0  0  0  0  0  0  0  0  0  0
   28.8061  -15.5604  -19.0618 N   0  0  0  0  0  0  0  0  0  0  0  0
   28.7463  -20.6363  -14.9427 C   0  0  0  0  0  0  0  0  0  0  0  0
   29.1399  -21.2727  -16.1097 O   0  0  0  0  0  0  0  0  0  0  0  0
   29.3386  -20.9463  -13.8791 O   0  0  0  0  0  0  0  0  0  0  0  0
  2  1  1  1
  2  3  1  0
  3  4  1  0
  4  5  2  0
  5  6  1  0
  7  6  2  0
  8  7  1  0
  9  8  2  0
  9  4  1  0
 10  2  1  0
 11 10  2  0
 12 10  1  0
 13 12  1  0
 13 14  1  1
 14 15  1  0
 15 23  1  0
 15 16  2  0
 16 17  1  0
 18 19  2  0
 18 17  1  0
 20 19  1  0
 21 20  2  0
 22 21  1  0
 22 23  2  0
 23 18  1  0
 24 26  1  0
 24 13  1  0
 25 24  2  0
 27 33  1  0
 27 26  1  0
 27 28  1  1
 28 29  1  0
 29 30  1  0
 31 30  1  0
 32 31  1  0
 33 34  1  0
 35 33  2  0
M  END
$$$$
