FWK.pdb
     RDKit          3D

 35 37  0  0  1  0  0  0  0  0999 V2000
   26.3442  -21.4916  -13.5604 N   0  0  0  0  0  0  0  0  0  0  0  0
   25.3898  -20.6759  -12.8661 C   0  0  1  0  0  0  0  0  0  0  0  0
   24.0743  -20.5930  -13.6168 C   0  0  0  0  0  0  0  0  0  0  0  0
   24.2840  -19.8546  -14.8822 C   0  0  0  0  0  0  0  0  0  0  0  0
   24.2096  -20.4503  -16.1103 C   0  0  0  0  0  0  0  0  0  0  0  0
   24.4093  -19.7382  -17.2671 C   0  0  0  0  0  0  0  0  0  0  0  0
   24.6918  -18.3880  -17.1837 C   0  0  0  0  0  0  0  0  0  0  0  0
   24.7718  -17.7624  -15.9394 C   0  0  0  0  0  0  0  0  0  0  0  0
   24.5646  -18.5133  -14.7985 C   0  0  0  0  0  0  0  0  0  0  0  0
   25.0842  -21.2367  -11.5117 C   0  0  0  0  0  0  0  0  0  0  0  0
   24.9004  -22.4706  -11.3596 O   0  0  0  0  0  0  0  0  0  0  0  0
   25.0096  -20.3376  -10.4158 N   0  0  0  0  0  0  0  0  0  0  0  0
   24.6872  -20.8124   -9.0819 C   0  0  1  0  0  0  0  0  0  0  0  0
   25.2452  -19.8183   -8.0840 C   0  0  0  0  0  0  0  0  0  0  0  0
   26.6794  -20.0933   -7.8978 C   0  0  0  0  0  0  0  0  0  0  0  0
   27.5226  -20.7145   -8.7767 C   0  0  0  0  0  0  0  0  0  0  0  0
   28.7356  -20.7592   -8.2087 N   0  0  0  0  0  0  0  0  0  0  0  0
   28.7161  -20.1871   -6.9844 C   0  0  0  0  0  0  0  0  0  0  0  0
   29.6845  -19.9868   -6.0224 C   0  0  0  0  0  0  0  0  0  0  0  0
   29.3949  -19.3563   -4.8210 C   0  0  0  0  0  0  0  0  0  0  0  0
   28.0910  -18.9426   -4.6421 C   0  0  0  0  0  0  0  0  0  0  0  0
   27.1167  -19.1337   -5.5878 C   0  0  0  0  0  0  0  0  0  0  0  0
   27.4136  -19.7650   -6.7870 C   0  0  0  0  0  0  0  0  0  0  0  0
   23.2016  -20.8694   -8.9033 C   0  0  0  0  0  0  0  0  0  0  0  0
   22.4288  -20.1059   -9.5153 O   0  0  0  0  0  0  0  0  0  0  0  0
   22.6737  -21.8189   -8.0140 N   0  0  0  0  0  0  0  0  0  0  0  0
   21.2394  -22.1016   -7.8730 C   0  0  1  0  0  0  0  0  0  0  0  0
   21.1321  -23.2318   -6.8889 C   0  0  0  0  0  0  0  0  0  0  0  0
   19.7428  -23.7137   -6.6626 C   0  0  0  0  0  0  0  0  0  0  0  0
   19.6585  -24.8666   -5.6918 C   0  0  0  0  0  0  0  0  0  0  0  0
   18.2070  -25.3094   -5.5593 C   0  0  0  0  0  0  0  0  0  0  0  0
   18.0781  -26.3991   -4.6098 N   0  0  0  0  0  0  0  0  0  0  0  0
   20.5981  -20.8668   -7.4178 C   0  0  0  0  0  0  0  0  0  0  0  0
   21.2581  -19.9017   -6.6730 O   0  0  0  0  0  0  0  0  0  0  0  0
   19.3937  -20.6591   -7.7084 O   0  0  0  0  0  0  0  0  0  0  0  0
  2  1  1  6
  2  3  1  0
  3  4  1  0
  4  5  2  0
  5  6  1  0
  7  6  2  0
  8  7  1  0
  9  8  2  0
  9  4  1  0
 10  2  1  0
 11 10  2  0
 12 10  1  0
 13 12  1  0
 13 14  1  1
 14 15  1  0
 15 23  1  0
 15 16  2  0
 16 17  1  0
 18 19  2  0
 18 17  1  0
 20 19  1  0
 21 20  2  0
 22 21  1  0
 22 23  2  0
 23 18  1  0
 24 26  1  0
 24 13  1  0
 25 24  2  0
 27 33  1  0
 27 26  1  0
 27 28  1  1
 28 29  1  0
 29 30  1  0
 31 30  1  0
 32 31  1  0
 33 34  1  0
 35 33  2  0
M  END
$$$$
