FWK.pdb
     RDKit          3D

 35 37  0  0  1  0  0  0  0  0999 V2000
   15.6918  -15.1909    5.2969 N   0  0  0  0  0  0  0  0  0  0  0  0
   16.9590  -15.8174    5.0519 C   0  0  1  0  0  0  0  0  0  0  0  0
   18.1007  -15.0271    5.6626 C   0  0  0  0  0  0  0  0  0  0  0  0
   18.1883  -13.7085    4.9963 C   0  0  0  0  0  0  0  0  0  0  0  0
   17.8707  -12.5368    5.6245 C   0  0  0  0  0  0  0  0  0  0  0  0
   17.9622  -11.3283    4.9793 C   0  0  0  0  0  0  0  0  0  0  0  0
   18.3857  -11.3001    3.6642 C   0  0  0  0  0  0  0  0  0  0  0  0
   18.7145  -12.4855    3.0062 C   0  0  0  0  0  0  0  0  0  0  0  0
   18.6093  -13.6813    3.6897 C   0  0  0  0  0  0  0  0  0  0  0  0
   17.0082  -17.1887    5.6515 C   0  0  0  0  0  0  0  0  0  0  0  0
   16.3935  -17.4400    6.7185 O   0  0  0  0  0  0  0  0  0  0  0  0
   17.7646  -18.1857    4.9818 N   0  0  0  0  0  0  0  0  0  0  0  0
   17.9388  -19.5055    5.5620 C   0  0  1  0  0  0  0  0  0  0  0  0
   18.5098  -20.4148    4.4930 C   0  0  0  0  0  0  0  0  0  0  0  0
   17.4350  -20.7651    3.5501 C   0  0  0  0  0  0  0  0  0  0  0  0
   16.6625  -19.9044    2.8208 C   0  0  0  0  0  0  0  0  0  0  0  0
   15.8095  -20.6425    2.0973 N   0  0  0  0  0  0  0  0  0  0  0  0
   15.9970  -21.9609    2.3281 C   0  0  0  0  0  0  0  0  0  0  0  0
   15.3879  -23.0988    1.8407 C   0  0  0  0  0  0  0  0  0  0  0  0
   15.7803  -24.3647    2.2508 C   0  0  0  0  0  0  0  0  0  0  0  0
   16.8085  -24.4227    3.1688 C   0  0  0  0  0  0  0  0  0  0  0  0
   17.4245  -23.3018    3.6632 C   0  0  0  0  0  0  0  0  0  0  0  0
   17.0268  -22.0391    3.2484 C   0  0  0  0  0  0  0  0  0  0  0  0
   18.9176  -19.4429    6.6934 C   0  0  0  0  0  0  0  0  0  0  0  0
   19.9046  -18.6810    6.6770 O   0  0  0  0  0  0  0  0  0  0  0  0
   18.7056  -20.2749    7.8042 N   0  0  0  0  0  0  0  0  0  0  0  0
   19.5087  -20.2226    9.0327 C   0  0  1  0  0  0  0  0  0  0  0  0
   18.6504  -19.5451   10.0632 C   0  0  0  0  0  0  0  0  0  0  0  0
   19.2581  -19.4860   11.4199 C   0  0  0  0  0  0  0  0  0  0  0  0
   18.3845  -18.7952   12.4388 C   0  0  0  0  0  0  0  0  0  0  0  0
   19.1293  -18.7067   13.7648 C   0  0  0  0  0  0  0  0  0  0  0  0
   18.3386  -18.0103   14.7624 N   0  0  0  0  0  0  0  0  0  0  0  0
   19.8600  -21.6009    9.3788 C   0  0  0  0  0  0  0  0  0  0  0  0
   21.0203  -21.9381   10.0582 O   0  0  0  0  0  0  0  0  0  0  0  0
   19.0827  -22.5319    9.0509 O   0  0  0  0  0  0  0  0  0  0  0  0
  2  1  1  1
  2  3  1  0
  3  4  1  0
  4  5  2  0
  5  6  1  0
  7  6  2  0
  8  7  1  0
  9  8  2  0
  9  4  1  0
 10  2  1  0
 11 10  2  0
 12 10  1  0
 13 12  1  0
 13 14  1  6
 14 15  1  0
 15 23  1  0
 15 16  2  0
 16 17  1  0
 18 19  2  0
 18 17  1  0
 20 19  1  0
 21 20  2  0
 22 21  1  0
 22 23  2  0
 23 18  1  0
 24 26  1  0
 24 13  1  0
 25 24  2  0
 27 33  1  0
 27 26  1  0
 27 28  1  1
 28 29  1  0
 29 30  1  0
 31 30  1  0
 32 31  1  0
 33 34  1  0
 35 33  2  0
M  END
$$$$
