GKH.pdb
     RDKit          3D

 24 24  0  0  1  0  0  0  0  0999 V2000
   26.0907  -15.0665  -17.4151 N   0  0  0  0  0  0  0  0  0  0  0  0
   25.9110  -15.6606  -16.1224 C   0  0  0  0  0  0  0  0  0  0  0  0
   25.4823  -17.0746  -16.1971 C   0  0  0  0  0  0  0  0  0  0  0  0
   25.2375  -17.6552  -17.3088 O   0  0  0  0  0  0  0  0  0  0  0  0
   25.3434  -17.7939  -14.9901 N   0  0  0  0  0  0  0  0  0  0  0  0
   25.0229  -19.2435  -14.9580 C   0  0  1  0  0  0  0  0  0  0  0  0
   26.1415  -19.8409  -14.1770 C   0  0  0  0  0  0  0  0  0  0  0  0
   27.4016  -20.1355  -14.8930 C   0  0  0  0  0  0  0  0  0  0  0  0
   27.2888  -21.3695  -15.7863 C   0  0  0  0  0  0  0  0  0  0  0  0
   28.6428  -21.6008  -16.3860 C   0  0  0  0  0  0  0  0  0  0  0  0
   28.6942  -22.7284  -17.2780 N   0  0  0  0  0  0  0  0  0  0  0  0
   23.7528  -19.3559  -14.2301 C   0  0  0  0  0  0  0  0  0  0  0  0
   23.4198  -18.4020  -13.4563 O   0  0  0  0  0  0  0  0  0  0  0  0
   22.8274  -20.4252  -14.2923 N   0  0  0  0  0  0  0  0  0  0  0  0
   21.3703  -20.1563  -14.1674 C   0  0  1  0  0  0  0  0  0  0  0  0
   20.9483  -19.1764  -15.2023 C   0  0  0  0  0  0  0  0  0  0  0  0
   20.4943  -17.8973  -14.6184 C   0  0  0  0  0  0  0  0  0  0  0  0
   20.4270  -17.4410  -13.3243 C   0  0  0  0  0  0  0  0  0  0  0  0
   20.0079  -16.1417  -13.2817 N   0  0  0  0  0  0  0  0  0  0  0  0
   19.8174  -15.7936  -14.5557 C   0  0  0  0  0  0  0  0  0  0  0  0
   20.0974  -16.8123  -15.3749 N   0  0  0  0  0  0  0  0  0  0  0  0
   20.6806  -21.4839  -14.3534 C   0  0  0  0  0  0  0  0  0  0  0  0
   19.6129  -21.8535  -13.5002 O   0  0  0  0  0  0  0  0  0  0  0  0
   20.9543  -22.3358  -15.2131 O   0  0  0  0  0  0  0  0  0  0  0  0
  1  2  1  0
  3  2  1  0
  3  4  2  0
  5  3  1  0
  6 12  1  0
  6  5  1  0
  6  7  1  1
  8  7  1  0
  9  8  1  0
 10  9  1  0
 11 10  1  0
 12 14  1  0
 13 12  2  0
 14 15  1  0
 15 16  1  6
 17 16  1  0
 17 18  2  0
 19 18  1  0
 20 19  1  0
 21 20  2  0
 21 17  1  0
 22 15  1  0
 23 22  1  0
 24 22  2  0
M  END
$$$$
