GKH.pdb
     RDKit          3D

 24 24  0  0  1  0  0  0  0  0999 V2000
   13.0185  -13.9069  -16.6228 N   0  0  0  0  0  0  0  0  0  0  0  0
   12.8541  -12.4866  -16.5127 C   0  0  0  0  0  0  0  0  0  0  0  0
   14.1430  -11.7678  -16.4085 C   0  0  0  0  0  0  0  0  0  0  0  0
   15.2402  -12.3692  -16.1491 O   0  0  0  0  0  0  0  0  0  0  0  0
   14.1445  -10.3696  -16.6048 N   0  0  0  0  0  0  0  0  0  0  0  0
   15.3891   -9.5605  -16.5679 C   0  0  1  0  0  0  0  0  0  0  0  0
   15.0827   -8.3913  -17.4382 C   0  0  0  0  0  0  0  0  0  0  0  0
   16.1522   -7.3925  -17.6521 C   0  0  0  0  0  0  0  0  0  0  0  0
   17.3243   -7.9569  -18.4526 C   0  0  0  0  0  0  0  0  0  0  0  0
   18.3747   -6.8889  -18.5027 C   0  0  0  0  0  0  0  0  0  0  0  0
   19.5134   -7.2364  -19.3103 N   0  0  0  0  0  0  0  0  0  0  0  0
   15.5556   -9.1470  -15.1690 C   0  0  0  0  0  0  0  0  0  0  0  0
   14.5086   -8.9001  -14.4890 O   0  0  0  0  0  0  0  0  0  0  0  0
   16.7745   -8.9911  -14.4663 N   0  0  0  0  0  0  0  0  0  0  0  0
   16.7680   -8.4830  -13.0689 C   0  0  1  0  0  0  0  0  0  0  0  0
   17.5432   -9.4021  -12.1949 C   0  0  0  0  0  0  0  0  0  0  0  0
   16.8292  -10.6688  -11.9319 C   0  0  0  0  0  0  0  0  0  0  0  0
   15.6238  -11.1617  -12.3691 C   0  0  0  0  0  0  0  0  0  0  0  0
   15.4177  -12.4330  -11.9144 N   0  0  0  0  0  0  0  0  0  0  0  0
   16.5020  -12.7270  -11.1944 C   0  0  0  0  0  0  0  0  0  0  0  0
   17.3599  -11.7017  -11.1846 N   0  0  0  0  0  0  0  0  0  0  0  0
   17.3935   -7.1122  -13.1173 C   0  0  0  0  0  0  0  0  0  0  0  0
   17.5042   -6.3416  -11.9348 O   0  0  0  0  0  0  0  0  0  0  0  0
   17.8469   -6.5508  -14.1268 O   0  0  0  0  0  0  0  0  0  0  0  0
  1  2  1  0
  3  2  1  0
  3  4  2  0
  5  3  1  0
  6 12  1  0
  6  5  1  0
  6  7  1  6
  8  7  1  0
  9  8  1  0
 10  9  1  0
 11 10  1  0
 12 14  1  0
 13 12  2  0
 14 15  1  0
 15 16  1  1
 17 16  1  0
 17 18  2  0
 19 18  1  0
 20 19  1  0
 21 20  2  0
 21 17  1  0
 22 15  1  0
 23 22  1  0
 24 22  2  0
M  END
$$$$
