GKH.pdb
     RDKit          3D

 24 24  0  0  1  0  0  0  0  0999 V2000
   17.6877  -14.5900  -17.4657 N   0  0  0  0  0  0  0  0  0  0  0  0
   18.4175  -13.4637  -17.9708 C   0  0  0  0  0  0  0  0  0  0  0  0
   19.2362  -12.8000  -16.9325 C   0  0  0  0  0  0  0  0  0  0  0  0
   18.8897  -12.7764  -15.7027 O   0  0  0  0  0  0  0  0  0  0  0  0
   20.4388  -12.1758  -17.3295 N   0  0  0  0  0  0  0  0  0  0  0  0
   21.3575  -11.5258  -16.3608 C   0  0  1  0  0  0  0  0  0  0  0  0
   22.7016  -11.6772  -16.9842 C   0  0  0  0  0  0  0  0  0  0  0  0
   23.4818  -12.8894  -16.6538 C   0  0  0  0  0  0  0  0  0  0  0  0
   24.8502  -12.9040  -17.3326 C   0  0  0  0  0  0  0  0  0  0  0  0
   25.5012  -14.2064  -16.9771 C   0  0  0  0  0  0  0  0  0  0  0  0
   26.8084  -14.3749  -17.5536 N   0  0  0  0  0  0  0  0  0  0  0  0
   20.9546  -10.1147  -16.3130 C   0  0  0  0  0  0  0  0  0  0  0  0
   20.7791   -9.5045  -17.4159 O   0  0  0  0  0  0  0  0  0  0  0  0
   20.7270   -9.3329  -15.1551 N   0  0  0  0  0  0  0  0  0  0  0  0
   20.2420   -7.9334  -15.2860 C   0  0  1  0  0  0  0  0  0  0  0  0
   18.8712   -7.8204  -14.7223 C   0  0  0  0  0  0  0  0  0  0  0  0
   17.8629   -8.5236  -15.5421 C   0  0  0  0  0  0  0  0  0  0  0  0
   17.3169   -9.7817  -15.4625 C   0  0  0  0  0  0  0  0  0  0  0  0
   16.3472   -9.9582  -16.4080 N   0  0  0  0  0  0  0  0  0  0  0  0
   16.2930   -8.8028  -17.0734 C   0  0  0  0  0  0  0  0  0  0  0  0
   17.1793   -7.9295  -16.5846 N   0  0  0  0  0  0  0  0  0  0  0  0
   21.2217   -7.0764  -14.5253 C   0  0  0  0  0  0  0  0  0  0  0  0
   21.0058   -5.6814  -14.4144 O   0  0  0  0  0  0  0  0  0  0  0  0
   22.2500   -7.4722  -13.9547 O   0  0  0  0  0  0  0  0  0  0  0  0
  1  2  1  0
  3  2  1  0
  3  4  2  0
  5  3  1  0
  6 12  1  0
  6  5  1  0
  6  7  1  6
  8  7  1  0
  9  8  1  0
 10  9  1  0
 11 10  1  0
 12 14  1  0
 13 12  2  0
 14 15  1  0
 15 16  1  1
 17 16  1  0
 17 18  2  0
 19 18  1  0
 20 19  1  0
 21 20  2  0
 21 17  1  0
 22 15  1  0
 23 22  1  0
 24 22  2  0
M  END
$$$$
