GKH.pdb
     RDKit          3D

 24 24  0  0  1  0  0  0  0  0999 V2000
   26.7994  -25.1248  -16.1078 N   0  0  0  0  0  0  0  0  0  0  0  0
   26.8802  -23.6966  -16.0082 C   0  0  0  0  0  0  0  0  0  0  0  0
   25.9255  -23.1364  -15.0266 C   0  0  0  0  0  0  0  0  0  0  0  0
   24.9530  -23.8185  -14.5556 O   0  0  0  0  0  0  0  0  0  0  0  0
   26.1084  -21.8013  -14.6056 N   0  0  0  0  0  0  0  0  0  0  0  0
   25.2522  -21.1667  -13.5715 C   0  0  1  0  0  0  0  0  0  0  0  0
   26.2084  -20.3692  -12.7543 C   0  0  0  0  0  0  0  0  0  0  0  0
   26.3681  -20.7334  -11.3298 C   0  0  0  0  0  0  0  0  0  0  0  0
   25.0304  -20.8188  -10.5972 C   0  0  0  0  0  0  0  0  0  0  0  0
   25.3394  -20.9843   -9.1399 C   0  0  0  0  0  0  0  0  0  0  0  0
   25.7765  -19.7717   -8.5010 N   0  0  0  0  0  0  0  0  0  0  0  0
   24.3256  -20.2925  -14.3012 C   0  0  0  0  0  0  0  0  0  0  0  0
   24.7659  -19.6719  -15.3214 O   0  0  0  0  0  0  0  0  0  0  0  0
   22.9629  -20.0553  -14.0001 N   0  0  0  0  0  0  0  0  0  0  0  0
   21.9382  -20.1392  -15.0742 C   0  0  1  0  0  0  0  0  0  0  0  0
   22.1092  -21.4041  -15.8360 C   0  0  0  0  0  0  0  0  0  0  0  0
   21.0676  -21.5882  -16.8678 C   0  0  0  0  0  0  0  0  0  0  0  0
   20.0032  -20.8129  -17.2593 C   0  0  0  0  0  0  0  0  0  0  0  0
   19.3568  -21.3674  -18.3271 N   0  0  0  0  0  0  0  0  0  0  0  0
   20.0265  -22.4896  -18.5972 C   0  0  0  0  0  0  0  0  0  0  0  0
   21.0480  -22.6504  -17.7500 N   0  0  0  0  0  0  0  0  0  0  0  0
   20.5995  -20.0907  -14.3825 C   0  0  0  0  0  0  0  0  0  0  0  0
   19.6122  -19.1718  -14.8131 O   0  0  0  0  0  0  0  0  0  0  0  0
   20.2433  -20.8002  -13.4288 O   0  0  0  0  0  0  0  0  0  0  0  0
  1  2  1  0
  3  2  1  0
  3  4  2  0
  5  3  1  0
  6 12  1  0
  6  5  1  0
  6  7  1  1
  8  7  1  0
  9  8  1  0
 10  9  1  0
 11 10  1  0
 12 14  1  0
 13 12  2  0
 14 15  1  0
 15 16  1  1
 17 16  1  0
 17 18  2  0
 19 18  1  0
 20 19  1  0
 21 20  2  0
 21 17  1  0
 22 15  1  0
 23 22  1  0
 24 22  2  0
M  END
$$$$
