GKH.pdb
     RDKit          3D

 24 24  0  0  1  0  0  0  0  0999 V2000
   28.8077  -22.5349  -16.9032 N   0  0  0  0  0  0  0  0  0  0  0  0
   28.0349  -22.0358  -15.8032 C   0  0  0  0  0  0  0  0  0  0  0  0
   26.9099  -21.1784  -16.2366 C   0  0  0  0  0  0  0  0  0  0  0  0
   26.8704  -20.6388  -17.3943 O   0  0  0  0  0  0  0  0  0  0  0  0
   25.8512  -20.9581  -15.3289 N   0  0  0  0  0  0  0  0  0  0  0  0
   24.6415  -20.1757  -15.6892 C   0  0  1  0  0  0  0  0  0  0  0  0
   23.6192  -20.6212  -14.7020 C   0  0  0  0  0  0  0  0  0  0  0  0
   22.2880  -19.9787  -14.7511 C   0  0  0  0  0  0  0  0  0  0  0  0
   21.3476  -20.6628  -15.7416 C   0  0  0  0  0  0  0  0  0  0  0  0
   20.1160  -19.8136  -15.8337 C   0  0  0  0  0  0  0  0  0  0  0  0
   19.0664  -20.4022  -16.6221 N   0  0  0  0  0  0  0  0  0  0  0  0
   24.9992  -18.7674  -15.4786 C   0  0  0  0  0  0  0  0  0  0  0  0
   25.7300  -18.4785  -14.4775 O   0  0  0  0  0  0  0  0  0  0  0  0
   24.6220  -17.6638  -16.2809 N   0  0  0  0  0  0  0  0  0  0  0  0
   25.1080  -16.2993  -15.9451 C   0  0  1  0  0  0  0  0  0  0  0  0
   26.5448  -16.1734  -16.3051 C   0  0  0  0  0  0  0  0  0  0  0  0
   27.0404  -14.7873  -16.1773 C   0  0  0  0  0  0  0  0  0  0  0  0
   26.4587  -13.6340  -15.7095 C   0  0  0  0  0  0  0  0  0  0  0  0
   27.3484  -12.5978  -15.7121 N   0  0  0  0  0  0  0  0  0  0  0  0
   28.4856  -13.1143  -16.1821 C   0  0  0  0  0  0  0  0  0  0  0  0
   28.3373  -14.4119  -16.4675 N   0  0  0  0  0  0  0  0  0  0  0  0
   24.2562  -15.3425  -16.7398 C   0  0  0  0  0  0  0  0  0  0  0  0
   24.2889  -13.9568  -16.4508 O   0  0  0  0  0  0  0  0  0  0  0  0
   23.4889  -15.6440  -17.6672 O   0  0  0  0  0  0  0  0  0  0  0  0
  1  2  1  0
  3  2  1  0
  3  4  2  0
  5  3  1  0
  6 12  1  0
  6  5  1  0
  6  7  1  1
  8  7  1  0
  9  8  1  0
 10  9  1  0
 11 10  1  0
 12 14  1  0
 13 12  2  0
 14 15  1  0
 15 16  1  6
 17 16  1  0
 17 18  2  0
 19 18  1  0
 20 19  1  0
 21 20  2  0
 21 17  1  0
 22 15  1  0
 23 22  1  0
 24 22  2  0
M  END
$$$$
