GKH.pdb
     RDKit          3D

 24 24  0  0  1  0  0  0  0  0999 V2000
   42.7115  -14.2477  -12.3160 N   0  0  0  0  0  0  0  0  0  0  0  0
   43.6064  -13.3000  -11.7182 C   0  0  0  0  0  0  0  0  0  0  0  0
   43.0718  -12.7184  -10.4674 C   0  0  0  0  0  0  0  0  0  0  0  0
   41.8689  -12.9146  -10.0837 O   0  0  0  0  0  0  0  0  0  0  0  0
   43.9324  -11.9214   -9.6814 N   0  0  0  0  0  0  0  0  0  0  0  0
   43.5414  -11.4034   -8.3458 C   0  0  1  0  0  0  0  0  0  0  0  0
   44.8413  -11.1221   -7.6756 C   0  0  0  0  0  0  0  0  0  0  0  0
   44.8075  -10.4294   -6.3693 C   0  0  0  0  0  0  0  0  0  0  0  0
   46.2009  -10.2483   -5.7702 C   0  0  0  0  0  0  0  0  0  0  0  0
   46.0229   -9.5694   -4.4458 C   0  0  0  0  0  0  0  0  0  0  0  0
   47.2610   -9.2968   -3.7657 N   0  0  0  0  0  0  0  0  0  0  0  0
   42.7999  -10.1619   -8.6000 C   0  0  0  0  0  0  0  0  0  0  0  0
   43.2428   -9.3726   -9.4947 O   0  0  0  0  0  0  0  0  0  0  0  0
   41.6165   -9.7295   -7.9548 N   0  0  0  0  0  0  0  0  0  0  0  0
   40.9621   -8.4614   -8.3729 C   0  0  1  0  0  0  0  0  0  0  0  0
   39.4875   -8.5854   -8.2327 C   0  0  0  0  0  0  0  0  0  0  0  0
   38.7846   -7.3146   -8.5054 C   0  0  0  0  0  0  0  0  0  0  0  0
   38.4163   -6.6907   -9.6726 C   0  0  0  0  0  0  0  0  0  0  0  0
   37.7035   -5.5535   -9.4192 N   0  0  0  0  0  0  0  0  0  0  0  0
   37.6298   -5.4760   -8.0891 C   0  0  0  0  0  0  0  0  0  0  0  0
   38.2609   -6.5059   -7.5161 N   0  0  0  0  0  0  0  0  0  0  0  0
   41.5119   -7.3871   -7.4693 C   0  0  0  0  0  0  0  0  0  0  0  0
   41.4792   -6.0320   -7.8782 O   0  0  0  0  0  0  0  0  0  0  0  0
   42.0166   -7.5616   -6.3492 O   0  0  0  0  0  0  0  0  0  0  0  0
  1  2  1  0
  3  2  1  0
  3  4  2  0
  5  3  1  0
  6 12  1  0
  6  5  1  0
  6  7  1  1
  8  7  1  0
  9  8  1  0
 10  9  1  0
 11 10  1  0
 12 14  1  0
 13 12  2  0
 14 15  1  0
 15 16  1  1
 17 16  1  0
 17 18  2  0
 19 18  1  0
 20 19  1  0
 21 20  2  0
 21 17  1  0
 22 15  1  0
 23 22  1  0
 24 22  2  0
M  END
$$$$
