GKH.pdb
     RDKit          3D

 24 24  0  0  1  0  0  0  0  0999 V2000
   16.4810  -19.0922    1.1097 N   0  0  0  0  0  0  0  0  0  0  0  0
   16.5787  -19.3230    2.5216 C   0  0  0  0  0  0  0  0  0  0  0  0
   15.9954  -18.2244    3.3226 C   0  0  0  0  0  0  0  0  0  0  0  0
   15.3891  -17.2362    2.7854 O   0  0  0  0  0  0  0  0  0  0  0  0
   16.1212  -18.2841    4.7277 N   0  0  0  0  0  0  0  0  0  0  0  0
   15.4604  -17.3071    5.6298 C   0  0  1  0  0  0  0  0  0  0  0  0
   14.7488  -18.1596    6.6222 C   0  0  0  0  0  0  0  0  0  0  0  0
   13.3068  -18.4091    6.4080 C   0  0  0  0  0  0  0  0  0  0  0  0
   12.6901  -19.2525    7.5223 C   0  0  0  0  0  0  0  0  0  0  0  0
   11.2538  -19.4768    7.1575 C   0  0  0  0  0  0  0  0  0  0  0  0
   10.5074  -20.1879    8.1610 N   0  0  0  0  0  0  0  0  0  0  0  0
   16.5471  -16.5524    6.2662 C   0  0  0  0  0  0  0  0  0  0  0  0
   17.6831  -17.1157    6.3757 O   0  0  0  0  0  0  0  0  0  0  0  0
   16.4814  -15.2358    6.7818 N   0  0  0  0  0  0  0  0  0  0  0  0
   17.6808  -14.6226    7.4115 C   0  0  1  0  0  0  0  0  0  0  0  0
   17.9120  -13.2689    6.8426 C   0  0  0  0  0  0  0  0  0  0  0  0
   18.4092  -13.3173    5.4520 C   0  0  0  0  0  0  0  0  0  0  0  0
   18.6619  -14.3595    4.5934 C   0  0  0  0  0  0  0  0  0  0  0  0
   19.0398  -13.9031    3.3628 N   0  0  0  0  0  0  0  0  0  0  0  0
   19.0186  -12.5725    3.4616 C   0  0  0  0  0  0  0  0  0  0  0  0
   18.6481  -12.1917    4.6884 N   0  0  0  0  0  0  0  0  0  0  0  0
   17.3916  -14.5558    8.8895 C   0  0  0  0  0  0  0  0  0  0  0  0
   18.3375  -13.9795    9.7714 O   0  0  0  0  0  0  0  0  0  0  0  0
   16.3663  -14.9691    9.4533 O   0  0  0  0  0  0  0  0  0  0  0  0
  1  2  1  0
  3  2  1  0
  3  4  2  0
  5  3  1  0
  6 12  1  0
  6  5  1  0
  6  7  1  1
  8  7  1  0
  9  8  1  0
 10  9  1  0
 11 10  1  0
 12 14  1  0
 13 12  2  0
 14 15  1  0
 15 16  1  6
 17 16  1  0
 17 18  2  0
 19 18  1  0
 20 19  1  0
 21 20  2  0
 21 17  1  0
 22 15  1  0
 23 22  1  0
 24 22  2  0
M  END
$$$$
