GKH.pdb
     RDKit          3D

 24 24  0  0  1  0  0  0  0  0999 V2000
   25.6244  -21.9828  -10.7713 N   0  0  0  0  0  0  0  0  0  0  0  0
   25.0145  -22.2060  -12.0497 C   0  0  0  0  0  0  0  0  0  0  0  0
   24.8221  -20.9564  -12.8180 C   0  0  0  0  0  0  0  0  0  0  0  0
   25.0438  -19.8041  -12.3123 O   0  0  0  0  0  0  0  0  0  0  0  0
   24.3780  -21.0569  -14.1544 N   0  0  0  0  0  0  0  0  0  0  0  0
   24.1731  -19.8667  -15.0184 C   0  0  1  0  0  0  0  0  0  0  0  0
   24.3855  -20.3846  -16.3986 C   0  0  0  0  0  0  0  0  0  0  0  0
   24.2118  -19.4400  -17.5233 C   0  0  0  0  0  0  0  0  0  0  0  0
   25.3175  -18.3873  -17.5756 C   0  0  0  0  0  0  0  0  0  0  0  0
   24.9692  -17.4417  -18.6851 C   0  0  0  0  0  0  0  0  0  0  0  0
   25.9308  -16.3874  -18.8682 N   0  0  0  0  0  0  0  0  0  0  0  0
   22.7764  -19.4619  -14.8164 C   0  0  0  0  0  0  0  0  0  0  0  0
   21.8986  -20.3763  -14.7019 O   0  0  0  0  0  0  0  0  0  0  0  0
   22.2773  -18.1404  -14.7261 N   0  0  0  0  0  0  0  0  0  0  0  0
   20.8333  -17.9071  -14.4589 C   0  0  1  0  0  0  0  0  0  0  0  0
   20.6278  -16.5145  -13.9814 C   0  0  0  0  0  0  0  0  0  0  0  0
   19.1977  -16.1678  -13.8476 C   0  0  0  0  0  0  0  0  0  0  0  0
   18.0515  -16.9231  -13.9025 C   0  0  0  0  0  0  0  0  0  0  0  0
   16.9480  -16.1631  -13.6375 N   0  0  0  0  0  0  0  0  0  0  0  0
   17.4154  -14.9330  -13.4161 C   0  0  0  0  0  0  0  0  0  0  0  0
   18.7468  -14.9011  -13.5325 N   0  0  0  0  0  0  0  0  0  0  0  0
   20.1196  -18.1517  -15.7641 C   0  0  0  0  0  0  0  0  0  0  0  0
   18.8268  -18.7291  -15.7675 O   0  0  0  0  0  0  0  0  0  0  0  0
   20.5566  -17.8922  -16.8961 O   0  0  0  0  0  0  0  0  0  0  0  0
  1  2  1  0
  3  2  1  0
  3  4  2  0
  5  3  1  0
  6 12  1  0
  6  5  1  0
  6  7  1  6
  8  7  1  0
  9  8  1  0
 10  9  1  0
 11 10  1  0
 12 14  1  0
 13 12  2  0
 14 15  1  0
 15 16  1  6
 17 16  1  0
 17 18  2  0
 19 18  1  0
 20 19  1  0
 21 20  2  0
 21 17  1  0
 22 15  1  0
 23 22  1  0
 24 22  2  0
M  END
$$$$
