GKH.pdb
     RDKit          3D

 24 24  0  0  1  0  0  0  0  0999 V2000
   18.5164  -12.4290  -14.0879 N   0  0  0  0  0  0  0  0  0  0  0  0
   17.8982  -12.3205  -12.7986 C   0  0  0  0  0  0  0  0  0  0  0  0
   17.2220  -11.0204  -12.5958 C   0  0  0  0  0  0  0  0  0  0  0  0
   17.2856  -10.0772  -13.4556 O   0  0  0  0  0  0  0  0  0  0  0  0
   16.4851  -10.8303  -11.4066 N   0  0  0  0  0  0  0  0  0  0  0  0
   15.7237   -9.5857  -11.1305 C   0  0  1  0  0  0  0  0  0  0  0  0
   14.5650  -10.0473  -10.3165 C   0  0  0  0  0  0  0  0  0  0  0  0
   13.5671   -9.0370   -9.9032 C   0  0  0  0  0  0  0  0  0  0  0  0
   12.3329   -9.6669   -9.2603 C   0  0  0  0  0  0  0  0  0  0  0  0
   11.4696   -8.5416   -8.7755 C   0  0  0  0  0  0  0  0  0  0  0  0
   10.2598   -8.9784   -8.1310 N   0  0  0  0  0  0  0  0  0  0  0  0
   16.6204   -8.7364  -10.3367 C   0  0  0  0  0  0  0  0  0  0  0  0
   17.0324   -9.1819   -9.2180 O   0  0  0  0  0  0  0  0  0  0  0  0
   17.0982   -7.4487  -10.6791 N   0  0  0  0  0  0  0  0  0  0  0  0
   17.7691   -6.6070   -9.6533 C   0  0  1  0  0  0  0  0  0  0  0  0
   19.2302   -6.8809   -9.6538 C   0  0  0  0  0  0  0  0  0  0  0  0
   19.8517   -6.6319  -10.9709 C   0  0  0  0  0  0  0  0  0  0  0  0
   20.1957   -7.4666  -12.0065 C   0  0  0  0  0  0  0  0  0  0  0  0
   20.6770   -6.7584  -13.0705 N   0  0  0  0  0  0  0  0  0  0  0  0
   20.6283   -5.4801  -12.6907 C   0  0  0  0  0  0  0  0  0  0  0  0
   20.1430   -5.3699  -11.4499 N   0  0  0  0  0  0  0  0  0  0  0  0
   17.4779   -5.1761  -10.0278 C   0  0  0  0  0  0  0  0  0  0  0  0
   17.9166   -4.1212   -9.1915 O   0  0  0  0  0  0  0  0  0  0  0  0
   16.8657   -4.7948  -11.0376 O   0  0  0  0  0  0  0  0  0  0  0  0
  1  2  1  0
  3  2  1  0
  3  4  2  0
  5  3  1  0
  6 12  1  0
  6  5  1  0
  6  7  1  1
  8  7  1  0
  9  8  1  0
 10  9  1  0
 11 10  1  0
 12 14  1  0
 13 12  2  0
 14 15  1  0
 15 16  1  6
 17 16  1  0
 17 18  2  0
 19 18  1  0
 20 19  1  0
 21 20  2  0
 21 17  1  0
 22 15  1  0
 23 22  1  0
 24 22  2  0
M  END
$$$$
