GKH.pdb
     RDKit          3D

 24 24  0  0  1  0  0  0  0  0999 V2000
   25.5321  -22.0876  -14.6013 N   0  0  0  0  0  0  0  0  0  0  0  0
   24.7922  -21.0179  -13.9974 C   0  0  0  0  0  0  0  0  0  0  0  0
   23.5843  -21.4886  -13.2847 C   0  0  0  0  0  0  0  0  0  0  0  0
   23.1981  -22.7059  -13.3278 O   0  0  0  0  0  0  0  0  0  0  0  0
   22.8433  -20.5488  -12.5356 N   0  0  0  0  0  0  0  0  0  0  0  0
   21.6285  -20.9211  -11.7670 C   0  0  1  0  0  0  0  0  0  0  0  0
   21.6725  -20.0311  -10.5736 C   0  0  0  0  0  0  0  0  0  0  0  0
   20.7019  -20.2866   -9.4873 C   0  0  0  0  0  0  0  0  0  0  0  0
   20.9031  -21.6539   -8.8365 C   0  0  0  0  0  0  0  0  0  0  0  0
   19.8542  -21.7917   -7.7747 C   0  0  0  0  0  0  0  0  0  0  0  0
   19.9180  -23.0377   -7.0584 N   0  0  0  0  0  0  0  0  0  0  0  0
   20.4903  -20.5870  -12.6321 C   0  0  0  0  0  0  0  0  0  0  0  0
   20.4838  -19.4478  -13.1996 O   0  0  0  0  0  0  0  0  0  0  0  0
   19.3721  -21.4050  -12.9220 N   0  0  0  0  0  0  0  0  0  0  0  0
   18.3000  -20.9071  -13.8241 C   0  0  1  0  0  0  0  0  0  0  0  0
   17.9481  -21.9569  -14.8159 C   0  0  0  0  0  0  0  0  0  0  0  0
   18.9033  -22.0141  -15.9418 C   0  0  0  0  0  0  0  0  0  0  0  0
   20.0163  -21.2710  -16.2521 C   0  0  0  0  0  0  0  0  0  0  0  0
   20.6344  -21.7537  -17.3703 N   0  0  0  0  0  0  0  0  0  0  0  0
   19.9004  -22.8010  -17.7512 C   0  0  0  0  0  0  0  0  0  0  0  0
   18.8656  -22.9834  -16.9247 N   0  0  0  0  0  0  0  0  0  0  0  0
   17.1271  -20.5725  -12.9381 C   0  0  0  0  0  0  0  0  0  0  0  0
   16.0400  -19.8258  -13.4532 O   0  0  0  0  0  0  0  0  0  0  0  0
   16.9965  -20.8924  -11.7463 O   0  0  0  0  0  0  0  0  0  0  0  0
  1  2  1  0
  3  2  1  0
  3  4  2  0
  5  3  1  0
  6 12  1  0
  6  5  1  0
  6  7  1  1
  8  7  1  0
  9  8  1  0
 10  9  1  0
 11 10  1  0
 12 14  1  0
 13 12  2  0
 14 15  1  0
 15 16  1  6
 17 16  1  0
 17 18  2  0
 19 18  1  0
 20 19  1  0
 21 20  2  0
 21 17  1  0
 22 15  1  0
 23 22  1  0
 24 22  2  0
M  END
$$$$
