GKH.pdb
     RDKit          3D

 24 24  0  0  1  0  0  0  0  0999 V2000
   25.3531  -32.5551   -9.5051 N   0  0  0  0  0  0  0  0  0  0  0  0
   26.5799  -32.5125   -8.7639 C   0  0  0  0  0  0  0  0  0  0  0  0
   26.8140  -33.7412   -7.9738 C   0  0  0  0  0  0  0  0  0  0  0  0
   25.9432  -34.6724   -7.8870 O   0  0  0  0  0  0  0  0  0  0  0  0
   28.0465  -33.8748   -7.2981 N   0  0  0  0  0  0  0  0  0  0  0  0
   28.3867  -35.0727   -6.4891 C   0  0  1  0  0  0  0  0  0  0  0  0
   29.8708  -35.1575   -6.5806 C   0  0  0  0  0  0  0  0  0  0  0  0
   30.5367  -36.3069   -5.9305 C   0  0  0  0  0  0  0  0  0  0  0  0
   30.3568  -37.6046   -6.7160 C   0  0  0  0  0  0  0  0  0  0  0  0
   31.1010  -38.6727   -5.9731 C   0  0  0  0  0  0  0  0  0  0  0  0
   31.1472  -39.9326   -6.6659 N   0  0  0  0  0  0  0  0  0  0  0  0
   27.9599  -34.7637   -5.1187 C   0  0  0  0  0  0  0  0  0  0  0  0
   28.4613  -33.7405   -4.5518 O   0  0  0  0  0  0  0  0  0  0  0  0
   27.0284  -35.4848   -4.3339 N   0  0  0  0  0  0  0  0  0  0  0  0
   26.7406  -35.0559   -2.9395 C   0  0  1  0  0  0  0  0  0  0  0  0
   25.4012  -35.5508   -2.5264 C   0  0  0  0  0  0  0  0  0  0  0  0
   24.3044  -34.6910   -3.0174 C   0  0  0  0  0  0  0  0  0  0  0  0
   23.6754  -34.5953   -4.2351 C   0  0  0  0  0  0  0  0  0  0  0  0
   22.6480  -33.6966   -4.1891 N   0  0  0  0  0  0  0  0  0  0  0  0
   22.6414  -33.2366   -2.9365 C   0  0  0  0  0  0  0  0  0  0  0  0
   23.6115  -33.8065   -2.2145 N   0  0  0  0  0  0  0  0  0  0  0  0
   27.8327  -35.6464   -2.0844 C   0  0  0  0  0  0  0  0  0  0  0  0
   28.4258  -34.8724   -1.0578 O   0  0  0  0  0  0  0  0  0  0  0  0
   28.2972  -36.7931   -2.1806 O   0  0  0  0  0  0  0  0  0  0  0  0
  1  2  1  0
  3  2  1  0
  3  4  2  0
  5  3  1  0
  6 12  1  0
  6  5  1  0
  6  7  1  1
  8  7  1  0
  9  8  1  0
 10  9  1  0
 11 10  1  0
 12 14  1  0
 13 12  2  0
 14 15  1  0
 15 16  1  1
 17 16  1  0
 17 18  2  0
 19 18  1  0
 20 19  1  0
 21 20  2  0
 21 17  1  0
 22 15  1  0
 23 22  1  0
 24 22  2  0
M  END
$$$$
