GKH.pdb
     RDKit          3D

 24 24  0  0  1  0  0  0  0  0999 V2000
   50.2904   -7.6345   -3.5145 N   0  0  0  0  0  0  0  0  0  0  0  0
   48.9196   -7.7296   -3.1046 C   0  0  0  0  0  0  0  0  0  0  0  0
   47.9728   -7.4012   -4.1930 C   0  0  0  0  0  0  0  0  0  0  0  0
   48.2142   -6.4892   -5.0548 O   0  0  0  0  0  0  0  0  0  0  0  0
   46.7653   -8.1291   -4.2687 N   0  0  0  0  0  0  0  0  0  0  0  0
   45.7673   -7.9085   -5.3459 C   0  0  1  0  0  0  0  0  0  0  0  0
   45.1210   -9.2397   -5.5141 C   0  0  0  0  0  0  0  0  0  0  0  0
   45.6912  -10.1601   -6.5217 C   0  0  0  0  0  0  0  0  0  0  0  0
   44.9580  -11.4994   -6.5677 C   0  0  0  0  0  0  0  0  0  0  0  0
   45.6497  -12.3418   -7.5965 C   0  0  0  0  0  0  0  0  0  0  0  0
   45.1537  -13.6904   -7.6668 N   0  0  0  0  0  0  0  0  0  0  0  0
   44.8164   -6.9243   -4.8142 C   0  0  0  0  0  0  0  0  0  0  0  0
   44.2562   -7.1748   -3.6992 O   0  0  0  0  0  0  0  0  0  0  0  0
   44.4425   -5.6946   -5.4074 N   0  0  0  0  0  0  0  0  0  0  0  0
   43.4346   -4.8251   -4.7449 C   0  0  1  0  0  0  0  0  0  0  0  0
   43.8408   -3.4003   -4.8661 C   0  0  0  0  0  0  0  0  0  0  0  0
   42.8837   -2.4820   -4.2149 C   0  0  0  0  0  0  0  0  0  0  0  0
   42.3703   -2.4281   -2.9418 C   0  0  0  0  0  0  0  0  0  0  0  0
   41.5681   -1.3345   -2.7804 N   0  0  0  0  0  0  0  0  0  0  0  0
   41.5879   -0.7092   -3.9591 C   0  0  0  0  0  0  0  0  0  0  0  0
   42.3596   -1.3637   -4.8328 N   0  0  0  0  0  0  0  0  0  0  0  0
   42.1272   -5.0859   -5.4487 C   0  0  0  0  0  0  0  0  0  0  0  0
   40.9027   -4.8802   -4.7682 O   0  0  0  0  0  0  0  0  0  0  0  0
   41.9920   -5.4808   -6.6172 O   0  0  0  0  0  0  0  0  0  0  0  0
  1  2  1  0
  3  2  1  0
  3  4  2  0
  5  3  1  0
  6 12  1  0
  6  5  1  0
  6  7  1  1
  8  7  1  0
  9  8  1  0
 10  9  1  0
 11 10  1  0
 12 14  1  0
 13 12  2  0
 14 15  1  0
 15 16  1  6
 17 16  1  0
 17 18  2  0
 19 18  1  0
 20 19  1  0
 21 20  2  0
 21 17  1  0
 22 15  1  0
 23 22  1  0
 24 22  2  0
M  END
$$$$
