GKH.pdb
     RDKit          3D

 24 24  0  0  1  0  0  0  0  0999 V2000
   27.0250  -16.6099  -18.3832 N   0  0  0  0  0  0  0  0  0  0  0  0
   26.6702  -16.8122  -17.0087 C   0  0  0  0  0  0  0  0  0  0  0  0
   25.8022  -17.9936  -16.8097 C   0  0  0  0  0  0  0  0  0  0  0  0
   24.8668  -18.2977  -17.6254 O   0  0  0  0  0  0  0  0  0  0  0  0
   26.0274  -18.8031  -15.6750 N   0  0  0  0  0  0  0  0  0  0  0  0
   25.1444  -19.9432  -15.3207 C   0  0  1  0  0  0  0  0  0  0  0  0
   25.9427  -20.7217  -14.3334 C   0  0  0  0  0  0  0  0  0  0  0  0
   25.5214  -22.1104  -14.0483 C   0  0  0  0  0  0  0  0  0  0  0  0
   25.0110  -22.8313  -15.2946 C   0  0  0  0  0  0  0  0  0  0  0  0
   24.7217  -24.2464  -14.8939 C   0  0  0  0  0  0  0  0  0  0  0  0
   24.1353  -25.0354  -15.9442 N   0  0  0  0  0  0  0  0  0  0  0  0
   23.9592  -19.3494  -14.6894 C   0  0  0  0  0  0  0  0  0  0  0  0
   24.1352  -18.5753  -13.6946 O   0  0  0  0  0  0  0  0  0  0  0  0
   22.6084  -19.5365  -15.0689 N   0  0  0  0  0  0  0  0  0  0  0  0
   21.5208  -18.8805  -14.2958 C   0  0  1  0  0  0  0  0  0  0  0  0
   21.1387  -17.6014  -14.9497 C   0  0  0  0  0  0  0  0  0  0  0  0
   19.9930  -16.9466  -14.2849 C   0  0  0  0  0  0  0  0  0  0  0  0
   19.3124  -17.2237  -13.1241 C   0  0  0  0  0  0  0  0  0  0  0  0
   18.3614  -16.2761  -12.8730 N   0  0  0  0  0  0  0  0  0  0  0  0
   18.4565  -15.4088  -13.8827 C   0  0  0  0  0  0  0  0  0  0  0  0
   19.4155  -15.7770  -14.7382 N   0  0  0  0  0  0  0  0  0  0  0  0
   20.3704  -19.8547  -14.2795 C   0  0  0  0  0  0  0  0  0  0  0  0
   19.9224  -20.4427  -15.4871 O   0  0  0  0  0  0  0  0  0  0  0  0
   19.7366  -20.2208  -13.2775 O   0  0  0  0  0  0  0  0  0  0  0  0
  1  2  1  0
  3  2  1  0
  3  4  2  0
  5  3  1  0
  6 12  1  0
  6  5  1  0
  6  7  1  1
  8  7  1  0
  9  8  1  0
 10  9  1  0
 11 10  1  0
 12 14  1  0
 13 12  2  0
 14 15  1  0
 15 16  1  6
 17 16  1  0
 17 18  2  0
 19 18  1  0
 20 19  1  0
 21 20  2  0
 21 17  1  0
 22 15  1  0
 23 22  1  0
 24 22  2  0
M  END
$$$$
