GKH.pdb
     RDKit          3D

 24 24  0  0  1  0  0  0  0  0999 V2000
   28.3544  -21.0004  -17.1077 N   0  0  0  0  0  0  0  0  0  0  0  0
   28.0754  -20.2004  -15.9509 C   0  0  0  0  0  0  0  0  0  0  0  0
   27.2051  -20.8910  -14.9739 C   0  0  0  0  0  0  0  0  0  0  0  0
   26.5303  -21.9325  -15.2786 O   0  0  0  0  0  0  0  0  0  0  0  0
   27.1280  -20.3695  -13.6641 N   0  0  0  0  0  0  0  0  0  0  0  0
   26.2103  -20.9250  -12.6373 C   0  0  1  0  0  0  0  0  0  0  0  0
   26.7895  -20.4565  -11.3477 C   0  0  0  0  0  0  0  0  0  0  0  0
   26.0374  -20.7483  -10.1081 C   0  0  0  0  0  0  0  0  0  0  0  0
   26.7316  -20.1993   -8.8630 C   0  0  0  0  0  0  0  0  0  0  0  0
   25.8331  -20.4870   -7.6983 C   0  0  0  0  0  0  0  0  0  0  0  0
   26.4356  -20.2089   -6.4219 N   0  0  0  0  0  0  0  0  0  0  0  0
   24.9056  -20.2999  -12.8872 C   0  0  0  0  0  0  0  0  0  0  0  0
   24.8862  -19.0830  -13.2596 O   0  0  0  0  0  0  0  0  0  0  0  0
   23.6329  -20.9073  -12.7651 N   0  0  0  0  0  0  0  0  0  0  0  0
   22.4719  -20.3593  -13.5153 C   0  0  1  0  0  0  0  0  0  0  0  0
   22.4313  -20.9467  -14.8802 C   0  0  0  0  0  0  0  0  0  0  0  0
   21.2615  -20.4891  -15.6583 C   0  0  0  0  0  0  0  0  0  0  0  0
   20.2453  -19.6094  -15.3738 C   0  0  0  0  0  0  0  0  0  0  0  0
   19.4226  -19.4427  -16.4513 N   0  0  0  0  0  0  0  0  0  0  0  0
   19.9344  -20.2218  -17.4061 C   0  0  0  0  0  0  0  0  0  0  0  0
   21.0265  -20.8566  -16.9685 N   0  0  0  0  0  0  0  0  0  0  0  0
   21.2455  -20.7296  -12.7207 C   0  0  0  0  0  0  0  0  0  0  0  0
   21.2684  -21.8589  -11.8670 O   0  0  0  0  0  0  0  0  0  0  0  0
   20.1603  -20.1278  -12.7281 O   0  0  0  0  0  0  0  0  0  0  0  0
  1  2  1  0
  3  2  1  0
  3  4  2  0
  5  3  1  0
  6 12  1  0
  6  5  1  0
  6  7  1  1
  8  7  1  0
  9  8  1  0
 10  9  1  0
 11 10  1  0
 12 14  1  0
 13 12  2  0
 14 15  1  0
 15 16  1  6
 17 16  1  0
 17 18  2  0
 19 18  1  0
 20 19  1  0
 21 20  2  0
 21 17  1  0
 22 15  1  0
 23 22  1  0
 24 22  2  0
M  END
$$$$
