GKH.pdb
     RDKit          3D

 24 24  0  0  1  0  0  0  0  0999 V2000
   19.5002  -13.7808  -17.7859 N   0  0  0  0  0  0  0  0  0  0  0  0
   19.0839  -13.3167  -16.4945 C   0  0  0  0  0  0  0  0  0  0  0  0
   18.4221  -11.9947  -16.5476 C   0  0  0  0  0  0  0  0  0  0  0  0
   18.7569  -11.0979  -17.3941 O   0  0  0  0  0  0  0  0  0  0  0  0
   17.3868  -11.7297  -15.6248 N   0  0  0  0  0  0  0  0  0  0  0  0
   16.6149  -10.4611  -15.6348 C   0  0  1  0  0  0  0  0  0  0  0  0
   15.4181  -10.7630  -14.8013 C   0  0  0  0  0  0  0  0  0  0  0  0
   14.0886  -10.6557  -15.4403 C   0  0  0  0  0  0  0  0  0  0  0  0
   12.9587  -11.0941  -14.5104 C   0  0  0  0  0  0  0  0  0  0  0  0
   11.6737  -10.8773  -15.2508 C   0  0  0  0  0  0  0  0  0  0  0  0
   10.5129  -11.3464  -14.5423 N   0  0  0  0  0  0  0  0  0  0  0  0
   17.4742   -9.4654  -14.9822 C   0  0  0  0  0  0  0  0  0  0  0  0
   18.1325   -9.8247  -13.9539 O   0  0  0  0  0  0  0  0  0  0  0  0
   17.6667   -8.1189  -15.3741 N   0  0  0  0  0  0  0  0  0  0  0  0
   18.6327   -7.2608  -14.6383 C   0  0  1  0  0  0  0  0  0  0  0  0
   19.9051   -7.1662  -15.4010 C   0  0  0  0  0  0  0  0  0  0  0  0
   20.8368   -6.1741  -14.8257 C   0  0  0  0  0  0  0  0  0  0  0  0
   21.6391   -6.1932  -13.7107 C   0  0  0  0  0  0  0  0  0  0  0  0
   22.3961   -5.0593  -13.6294 N   0  0  0  0  0  0  0  0  0  0  0  0
   22.0609   -4.3374  -14.7004 C   0  0  0  0  0  0  0  0  0  0  0  0
   21.1380   -4.9704  -15.4318 N   0  0  0  0  0  0  0  0  0  0  0  0
   17.9742   -5.9119  -14.4979 C   0  0  0  0  0  0  0  0  0  0  0  0
   18.4511   -4.9870  -13.5379 O   0  0  0  0  0  0  0  0  0  0  0  0
   17.0116   -5.4957  -15.1612 O   0  0  0  0  0  0  0  0  0  0  0  0
  1  2  1  0
  3  2  1  0
  3  4  2  0
  5  3  1  0
  6 12  1  0
  6  5  1  0
  6  7  1  1
  8  7  1  0
  9  8  1  0
 10  9  1  0
 11 10  1  0
 12 14  1  0
 13 12  2  0
 14 15  1  0
 15 16  1  6
 17 16  1  0
 17 18  2  0
 19 18  1  0
 20 19  1  0
 21 20  2  0
 21 17  1  0
 22 15  1  0
 23 22  1  0
 24 22  2  0
M  END
$$$$
