CYW.pdb
     RDKit          3D

 33 35  0  0  1  0  0  0  0  0999 V2000
    7.3344  -15.5614   17.1712 N   0  0  0  0  0  0  0  0  0  0  0  0
    8.2711  -14.9223   18.1149 C   0  0  1  0  0  0  0  0  0  0  0  0
    7.8319  -13.4613   18.1412 C   0  0  0  0  0  0  0  0  0  0  0  0
    8.8385  -12.5501   19.3213 S   0  0  0  0  0  0  0  0  0  0  0  0
    8.1251  -15.5906   19.4077 C   0  0  0  0  0  0  0  0  0  0  0  0
    6.9685  -15.9640   19.7959 O   0  0  0  0  0  0  0  0  0  0  0  0
    7.2534  -20.9750   25.8960 O   0  0  0  0  0  0  0  0  0  0  0  0
    7.5098  -20.2057   24.7490 C   0  0  0  0  0  0  0  0  0  0  0  0
    8.7489  -20.2424   24.1392 C   0  0  0  0  0  0  0  0  0  0  0  0
    8.9653  -19.4755   23.0165 C   0  0  0  0  0  0  0  0  0  0  0  0
    7.9910  -18.6729   22.4792 C   0  0  0  0  0  0  0  0  0  0  0  0
    8.2600  -17.8781   21.2896 C   0  0  0  0  0  0  0  0  0  0  0  0
    8.9250  -16.5500   21.5749 C   0  0  2  0  0  0  0  0  0  0  0  0
    9.1781  -15.8749   20.3030 N   0  0  0  0  0  0  0  0  0  0  0  0
   10.1490  -16.6542   22.3861 C   0  0  0  0  0  0  0  0  0  0  0  0
   10.8864  -17.6947   22.3569 O   0  0  0  0  0  0  0  0  0  0  0  0
    6.7603  -18.6325   23.0794 C   0  0  0  0  0  0  0  0  0  0  0  0
    6.5490  -19.3950   24.1939 C   0  0  0  0  0  0  0  0  0  0  0  0
   10.5835  -15.6109   23.2442 N   0  0  0  0  0  0  0  0  0  0  0  0
    9.8300  -15.2170   24.4571 C   0  0  1  0  0  0  0  0  0  0  0  0
    8.4342  -14.9580   23.9425 C   0  0  0  0  0  0  0  0  0  0  0  0
    7.4516  -14.5139   24.9151 C   0  0  0  0  0  0  0  0  0  0  0  0
    6.4852  -15.2787   25.5203 C   0  0  0  0  0  0  0  0  0  0  0  0
    5.7390  -14.5207   26.3453 N   0  0  0  0  0  0  0  0  0  0  0  0
    6.2252  -13.2566   26.2747 C   0  0  0  0  0  0  0  0  0  0  0  0
    5.8411  -12.1020   26.9188 C   0  0  0  0  0  0  0  0  0  0  0  0
    6.4914  -10.9031   26.7121 C   0  0  0  0  0  0  0  0  0  0  0  0
    7.5600  -10.8769   25.8277 C   0  0  0  0  0  0  0  0  0  0  0  0
    7.9317  -12.0328   25.1926 C   0  0  0  0  0  0  0  0  0  0  0  0
    7.2822  -13.2307   25.3981 C   0  0  0  0  0  0  0  0  0  0  0  0
    9.9624  -16.1641   25.5411 C   0  0  0  0  0  0  0  0  0  0  0  0
    9.7934  -17.5208   25.3282 O   0  0  0  0  0  0  0  0  0  0  0  0
   10.2299  -15.7881   26.7089 O   0  0  0  0  0  0  0  0  0  0  0  0
  2  3  1  0
  2  1  1  6
  3  4  1  0
  5  2  1  0
  6  5  2  0
  8  7  1  0
  8  9  2  0
 10  9  1  0
 11 10  2  0
 12 11  1  0
 13 12  1  6
 13 14  1  0
 14  5  1  0
 15 13  1  0
 15 19  1  0
 16 15  2  0
 17 18  2  0
 17 11  1  0
 18  8  1  0
 20 21  1  6
 20 19  1  0
 20 31  1  0
 22 21  1  0
 22 23  2  0
 24 23  1  0
 25 30  2  0
 25 24  1  0
 26 25  1  0
 27 28  1  0
 27 26  2  0
 28 29  2  0
 29 30  1  0
 30 22  1  0
 31 32  1  0
 33 31  2  0
M  END
$$$$
