CYW.pdb
     RDKit          3D

 33 35  0  0  1  0  0  0  0  0999 V2000
    7.2456  -19.7806   20.0049 N   0  0  0  0  0  0  0  0  0  0  0  0
    6.8708  -18.9843   21.1890 C   0  0  1  0  0  0  0  0  0  0  0  0
    6.8289  -20.0038   22.3234 C   0  0  0  0  0  0  0  0  0  0  0  0
    6.4080  -19.1752   23.8637 S   0  0  0  0  0  0  0  0  0  0  0  0
    7.8947  -17.9568   21.3762 C   0  0  0  0  0  0  0  0  0  0  0  0
    9.1110  -18.2220   21.0962 O   0  0  0  0  0  0  0  0  0  0  0  0
    7.9389  -13.5040   15.8937 O   0  0  0  0  0  0  0  0  0  0  0  0
    7.9912  -13.7015   17.2834 C   0  0  0  0  0  0  0  0  0  0  0  0
    7.4138  -12.7901   18.1462 C   0  0  0  0  0  0  0  0  0  0  0  0
    7.4839  -13.0152   19.5026 C   0  0  0  0  0  0  0  0  0  0  0  0
    8.1090  -14.1165   20.0306 C   0  0  0  0  0  0  0  0  0  0  0  0
    8.1600  -14.3185   21.4714 C   0  0  0  0  0  0  0  0  0  0  0  0
    8.7332  -15.6556   21.8849 C   0  0  2  0  0  0  0  0  0  0  0  0
    7.6615  -16.6497   21.8540 N   0  0  0  0  0  0  0  0  0  0  0  0
    9.4181  -15.6374   23.1878 C   0  0  0  0  0  0  0  0  0  0  0  0
   10.3131  -14.7711   23.4631 O   0  0  0  0  0  0  0  0  0  0  0  0
    8.6832  -15.0238   19.1800 C   0  0  0  0  0  0  0  0  0  0  0  0
    8.6119  -14.7970   17.8340 C   0  0  0  0  0  0  0  0  0  0  0  0
    9.1268  -16.5744   24.2129 N   0  0  0  0  0  0  0  0  0  0  0  0
    9.8429  -16.5784   25.5096 C   0  0  1  0  0  0  0  0  0  0  0  0
    9.6819  -15.1633   26.0113 C   0  0  0  0  0  0  0  0  0  0  0  0
    8.3233  -14.6681   26.1437 C   0  0  0  0  0  0  0  0  0  0  0  0
    7.1638  -15.3799   25.9597 C   0  0  0  0  0  0  0  0  0  0  0  0
    6.0936  -14.5840   26.1421 N   0  0  0  0  0  0  0  0  0  0  0  0
    6.5625  -13.3484   26.4467 C   0  0  0  0  0  0  0  0  0  0  0  0
    5.9019  -12.1760   26.7372 C   0  0  0  0  0  0  0  0  0  0  0  0
    6.5812  -11.0142   27.0402 C   0  0  0  0  0  0  0  0  0  0  0  0
    7.9683  -11.0447   27.0481 C   0  0  0  0  0  0  0  0  0  0  0  0
    8.6136  -12.2178   26.7564 C   0  0  0  0  0  0  0  0  0  0  0  0
    7.9357  -13.3787   26.4531 C   0  0  0  0  0  0  0  0  0  0  0  0
    9.4131  -17.6386   26.3931 C   0  0  0  0  0  0  0  0  0  0  0  0
    8.4550  -18.5544   25.9959 O   0  0  0  0  0  0  0  0  0  0  0  0
    9.8901  -17.7609   27.5482 O   0  0  0  0  0  0  0  0  0  0  0  0
  2  3  1  0
  2  1  1  6
  3  4  1  0
  5  2  1  0
  6  5  2  0
  8  7  1  0
  8  9  2  0
 10  9  1  0
 11 10  2  0
 12 11  1  0
 13 12  1  1
 13 14  1  0
 14  5  1  0
 15 13  1  0
 15 19  1  0
 16 15  2  0
 17 18  2  0
 17 11  1  0
 18  8  1  0
 20 21  1  1
 20 19  1  0
 20 31  1  0
 22 21  1  0
 22 23  2  0
 24 23  1  0
 25 30  2  0
 25 24  1  0
 26 25  1  0
 27 28  1  0
 27 26  2  0
 28 29  2  0
 29 30  1  0
 30 22  1  0
 31 32  1  0
 33 31  2  0
M  END
$$$$
