CYW.pdb
     RDKit          3D

 33 35  0  0  1  0  0  0  0  0999 V2000
   10.5051  -17.3793   17.3297 N   0  0  0  0  0  0  0  0  0  0  0  0
    9.4634  -17.9319   18.2164 C   0  0  1  0  0  0  0  0  0  0  0  0
    9.8544  -19.3977   18.3795 C   0  0  0  0  0  0  0  0  0  0  0  0
    8.9669  -20.3962   17.1748 S   0  0  0  0  0  0  0  0  0  0  0  0
    9.5043  -17.1822   19.4716 C   0  0  0  0  0  0  0  0  0  0  0  0
   10.5881  -16.6112   19.8284 O   0  0  0  0  0  0  0  0  0  0  0  0
    7.1880  -12.5246   26.6260 O   0  0  0  0  0  0  0  0  0  0  0  0
    7.1901  -13.3093   25.4610 C   0  0  0  0  0  0  0  0  0  0  0  0
    7.5957  -12.7752   24.2532 C   0  0  0  0  0  0  0  0  0  0  0  0
    7.5852  -13.5731   23.1313 C   0  0  0  0  0  0  0  0  0  0  0  0
    7.1850  -14.8849   23.1696 C   0  0  0  0  0  0  0  0  0  0  0  0
    7.1899  -15.6955   21.9604 C   0  0  0  0  0  0  0  0  0  0  0  0
    8.5562  -16.2179   21.5759 C   0  0  2  0  0  0  0  0  0  0  0  0
    8.4213  -17.0210   20.3617 N   0  0  0  0  0  0  0  0  0  0  0  0
    9.2358  -16.9649   22.6470 C   0  0  0  0  0  0  0  0  0  0  0  0
    8.6093  -17.7913   23.3899 O   0  0  0  0  0  0  0  0  0  0  0  0
    6.7820  -15.4200   24.3644 C   0  0  0  0  0  0  0  0  0  0  0  0
    6.7935  -14.6249   25.4761 C   0  0  0  0  0  0  0  0  0  0  0  0
   10.6207  -16.8153   22.9176 N   0  0  0  0  0  0  0  0  0  0  0  0
   11.1406  -16.5872   24.2857 C   0  0  1  0  0  0  0  0  0  0  0  0
   10.2179  -15.5322   24.8476 C   0  0  0  0  0  0  0  0  0  0  0  0
   10.2413  -15.3438   26.2872 C   0  0  0  0  0  0  0  0  0  0  0  0
   11.0440  -15.9940   27.1917 C   0  0  0  0  0  0  0  0  0  0  0  0
   10.7683  -15.5799   28.4424 N   0  0  0  0  0  0  0  0  0  0  0  0
    9.7809  -14.6549   28.3480 C   0  0  0  0  0  0  0  0  0  0  0  0
    9.1407  -13.9126   29.3148 C   0  0  0  0  0  0  0  0  0  0  0  0
    8.1568  -12.9992   28.9977 C   0  0  0  0  0  0  0  0  0  0  0  0
    7.8146  -12.8358   27.6631 C   0  0  0  0  0  0  0  0  0  0  0  0
    8.4589  -13.5812   26.7108 C   0  0  0  0  0  0  0  0  0  0  0  0
    9.4414  -14.4943   27.0269 C   0  0  0  0  0  0  0  0  0  0  0  0
   11.2833  -17.8058   25.0501 C   0  0  0  0  0  0  0  0  0  0  0  0
   10.2503  -18.7229   25.1307 O   0  0  0  0  0  0  0  0  0  0  0  0
   12.3441  -18.0698   25.6678 O   0  0  0  0  0  0  0  0  0  0  0  0
  2  3  1  0
  2  1  1  6
  3  4  1  0
  5  2  1  0
  6  5  2  0
  8  7  1  0
  8  9  2  0
 10  9  1  0
 11 10  2  0
 12 11  1  0
 13 12  1  1
 13 14  1  0
 14  5  1  0
 15 13  1  0
 15 19  1  0
 16 15  2  0
 17 18  2  0
 17 11  1  0
 18  8  1  0
 20 21  1  1
 20 19  1  0
 20 31  1  0
 22 21  1  0
 22 23  2  0
 24 23  1  0
 25 30  2  0
 25 24  1  0
 26 25  1  0
 27 28  1  0
 27 26  2  0
 28 29  2  0
 29 30  1  0
 30 22  1  0
 31 32  1  0
 33 31  2  0
M  END
$$$$
