CYW.pdb
     RDKit          3D

 33 35  0  0  1  0  0  0  0  0999 V2000
    8.5719  -18.6141   17.9595 N   0  0  0  0  0  0  0  0  0  0  0  0
    8.2891  -18.1922   19.3446 C   0  0  1  0  0  0  0  0  0  0  0  0
    8.2858  -19.4964   20.1364 C   0  0  0  0  0  0  0  0  0  0  0  0
    7.9990  -19.1445   21.8771 S   0  0  0  0  0  0  0  0  0  0  0  0
    9.3499  -17.2726   19.7547 C   0  0  0  0  0  0  0  0  0  0  0  0
   10.5342  -17.4397   19.3103 O   0  0  0  0  0  0  0  0  0  0  0  0
    7.2519  -13.3955   15.6823 O   0  0  0  0  0  0  0  0  0  0  0  0
    7.9237  -13.5161   16.9099 C   0  0  0  0  0  0  0  0  0  0  0  0
    7.3260  -13.0989   18.0834 C   0  0  0  0  0  0  0  0  0  0  0  0
    8.0135  -13.2321   19.2688 C   0  0  0  0  0  0  0  0  0  0  0  0
    9.2758  -13.7664   19.3270 C   0  0  0  0  0  0  0  0  0  0  0  0
    9.9684  -13.8911   20.6014 C   0  0  0  0  0  0  0  0  0  0  0  0
   10.3163  -15.3147   20.9753 C   0  0  2  0  0  0  0  0  0  0  0  0
    9.1869  -16.1754   20.6270 N   0  0  0  0  0  0  0  0  0  0  0  0
   10.7136  -15.4851   22.3825 C   0  0  0  0  0  0  0  0  0  0  0  0
   11.5011  -14.6651   22.9612 O   0  0  0  0  0  0  0  0  0  0  0  0
    9.8734  -14.1820   18.1667 C   0  0  0  0  0  0  0  0  0  0  0  0
    9.1881  -14.0481   16.9916 C   0  0  0  0  0  0  0  0  0  0  0  0
   10.2477  -16.5632   23.1788 N   0  0  0  0  0  0  0  0  0  0  0  0
    9.5268  -16.3516   24.4555 C   0  0  1  0  0  0  0  0  0  0  0  0
    8.4282  -15.3826   24.0894 C   0  0  0  0  0  0  0  0  0  0  0  0
    7.5467  -14.9591   25.1628 C   0  0  0  0  0  0  0  0  0  0  0  0
    6.6072  -15.7236   25.8094 C   0  0  0  0  0  0  0  0  0  0  0  0
    5.9600  -14.9866   26.7313 N   0  0  0  0  0  0  0  0  0  0  0  0
    6.4835  -13.7365   26.6822 C   0  0  0  0  0  0  0  0  0  0  0  0
    6.1960  -12.6056   27.4128 C   0  0  0  0  0  0  0  0  0  0  0  0
    6.8693  -11.4186   27.2111 C   0  0  0  0  0  0  0  0  0  0  0  0
    7.8608  -11.3799   26.2413 C   0  0  0  0  0  0  0  0  0  0  0  0
    8.1367  -12.5122   25.5206 C   0  0  0  0  0  0  0  0  0  0  0  0
    7.4641  -13.6982   25.7212 C   0  0  0  0  0  0  0  0  0  0  0  0
    9.1254  -17.5854   25.0928 C   0  0  0  0  0  0  0  0  0  0  0  0
    8.7856  -18.6981   24.3438 O   0  0  0  0  0  0  0  0  0  0  0  0
    9.0676  -17.6868   26.3431 O   0  0  0  0  0  0  0  0  0  0  0  0
  2  3  1  0
  2  1  1  6
  3  4  1  0
  5  2  1  0
  6  5  2  0
  8  7  1  0
  8  9  2  0
 10  9  1  0
 11 10  2  0
 12 11  1  0
 13 12  1  1
 13 14  1  0
 14  5  1  0
 15 13  1  0
 15 19  1  0
 16 15  2  0
 17 18  2  0
 17 11  1  0
 18  8  1  0
 20 21  1  6
 20 19  1  0
 20 31  1  0
 22 21  1  0
 22 23  2  0
 24 23  1  0
 25 30  2  0
 25 24  1  0
 26 25  1  0
 27 28  1  0
 27 26  2  0
 28 29  2  0
 29 30  1  0
 30 22  1  0
 31 32  1  0
 33 31  2  0
M  END
$$$$
