CYW.pdb
     RDKit          3D

 33 35  0  0  1  0  0  0  0  0999 V2000
    9.6788  -19.7326   18.9347 N   0  0  0  0  0  0  0  0  0  0  0  0
    8.9220  -18.9506   19.9308 C   0  0  1  0  0  0  0  0  0  0  0  0
    8.6357  -19.9502   21.0474 C   0  0  0  0  0  0  0  0  0  0  0  0
   10.1285  -20.2178   22.0148 S   0  0  0  0  0  0  0  0  0  0  0  0
    9.7685  -17.8371   20.3583 C   0  0  0  0  0  0  0  0  0  0  0  0
   11.0107  -17.8429   20.0668 O   0  0  0  0  0  0  0  0  0  0  0  0
    7.3046  -13.0929   16.3532 O   0  0  0  0  0  0  0  0  0  0  0  0
    7.8480  -13.3973   17.6122 C   0  0  0  0  0  0  0  0  0  0  0  0
    7.1244  -13.1653   18.7660 C   0  0  0  0  0  0  0  0  0  0  0  0
    7.6878  -13.4756   19.9832 C   0  0  0  0  0  0  0  0  0  0  0  0
    8.9471  -14.0092   20.0923 C   0  0  0  0  0  0  0  0  0  0  0  0
    9.5063  -14.3246   21.3988 C   0  0  0  0  0  0  0  0  0  0  0  0
   10.2551  -15.6378   21.4463 C   0  0  2  0  0  0  0  0  0  0  0  0
    9.3303  -16.7126   21.0896 N   0  0  0  0  0  0  0  0  0  0  0  0
   10.9223  -15.9015   22.7317 C   0  0  0  0  0  0  0  0  0  0  0  0
   12.0105  -15.3192   23.0545 O   0  0  0  0  0  0  0  0  0  0  0  0
    9.6693  -14.2415   18.9517 C   0  0  0  0  0  0  0  0  0  0  0  0
    9.1068  -13.9321   17.7450 C   0  0  0  0  0  0  0  0  0  0  0  0
   10.4002  -16.8121   23.6866 N   0  0  0  0  0  0  0  0  0  0  0  0
    9.6229  -16.3648   24.8656 C   0  0  1  0  0  0  0  0  0  0  0  0
    8.5477  -15.4860   24.2726 C   0  0  0  0  0  0  0  0  0  0  0  0
    7.5124  -15.0198   25.1778 C   0  0  0  0  0  0  0  0  0  0  0  0
    6.4979  -15.7655   25.7254 C   0  0  0  0  0  0  0  0  0  0  0  0
    5.7126  -14.9902   26.4963 N   0  0  0  0  0  0  0  0  0  0  0  0
    6.2216  -13.7341   26.4483 C   0  0  0  0  0  0  0  0  0  0  0  0
    5.8153  -12.5690   27.0590 C   0  0  0  0  0  0  0  0  0  0  0  0
    6.4957  -11.3815   26.8860 C   0  0  0  0  0  0  0  0  0  0  0  0
    7.6185  -11.3780   26.0711 C   0  0  0  0  0  0  0  0  0  0  0  0
    8.0120  -12.5441   25.4686 C   0  0  0  0  0  0  0  0  0  0  0  0
    7.3324  -13.7306   25.6405 C   0  0  0  0  0  0  0  0  0  0  0  0
    9.1857  -17.4568   25.7058 C   0  0  0  0  0  0  0  0  0  0  0  0
    9.3315  -17.4021   27.0807 O   0  0  0  0  0  0  0  0  0  0  0  0
    8.6647  -18.4896   25.2174 O   0  0  0  0  0  0  0  0  0  0  0  0
  2  3  1  0
  2  1  1  6
  3  4  1  0
  5  2  1  0
  6  5  2  0
  8  7  1  0
  8  9  2  0
 10  9  1  0
 11 10  2  0
 12 11  1  0
 13 12  1  1
 13 14  1  0
 14  5  1  0
 15 13  1  0
 15 19  1  0
 16 15  2  0
 17 18  2  0
 17 11  1  0
 18  8  1  0
 20 21  1  6
 20 19  1  0
 20 31  1  0
 22 21  1  0
 22 23  2  0
 24 23  1  0
 25 30  2  0
 25 24  1  0
 26 25  1  0
 27 28  1  0
 27 26  2  0
 28 29  2  0
 29 30  1  0
 30 22  1  0
 31 32  1  0
 33 31  2  0
M  END
$$$$
