CYW.pdb
     RDKit          3D

 33 35  0  0  1  0  0  0  0  0999 V2000
    7.3376  -18.4492   18.6885 N   0  0  0  0  0  0  0  0  0  0  0  0
    7.0688  -17.6729   19.9139 C   0  0  1  0  0  0  0  0  0  0  0  0
    6.2388  -18.6182   20.7773 C   0  0  0  0  0  0  0  0  0  0  0  0
    6.0499  -17.9211   22.4249 S   0  0  0  0  0  0  0  0  0  0  0  0
    8.3575  -17.3279   20.5134 C   0  0  0  0  0  0  0  0  0  0  0  0
    9.3928  -18.0121   20.2169 O   0  0  0  0  0  0  0  0  0  0  0  0
   16.0079  -14.8204   20.1160 O   0  0  0  0  0  0  0  0  0  0  0  0
   14.6174  -14.8156   20.3148 C   0  0  0  0  0  0  0  0  0  0  0  0
   13.7573  -15.1290   19.2802 C   0  0  0  0  0  0  0  0  0  0  0  0
   12.4000  -15.1146   19.5104 C   0  0  0  0  0  0  0  0  0  0  0  0
   11.8686  -14.7989   20.7352 C   0  0  0  0  0  0  0  0  0  0  0  0
   10.4270  -14.7964   20.9378 C   0  0  0  0  0  0  0  0  0  0  0  0
    9.9308  -15.9049   21.8391 C   0  0  2  0  0  0  0  0  0  0  0  0
    8.5781  -16.2714   21.4226 N   0  0  0  0  0  0  0  0  0  0  0  0
    9.9870  -15.5815   23.2741 C   0  0  0  0  0  0  0  0  0  0  0  0
   10.1336  -14.3832   23.6864 O   0  0  0  0  0  0  0  0  0  0  0  0
   12.7165  -14.4875   21.7650 C   0  0  0  0  0  0  0  0  0  0  0  0
   14.0634  -14.5027   21.5328 C   0  0  0  0  0  0  0  0  0  0  0  0
    9.8808  -16.5748   24.2820 N   0  0  0  0  0  0  0  0  0  0  0  0
   10.5119  -16.4231   25.6135 C   0  0  1  0  0  0  0  0  0  0  0  0
    9.3384  -16.3821   26.5629 C   0  0  0  0  0  0  0  0  0  0  0  0
    8.1916  -15.5928   26.1499 C   0  0  0  0  0  0  0  0  0  0  0  0
    7.1126  -16.0246   25.4189 C   0  0  0  0  0  0  0  0  0  0  0  0
    6.2576  -15.0075   25.2038 N   0  0  0  0  0  0  0  0  0  0  0  0
    6.7855  -13.9095   25.7995 C   0  0  0  0  0  0  0  0  0  0  0  0
    6.3180  -12.6179   25.8937 C   0  0  0  0  0  0  0  0  0  0  0  0
    7.0159  -11.6393   26.5707 C   0  0  0  0  0  0  0  0  0  0  0  0
    8.2205  -11.9822   27.1675 C   0  0  0  0  0  0  0  0  0  0  0  0
    8.6750  -13.2709   27.0658 C   0  0  0  0  0  0  0  0  0  0  0  0
    7.9786  -14.2489   26.3892 C   0  0  0  0  0  0  0  0  0  0  0  0
   11.5311  -17.4141   25.8756 C   0  0  0  0  0  0  0  0  0  0  0  0
   11.8193  -18.4032   24.9520 O   0  0  0  0  0  0  0  0  0  0  0  0
   12.1837  -17.4130   26.9484 O   0  0  0  0  0  0  0  0  0  0  0  0
  2  3  1  0
  2  1  1  6
  3  4  1  0
  5  2  1  0
  6  5  2  0
  8  7  1  0
  8  9  2  0
 10  9  1  0
 11 10  2  0
 12 11  1  0
 13 12  1  6
 13 14  1  0
 14  5  1  0
 15 13  1  0
 15 19  1  0
 16 15  2  0
 17 18  2  0
 17 11  1  0
 18  8  1  0
 20 21  1  1
 20 19  1  0
 20 31  1  0
 22 21  1  0
 22 23  2  0
 24 23  1  0
 25 30  2  0
 25 24  1  0
 26 25  1  0
 27 28  1  0
 27 26  2  0
 28 29  2  0
 29 30  1  0
 30 22  1  0
 31 32  1  0
 33 31  2  0
M  END
$$$$
