CYW.pdb
     RDKit          3D

 33 35  0  0  1  0  0  0  0  0999 V2000
    8.2943  -16.4698   19.0991 N   0  0  0  0  0  0  0  0  0  0  0  0
    8.5820  -15.7368   20.3467 C   0  0  1  0  0  0  0  0  0  0  0  0
    7.3636  -16.0063   21.2246 C   0  0  0  0  0  0  0  0  0  0  0  0
    7.0569  -14.5847   22.2835 S   0  0  0  0  0  0  0  0  0  0  0  0
    9.8228  -16.2757   20.9029 C   0  0  0  0  0  0  0  0  0  0  0  0
   10.0614  -17.5260   20.8139 O   0  0  0  0  0  0  0  0  0  0  0  0
   14.9283  -15.0425   16.5883 O   0  0  0  0  0  0  0  0  0  0  0  0
   14.4940  -15.0988   17.9230 C   0  0  0  0  0  0  0  0  0  0  0  0
   13.8308  -14.0294   18.4931 C   0  0  0  0  0  0  0  0  0  0  0  0
   13.4192  -14.1188   19.8039 C   0  0  0  0  0  0  0  0  0  0  0  0
   13.6447  -15.2362   20.5674 C   0  0  0  0  0  0  0  0  0  0  0  0
   13.1920  -15.2913   21.9499 C   0  0  0  0  0  0  0  0  0  0  0  0
   11.9797  -16.1695   22.1653 C   0  0  2  0  0  0  0  0  0  0  0  0
   10.8215  -15.5202   21.5533 N   0  0  0  0  0  0  0  0  0  0  0  0
   11.7282  -16.5093   23.5753 C   0  0  0  0  0  0  0  0  0  0  0  0
   12.5585  -17.1961   24.2582 O   0  0  0  0  0  0  0  0  0  0  0  0
   14.3018  -16.2997   20.0075 C   0  0  0  0  0  0  0  0  0  0  0  0
   14.7091  -16.2074   18.7060 C   0  0  0  0  0  0  0  0  0  0  0  0
   10.5558  -16.0958   24.2596 N   0  0  0  0  0  0  0  0  0  0  0  0
   10.3797  -16.2887   25.7176 C   0  0  1  0  0  0  0  0  0  0  0  0
    9.8218  -14.9669   26.1884 C   0  0  0  0  0  0  0  0  0  0  0  0
    8.3781  -14.8160   26.1482 C   0  0  0  0  0  0  0  0  0  0  0  0
    7.4491  -15.8107   25.9677 C   0  0  0  0  0  0  0  0  0  0  0  0
    6.2065  -15.2929   25.9606 N   0  0  0  0  0  0  0  0  0  0  0  0
    6.3310  -13.9542   26.1381 C   0  0  0  0  0  0  0  0  0  0  0  0
    5.3820  -12.9602   26.2212 C   0  0  0  0  0  0  0  0  0  0  0  0
    5.7274  -11.6399   26.4232 C   0  0  0  0  0  0  0  0  0  0  0  0
    7.0723  -11.3216   26.5438 C   0  0  0  0  0  0  0  0  0  0  0  0
    8.0068  -12.3201   26.4586 C   0  0  0  0  0  0  0  0  0  0  0  0
    7.6626  -13.6391   26.2562 C   0  0  0  0  0  0  0  0  0  0  0  0
    9.6202  -17.4738   26.0466 C   0  0  0  0  0  0  0  0  0  0  0  0
    9.5394  -17.9308   27.3501 O   0  0  0  0  0  0  0  0  0  0  0  0
    9.0140  -18.1282   25.1628 O   0  0  0  0  0  0  0  0  0  0  0  0
  2  3  1  0
  2  1  1  6
  3  4  1  0
  5  2  1  0
  6  5  2  0
  8  7  1  0
  8  9  2  0
 10  9  1  0
 11 10  2  0
 12 11  1  0
 13 12  1  1
 13 14  1  0
 14  5  1  0
 15 13  1  0
 15 19  1  0
 16 15  2  0
 17 18  2  0
 17 11  1  0
 18  8  1  0
 20 21  1  6
 20 19  1  0
 20 31  1  0
 22 21  1  0
 22 23  2  0
 24 23  1  0
 25 30  2  0
 25 24  1  0
 26 25  1  0
 27 28  1  0
 27 26  2  0
 28 29  2  0
 29 30  1  0
 30 22  1  0
 31 32  1  0
 33 31  2  0
M  END
$$$$
