CYW.pdb
     RDKit          3D

 33 35  0  0  1  0  0  0  0  0999 V2000
    7.3807  -17.3332   19.7019 N   0  0  0  0  0  0  0  0  0  0  0  0
    7.8241  -16.1415   20.4501 C   0  0  1  0  0  0  0  0  0  0  0  0
    6.5668  -15.6690   21.1740 C   0  0  0  0  0  0  0  0  0  0  0  0
    5.4510  -14.8891   19.9981 S   0  0  0  0  0  0  0  0  0  0  0  0
    8.8898  -16.5592   21.3606 C   0  0  0  0  0  0  0  0  0  0  0  0
    8.8439  -17.7175   21.8937 O   0  0  0  0  0  0  0  0  0  0  0  0
   16.6806  -18.1089   25.0140 O   0  0  0  0  0  0  0  0  0  0  0  0
   15.6051  -17.5110   24.3367 C   0  0  0  0  0  0  0  0  0  0  0  0
   15.4275  -16.1413   24.3680 C   0  0  0  0  0  0  0  0  0  0  0  0
   14.3625  -15.5888   23.6927 C   0  0  0  0  0  0  0  0  0  0  0  0
   13.4676  -16.3524   22.9868 C   0  0  0  0  0  0  0  0  0  0  0  0
   12.3550  -15.7289   22.2850 C   0  0  0  0  0  0  0  0  0  0  0  0
   10.9992  -16.2744   22.6745 C   0  0  2  0  0  0  0  0  0  0  0  0
   10.0078  -15.7776   21.7217 N   0  0  0  0  0  0  0  0  0  0  0  0
   10.6109  -15.9800   24.0636 C   0  0  0  0  0  0  0  0  0  0  0  0
   10.6155  -14.7901   24.5235 O   0  0  0  0  0  0  0  0  0  0  0  0
   13.6387  -17.7111   22.9520 C   0  0  0  0  0  0  0  0  0  0  0  0
   14.6970  -18.2562   23.6237 C   0  0  0  0  0  0  0  0  0  0  0  0
   10.2082  -16.9935   24.9715 N   0  0  0  0  0  0  0  0  0  0  0  0
   10.2283  -16.7958   26.4394 C   0  0  1  0  0  0  0  0  0  0  0  0
    8.7846  -16.9747   26.8441 C   0  0  0  0  0  0  0  0  0  0  0  0
    7.8232  -16.0591   26.2558 C   0  0  0  0  0  0  0  0  0  0  0  0
    6.8705  -16.3564   25.3130 C   0  0  0  0  0  0  0  0  0  0  0  0
    6.1775  -15.2500   24.9848 N   0  0  0  0  0  0  0  0  0  0  0  0
    6.6840  -14.2292   25.7201 C   0  0  0  0  0  0  0  0  0  0  0  0
    6.3358  -12.8986   25.7819 C   0  0  0  0  0  0  0  0  0  0  0  0
    6.9807  -12.0163   26.6238 C   0  0  0  0  0  0  0  0  0  0  0  0
    8.0063  -12.4990   27.4239 C   0  0  0  0  0  0  0  0  0  0  0  0
    8.3435  -13.8252   27.3523 C   0  0  0  0  0  0  0  0  0  0  0  0
    7.7002  -14.7070   26.5110 C   0  0  0  0  0  0  0  0  0  0  0  0
   11.2036  -17.6246   27.1113 C   0  0  0  0  0  0  0  0  0  0  0  0
   11.4628  -17.4699   28.4616 O   0  0  0  0  0  0  0  0  0  0  0  0
   11.8490  -18.5066   26.4931 O   0  0  0  0  0  0  0  0  0  0  0  0
  2  3  1  0
  2  1  1  6
  3  4  1  0
  5  2  1  0
  6  5  2  0
  8  7  1  0
  8  9  2  0
 10  9  1  0
 11 10  2  0
 12 11  1  0
 13 12  1  6
 13 14  1  0
 14  5  1  0
 15 13  1  0
 15 19  1  0
 16 15  2  0
 17 18  2  0
 17 11  1  0
 18  8  1  0
 20 21  1  1
 20 19  1  0
 20 31  1  0
 22 21  1  0
 22 23  2  0
 24 23  1  0
 25 30  2  0
 25 24  1  0
 26 25  1  0
 27 28  1  0
 27 26  2  0
 28 29  2  0
 29 30  1  0
 30 22  1  0
 31 32  1  0
 33 31  2  0
M  END
$$$$
