CYW.pdb
     RDKit          3D

 33 35  0  0  1  0  0  0  0  0999 V2000
    8.0383  -17.4246   19.8156 N   0  0  0  0  0  0  0  0  0  0  0  0
    7.2626  -16.3869   20.5213 C   0  0  1  0  0  0  0  0  0  0  0  0
    5.8804  -16.4558   19.8789 C   0  0  0  0  0  0  0  0  0  0  0  0
    6.0257  -17.0901   18.2018 S   0  0  0  0  0  0  0  0  0  0  0  0
    7.2540  -16.7285   21.9435 C   0  0  0  0  0  0  0  0  0  0  0  0
    6.6007  -15.9993   22.7618 O   0  0  0  0  0  0  0  0  0  0  0  0
    7.8894  -21.2034   29.5623 O   0  0  0  0  0  0  0  0  0  0  0  0
    7.9059  -20.8062   28.2152 C   0  0  0  0  0  0  0  0  0  0  0  0
    6.7311  -20.4931   27.5591 C   0  0  0  0  0  0  0  0  0  0  0  0
    6.7842  -20.1074   26.2386 C   0  0  0  0  0  0  0  0  0  0  0  0
    7.9665  -20.0223   25.5477 C   0  0  0  0  0  0  0  0  0  0  0  0
    7.9797  -19.6089   24.1520 C   0  0  0  0  0  0  0  0  0  0  0  0
    7.7947  -18.1216   23.9495 C   0  0  2  0  0  0  0  0  0  0  0  0
    7.9224  -17.8279   22.5229 N   0  0  0  0  0  0  0  0  0  0  0  0
    8.7010  -17.2891   24.7573 C   0  0  0  0  0  0  0  0  0  0  0  0
    9.0606  -17.6341   25.9317 O   0  0  0  0  0  0  0  0  0  0  0  0
    9.1346  -20.3314   26.1930 C   0  0  0  0  0  0  0  0  0  0  0  0
    9.0781  -20.7141   27.5040 C   0  0  0  0  0  0  0  0  0  0  0  0
    9.2294  -16.0603   24.2836 N   0  0  0  0  0  0  0  0  0  0  0  0
   10.1786  -15.2471   25.0785 C   0  0  1  0  0  0  0  0  0  0  0  0
    9.4918  -15.1008   26.4152 C   0  0  0  0  0  0  0  0  0  0  0  0
    8.1430  -14.5630   26.4010 C   0  0  0  0  0  0  0  0  0  0  0  0
    6.9700  -15.2766   26.4061 C   0  0  0  0  0  0  0  0  0  0  0  0
    5.9154  -14.4412   26.3616 N   0  0  0  0  0  0  0  0  0  0  0  0
    6.4081  -13.1781   26.3278 C   0  0  0  0  0  0  0  0  0  0  0  0
    5.7702  -11.9586   26.2897 C   0  0  0  0  0  0  0  0  0  0  0  0
    6.4718  -10.7708   26.2756 C   0  0  0  0  0  0  0  0  0  0  0  0
    7.8579  -10.8239   26.3009 C   0  0  0  0  0  0  0  0  0  0  0  0
    8.4805  -12.0440   26.3381 C   0  0  0  0  0  0  0  0  0  0  0  0
    7.7803  -13.2309   26.3516 C   0  0  0  0  0  0  0  0  0  0  0  0
   11.5198  -15.7861   25.0876 C   0  0  0  0  0  0  0  0  0  0  0  0
   12.5730  -15.0706   25.6293 O   0  0  0  0  0  0  0  0  0  0  0  0
   11.7738  -16.9160   24.6022 O   0  0  0  0  0  0  0  0  0  0  0  0
  2  3  1  0
  2  1  1  6
  3  4  1  0
  5  2  1  0
  6  5  2  0
  8  7  1  0
  8  9  2  0
 10  9  1  0
 11 10  2  0
 12 11  1  0
 13 12  1  6
 13 14  1  0
 14  5  1  0
 15 13  1  0
 15 19  1  0
 16 15  2  0
 17 18  2  0
 17 11  1  0
 18  8  1  0
 20 21  1  1
 20 19  1  0
 20 31  1  0
 22 21  1  0
 22 23  2  0
 24 23  1  0
 25 30  2  0
 25 24  1  0
 26 25  1  0
 27 28  1  0
 27 26  2  0
 28 29  2  0
 29 30  1  0
 30 22  1  0
 31 32  1  0
 33 31  2  0
M  END
$$$$
