CYW.pdb
     RDKit          3D

 33 35  0  0  1  0  0  0  0  0999 V2000
    8.0556  -15.2803   17.2627 N   0  0  0  0  0  0  0  0  0  0  0  0
    9.0335  -14.5816   18.1183 C   0  0  1  0  0  0  0  0  0  0  0  0
    8.2190  -13.4792   18.7886 C   0  0  0  0  0  0  0  0  0  0  0  0
    7.8114  -12.2108   17.5798 S   0  0  0  0  0  0  0  0  0  0  0  0
    9.5718  -15.5568   19.0662 C   0  0  0  0  0  0  0  0  0  0  0  0
    8.8225  -16.4955   19.4970 O   0  0  0  0  0  0  0  0  0  0  0  0
   14.0918  -19.9934   16.1243 O   0  0  0  0  0  0  0  0  0  0  0  0
   13.7565  -19.1909   17.2272 C   0  0  0  0  0  0  0  0  0  0  0  0
   13.2652  -19.7582   18.3871 C   0  0  0  0  0  0  0  0  0  0  0  0
   12.9469  -18.9417   19.4489 C   0  0  0  0  0  0  0  0  0  0  0  0
   13.1007  -17.5794   19.3966 C   0  0  0  0  0  0  0  0  0  0  0  0
   12.7534  -16.7511   20.5423 C   0  0  0  0  0  0  0  0  0  0  0  0
   11.2748  -16.4564   20.6623 C   0  0  2  0  0  0  0  0  0  0  0  0
   10.8895  -15.5629   19.5711 N   0  0  0  0  0  0  0  0  0  0  0  0
   10.8755  -15.9158   21.9720 C   0  0  0  0  0  0  0  0  0  0  0  0
   11.2136  -14.7437   22.3452 O   0  0  0  0  0  0  0  0  0  0  0  0
   13.5875  -17.0112   18.2492 C   0  0  0  0  0  0  0  0  0  0  0  0
   13.9024  -17.8248   17.1970 C   0  0  0  0  0  0  0  0  0  0  0  0
   10.0935  -16.6581   22.8945 N   0  0  0  0  0  0  0  0  0  0  0  0
    9.5843  -16.0698   24.1550 C   0  0  1  0  0  0  0  0  0  0  0  0
    8.1891  -15.6149   23.7993 C   0  0  0  0  0  0  0  0  0  0  0  0
    7.3578  -15.1423   24.8921 C   0  0  0  0  0  0  0  0  0  0  0  0
    6.3284  -15.8189   25.4983 C   0  0  0  0  0  0  0  0  0  0  0  0
    5.7687  -15.0563   26.4559 N   0  0  0  0  0  0  0  0  0  0  0  0
    6.4400  -13.8780   26.4708 C   0  0  0  0  0  0  0  0  0  0  0  0
    6.2864  -12.7588   27.2578 C   0  0  0  0  0  0  0  0  0  0  0  0
    7.0998  -11.6534   27.1171 C   0  0  0  0  0  0  0  0  0  0  0  0
    8.0953  -11.6865   26.1513 C   0  0  0  0  0  0  0  0  0  0  0  0
    8.2371  -12.8061   25.3742 C   0  0  0  0  0  0  0  0  0  0  0  0
    7.4246  -13.9104   25.5138 C   0  0  0  0  0  0  0  0  0  0  0  0
    9.7140  -16.9565   25.2892 C   0  0  0  0  0  0  0  0  0  0  0  0
    9.8025  -16.4594   26.5774 O   0  0  0  0  0  0  0  0  0  0  0  0
    9.7549  -18.2030   25.1434 O   0  0  0  0  0  0  0  0  0  0  0  0
  2  3  1  0
  2  1  1  6
  3  4  1  0
  5  2  1  0
  6  5  2  0
  8  7  1  0
  8  9  2  0
 10  9  1  0
 11 10  2  0
 12 11  1  0
 13 12  1  1
 13 14  1  0
 14  5  1  0
 15 13  1  0
 15 19  1  0
 16 15  2  0
 17 18  2  0
 17 11  1  0
 18  8  1  0
 20 21  1  6
 20 19  1  0
 20 31  1  0
 22 21  1  0
 22 23  2  0
 24 23  1  0
 25 30  2  0
 25 24  1  0
 26 25  1  0
 27 28  1  0
 27 26  2  0
 28 29  2  0
 29 30  1  0
 30 22  1  0
 31 32  1  0
 33 31  2  0
M  END
$$$$
