CYW.pdb
     RDKit          3D

 33 35  0  0  1  0  0  0  0  0999 V2000
    2.9696  -18.4743   21.1571 N   0  0  0  0  0  0  0  0  0  0  0  0
    4.4038  -18.7798   20.9958 C   0  0  1  0  0  0  0  0  0  0  0  0
    4.8962  -17.7336   20.0003 C   0  0  0  0  0  0  0  0  0  0  0  0
    5.1054  -16.1554   20.8380 S   0  0  0  0  0  0  0  0  0  0  0  0
    5.0337  -18.6644   22.3108 C   0  0  0  0  0  0  0  0  0  0  0  0
    4.4677  -17.9722   23.2211 O   0  0  0  0  0  0  0  0  0  0  0  0
    8.8909  -19.9615   29.9950 O   0  0  0  0  0  0  0  0  0  0  0  0
    8.4669  -20.0566   28.6593 C   0  0  0  0  0  0  0  0  0  0  0  0
    7.1279  -19.9496   28.3365 C   0  0  0  0  0  0  0  0  0  0  0  0
    6.7477  -20.0475   27.0169 C   0  0  0  0  0  0  0  0  0  0  0  0
    7.6542  -20.2484   26.0068 C   0  0  0  0  0  0  0  0  0  0  0  0
    7.2111  -20.3451   24.6235 C   0  0  0  0  0  0  0  0  0  0  0  0
    6.8435  -19.0165   24.0013 C   0  0  2  0  0  0  0  0  0  0  0  0
    6.2529  -19.2668   22.6875 N   0  0  0  0  0  0  0  0  0  0  0  0
    7.9617  -18.0625   23.9200 C   0  0  0  0  0  0  0  0  0  0  0  0
    8.7029  -17.9846   22.8848 O   0  0  0  0  0  0  0  0  0  0  0  0
    8.9832  -20.3552   26.3208 C   0  0  0  0  0  0  0  0  0  0  0  0
    9.3571  -20.2576   27.6320 C   0  0  0  0  0  0  0  0  0  0  0  0
    8.2822  -17.1748   24.9797 N   0  0  0  0  0  0  0  0  0  0  0  0
    9.3151  -16.1215   24.8458 C   0  0  1  0  0  0  0  0  0  0  0  0
    9.1482  -15.2957   26.0989 C   0  0  0  0  0  0  0  0  0  0  0  0
    7.8497  -14.6800   26.3071 C   0  0  0  0  0  0  0  0  0  0  0  0
    6.6506  -15.3238   26.4880 C   0  0  0  0  0  0  0  0  0  0  0  0
    5.6556  -14.4274   26.6240 N   0  0  0  0  0  0  0  0  0  0  0  0
    6.2135  -13.1948   26.5310 C   0  0  0  0  0  0  0  0  0  0  0  0
    5.6537  -11.9396   26.6128 C   0  0  0  0  0  0  0  0  0  0  0  0
    6.4160  -10.7948   26.5049 C   0  0  0  0  0  0  0  0  0  0  0  0
    7.7829  -10.9293   26.3088 C   0  0  0  0  0  0  0  0  0  0  0  0
    8.3273  -12.1842   26.2285 C   0  0  0  0  0  0  0  0  0  0  0  0
    7.5664  -13.3282   26.3357 C   0  0  0  0  0  0  0  0  0  0  0  0
   10.6344  -16.6496   24.5812 C   0  0  0  0  0  0  0  0  0  0  0  0
   11.0937  -17.7816   25.2310 O   0  0  0  0  0  0  0  0  0  0  0  0
   11.4067  -16.0981   23.7589 O   0  0  0  0  0  0  0  0  0  0  0  0
  2  3  1  0
  2  1  1  1
  3  4  1  0
  5  2  1  0
  6  5  2  0
  8  7  1  0
  8  9  2  0
 10  9  1  0
 11 10  2  0
 12 11  1  0
 13 12  1  6
 13 14  1  0
 14  5  1  0
 15 13  1  0
 15 19  1  0
 16 15  2  0
 17 18  2  0
 17 11  1  0
 18  8  1  0
 20 21  1  1
 20 19  1  0
 20 31  1  0
 22 21  1  0
 22 23  2  0
 24 23  1  0
 25 30  2  0
 25 24  1  0
 26 25  1  0
 27 28  1  0
 27 26  2  0
 28 29  2  0
 29 30  1  0
 30 22  1  0
 31 32  1  0
 33 31  2  0
M  END
$$$$
