DGH.pdb
     RDKit          3D

 23 23  0  0  1  0  0  0  0  0999 V2000
    7.7329  -19.0576   21.3310 N   0  0  0  0  0  0  0  0  0  0  0  0
    7.6559  -18.1131   20.2539 C   0  0  1  0  0  0  0  0  0  0  0  0
    6.2418  -17.6762   19.9507 C   0  0  0  0  0  0  0  0  0  0  0  0
    5.4709  -18.8308   19.4568 C   0  0  0  0  0  0  0  0  0  0  0  0
    6.0050  -19.9540   19.3873 O   0  0  0  0  0  0  0  0  0  0  0  0
    8.5471  -16.9511   20.5055 C   0  0  0  0  0  0  0  0  0  0  0  0
    9.1425  -16.3444   19.5696 O   0  0  0  0  0  0  0  0  0  0  0  0
    4.1598  -18.6753   19.0703 O   0  0  0  0  0  0  0  0  0  0  0  0
    8.7505  -16.4889   21.8424 N   0  0  0  0  0  0  0  0  0  0  0  0
    9.5112  -15.3110   22.1522 C   0  0  0  0  0  0  0  0  0  0  0  0
    9.7057  -15.0463   23.5790 C   0  0  0  0  0  0  0  0  0  0  0  0
   10.3925  -14.0240   23.9333 O   0  0  0  0  0  0  0  0  0  0  0  0
    9.1562  -15.8935   24.5597 N   0  0  0  0  0  0  0  0  0  0  0  0
    9.5029  -15.6263   25.9885 C   0  0  1  0  0  0  0  0  0  0  0  0
    8.1914  -15.5874   26.6913 C   0  0  0  0  0  0  0  0  0  0  0  0
    7.4418  -14.3617   26.4040 C   0  0  0  0  0  0  0  0  0  0  0  0
    7.6946  -13.0964   26.8348 C   0  0  0  0  0  0  0  0  0  0  0  0
    6.7721  -12.2793   26.2436 N   0  0  0  0  0  0  0  0  0  0  0  0
    5.9977  -13.0563   25.4811 C   0  0  0  0  0  0  0  0  0  0  0  0
    6.3772  -14.3346   25.5537 N   0  0  0  0  0  0  0  0  0  0  0  0
   10.3070  -16.8304   26.3734 C   0  0  0  0  0  0  0  0  0  0  0  0
   10.7180  -16.9691   27.5735 O   0  0  0  0  0  0  0  0  0  0  0  0
   10.6250  -17.7949   25.4876 O   0  0  0  0  0  0  0  0  0  0  0  0
  2  1  1  1
  2  6  1  0
  2  3  1  0
  3  4  1  0
  4  8  1  0
  4  5  2  0
  6  9  1  0
  7  6  2  0
  9 10  1  0
 10 11  1  0
 11 13  1  0
 11 12  2  0
 13 14  1  0
 14 21  1  0
 14 15  1  1
 16 17  2  0
 16 15  1  0
 18 17  1  0
 19 20  2  0
 19 18  1  0
 20 16  1  0
 21 22  2  0
 21 23  1  0
M  END
$$$$
