DGH.pdb
     RDKit          3D

 23 23  0  0  1  0  0  0  0  0999 V2000
    7.4974  -19.2160   21.2650 N   0  0  0  0  0  0  0  0  0  0  0  0
    7.9242  -18.5123   20.0899 C   0  0  1  0  0  0  0  0  0  0  0  0
    6.8979  -18.5356   18.9815 C   0  0  0  0  0  0  0  0  0  0  0  0
    6.5564  -19.9333   18.6635 C   0  0  0  0  0  0  0  0  0  0  0  0
    6.3478  -20.7489   19.5814 O   0  0  0  0  0  0  0  0  0  0  0  0
    8.3377  -17.1252   20.4257 C   0  0  0  0  0  0  0  0  0  0  0  0
    9.5353  -16.7348   20.3168 O   0  0  0  0  0  0  0  0  0  0  0  0
    6.4663  -20.3445   17.3538 O   0  0  0  0  0  0  0  0  0  0  0  0
    7.3644  -16.1867   20.8884 N   0  0  0  0  0  0  0  0  0  0  0  0
    7.6834  -14.8203   21.1941 C   0  0  0  0  0  0  0  0  0  0  0  0
    8.3343  -14.6017   22.4872 C   0  0  0  0  0  0  0  0  0  0  0  0
    8.5330  -13.4006   22.8876 O   0  0  0  0  0  0  0  0  0  0  0  0
    8.7446  -15.6830   23.2896 N   0  0  0  0  0  0  0  0  0  0  0  0
    9.3747  -15.3751   24.6092 C   0  0  1  0  0  0  0  0  0  0  0  0
    8.2979  -15.6248   25.6059 C   0  0  0  0  0  0  0  0  0  0  0  0
    7.5072  -14.4231   25.8843 C   0  0  0  0  0  0  0  0  0  0  0  0
    7.9487  -13.1635   26.1466 C   0  0  0  0  0  0  0  0  0  0  0  0
    6.8442  -12.3668   26.2620 N   0  0  0  0  0  0  0  0  0  0  0  0
    5.7792  -13.1499   26.0683 C   0  0  0  0  0  0  0  0  0  0  0  0
    6.1455  -14.4126   25.8344 N   0  0  0  0  0  0  0  0  0  0  0  0
   10.4718  -16.3908   24.7064 C   0  0  0  0  0  0  0  0  0  0  0  0
   10.4394  -17.4399   23.9806 O   0  0  0  0  0  0  0  0  0  0  0  0
   11.5144  -16.2437   25.5475 O   0  0  0  0  0  0  0  0  0  0  0  0
  2  1  1  1
  2  6  1  0
  2  3  1  0
  3  4  1  0
  4  8  1  0
  4  5  2  0
  6  9  1  0
  7  6  2  0
  9 10  1  0
 10 11  1  0
 11 13  1  0
 11 12  2  0
 13 14  1  0
 14 21  1  0
 14 15  1  1
 16 17  2  0
 16 15  1  0
 18 17  1  0
 19 20  2  0
 19 18  1  0
 20 16  1  0
 21 22  2  0
 21 23  1  0
M  END
$$$$
