DGH.pdb
     RDKit          3D

 23 23  0  0  1  0  0  0  0  0999 V2000
    6.8028  -17.6971   20.2140 N   0  0  0  0  0  0  0  0  0  0  0  0
    8.1781  -17.5160   19.8480 C   0  0  1  0  0  0  0  0  0  0  0  0
    8.4118  -17.6171   18.3588 C   0  0  0  0  0  0  0  0  0  0  0  0
    8.3657  -19.0331   17.9538 C   0  0  0  0  0  0  0  0  0  0  0  0
    7.7574  -19.8632   18.6555 O   0  0  0  0  0  0  0  0  0  0  0  0
    8.7089  -16.2434   20.4015 C   0  0  0  0  0  0  0  0  0  0  0  0
    9.9388  -15.9531   20.3618 O   0  0  0  0  0  0  0  0  0  0  0  0
    8.9929  -19.4455   16.8010 O   0  0  0  0  0  0  0  0  0  0  0  0
    7.8157  -15.3035   21.0025 N   0  0  0  0  0  0  0  0  0  0  0  0
    8.2521  -14.0404   21.5282 C   0  0  0  0  0  0  0  0  0  0  0  0
    8.6767  -14.0564   22.9294 C   0  0  0  0  0  0  0  0  0  0  0  0
    9.0844  -12.9672   23.4676 O   0  0  0  0  0  0  0  0  0  0  0  0
    8.6467  -15.2423   23.6872 N   0  0  0  0  0  0  0  0  0  0  0  0
    9.1850  -15.1955   25.0805 C   0  0  1  0  0  0  0  0  0  0  0  0
    7.9890  -15.3653   25.9501 C   0  0  0  0  0  0  0  0  0  0  0  0
    7.3179  -14.0928   26.2286 C   0  0  0  0  0  0  0  0  0  0  0  0
    7.8008  -12.8310   26.0711 C   0  0  0  0  0  0  0  0  0  0  0  0
    6.7862  -11.9707   26.3850 N   0  0  0  0  0  0  0  0  0  0  0  0
    5.7313  -12.7200   26.7175 C   0  0  0  0  0  0  0  0  0  0  0  0
    6.0186  -14.0214   26.6333 N   0  0  0  0  0  0  0  0  0  0  0  0
   10.0888  -16.3891   25.1352 C   0  0  0  0  0  0  0  0  0  0  0  0
   10.1777  -17.1717   24.1311 O   0  0  0  0  0  0  0  0  0  0  0  0
   10.8276  -16.6814   26.2237 O   0  0  0  0  0  0  0  0  0  0  0  0
  2  1  1  6
  2  6  1  0
  2  3  1  0
  3  4  1  0
  4  8  1  0
  4  5  2  0
  6  9  1  0
  7  6  2  0
  9 10  1  0
 10 11  1  0
 11 13  1  0
 11 12  2  0
 13 14  1  0
 14 21  1  0
 14 15  1  1
 16 17  2  0
 16 15  1  0
 18 17  1  0
 19 20  2  0
 19 18  1  0
 20 16  1  0
 21 22  2  0
 21 23  1  0
M  END
$$$$
