DGH.pdb
     RDKit          3D

 23 23  0  0  1  0  0  0  0  0999 V2000
   10.6778  -18.0883   17.6024 N   0  0  0  0  0  0  0  0  0  0  0  0
    9.3670  -17.9104   18.1578 C   0  0  1  0  0  0  0  0  0  0  0  0
    8.3318  -18.8152   17.5315 C   0  0  0  0  0  0  0  0  0  0  0  0
    8.8227  -19.2845   16.2238 C   0  0  0  0  0  0  0  0  0  0  0  0
    9.8482  -19.9885   16.1584 O   0  0  0  0  0  0  0  0  0  0  0  0
    9.3963  -18.0515   19.6366 C   0  0  0  0  0  0  0  0  0  0  0  0
    8.4852  -17.5805   20.3759 O   0  0  0  0  0  0  0  0  0  0  0  0
    8.1527  -18.9487   15.0702 O   0  0  0  0  0  0  0  0  0  0  0  0
   10.4815  -18.7390   20.2628 N   0  0  0  0  0  0  0  0  0  0  0  0
   10.4985  -19.0560   21.6632 C   0  0  0  0  0  0  0  0  0  0  0  0
   10.6957  -17.9174   22.5624 C   0  0  0  0  0  0  0  0  0  0  0  0
   11.4461  -16.9498   22.1843 O   0  0  0  0  0  0  0  0  0  0  0  0
   10.0802  -17.8718   23.8276 N   0  0  0  0  0  0  0  0  0  0  0  0
   10.2557  -16.6340   24.6463 C   0  0  1  0  0  0  0  0  0  0  0  0
    8.8882  -16.0552   24.7481 C   0  0  0  0  0  0  0  0  0  0  0  0
    8.4830  -15.3645   23.5210 C   0  0  0  0  0  0  0  0  0  0  0  0
    9.2222  -14.5368   22.7343 C   0  0  0  0  0  0  0  0  0  0  0  0
    8.4434  -14.2002   21.6628 N   0  0  0  0  0  0  0  0  0  0  0  0
    7.2725  -14.8231   21.8233 C   0  0  0  0  0  0  0  0  0  0  0  0
    7.2601  -15.5440   22.9473 N   0  0  0  0  0  0  0  0  0  0  0  0
   10.7372  -17.1634   25.9626 C   0  0  0  0  0  0  0  0  0  0  0  0
   10.7392  -18.4199   26.1854 O   0  0  0  0  0  0  0  0  0  0  0  0
   11.1761  -16.3528   26.9456 O   0  0  0  0  0  0  0  0  0  0  0  0
  2  1  1  6
  2  6  1  0
  2  3  1  0
  3  4  1  0
  4  8  1  0
  4  5  2  0
  6  9  1  0
  7  6  2  0
  9 10  1  0
 10 11  1  0
 11 13  1  0
 11 12  2  0
 13 14  1  0
 14 21  1  0
 14 15  1  1
 16 17  2  0
 16 15  1  0
 18 17  1  0
 19 20  2  0
 19 18  1  0
 20 16  1  0
 21 22  2  0
 21 23  1  0
M  END
$$$$
