DGH.pdb
     RDKit          3D

 23 23  0  0  1  0  0  0  0  0999 V2000
    5.4271  -18.7095   21.2885 N   0  0  0  0  0  0  0  0  0  0  0  0
    6.4532  -19.1712   20.3984 C   0  0  1  0  0  0  0  0  0  0  0  0
    5.9504  -19.4219   18.9959 C   0  0  0  0  0  0  0  0  0  0  0  0
    4.7085  -20.2124   19.0581 C   0  0  0  0  0  0  0  0  0  0  0  0
    4.6432  -21.2149   19.7945 O   0  0  0  0  0  0  0  0  0  0  0  0
    7.6158  -18.2459   20.4072 C   0  0  0  0  0  0  0  0  0  0  0  0
    8.7502  -18.5861   19.9644 O   0  0  0  0  0  0  0  0  0  0  0  0
    3.6164  -19.8487   18.3048 O   0  0  0  0  0  0  0  0  0  0  0  0
    7.4669  -16.9238   20.9290 N   0  0  0  0  0  0  0  0  0  0  0  0
    8.5429  -15.9735   20.9616 C   0  0  0  0  0  0  0  0  0  0  0  0
    9.1061  -15.7079   22.2868 C   0  0  0  0  0  0  0  0  0  0  0  0
   10.0333  -14.8309   22.4035 O   0  0  0  0  0  0  0  0  0  0  0  0
    8.6496  -16.3985   23.4253 N   0  0  0  0  0  0  0  0  0  0  0  0
    9.2989  -16.0923   24.7359 C   0  0  1  0  0  0  0  0  0  0  0  0
    8.1665  -15.7934   25.6543 C   0  0  0  0  0  0  0  0  0  0  0  0
    7.5268  -14.5106   25.3505 C   0  0  0  0  0  0  0  0  0  0  0  0
    7.9963  -13.4949   24.5771 C   0  0  0  0  0  0  0  0  0  0  0  0
    7.0169  -12.5429   24.5266 N   0  0  0  0  0  0  0  0  0  0  0  0
    5.9951  -12.9986   25.2569 C   0  0  0  0  0  0  0  0  0  0  0  0
    6.2704  -14.1980   25.7755 N   0  0  0  0  0  0  0  0  0  0  0  0
    9.9775  -17.3809   25.0875 C   0  0  0  0  0  0  0  0  0  0  0  0
    9.8876  -18.3860   24.3062 O   0  0  0  0  0  0  0  0  0  0  0  0
   10.6931  -17.5304   26.2196 O   0  0  0  0  0  0  0  0  0  0  0  0
  2  1  1  1
  2  6  1  0
  2  3  1  0
  3  4  1  0
  4  8  1  0
  4  5  2  0
  6  9  1  0
  7  6  2  0
  9 10  1  0
 10 11  1  0
 11 13  1  0
 11 12  2  0
 13 14  1  0
 14 21  1  0
 14 15  1  1
 16 17  2  0
 16 15  1  0
 18 17  1  0
 19 20  2  0
 19 18  1  0
 20 16  1  0
 21 22  2  0
 21 23  1  0
M  END
$$$$
