DGH.pdb
     RDKit          3D

 23 23  0  0  1  0  0  0  0  0999 V2000
   10.9967  -18.8557   15.4255 N   0  0  0  0  0  0  0  0  0  0  0  0
   10.1545  -17.6947   15.3923 C   0  0  1  0  0  0  0  0  0  0  0  0
    9.0950  -17.7635   14.3176 C   0  0  0  0  0  0  0  0  0  0  0  0
    9.6842  -17.3660   13.0268 C   0  0  0  0  0  0  0  0  0  0  0  0
   10.4785  -18.1273   12.4427 O   0  0  0  0  0  0  0  0  0  0  0  0
    9.5631  -17.4327   16.7299 C   0  0  0  0  0  0  0  0  0  0  0  0
    8.9254  -16.3718   16.9879 O   0  0  0  0  0  0  0  0  0  0  0  0
    9.3613  -16.1546   12.4607 O   0  0  0  0  0  0  0  0  0  0  0  0
    9.7087  -18.3996   17.7722 N   0  0  0  0  0  0  0  0  0  0  0  0
    9.0692  -18.2685   19.0513 C   0  0  0  0  0  0  0  0  0  0  0  0
    9.6297  -17.2412   19.9312 C   0  0  0  0  0  0  0  0  0  0  0  0
   10.8372  -16.8547   19.7446 O   0  0  0  0  0  0  0  0  0  0  0  0
    8.8685  -16.6786   20.9731 N   0  0  0  0  0  0  0  0  0  0  0  0
    9.4905  -15.5878   21.7832 C   0  0  1  0  0  0  0  0  0  0  0  0
    8.4593  -14.5152   21.8219 C   0  0  0  0  0  0  0  0  0  0  0  0
    8.2197  -13.9253   20.5022 C   0  0  0  0  0  0  0  0  0  0  0  0
    7.0556  -13.4394   19.9929 C   0  0  0  0  0  0  0  0  0  0  0  0
    7.3416  -12.9223   18.7605 N   0  0  0  0  0  0  0  0  0  0  0  0
    8.6497  -13.1030   18.5580 C   0  0  0  0  0  0  0  0  0  0  0  0
    9.2193  -13.7124   19.6009 N   0  0  0  0  0  0  0  0  0  0  0  0
    9.6808  -16.2277   23.1245 C   0  0  0  0  0  0  0  0  0  0  0  0
    9.1744  -17.3741   23.3647 O   0  0  0  0  0  0  0  0  0  0  0  0
   10.3771  -15.6317   24.1124 O   0  0  0  0  0  0  0  0  0  0  0  0
  2  1  1  1
  2  6  1  0
  2  3  1  0
  3  4  1  0
  4  8  1  0
  4  5  2  0
  6  9  1  0
  7  6  2  0
  9 10  1  0
 10 11  1  0
 11 13  1  0
 11 12  2  0
 13 14  1  0
 14 21  1  0
 14 15  1  1
 16 17  2  0
 16 15  1  0
 18 17  1  0
 19 20  2  0
 19 18  1  0
 20 16  1  0
 21 22  2  0
 21 23  1  0
M  END
$$$$
