DGH.pdb
     RDKit          3D

 23 23  0  0  1  0  0  0  0  0999 V2000
   10.1977  -19.7634   16.5706 N   0  0  0  0  0  0  0  0  0  0  0  0
   11.2100  -19.4069   17.5228 C   0  0  1  0  0  0  0  0  0  0  0  0
   12.0153  -18.1988   17.1050 C   0  0  0  0  0  0  0  0  0  0  0  0
   13.0125  -18.6030   16.0983 C   0  0  0  0  0  0  0  0  0  0  0  0
   12.6500  -18.8933   14.9425 O   0  0  0  0  0  0  0  0  0  0  0  0
   10.6238  -19.2338   18.8771 C   0  0  0  0  0  0  0  0  0  0  0  0
   11.1887  -19.6789   19.9170 O   0  0  0  0  0  0  0  0  0  0  0  0
   14.3467  -18.6619   16.4284 O   0  0  0  0  0  0  0  0  0  0  0  0
    9.3813  -18.5443   19.0301 N   0  0  0  0  0  0  0  0  0  0  0  0
    8.7973  -18.2666   20.3122 C   0  0  0  0  0  0  0  0  0  0  0  0
    9.3657  -17.1219   21.0265 C   0  0  0  0  0  0  0  0  0  0  0  0
   10.3519  -16.4913   20.5047 O   0  0  0  0  0  0  0  0  0  0  0  0
    8.8508  -16.7088   22.2697 N   0  0  0  0  0  0  0  0  0  0  0  0
    9.3672  -15.4328   22.8514 C   0  0  1  0  0  0  0  0  0  0  0  0
    8.2669  -14.4529   22.6413 C   0  0  0  0  0  0  0  0  0  0  0  0
    8.2115  -13.9653   21.2607 C   0  0  0  0  0  0  0  0  0  0  0  0
    9.2446  -13.6402   20.4376 C   0  0  0  0  0  0  0  0  0  0  0  0
    8.7046  -13.3136   19.2253 N   0  0  0  0  0  0  0  0  0  0  0  0
    7.3804  -13.4483   19.3415 C   0  0  0  0  0  0  0  0  0  0  0  0
    7.0424  -13.8453   20.5709 N   0  0  0  0  0  0  0  0  0  0  0  0
    9.5464  -15.7687   24.3005 C   0  0  0  0  0  0  0  0  0  0  0  0
   10.0892  -14.9264   25.0907 O   0  0  0  0  0  0  0  0  0  0  0  0
    9.1530  -16.9490   24.8182 O   0  0  0  0  0  0  0  0  0  0  0  0
  2  1  1  6
  2  6  1  0
  2  3  1  0
  3  4  1  0
  4  8  1  0
  4  5  2  0
  6  9  1  0
  7  6  2  0
  9 10  1  0
 10 11  1  0
 11 13  1  0
 11 12  2  0
 13 14  1  0
 14 21  1  0
 14 15  1  1
 16 17  2  0
 16 15  1  0
 18 17  1  0
 19 20  2  0
 19 18  1  0
 20 16  1  0
 21 22  2  0
 21 23  1  0
M  END
$$$$
