DGH.pdb
     RDKit          3D

 23 23  0  0  1  0  0  0  0  0999 V2000
   13.2485  -16.5479   21.7020 N   0  0  0  0  0  0  0  0  0  0  0  0
   13.5940  -17.9054   21.3918 C   0  0  1  0  0  0  0  0  0  0  0  0
   14.9648  -18.2957   21.8927 C   0  0  0  0  0  0  0  0  0  0  0  0
   15.9365  -17.2552   21.5126 C   0  0  0  0  0  0  0  0  0  0  0  0
   15.8542  -16.7013   20.4000 O   0  0  0  0  0  0  0  0  0  0  0  0
   12.5461  -18.8409   21.8759 C   0  0  0  0  0  0  0  0  0  0  0  0
   12.4832  -20.0417   21.4852 O   0  0  0  0  0  0  0  0  0  0  0  0
   16.9378  -16.8904   22.3824 O   0  0  0  0  0  0  0  0  0  0  0  0
   11.5682  -18.3874   22.8143 N   0  0  0  0  0  0  0  0  0  0  0  0
   10.5643  -19.2500   23.3713 C   0  0  0  0  0  0  0  0  0  0  0  0
   10.8906  -19.8343   24.6735 C   0  0  0  0  0  0  0  0  0  0  0  0
   10.0327  -20.5952   25.2457 O   0  0  0  0  0  0  0  0  0  0  0  0
   12.1222  -19.5720   25.3028 N   0  0  0  0  0  0  0  0  0  0  0  0
   12.4024  -20.2538   26.6027 C   0  0  1  0  0  0  0  0  0  0  0  0
   13.8564  -20.5684   26.5549 C   0  0  0  0  0  0  0  0  0  0  0  0
   14.1492  -21.7191   25.6963 C   0  0  0  0  0  0  0  0  0  0  0  0
   13.2809  -22.4743   24.9709 C   0  0  0  0  0  0  0  0  0  0  0  0
   14.0260  -23.3806   24.2698 N   0  0  0  0  0  0  0  0  0  0  0  0
   15.3054  -23.1547   24.5813 C   0  0  0  0  0  0  0  0  0  0  0  0
   15.4193  -22.1467   25.4498 N   0  0  0  0  0  0  0  0  0  0  0  0
   12.0938  -19.1935   27.6153 C   0  0  0  0  0  0  0  0  0  0  0  0
   12.2476  -19.4321   28.8595 O   0  0  0  0  0  0  0  0  0  0  0  0
   11.6483  -17.9715   27.2628 O   0  0  0  0  0  0  0  0  0  0  0  0
  2  1  1  1
  2  6  1  0
  2  3  1  0
  3  4  1  0
  4  8  1  0
  4  5  2  0
  6  9  1  0
  7  6  2  0
  9 10  1  0
 10 11  1  0
 11 13  1  0
 11 12  2  0
 13 14  1  0
 14 21  1  0
 14 15  1  6
 16 17  2  0
 16 15  1  0
 18 17  1  0
 19 20  2  0
 19 18  1  0
 20 16  1  0
 21 22  2  0
 21 23  1  0
M  END
$$$$
