DGH.pdb
     RDKit          3D

 23 23  0  0  1  0  0  0  0  0999 V2000
   11.8057  -18.3641   19.3579 N   0  0  0  0  0  0  0  0  0  0  0  0
   10.7148  -18.3219   18.4271 C   0  0  1  0  0  0  0  0  0  0  0  0
   10.3669  -19.6791   17.8620 C   0  0  0  0  0  0  0  0  0  0  0  0
   11.2802  -19.9915   16.7487 C   0  0  0  0  0  0  0  0  0  0  0  0
   12.0868  -19.1331   16.3437 O   0  0  0  0  0  0  0  0  0  0  0  0
    9.5302  -17.6591   19.0315 C   0  0  0  0  0  0  0  0  0  0  0  0
    8.4761  -17.4321   18.3713 O   0  0  0  0  0  0  0  0  0  0  0  0
   11.2474  -21.2304   16.1515 O   0  0  0  0  0  0  0  0  0  0  0  0
    9.5638  -17.2579   20.4027 N   0  0  0  0  0  0  0  0  0  0  0  0
    8.4114  -16.7536   21.0953 C   0  0  0  0  0  0  0  0  0  0  0  0
    8.6511  -16.3022   22.4674 C   0  0  0  0  0  0  0  0  0  0  0  0
    9.8463  -16.3254   22.9293 O   0  0  0  0  0  0  0  0  0  0  0  0
    7.5956  -15.8495   23.2813 N   0  0  0  0  0  0  0  0  0  0  0  0
    7.9083  -14.8321   24.3303 C   0  0  1  0  0  0  0  0  0  0  0  0
    6.5905  -14.2326   24.6755 C   0  0  0  0  0  0  0  0  0  0  0  0
    6.6787  -13.3090   25.8095 C   0  0  0  0  0  0  0  0  0  0  0  0
    6.3479  -11.9902   25.8526 C   0  0  0  0  0  0  0  0  0  0  0  0
    6.5266  -11.5734   27.1419 N   0  0  0  0  0  0  0  0  0  0  0  0
    6.9523  -12.6323   27.8364 C   0  0  0  0  0  0  0  0  0  0  0  0
    7.0568  -13.7106   27.0556 N   0  0  0  0  0  0  0  0  0  0  0  0
    8.4563  -15.6596   25.4527 C   0  0  0  0  0  0  0  0  0  0  0  0
    8.1033  -16.8792   25.5807 O   0  0  0  0  0  0  0  0  0  0  0  0
    9.3235  -15.1611   26.3557 O   0  0  0  0  0  0  0  0  0  0  0  0
  2  1  1  1
  2  6  1  0
  2  3  1  0
  3  4  1  0
  4  8  1  0
  4  5  2  0
  6  9  1  0
  7  6  2  0
  9 10  1  0
 10 11  1  0
 11 13  1  0
 11 12  2  0
 13 14  1  0
 14 21  1  0
 14 15  1  1
 16 17  2  0
 16 15  1  0
 18 17  1  0
 19 20  2  0
 19 18  1  0
 20 16  1  0
 21 22  2  0
 21 23  1  0
M  END
$$$$
