DGH.pdb
     RDKit          3D

 23 23  0  0  1  0  0  0  0  0999 V2000
    6.6960  -18.5134   21.5207 N   0  0  0  0  0  0  0  0  0  0  0  0
    7.5752  -18.1456   20.4483 C   0  0  1  0  0  0  0  0  0  0  0  0
    6.8456  -17.8648   19.1556 C   0  0  0  0  0  0  0  0  0  0  0  0
    6.2278  -19.1093   18.6650 C   0  0  0  0  0  0  0  0  0  0  0  0
    6.3158  -20.1558   19.3349 O   0  0  0  0  0  0  0  0  0  0  0  0
    8.4457  -17.0087   20.8452 C   0  0  0  0  0  0  0  0  0  0  0  0
    9.6988  -17.0302   20.6786 O   0  0  0  0  0  0  0  0  0  0  0  0
    5.5517  -19.1227   17.4671 O   0  0  0  0  0  0  0  0  0  0  0  0
    7.8662  -15.8435   21.4361 N   0  0  0  0  0  0  0  0  0  0  0  0
    8.6267  -14.6642   21.7406 C   0  0  0  0  0  0  0  0  0  0  0  0
    9.1284  -14.5776   23.1133 C   0  0  0  0  0  0  0  0  0  0  0  0
    9.8073  -13.5484   23.4630 O   0  0  0  0  0  0  0  0  0  0  0  0
    8.8804  -15.6017   24.0467 N   0  0  0  0  0  0  0  0  0  0  0  0
    9.4368  -15.4420   25.4244 C   0  0  1  0  0  0  0  0  0  0  0  0
    8.2513  -15.5311   26.3199 C   0  0  0  0  0  0  0  0  0  0  0  0
    7.5111  -14.2686   26.3910 C   0  0  0  0  0  0  0  0  0  0  0  0
    7.9982  -12.9996   26.3373 C   0  0  0  0  0  0  0  0  0  0  0  0
    6.9235  -12.1556   26.3627 N   0  0  0  0  0  0  0  0  0  0  0  0
    5.8306  -12.9212   26.4282 C   0  0  0  0  0  0  0  0  0  0  0  0
    6.1505  -14.2176   26.4469 N   0  0  0  0  0  0  0  0  0  0  0  0
   10.3351  -16.6325   25.5675 C   0  0  0  0  0  0  0  0  0  0  0  0
   10.3923  -17.5068   24.6397 O   0  0  0  0  0  0  0  0  0  0  0  0
   11.1015  -16.8271   26.6587 O   0  0  0  0  0  0  0  0  0  0  0  0
  2  1  1  1
  2  6  1  0
  2  3  1  0
  3  4  1  0
  4  8  1  0
  4  5  2  0
  6  9  1  0
  7  6  2  0
  9 10  1  0
 10 11  1  0
 11 13  1  0
 11 12  2  0
 13 14  1  0
 14 21  1  0
 14 15  1  1
 16 17  2  0
 16 15  1  0
 18 17  1  0
 19 20  2  0
 19 18  1  0
 20 16  1  0
 21 22  2  0
 21 23  1  0
M  END
$$$$
