DGH.pdb
     RDKit          3D

 23 23  0  0  1  0  0  0  0  0999 V2000
    9.1187  -17.8725   19.6194 N   0  0  0  0  0  0  0  0  0  0  0  0
    8.5193  -16.5691   19.6288 C   0  0  1  0  0  0  0  0  0  0  0  0
    7.4454  -16.4046   18.5790 C   0  0  0  0  0  0  0  0  0  0  0  0
    8.0586  -16.4709   17.2408 C   0  0  0  0  0  0  0  0  0  0  0  0
    9.2817  -16.6756   17.1244 O   0  0  0  0  0  0  0  0  0  0  0  0
    8.0174  -16.2283   20.9852 C   0  0  0  0  0  0  0  0  0  0  0  0
    7.6151  -15.0670   21.2820 O   0  0  0  0  0  0  0  0  0  0  0  0
    7.2854  -16.3073   16.1147 O   0  0  0  0  0  0  0  0  0  0  0  0
    7.9802  -17.2325   22.0013 N   0  0  0  0  0  0  0  0  0  0  0  0
    7.4517  -16.9925   23.3148 C   0  0  0  0  0  0  0  0  0  0  0  0
    8.3824  -16.3781   24.2635 C   0  0  0  0  0  0  0  0  0  0  0  0
    9.5771  -16.1161   23.8807 O   0  0  0  0  0  0  0  0  0  0  0  0
    7.9882  -16.0760   25.5806 N   0  0  0  0  0  0  0  0  0  0  0  0
    8.9568  -15.3410   26.4493 C   0  0  1  0  0  0  0  0  0  0  0  0
    8.1043  -14.4968   27.3302 C   0  0  0  0  0  0  0  0  0  0  0  0
    7.4194  -13.4340   26.5897 C   0  0  0  0  0  0  0  0  0  0  0  0
    7.7756  -12.8639   25.4071 C   0  0  0  0  0  0  0  0  0  0  0  0
    6.7896  -11.9774   25.0757 N   0  0  0  0  0  0  0  0  0  0  0  0
    5.8753  -12.0327   26.0483 C   0  0  0  0  0  0  0  0  0  0  0  0
    6.2261  -12.9120   26.9902 N   0  0  0  0  0  0  0  0  0  0  0  0
    9.6305  -16.4406   27.2120 C   0  0  0  0  0  0  0  0  0  0  0  0
   10.4867  -16.1615   28.1161 O   0  0  0  0  0  0  0  0  0  0  0  0
    9.3684  -17.7417   26.9787 O   0  0  0  0  0  0  0  0  0  0  0  0
  2  1  1  1
  2  6  1  0
  2  3  1  0
  3  4  1  0
  4  8  1  0
  4  5  2  0
  6  9  1  0
  7  6  2  0
  9 10  1  0
 10 11  1  0
 11 13  1  0
 11 12  2  0
 13 14  1  0
 14 21  1  0
 14 15  1  1
 16 17  2  0
 16 15  1  0
 18 17  1  0
 19 20  2  0
 19 18  1  0
 20 16  1  0
 21 22  2  0
 21 23  1  0
M  END
$$$$
