DGH.pdb
     RDKit          3D

 23 23  0  0  1  0  0  0  0  0999 V2000
   11.3698  -17.5445   19.4456 N   0  0  0  0  0  0  0  0  0  0  0  0
   10.8948  -18.4439   20.4574 C   0  0  1  0  0  0  0  0  0  0  0  0
   11.9974  -18.9680   21.3474 C   0  0  0  0  0  0  0  0  0  0  0  0
   13.3000  -18.7253   20.7029 C   0  0  0  0  0  0  0  0  0  0  0  0
   13.6690  -17.5604   20.4611 O   0  0  0  0  0  0  0  0  0  0  0  0
    9.8017  -17.8205   21.2474 C   0  0  0  0  0  0  0  0  0  0  0  0
    8.7786  -18.4690   21.6096 O   0  0  0  0  0  0  0  0  0  0  0  0
   14.1144  -19.7814   20.3653 O   0  0  0  0  0  0  0  0  0  0  0  0
    9.8913  -16.4437   21.6201 N   0  0  0  0  0  0  0  0  0  0  0  0
    8.8822  -15.7795   22.3964 C   0  0  0  0  0  0  0  0  0  0  0  0
    8.8661  -16.1128   23.8221 C   0  0  0  0  0  0  0  0  0  0  0  0
    8.0204  -15.5282   24.5873 O   0  0  0  0  0  0  0  0  0  0  0  0
    9.7609  -17.0564   24.3609 N   0  0  0  0  0  0  0  0  0  0  0  0
    9.6127  -17.4163   25.8037 C   0  0  1  0  0  0  0  0  0  0  0  0
    9.1855  -18.8420   25.7922 C   0  0  0  0  0  0  0  0  0  0  0  0
    7.8684  -19.0237   25.1765 C   0  0  0  0  0  0  0  0  0  0  0  0
    6.6534  -18.6384   25.6516 C   0  0  0  0  0  0  0  0  0  0  0  0
    5.7299  -18.9527   24.6944 N   0  0  0  0  0  0  0  0  0  0  0  0
    6.3971  -19.5095   23.6797 C   0  0  0  0  0  0  0  0  0  0  0  0
    7.7059  -19.5693   23.9384 N   0  0  0  0  0  0  0  0  0  0  0  0
   11.0029  -17.2544   26.3382 C   0  0  0  0  0  0  0  0  0  0  0  0
   11.2363  -17.4327   27.5801 O   0  0  0  0  0  0  0  0  0  0  0  0
   12.0417  -16.9187   25.5482 O   0  0  0  0  0  0  0  0  0  0  0  0
  2  1  1  6
  2  6  1  0
  2  3  1  0
  3  4  1  0
  4  8  1  0
  4  5  2  0
  6  9  1  0
  7  6  2  0
  9 10  1  0
 10 11  1  0
 11 13  1  0
 11 12  2  0
 13 14  1  0
 14 21  1  0
 14 15  1  6
 16 17  2  0
 16 15  1  0
 18 17  1  0
 19 20  2  0
 19 18  1  0
 20 16  1  0
 21 22  2  0
 21 23  1  0
M  END
$$$$
