VID.pdb
     RDKit          3D

 24 23  0  0  1  0  0  0  0  0999 V2000
   21.4719  -14.4047  -15.9055 C   0  0  0  0  0  0  0  0  0  0  0  0
   21.9628  -12.9955  -16.0256 C   0  0  2  0  0  0  0  0  0  0  0  0
   20.9361  -12.2129  -16.8161 C   0  0  0  0  0  0  0  0  0  0  0  0
   23.2952  -12.9118  -16.7772 C   0  0  2  0  0  0  0  0  0  0  0  0
   24.3162  -13.6802  -16.2143 N   0  0  0  0  0  0  0  0  0  0  0  0
   23.7357  -11.4772  -16.8569 C   0  0  0  0  0  0  0  0  0  0  0  0
   24.4147  -10.9898  -15.9239 O   0  0  0  0  0  0  0  0  0  0  0  0
   25.6385   -9.6886  -21.4522 C   0  0  0  0  0  0  0  0  0  0  0  0
   25.3750   -9.9367  -19.9829 C   0  0  0  0  0  0  0  0  0  0  0  0
   24.2928   -9.0658  -19.4272 C   0  0  2  0  0  0  0  0  0  0  0  0
   24.4967   -7.6069  -19.7732 C   0  0  0  0  0  0  0  0  0  0  0  0
   23.9258   -9.2831  -17.9980 C   0  0  2  0  0  0  0  0  0  0  0  0
   23.4163  -10.6521  -17.9418 N   0  0  0  0  0  0  0  0  0  0  0  0
   22.9611   -8.3372  -17.4190 C   0  0  0  0  0  0  0  0  0  0  0  0
   21.7430   -8.2940  -17.8251 O   0  0  0  0  0  0  0  0  0  0  0  0
   23.2878   -7.4268  -16.3942 N   0  0  0  0  0  0  0  0  0  0  0  0
   22.2623   -6.4960  -15.8836 C   0  0  1  0  0  0  0  0  0  0  0  0
   22.4595   -6.2599  -14.4080 C   0  0  0  0  0  0  0  0  0  0  0  0
   21.5466   -5.2609  -13.8283 C   0  0  0  0  0  0  0  0  0  0  0  0
   20.3312   -5.5507  -13.7178 O   0  0  0  0  0  0  0  0  0  0  0  0
   22.3957   -5.1765  -16.5434 C   0  0  0  0  0  0  0  0  0  0  0  0
   21.3353   -4.3056  -16.6083 O   0  0  0  0  0  0  0  0  0  0  0  0
   21.9720   -4.0236  -13.4033 O   0  0  0  0  0  0  0  0  0  0  0  0
   23.4881   -4.8547  -17.0464 O   0  0  0  0  0  0  0  0  0  0  0  0
  2  1  1  6
  2  4  1  0
  3  2  1  0
  4  6  1  0
  4  5  1  1
  6 13  1  0
  6  7  2  0
  8  9  1  0
  9 10  1  0
 10 12  1  0
 10 11  1  1
 12 14  1  0
 12 13  1  6
 14 15  2  0
 16 14  1  0
 16 17  1  0
 17 21  1  0
 17 18  1  1
 19 18  1  0
 19 20  2  0
 21 22  1  0
 23 19  1  0
 24 21  2  0
M  END
$$$$
