VID.pdb
     RDKit          3D

 24 23  0  0  1  0  0  0  0  0999 V2000
   16.8807   -9.3004  -17.3342 C   0  0  0  0  0  0  0  0  0  0  0  0
   17.8307  -10.0062  -18.2511 C   0  0  2  0  0  0  0  0  0  0  0  0
   17.0325  -10.5478  -19.4177 C   0  0  0  0  0  0  0  0  0  0  0  0
   18.5202  -11.1902  -17.5659 C   0  0  2  0  0  0  0  0  0  0  0  0
   17.6418  -12.1755  -17.1105 N   0  0  0  0  0  0  0  0  0  0  0  0
   19.3491  -10.6901  -16.4165 C   0  0  0  0  0  0  0  0  0  0  0  0
   18.8393  -10.6230  -15.2742 O   0  0  0  0  0  0  0  0  0  0  0  0
   24.0564  -12.4905  -15.2351 C   0  0  0  0  0  0  0  0  0  0  0  0
   22.6792  -11.8635  -15.2405 C   0  0  0  0  0  0  0  0  0  0  0  0
   22.7137  -10.3767  -15.4040 C   0  0  2  0  0  0  0  0  0  0  0  0
   23.7024   -9.7197  -14.4657 C   0  0  0  0  0  0  0  0  0  0  0  0
   21.3973   -9.6773  -15.4513 C   0  0  2  0  0  0  0  0  0  0  0  0
   20.6823  -10.2911  -16.5688 N   0  0  0  0  0  0  0  0  0  0  0  0
   21.4380   -8.2146  -15.5909 C   0  0  0  0  0  0  0  0  0  0  0  0
   21.9600   -7.6572  -16.6241 O   0  0  0  0  0  0  0  0  0  0  0  0
   20.9166   -7.3292  -14.6267 N   0  0  0  0  0  0  0  0  0  0  0  0
   21.1009   -5.8737  -14.7895 C   0  0  1  0  0  0  0  0  0  0  0  0
   19.7644   -5.1768  -14.8071 C   0  0  0  0  0  0  0  0  0  0  0  0
   19.8463   -3.7164  -14.9749 C   0  0  0  0  0  0  0  0  0  0  0  0
   20.8351   -3.2359  -15.5790 O   0  0  0  0  0  0  0  0  0  0  0  0
   21.8496   -5.3211  -13.6370 C   0  0  0  0  0  0  0  0  0  0  0  0
   22.4208   -4.0731  -13.6951 O   0  0  0  0  0  0  0  0  0  0  0  0
   18.8835   -2.8582  -14.4966 O   0  0  0  0  0  0  0  0  0  0  0  0
   21.9612   -6.0015  -12.6004 O   0  0  0  0  0  0  0  0  0  0  0  0
  2  1  1  1
  2  4  1  0
  3  2  1  0
  4  6  1  0
  4  5  1  1
  6 13  1  0
  6  7  2  0
  8  9  1  0
  9 10  1  0
 10 12  1  0
 10 11  1  1
 12 14  1  0
 12 13  1  6
 14 15  2  0
 16 14  1  0
 16 17  1  0
 17 21  1  0
 17 18  1  1
 19 18  1  0
 19 20  2  0
 21 22  1  0
 23 19  1  0
 24 21  2  0
M  END
$$$$
