VID.pdb
     RDKit          3D

 24 23  0  0  1  0  0  0  0  0999 V2000
   17.4229  -10.0866  -17.4615 C   0  0  0  0  0  0  0  0  0  0  0  0
   18.3897  -10.7365  -18.4018 C   0  0  2  0  0  0  0  0  0  0  0  0
   17.5963  -11.3218  -19.5505 C   0  0  0  0  0  0  0  0  0  0  0  0
   19.1613  -11.8799  -17.7354 C   0  0  2  0  0  0  0  0  0  0  0  0
   18.3553  -12.9345  -17.3017 N   0  0  0  0  0  0  0  0  0  0  0  0
   19.9484  -11.3423  -16.5736 C   0  0  0  0  0  0  0  0  0  0  0  0
   19.4238  -11.3128  -15.4365 O   0  0  0  0  0  0  0  0  0  0  0  0
   24.6584  -13.0082  -15.5098 C   0  0  0  0  0  0  0  0  0  0  0  0
   23.2762  -12.4063  -15.3790 C   0  0  0  0  0  0  0  0  0  0  0  0
   23.2720  -10.9159  -15.5110 C   0  0  2  0  0  0  0  0  0  0  0  0
   24.2238  -10.2519  -14.5401 C   0  0  0  0  0  0  0  0  0  0  0  0
   21.9375  -10.2524  -15.5697 C   0  0  2  0  0  0  0  0  0  0  0  0
   21.2584  -10.8675  -16.7086 N   0  0  0  0  0  0  0  0  0  0  0  0
   21.9398   -8.7871  -15.6855 C   0  0  0  0  0  0  0  0  0  0  0  0
   22.3120   -8.2039  -16.7681 O   0  0  0  0  0  0  0  0  0  0  0  0
   21.5400   -7.9265  -14.6438 N   0  0  0  0  0  0  0  0  0  0  0  0
   21.5387   -6.4659  -14.8567 C   0  0  1  0  0  0  0  0  0  0  0  0
   20.1485   -5.9879  -15.1899 C   0  0  0  0  0  0  0  0  0  0  0  0
   20.0473   -4.5374  -15.4213 C   0  0  0  0  0  0  0  0  0  0  0  0
   20.8968   -3.9867  -16.1618 O   0  0  0  0  0  0  0  0  0  0  0  0
   21.9380   -5.7677  -13.6127 C   0  0  0  0  0  0  0  0  0  0  0  0
   22.3006   -4.4428  -13.6284 O   0  0  0  0  0  0  0  0  0  0  0  0
   19.0598   -3.7623  -14.8588 O   0  0  0  0  0  0  0  0  0  0  0  0
   21.9439   -6.3948  -12.5373 O   0  0  0  0  0  0  0  0  0  0  0  0
  2  1  1  1
  2  4  1  0
  3  2  1  0
  4  6  1  0
  4  5  1  1
  6 13  1  0
  6  7  2  0
  8  9  1  0
  9 10  1  0
 10 12  1  0
 10 11  1  1
 12 14  1  0
 12 13  1  6
 14 15  2  0
 16 14  1  0
 16 17  1  0
 17 21  1  0
 17 18  1  1
 19 18  1  0
 19 20  2  0
 21 22  1  0
 23 19  1  0
 24 21  2  0
M  END
$$$$
