VID.pdb
     RDKit          3D

 24 23  0  0  1  0  0  0  0  0999 V2000
   43.4241  -12.1195   -7.6311 C   0  0  0  0  0  0  0  0  0  0  0  0
   44.2094  -10.8529   -7.4889 C   0  0  2  0  0  0  0  0  0  0  0  0
   45.4358  -11.1590   -6.6561 C   0  0  0  0  0  0  0  0  0  0  0  0
   43.4144   -9.7602   -6.7672 C   0  0  2  0  0  0  0  0  0  0  0  0
   43.0102  -10.1079   -5.4766 N   0  0  0  0  0  0  0  0  0  0  0  0
   42.2090   -9.3941   -7.5865 C   0  0  0  0  0  0  0  0  0  0  0  0
   42.3568   -9.0722   -8.7879 O   0  0  0  0  0  0  0  0  0  0  0  0
   37.6695  -11.5818   -5.9995 C   0  0  0  0  0  0  0  0  0  0  0  0
   38.5802  -11.0906   -7.1037 C   0  0  0  0  0  0  0  0  0  0  0  0
   38.5849   -9.6006   -7.2390 C   0  0  2  0  0  0  0  0  0  0  0  0
   37.2766   -9.0704   -7.7838 C   0  0  0  0  0  0  0  0  0  0  0  0
   39.7804   -8.9908   -7.8895 C   0  0  2  0  0  0  0  0  0  0  0  0
   40.9123   -9.3972   -7.0587 N   0  0  0  0  0  0  0  0  0  0  0  0
   39.7551   -7.5321   -8.0693 C   0  0  0  0  0  0  0  0  0  0  0  0
   39.1209   -6.9913   -9.0470 O   0  0  0  0  0  0  0  0  0  0  0  0
   40.4062   -6.6328   -7.2016 N   0  0  0  0  0  0  0  0  0  0  0  0
   40.3898   -5.1863   -7.4951 C   0  0  1  0  0  0  0  0  0  0  0  0
   40.1556   -4.3995   -6.2308 C   0  0  0  0  0  0  0  0  0  0  0  0
   40.1894   -2.9389   -6.4128 C   0  0  0  0  0  0  0  0  0  0  0  0
   39.8779   -2.4658   -7.5319 O   0  0  0  0  0  0  0  0  0  0  0  0
   41.7059   -4.7566   -8.0216 C   0  0  0  0  0  0  0  0  0  0  0  0
   42.8683   -5.3546   -7.5991 O   0  0  0  0  0  0  0  0  0  0  0  0
   40.5485   -2.0728   -5.4062 O   0  0  0  0  0  0  0  0  0  0  0  0
   41.7560   -3.8382   -8.8606 O   0  0  0  0  0  0  0  0  0  0  0  0
  2  1  1  1
  2  4  1  0
  3  2  1  0
  4  6  1  0
  4  5  1  1
  6 13  1  0
  6  7  2  0
  8  9  1  0
  9 10  1  0
 10 12  1  0
 10 11  1  6
 12 14  1  0
 12 13  1  1
 14 15  2  0
 16 14  1  0
 16 17  1  0
 17 21  1  0
 17 18  1  1
 19 18  1  0
 19 20  2  0
 21 22  1  0
 23 19  1  0
 24 21  2  0
M  END
$$$$
