VID.pdb
     RDKit          3D

 24 23  0  0  1  0  0  0  0  0999 V2000
   22.7862   -7.7677  -20.8063 C   0  0  0  0  0  0  0  0  0  0  0  0
   24.2045   -8.1056  -20.4669 C   0  0  2  0  0  0  0  0  0  0  0  0
   25.0690   -7.7144  -21.6464 C   0  0  0  0  0  0  0  0  0  0  0  0
   24.3968   -9.6057  -20.2228 C   0  0  2  0  0  0  0  0  0  0  0  0
   24.0949  -10.4059  -21.3267 N   0  0  0  0  0  0  0  0  0  0  0  0
   23.5585  -10.0338  -19.0514 C   0  0  0  0  0  0  0  0  0  0  0  0
   22.4623  -10.6044  -19.2556 O   0  0  0  0  0  0  0  0  0  0  0  0
   24.1855  -12.7117  -13.8582 C   0  0  0  0  0  0  0  0  0  0  0  0
   23.2492  -11.8304  -14.6560 C   0  0  0  0  0  0  0  0  0  0  0  0
   23.9412  -11.0819  -15.7512 C   0  0  2  0  0  0  0  0  0  0  0  0
   25.1851  -10.3721  -15.2631 C   0  0  0  0  0  0  0  0  0  0  0  0
   23.0845  -10.2288  -16.6245 C   0  0  2  0  0  0  0  0  0  0  0  0
   23.9545   -9.8201  -17.7257 N   0  0  0  0  0  0  0  0  0  0  0  0
   22.4572   -9.0622  -15.9872 C   0  0  0  0  0  0  0  0  0  0  0  0
   21.5046   -9.1988  -15.1360 O   0  0  0  0  0  0  0  0  0  0  0  0
   22.8445   -7.7332  -16.2508 N   0  0  0  0  0  0  0  0  0  0  0  0
   22.1685   -6.6194  -15.5572 C   0  0  1  0  0  0  0  0  0  0  0  0
   23.1821   -5.7378  -14.8735 C   0  0  0  0  0  0  0  0  0  0  0  0
   22.6142   -4.5238  -14.2641 C   0  0  0  0  0  0  0  0  0  0  0  0
   21.7596   -4.6517  -13.3549 O   0  0  0  0  0  0  0  0  0  0  0  0
   21.4575   -5.7642  -16.5357 C   0  0  0  0  0  0  0  0  0  0  0  0
   20.6120   -4.7641  -16.1208 O   0  0  0  0  0  0  0  0  0  0  0  0
   22.9825   -3.2561  -14.6511 O   0  0  0  0  0  0  0  0  0  0  0  0
   21.6313   -5.9577  -17.7532 O   0  0  0  0  0  0  0  0  0  0  0  0
  2  1  1  6
  2  4  1  0
  3  2  1  0
  4  6  1  0
  4  5  1  6
  6 13  1  0
  6  7  2  0
  8  9  1  0
  9 10  1  0
 10 12  1  0
 10 11  1  1
 12 14  1  0
 12 13  1  6
 14 15  2  0
 16 14  1  0
 16 17  1  0
 17 21  1  0
 17 18  1  6
 19 18  1  0
 19 20  2  0
 21 22  1  0
 23 19  1  0
 24 21  2  0
M  END
$$$$
