VID.pdb
     RDKit          3D

 24 23  0  0  1  0  0  0  0  0999 V2000
   19.1751  -20.8225  -14.4045 C   0  0  0  0  0  0  0  0  0  0  0  0
   19.6969  -22.0264  -13.6838 C   0  0  2  0  0  0  0  0  0  0  0  0
   18.5126  -22.8911  -13.3083 C   0  0  0  0  0  0  0  0  0  0  0  0
   20.4308  -21.6515  -12.3923 C   0  0  2  0  0  0  0  0  0  0  0  0
   19.6435  -20.9590  -11.4701 N   0  0  0  0  0  0  0  0  0  0  0  0
   21.6457  -20.8326  -12.7265 C   0  0  0  0  0  0  0  0  0  0  0  0
   21.6190  -19.5927  -12.5500 O   0  0  0  0  0  0  0  0  0  0  0  0
   26.1027  -21.7990  -10.5143 C   0  0  0  0  0  0  0  0  0  0  0  0
   24.9270  -21.1762  -11.2353 C   0  0  0  0  0  0  0  0  0  0  0  0
   25.0942  -21.1599  -12.7220 C   0  0  2  0  0  0  0  0  0  0  0  0
   26.4591  -20.6579  -13.1398 C   0  0  0  0  0  0  0  0  0  0  0  0
   23.9818  -20.5609  -13.5146 C   0  0  2  0  0  0  0  0  0  0  0  0
   22.8201  -21.4021  -13.2326 N   0  0  0  0  0  0  0  0  0  0  0  0
   24.2033  -20.4357  -14.9623 C   0  0  0  0  0  0  0  0  0  0  0  0
   24.2830  -21.4722  -15.7172 O   0  0  0  0  0  0  0  0  0  0  0  0
   24.3391  -19.1976  -15.6214 N   0  0  0  0  0  0  0  0  0  0  0  0
   24.3918  -19.1519  -17.0958 C   0  0  1  0  0  0  0  0  0  0  0  0
   23.2253  -18.3647  -17.6360 C   0  0  0  0  0  0  0  0  0  0  0  0
   23.2055  -18.2430  -19.1031 C   0  0  0  0  0  0  0  0  0  0  0  0
   23.4316  -19.2656  -19.7935 O   0  0  0  0  0  0  0  0  0  0  0  0
   25.6173  -18.4497  -17.5420 C   0  0  0  0  0  0  0  0  0  0  0  0
   26.0665  -18.5596  -18.8356 O   0  0  0  0  0  0  0  0  0  0  0  0
   22.9495  -17.0546  -19.7469 O   0  0  0  0  0  0  0  0  0  0  0  0
   26.2483  -17.7493  -16.7288 O   0  0  0  0  0  0  0  0  0  0  0  0
  2  1  1  1
  2  4  1  0
  3  2  1  0
  4  6  1  0
  4  5  1  1
  6 13  1  0
  6  7  2  0
  8  9  1  0
  9 10  1  0
 10 12  1  0
 10 11  1  1
 12 14  1  0
 12 13  1  6
 14 15  2  0
 16 14  1  0
 16 17  1  0
 17 21  1  0
 17 18  1  1
 19 18  1  0
 19 20  2  0
 21 22  1  0
 23 19  1  0
 24 21  2  0
M  END
$$$$
