VID.pdb
     RDKit          3D

 24 23  0  0  1  0  0  0  0  0999 V2000
   16.1745   -9.6288  -16.5414 C   0  0  0  0  0  0  0  0  0  0  0  0
   17.2134  -10.4810  -17.2014 C   0  0  2  0  0  0  0  0  0  0  0  0
   16.4975  -11.5564  -17.9905 C   0  0  0  0  0  0  0  0  0  0  0  0
   18.1219  -11.1752  -16.1818 C   0  0  2  0  0  0  0  0  0  0  0  0
   17.4488  -12.0342  -15.3107 N   0  0  0  0  0  0  0  0  0  0  0  0
   18.8652  -10.1391  -15.3865 C   0  0  0  0  0  0  0  0  0  0  0  0
   18.4210   -9.7859  -14.2699 O   0  0  0  0  0  0  0  0  0  0  0  0
   23.9086  -10.6184  -14.2985 C   0  0  0  0  0  0  0  0  0  0  0  0
   22.4377  -10.2629  -14.3000 C   0  0  0  0  0  0  0  0  0  0  0  0
   22.1498   -8.9662  -14.9887 C   0  0  2  0  0  0  0  0  0  0  0  0
   23.0910   -7.8644  -14.5530 C   0  0  0  0  0  0  0  0  0  0  0  0
   20.7230   -8.5340  -15.0339 C   0  0  2  0  0  0  0  0  0  0  0  0
   20.0467   -9.5445  -15.8451 N   0  0  0  0  0  0  0  0  0  0  0  0
   20.4646   -7.1827  -15.5514 C   0  0  0  0  0  0  0  0  0  0  0  0
   20.6576   -6.8937  -16.7883 O   0  0  0  0  0  0  0  0  0  0  0  0
   19.9925   -6.1234  -14.7510 N   0  0  0  0  0  0  0  0  0  0  0  0
   19.7327   -4.8031  -15.3578 C   0  0  1  0  0  0  0  0  0  0  0  0
   18.4578   -4.2170  -14.8072 C   0  0  0  0  0  0  0  0  0  0  0  0
   18.1785   -2.8442  -15.2602 C   0  0  0  0  0  0  0  0  0  0  0  0
   18.9420   -2.3251  -16.1094 O   0  0  0  0  0  0  0  0  0  0  0  0
   20.8175   -3.8572  -15.0076 C   0  0  0  0  0  0  0  0  0  0  0  0
   21.1691   -2.8357  -15.8562 O   0  0  0  0  0  0  0  0  0  0  0  0
   17.1154   -2.1085  -14.7905 O   0  0  0  0  0  0  0  0  0  0  0  0
   21.4185   -3.9930  -13.9258 O   0  0  0  0  0  0  0  0  0  0  0  0
  2  1  1  1
  2  4  1  0
  3  2  1  0
  4  6  1  0
  4  5  1  1
  6 13  1  0
  6  7  2  0
  8  9  1  0
  9 10  1  0
 10 12  1  0
 10 11  1  1
 12 14  1  0
 12 13  1  6
 14 15  2  0
 16 14  1  0
 16 17  1  0
 17 21  1  0
 17 18  1  1
 19 18  1  0
 19 20  2  0
 21 22  1  0
 23 19  1  0
 24 21  2  0
M  END
$$$$
