VID.pdb
     RDKit          3D

 24 23  0  0  1  0  0  0  0  0999 V2000
   26.4858  -19.4221  -15.4182 C   0  0  0  0  0  0  0  0  0  0  0  0
   27.5265  -19.0035  -14.4267 C   0  0  2  0  0  0  0  0  0  0  0  0
   28.6229  -18.2831  -15.1820 C   0  0  0  0  0  0  0  0  0  0  0  0
   28.1593  -20.2032  -13.7146 C   0  0  2  0  0  0  0  0  0  0  0  0
   28.6438  -21.1879  -14.5781 N   0  0  0  0  0  0  0  0  0  0  0  0
   27.1579  -20.8124  -12.7741 C   0  0  0  0  0  0  0  0  0  0  0  0
   26.5205  -21.8304  -13.1297 O   0  0  0  0  0  0  0  0  0  0  0  0
   27.9090  -20.4169   -7.4447 C   0  0  0  0  0  0  0  0  0  0  0  0
   27.5332  -20.9693   -8.8025 C   0  0  0  0  0  0  0  0  0  0  0  0
   26.1966  -20.4942   -9.2781 C   0  0  2  0  0  0  0  0  0  0  0  0
   25.0955  -20.7912   -8.2837 C   0  0  0  0  0  0  0  0  0  0  0  0
   25.8256  -20.8343  -10.6820 C   0  0  2  0  0  0  0  0  0  0  0  0
   26.9035  -20.2851  -11.5025 N   0  0  0  0  0  0  0  0  0  0  0  0
   24.5146  -20.3581  -11.1461 C   0  0  0  0  0  0  0  0  0  0  0  0
   24.1636  -19.1300  -11.0078 O   0  0  0  0  0  0  0  0  0  0  0  0
   23.5631  -21.1909  -11.7680 N   0  0  0  0  0  0  0  0  0  0  0  0
   22.3625  -20.5986  -12.3895 C   0  0  1  0  0  0  0  0  0  0  0  0
   22.4889  -20.6165  -13.8914 C   0  0  0  0  0  0  0  0  0  0  0  0
   21.3376  -20.0358  -14.6020 C   0  0  0  0  0  0  0  0  0  0  0  0
   20.4454  -19.4625  -13.9321 O   0  0  0  0  0  0  0  0  0  0  0  0
   21.1647  -21.4043  -12.0574 C   0  0  0  0  0  0  0  0  0  0  0  0
   20.1203  -20.8631  -11.3478 O   0  0  0  0  0  0  0  0  0  0  0  0
   21.2007  -20.0963  -15.9694 O   0  0  0  0  0  0  0  0  0  0  0  0
   21.1067  -22.5911  -12.4290 O   0  0  0  0  0  0  0  0  0  0  0  0
  2  1  1  6
  2  4  1  0
  3  2  1  0
  4  6  1  0
  4  5  1  6
  6 13  1  0
  6  7  2  0
  8  9  1  0
  9 10  1  0
 10 12  1  0
 10 11  1  1
 12 14  1  0
 12 13  1  6
 14 15  2  0
 16 14  1  0
 16 17  1  0
 17 21  1  0
 17 18  1  6
 19 18  1  0
 19 20  2  0
 21 22  1  0
 23 19  1  0
 24 21  2  0
M  END
$$$$
