VID.pdb
     RDKit          3D

 24 23  0  0  1  0  0  0  0  0999 V2000
   17.2487   -9.8501  -17.8114 C   0  0  0  0  0  0  0  0  0  0  0  0
   18.2881  -10.4908  -18.6777 C   0  0  2  0  0  0  0  0  0  0  0  0
   17.5900  -11.0626  -19.8930 C   0  0  0  0  0  0  0  0  0  0  0  0
   19.0032  -11.6422  -17.9638 C   0  0  2  0  0  0  0  0  0  0  0  0
   18.1545  -12.6712  -17.5505 N   0  0  0  0  0  0  0  0  0  0  0  0
   19.7535  -11.1065  -16.7770 C   0  0  0  0  0  0  0  0  0  0  0  0
   19.2202  -11.1445  -15.6442 O   0  0  0  0  0  0  0  0  0  0  0  0
   24.1348  -12.8717  -15.0829 C   0  0  0  0  0  0  0  0  0  0  0  0
   22.8029  -12.1780  -15.2691 C   0  0  0  0  0  0  0  0  0  0  0  0
   22.9381  -10.7093  -15.5206 C   0  0  2  0  0  0  0  0  0  0  0  0
   23.8863  -10.0458  -14.5459 C   0  0  0  0  0  0  0  0  0  0  0  0
   21.6733   -9.9446  -15.7202 C   0  0  2  0  0  0  0  0  0  0  0  0
   21.0380  -10.5603  -16.8839 N   0  0  0  0  0  0  0  0  0  0  0  0
   21.8082   -8.4920  -15.8999 C   0  0  0  0  0  0  0  0  0  0  0  0
   21.9521   -7.9746  -17.0670 O   0  0  0  0  0  0  0  0  0  0  0  0
   21.7872   -7.5735  -14.8314 N   0  0  0  0  0  0  0  0  0  0  0  0
   21.8519   -6.1248  -15.1063 C   0  0  1  0  0  0  0  0  0  0  0  0
   20.6368   -5.6856  -15.8827 C   0  0  0  0  0  0  0  0  0  0  0  0
   20.5326   -4.2290  -16.0694 C   0  0  0  0  0  0  0  0  0  0  0  0
   21.5518   -3.5961  -16.4357 O   0  0  0  0  0  0  0  0  0  0  0  0
   21.8391   -5.3625  -13.8362 C   0  0  0  0  0  0  0  0  0  0  0  0
   22.2080   -4.0397  -13.7994 O   0  0  0  0  0  0  0  0  0  0  0  0
   19.3641   -3.5344  -15.8587 O   0  0  0  0  0  0  0  0  0  0  0  0
   21.4878   -5.9329  -12.7869 O   0  0  0  0  0  0  0  0  0  0  0  0
  2  1  1  1
  2  4  1  0
  3  2  1  0
  4  6  1  0
  4  5  1  1
  6 13  1  0
  6  7  2  0
  8  9  1  0
  9 10  1  0
 10 12  1  0
 10 11  1  1
 12 14  1  0
 12 13  1  6
 14 15  2  0
 16 14  1  0
 16 17  1  0
 17 21  1  0
 17 18  1  6
 19 18  1  0
 19 20  2  0
 21 22  1  0
 23 19  1  0
 24 21  2  0
M  END
$$$$
