WNC.pdb
     RDKit          3D

 29 30  0  0  1  0  0  0  0  0999 V2000
    7.6113  -17.5720   23.5758 N   0  0  0  0  0  0  0  0  0  0  0  0
    8.3833  -16.4146   23.2126 C   0  0  1  0  0  0  0  0  0  0  0  0
    8.7653  -15.5672   24.3715 C   0  0  0  0  0  0  0  0  0  0  0  0
    7.6420  -15.0266   25.1531 C   0  0  0  0  0  0  0  0  0  0  0  0
    6.5220  -15.7002   25.6276 C   0  0  0  0  0  0  0  0  0  0  0  0
    5.7556  -14.8429   26.3183 N   0  0  0  0  0  0  0  0  0  0  0  0
    6.3198  -13.6201   26.3233 C   0  0  0  0  0  0  0  0  0  0  0  0
    5.9090  -12.4361   26.8845 C   0  0  0  0  0  0  0  0  0  0  0  0
    6.7200  -11.3396   26.6974 C   0  0  0  0  0  0  0  0  0  0  0  0
    7.8917  -11.4007   25.9860 C   0  0  0  0  0  0  0  0  0  0  0  0
    8.2834  -12.5914   25.4346 C   0  0  0  0  0  0  0  0  0  0  0  0
    7.5025  -13.7215   25.5959 C   0  0  0  0  0  0  0  0  0  0  0  0
    9.5150  -16.8362   22.3701 C   0  0  0  0  0  0  0  0  0  0  0  0
   10.5228  -16.0718   22.3160 O   0  0  0  0  0  0  0  0  0  0  0  0
    7.4427  -19.6756   18.2861 N   0  0  0  0  0  0  0  0  0  0  0  0
    7.3308  -18.2850   18.6763 C   0  0  0  0  0  0  0  0  0  0  0  0
    6.7834  -17.5379   17.8512 O   0  0  0  0  0  0  0  0  0  0  0  0
    7.8342  -17.8179   19.9570 C   0  0  0  0  0  0  0  0  0  0  0  0
    9.2967  -18.0047   20.1622 C   0  0  2  0  0  0  0  0  0  0  0  0
    9.5220  -18.0198   21.6435 N   0  0  0  0  0  0  0  0  0  0  0  0
   10.1111  -16.8647   19.6503 C   0  0  0  0  0  0  0  0  0  0  0  0
   11.1174  -17.1381   18.8725 O   0  0  0  0  0  0  0  0  0  0  0  0
    9.9386  -15.4993   19.8886 N   0  0  0  0  0  0  0  0  0  0  0  0
   10.5754  -14.4786   19.0227 C   0  0  1  0  0  0  0  0  0  0  0  0
    9.8583  -13.1545   19.1797 C   0  0  0  0  0  0  0  0  0  0  0  0
    8.0743  -13.3010   19.0609 S   0  0  0  0  0  0  0  0  0  0  0  0
   11.9494  -14.2938   19.5517 C   0  0  0  0  0  0  0  0  0  0  0  0
   12.8975  -13.4587   18.9699 O   0  0  0  0  0  0  0  0  0  0  0  0
   12.2685  -14.9327   20.5867 O   0  0  0  0  0  0  0  0  0  0  0  0
  2  1  1  1
  2 13  1  0
  3  4  1  0
  3  2  1  0
  4 12  1  0
  4  5  2  0
  5  6  1  0
  7  8  2  0
  7  6  1  0
  9  8  1  0
 10  9  2  0
 11 10  1  0
 11 12  2  0
 12  7  1  0
 13 20  1  0
 13 14  2  0
 16 15  1  0
 16 17  2  0
 18 16  1  0
 19 18  1  1
 20 19  1  0
 21 19  1  0
 21 22  2  0
 23 21  1  0
 24 23  1  0
 24 25  1  1
 25 26  1  0
 27 24  1  0
 28 27  1  0
 29 27  2  0
M  END
$$$$
