WNC.pdb
     RDKit          3D

 29 30  0  0  1  0  0  0  0  0999 V2000
    6.6939  -17.1630   23.3102 N   0  0  0  0  0  0  0  0  0  0  0  0
    7.7258  -16.1623   23.3459 C   0  0  1  0  0  0  0  0  0  0  0  0
    8.0876  -15.7303   24.7205 C   0  0  0  0  0  0  0  0  0  0  0  0
    7.0688  -14.9292   25.4170 C   0  0  0  0  0  0  0  0  0  0  0  0
    5.8567  -15.3546   25.9493 C   0  0  0  0  0  0  0  0  0  0  0  0
    5.2408  -14.3108   26.5242 N   0  0  0  0  0  0  0  0  0  0  0  0
    5.9943  -13.2021   26.3961 C   0  0  0  0  0  0  0  0  0  0  0  0
    5.7813  -11.9102   26.8100 C   0  0  0  0  0  0  0  0  0  0  0  0
    6.7575  -10.9873   26.5095 C   0  0  0  0  0  0  0  0  0  0  0  0
    7.9015  -11.3179   25.8279 C   0  0  0  0  0  0  0  0  0  0  0  0
    8.0946  -12.6122   25.4242 C   0  0  0  0  0  0  0  0  0  0  0  0
    7.1426  -13.5758   25.7034 C   0  0  0  0  0  0  0  0  0  0  0  0
    8.8661  -16.6179   22.5332 C   0  0  0  0  0  0  0  0  0  0  0  0
    8.9615  -17.8585   22.2998 O   0  0  0  0  0  0  0  0  0  0  0  0
   13.0932  -16.6182   19.0620 N   0  0  0  0  0  0  0  0  0  0  0  0
   12.9626  -15.5212   19.9990 C   0  0  0  0  0  0  0  0  0  0  0  0
   14.0024  -14.8856   20.2304 O   0  0  0  0  0  0  0  0  0  0  0  0
   11.6857  -15.2038   20.6158 C   0  0  0  0  0  0  0  0  0  0  0  0
   11.1026  -16.2923   21.4472 C   0  0  2  0  0  0  0  0  0  0  0  0
    9.8264  -15.7556   22.0203 N   0  0  0  0  0  0  0  0  0  0  0  0
   11.9464  -16.6468   22.6249 C   0  0  0  0  0  0  0  0  0  0  0  0
   13.1102  -17.1824   22.3992 O   0  0  0  0  0  0  0  0  0  0  0  0
   11.6595  -16.4743   23.9810 N   0  0  0  0  0  0  0  0  0  0  0  0
   12.6088  -16.9122   25.0320 C   0  0  1  0  0  0  0  0  0  0  0  0
   12.3717  -16.1180   26.2990 C   0  0  0  0  0  0  0  0  0  0  0  0
   10.6486  -16.0842   26.7973 S   0  0  0  0  0  0  0  0  0  0  0  0
   12.2628  -18.3234   25.3328 C   0  0  0  0  0  0  0  0  0  0  0  0
   11.1247  -18.9615   24.8507 O   0  0  0  0  0  0  0  0  0  0  0  0
   13.0489  -18.9745   26.0671 O   0  0  0  0  0  0  0  0  0  0  0  0
  2  1  1  1
  2 13  1  0
  3  4  1  0
  3  2  1  0
  4 12  1  0
  4  5  2  0
  5  6  1  0
  7  8  2  0
  7  6  1  0
  9  8  1  0
 10  9  2  0
 11 10  1  0
 11 12  2  0
 12  7  1  0
 13 20  1  0
 13 14  2  0
 16 15  1  0
 16 17  2  0
 18 16  1  0
 19 18  1  6
 20 19  1  0
 21 19  1  0
 21 22  2  0
 23 21  1  0
 24 23  1  0
 24 25  1  1
 25 26  1  0
 27 24  1  0
 28 27  1  0
 29 27  2  0
M  END
$$$$
