WNC.pdb
     RDKit          3D

 29 30  0  0  1  0  0  0  0  0999 V2000
    6.5980  -18.0669   23.9930 N   0  0  0  0  0  0  0  0  0  0  0  0
    7.3676  -16.9899   23.4314 C   0  0  1  0  0  0  0  0  0  0  0  0
    8.0640  -16.1628   24.4501 C   0  0  0  0  0  0  0  0  0  0  0  0
    7.2003  -15.2551   25.2214 C   0  0  0  0  0  0  0  0  0  0  0  0
    6.0716  -15.5713   25.9693 C   0  0  0  0  0  0  0  0  0  0  0  0
    5.5957  -14.4533   26.5376 N   0  0  0  0  0  0  0  0  0  0  0  0
    6.3628  -13.4000   26.1975 C   0  0  0  0  0  0  0  0  0  0  0  0
    6.2689  -12.0693   26.5233 C   0  0  0  0  0  0  0  0  0  0  0  0
    7.2211  -11.2266   25.9957 C   0  0  0  0  0  0  0  0  0  0  0  0
    8.2293  -11.6714   25.1783 C   0  0  0  0  0  0  0  0  0  0  0  0
    8.3050  -13.0026   24.8658 C   0  0  0  0  0  0  0  0  0  0  0  0
    7.3718  -13.8888   25.3722 C   0  0  0  0  0  0  0  0  0  0  0  0
    8.2478  -17.5251   22.3793 C   0  0  0  0  0  0  0  0  0  0  0  0
    8.5283  -18.7590   22.4206 O   0  0  0  0  0  0  0  0  0  0  0  0
    7.5382  -16.8651   19.2842 N   0  0  0  0  0  0  0  0  0  0  0  0
    8.7383  -16.3179   18.6853 C   0  0  0  0  0  0  0  0  0  0  0  0
    8.5842  -15.7562   17.5901 O   0  0  0  0  0  0  0  0  0  0  0  0
   10.0290  -16.4311   19.3434 C   0  0  0  0  0  0  0  0  0  0  0  0
   10.0128  -17.1745   20.6330 C   0  0  2  0  0  0  0  0  0  0  0  0
    8.7749  -16.7438   21.3592 N   0  0  0  0  0  0  0  0  0  0  0  0
   11.1454  -16.8119   21.5333 C   0  0  0  0  0  0  0  0  0  0  0  0
   12.1878  -16.2451   21.0000 O   0  0  0  0  0  0  0  0  0  0  0  0
   11.2482  -16.9936   22.9143 N   0  0  0  0  0  0  0  0  0  0  0  0
   12.5038  -16.6891   23.6410 C   0  0  1  0  0  0  0  0  0  0  0  0
   12.2052  -16.4692   25.1089 C   0  0  0  0  0  0  0  0  0  0  0  0
   10.9218  -15.2481   25.3917 S   0  0  0  0  0  0  0  0  0  0  0  0
   13.3379  -17.9127   23.5460 C   0  0  0  0  0  0  0  0  0  0  0  0
   12.8897  -19.1159   23.0113 O   0  0  0  0  0  0  0  0  0  0  0  0
   14.5179  -17.8509   23.9761 O   0  0  0  0  0  0  0  0  0  0  0  0
  2  1  1  1
  2 13  1  0
  3  4  1  0
  3  2  1  0
  4 12  1  0
  4  5  2  0
  5  6  1  0
  7  8  2  0
  7  6  1  0
  9  8  1  0
 10  9  2  0
 11 10  1  0
 11 12  2  0
 12  7  1  0
 13 20  1  0
 13 14  2  0
 16 15  1  0
 16 17  2  0
 18 16  1  0
 19 18  1  6
 20 19  1  0
 21 19  1  0
 21 22  2  0
 23 21  1  0
 24 23  1  0
 24 25  1  1
 25 26  1  0
 27 24  1  0
 28 27  1  0
 29 27  2  0
M  END
$$$$
