WNC.pdb
     RDKit          3D

 29 30  0  0  1  0  0  0  0  0999 V2000
    6.4339  -17.9937   24.6389 N   0  0  0  0  0  0  0  0  0  0  0  0
    7.0167  -16.8903   23.9244 C   0  0  1  0  0  0  0  0  0  0  0  0
    7.8125  -15.9782   24.7856 C   0  0  0  0  0  0  0  0  0  0  0  0
    7.0342  -14.9705   25.5229 C   0  0  0  0  0  0  0  0  0  0  0  0
    5.9973  -15.1769   26.4259 C   0  0  0  0  0  0  0  0  0  0  0  0
    5.5808  -13.9903   26.8929 N   0  0  0  0  0  0  0  0  0  0  0  0
    6.2993  -12.9969   26.3357 C   0  0  0  0  0  0  0  0  0  0  0  0
    6.2343  -11.6344   26.4939 C   0  0  0  0  0  0  0  0  0  0  0  0
    7.1172  -10.8758   25.7590 C   0  0  0  0  0  0  0  0  0  0  0  0
    8.0312  -11.4319   24.8999 C   0  0  0  0  0  0  0  0  0  0  0  0
    8.0796  -12.7930   24.7569 C   0  0  0  0  0  0  0  0  0  0  0  0
    7.2134  -13.5977   25.4746 C   0  0  0  0  0  0  0  0  0  0  0  0
    7.7437  -17.4063   22.7524 C   0  0  0  0  0  0  0  0  0  0  0  0
    8.1859  -18.5911   22.8113 O   0  0  0  0  0  0  0  0  0  0  0  0
    8.1994  -17.9167   17.1069 N   0  0  0  0  0  0  0  0  0  0  0  0
    8.8813  -16.9980   17.9954 C   0  0  0  0  0  0  0  0  0  0  0  0
   10.0096  -16.6348   17.6299 O   0  0  0  0  0  0  0  0  0  0  0  0
    8.2638  -16.5443   19.2302 C   0  0  0  0  0  0  0  0  0  0  0  0
    8.7470  -17.2274   20.4613 C   0  0  2  0  0  0  0  0  0  0  0  0
    7.9609  -16.6579   21.6028 N   0  0  0  0  0  0  0  0  0  0  0  0
   10.1740  -16.9284   20.7763 C   0  0  0  0  0  0  0  0  0  0  0  0
   10.4841  -15.7034   21.0852 O   0  0  0  0  0  0  0  0  0  0  0  0
   11.2606  -17.8058   20.7942 N   0  0  0  0  0  0  0  0  0  0  0  0
   12.6110  -17.3530   21.2051 C   0  0  1  0  0  0  0  0  0  0  0  0
   13.0121  -18.0414   22.4925 C   0  0  0  0  0  0  0  0  0  0  0  0
   12.0608  -17.4926   23.9109 S   0  0  0  0  0  0  0  0  0  0  0  0
   13.5399  -17.8289   20.1503 C   0  0  0  0  0  0  0  0  0  0  0  0
   14.9143  -17.6166   20.1755 O   0  0  0  0  0  0  0  0  0  0  0  0
   13.0490  -18.4602   19.1800 O   0  0  0  0  0  0  0  0  0  0  0  0
  2  1  1  1
  2 13  1  0
  3  4  1  0
  3  2  1  0
  4 12  1  0
  4  5  2  0
  5  6  1  0
  7  8  2  0
  7  6  1  0
  9  8  1  0
 10  9  2  0
 11 10  1  0
 11 12  2  0
 12  7  1  0
 13 20  1  0
 13 14  2  0
 16 15  1  0
 16 17  2  0
 18 16  1  0
 19 18  1  6
 20 19  1  0
 21 19  1  0
 21 22  2  0
 23 21  1  0
 24 23  1  0
 24 25  1  1
 25 26  1  0
 27 24  1  0
 28 27  1  0
 29 27  2  0
M  END
$$$$
