WNC.pdb
     RDKit          3D

 29 30  0  0  1  0  0  0  0  0999 V2000
    6.9355  -17.3212   23.7299 N   0  0  0  0  0  0  0  0  0  0  0  0
    8.0585  -16.4240   23.7654 C   0  0  1  0  0  0  0  0  0  0  0  0
    8.2867  -15.8098   25.0986 C   0  0  0  0  0  0  0  0  0  0  0  0
    7.2134  -14.9234   25.5752 C   0  0  0  0  0  0  0  0  0  0  0  0
    5.9678  -15.2772   26.0819 C   0  0  0  0  0  0  0  0  0  0  0  0
    5.3036  -14.1642   26.4275 N   0  0  0  0  0  0  0  0  0  0  0  0
    6.0572  -13.0782   26.1703 C   0  0  0  0  0  0  0  0  0  0  0  0
    5.8052  -11.7397   26.3453 C   0  0  0  0  0  0  0  0  0  0  0  0
    6.7949  -10.8613   25.9659 C   0  0  0  0  0  0  0  0  0  0  0  0
    7.9889  -11.2789   25.4343 C   0  0  0  0  0  0  0  0  0  0  0  0
    8.2202  -12.6184   25.2683 C   0  0  0  0  0  0  0  0  0  0  0  0
    7.2566  -13.5401   25.6353 C   0  0  0  0  0  0  0  0  0  0  0  0
    9.2362  -17.1047   23.2013 C   0  0  0  0  0  0  0  0  0  0  0  0
    9.2992  -18.3635   23.3205 O   0  0  0  0  0  0  0  0  0  0  0  0
   11.8746  -17.2997   18.9379 N   0  0  0  0  0  0  0  0  0  0  0  0
   11.6212  -16.2674   19.9221 C   0  0  0  0  0  0  0  0  0  0  0  0
   10.8376  -15.3719   19.5719 O   0  0  0  0  0  0  0  0  0  0  0  0
   12.2552  -16.2995   21.2293 C   0  0  0  0  0  0  0  0  0  0  0  0
   11.5546  -17.1306   22.2463 C   0  0  2  0  0  0  0  0  0  0  0  0
   10.2649  -16.4327   22.5540 N   0  0  0  0  0  0  0  0  0  0  0  0
   12.2832  -17.2053   23.5456 C   0  0  0  0  0  0  0  0  0  0  0  0
   12.7199  -16.0940   24.0620 O   0  0  0  0  0  0  0  0  0  0  0  0
   12.5677  -18.3345   24.3170 N   0  0  0  0  0  0  0  0  0  0  0  0
   13.3561  -18.2352   25.5683 C   0  0  1  0  0  0  0  0  0  0  0  0
   12.6444  -18.9740   26.6819 C   0  0  0  0  0  0  0  0  0  0  0  0
   11.2453  -18.0686   27.3462 S   0  0  0  0  0  0  0  0  0  0  0  0
   14.6258  -18.9582   25.3097 C   0  0  0  0  0  0  0  0  0  0  0  0
   15.6621  -19.0578   26.2322 O   0  0  0  0  0  0  0  0  0  0  0  0
   14.7664  -19.5106   24.1889 O   0  0  0  0  0  0  0  0  0  0  0  0
  2  1  1  1
  2 13  1  0
  3  4  1  0
  3  2  1  0
  4 12  1  0
  4  5  2  0
  5  6  1  0
  7  8  2  0
  7  6  1  0
  9  8  1  0
 10  9  2  0
 11 10  1  0
 11 12  2  0
 12  7  1  0
 13 20  1  0
 13 14  2  0
 16 15  1  0
 16 17  2  0
 18 16  1  0
 19 18  1  6
 20 19  1  0
 21 19  1  0
 21 22  2  0
 23 21  1  0
 24 23  1  0
 24 25  1  1
 25 26  1  0
 27 24  1  0
 28 27  1  0
 29 27  2  0
M  END
$$$$
