WNC.pdb
     RDKit          3D

 29 30  0  0  1  0  0  0  0  0999 V2000
    8.4536  -18.0322   21.0600 N   0  0  0  0  0  0  0  0  0  0  0  0
    9.4165  -17.1165   21.6094 C   0  0  1  0  0  0  0  0  0  0  0  0
    8.8049  -15.9196   22.2422 C   0  0  0  0  0  0  0  0  0  0  0  0
    8.0100  -15.0691   21.3425 C   0  0  0  0  0  0  0  0  0  0  0  0
    6.6259  -14.9748   21.2487 C   0  0  0  0  0  0  0  0  0  0  0  0
    6.3114  -14.0590   20.3204 N   0  0  0  0  0  0  0  0  0  0  0  0
    7.4330  -13.5372   19.7881 C   0  0  0  0  0  0  0  0  0  0  0  0
    7.6150  -12.5877   18.8128 C   0  0  0  0  0  0  0  0  0  0  0  0
    8.9131  -12.2744   18.4783 C   0  0  0  0  0  0  0  0  0  0  0  0
    9.9943  -12.8697   19.0779 C   0  0  0  0  0  0  0  0  0  0  0  0
    9.7908  -13.8140   20.0484 C   0  0  0  0  0  0  0  0  0  0  0  0
    8.5047  -14.1621   20.4196 C   0  0  0  0  0  0  0  0  0  0  0  0
   10.3421  -17.8580   22.4821 C   0  0  0  0  0  0  0  0  0  0  0  0
    9.8538  -18.7623   23.2215 O   0  0  0  0  0  0  0  0  0  0  0  0
   15.6879  -19.8951   23.4153 N   0  0  0  0  0  0  0  0  0  0  0  0
   15.0161  -18.7005   23.8846 C   0  0  0  0  0  0  0  0  0  0  0  0
   15.3708  -18.2873   24.9991 O   0  0  0  0  0  0  0  0  0  0  0  0
   13.9956  -18.0451   23.0841 C   0  0  0  0  0  0  0  0  0  0  0  0
   12.5945  -18.3954   23.4444 C   0  0  2  0  0  0  0  0  0  0  0  0
   11.7079  -17.6098   22.5267 N   0  0  0  0  0  0  0  0  0  0  0  0
   12.2180  -17.9648   24.8219 C   0  0  0  0  0  0  0  0  0  0  0  0
   12.2926  -16.6970   25.1038 O   0  0  0  0  0  0  0  0  0  0  0  0
   11.7754  -18.7531   25.8866 N   0  0  0  0  0  0  0  0  0  0  0  0
   11.5306  -18.1711   27.2278 C   0  0  1  0  0  0  0  0  0  0  0  0
   10.0473  -17.9378   27.4217 C   0  0  0  0  0  0  0  0  0  0  0  0
    9.3201  -16.9201   26.1357 S   0  0  0  0  0  0  0  0  0  0  0  0
   11.9382  -19.2107   28.2050 C   0  0  0  0  0  0  0  0  0  0  0  0
   12.4458  -20.4549   27.8456 O   0  0  0  0  0  0  0  0  0  0  0  0
   11.8148  -18.9446   29.4277 O   0  0  0  0  0  0  0  0  0  0  0  0
  2  1  1  1
  2 13  1  0
  3  4  1  0
  3  2  1  0
  4 12  1  0
  4  5  2  0
  5  6  1  0
  7  8  2  0
  7  6  1  0
  9  8  1  0
 10  9  2  0
 11 10  1  0
 11 12  2  0
 12  7  1  0
 13 20  1  0
 13 14  2  0
 16 15  1  0
 16 17  2  0
 18 16  1  0
 19 18  1  6
 20 19  1  0
 21 19  1  0
 21 22  2  0
 23 21  1  0
 24 23  1  0
 24 25  1  6
 25 26  1  0
 27 24  1  0
 28 27  1  0
 29 27  2  0
M  END
$$$$
