WNC.pdb
     RDKit          3D

 29 30  0  0  1  0  0  0  0  0999 V2000
    7.4245  -18.0124   22.1184 N   0  0  0  0  0  0  0  0  0  0  0  0
    8.0360  -16.9672   22.8937 C   0  0  1  0  0  0  0  0  0  0  0  0
    7.0711  -16.1996   23.7224 C   0  0  0  0  0  0  0  0  0  0  0  0
    7.2188  -14.7367   23.6673 C   0  0  0  0  0  0  0  0  0  0  0  0
    7.6583  -13.9565   22.6036 C   0  0  0  0  0  0  0  0  0  0  0  0
    7.6157  -12.6644   22.9615 N   0  0  0  0  0  0  0  0  0  0  0  0
    7.1651  -12.5501   24.2254 C   0  0  0  0  0  0  0  0  0  0  0  0
    6.9611  -11.4468   25.0171 C   0  0  0  0  0  0  0  0  0  0  0  0
    6.4935  -11.6691   26.2927 C   0  0  0  0  0  0  0  0  0  0  0  0
    6.2348  -12.9271   26.7755 C   0  0  0  0  0  0  0  0  0  0  0  0
    6.4448  -14.0140   25.9694 C   0  0  0  0  0  0  0  0  0  0  0  0
    6.9132  -13.8417   24.6795 C   0  0  0  0  0  0  0  0  0  0  0  0
    9.1708  -17.5275   23.6465 C   0  0  0  0  0  0  0  0  0  0  0  0
    9.0236  -18.6743   24.1622 O   0  0  0  0  0  0  0  0  0  0  0  0
   12.5594  -15.7724   22.1306 N   0  0  0  0  0  0  0  0  0  0  0  0
   13.1013  -16.1877   23.4082 C   0  0  0  0  0  0  0  0  0  0  0  0
   13.9251  -15.4140   23.9195 O   0  0  0  0  0  0  0  0  0  0  0  0
   12.6914  -17.4344   24.0322 C   0  0  0  0  0  0  0  0  0  0  0  0
   11.4038  -17.3700   24.7764 C   0  0  2  0  0  0  0  0  0  0  0  0
   10.3774  -16.8598   23.8114 N   0  0  0  0  0  0  0  0  0  0  0  0
   11.4210  -16.3823   25.8939 C   0  0  0  0  0  0  0  0  0  0  0  0
   12.1977  -15.3453   25.7762 O   0  0  0  0  0  0  0  0  0  0  0  0
   10.6934  -16.4083   27.0859 N   0  0  0  0  0  0  0  0  0  0  0  0
   11.3217  -16.0541   28.3809 C   0  0  1  0  0  0  0  0  0  0  0  0
   10.4531  -15.0545   29.1149 C   0  0  0  0  0  0  0  0  0  0  0  0
    9.7591  -13.7992   28.0375 S   0  0  0  0  0  0  0  0  0  0  0  0
   11.3264  -17.2998   29.1871 C   0  0  0  0  0  0  0  0  0  0  0  0
   11.8776  -17.3962   30.4605 O   0  0  0  0  0  0  0  0  0  0  0  0
   10.7995  -18.3244   28.6833 O   0  0  0  0  0  0  0  0  0  0  0  0
  2  1  1  1
  2 13  1  0
  3  4  1  0
  3  2  1  0
  4 12  1  0
  4  5  2  0
  5  6  1  0
  7  8  2  0
  7  6  1  0
  9  8  1  0
 10  9  2  0
 11 10  1  0
 11 12  2  0
 12  7  1  0
 13 20  1  0
 13 14  2  0
 16 15  1  0
 16 17  2  0
 18 16  1  0
 19 18  1  6
 20 19  1  0
 21 19  1  0
 21 22  2  0
 23 21  1  0
 24 23  1  0
 24 25  1  1
 25 26  1  0
 27 24  1  0
 28 27  1  0
 29 27  2  0
M  END
$$$$
