WNC.pdb
     RDKit          3D

 29 30  0  0  1  0  0  0  0  0999 V2000
    6.2941  -17.3135   23.4421 N   0  0  0  0  0  0  0  0  0  0  0  0
    7.0931  -16.1443   23.1931 C   0  0  1  0  0  0  0  0  0  0  0  0
    7.8426  -15.6716   24.3854 C   0  0  0  0  0  0  0  0  0  0  0  0
    7.0383  -14.9657   25.3952 C   0  0  0  0  0  0  0  0  0  0  0  0
    6.1050  -15.4990   26.2772 C   0  0  0  0  0  0  0  0  0  0  0  0
    5.6200  -14.5150   27.0490 N   0  0  0  0  0  0  0  0  0  0  0  0
    6.1927  -13.3424   26.7164 C   0  0  0  0  0  0  0  0  0  0  0  0
    6.0139  -12.0748   27.2132 C   0  0  0  0  0  0  0  0  0  0  0  0
    6.7568  -11.0672   26.6405 C   0  0  0  0  0  0  0  0  0  0  0  0
    7.6432  -11.2931   25.6179 C   0  0  0  0  0  0  0  0  0  0  0  0
    7.8067  -12.5649   25.1372 C   0  0  0  0  0  0  0  0  0  0  0  0
    7.0833  -13.6109   25.6807 C   0  0  0  0  0  0  0  0  0  0  0  0
    7.9296  -16.3775   22.0038 C   0  0  0  0  0  0  0  0  0  0  0  0
    8.2573  -17.5721   21.7422 O   0  0  0  0  0  0  0  0  0  0  0  0
    7.4063  -12.9748   18.7250 N   0  0  0  0  0  0  0  0  0  0  0  0
    8.1414  -14.2086   18.5353 C   0  0  0  0  0  0  0  0  0  0  0  0
    7.6218  -15.0307   17.7654 O   0  0  0  0  0  0  0  0  0  0  0  0
    9.4045  -14.4460   19.2136 C   0  0  0  0  0  0  0  0  0  0  0  0
    9.4137  -15.6185   20.1306 C   0  0  2  0  0  0  0  0  0  0  0  0
    8.3670  -15.3564   21.1702 N   0  0  0  0  0  0  0  0  0  0  0  0
   10.6923  -15.7632   20.8849 C   0  0  0  0  0  0  0  0  0  0  0  0
   11.4878  -14.7350   20.9349 O   0  0  0  0  0  0  0  0  0  0  0  0
   11.1713  -16.8796   21.5742 N   0  0  0  0  0  0  0  0  0  0  0  0
   12.4796  -16.8533   22.2707 C   0  0  1  0  0  0  0  0  0  0  0  0
   12.3014  -17.2834   23.7113 C   0  0  0  0  0  0  0  0  0  0  0  0
   11.0851  -16.3037   24.5939 S   0  0  0  0  0  0  0  0  0  0  0  0
   13.3153  -17.8857   21.6093 C   0  0  0  0  0  0  0  0  0  0  0  0
   14.6687  -18.0710   21.8712 O   0  0  0  0  0  0  0  0  0  0  0  0
   12.7610  -18.6332   20.7636 O   0  0  0  0  0  0  0  0  0  0  0  0
  2  1  1  1
  2 13  1  0
  3  4  1  0
  3  2  1  0
  4 12  1  0
  4  5  2  0
  5  6  1  0
  7  8  2  0
  7  6  1  0
  9  8  1  0
 10  9  2  0
 11 10  1  0
 11 12  2  0
 12  7  1  0
 13 20  1  0
 13 14  2  0
 16 15  1  0
 16 17  2  0
 18 16  1  0
 19 18  1  6
 20 19  1  0
 21 19  1  0
 21 22  2  0
 23 21  1  0
 24 23  1  0
 24 25  1  1
 25 26  1  0
 27 24  1  0
 28 27  1  0
 29 27  2  0
M  END
$$$$
