WNC.pdb
     RDKit          3D

 29 30  0  0  1  0  0  0  0  0999 V2000
    6.1472  -17.9920   23.4794 N   0  0  0  0  0  0  0  0  0  0  0  0
    6.8202  -16.7215   23.4937 C   0  0  1  0  0  0  0  0  0  0  0  0
    7.3768  -16.3586   24.8224 C   0  0  0  0  0  0  0  0  0  0  0  0
    6.6627  -15.2857   25.5322 C   0  0  0  0  0  0  0  0  0  0  0  0
    5.4294  -15.3503   26.1711 C   0  0  0  0  0  0  0  0  0  0  0  0
    5.1562  -14.1559   26.7170 N   0  0  0  0  0  0  0  0  0  0  0  0
    6.1597  -13.2935   26.4669 C   0  0  0  0  0  0  0  0  0  0  0  0
    6.3257  -11.9740   26.8094 C   0  0  0  0  0  0  0  0  0  0  0  0
    7.4808  -11.3573   26.3848 C   0  0  0  0  0  0  0  0  0  0  0  0
    8.4393  -12.0096   25.6510 C   0  0  0  0  0  0  0  0  0  0  0  0
    8.2544  -13.3255   25.3201 C   0  0  0  0  0  0  0  0  0  0  0  0
    7.1102  -13.9889   25.7246 C   0  0  0  0  0  0  0  0  0  0  0  0
    7.7995  -16.6833   22.3947 C   0  0  0  0  0  0  0  0  0  0  0  0
    8.2804  -17.7855   21.9990 O   0  0  0  0  0  0  0  0  0  0  0  0
    7.2189  -12.8145   19.4726 N   0  0  0  0  0  0  0  0  0  0  0  0
    8.0109  -14.0145   19.2955 C   0  0  0  0  0  0  0  0  0  0  0  0
    7.5699  -14.8330   18.4745 O   0  0  0  0  0  0  0  0  0  0  0  0
    9.2398  -14.2244   20.0423 C   0  0  0  0  0  0  0  0  0  0  0  0
    9.3167  -15.5190   20.7729 C   0  0  2  0  0  0  0  0  0  0  0  0
    8.2110  -15.5058   21.7839 N   0  0  0  0  0  0  0  0  0  0  0  0
   10.5725  -15.6730   21.5628 C   0  0  0  0  0  0  0  0  0  0  0  0
   11.7036  -15.6166   20.9225 O   0  0  0  0  0  0  0  0  0  0  0  0
   10.7136  -15.8691   22.9385 N   0  0  0  0  0  0  0  0  0  0  0  0
   12.0471  -16.0557   23.5583 C   0  0  1  0  0  0  0  0  0  0  0  0
   12.0382  -15.5033   24.9680 C   0  0  0  0  0  0  0  0  0  0  0  0
   10.6552  -16.0924   25.9469 S   0  0  0  0  0  0  0  0  0  0  0  0
   12.2451  -17.5222   23.6678 C   0  0  0  0  0  0  0  0  0  0  0  0
   13.4612  -18.1179   23.9855 O   0  0  0  0  0  0  0  0  0  0  0  0
   11.2512  -18.2637   23.4596 O   0  0  0  0  0  0  0  0  0  0  0  0
  2  1  1  1
  2 13  1  0
  3  4  1  0
  3  2  1  0
  4 12  1  0
  4  5  2  0
  5  6  1  0
  7  8  2  0
  7  6  1  0
  9  8  1  0
 10  9  2  0
 11 10  1  0
 11 12  2  0
 12  7  1  0
 13 20  1  0
 13 14  2  0
 16 15  1  0
 16 17  2  0
 18 16  1  0
 19 18  1  1
 20 19  1  0
 21 19  1  0
 21 22  2  0
 23 21  1  0
 24 23  1  0
 24 25  1  1
 25 26  1  0
 27 24  1  0
 28 27  1  0
 29 27  2  0
M  END
$$$$
