WNC.pdb
     RDKit          3D

 29 30  0  0  1  0  0  0  0  0999 V2000
    6.8468  -17.3007   23.3813 N   0  0  0  0  0  0  0  0  0  0  0  0
    7.9442  -16.3726   23.3405 C   0  0  1  0  0  0  0  0  0  0  0  0
    8.3121  -15.8281   24.6729 C   0  0  0  0  0  0  0  0  0  0  0  0
    7.2815  -15.0024   25.3217 C   0  0  0  0  0  0  0  0  0  0  0  0
    6.1443  -15.4241   26.0016 C   0  0  0  0  0  0  0  0  0  0  0  0
    5.4874  -14.3500   26.4643 N   0  0  0  0  0  0  0  0  0  0  0  0
    6.1414  -13.2246   26.1189 C   0  0  0  0  0  0  0  0  0  0  0  0
    5.8551  -11.9026   26.3557 C   0  0  0  0  0  0  0  0  0  0  0  0
    6.7338  -10.9713   25.8501 C   0  0  0  0  0  0  0  0  0  0  0  0
    7.8529  -11.3223   25.1381 C   0  0  0  0  0  0  0  0  0  0  0  0
    8.1202  -12.6464   24.9132 C   0  0  0  0  0  0  0  0  0  0  0  0
    7.2674  -13.6195   25.4018 C   0  0  0  0  0  0  0  0  0  0  0  0
    9.0639  -16.9833   22.6045 C   0  0  0  0  0  0  0  0  0  0  0  0
    9.2216  -18.2351   22.7096 O   0  0  0  0  0  0  0  0  0  0  0  0
   13.5914  -17.6809   20.0094 N   0  0  0  0  0  0  0  0  0  0  0  0
   12.9917  -16.4097   19.6587 C   0  0  0  0  0  0  0  0  0  0  0  0
   13.5860  -15.7576   18.7867 O   0  0  0  0  0  0  0  0  0  0  0  0
   11.7719  -15.9484   20.3000 C   0  0  0  0  0  0  0  0  0  0  0  0
   11.2266  -16.8615   21.3415 C   0  0  2  0  0  0  0  0  0  0  0  0
    9.9404  -16.2537   21.8119 N   0  0  0  0  0  0  0  0  0  0  0  0
   12.0895  -16.9488   22.5549 C   0  0  0  0  0  0  0  0  0  0  0  0
   12.3165  -15.8535   23.2191 O   0  0  0  0  0  0  0  0  0  0  0  0
   12.7042  -18.0770   23.1030 N   0  0  0  0  0  0  0  0  0  0  0  0
   13.5130  -17.9894   24.3421 C   0  0  1  0  0  0  0  0  0  0  0  0
   12.6091  -17.7146   25.5251 C   0  0  0  0  0  0  0  0  0  0  0  0
   11.3837  -18.9980   25.7887 S   0  0  0  0  0  0  0  0  0  0  0  0
   14.0964  -19.3386   24.5454 C   0  0  0  0  0  0  0  0  0  0  0  0
   15.0192  -19.6413   25.5412 O   0  0  0  0  0  0  0  0  0  0  0  0
   13.7307  -20.2570   23.7683 O   0  0  0  0  0  0  0  0  0  0  0  0
  2  1  1  1
  2 13  1  0
  3  4  1  0
  3  2  1  0
  4 12  1  0
  4  5  2  0
  5  6  1  0
  7  8  2  0
  7  6  1  0
  9  8  1  0
 10  9  2  0
 11 10  1  0
 11 12  2  0
 12  7  1  0
 13 20  1  0
 13 14  2  0
 16 15  1  0
 16 17  2  0
 18 16  1  0
 19 18  1  6
 20 19  1  0
 21 19  1  0
 21 22  2  0
 23 21  1  0
 24 23  1  0
 24 25  1  1
 25 26  1  0
 27 24  1  0
 28 27  1  0
 29 27  2  0
M  END
$$$$
