WNC.pdb
     RDKit          3D

 29 30  0  0  1  0  0  0  0  0999 V2000
    6.9395  -17.3869   23.6605 N   0  0  0  0  0  0  0  0  0  0  0  0
    8.0875  -16.5225   23.7124 C   0  0  1  0  0  0  0  0  0  0  0  0
    8.3320  -15.9390   25.0565 C   0  0  0  0  0  0  0  0  0  0  0  0
    7.2564  -15.0789   25.5743 C   0  0  0  0  0  0  0  0  0  0  0  0
    5.9934  -15.4549   26.0181 C   0  0  0  0  0  0  0  0  0  0  0  0
    5.3330  -14.3640   26.4343 N   0  0  0  0  0  0  0  0  0  0  0  0
    6.1060  -13.2714   26.2851 C   0  0  0  0  0  0  0  0  0  0  0  0
    5.8649  -11.9478   26.5602 C   0  0  0  0  0  0  0  0  0  0  0  0
    6.8747  -11.0556   26.2787 C   0  0  0  0  0  0  0  0  0  0  0  0
    8.0778  -11.4459   25.7469 C   0  0  0  0  0  0  0  0  0  0  0  0
    8.2980  -12.7709   25.4801 C   0  0  0  0  0  0  0  0  0  0  0  0
    7.3140  -13.7056   25.7464 C   0  0  0  0  0  0  0  0  0  0  0  0
    9.2458  -17.2260   23.1364 C   0  0  0  0  0  0  0  0  0  0  0  0
    9.2848  -18.4859   23.2539 O   0  0  0  0  0  0  0  0  0  0  0  0
   14.0425  -17.5665   20.0423 N   0  0  0  0  0  0  0  0  0  0  0  0
   13.7998  -16.7812   21.2352 C   0  0  0  0  0  0  0  0  0  0  0  0
   14.7918  -16.5672   21.9486 O   0  0  0  0  0  0  0  0  0  0  0  0
   12.4715  -16.2863   21.5554 C   0  0  0  0  0  0  0  0  0  0  0  0
   11.6204  -17.2297   22.3309 C   0  0  2  0  0  0  0  0  0  0  0  0
   10.2815  -16.5739   22.4798 N   0  0  0  0  0  0  0  0  0  0  0  0
   12.1087  -17.4516   23.7227 C   0  0  0  0  0  0  0  0  0  0  0  0
   12.3446  -16.4045   24.4579 O   0  0  0  0  0  0  0  0  0  0  0  0
   12.3510  -18.6630   24.3743 N   0  0  0  0  0  0  0  0  0  0  0  0
   12.9551  -18.7038   25.7273 C   0  0  1  0  0  0  0  0  0  0  0  0
   11.9778  -19.3195   26.7061 C   0  0  0  0  0  0  0  0  0  0  0  0
   10.4659  -18.3703   26.8834 S   0  0  0  0  0  0  0  0  0  0  0  0
   14.1125  -19.6274   25.6302 C   0  0  0  0  0  0  0  0  0  0  0  0
   14.9683  -19.9106   26.6895 O   0  0  0  0  0  0  0  0  0  0  0  0
   14.3262  -20.1827   24.5225 O   0  0  0  0  0  0  0  0  0  0  0  0
  2  1  1  1
  2 13  1  0
  3  4  1  0
  3  2  1  0
  4 12  1  0
  4  5  2  0
  5  6  1  0
  7  8  2  0
  7  6  1  0
  9  8  1  0
 10  9  2  0
 11 10  1  0
 11 12  2  0
 12  7  1  0
 13 20  1  0
 13 14  2  0
 16 15  1  0
 16 17  2  0
 18 16  1  0
 19 18  1  6
 20 19  1  0
 21 19  1  0
 21 22  2  0
 23 21  1  0
 24 23  1  0
 24 25  1  1
 25 26  1  0
 27 24  1  0
 28 27  1  0
 29 27  2  0
M  END
$$$$
