WNC.pdb
     RDKit          3D

 29 30  0  0  1  0  0  0  0  0999 V2000
    7.8854  -16.6396   20.9245 N   0  0  0  0  0  0  0  0  0  0  0  0
    7.9807  -16.0585   22.2363 C   0  0  1  0  0  0  0  0  0  0  0  0
    6.6968  -16.0642   22.9836 C   0  0  0  0  0  0  0  0  0  0  0  0
    6.7444  -15.4527   24.3211 C   0  0  0  0  0  0  0  0  0  0  0  0
    6.6421  -16.0806   25.5574 C   0  0  0  0  0  0  0  0  0  0  0  0
    6.7646  -15.1614   26.5267 N   0  0  0  0  0  0  0  0  0  0  0  0
    6.9442  -13.9413   25.9858 C   0  0  0  0  0  0  0  0  0  0  0  0
    7.1071  -12.7083   26.5679 C   0  0  0  0  0  0  0  0  0  0  0  0
    7.2594  -11.6321   25.7232 C   0  0  0  0  0  0  0  0  0  0  0  0
    7.2527  -11.7590   24.3570 C   0  0  0  0  0  0  0  0  0  0  0  0
    7.0891  -12.9977   23.7966 C   0  0  0  0  0  0  0  0  0  0  0  0
    6.9330  -14.1098   24.6039 C   0  0  0  0  0  0  0  0  0  0  0  0
    9.1049  -16.6792   22.9569 C   0  0  0  0  0  0  0  0  0  0  0  0
    9.0535  -17.9277   23.1604 O   0  0  0  0  0  0  0  0  0  0  0  0
   11.7200  -17.8172   21.4980 N   0  0  0  0  0  0  0  0  0  0  0  0
   12.7153  -16.8929   22.0017 C   0  0  0  0  0  0  0  0  0  0  0  0
   13.6776  -16.6771   21.2494 O   0  0  0  0  0  0  0  0  0  0  0  0
   12.5744  -16.2702   23.3072 C   0  0  0  0  0  0  0  0  0  0  0  0
   11.3551  -16.6667   24.0633 C   0  0  2  0  0  0  0  0  0  0  0  0
   10.2023  -15.9621   23.4155 N   0  0  0  0  0  0  0  0  0  0  0  0
   11.3626  -16.1941   25.4780 C   0  0  0  0  0  0  0  0  0  0  0  0
   12.1785  -15.2308   25.7923 O   0  0  0  0  0  0  0  0  0  0  0  0
   10.5887  -16.6480   26.5484 N   0  0  0  0  0  0  0  0  0  0  0  0
   10.9633  -16.3513   27.9516 C   0  0  1  0  0  0  0  0  0  0  0  0
    9.9275  -15.4409   28.5765 C   0  0  0  0  0  0  0  0  0  0  0  0
    9.6601  -13.9325   27.6429 S   0  0  0  0  0  0  0  0  0  0  0  0
   10.8968  -17.6454   28.6746 C   0  0  0  0  0  0  0  0  0  0  0  0
   10.5133  -18.8443   28.0828 O   0  0  0  0  0  0  0  0  0  0  0  0
   11.2067  -17.6511   29.8932 O   0  0  0  0  0  0  0  0  0  0  0  0
  2  1  1  6
  2 13  1  0
  3  4  1  0
  3  2  1  0
  4 12  1  0
  4  5  2  0
  5  6  1  0
  7  8  2  0
  7  6  1  0
  9  8  1  0
 10  9  2  0
 11 10  1  0
 11 12  2  0
 12  7  1  0
 13 20  1  0
 13 14  2  0
 16 15  1  0
 16 17  2  0
 18 16  1  0
 19 18  1  6
 20 19  1  0
 21 19  1  0
 21 22  2  0
 23 21  1  0
 24 23  1  0
 24 25  1  1
 25 26  1  0
 27 24  1  0
 28 27  1  0
 29 27  2  0
M  END
$$$$
