WNC.pdb
     RDKit          3D

 29 30  0  0  1  0  0  0  0  0999 V2000
    6.6159  -16.8212   22.9466 N   0  0  0  0  0  0  0  0  0  0  0  0
    7.8816  -16.1513   23.0757 C   0  0  1  0  0  0  0  0  0  0  0  0
    8.2679  -15.8766   24.4836 C   0  0  0  0  0  0  0  0  0  0  0  0
    7.2876  -15.1082   25.2667 C   0  0  0  0  0  0  0  0  0  0  0  0
    6.1433  -15.5730   25.9053 C   0  0  0  0  0  0  0  0  0  0  0  0
    5.5446  -14.5486   26.5311 N   0  0  0  0  0  0  0  0  0  0  0  0
    6.2445  -13.4150   26.3347 C   0  0  0  0  0  0  0  0  0  0  0  0
    6.0240  -12.1293   26.7639 C   0  0  0  0  0  0  0  0  0  0  0  0
    6.9366  -11.1744   26.3762 C   0  0  0  0  0  0  0  0  0  0  0  0
    8.0265  -11.4683   25.5961 C   0  0  0  0  0  0  0  0  0  0  0  0
    8.2281  -12.7569   25.1789 C   0  0  0  0  0  0  0  0  0  0  0  0
    7.3391  -13.7518   25.5432 C   0  0  0  0  0  0  0  0  0  0  0  0
    8.8958  -16.8854   22.3004 C   0  0  0  0  0  0  0  0  0  0  0  0
    8.4864  -17.7121   21.4334 O   0  0  0  0  0  0  0  0  0  0  0  0
   11.1839  -18.5823   18.9810 N   0  0  0  0  0  0  0  0  0  0  0  0
   10.7705  -17.1939   18.9665 C   0  0  0  0  0  0  0  0  0  0  0  0
   10.3869  -16.7590   17.8700 O   0  0  0  0  0  0  0  0  0  0  0  0
   10.8108  -16.3821   20.1711 C   0  0  0  0  0  0  0  0  0  0  0  0
   11.2266  -17.1072   21.4029 C   0  0  2  0  0  0  0  0  0  0  0  0
   10.2621  -16.7106   22.4787 N   0  0  0  0  0  0  0  0  0  0  0  0
   12.5690  -16.6918   21.9030 C   0  0  0  0  0  0  0  0  0  0  0  0
   12.8757  -15.4290   21.8428 O   0  0  0  0  0  0  0  0  0  0  0  0
   13.5756  -17.4899   22.4514 N   0  0  0  0  0  0  0  0  0  0  0  0
   13.7870  -17.5666   23.9166 C   0  0  1  0  0  0  0  0  0  0  0  0
   12.5448  -18.1165   24.5850 C   0  0  0  0  0  0  0  0  0  0  0  0
   12.0592  -17.1888   26.0417 S   0  0  0  0  0  0  0  0  0  0  0  0
   14.8677  -18.5625   24.1219 C   0  0  0  0  0  0  0  0  0  0  0  0
   15.7475  -18.5396   25.1990 O   0  0  0  0  0  0  0  0  0  0  0  0
   14.9894  -19.4778   23.2683 O   0  0  0  0  0  0  0  0  0  0  0  0
  2  1  1  1
  2 13  1  0
  3  4  1  0
  3  2  1  0
  4 12  1  0
  4  5  2  0
  5  6  1  0
  7  8  2  0
  7  6  1  0
  9  8  1  0
 10  9  2  0
 11 10  1  0
 11 12  2  0
 12  7  1  0
 13 20  1  0
 13 14  2  0
 16 15  1  0
 16 17  2  0
 18 16  1  0
 19 18  1  6
 20 19  1  0
 21 19  1  0
 21 22  2  0
 23 21  1  0
 24 23  1  0
 24 25  1  1
 25 26  1  0
 27 24  1  0
 28 27  1  0
 29 27  2  0
M  END
$$$$
