WNC.pdb
     RDKit          3D

 29 30  0  0  1  0  0  0  0  0999 V2000
    6.6975  -17.9774   24.0435 N   0  0  0  0  0  0  0  0  0  0  0  0
    7.4916  -16.8883   23.5429 C   0  0  1  0  0  0  0  0  0  0  0  0
    8.1225  -16.0721   24.6119 C   0  0  0  0  0  0  0  0  0  0  0  0
    7.2191  -15.1455   25.3121 C   0  0  0  0  0  0  0  0  0  0  0  0
    6.1265  -15.4527   26.1153 C   0  0  0  0  0  0  0  0  0  0  0  0
    5.5934  -14.3141   26.5832 N   0  0  0  0  0  0  0  0  0  0  0  0
    6.2875  -13.2559   26.1228 C   0  0  0  0  0  0  0  0  0  0  0  0
    6.1178  -11.9075   26.3193 C   0  0  0  0  0  0  0  0  0  0  0  0
    7.0061  -11.0661   25.6883 C   0  0  0  0  0  0  0  0  0  0  0  0
    8.0241  -11.5289   24.8933 C   0  0  0  0  0  0  0  0  0  0  0  0
    8.1759  -12.8775   24.7106 C   0  0  0  0  0  0  0  0  0  0  0  0
    7.3088  -13.7632   25.3244 C   0  0  0  0  0  0  0  0  0  0  0  0
    8.4349  -17.4035   22.5364 C   0  0  0  0  0  0  0  0  0  0  0  0
    8.7414  -18.6305   22.5936 O   0  0  0  0  0  0  0  0  0  0  0  0
   10.7445  -17.3950   17.2844 N   0  0  0  0  0  0  0  0  0  0  0  0
   11.1083  -16.6293   18.4592 C   0  0  0  0  0  0  0  0  0  0  0  0
   12.3055  -16.3168   18.5473 O   0  0  0  0  0  0  0  0  0  0  0  0
   10.1177  -16.2620   19.4570 C   0  0  0  0  0  0  0  0  0  0  0  0
   10.0640  -17.1554   20.6464 C   0  0  2  0  0  0  0  0  0  0  0  0
    8.9936  -16.6107   21.5423 N   0  0  0  0  0  0  0  0  0  0  0  0
   11.3137  -17.1246   21.4600 C   0  0  0  0  0  0  0  0  0  0  0  0
   12.4076  -17.5647   20.9102 O   0  0  0  0  0  0  0  0  0  0  0  0
   11.4855  -16.6695   22.7693 N   0  0  0  0  0  0  0  0  0  0  0  0
   12.7955  -16.7709   23.4556 C   0  0  1  0  0  0  0  0  0  0  0  0
   12.6269  -16.4637   24.9285 C   0  0  0  0  0  0  0  0  0  0  0  0
   14.1027  -16.7995   25.8917 S   0  0  0  0  0  0  0  0  0  0  0  0
   13.2016  -18.1944   23.3525 C   0  0  0  0  0  0  0  0  0  0  0  0
   12.3275  -19.2632   23.5204 O   0  0  0  0  0  0  0  0  0  0  0  0
   14.4081  -18.4414   23.0985 O   0  0  0  0  0  0  0  0  0  0  0  0
  2  1  1  1
  2 13  1  0
  3  4  1  0
  3  2  1  0
  4 12  1  0
  4  5  2  0
  5  6  1  0
  7  8  2  0
  7  6  1  0
  9  8  1  0
 10  9  2  0
 11 10  1  0
 11 12  2  0
 12  7  1  0
 13 20  1  0
 13 14  2  0
 16 15  1  0
 16 17  2  0
 18 16  1  0
 19 18  1  6
 20 19  1  0
 21 19  1  0
 21 22  2  0
 23 21  1  0
 24 23  1  0
 24 25  1  1
 25 26  1  0
 27 24  1  0
 28 27  1  0
 29 27  2  0
M  END
$$$$
