QWE.pdb
     RDKit          3D

 33 34  0  0  1  0  0  0  0  0999 V2000
    8.8718  -20.0962   17.9508 N   0  0  0  0  0  0  0  0  0  0  0  0
    9.6809  -19.0975   17.2859 C   0  0  0  0  0  0  0  0  0  0  0  0
    9.7113  -19.1370   16.0323 O   0  0  0  0  0  0  0  0  0  0  0  0
   10.4226  -18.0925   18.0497 C   0  0  0  0  0  0  0  0  0  0  0  0
   10.3514  -18.3016   19.5128 C   0  0  0  0  0  0  0  0  0  0  0  0
    9.0446  -17.8326   20.0916 C   0  0  2  0  0  0  0  0  0  0  0  0
    8.3117  -17.0651   19.1024 N   0  0  0  0  0  0  0  0  0  0  0  0
    9.3849  -16.9588   21.2758 C   0  0  0  0  0  0  0  0  0  0  0  0
   10.3938  -16.2127   21.2422 O   0  0  0  0  0  0  0  0  0  0  0  0
    8.5941  -16.9421   22.4570 N   0  0  0  0  0  0  0  0  0  0  0  0
    8.9866  -16.1735   23.6339 C   0  0  1  0  0  0  0  0  0  0  0  0
    7.8221  -16.0526   24.6005 C   0  0  0  0  0  0  0  0  0  0  0  0
    8.0028  -14.8375   25.4203 C   0  0  0  0  0  0  0  0  0  0  0  0
    7.5029  -13.5733   25.1051 C   0  0  0  0  0  0  0  0  0  0  0  0
    7.8518  -12.7105   26.0635 N   0  0  0  0  0  0  0  0  0  0  0  0
    8.5730  -13.3491   27.0197 C   0  0  0  0  0  0  0  0  0  0  0  0
    9.1655  -12.9474   28.1976 C   0  0  0  0  0  0  0  0  0  0  0  0
    9.8451  -13.8639   28.9658 C   0  0  0  0  0  0  0  0  0  0  0  0
    9.9493  -15.1860   28.5835 C   0  0  0  0  0  0  0  0  0  0  0  0
    9.3566  -15.5827   27.4074 C   0  0  0  0  0  0  0  0  0  0  0  0
    8.6655  -14.6729   26.6168 C   0  0  0  0  0  0  0  0  0  0  0  0
   10.1587  -16.8070   24.2432 C   0  0  0  0  0  0  0  0  0  0  0  0
   10.1465  -18.0628   24.3605 O   0  0  0  0  0  0  0  0  0  0  0  0
   11.3039  -16.1209   24.7109 N   0  0  0  0  0  0  0  0  0  0  0  0
   12.4876  -16.8444   25.0395 C   0  0  1  0  0  0  0  0  0  0  0  0
   13.7355  -16.2476   24.4257 C   0  0  0  0  0  0  0  0  0  0  0  0
   14.9971  -16.9292   24.8462 C   0  0  0  0  0  0  0  0  0  0  0  0
   16.1145  -16.3496   24.0823 C   0  0  0  0  0  0  0  0  0  0  0  0
   17.2787  -16.7225   24.3107 O   0  0  0  0  0  0  0  0  0  0  0  0
   12.6640  -17.0226   26.5103 C   0  0  0  0  0  0  0  0  0  0  0  0
   11.7671  -16.3663   27.3466 O   0  0  0  0  0  0  0  0  0  0  0  0
   15.8748  -15.3990   23.1187 O   0  0  0  0  0  0  0  0  0  0  0  0
   13.5645  -17.7220   27.0192 O   0  0  0  0  0  0  0  0  0  0  0  0
  1  2  1  0
  2  3  2  0
  4  5  1  0
  4  2  1  0
  5  6  1  0
  6  7  1  6
  8  9  2  0
  8  6  1  0
 10  8  1  0
 11 10  1  0
 11 12  1  1
 12 13  1  0
 13 14  2  0
 13 21  1  0
 14 15  1  0
 15 16  1  0
 16 17  2  0
 18 17  1  0
 19 18  2  0
 20 21  2  0
 20 19  1  0
 21 16  1  0
 22 11  1  0
 23 22  2  0
 24 22  1  0
 25 24  1  0
 25 26  1  1
 26 27  1  0
 28 32  1  0
 28 27  1  0
 29 28  2  0
 30 31  1  0
 30 25  1  0
 33 30  2  0
M  END
$$$$
