QWE.pdb
     RDKit          3D

 33 34  0  0  1  0  0  0  0  0999 V2000
    7.2656  -19.9806   20.3635 N   0  0  0  0  0  0  0  0  0  0  0  0
    6.7799  -19.2912   19.1875 C   0  0  0  0  0  0  0  0  0  0  0  0
    5.9838  -19.9214   18.4506 O   0  0  0  0  0  0  0  0  0  0  0  0
    7.2025  -17.9229   18.8833 C   0  0  0  0  0  0  0  0  0  0  0  0
    8.0783  -17.3377   19.9226 C   0  0  0  0  0  0  0  0  0  0  0  0
    7.3202  -16.4506   20.8719 C   0  0  2  0  0  0  0  0  0  0  0  0
    6.8631  -15.2605   20.1797 N   0  0  0  0  0  0  0  0  0  0  0  0
    8.2834  -16.0712   21.9718 C   0  0  0  0  0  0  0  0  0  0  0  0
    9.2473  -15.3038   21.7318 O   0  0  0  0  0  0  0  0  0  0  0  0
    8.1444  -16.5560   23.3010 N   0  0  0  0  0  0  0  0  0  0  0  0
    9.0590  -16.1543   24.3651 C   0  0  1  0  0  0  0  0  0  0  0  0
    8.3650  -16.2213   25.7137 C   0  0  0  0  0  0  0  0  0  0  0  0
    7.3689  -15.1340   25.7956 C   0  0  0  0  0  0  0  0  0  0  0  0
    5.9906  -15.2933   25.6470 C   0  0  0  0  0  0  0  0  0  0  0  0
    5.3932  -14.1059   25.7812 N   0  0  0  0  0  0  0  0  0  0  0  0
    6.3227  -13.1452   26.0162 C   0  0  0  0  0  0  0  0  0  0  0  0
    6.2586  -11.7843   26.2258 C   0  0  0  0  0  0  0  0  0  0  0  0
    7.4158  -11.0728   26.4420 C   0  0  0  0  0  0  0  0  0  0  0  0
    8.6490  -11.6924   26.4545 C   0  0  0  0  0  0  0  0  0  0  0  0
    8.7085  -13.0505   26.2449 C   0  0  0  0  0  0  0  0  0  0  0  0
    7.5517  -13.7878   26.0247 C   0  0  0  0  0  0  0  0  0  0  0  0
   10.2540  -17.0000   24.3059 C   0  0  0  0  0  0  0  0  0  0  0  0
   10.0844  -18.2340   24.1075 O   0  0  0  0  0  0  0  0  0  0  0  0
   11.5839  -16.5414   24.4539 N   0  0  0  0  0  0  0  0  0  0  0  0
   12.6674  -17.4677   24.4305 C   0  0  1  0  0  0  0  0  0  0  0  0
   13.7981  -17.0330   23.5235 C   0  0  0  0  0  0  0  0  0  0  0  0
   15.1121  -16.9004   24.2224 C   0  0  0  0  0  0  0  0  0  0  0  0
   16.1088  -16.4219   23.2499 C   0  0  0  0  0  0  0  0  0  0  0  0
   15.8186  -15.4962   22.4719 O   0  0  0  0  0  0  0  0  0  0  0  0
   13.1848  -17.7834   25.7940 C   0  0  0  0  0  0  0  0  0  0  0  0
   14.1050  -18.8204   25.9050 O   0  0  0  0  0  0  0  0  0  0  0  0
   17.3574  -16.9948   23.1996 O   0  0  0  0  0  0  0  0  0  0  0  0
   12.8366  -17.1708   26.8248 O   0  0  0  0  0  0  0  0  0  0  0  0
  1  2  1  0
  2  3  2  0
  4  5  1  0
  4  2  1  0
  5  6  1  0
  6  7  1  6
  8  9  2  0
  8  6  1  0
 10  8  1  0
 11 10  1  0
 11 12  1  1
 12 13  1  0
 13 14  2  0
 13 21  1  0
 14 15  1  0
 15 16  1  0
 16 17  2  0
 18 17  1  0
 19 18  2  0
 20 21  2  0
 20 19  1  0
 21 16  1  0
 22 11  1  0
 23 22  2  0
 24 22  1  0
 25 24  1  0
 25 26  1  6
 26 27  1  0
 28 32  1  0
 28 27  1  0
 29 28  2  0
 30 31  1  0
 30 25  1  0
 33 30  2  0
M  END
$$$$
