QWE.pdb
     RDKit          3D

 33 34  0  0  1  0  0  0  0  0999 V2000
    8.7700  -12.8842   18.0673 N   0  0  0  0  0  0  0  0  0  0  0  0
    7.6057  -13.7036   17.8086 C   0  0  0  0  0  0  0  0  0  0  0  0
    7.2007  -13.7527   16.6223 O   0  0  0  0  0  0  0  0  0  0  0  0
    6.9414  -14.4376   18.8873 C   0  0  0  0  0  0  0  0  0  0  0  0
    7.6562  -14.3492   20.1800 C   0  0  0  0  0  0  0  0  0  0  0  0
    8.2375  -15.6713   20.6002 C   0  0  2  0  0  0  0  0  0  0  0  0
    7.1730  -16.6293   20.8321 N   0  0  0  0  0  0  0  0  0  0  0  0
    8.9970  -15.4220   21.8818 C   0  0  0  0  0  0  0  0  0  0  0  0
    9.9212  -14.5732   21.9145 O   0  0  0  0  0  0  0  0  0  0  0  0
    8.7051  -16.1225   23.0839 N   0  0  0  0  0  0  0  0  0  0  0  0
    9.4730  -15.9053   24.3058 C   0  0  1  0  0  0  0  0  0  0  0  0
    8.6140  -16.1793   25.5273 C   0  0  0  0  0  0  0  0  0  0  0  0
    7.5057  -15.2038   25.5634 C   0  0  0  0  0  0  0  0  0  0  0  0
    6.1724  -15.4904   25.2678 C   0  0  0  0  0  0  0  0  0  0  0  0
    5.4432  -14.3791   25.4014 N   0  0  0  0  0  0  0  0  0  0  0  0
    6.2395  -13.3466   25.7785 C   0  0  0  0  0  0  0  0  0  0  0  0
    6.0127  -12.0144   26.0501 C   0  0  0  0  0  0  0  0  0  0  0  0
    7.0624  -11.2057   26.4187 C   0  0  0  0  0  0  0  0  0  0  0  0
    8.3472  -11.6988   26.5244 C   0  0  0  0  0  0  0  0  0  0  0  0
    8.5693  -13.0287   26.2526 C   0  0  0  0  0  0  0  0  0  0  0  0
    7.5229  -13.8627   25.8786 C   0  0  0  0  0  0  0  0  0  0  0  0
   10.6743  -16.7431   24.2648 C   0  0  0  0  0  0  0  0  0  0  0  0
   10.5410  -17.9323   23.8659 O   0  0  0  0  0  0  0  0  0  0  0  0
   11.9726  -16.3233   24.6376 N   0  0  0  0  0  0  0  0  0  0  0  0
   13.0734  -17.2235   24.5342 C   0  0  1  0  0  0  0  0  0  0  0  0
   14.3725  -16.5317   24.1826 C   0  0  0  0  0  0  0  0  0  0  0  0
   15.5522  -17.4484   24.1508 C   0  0  0  0  0  0  0  0  0  0  0  0
   16.7580  -16.6441   23.8914 C   0  0  0  0  0  0  0  0  0  0  0  0
   16.6466  -15.4433   23.5878 O   0  0  0  0  0  0  0  0  0  0  0  0
   13.2448  -18.0660   25.7537 C   0  0  0  0  0  0  0  0  0  0  0  0
   13.9767  -19.2413   25.6218 O   0  0  0  0  0  0  0  0  0  0  0  0
   18.0046  -17.2159   23.9839 O   0  0  0  0  0  0  0  0  0  0  0  0
   12.7698  -17.7714   26.8702 O   0  0  0  0  0  0  0  0  0  0  0  0
  1  2  1  0
  2  3  2  0
  4  5  1  0
  4  2  1  0
  5  6  1  0
  6  7  1  1
  8  9  2  0
  8  6  1  0
 10  8  1  0
 11 10  1  0
 11 12  1  1
 12 13  1  0
 13 14  2  0
 13 21  1  0
 14 15  1  0
 15 16  1  0
 16 17  2  0
 18 17  1  0
 19 18  2  0
 20 21  2  0
 20 19  1  0
 21 16  1  0
 22 11  1  0
 23 22  2  0
 24 22  1  0
 25 24  1  0
 25 26  1  1
 26 27  1  0
 28 32  1  0
 28 27  1  0
 29 28  2  0
 30 31  1  0
 30 25  1  0
 33 30  2  0
M  END
$$$$
