QWE.pdb
     RDKit          3D

 33 34  0  0  1  0  0  0  0  0999 V2000
    7.1079  -12.7245   18.7368 N   0  0  0  0  0  0  0  0  0  0  0  0
    7.9929  -13.3754   17.7950 C   0  0  0  0  0  0  0  0  0  0  0  0
    7.6399  -13.3712   16.5911 O   0  0  0  0  0  0  0  0  0  0  0  0
    9.2392  -14.0038   18.2369 C   0  0  0  0  0  0  0  0  0  0  0  0
    9.3560  -14.0971   19.7091 C   0  0  0  0  0  0  0  0  0  0  0  0
    9.6736  -15.4942   20.1672 C   0  0  2  0  0  0  0  0  0  0  0  0
    8.5703  -16.3818   19.8520 N   0  0  0  0  0  0  0  0  0  0  0  0
    9.8700  -15.4245   21.6633 C   0  0  0  0  0  0  0  0  0  0  0  0
   10.7018  -14.6236   22.1555 O   0  0  0  0  0  0  0  0  0  0  0  0
    9.1364  -16.2455   22.5626 N   0  0  0  0  0  0  0  0  0  0  0  0
    9.3228  -16.1599   24.0076 C   0  0  1  0  0  0  0  0  0  0  0  0
    7.9814  -16.1948   24.7179 C   0  0  0  0  0  0  0  0  0  0  0  0
    7.3139  -14.8884   24.5478 C   0  0  0  0  0  0  0  0  0  0  0  0
    6.5509  -14.5133   23.4413 C   0  0  0  0  0  0  0  0  0  0  0  0
    6.0983  -13.2692   23.6199 N   0  0  0  0  0  0  0  0  0  0  0  0
    6.5301  -12.7874   24.8131 C   0  0  0  0  0  0  0  0  0  0  0  0
    6.3618  -11.5922   25.4786 C   0  0  0  0  0  0  0  0  0  0  0  0
    6.9462  -11.4097   26.7103 C   0  0  0  0  0  0  0  0  0  0  0  0
    7.7029  -12.4013   27.3010 C   0  0  0  0  0  0  0  0  0  0  0  0
    7.8685  -13.5926   26.6336 C   0  0  0  0  0  0  0  0  0  0  0  0
    7.2866  -13.7973   25.3886 C   0  0  0  0  0  0  0  0  0  0  0  0
   10.2126  -17.2426   24.4347 C   0  0  0  0  0  0  0  0  0  0  0  0
    9.8480  -18.4255   24.1920 O   0  0  0  0  0  0  0  0  0  0  0  0
   11.4493  -17.0660   25.0983 N   0  0  0  0  0  0  0  0  0  0  0  0
   12.2407  -18.1982   25.4509 C   0  0  1  0  0  0  0  0  0  0  0  0
   13.6222  -18.1697   24.8340 C   0  0  0  0  0  0  0  0  0  0  0  0
   14.4901  -17.0701   25.3540 C   0  0  0  0  0  0  0  0  0  0  0  0
   15.6020  -16.8704   24.4095 C   0  0  0  0  0  0  0  0  0  0  0  0
   16.7253  -16.5496   24.8360 O   0  0  0  0  0  0  0  0  0  0  0  0
   12.3327  -18.3996   26.9265 C   0  0  0  0  0  0  0  0  0  0  0  0
   12.9996  -19.5338   27.3772 O   0  0  0  0  0  0  0  0  0  0  0  0
   15.4022  -17.0373   23.0598 O   0  0  0  0  0  0  0  0  0  0  0  0
   11.8470  -17.6108   27.7638 O   0  0  0  0  0  0  0  0  0  0  0  0
  1  2  1  0
  2  3  2  0
  4  5  1  0
  4  2  1  0
  5  6  1  0
  6  7  1  1
  8  9  2  0
  8  6  1  0
 10  8  1  0
 11 10  1  0
 11 12  1  1
 12 13  1  0
 13 14  2  0
 13 21  1  0
 14 15  1  0
 15 16  1  0
 16 17  2  0
 18 17  1  0
 19 18  2  0
 20 21  2  0
 20 19  1  0
 21 16  1  0
 22 11  1  0
 23 22  2  0
 24 22  1  0
 25 24  1  0
 25 26  1  1
 26 27  1  0
 28 32  1  0
 28 27  1  0
 29 28  2  0
 30 31  1  0
 30 25  1  0
 33 30  2  0
M  END
$$$$
