QWE.pdb
     RDKit          3D

 33 34  0  0  1  0  0  0  0  0999 V2000
    8.8204  -13.1313   17.2301 N   0  0  0  0  0  0  0  0  0  0  0  0
    8.3205  -14.3759   16.6867 C   0  0  0  0  0  0  0  0  0  0  0  0
    7.6543  -14.3031   15.6262 O   0  0  0  0  0  0  0  0  0  0  0  0
    8.5875  -15.6534   17.3503 C   0  0  0  0  0  0  0  0  0  0  0  0
    9.3999  -15.5142   18.5793 C   0  0  0  0  0  0  0  0  0  0  0  0
    9.0502  -16.5499   19.6126 C   0  0  2  0  0  0  0  0  0  0  0  0
    7.6298  -16.4997   19.9034 N   0  0  0  0  0  0  0  0  0  0  0  0
    9.8440  -16.2094   20.8518 C   0  0  0  0  0  0  0  0  0  0  0  0
   11.0970  -16.1515   20.8043 O   0  0  0  0  0  0  0  0  0  0  0  0
    9.2207  -15.9445   22.1017 N   0  0  0  0  0  0  0  0  0  0  0  0
    9.9819  -15.4797   23.2569 C   0  0  1  0  0  0  0  0  0  0  0  0
    9.5427  -14.0815   23.6533 C   0  0  0  0  0  0  0  0  0  0  0  0
    8.2929  -14.1742   24.4346 C   0  0  0  0  0  0  0  0  0  0  0  0
    7.4856  -15.3086   24.5286 C   0  0  0  0  0  0  0  0  0  0  0  0
    6.4398  -15.0408   25.3154 N   0  0  0  0  0  0  0  0  0  0  0  0
    6.5114  -13.7599   25.7587 C   0  0  0  0  0  0  0  0  0  0  0  0
    5.7160  -12.9855   26.5757 C   0  0  0  0  0  0  0  0  0  0  0  0
    6.0736  -11.6839   26.8400 C   0  0  0  0  0  0  0  0  0  0  0  0
    7.2180  -11.1297   26.3033 C   0  0  0  0  0  0  0  0  0  0  0  0
    8.0089  -11.9058   25.4885 C   0  0  0  0  0  0  0  0  0  0  0  0
    7.6658  -13.2228   25.2089 C   0  0  0  0  0  0  0  0  0  0  0  0
    9.8262  -16.4470   24.3462 C   0  0  0  0  0  0  0  0  0  0  0  0
    8.7013  -17.0029   24.4745 O   0  0  0  0  0  0  0  0  0  0  0  0
   10.8387  -16.8069   25.2662 N   0  0  0  0  0  0  0  0  0  0  0  0
   10.6515  -17.9194   26.1379 C   0  0  1  0  0  0  0  0  0  0  0  0
   11.7099  -18.9878   25.9695 C   0  0  0  0  0  0  0  0  0  0  0  0
   13.1060  -18.4827   26.1393 C   0  0  0  0  0  0  0  0  0  0  0  0
   13.9638  -19.1458   25.1430 C   0  0  0  0  0  0  0  0  0  0  0  0
   14.3454  -20.3137   25.3353 O   0  0  0  0  0  0  0  0  0  0  0  0
   10.5406  -17.5165   27.5702 C   0  0  0  0  0  0  0  0  0  0  0  0
   10.3156  -18.5235   28.5027 O   0  0  0  0  0  0  0  0  0  0  0  0
   14.3433  -18.4787   24.0026 O   0  0  0  0  0  0  0  0  0  0  0  0
   10.6386  -16.3364   27.9663 O   0  0  0  0  0  0  0  0  0  0  0  0
  1  2  1  0
  2  3  2  0
  4  5  1  0
  4  2  1  0
  5  6  1  0
  6  7  1  1
  8  9  2  0
  8  6  1  0
 10  8  1  0
 11 10  1  0
 11 12  1  1
 12 13  1  0
 13 14  2  0
 13 21  1  0
 14 15  1  0
 15 16  1  0
 16 17  2  0
 18 17  1  0
 19 18  2  0
 20 21  2  0
 20 19  1  0
 21 16  1  0
 22 11  1  0
 23 22  2  0
 24 22  1  0
 25 24  1  0
 25 26  1  1
 26 27  1  0
 28 32  1  0
 28 27  1  0
 29 28  2  0
 30 31  1  0
 30 25  1  0
 33 30  2  0
M  END
$$$$
