QWE.pdb
     RDKit          3D

 33 34  0  0  1  0  0  0  0  0999 V2000
    8.5721  -12.6173   15.6267 N   0  0  0  0  0  0  0  0  0  0  0  0
    7.9532  -13.8835   15.9549 C   0  0  0  0  0  0  0  0  0  0  0  0
    7.5319  -14.5729   14.9951 O   0  0  0  0  0  0  0  0  0  0  0  0
    7.8318  -14.3295   17.3441 C   0  0  0  0  0  0  0  0  0  0  0  0
    9.1289  -14.3886   18.0537 C   0  0  0  0  0  0  0  0  0  0  0  0
    9.2805  -15.6508   18.8577 C   0  0  2  0  0  0  0  0  0  0  0  0
    8.2248  -16.5855   18.5163 N   0  0  0  0  0  0  0  0  0  0  0  0
    9.1696  -15.2538   20.3109 C   0  0  0  0  0  0  0  0  0  0  0  0
    9.9524  -14.4003   20.7950 O   0  0  0  0  0  0  0  0  0  0  0  0
    8.1936  -15.8168   21.1777 N   0  0  0  0  0  0  0  0  0  0  0  0
    8.1598  -15.5046   22.6029 C   0  0  1  0  0  0  0  0  0  0  0  0
    6.7423  -15.6132   23.1358 C   0  0  0  0  0  0  0  0  0  0  0  0
    6.7336  -15.2231   24.5602 C   0  0  0  0  0  0  0  0  0  0  0  0
    6.5880  -16.1025   25.6339 C   0  0  0  0  0  0  0  0  0  0  0  0
    6.6266  -15.4120   26.7768 N   0  0  0  0  0  0  0  0  0  0  0  0
    6.7939  -14.0911   26.5131 C   0  0  0  0  0  0  0  0  0  0  0  0
    6.8981  -12.9649   27.3010 C   0  0  0  0  0  0  0  0  0  0  0  0
    7.0673  -11.7339   26.7113 C   0  0  0  0  0  0  0  0  0  0  0  0
    7.1358  -11.5971   25.3396 C   0  0  0  0  0  0  0  0  0  0  0  0
    7.0313  -12.7234   24.5570 C   0  0  0  0  0  0  0  0  0  0  0  0
    6.8601  -13.9763   25.1326 C   0  0  0  0  0  0  0  0  0  0  0  0
    9.0924  -16.3912   23.3035 C   0  0  0  0  0  0  0  0  0  0  0  0
    9.0387  -17.6222   23.0342 O   0  0  0  0  0  0  0  0  0  0  0  0
   10.0489  -15.9751   24.2590 N   0  0  0  0  0  0  0  0  0  0  0  0
   11.0545  -16.8812   24.7068 C   0  0  1  0  0  0  0  0  0  0  0  0
   12.4456  -16.4909   24.2566 C   0  0  0  0  0  0  0  0  0  0  0  0
   13.5183  -17.3994   24.7634 C   0  0  0  0  0  0  0  0  0  0  0  0
   14.7957  -16.9948   24.1531 C   0  0  0  0  0  0  0  0  0  0  0  0
   14.8129  -16.5519   22.9912 O   0  0  0  0  0  0  0  0  0  0  0  0
   11.0242  -17.0910   26.1837 C   0  0  0  0  0  0  0  0  0  0  0  0
   11.8048  -18.1198   26.7001 O   0  0  0  0  0  0  0  0  0  0  0  0
   15.9677  -17.1051   24.8629 O   0  0  0  0  0  0  0  0  0  0  0  0
   10.3419  -16.3980   26.9669 O   0  0  0  0  0  0  0  0  0  0  0  0
  1  2  1  0
  2  3  2  0
  4  5  1  0
  4  2  1  0
  5  6  1  0
  6  7  1  6
  8  9  2  0
  8  6  1  0
 10  8  1  0
 11 10  1  0
 11 12  1  1
 12 13  1  0
 13 14  2  0
 13 21  1  0
 14 15  1  0
 15 16  1  0
 16 17  2  0
 18 17  1  0
 19 18  2  0
 20 21  2  0
 20 19  1  0
 21 16  1  0
 22 11  1  0
 23 22  2  0
 24 22  1  0
 25 24  1  0
 25 26  1  1
 26 27  1  0
 28 32  1  0
 28 27  1  0
 29 28  2  0
 30 31  1  0
 30 25  1  0
 33 30  2  0
M  END
$$$$
