QWE.pdb
     RDKit          3D

 33 34  0  0  1  0  0  0  0  0999 V2000
    8.2390  -12.1318   17.7124 N   0  0  0  0  0  0  0  0  0  0  0  0
    8.4223  -13.5540   17.5175 C   0  0  0  0  0  0  0  0  0  0  0  0
    8.8629  -13.9200   16.4013 O   0  0  0  0  0  0  0  0  0  0  0  0
    8.1072  -14.5107   18.5800 C   0  0  0  0  0  0  0  0  0  0  0  0
    9.1481  -14.5814   19.6294 C   0  0  0  0  0  0  0  0  0  0  0  0
    9.2476  -15.9523   20.2405 C   0  0  2  0  0  0  0  0  0  0  0  0
    7.9421  -16.5849   20.2534 N   0  0  0  0  0  0  0  0  0  0  0  0
    9.7433  -15.7605   21.6544 C   0  0  0  0  0  0  0  0  0  0  0  0
   10.7481  -15.0431   21.8806 O   0  0  0  0  0  0  0  0  0  0  0  0
    9.1069  -16.3709   22.7695 N   0  0  0  0  0  0  0  0  0  0  0  0
    9.6212  -16.2173   24.1267 C   0  0  1  0  0  0  0  0  0  0  0  0
    8.5162  -16.4502   25.1415 C   0  0  0  0  0  0  0  0  0  0  0  0
    7.5157  -15.3708   25.0182 C   0  0  0  0  0  0  0  0  0  0  0  0
    6.3205  -15.4602   24.3036 C   0  0  0  0  0  0  0  0  0  0  0  0
    5.6593  -14.3038   24.4053 N   0  0  0  0  0  0  0  0  0  0  0  0
    6.3681  -13.4319   25.1665 C   0  0  0  0  0  0  0  0  0  0  0  0
    6.1566  -12.1346   25.5815 C   0  0  0  0  0  0  0  0  0  0  0  0
    7.0942  -11.5100   26.3706 C   0  0  0  0  0  0  0  0  0  0  0  0
    8.2505  -12.1550   26.7604 C   0  0  0  0  0  0  0  0  0  0  0  0
    8.4577  -13.4495   26.3441 C   0  0  0  0  0  0  0  0  0  0  0  0
    7.5233  -14.0985   25.5467 C   0  0  0  0  0  0  0  0  0  0  0  0
   10.7529  -17.1295   24.3097 C   0  0  0  0  0  0  0  0  0  0  0  0
   10.8063  -18.1472   23.5665 O   0  0  0  0  0  0  0  0  0  0  0  0
   11.7914  -16.9589   25.2549 N   0  0  0  0  0  0  0  0  0  0  0  0
   11.8835  -17.8272   26.3819 C   0  0  1  0  0  0  0  0  0  0  0  0
   10.7056  -17.7016   27.3236 C   0  0  0  0  0  0  0  0  0  0  0  0
   10.7887  -18.6017   28.5134 C   0  0  0  0  0  0  0  0  0  0  0  0
   11.3782  -17.8429   29.6291 C   0  0  0  0  0  0  0  0  0  0  0  0
   10.9365  -16.7151   29.9113 O   0  0  0  0  0  0  0  0  0  0  0  0
   12.0919  -19.2531   25.9949 C   0  0  0  0  0  0  0  0  0  0  0  0
   13.1980  -19.9059   26.5283 O   0  0  0  0  0  0  0  0  0  0  0  0
   12.4138  -18.3767   30.3586 O   0  0  0  0  0  0  0  0  0  0  0  0
   11.3324  -19.8792   25.2266 O   0  0  0  0  0  0  0  0  0  0  0  0
  1  2  1  0
  2  3  2  0
  4  5  1  0
  4  2  1  0
  5  6  1  0
  6  7  1  1
  8  9  2  0
  8  6  1  0
 10  8  1  0
 11 10  1  0
 11 12  1  1
 12 13  1  0
 13 14  2  0
 13 21  1  0
 14 15  1  0
 15 16  1  0
 16 17  2  0
 18 17  1  0
 19 18  2  0
 20 21  2  0
 20 19  1  0
 21 16  1  0
 22 11  1  0
 23 22  2  0
 24 22  1  0
 25 24  1  0
 25 26  1  6
 26 27  1  0
 28 32  1  0
 28 27  1  0
 29 28  2  0
 30 31  1  0
 30 25  1  0
 33 30  2  0
M  END
$$$$
