QWE.pdb
     RDKit          3D

 33 34  0  0  1  0  0  0  0  0999 V2000
   10.9851  -18.6494   16.1530 N   0  0  0  0  0  0  0  0  0  0  0  0
    9.6085  -18.9249   16.5039 C   0  0  0  0  0  0  0  0  0  0  0  0
    8.9719  -19.6894   15.7395 O   0  0  0  0  0  0  0  0  0  0  0  0
    8.9988  -18.3358   17.6976 C   0  0  0  0  0  0  0  0  0  0  0  0
    9.9213  -17.4585   18.4519 C   0  0  0  0  0  0  0  0  0  0  0  0
    9.9738  -17.8108   19.9133 C   0  0  2  0  0  0  0  0  0  0  0  0
    8.9191  -18.7539   20.2337 N   0  0  0  0  0  0  0  0  0  0  0  0
    9.7658  -16.5237   20.6760 C   0  0  0  0  0  0  0  0  0  0  0  0
   10.4912  -15.5261   20.4432 O   0  0  0  0  0  0  0  0  0  0  0  0
    8.7597  -16.3869   21.6710 N   0  0  0  0  0  0  0  0  0  0  0  0
    8.6404  -15.1797   22.4825 C   0  0  1  0  0  0  0  0  0  0  0  0
    7.1812  -14.8814   22.7773 C   0  0  0  0  0  0  0  0  0  0  0  0
    6.9956  -14.7915   24.2397 C   0  0  0  0  0  0  0  0  0  0  0  0
    6.7327  -15.8705   25.0847 C   0  0  0  0  0  0  0  0  0  0  0  0
    6.6241  -15.4295   26.3411 N   0  0  0  0  0  0  0  0  0  0  0  0
    6.8050  -14.0847   26.3758 C   0  0  0  0  0  0  0  0  0  0  0  0
    6.7988  -13.1453   27.3844 C   0  0  0  0  0  0  0  0  0  0  0  0
    7.0220  -11.8217   27.0844 C   0  0  0  0  0  0  0  0  0  0  0  0
    7.2539  -11.4075   25.7884 C   0  0  0  0  0  0  0  0  0  0  0  0
    7.2593  -12.3481   24.7848 C   0  0  0  0  0  0  0  0  0  0  0  0
    7.0360  -13.6902   25.0665 C   0  0  0  0  0  0  0  0  0  0  0  0
    9.4363  -15.3482   23.7009 C   0  0  0  0  0  0  0  0  0  0  0  0
    9.7828  -14.3046   24.3187 O   0  0  0  0  0  0  0  0  0  0  0  0
    9.8474  -16.5900   24.2394 N   0  0  0  0  0  0  0  0  0  0  0  0
   10.7876  -16.6299   25.3104 C   0  0  1  0  0  0  0  0  0  0  0  0
   10.3854  -17.5820   26.4157 C   0  0  0  0  0  0  0  0  0  0  0  0
    9.9952  -18.9393   25.9274 C   0  0  0  0  0  0  0  0  0  0  0  0
    9.1601  -19.5805   26.9567 C   0  0  0  0  0  0  0  0  0  0  0  0
    9.6211  -19.7723   28.0957 O   0  0  0  0  0  0  0  0  0  0  0  0
   12.1753  -16.9243   24.8479 C   0  0  0  0  0  0  0  0  0  0  0  0
   12.3311  -17.3874   23.5458 O   0  0  0  0  0  0  0  0  0  0  0  0
    7.8741  -19.9671   26.6628 O   0  0  0  0  0  0  0  0  0  0  0  0
   13.1884  -16.7772   25.5628 O   0  0  0  0  0  0  0  0  0  0  0  0
  1  2  1  0
  2  3  2  0
  4  5  1  0
  4  2  1  0
  5  6  1  0
  6  7  1  6
  8  9  2  0
  8  6  1  0
 10  8  1  0
 11 10  1  0
 11 12  1  1
 12 13  1  0
 13 14  2  0
 13 21  1  0
 14 15  1  0
 15 16  1  0
 16 17  2  0
 18 17  1  0
 19 18  2  0
 20 21  2  0
 20 19  1  0
 21 16  1  0
 22 11  1  0
 23 22  2  0
 24 22  1  0
 25 24  1  0
 25 26  1  1
 26 27  1  0
 28 32  1  0
 28 27  1  0
 29 28  2  0
 30 31  1  0
 30 25  1  0
 33 30  2  0
M  END
$$$$
