QWE.pdb
     RDKit          3D

 33 34  0  0  1  0  0  0  0  0999 V2000
    6.9153  -12.6826   18.4837 N   0  0  0  0  0  0  0  0  0  0  0  0
    7.6268  -13.7924   17.8869 C   0  0  0  0  0  0  0  0  0  0  0  0
    7.0811  -14.3524   16.9058 O   0  0  0  0  0  0  0  0  0  0  0  0
    8.9221  -14.2308   18.4101 C   0  0  0  0  0  0  0  0  0  0  0  0
    8.9746  -14.2611   19.8885 C   0  0  0  0  0  0  0  0  0  0  0  0
    9.1336  -15.6579   20.4236 C   0  0  2  0  0  0  0  0  0  0  0  0
    7.8633  -16.3565   20.3703 N   0  0  0  0  0  0  0  0  0  0  0  0
    9.5895  -15.5224   21.8573 C   0  0  0  0  0  0  0  0  0  0  0  0
   10.6199  -14.8610   22.1337 O   0  0  0  0  0  0  0  0  0  0  0  0
    8.8863  -16.1251   22.9359 N   0  0  0  0  0  0  0  0  0  0  0  0
    9.3467  -16.0057   24.3157 C   0  0  1  0  0  0  0  0  0  0  0  0
    8.2266  -16.3528   25.2800 C   0  0  0  0  0  0  0  0  0  0  0  0
    7.2635  -15.2339   25.3199 C   0  0  0  0  0  0  0  0  0  0  0  0
    5.9085  -15.3274   25.0000 C   0  0  0  0  0  0  0  0  0  0  0  0
    5.3379  -14.1283   25.1454 N   0  0  0  0  0  0  0  0  0  0  0  0
    6.2631  -13.2231   25.5541 C   0  0  0  0  0  0  0  0  0  0  0  0
    6.2184  -11.8774   25.8489 C   0  0  0  0  0  0  0  0  0  0  0  0
    7.3636  -11.2287   26.2483 C   0  0  0  0  0  0  0  0  0  0  0  0
    8.5658  -11.8970   26.3621 C   0  0  0  0  0  0  0  0  0  0  0  0
    8.6062  -13.2399   26.0670 C   0  0  0  0  0  0  0  0  0  0  0  0
    7.4608  -13.9139   25.6619 C   0  0  0  0  0  0  0  0  0  0  0  0
   10.5263  -16.8558   24.4959 C   0  0  0  0  0  0  0  0  0  0  0  0
   10.4079  -18.0813   24.2215 O   0  0  0  0  0  0  0  0  0  0  0  0
   11.7884  -16.4104   24.9536 N   0  0  0  0  0  0  0  0  0  0  0  0
   12.8758  -17.3264   25.0591 C   0  0  1  0  0  0  0  0  0  0  0  0
   14.2276  -16.6474   25.0174 C   0  0  0  0  0  0  0  0  0  0  0  0
   15.3790  -17.5931   25.1313 C   0  0  0  0  0  0  0  0  0  0  0  0
   16.4749  -17.0941   24.2840 C   0  0  0  0  0  0  0  0  0  0  0  0
   16.3227  -16.0480   23.6289 O   0  0  0  0  0  0  0  0  0  0  0  0
   12.7720  -18.2079   26.2585 C   0  0  0  0  0  0  0  0  0  0  0  0
   12.1735  -17.6744   27.3949 O   0  0  0  0  0  0  0  0  0  0  0  0
   17.6641  -17.7801   24.2151 O   0  0  0  0  0  0  0  0  0  0  0  0
   13.1902  -19.3840   26.2906 O   0  0  0  0  0  0  0  0  0  0  0  0
  1  2  1  0
  2  3  2  0
  4  5  1  0
  4  2  1  0
  5  6  1  0
  6  7  1  1
  8  9  2  0
  8  6  1  0
 10  8  1  0
 11 10  1  0
 11 12  1  1
 12 13  1  0
 13 14  2  0
 13 21  1  0
 14 15  1  0
 15 16  1  0
 16 17  2  0
 18 17  1  0
 19 18  2  0
 20 21  2  0
 20 19  1  0
 21 16  1  0
 22 11  1  0
 23 22  2  0
 24 22  1  0
 25 24  1  0
 25 26  1  1
 26 27  1  0
 28 32  1  0
 28 27  1  0
 29 28  2  0
 30 31  1  0
 30 25  1  0
 33 30  2  0
M  END
$$$$
