QWE.pdb
     RDKit          3D

 33 34  0  0  1  0  0  0  0  0999 V2000
    9.6912  -18.4923   18.9082 N   0  0  0  0  0  0  0  0  0  0  0  0
    8.6487  -18.1498   17.9649 C   0  0  0  0  0  0  0  0  0  0  0  0
    8.4332  -18.9676   17.0382 O   0  0  0  0  0  0  0  0  0  0  0  0
    7.8869  -16.9065   18.0966 C   0  0  0  0  0  0  0  0  0  0  0  0
    8.2409  -16.1303   19.3056 C   0  0  0  0  0  0  0  0  0  0  0  0
    7.6954  -16.7531   20.5615 C   0  0  2  0  0  0  0  0  0  0  0  0
    6.3018  -16.3872   20.7309 N   0  0  0  0  0  0  0  0  0  0  0  0
    8.5161  -16.2076   21.7063 C   0  0  0  0  0  0  0  0  0  0  0  0
    9.2917  -15.2379   21.5230 O   0  0  0  0  0  0  0  0  0  0  0  0
    8.4480  -16.7564   23.0160 N   0  0  0  0  0  0  0  0  0  0  0  0
    9.2037  -16.1879   24.1276 C   0  0  1  0  0  0  0  0  0  0  0  0
    8.4538  -16.3835   25.4331 C   0  0  0  0  0  0  0  0  0  0  0  0
    7.3343  -15.4219   25.4925 C   0  0  0  0  0  0  0  0  0  0  0  0
    5.9882  -15.7429   25.3126 C   0  0  0  0  0  0  0  0  0  0  0  0
    5.2516  -14.6350   25.4333 N   0  0  0  0  0  0  0  0  0  0  0  0
    6.0552  -13.5716   25.6895 C   0  0  0  0  0  0  0  0  0  0  0  0
    5.8258  -12.2285   25.8976 C   0  0  0  0  0  0  0  0  0  0  0  0
    6.8853  -11.3856   26.1401 C   0  0  0  0  0  0  0  0  0  0  0  0
    8.1826  -11.8549   26.1805 C   0  0  0  0  0  0  0  0  0  0  0  0
    8.4073  -13.1958   25.9722 C   0  0  0  0  0  0  0  0  0  0  0  0
    7.3511  -14.0642   25.7257 C   0  0  0  0  0  0  0  0  0  0  0  0
   10.5381  -16.7924   24.1506 C   0  0  0  0  0  0  0  0  0  0  0  0
   10.6115  -18.0323   24.3698 O   0  0  0  0  0  0  0  0  0  0  0  0
   11.7514  -16.0946   23.9463 N   0  0  0  0  0  0  0  0  0  0  0  0
   12.9907  -16.7994   23.9424 C   0  0  1  0  0  0  0  0  0  0  0  0
   14.1302  -15.9895   23.3629 C   0  0  0  0  0  0  0  0  0  0  0  0
   15.4298  -16.7256   23.3201 C   0  0  0  0  0  0  0  0  0  0  0  0
   16.4425  -15.8445   22.7149 C   0  0  0  0  0  0  0  0  0  0  0  0
   17.6497  -16.0492   22.9327 O   0  0  0  0  0  0  0  0  0  0  0  0
   13.3578  -17.3264   25.2892 C   0  0  0  0  0  0  0  0  0  0  0  0
   13.0508  -16.5355   26.3913 O   0  0  0  0  0  0  0  0  0  0  0  0
   16.0580  -14.7979   21.9110 O   0  0  0  0  0  0  0  0  0  0  0  0
   13.9191  -18.4267   25.4718 O   0  0  0  0  0  0  0  0  0  0  0  0
  1  2  1  0
  2  3  2  0
  4  5  1  0
  4  2  1  0
  5  6  1  0
  6  7  1  1
  8  9  2  0
  8  6  1  0
 10  8  1  0
 11 10  1  0
 11 12  1  1
 12 13  1  0
 13 14  2  0
 13 21  1  0
 14 15  1  0
 15 16  1  0
 16 17  2  0
 18 17  1  0
 19 18  2  0
 20 21  2  0
 20 19  1  0
 21 16  1  0
 22 11  1  0
 23 22  2  0
 24 22  1  0
 25 24  1  0
 25 26  1  1
 26 27  1  0
 28 32  1  0
 28 27  1  0
 29 28  2  0
 30 31  1  0
 30 25  1  0
 33 30  2  0
M  END
$$$$
