QWE.pdb
     RDKit          3D

 33 34  0  0  1  0  0  0  0  0999 V2000
    8.9539  -14.2876   16.7731 N   0  0  0  0  0  0  0  0  0  0  0  0
    7.7037  -14.0568   17.4643 C   0  0  0  0  0  0  0  0  0  0  0  0
    6.8902  -13.2747   16.9163 O   0  0  0  0  0  0  0  0  0  0  0  0
    7.4119  -14.7121   18.7407 C   0  0  0  0  0  0  0  0  0  0  0  0
    8.6085  -14.8889   19.5931 C   0  0  0  0  0  0  0  0  0  0  0  0
    8.5269  -16.1311   20.4374 C   0  0  2  0  0  0  0  0  0  0  0  0
    7.1423  -16.4231   20.7567 N   0  0  0  0  0  0  0  0  0  0  0  0
    9.3003  -15.8452   21.7030 C   0  0  0  0  0  0  0  0  0  0  0  0
   10.3603  -15.1744   21.6588 O   0  0  0  0  0  0  0  0  0  0  0  0
    8.8710  -16.3129   22.9750 N   0  0  0  0  0  0  0  0  0  0  0  0
    9.6159  -16.0163   24.1945 C   0  0  1  0  0  0  0  0  0  0  0  0
    8.7226  -16.1715   25.4122 C   0  0  0  0  0  0  0  0  0  0  0  0
    7.6240  -15.1879   25.3302 C   0  0  0  0  0  0  0  0  0  0  0  0
    6.3458  -15.4494   24.8350 C   0  0  0  0  0  0  0  0  0  0  0  0
    5.6089  -14.3377   24.9094 N   0  0  0  0  0  0  0  0  0  0  0  0
    6.3465  -13.3292   25.4396 C   0  0  0  0  0  0  0  0  0  0  0  0
    6.0878  -12.0072   25.7315 C   0  0  0  0  0  0  0  0  0  0  0  0
    7.0766  -11.2242   26.2802 C   0  0  0  0  0  0  0  0  0  0  0  0
    8.3312  -11.7334   26.5479 C   0  0  0  0  0  0  0  0  0  0  0  0
    8.5853  -13.0530   26.2551 C   0  0  0  0  0  0  0  0  0  0  0  0
    7.6005  -13.8611   25.7006 C   0  0  0  0  0  0  0  0  0  0  0  0
   10.7964  -16.8823   24.2500 C   0  0  0  0  0  0  0  0  0  0  0  0
   10.6325  -18.1066   23.9950 O   0  0  0  0  0  0  0  0  0  0  0  0
   12.1064  -16.4533   24.5674 N   0  0  0  0  0  0  0  0  0  0  0  0
   13.1799  -17.3911   24.5950 C   0  0  1  0  0  0  0  0  0  0  0  0
   14.4753  -16.8237   24.0565 C   0  0  0  0  0  0  0  0  0  0  0  0
   15.6410  -17.7478   24.1980 C   0  0  0  0  0  0  0  0  0  0  0  0
   16.8658  -17.0057   23.8555 C   0  0  0  0  0  0  0  0  0  0  0  0
   17.9776  -17.5383   24.0194 O   0  0  0  0  0  0  0  0  0  0  0  0
   13.3927  -17.9833   25.9479 C   0  0  0  0  0  0  0  0  0  0  0  0
   14.0819  -19.1893   26.0174 O   0  0  0  0  0  0  0  0  0  0  0  0
   16.7839  -15.7278   23.3557 O   0  0  0  0  0  0  0  0  0  0  0  0
   12.9877  -17.4563   27.0050 O   0  0  0  0  0  0  0  0  0  0  0  0
  1  2  1  0
  2  3  2  0
  4  5  1  0
  4  2  1  0
  5  6  1  0
  6  7  1  1
  8  9  2  0
  8  6  1  0
 10  8  1  0
 11 10  1  0
 11 12  1  1
 12 13  1  0
 13 14  2  0
 13 21  1  0
 14 15  1  0
 15 16  1  0
 16 17  2  0
 18 17  1  0
 19 18  2  0
 20 21  2  0
 20 19  1  0
 21 16  1  0
 22 11  1  0
 23 22  2  0
 24 22  1  0
 25 24  1  0
 25 26  1  1
 26 27  1  0
 28 32  1  0
 28 27  1  0
 29 28  2  0
 30 31  1  0
 30 25  1  0
 33 30  2  0
M  END
$$$$
