QWE.pdb
     RDKit          3D

 33 34  0  0  1  0  0  0  0  0999 V2000
    8.6791  -12.4128   17.6808 N   0  0  0  0  0  0  0  0  0  0  0  0
    8.2588  -13.7344   17.2676 C   0  0  0  0  0  0  0  0  0  0  0  0
    7.6914  -13.8247   16.1523 O   0  0  0  0  0  0  0  0  0  0  0  0
    8.4916  -14.9034   18.1177 C   0  0  0  0  0  0  0  0  0  0  0  0
    9.1300  -14.5678   19.4098 C   0  0  0  0  0  0  0  0  0  0  0  0
    9.6595  -15.7858   20.1160 C   0  0  2  0  0  0  0  0  0  0  0  0
    8.7897  -16.9199   19.8674 N   0  0  0  0  0  0  0  0  0  0  0  0
    9.6739  -15.4585   21.5905 C   0  0  0  0  0  0  0  0  0  0  0  0
   10.2337  -14.4128   22.0011 O   0  0  0  0  0  0  0  0  0  0  0  0
    9.0662  -16.3026   22.5597 N   0  0  0  0  0  0  0  0  0  0  0  0
    9.2118  -16.0581   23.9912 C   0  0  1  0  0  0  0  0  0  0  0  0
    7.8663  -16.1641   24.6865 C   0  0  0  0  0  0  0  0  0  0  0  0
    7.1644  -14.8695   24.5740 C   0  0  0  0  0  0  0  0  0  0  0  0
    6.4813  -14.4209   23.4429 C   0  0  0  0  0  0  0  0  0  0  0  0
    5.9670  -13.2129   23.6895 N   0  0  0  0  0  0  0  0  0  0  0  0
    6.2795  -12.8270   24.9527 C   0  0  0  0  0  0  0  0  0  0  0  0
    6.0099  -11.7024   25.7027 C   0  0  0  0  0  0  0  0  0  0  0  0
    6.4830  -11.6129   26.9912 C   0  0  0  0  0  0  0  0  0  0  0  0
    7.2266  -12.6291   27.5562 C   0  0  0  0  0  0  0  0  0  0  0  0
    7.4934  -13.7497   26.8044 C   0  0  0  0  0  0  0  0  0  0  0  0
    7.0249  -13.8600   25.5010 C   0  0  0  0  0  0  0  0  0  0  0  0
   10.1992  -16.9951   24.5330 C   0  0  0  0  0  0  0  0  0  0  0  0
    9.9717  -18.2275   24.3898 O   0  0  0  0  0  0  0  0  0  0  0  0
   11.3883  -16.6266   25.2047 N   0  0  0  0  0  0  0  0  0  0  0  0
   12.2563  -17.6300   25.7264 C   0  0  1  0  0  0  0  0  0  0  0  0
   13.7154  -17.3652   25.4249 C   0  0  0  0  0  0  0  0  0  0  0  0
   13.9920  -17.0989   23.9808 C   0  0  0  0  0  0  0  0  0  0  0  0
   15.4308  -16.8263   23.8264 C   0  0  0  0  0  0  0  0  0  0  0  0
   16.1708  -16.8267   24.8259 O   0  0  0  0  0  0  0  0  0  0  0  0
   12.0591  -17.8592   27.1875 C   0  0  0  0  0  0  0  0  0  0  0  0
   11.1357  -17.0517   27.8430 O   0  0  0  0  0  0  0  0  0  0  0  0
   15.9576  -16.5717   22.5825 O   0  0  0  0  0  0  0  0  0  0  0  0
   12.6740  -18.7279   27.8405 O   0  0  0  0  0  0  0  0  0  0  0  0
  1  2  1  0
  2  3  2  0
  4  5  1  0
  4  2  1  0
  5  6  1  0
  6  7  1  1
  8  9  2  0
  8  6  1  0
 10  8  1  0
 11 10  1  0
 11 12  1  1
 12 13  1  0
 13 14  2  0
 13 21  1  0
 14 15  1  0
 15 16  1  0
 16 17  2  0
 18 17  1  0
 19 18  2  0
 20 21  2  0
 20 19  1  0
 21 16  1  0
 22 11  1  0
 23 22  2  0
 24 22  1  0
 25 24  1  0
 25 26  1  1
 26 27  1  0
 28 32  1  0
 28 27  1  0
 29 28  2  0
 30 31  1  0
 30 25  1  0
 33 30  2  0
M  END
$$$$
