QWE.pdb
     RDKit          3D

 33 34  0  0  1  0  0  0  0  0999 V2000
   11.6829  -18.0063   16.5104 N   0  0  0  0  0  0  0  0  0  0  0  0
   10.3439  -18.5548   16.4927 C   0  0  0  0  0  0  0  0  0  0  0  0
    9.7202  -18.4897   15.4061 O   0  0  0  0  0  0  0  0  0  0  0  0
    9.7561  -19.1564   17.6910 C   0  0  0  0  0  0  0  0  0  0  0  0
   10.1787  -18.4932   18.9445 C   0  0  0  0  0  0  0  0  0  0  0  0
    9.3215  -18.8903   20.1151 C   0  0  2  0  0  0  0  0  0  0  0  0
    7.9260  -18.9196   19.7199 N   0  0  0  0  0  0  0  0  0  0  0  0
    9.5348  -17.8428   21.1822 C   0  0  0  0  0  0  0  0  0  0  0  0
   10.6924  -17.5856   21.5939 O   0  0  0  0  0  0  0  0  0  0  0  0
    8.4565  -17.1156   21.7562 N   0  0  0  0  0  0  0  0  0  0  0  0
    8.6701  -16.1266   22.8080 C   0  0  1  0  0  0  0  0  0  0  0  0
    7.4429  -15.2467   22.9653 C   0  0  0  0  0  0  0  0  0  0  0  0
    7.7727  -14.1180   23.8588 C   0  0  0  0  0  0  0  0  0  0  0  0
    8.8239  -13.2206   23.6663 C   0  0  0  0  0  0  0  0  0  0  0  0
    8.8298  -12.3294   24.6614 N   0  0  0  0  0  0  0  0  0  0  0  0
    7.8155  -12.5934   25.5239 C   0  0  0  0  0  0  0  0  0  0  0  0
    7.3744  -12.0046   26.6895 C   0  0  0  0  0  0  0  0  0  0  0  0
    6.2850  -12.5268   27.3470 C   0  0  0  0  0  0  0  0  0  0  0  0
    5.6174  -13.6344   26.8650 C   0  0  0  0  0  0  0  0  0  0  0  0
    6.0607  -14.2190   25.7016 C   0  0  0  0  0  0  0  0  0  0  0  0
    7.1591  -13.7072   25.0219 C   0  0  0  0  0  0  0  0  0  0  0  0
    9.0242  -16.8231   24.0474 C   0  0  0  0  0  0  0  0  0  0  0  0
    8.2919  -17.7866   24.4031 O   0  0  0  0  0  0  0  0  0  0  0  0
   10.1232  -16.5001   24.8773 N   0  0  0  0  0  0  0  0  0  0  0  0
   10.4522  -17.3334   25.9863 C   0  0  1  0  0  0  0  0  0  0  0  0
   11.7006  -18.1575   25.7573 C   0  0  0  0  0  0  0  0  0  0  0  0
   12.0273  -19.0800   26.8866 C   0  0  0  0  0  0  0  0  0  0  0  0
   13.2654  -19.8032   26.5517 C   0  0  0  0  0  0  0  0  0  0  0  0
   14.3634  -19.3562   26.9274 O   0  0  0  0  0  0  0  0  0  0  0  0
   10.5564  -16.5739   27.2664 C   0  0  0  0  0  0  0  0  0  0  0  0
   10.6808  -17.3108   28.4394 O   0  0  0  0  0  0  0  0  0  0  0  0
   13.2111  -20.9694   25.8260 O   0  0  0  0  0  0  0  0  0  0  0  0
   10.5374  -15.3273   27.3345 O   0  0  0  0  0  0  0  0  0  0  0  0
  1  2  1  0
  2  3  2  0
  4  5  1  0
  4  2  1  0
  5  6  1  0
  6  7  1  6
  8  9  2  0
  8  6  1  0
 10  8  1  0
 11 10  1  0
 11 12  1  1
 12 13  1  0
 13 14  2  0
 13 21  1  0
 14 15  1  0
 15 16  1  0
 16 17  2  0
 18 17  1  0
 19 18  2  0
 20 21  2  0
 20 19  1  0
 21 16  1  0
 22 11  1  0
 23 22  2  0
 24 22  1  0
 25 24  1  0
 25 26  1  6
 26 27  1  0
 28 32  1  0
 28 27  1  0
 29 28  2  0
 30 31  1  0
 30 25  1  0
 33 30  2  0
M  END
$$$$
