DQL.pdb
     RDKit          3D

 26 25  0  0  1  0  0  0  0  0999 V2000
   14.8742  -13.2723  -16.4005 N   0  0  0  0  0  0  0  0  0  0  0  0
   14.8907  -11.8413  -16.1604 C   0  0  1  0  0  0  0  0  0  0  0  0
   14.7939  -11.6265  -14.6494 C   0  0  0  0  0  0  0  0  0  0  0  0
   13.4658  -12.0633  -14.1473 C   0  0  0  0  0  0  0  0  0  0  0  0
   12.4281  -11.7019  -14.7521 O   0  0  0  0  0  0  0  0  0  0  0  0
   16.1983  -11.3281  -16.6403 C   0  0  0  0  0  0  0  0  0  0  0  0
   17.1593  -12.1236  -16.6965 O   0  0  0  0  0  0  0  0  0  0  0  0
   13.3697  -12.8604  -13.0245 O   0  0  0  0  0  0  0  0  0  0  0  0
   18.7253   -5.9012  -18.7453 N   0  0  0  0  0  0  0  0  0  0  0  0
   17.5087   -5.8440  -17.9865 C   0  0  0  0  0  0  0  0  0  0  0  0
   17.1889   -4.7161  -17.5637 O   0  0  0  0  0  0  0  0  0  0  0  0
   16.7461   -7.0935  -17.7695 C   0  0  0  0  0  0  0  0  0  0  0  0
   17.3716   -8.2661  -18.4848 C   0  0  0  0  0  0  0  0  0  0  0  0
   17.5894   -9.4627  -17.6032 C   0  0  2  0  0  0  0  0  0  0  0  0
   16.3976   -9.9943  -17.0308 N   0  0  0  0  0  0  0  0  0  0  0  0
   18.4449   -8.9829  -16.4627 C   0  0  0  0  0  0  0  0  0  0  0  0
   17.8585   -8.7519  -15.3856 O   0  0  0  0  0  0  0  0  0  0  0  0
   21.8777   -9.4952  -12.7087 C   0  0  0  0  0  0  0  0  0  0  0  0
   22.5916   -9.2405  -14.0682 C   0  0  1  0  0  0  0  0  0  0  0  0
   23.7444  -10.2340  -14.0798 C   0  0  0  0  0  0  0  0  0  0  0  0
   21.6335   -9.4821  -15.1715 C   0  0  0  0  0  0  0  0  0  0  0  0
   20.6053   -8.4470  -15.3741 C   0  0  2  0  0  0  0  0  0  0  0  0
   19.8207   -8.8027  -16.5920 N   0  0  0  0  0  0  0  0  0  0  0  0
   20.9670   -7.0539  -15.5648 C   0  0  0  0  0  0  0  0  0  0  0  0
   21.1538   -6.2055  -14.4966 O   0  0  0  0  0  0  0  0  0  0  0  0
   21.1120   -6.5757  -16.7396 O   0  0  0  0  0  0  0  0  0  0  0  0
  2  1  1  1
  2  3  1  0
  3  4  1  0
  4  8  1  0
  5  4  2  0
  6  2  1  0
  7  6  2  0
 10  9  1  0
 10 12  1  0
 11 10  2  0
 13 12  1  0
 14 13  1  6
 14 15  1  0
 15  6  1  0
 16 14  1  0
 17 16  2  0
 19 18  1  1
 19 21  1  0
 19 20  1  0
 22 21  1  6
 22 23  1  0
 23 16  1  0
 24 22  1  0
 24 25  1  0
 26 24  2  0
M  END
$$$$
