DQL.pdb
     RDKit          3D

 26 25  0  0  1  0  0  0  0  0999 V2000
   17.5973  -14.3557  -18.1139 N   0  0  0  0  0  0  0  0  0  0  0  0
   17.0408  -13.3297  -17.2518 C   0  0  1  0  0  0  0  0  0  0  0  0
   17.1878  -13.8115  -15.8079 C   0  0  0  0  0  0  0  0  0  0  0  0
   16.2279  -14.9100  -15.5273 C   0  0  0  0  0  0  0  0  0  0  0  0
   15.1532  -14.9699  -16.1711 O   0  0  0  0  0  0  0  0  0  0  0  0
   17.8575  -12.1044  -17.4396 C   0  0  0  0  0  0  0  0  0  0  0  0
   19.0425  -12.2368  -17.8108 O   0  0  0  0  0  0  0  0  0  0  0  0
   16.5124  -15.8594  -14.5665 O   0  0  0  0  0  0  0  0  0  0  0  0
   15.1310   -6.5591  -17.2734 N   0  0  0  0  0  0  0  0  0  0  0  0
   15.1233   -7.3472  -18.4726 C   0  0  0  0  0  0  0  0  0  0  0  0
   14.2055   -7.0965  -19.2774 O   0  0  0  0  0  0  0  0  0  0  0  0
   16.1769   -8.3696  -18.6588 C   0  0  0  0  0  0  0  0  0  0  0  0
   17.1615   -8.3780  -17.5149 C   0  0  0  0  0  0  0  0  0  0  0  0
   18.0438   -9.5934  -17.4888 C   0  0  2  0  0  0  0  0  0  0  0  0
   17.3560  -10.8118  -17.2185 N   0  0  0  0  0  0  0  0  0  0  0  0
   19.0090   -9.3766  -16.3556 C   0  0  0  0  0  0  0  0  0  0  0  0
   18.6688   -9.8234  -15.2411 O   0  0  0  0  0  0  0  0  0  0  0  0
   22.6464  -10.1233  -13.0971 C   0  0  0  0  0  0  0  0  0  0  0  0
   23.2347   -9.6287  -14.4506 C   0  0  1  0  0  0  0  0  0  0  0  0
   24.3479  -10.6188  -14.7613 C   0  0  0  0  0  0  0  0  0  0  0  0
   22.1678   -9.6456  -15.4778 C   0  0  0  0  0  0  0  0  0  0  0  0
   21.1403   -8.5968  -15.3611 C   0  0  2  0  0  0  0  0  0  0  0  0
   20.2218   -8.7130  -16.5308 N   0  0  0  0  0  0  0  0  0  0  0  0
   21.5012   -7.1911  -15.3165 C   0  0  0  0  0  0  0  0  0  0  0  0
   21.3962   -6.3848  -16.4276 O   0  0  0  0  0  0  0  0  0  0  0  0
   21.9381   -6.6670  -14.2375 O   0  0  0  0  0  0  0  0  0  0  0  0
  2  1  1  6
  2  3  1  0
  3  4  1  0
  4  8  1  0
  5  4  2  0
  6  2  1  0
  7  6  2  0
 10  9  1  0
 10 12  1  0
 11 10  2  0
 13 12  1  0
 14 13  1  1
 14 15  1  0
 15  6  1  0
 16 14  1  0
 17 16  2  0
 19 18  1  1
 19 21  1  0
 19 20  1  0
 22 21  1  6
 22 23  1  0
 23 16  1  0
 24 22  1  0
 24 25  1  0
 26 24  2  0
M  END
$$$$
