DQL.pdb
     RDKit          3D

 26 25  0  0  1  0  0  0  0  0999 V2000
   18.7938  -13.7838  -18.9653 N   0  0  0  0  0  0  0  0  0  0  0  0
   18.3994  -13.4856  -17.6011 C   0  0  1  0  0  0  0  0  0  0  0  0
   19.4596  -14.0819  -16.6742 C   0  0  0  0  0  0  0  0  0  0  0  0
   19.3952  -15.5659  -16.6993 C   0  0  0  0  0  0  0  0  0  0  0  0
   20.4351  -16.2247  -16.9394 O   0  0  0  0  0  0  0  0  0  0  0  0
   18.4021  -12.0085  -17.4536 C   0  0  0  0  0  0  0  0  0  0  0  0
   19.2810  -11.3573  -18.0560 O   0  0  0  0  0  0  0  0  0  0  0  0
   18.2025  -16.2186  -16.4611 O   0  0  0  0  0  0  0  0  0  0  0  0
   13.5204   -9.7102  -14.9810 N   0  0  0  0  0  0  0  0  0  0  0  0
   13.5888   -9.7664  -16.4132 C   0  0  0  0  0  0  0  0  0  0  0  0
   12.5050   -9.9563  -16.9983 O   0  0  0  0  0  0  0  0  0  0  0  0
   14.9045   -9.5985  -17.0697 C   0  0  0  0  0  0  0  0  0  0  0  0
   16.0168   -9.4236  -16.0647 C   0  0  0  0  0  0  0  0  0  0  0  0
   17.3531   -9.9021  -16.5562 C   0  0  2  0  0  0  0  0  0  0  0  0
   17.4635  -11.3183  -16.6700 N   0  0  0  0  0  0  0  0  0  0  0  0
   18.3522   -9.4685  -15.5187 C   0  0  0  0  0  0  0  0  0  0  0  0
   18.6172  -10.2944  -14.6214 O   0  0  0  0  0  0  0  0  0  0  0  0
   22.2245   -9.4535  -12.8035 C   0  0  0  0  0  0  0  0  0  0  0  0
   22.4308   -8.8985  -14.2430 C   0  0  1  0  0  0  0  0  0  0  0  0
   23.5141   -9.7870  -14.8372 C   0  0  0  0  0  0  0  0  0  0  0  0
   21.1546   -8.9977  -14.9882 C   0  0  0  0  0  0  0  0  0  0  0  0
   20.1410   -7.9760  -14.6748 C   0  0  2  0  0  0  0  0  0  0  0  0
   18.9558   -8.2128  -15.5491 N   0  0  0  0  0  0  0  0  0  0  0  0
   20.4284   -6.5605  -14.8221 C   0  0  0  0  0  0  0  0  0  0  0  0
   21.0053   -5.8330  -13.8054 O   0  0  0  0  0  0  0  0  0  0  0  0
   20.1410   -5.9489  -15.9051 O   0  0  0  0  0  0  0  0  0  0  0  0
  2  1  1  6
  2  3  1  0
  3  4  1  0
  4  8  1  0
  5  4  2  0
  6  2  1  0
  7  6  2  0
 10  9  1  0
 10 12  1  0
 11 10  2  0
 13 12  1  0
 14 13  1  1
 14 15  1  0
 15  6  1  0
 16 14  1  0
 17 16  2  0
 19 18  1  1
 19 21  1  0
 19 20  1  0
 22 21  1  6
 22 23  1  0
 23 16  1  0
 24 22  1  0
 24 25  1  0
 26 24  2  0
M  END
$$$$
