DQL.pdb
     RDKit          3D

 26 25  0  0  1  0  0  0  0  0999 V2000
   15.9753  -11.0218  -15.4708 N   0  0  0  0  0  0  0  0  0  0  0  0
   16.8175  -10.9809  -14.2899 C   0  0  1  0  0  0  0  0  0  0  0  0
   18.1529  -11.6314  -14.6536 C   0  0  0  0  0  0  0  0  0  0  0  0
   18.0199  -13.1108  -14.6775 C   0  0  0  0  0  0  0  0  0  0  0  0
   17.0389  -13.6513  -14.1129 O   0  0  0  0  0  0  0  0  0  0  0  0
   17.0480   -9.5517  -13.9613 C   0  0  0  0  0  0  0  0  0  0  0  0
   17.0423   -8.7234  -14.8958 O   0  0  0  0  0  0  0  0  0  0  0  0
   18.9659  -13.8882  -15.3145 O   0  0  0  0  0  0  0  0  0  0  0  0
   15.8546   -6.8803   -8.3865 N   0  0  0  0  0  0  0  0  0  0  0  0
   16.2140   -5.7475   -9.1906 C   0  0  0  0  0  0  0  0  0  0  0  0
   16.0608   -4.6336   -8.6531 O   0  0  0  0  0  0  0  0  0  0  0  0
   16.7260   -5.9803  -10.5595 C   0  0  0  0  0  0  0  0  0  0  0  0
   16.8439   -7.4518  -10.8735 C   0  0  0  0  0  0  0  0  0  0  0  0
   17.3749   -7.7330  -12.2502 C   0  0  2  0  0  0  0  0  0  0  0  0
   17.2708   -9.0962  -12.6520 N   0  0  0  0  0  0  0  0  0  0  0  0
   18.8418   -7.4037  -12.2004 C   0  0  0  0  0  0  0  0  0  0  0  0
   19.4755   -7.8320  -11.2143 O   0  0  0  0  0  0  0  0  0  0  0  0
   22.2552   -9.3468  -15.2662 C   0  0  0  0  0  0  0  0  0  0  0  0
   21.5842   -8.6965  -14.0214 C   0  0  1  0  0  0  0  0  0  0  0  0
   22.4468   -9.1461  -12.8510 C   0  0  0  0  0  0  0  0  0  0  0  0
   21.5848   -7.2243  -14.1841 C   0  0  0  0  0  0  0  0  0  0  0  0
   20.9439   -6.4536  -13.1048 C   0  0  2  0  0  0  0  0  0  0  0  0
   19.4695   -6.6600  -13.1979 N   0  0  0  0  0  0  0  0  0  0  0  0
   21.1074   -5.0142  -13.0084 C   0  0  0  0  0  0  0  0  0  0  0  0
   20.0363   -4.1578  -13.1308 O   0  0  0  0  0  0  0  0  0  0  0  0
   22.2614   -4.5033  -12.8158 O   0  0  0  0  0  0  0  0  0  0  0  0
  2  1  1  6
  2  3  1  0
  3  4  1  0
  4  8  1  0
  5  4  2  0
  6  2  1  0
  7  6  2  0
 10  9  1  0
 10 12  1  0
 11 10  2  0
 13 12  1  0
 14 13  1  1
 14 15  1  0
 15  6  1  0
 16 14  1  0
 17 16  2  0
 19 18  1  6
 19 21  1  0
 19 20  1  0
 22 21  1  6
 22 23  1  0
 23 16  1  0
 24 22  1  0
 24 25  1  0
 26 24  2  0
M  END
$$$$
