DQL.pdb
     RDKit          3D

 26 25  0  0  1  0  0  0  0  0999 V2000
   22.4878  -21.3590  -14.9232 N   0  0  0  0  0  0  0  0  0  0  0  0
   21.7330  -20.1589  -15.2322 C   0  0  1  0  0  0  0  0  0  0  0  0
   21.3515  -19.5002  -13.9059 C   0  0  0  0  0  0  0  0  0  0  0  0
   20.2582  -20.2587  -13.2455 C   0  0  0  0  0  0  0  0  0  0  0  0
   19.8124  -21.2976  -13.7887 O   0  0  0  0  0  0  0  0  0  0  0  0
   22.6359  -19.2504  -15.9827 C   0  0  0  0  0  0  0  0  0  0  0  0
   23.8649  -19.4654  -15.9306 O   0  0  0  0  0  0  0  0  0  0  0  0
   19.7339  -19.8271  -12.0438 O   0  0  0  0  0  0  0  0  0  0  0  0
   21.2512  -17.5951  -21.6371 N   0  0  0  0  0  0  0  0  0  0  0  0
   22.4111  -16.7669  -21.4699 C   0  0  0  0  0  0  0  0  0  0  0  0
   22.8026  -16.1734  -22.4933 O   0  0  0  0  0  0  0  0  0  0  0  0
   23.0376  -16.6817  -20.1318 C   0  0  0  0  0  0  0  0  0  0  0  0
   22.2568  -17.4515  -19.0947 C   0  0  0  0  0  0  0  0  0  0  0  0
   22.9073  -17.4679  -17.7409 C   0  0  2  0  0  0  0  0  0  0  0  0
   22.1680  -18.1670  -16.7432 N   0  0  0  0  0  0  0  0  0  0  0  0
   22.9810  -16.0309  -17.3026 C   0  0  0  0  0  0  0  0  0  0  0  0
   22.0636  -15.6278  -16.5587 O   0  0  0  0  0  0  0  0  0  0  0  0
   27.5473  -13.5563  -15.6004 C   0  0  0  0  0  0  0  0  0  0  0  0
   26.0471  -13.9667  -15.6609 C   0  0  1  0  0  0  0  0  0  0  0  0
   25.4361  -13.3440  -14.4139 C   0  0  0  0  0  0  0  0  0  0  0  0
   25.4479  -13.4311  -16.9050 C   0  0  0  0  0  0  0  0  0  0  0  0
   24.0436  -13.7972  -17.1568 C   0  0  2  0  0  0  0  0  0  0  0  0
   24.0152  -15.1859  -17.7008 N   0  0  0  0  0  0  0  0  0  0  0  0
   23.2175  -13.0285  -18.0704 C   0  0  0  0  0  0  0  0  0  0  0  0
   22.5730  -11.8807  -17.6666 O   0  0  0  0  0  0  0  0  0  0  0  0
   23.0598  -13.4081  -19.2790 O   0  0  0  0  0  0  0  0  0  0  0  0
  2  1  1  1
  2  3  1  0
  3  4  1  0
  4  8  1  0
  5  4  2  0
  6  2  1  0
  7  6  2  0
 10  9  1  0
 10 12  1  0
 11 10  2  0
 13 12  1  0
 14 13  1  6
 14 15  1  0
 15  6  1  0
 16 14  1  0
 17 16  2  0
 19 18  1  6
 19 21  1  0
 19 20  1  0
 22 21  1  6
 22 23  1  0
 23 16  1  0
 24 22  1  0
 24 25  1  0
 26 24  2  0
M  END
$$$$
