DQL.pdb
     RDKit          3D

 26 25  0  0  1  0  0  0  0  0999 V2000
   17.4147  -11.6066  -17.6631 N   0  0  0  0  0  0  0  0  0  0  0  0
   17.4067  -11.0504  -16.3229 C   0  0  1  0  0  0  0  0  0  0  0  0
   18.6582  -11.5584  -15.6058 C   0  0  0  0  0  0  0  0  0  0  0  0
   18.5159  -12.9987  -15.2713 C   0  0  0  0  0  0  0  0  0  0  0  0
   19.5384  -13.7228  -15.2132 O   0  0  0  0  0  0  0  0  0  0  0  0
   17.4902   -9.5743  -16.4569 C   0  0  0  0  0  0  0  0  0  0  0  0
   18.1309   -9.1051  -17.4206 O   0  0  0  0  0  0  0  0  0  0  0  0
   17.2702  -13.5403  -15.0257 O   0  0  0  0  0  0  0  0  0  0  0  0
   13.1763   -5.5668  -14.2752 N   0  0  0  0  0  0  0  0  0  0  0  0
   14.0945   -4.6679  -14.9140 C   0  0  0  0  0  0  0  0  0  0  0  0
   13.7341   -3.4761  -14.9675 O   0  0  0  0  0  0  0  0  0  0  0  0
   15.3654   -5.2082  -15.4459 C   0  0  0  0  0  0  0  0  0  0  0  0
   15.4955   -6.6908  -15.1949 C   0  0  0  0  0  0  0  0  0  0  0  0
   16.7801   -7.2776  -15.7064 C   0  0  2  0  0  0  0  0  0  0  0  0
   16.8825   -8.6904  -15.5510 N   0  0  0  0  0  0  0  0  0  0  0  0
   17.8724   -6.6665  -14.8721 C   0  0  0  0  0  0  0  0  0  0  0  0
   17.8740   -6.9561  -13.6582 O   0  0  0  0  0  0  0  0  0  0  0  0
   23.0320   -7.2675  -15.5187 C   0  0  0  0  0  0  0  0  0  0  0  0
   21.6107   -7.0698  -14.9159 C   0  0  1  0  0  0  0  0  0  0  0  0
   21.7649   -7.4591  -13.4528 C   0  0  0  0  0  0  0  0  0  0  0  0
   21.2079   -5.6538  -15.0788 C   0  0  0  0  0  0  0  0  0  0  0  0
   19.8979   -5.2846  -14.5156 C   0  0  2  0  0  0  0  0  0  0  0  0
   18.8365   -5.8203  -15.4165 N   0  0  0  0  0  0  0  0  0  0  0  0
   19.5336   -3.8949  -14.3054 C   0  0  0  0  0  0  0  0  0  0  0  0
   20.1079   -3.1431  -13.3051 O   0  0  0  0  0  0  0  0  0  0  0  0
   18.6560   -3.3349  -15.0443 O   0  0  0  0  0  0  0  0  0  0  0  0
  2  1  1  6
  2  3  1  0
  3  4  1  0
  4  8  1  0
  5  4  2  0
  6  2  1  0
  7  6  2  0
 10  9  1  0
 10 12  1  0
 11 10  2  0
 13 12  1  0
 14 13  1  1
 14 15  1  0
 15  6  1  0
 16 14  1  0
 17 16  2  0
 19 18  1  6
 19 21  1  0
 19 20  1  0
 22 21  1  6
 22 23  1  0
 23 16  1  0
 24 22  1  0
 24 25  1  0
 26 24  2  0
M  END
$$$$
