DQL.pdb
     RDKit          3D

 26 25  0  0  1  0  0  0  0  0999 V2000
   31.1873  -13.5913  -20.7774 N   0  0  0  0  0  0  0  0  0  0  0  0
   31.8182  -13.0679  -19.5801 C   0  0  1  0  0  0  0  0  0  0  0  0
   33.3001  -13.4409  -19.6394 C   0  0  0  0  0  0  0  0  0  0  0  0
   33.4803  -14.8929  -19.3824 C   0  0  0  0  0  0  0  0  0  0  0  0
   33.6107  -15.6794  -20.3507 O   0  0  0  0  0  0  0  0  0  0  0  0
   31.6882  -11.5897  -19.6227 C   0  0  0  0  0  0  0  0  0  0  0  0
   31.7912  -11.0204  -20.7294 O   0  0  0  0  0  0  0  0  0  0  0  0
   33.5045  -15.3770  -18.0900 O   0  0  0  0  0  0  0  0  0  0  0  0
   27.5869   -8.3523  -19.8957 N   0  0  0  0  0  0  0  0  0  0  0  0
   28.2822   -7.2764  -19.2491 C   0  0  0  0  0  0  0  0  0  0  0  0
   27.8473   -6.1329  -19.4863 O   0  0  0  0  0  0  0  0  0  0  0  0
   29.4311   -7.5966  -18.3729 C   0  0  0  0  0  0  0  0  0  0  0  0
   29.7161   -9.0783  -18.3373 C   0  0  0  0  0  0  0  0  0  0  0  0
   31.1748   -9.4140  -18.4630 C   0  0  2  0  0  0  0  0  0  0  0  0
   31.4560  -10.8109  -18.4778 N   0  0  0  0  0  0  0  0  0  0  0  0
   31.8341   -8.8492  -17.2346 C   0  0  0  0  0  0  0  0  0  0  0  0
   31.4746   -9.3279  -16.1396 O   0  0  0  0  0  0  0  0  0  0  0  0
   37.1153   -8.4070  -16.7705 C   0  0  0  0  0  0  0  0  0  0  0  0
   35.6033   -8.6606  -16.5015 C   0  0  1  0  0  0  0  0  0  0  0  0
   35.5836   -9.5222  -15.2472 C   0  0  0  0  0  0  0  0  0  0  0  0
   34.9226   -7.3609  -16.2984 C   0  0  0  0  0  0  0  0  0  0  0  0
   33.4730   -7.4223  -16.0441 C   0  0  2  0  0  0  0  0  0  0  0  0
   32.7969   -7.8441  -17.3051 N   0  0  0  0  0  0  0  0  0  0  0  0
   32.7354   -6.2508  -15.6065 C   0  0  0  0  0  0  0  0  0  0  0  0
   32.9008   -5.7252  -14.3448 O   0  0  0  0  0  0  0  0  0  0  0  0
   31.9003   -5.6809  -16.3860 O   0  0  0  0  0  0  0  0  0  0  0  0
  2  1  1  6
  2  3  1  0
  3  4  1  0
  4  8  1  0
  5  4  2  0
  6  2  1  0
  7  6  2  0
 10  9  1  0
 10 12  1  0
 11 10  2  0
 13 12  1  0
 14 13  1  1
 14 15  1  0
 15  6  1  0
 16 14  1  0
 17 16  2  0
 19 18  1  1
 19 21  1  0
 19 20  1  0
 22 21  1  6
 22 23  1  0
 23 16  1  0
 24 22  1  0
 24 25  1  0
 26 24  2  0
M  END
$$$$
