DQL.pdb
     RDKit          3D

 26 25  0  0  1  0  0  0  0  0999 V2000
   15.9115  -11.5221  -17.9611 N   0  0  0  0  0  0  0  0  0  0  0  0
   16.1101  -10.9321  -16.6503 C   0  0  1  0  0  0  0  0  0  0  0  0
   16.9628  -11.9031  -15.8324 C   0  0  0  0  0  0  0  0  0  0  0  0
   16.1646  -13.0944  -15.4446 C   0  0  0  0  0  0  0  0  0  0  0  0
   14.9131  -13.0485  -15.5153 O   0  0  0  0  0  0  0  0  0  0  0  0
   16.8654   -9.6690  -16.8445 C   0  0  0  0  0  0  0  0  0  0  0  0
   17.3702   -9.4502  -17.9656 O   0  0  0  0  0  0  0  0  0  0  0  0
   16.7908  -14.2449  -15.0093 O   0  0  0  0  0  0  0  0  0  0  0  0
   14.3848   -5.6834  -14.6587 N   0  0  0  0  0  0  0  0  0  0  0  0
   14.6151   -5.4781  -16.0601 C   0  0  0  0  0  0  0  0  0  0  0  0
   13.6492   -5.0267  -16.7054 O   0  0  0  0  0  0  0  0  0  0  0  0
   15.9454   -5.8080  -16.6183 C   0  0  0  0  0  0  0  0  0  0  0  0
   16.9035   -6.2764  -15.5504 C   0  0  0  0  0  0  0  0  0  0  0  0
   17.7173   -7.4727  -15.9542 C   0  0  2  0  0  0  0  0  0  0  0  0
   17.0343   -8.7168  -15.8267 N   0  0  0  0  0  0  0  0  0  0  0  0
   18.8836   -7.5160  -15.0052 C   0  0  0  0  0  0  0  0  0  0  0  0
   18.8448   -8.3893  -14.1146 O   0  0  0  0  0  0  0  0  0  0  0  0
   22.6137   -9.2864  -12.6170 C   0  0  0  0  0  0  0  0  0  0  0  0
   22.9594   -8.6220  -13.9815 C   0  0  1  0  0  0  0  0  0  0  0  0
   23.6979   -9.7069  -14.7519 C   0  0  0  0  0  0  0  0  0  0  0  0
   21.7043   -8.2140  -14.6537 C   0  0  0  0  0  0  0  0  0  0  0  0
   21.1696   -6.8933  -14.2800 C   0  0  2  0  0  0  0  0  0  0  0  0
   19.9559   -6.6318  -15.1069 N   0  0  0  0  0  0  0  0  0  0  0  0
   21.9718   -5.6908  -14.4154 C   0  0  0  0  0  0  0  0  0  0  0  0
   22.6972   -5.1862  -13.3595 O   0  0  0  0  0  0  0  0  0  0  0  0
   22.0158   -5.0612  -15.5251 O   0  0  0  0  0  0  0  0  0  0  0  0
  2  1  1  6
  2  3  1  0
  3  4  1  0
  4  8  1  0
  5  4  2  0
  6  2  1  0
  7  6  2  0
 10  9  1  0
 10 12  1  0
 11 10  2  0
 13 12  1  0
 14 13  1  1
 14 15  1  0
 15  6  1  0
 16 14  1  0
 17 16  2  0
 19 18  1  1
 19 21  1  0
 19 20  1  0
 22 21  1  6
 22 23  1  0
 23 16  1  0
 24 22  1  0
 24 25  1  0
 26 24  2  0
M  END
$$$$
