DQL.pdb
     RDKit          3D

 26 25  0  0  1  0  0  0  0  0999 V2000
   26.5909  -21.3927  -14.4058 N   0  0  0  0  0  0  0  0  0  0  0  0
   27.2025  -20.1799  -13.8953 C   0  0  1  0  0  0  0  0  0  0  0  0
   27.0057  -19.0869  -14.9467 C   0  0  0  0  0  0  0  0  0  0  0  0
   27.4672  -19.5583  -16.2777 C   0  0  0  0  0  0  0  0  0  0  0  0
   26.9289  -19.1021  -17.3147 O   0  0  0  0  0  0  0  0  0  0  0  0
   26.4704  -19.8022  -12.6604 C   0  0  0  0  0  0  0  0  0  0  0  0
   26.2910  -18.5881  -12.4293 O   0  0  0  0  0  0  0  0  0  0  0  0
   28.4801  -20.4908  -16.3772 O   0  0  0  0  0  0  0  0  0  0  0  0
   21.7905  -19.6925   -9.7825 N   0  0  0  0  0  0  0  0  0  0  0  0
   21.8242  -20.0542  -11.1707 C   0  0  0  0  0  0  0  0  0  0  0  0
   20.9144  -19.5757  -11.8754 O   0  0  0  0  0  0  0  0  0  0  0  0
   22.9069  -20.9429  -11.6484 C   0  0  0  0  0  0  0  0  0  0  0  0
   23.8907  -21.2709  -10.5518 C   0  0  0  0  0  0  0  0  0  0  0  0
   25.1559  -20.4639  -10.6168 C   0  0  2  0  0  0  0  0  0  0  0  0
   25.9750  -20.7472  -11.7479 N   0  0  0  0  0  0  0  0  0  0  0  0
   25.9496  -20.8446   -9.3970 C   0  0  0  0  0  0  0  0  0  0  0  0
   26.4114  -22.0037   -9.3726 O   0  0  0  0  0  0  0  0  0  0  0  0
   29.3638  -18.3237   -5.0689 C   0  0  0  0  0  0  0  0  0  0  0  0
   28.5407  -19.5931   -5.4348 C   0  0  1  0  0  0  0  0  0  0  0  0
   27.6481  -19.8248   -4.2241 C   0  0  0  0  0  0  0  0  0  0  0  0
   27.7584  -19.3259   -6.6638 C   0  0  0  0  0  0  0  0  0  0  0  0
   26.9282  -20.4380   -7.1573 C   0  0  2  0  0  0  0  0  0  0  0  0
   26.1637  -19.9569   -8.3444 N   0  0  0  0  0  0  0  0  0  0  0  0
   25.9315  -21.0670   -6.3094 C   0  0  0  0  0  0  0  0  0  0  0  0
   26.2593  -22.0929   -5.4517 O   0  0  0  0  0  0  0  0  0  0  0  0
   24.7135  -20.6864   -6.3471 O   0  0  0  0  0  0  0  0  0  0  0  0
  2  1  1  6
  2  3  1  0
  3  4  1  0
  4  8  1  0
  5  4  2  0
  6  2  1  0
  7  6  2  0
 10  9  1  0
 10 12  1  0
 11 10  2  0
 13 12  1  0
 14 13  1  6
 14 15  1  0
 15  6  1  0
 16 14  1  0
 17 16  2  0
 19 18  1  1
 19 21  1  0
 19 20  1  0
 22 21  1  1
 22 23  1  0
 23 16  1  0
 24 22  1  0
 24 25  1  0
 26 24  2  0
M  END
$$$$
