DQL.pdb
     RDKit          3D

 26 25  0  0  1  0  0  0  0  0999 V2000
   16.7169  -12.7158  -14.7496 N   0  0  0  0  0  0  0  0  0  0  0  0
   15.9810  -11.4733  -14.6073 C   0  0  1  0  0  0  0  0  0  0  0  0
   14.6684  -11.7947  -13.8914 C   0  0  0  0  0  0  0  0  0  0  0  0
   13.7554  -12.5431  -14.7931 C   0  0  0  0  0  0  0  0  0  0  0  0
   13.6233  -12.1720  -15.9840 O   0  0  0  0  0  0  0  0  0  0  0  0
   16.7936  -10.5746  -13.7495 C   0  0  0  0  0  0  0  0  0  0  0  0
   17.4322  -11.0811  -12.8034 O   0  0  0  0  0  0  0  0  0  0  0  0
   13.0560  -13.6387  -14.3285 O   0  0  0  0  0  0  0  0  0  0  0  0
   21.0772   -8.5197  -13.6393 N   0  0  0  0  0  0  0  0  0  0  0  0
   20.8330   -7.2346  -13.0495 C   0  0  0  0  0  0  0  0  0  0  0  0
   21.7530   -6.7821  -12.3410 O   0  0  0  0  0  0  0  0  0  0  0  0
   19.5431   -6.5612  -13.3199 C   0  0  0  0  0  0  0  0  0  0  0  0
   18.6005   -7.4436  -14.1014 C   0  0  0  0  0  0  0  0  0  0  0  0
   17.7057   -8.2841  -13.2359 C   0  0  2  0  0  0  0  0  0  0  0  0
   16.8730   -9.1883  -13.9569 N   0  0  0  0  0  0  0  0  0  0  0  0
   16.7931   -7.3196  -12.5291 C   0  0  0  0  0  0  0  0  0  0  0  0
   15.8845   -6.8083  -13.2150 O   0  0  0  0  0  0  0  0  0  0  0  0
   14.5733   -7.8358   -7.4992 C   0  0  0  0  0  0  0  0  0  0  0  0
   14.7459   -7.5345   -9.0165 C   0  0  1  0  0  0  0  0  0  0  0  0
   13.3549   -7.1265   -9.4798 C   0  0  0  0  0  0  0  0  0  0  0  0
   15.7340   -6.4440   -9.1847 C   0  0  0  0  0  0  0  0  0  0  0  0
   16.0043   -6.0235  -10.5702 C   0  0  2  0  0  0  0  0  0  0  0  0
   16.9459   -7.0069  -11.1797 N   0  0  0  0  0  0  0  0  0  0  0  0
   16.5881   -4.7267  -10.8630 C   0  0  0  0  0  0  0  0  0  0  0  0
   15.8759   -3.5609  -10.6918 O   0  0  0  0  0  0  0  0  0  0  0  0
   17.7843   -4.6370  -11.2998 O   0  0  0  0  0  0  0  0  0  0  0  0
  2  1  1  1
  2  3  1  0
  3  4  1  0
  4  8  1  0
  5  4  2  0
  6  2  1  0
  7  6  2  0
 10  9  1  0
 10 12  1  0
 11 10  2  0
 13 12  1  0
 14 13  1  6
 14 15  1  0
 15  6  1  0
 16 14  1  0
 17 16  2  0
 19 18  1  1
 19 21  1  0
 19 20  1  0
 22 21  1  1
 22 23  1  0
 23 16  1  0
 24 22  1  0
 24 25  1  0
 26 24  2  0
M  END
$$$$
