DQL.pdb
     RDKit          3D

 26 25  0  0  1  0  0  0  0  0999 V2000
   25.7565  -25.2886  -15.1351 N   0  0  0  0  0  0  0  0  0  0  0  0
   25.4530  -24.3744  -16.2203 C   0  0  1  0  0  0  0  0  0  0  0  0
   25.9118  -25.0348  -17.5210 C   0  0  0  0  0  0  0  0  0  0  0  0
   27.3953  -25.0718  -17.5889 C   0  0  0  0  0  0  0  0  0  0  0  0
   28.0683  -24.5184  -16.6867 O   0  0  0  0  0  0  0  0  0  0  0  0
   23.9786  -24.2057  -16.2561 C   0  0  0  0  0  0  0  0  0  0  0  0
   23.4882  -23.4947  -17.1581 O   0  0  0  0  0  0  0  0  0  0  0  0
   28.0323  -25.7091  -18.6346 O   0  0  0  0  0  0  0  0  0  0  0  0
   19.1648  -26.1158  -12.5899 N   0  0  0  0  0  0  0  0  0  0  0  0
   20.5372  -26.3078  -12.2172 C   0  0  0  0  0  0  0  0  0  0  0  0
   20.7362  -26.5987  -11.0218 O   0  0  0  0  0  0  0  0  0  0  0  0
   21.5840  -26.1509  -13.2514 C   0  0  0  0  0  0  0  0  0  0  0  0
   20.9962  -25.8191  -14.6014 C   0  0  0  0  0  0  0  0  0  0  0  0
   21.6987  -24.6921  -15.3034 C   0  0  2  0  0  0  0  0  0  0  0  0
   23.1188  -24.8083  -15.3240 N   0  0  0  0  0  0  0  0  0  0  0  0
   21.3737  -23.4516  -14.5171 C   0  0  0  0  0  0  0  0  0  0  0  0
   22.0717  -23.2347  -13.5056 O   0  0  0  0  0  0  0  0  0  0  0  0
   22.1067  -18.0544  -15.0166 C   0  0  0  0  0  0  0  0  0  0  0  0
   21.0419  -18.9224  -14.2848 C   0  0  1  0  0  0  0  0  0  0  0  0
   19.7261  -18.2044  -14.5473 C   0  0  0  0  0  0  0  0  0  0  0  0
   21.0567  -20.2897  -14.8541 C   0  0  0  0  0  0  0  0  0  0  0  0
   20.2206  -21.2871  -14.1645 C   0  0  2  0  0  0  0  0  0  0  0  0
   20.3492  -22.5839  -14.8904 N   0  0  0  0  0  0  0  0  0  0  0  0
   18.7899  -21.0930  -14.0108 C   0  0  0  0  0  0  0  0  0  0  0  0
   18.2652  -20.4344  -12.9215 O   0  0  0  0  0  0  0  0  0  0  0  0
   17.9762  -21.5418  -14.8861 O   0  0  0  0  0  0  0  0  0  0  0  0
  2  1  1  1
  2  3  1  0
  3  4  1  0
  4  8  1  0
  5  4  2  0
  6  2  1  0
  7  6  2  0
 10  9  1  0
 10 12  1  0
 11 10  2  0
 13 12  1  0
 14 13  1  1
 14 15  1  0
 15  6  1  0
 16 14  1  0
 17 16  2  0
 19 18  1  6
 19 21  1  0
 19 20  1  0
 22 21  1  6
 22 23  1  0
 23 16  1  0
 24 22  1  0
 24 25  1  0
 26 24  2  0
M  END
$$$$
