DQL.pdb
     RDKit          3D

 26 25  0  0  1  0  0  0  0  0999 V2000
   25.2737  -17.0177  -17.3274 N   0  0  0  0  0  0  0  0  0  0  0  0
   25.9542  -18.0127  -16.5197 C   0  0  1  0  0  0  0  0  0  0  0  0
   27.3700  -17.4999  -16.2530 C   0  0  0  0  0  0  0  0  0  0  0  0
   28.2806  -17.8911  -17.3596 C   0  0  0  0  0  0  0  0  0  0  0  0
   28.4158  -17.1287  -18.3463 O   0  0  0  0  0  0  0  0  0  0  0  0
   25.2233  -18.1107  -15.2314 C   0  0  0  0  0  0  0  0  0  0  0  0
   24.9210  -17.0515  -14.6430 O   0  0  0  0  0  0  0  0  0  0  0  0
   28.9743  -19.0833  -17.3066 O   0  0  0  0  0  0  0  0  0  0  0  0
   20.7716  -22.1502  -13.9536 N   0  0  0  0  0  0  0  0  0  0  0  0
   20.9343  -21.5638  -12.6541 C   0  0  0  0  0  0  0  0  0  0  0  0
   20.0807  -21.8869  -11.8054 O   0  0  0  0  0  0  0  0  0  0  0  0
   22.0720  -20.6455  -12.4252 C   0  0  0  0  0  0  0  0  0  0  0  0
   22.8987  -20.4517  -13.6730 C   0  0  0  0  0  0  0  0  0  0  0  0
   24.0487  -19.5024  -13.4920 C   0  0  2  0  0  0  0  0  0  0  0  0
   24.8605  -19.3367  -14.6513 N   0  0  0  0  0  0  0  0  0  0  0  0
   24.9227  -20.1129  -12.4308 C   0  0  0  0  0  0  0  0  0  0  0  0
   25.6749  -21.0400  -12.7944 O   0  0  0  0  0  0  0  0  0  0  0  0
   27.4571  -18.6201   -7.1294 C   0  0  0  0  0  0  0  0  0  0  0  0
   27.1701  -19.8043   -8.0979 C   0  0  1  0  0  0  0  0  0  0  0  0
   26.4085  -20.8102   -7.2469 C   0  0  0  0  0  0  0  0  0  0  0  0
   26.3640  -19.3127   -9.2391 C   0  0  0  0  0  0  0  0  0  0  0  0
   25.7991  -20.3451  -10.1248 C   0  0  2  0  0  0  0  0  0  0  0  0
   24.9010  -19.6735  -11.1085 N   0  0  0  0  0  0  0  0  0  0  0  0
   25.0079  -21.4410   -9.5946 C   0  0  0  0  0  0  0  0  0  0  0  0
   25.5846  -22.6398   -9.2398 O   0  0  0  0  0  0  0  0  0  0  0  0
   23.7449  -21.3208   -9.4529 O   0  0  0  0  0  0  0  0  0  0  0  0
  2  1  1  6
  2  3  1  0
  3  4  1  0
  4  8  1  0
  5  4  2  0
  6  2  1  0
  7  6  2  0
 10  9  1  0
 10 12  1  0
 11 10  2  0
 13 12  1  0
 14 13  1  6
 14 15  1  0
 15  6  1  0
 16 14  1  0
 17 16  2  0
 19 18  1  1
 19 21  1  0
 19 20  1  0
 22 21  1  1
 22 23  1  0
 23 16  1  0
 24 22  1  0
 24 25  1  0
 26 24  2  0
M  END
$$$$
