DQL.pdb
     RDKit          3D

 26 25  0  0  1  0  0  0  0  0999 V2000
   21.6988  -19.9090  -16.6817 N   0  0  0  0  0  0  0  0  0  0  0  0
   22.0158  -19.4265  -15.3504 C   0  0  1  0  0  0  0  0  0  0  0  0
   20.7335  -19.4911  -14.5195 C   0  0  0  0  0  0  0  0  0  0  0  0
   19.9465  -18.2418  -14.6822 C   0  0  0  0  0  0  0  0  0  0  0  0
   20.3892  -17.3243  -15.4139 O   0  0  0  0  0  0  0  0  0  0  0  0
   23.0168  -20.3567  -14.7704 C   0  0  0  0  0  0  0  0  0  0  0  0
   22.6207  -21.4673  -14.3589 O   0  0  0  0  0  0  0  0  0  0  0  0
   18.7371  -18.0874  -14.0350 O   0  0  0  0  0  0  0  0  0  0  0  0
   28.7262  -21.5107  -16.6838 N   0  0  0  0  0  0  0  0  0  0  0  0
   27.4337  -21.5942  -17.3014 C   0  0  0  0  0  0  0  0  0  0  0  0
   27.4338  -21.8490  -18.5213 O   0  0  0  0  0  0  0  0  0  0  0  0
   26.2309  -21.3782  -16.4666 C   0  0  0  0  0  0  0  0  0  0  0  0
   26.5889  -21.0599  -15.0354 C   0  0  0  0  0  0  0  0  0  0  0  0
   25.3952  -20.8923  -14.1392 C   0  0  2  0  0  0  0  0  0  0  0  0
   24.3809  -20.0413  -14.6660 N   0  0  0  0  0  0  0  0  0  0  0  0
   25.9096  -20.2351  -12.8877 C   0  0  0  0  0  0  0  0  0  0  0  0
   25.5075  -19.0754  -12.6622 O   0  0  0  0  0  0  0  0  0  0  0  0
   24.0326  -19.9525   -8.1229 C   0  0  0  0  0  0  0  0  0  0  0  0
   25.5051  -19.8592   -8.6187 C   0  0  1  0  0  0  0  0  0  0  0  0
   26.2859  -20.7301   -7.6451 C   0  0  0  0  0  0  0  0  0  0  0  0
   25.5817  -20.3661  -10.0083 C   0  0  0  0  0  0  0  0  0  0  0  0
   26.9180  -20.3575  -10.6277 C   0  0  2  0  0  0  0  0  0  0  0  0
   26.7891  -20.8789  -12.0194 N   0  0  0  0  0  0  0  0  0  0  0  0
   28.0184  -21.1113  -10.0541 C   0  0  0  0  0  0  0  0  0  0  0  0
   28.9498  -20.5150   -9.2340 O   0  0  0  0  0  0  0  0  0  0  0  0
   28.1550  -22.3551  -10.3074 O   0  0  0  0  0  0  0  0  0  0  0  0
  2  1  1  6
  2  3  1  0
  3  4  1  0
  4  8  1  0
  5  4  2  0
  6  2  1  0
  7  6  2  0
 10  9  1  0
 10 12  1  0
 11 10  2  0
 13 12  1  0
 14 13  1  6
 14 15  1  0
 15  6  1  0
 16 14  1  0
 17 16  2  0
 19 18  1  1
 19 21  1  0
 19 20  1  0
 22 21  1  1
 22 23  1  0
 23 16  1  0
 24 22  1  0
 24 25  1  0
 26 24  2  0
M  END
$$$$
