DQL.pdb
     RDKit          3D

 26 25  0  0  1  0  0  0  0  0999 V2000
   14.2193  -14.3966  -13.1378 N   0  0  0  0  0  0  0  0  0  0  0  0
   13.7239  -13.0338  -13.1905 C   0  0  1  0  0  0  0  0  0  0  0  0
   12.4542  -12.9719  -12.3404 C   0  0  0  0  0  0  0  0  0  0  0  0
   11.3317  -13.6543  -13.0340 C   0  0  0  0  0  0  0  0  0  0  0  0
   11.1140  -13.4090  -14.2447 O   0  0  0  0  0  0  0  0  0  0  0  0
   14.7596  -12.1636  -12.5791 C   0  0  0  0  0  0  0  0  0  0  0  0
   15.3697  -12.5887  -11.5759 O   0  0  0  0  0  0  0  0  0  0  0  0
   10.5320  -14.5518  -12.3556 O   0  0  0  0  0  0  0  0  0  0  0  0
   18.3241   -8.0989  -15.6845 N   0  0  0  0  0  0  0  0  0  0  0  0
   18.7332   -7.8213  -14.3374 C   0  0  0  0  0  0  0  0  0  0  0  0
   19.6960   -7.0393  -14.2159 O   0  0  0  0  0  0  0  0  0  0  0  0
   18.0013   -8.4660  -13.2243 C   0  0  0  0  0  0  0  0  0  0  0  0
   16.9161   -9.3883  -13.7238 C   0  0  0  0  0  0  0  0  0  0  0  0
   16.1439  -10.0603  -12.6246 C   0  0  2  0  0  0  0  0  0  0  0  0
   15.0790  -10.8911  -13.0789 N   0  0  0  0  0  0  0  0  0  0  0  0
   15.5202   -8.9510  -11.8226 C   0  0  0  0  0  0  0  0  0  0  0  0
   14.5207   -8.3960  -12.3231 O   0  0  0  0  0  0  0  0  0  0  0  0
   12.4104   -7.8116   -7.4279 C   0  0  0  0  0  0  0  0  0  0  0  0
   13.4756   -7.0353   -8.2559 C   0  0  1  0  0  0  0  0  0  0  0  0
   14.2409   -6.2254   -7.2193 C   0  0  0  0  0  0  0  0  0  0  0  0
   14.3442   -8.0065   -8.9601 C   0  0  0  0  0  0  0  0  0  0  0  0
   15.3497   -7.4335   -9.8713 C   0  0  2  0  0  0  0  0  0  0  0  0
   16.0245   -8.5563  -10.5849 N   0  0  0  0  0  0  0  0  0  0  0  0
   16.4366   -6.6108   -9.3714 C   0  0  0  0  0  0  0  0  0  0  0  0
   17.7082   -7.1148   -9.2145 O   0  0  0  0  0  0  0  0  0  0  0  0
   16.2342   -5.3912   -9.0531 O   0  0  0  0  0  0  0  0  0  0  0  0
  2  1  1  1
  2  3  1  0
  3  4  1  0
  4  8  1  0
  5  4  2  0
  6  2  1  0
  7  6  2  0
 10  9  1  0
 10 12  1  0
 11 10  2  0
 13 12  1  0
 14 13  1  6
 14 15  1  0
 15  6  1  0
 16 14  1  0
 17 16  2  0
 19 18  1  1
 19 21  1  0
 19 20  1  0
 22 21  1  1
 22 23  1  0
 23 16  1  0
 24 22  1  0
 24 25  1  0
 26 24  2  0
M  END
$$$$
