DQL.pdb
     RDKit          3D

 26 25  0  0  1  0  0  0  0  0999 V2000
   25.0613  -18.4969  -20.9983 N   0  0  0  0  0  0  0  0  0  0  0  0
   24.6958  -17.4796  -20.0302 C   0  0  1  0  0  0  0  0  0  0  0  0
   25.2180  -17.9328  -18.6662 C   0  0  0  0  0  0  0  0  0  0  0  0
   24.3406  -18.9893  -18.0998 C   0  0  0  0  0  0  0  0  0  0  0  0
   23.3007  -19.3238  -18.7161 O   0  0  0  0  0  0  0  0  0  0  0  0
   25.3891  -16.2271  -20.4230 C   0  0  0  0  0  0  0  0  0  0  0  0
   26.6366  -16.2363  -20.4789 O   0  0  0  0  0  0  0  0  0  0  0  0
   24.6633  -19.6007  -16.9050 O   0  0  0  0  0  0  0  0  0  0  0  0
   21.6497  -13.1581  -22.4443 N   0  0  0  0  0  0  0  0  0  0  0  0
   22.4957  -13.5500  -23.5351 C   0  0  0  0  0  0  0  0  0  0  0  0
   21.9068  -13.9138  -24.5714 O   0  0  0  0  0  0  0  0  0  0  0  0
   23.9633  -13.4937  -23.3530 C   0  0  0  0  0  0  0  0  0  0  0  0
   24.3416  -12.9605  -21.9927 C   0  0  0  0  0  0  0  0  0  0  0  0
   25.2933  -13.8474  -21.2416 C   0  0  2  0  0  0  0  0  0  0  0  0
   24.7046  -15.0408  -20.7318 N   0  0  0  0  0  0  0  0  0  0  0  0
   25.7525  -13.0458  -20.0545 C   0  0  0  0  0  0  0  0  0  0  0  0
   25.1784  -13.2768  -18.9708 O   0  0  0  0  0  0  0  0  0  0  0  0
   27.6939  -11.9874  -15.8033 C   0  0  0  0  0  0  0  0  0  0  0  0
   28.6664  -12.4812  -16.9137 C   0  0  1  0  0  0  0  0  0  0  0  0
   29.3059  -13.7306  -16.3254 C   0  0  0  0  0  0  0  0  0  0  0  0
   27.8915  -12.7743  -18.1415 C   0  0  0  0  0  0  0  0  0  0  0  0
   27.3984  -11.6055  -18.8901 C   0  0  2  0  0  0  0  0  0  0  0  0
   26.7651  -12.0930  -20.1496 N   0  0  0  0  0  0  0  0  0  0  0  0
   28.2996  -10.5504  -19.3173 C   0  0  0  0  0  0  0  0  0  0  0  0
   28.7684  -10.4831  -20.6101 O   0  0  0  0  0  0  0  0  0  0  0  0
   28.6903   -9.6570  -18.4933 O   0  0  0  0  0  0  0  0  0  0  0  0
  2  1  1  6
  2  3  1  0
  3  4  1  0
  4  8  1  0
  5  4  2  0
  6  2  1  0
  7  6  2  0
 10  9  1  0
 10 12  1  0
 11 10  2  0
 13 12  1  0
 14 13  1  1
 14 15  1  0
 15  6  1  0
 16 14  1  0
 17 16  2  0
 19 18  1  1
 19 21  1  0
 19 20  1  0
 22 21  1  6
 22 23  1  0
 23 16  1  0
 24 22  1  0
 24 25  1  0
 26 24  2  0
M  END
$$$$
