DLG.pdb
     RDKit          3D

 21 20  0  0  1  0  0  0  0  0999 V2000
   23.0817  -11.3383  -20.1176 N   0  0  0  0  0  0  0  0  0  0  0  0
   23.4913   -9.9746  -19.9982 C   0  0  1  0  0  0  0  0  0  0  0  0
   22.5718   -9.0127  -20.7275 C   0  0  0  0  0  0  0  0  0  0  0  0
   22.7432   -9.1885  -22.1816 C   0  0  0  0  0  0  0  0  0  0  0  0
   21.9665   -9.9289  -22.8154 O   0  0  0  0  0  0  0  0  0  0  0  0
   23.6087   -9.6230  -18.5595 C   0  0  0  0  0  0  0  0  0  0  0  0
   22.7751  -10.0786  -17.7007 O   0  0  0  0  0  0  0  0  0  0  0  0
   23.7560   -8.5404  -22.8474 O   0  0  0  0  0  0  0  0  0  0  0  0
   25.6259  -11.4193  -15.3607 C   0  0  0  0  0  0  0  0  0  0  0  0
   26.3400  -10.6307  -16.4222 C   0  0  2  0  0  0  0  0  0  0  0  0
   27.8485  -10.9017  -16.2665 C   0  0  0  0  0  0  0  0  0  0  0  0
   26.1013   -9.1893  -16.2876 C   0  0  0  0  0  0  0  0  0  0  0  0
   24.7939   -8.5761  -16.5739 C   0  0  2  0  0  0  0  0  0  0  0  0
   24.6286   -8.7791  -18.0560 N   0  0  0  0  0  0  0  0  0  0  0  0
   24.5043   -7.2104  -16.2266 C   0  0  0  0  0  0  0  0  0  0  0  0
   25.3101   -6.3015  -16.5956 O   0  0  0  0  0  0  0  0  0  0  0  0
   23.3758   -6.7529  -15.5013 N   0  0  0  0  0  0  0  0  0  0  0  0
   23.2163   -5.3506  -15.1573 C   0  0  0  0  0  0  0  0  0  0  0  0
   21.9107   -5.1334  -14.5020 C   0  0  0  0  0  0  0  0  0  0  0  0
   21.7691   -5.2268  -13.1296 O   0  0  0  0  0  0  0  0  0  0  0  0
   20.8941   -4.8569  -15.1872 O   0  0  0  0  0  0  0  0  0  0  0  0
  2  1  1  1
  2  3  1  0
  3  4  1  0
  4  8  1  0
  4  5  2  0
  6  2  1  0
  7  6  2  0
 10  9  1  1
 10 12  1  0
 11 10  1  0
 13 12  1  6
 13 14  1  0
 14  6  1  0
 15 16  2  0
 15 13  1  0
 17 15  1  0
 18 17  1  0
 19 18  1  0
 20 19  1  0
 21 19  2  0
M  END
$$$$
