DLG.pdb
     RDKit          3D

 21 20  0  0  1  0  0  0  0  0999 V2000
   26.1999  -33.9733   -0.5402 N   0  0  0  0  0  0  0  0  0  0  0  0
   27.5747  -34.1741   -0.2065 C   0  0  1  0  0  0  0  0  0  0  0  0
   28.5247  -33.4559   -1.1468 C   0  0  0  0  0  0  0  0  0  0  0  0
   28.4188  -34.0537   -2.4907 C   0  0  0  0  0  0  0  0  0  0  0  0
   27.7139  -33.5078   -3.3615 O   0  0  0  0  0  0  0  0  0  0  0  0
   27.8004  -33.7663    1.2042 C   0  0  0  0  0  0  0  0  0  0  0  0
   28.9658  -33.8356    1.7306 O   0  0  0  0  0  0  0  0  0  0  0  0
   29.0934  -35.2123   -2.7933 O   0  0  0  0  0  0  0  0  0  0  0  0
   24.3510  -30.2054    3.0809 C   0  0  0  0  0  0  0  0  0  0  0  0
   24.9396  -31.4011    3.7754 C   0  0  2  0  0  0  0  0  0  0  0  0
   24.7079  -31.2208    5.2877 C   0  0  0  0  0  0  0  0  0  0  0  0
   26.3807  -31.5237    3.5283 C   0  0  0  0  0  0  0  0  0  0  0  0
   27.0584  -32.8278    3.4429 C   0  0  2  0  0  0  0  0  0  0  0  0
   26.7630  -33.2851    2.0398 N   0  0  0  0  0  0  0  0  0  0  0  0
   26.7843  -33.8876    4.3763 C   0  0  0  0  0  0  0  0  0  0  0  0
   27.1494  -33.7485    5.5841 O   0  0  0  0  0  0  0  0  0  0  0  0
   26.1214  -35.1066    4.0870 N   0  0  0  0  0  0  0  0  0  0  0  0
   25.9336  -36.1251    5.1057 C   0  0  0  0  0  0  0  0  0  0  0  0
   24.8905  -35.7016    6.0615 C   0  0  0  0  0  0  0  0  0  0  0  0
   24.2301  -34.4949    5.9193 O   0  0  0  0  0  0  0  0  0  0  0  0
   24.5807  -36.4381    7.0315 O   0  0  0  0  0  0  0  0  0  0  0  0
  2  1  1  6
  2  3  1  0
  3  4  1  0
  4  8  1  0
  4  5  2  0
  6  2  1  0
  7  6  2  0
 10  9  1  6
 10 12  1  0
 11 10  1  0
 13 12  1  1
 13 14  1  0
 14  6  1  0
 15 16  2  0
 15 13  1  0
 17 15  1  0
 18 17  1  0
 19 18  1  0
 20 19  1  0
 21 19  2  0
M  END
$$$$
