DLG.pdb
     RDKit          3D

 21 20  0  0  1  0  0  0  0  0999 V2000
   22.2734  -10.4082  -21.0476 N   0  0  0  0  0  0  0  0  0  0  0  0
   22.7193   -9.1495  -20.5391 C   0  0  1  0  0  0  0  0  0  0  0  0
   21.7513   -8.0168  -20.8265 C   0  0  0  0  0  0  0  0  0  0  0  0
   21.7421   -7.7445  -22.2758 C   0  0  0  0  0  0  0  0  0  0  0  0
   22.7478   -8.0038  -22.9647 O   0  0  0  0  0  0  0  0  0  0  0  0
   22.9848   -9.2763  -19.0829 C   0  0  0  0  0  0  0  0  0  0  0  0
   22.2651  -10.0378  -18.3467 O   0  0  0  0  0  0  0  0  0  0  0  0
   20.6298   -7.2053  -22.8766 O   0  0  0  0  0  0  0  0  0  0  0  0
   27.5350  -10.4431  -15.8203 C   0  0  0  0  0  0  0  0  0  0  0  0
   26.1588   -9.8737  -15.6195 C   0  0  2  0  0  0  0  0  0  0  0  0
   25.2977  -10.9636  -14.9535 C   0  0  0  0  0  0  0  0  0  0  0  0
   25.5350   -9.4877  -16.8902 C   0  0  0  0  0  0  0  0  0  0  0  0
   24.2613   -8.7520  -16.9523 C   0  0  2  0  0  0  0  0  0  0  0  0
   24.0290   -8.5776  -18.4291 N   0  0  0  0  0  0  0  0  0  0  0  0
   24.0753   -7.4987  -16.2712 C   0  0  0  0  0  0  0  0  0  0  0  0
   24.7607   -6.4954  -16.6386 O   0  0  0  0  0  0  0  0  0  0  0  0
   23.1741   -7.2514  -15.2055 N   0  0  0  0  0  0  0  0  0  0  0  0
   23.1337   -5.9643  -14.5332 C   0  0  0  0  0  0  0  0  0  0  0  0
   22.1382   -5.0848  -15.1787 C   0  0  0  0  0  0  0  0  0  0  0  0
   21.4601   -5.4787  -16.3177 O   0  0  0  0  0  0  0  0  0  0  0  0
   21.8867   -3.9507  -14.6993 O   0  0  0  0  0  0  0  0  0  0  0  0
  2  1  1  1
  2  3  1  0
  3  4  1  0
  4  8  1  0
  4  5  2  0
  6  2  1  0
  7  6  2  0
 10  9  1  6
 10 12  1  0
 11 10  1  0
 13 12  1  6
 13 14  1  0
 14  6  1  0
 15 16  2  0
 15 13  1  0
 17 15  1  0
 18 17  1  0
 19 18  1  0
 20 19  1  0
 21 19  2  0
M  END
$$$$
