DLG.pdb
     RDKit          3D

 21 20  0  0  1  0  0  0  0  0999 V2000
   23.0200  -14.6008  -17.5839 N   0  0  0  0  0  0  0  0  0  0  0  0
   23.2068  -13.2667  -18.0603 C   0  0  1  0  0  0  0  0  0  0  0  0
   21.9019  -12.5668  -18.3921 C   0  0  0  0  0  0  0  0  0  0  0  0
   21.2009  -13.3245  -19.4452 C   0  0  0  0  0  0  0  0  0  0  0  0
   20.0107  -13.6578  -19.2854 O   0  0  0  0  0  0  0  0  0  0  0  0
   23.9941  -12.4966  -17.0631 C   0  0  0  0  0  0  0  0  0  0  0  0
   23.7277  -12.5739  -15.8130 O   0  0  0  0  0  0  0  0  0  0  0  0
   21.8506  -13.6680  -20.6066 O   0  0  0  0  0  0  0  0  0  0  0  0
   29.6316  -11.9076  -16.6404 C   0  0  0  0  0  0  0  0  0  0  0  0
   28.3110  -11.7640  -15.9377 C   0  0  2  0  0  0  0  0  0  0  0  0
   27.8682  -13.1696  -15.4890 C   0  0  0  0  0  0  0  0  0  0  0  0
   27.2807  -11.2011  -16.8176 C   0  0  0  0  0  0  0  0  0  0  0  0
   25.8985  -10.9697  -16.3666 C   0  0  2  0  0  0  0  0  0  0  0  0
   25.0671  -11.6453  -17.4237 N   0  0  0  0  0  0  0  0  0  0  0  0
   25.3951   -9.6462  -16.1126 C   0  0  0  0  0  0  0  0  0  0  0  0
   25.9975   -8.9144  -15.2682 O   0  0  0  0  0  0  0  0  0  0  0  0
   24.2681   -9.0472  -16.7292 N   0  0  0  0  0  0  0  0  0  0  0  0
   23.9286   -7.6547  -16.4930 C   0  0  0  0  0  0  0  0  0  0  0  0
   22.7786   -7.5613  -15.5710 C   0  0  0  0  0  0  0  0  0  0  0  0
   22.2909   -6.3380  -15.1492 O   0  0  0  0  0  0  0  0  0  0  0  0
   22.2165   -8.6030  -15.1489 O   0  0  0  0  0  0  0  0  0  0  0  0
  2  1  1  1
  2  3  1  0
  3  4  1  0
  4  8  1  0
  4  5  2  0
  6  2  1  0
  7  6  2  0
 10  9  1  6
 10 12  1  0
 11 10  1  0
 13 12  1  6
 13 14  1  0
 14  6  1  0
 15 16  2  0
 15 13  1  0
 17 15  1  0
 18 17  1  0
 19 18  1  0
 20 19  1  0
 21 19  2  0
M  END
$$$$
