DLG.pdb
     RDKit          3D

 21 20  0  0  1  0  0  0  0  0999 V2000
   20.0435  -10.5080  -16.8522 N   0  0  0  0  0  0  0  0  0  0  0  0
   20.0346   -9.9214  -15.5493 C   0  0  1  0  0  0  0  0  0  0  0  0
   19.8365  -10.9395  -14.4415 C   0  0  0  0  0  0  0  0  0  0  0  0
   18.5416  -11.6182  -14.6345 C   0  0  0  0  0  0  0  0  0  0  0  0
   17.5423  -10.9640  -14.9903 O   0  0  0  0  0  0  0  0  0  0  0  0
   21.2869   -9.1467  -15.3528 C   0  0  0  0  0  0  0  0  0  0  0  0
   21.5351   -8.5693  -14.2370 O   0  0  0  0  0  0  0  0  0  0  0  0
   18.4260  -12.9716  -14.4248 O   0  0  0  0  0  0  0  0  0  0  0  0
   25.3180  -10.1927  -14.4268 C   0  0  0  0  0  0  0  0  0  0  0  0
   24.8595  -10.4105  -15.8413 C   0  0  2  0  0  0  0  0  0  0  0  0
   25.9844  -11.1553  -16.5849 C   0  0  0  0  0  0  0  0  0  0  0  0
   24.5931   -9.1437  -16.5320 C   0  0  0  0  0  0  0  0  0  0  0  0
   23.5276   -8.2216  -16.1057 C   0  0  2  0  0  0  0  0  0  0  0  0
   22.2659   -8.9998  -16.3657 N   0  0  0  0  0  0  0  0  0  0  0  0
   23.4107   -6.8946  -16.6487 C   0  0  0  0  0  0  0  0  0  0  0  0
   24.4130   -6.1180  -16.5865 O   0  0  0  0  0  0  0  0  0  0  0  0
   22.2639   -6.3445  -17.2741 N   0  0  0  0  0  0  0  0  0  0  0  0
   22.2733   -4.9984  -17.8202 C   0  0  0  0  0  0  0  0  0  0  0  0
   21.6970   -4.0505  -16.8453 C   0  0  0  0  0  0  0  0  0  0  0  0
   21.3627   -4.4490  -15.5641 O   0  0  0  0  0  0  0  0  0  0  0  0
   21.4982   -2.8517  -17.1660 O   0  0  0  0  0  0  0  0  0  0  0  0
  2  1  1  6
  2  3  1  0
  3  4  1  0
  4  8  1  0
  4  5  2  0
  6  2  1  0
  7  6  2  0
 10  9  1  1
 10 12  1  0
 11 10  1  0
 13 12  1  6
 13 14  1  0
 14  6  1  0
 15 16  2  0
 15 13  1  0
 17 15  1  0
 18 17  1  0
 19 18  1  0
 20 19  1  0
 21 19  2  0
M  END
$$$$
