DLG.pdb
     RDKit          3D

 21 20  0  0  1  0  0  0  0  0999 V2000
   19.5291  -11.2546  -18.9451 N   0  0  0  0  0  0  0  0  0  0  0  0
   20.6293  -10.3750  -18.7051 C   0  0  1  0  0  0  0  0  0  0  0  0
   20.5050   -9.0543  -19.4420 C   0  0  0  0  0  0  0  0  0  0  0  0
   20.6412   -9.2942  -20.8907 C   0  0  0  0  0  0  0  0  0  0  0  0
   20.7729  -10.4567  -21.3199 O   0  0  0  0  0  0  0  0  0  0  0  0
   20.7777  -10.1648  -17.2419 C   0  0  0  0  0  0  0  0  0  0  0  0
   19.8016  -10.3864  -16.4431 O   0  0  0  0  0  0  0  0  0  0  0  0
   20.6240   -8.2429  -21.7759 O   0  0  0  0  0  0  0  0  0  0  0  0
   22.4410  -12.5500  -14.2787 C   0  0  0  0  0  0  0  0  0  0  0  0
   23.4303  -11.7440  -15.0726 C   0  0  2  0  0  0  0  0  0  0  0  0
   24.8416  -12.2001  -14.6564 C   0  0  0  0  0  0  0  0  0  0  0  0
   23.3008  -10.3061  -14.8111 C   0  0  0  0  0  0  0  0  0  0  0  0
   22.0875   -9.5474  -15.1571 C   0  0  2  0  0  0  0  0  0  0  0  0
   21.9828   -9.7152  -16.6491 N   0  0  0  0  0  0  0  0  0  0  0  0
   21.9328   -8.1616  -14.8033 C   0  0  0  0  0  0  0  0  0  0  0  0
   22.0085   -7.8306  -13.5801 O   0  0  0  0  0  0  0  0  0  0  0  0
   21.7065   -7.0891  -15.7019 N   0  0  0  0  0  0  0  0  0  0  0  0
   21.5720   -5.7223  -15.2286 C   0  0  0  0  0  0  0  0  0  0  0  0
   20.1443   -5.3704  -15.0907 C   0  0  0  0  0  0  0  0  0  0  0  0
   19.7484   -4.0989  -14.7180 O   0  0  0  0  0  0  0  0  0  0  0  0
   19.2540   -6.2293  -15.3120 O   0  0  0  0  0  0  0  0  0  0  0  0
  2  1  1  1
  2  3  1  0
  3  4  1  0
  4  8  1  0
  4  5  2  0
  6  2  1  0
  7  6  2  0
 10  9  1  1
 10 12  1  0
 11 10  1  0
 13 12  1  6
 13 14  1  0
 14  6  1  0
 15 16  2  0
 15 13  1  0
 17 15  1  0
 18 17  1  0
 19 18  1  0
 20 19  1  0
 21 19  2  0
M  END
$$$$
