DLG.pdb
     RDKit          3D

 21 20  0  0  1  0  0  0  0  0999 V2000
   18.9649   -9.9188  -17.2410 N   0  0  0  0  0  0  0  0  0  0  0  0
   18.3269   -9.0662  -16.2882 C   0  0  1  0  0  0  0  0  0  0  0  0
   17.2856   -9.7861  -15.4514 C   0  0  0  0  0  0  0  0  0  0  0  0
   16.1804  -10.2221  -16.3248 C   0  0  0  0  0  0  0  0  0  0  0  0
   16.1920   -9.9311  -17.5365 O   0  0  0  0  0  0  0  0  0  0  0  0
   19.3605   -8.4287  -15.4325 C   0  0  0  0  0  0  0  0  0  0  0  0
   19.0415   -7.8518  -14.3347 O   0  0  0  0  0  0  0  0  0  0  0  0
   15.1329  -10.9500  -15.8128 O   0  0  0  0  0  0  0  0  0  0  0  0
   22.8472  -10.3021  -13.1366 C   0  0  0  0  0  0  0  0  0  0  0  0
   22.9110  -10.1126  -14.6260 C   0  0  2  0  0  0  0  0  0  0  0  0
   24.2125  -10.7702  -15.1228 C   0  0  0  0  0  0  0  0  0  0  0  0
   22.9257   -8.6932  -14.9975 C   0  0  0  0  0  0  0  0  0  0  0  0
   21.7508   -7.8219  -14.8309 C   0  0  2  0  0  0  0  0  0  0  0  0
   20.7363   -8.4182  -15.7691 N   0  0  0  0  0  0  0  0  0  0  0  0
   21.8281   -6.3987  -15.0260 C   0  0  0  0  0  0  0  0  0  0  0  0
   21.8334   -5.9433  -16.2109 O   0  0  0  0  0  0  0  0  0  0  0  0
   21.8921   -5.4167  -14.0059 N   0  0  0  0  0  0  0  0  0  0  0  0
   22.0197   -4.0048  -14.3230 C   0  0  0  0  0  0  0  0  0  0  0  0
   20.6891   -3.3641  -14.3338 C   0  0  0  0  0  0  0  0  0  0  0  0
   20.5497   -1.9953  -14.4724 O   0  0  0  0  0  0  0  0  0  0  0  0
   19.6485   -4.0588  -14.2161 O   0  0  0  0  0  0  0  0  0  0  0  0
  2  1  1  6
  2  3  1  0
  3  4  1  0
  4  8  1  0
  4  5  2  0
  6  2  1  0
  7  6  2  0
 10  9  1  1
 10 12  1  0
 11 10  1  0
 13 12  1  6
 13 14  1  0
 14  6  1  0
 15 16  2  0
 15 13  1  0
 17 15  1  0
 18 17  1  0
 19 18  1  0
 20 19  1  0
 21 19  2  0
M  END
$$$$
