DLG.pdb
     RDKit          3D

 21 20  0  0  1  0  0  0  0  0999 V2000
   22.0927  -12.3341  -19.4898 N   0  0  0  0  0  0  0  0  0  0  0  0
   22.8484  -11.1219  -19.5261 C   0  0  1  0  0  0  0  0  0  0  0  0
   22.1777  -10.0285  -20.3367 C   0  0  0  0  0  0  0  0  0  0  0  0
   22.0866  -10.4572  -21.7448 C   0  0  0  0  0  0  0  0  0  0  0  0
   23.0600  -11.0109  -22.2915 O   0  0  0  0  0  0  0  0  0  0  0  0
   23.1211  -10.6734  -18.1362 C   0  0  0  0  0  0  0  0  0  0  0  0
   22.4876  -11.1799  -17.1452 O   0  0  0  0  0  0  0  0  0  0  0  0
   20.9329  -10.2510  -22.4628 O   0  0  0  0  0  0  0  0  0  0  0  0
   26.1179  -11.6360  -15.3501 C   0  0  0  0  0  0  0  0  0  0  0  0
   26.4595  -10.6316  -16.4145 C   0  0  2  0  0  0  0  0  0  0  0  0
   27.9755  -10.3693  -16.3364 C   0  0  0  0  0  0  0  0  0  0  0  0
   25.7486   -9.3631  -16.2191 C   0  0  0  0  0  0  0  0  0  0  0  0
   24.2931   -9.2382  -16.4012 C   0  0  2  0  0  0  0  0  0  0  0  0
   24.0789   -9.6777  -17.8247 N   0  0  0  0  0  0  0  0  0  0  0  0
   23.6014   -8.0009  -16.1565 C   0  0  0  0  0  0  0  0  0  0  0  0
   23.7433   -7.4334  -15.0298 O   0  0  0  0  0  0  0  0  0  0  0  0
   22.7580   -7.3191  -17.0691 N   0  0  0  0  0  0  0  0  0  0  0  0
   22.2167   -6.0065  -16.7622 C   0  0  0  0  0  0  0  0  0  0  0  0
   20.9184   -6.1410  -16.0713 C   0  0  0  0  0  0  0  0  0  0  0  0
   20.4261   -7.3780  -15.6973 O   0  0  0  0  0  0  0  0  0  0  0  0
   20.2304   -5.1229  -15.8079 O   0  0  0  0  0  0  0  0  0  0  0  0
  2  1  1  1
  2  3  1  0
  3  4  1  0
  4  8  1  0
  4  5  2  0
  6  2  1  0
  7  6  2  0
 10  9  1  1
 10 12  1  0
 11 10  1  0
 13 12  1  6
 13 14  1  0
 14  6  1  0
 15 16  2  0
 15 13  1  0
 17 15  1  0
 18 17  1  0
 19 18  1  0
 20 19  1  0
 21 19  2  0
M  END
$$$$
