DLG.pdb
     RDKit          3D

 21 20  0  0  1  0  0  0  0  0999 V2000
   16.0231  -12.0060  -15.7816 N   0  0  0  0  0  0  0  0  0  0  0  0
   17.3881  -11.6191  -15.6125 C   0  0  1  0  0  0  0  0  0  0  0  0
   18.1983  -11.7268  -16.8910 C   0  0  0  0  0  0  0  0  0  0  0  0
   18.4030  -13.1507  -17.2153 C   0  0  0  0  0  0  0  0  0  0  0  0
   17.6902  -13.7022  -18.0760 O   0  0  0  0  0  0  0  0  0  0  0  0
   17.4413  -10.2434  -15.0540 C   0  0  0  0  0  0  0  0  0  0  0  0
   16.6877   -9.3164  -15.5153 O   0  0  0  0  0  0  0  0  0  0  0  0
   19.3770  -13.8784  -16.5745 O   0  0  0  0  0  0  0  0  0  0  0  0
   15.6583   -7.7094  -11.9706 C   0  0  0  0  0  0  0  0  0  0  0  0
   16.5581   -8.8687  -11.6468 C   0  0  2  0  0  0  0  0  0  0  0  0
   16.5247   -9.0705  -10.1200 C   0  0  0  0  0  0  0  0  0  0  0  0
   17.9433   -8.6194  -12.0615 C   0  0  0  0  0  0  0  0  0  0  0  0
   18.3284   -8.4657  -13.4740 C   0  0  2  0  0  0  0  0  0  0  0  0
   18.3107   -9.8766  -13.9977 N   0  0  0  0  0  0  0  0  0  0  0  0
   19.5494   -7.8103  -13.8604 C   0  0  0  0  0  0  0  0  0  0  0  0
   20.6519   -8.4105  -13.6714 O   0  0  0  0  0  0  0  0  0  0  0  0
   19.6587   -6.5292  -14.4569 N   0  0  0  0  0  0  0  0  0  0  0  0
   20.9483   -5.9824  -14.8419 C   0  0  0  0  0  0  0  0  0  0  0  0
   21.6231   -5.3961  -13.6664 C   0  0  0  0  0  0  0  0  0  0  0  0
   22.8426   -4.7542  -13.7815 O   0  0  0  0  0  0  0  0  0  0  0  0
   21.0956   -5.4706  -12.5282 O   0  0  0  0  0  0  0  0  0  0  0  0
  2  1  1  6
  2  3  1  0
  3  4  1  0
  4  8  1  0
  4  5  2  0
  6  2  1  0
  7  6  2  0
 10  9  1  1
 10 12  1  0
 11 10  1  0
 13 12  1  1
 13 14  1  0
 14  6  1  0
 15 16  2  0
 15 13  1  0
 17 15  1  0
 18 17  1  0
 19 18  1  0
 20 19  1  0
 21 19  2  0
M  END
$$$$
