DLG.pdb
     RDKit          3D

 21 20  0  0  1  0  0  0  0  0999 V2000
   19.4826  -11.8765  -17.6946 N   0  0  0  0  0  0  0  0  0  0  0  0
   18.4713  -11.4337  -16.7874 C   0  0  1  0  0  0  0  0  0  0  0  0
   18.0410  -12.5093  -15.8073 C   0  0  0  0  0  0  0  0  0  0  0  0
   17.3779  -13.5996  -16.5463 C   0  0  0  0  0  0  0  0  0  0  0  0
   17.0974  -14.6656  -15.9648 O   0  0  0  0  0  0  0  0  0  0  0  0
   18.9474  -10.2174  -16.0795 C   0  0  0  0  0  0  0  0  0  0  0  0
   18.2456   -9.6775  -15.1543 O   0  0  0  0  0  0  0  0  0  0  0  0
   17.0646  -13.4504  -17.8762 O   0  0  0  0  0  0  0  0  0  0  0  0
   21.9088   -9.4315  -12.9043 C   0  0  0  0  0  0  0  0  0  0  0  0
   22.3858   -9.7592  -14.2912 C   0  0  2  0  0  0  0  0  0  0  0  0
   23.9198   -9.8896  -14.2363 C   0  0  0  0  0  0  0  0  0  0  0  0
   22.0339   -8.7093  -15.2538 C   0  0  0  0  0  0  0  0  0  0  0  0
   20.6385   -8.3874  -15.5950 C   0  0  2  0  0  0  0  0  0  0  0  0
   20.1822   -9.5902  -16.3762 N   0  0  0  0  0  0  0  0  0  0  0  0
   20.2879   -7.1808  -16.2956 C   0  0  0  0  0  0  0  0  0  0  0  0
   20.8171   -6.9549  -17.4271 O   0  0  0  0  0  0  0  0  0  0  0  0
   19.3795   -6.1883  -15.8497 N   0  0  0  0  0  0  0  0  0  0  0  0
   19.1739   -4.9607  -16.5985 C   0  0  0  0  0  0  0  0  0  0  0  0
   19.5726   -3.7954  -15.7834 C   0  0  0  0  0  0  0  0  0  0  0  0
   19.4727   -2.5059  -16.2727 O   0  0  0  0  0  0  0  0  0  0  0  0
   20.0144   -3.9566  -14.6180 O   0  0  0  0  0  0  0  0  0  0  0  0
  2  1  1  1
  2  3  1  0
  3  4  1  0
  4  8  1  0
  4  5  2  0
  6  2  1  0
  7  6  2  0
 10  9  1  1
 10 12  1  0
 11 10  1  0
 13 12  1  6
 13 14  1  0
 14  6  1  0
 15 16  2  0
 15 13  1  0
 17 15  1  0
 18 17  1  0
 19 18  1  0
 20 19  1  0
 21 19  2  0
M  END
$$$$
