DLG.pdb
     RDKit          3D

 21 20  0  0  1  0  0  0  0  0999 V2000
   19.9697  -11.4722  -17.4098 N   0  0  0  0  0  0  0  0  0  0  0  0
   19.7954  -11.1557  -16.0274 C   0  0  1  0  0  0  0  0  0  0  0  0
   19.4854  -12.3720  -15.1746 C   0  0  0  0  0  0  0  0  0  0  0  0
   18.2095  -12.9623  -15.6200 C   0  0  0  0  0  0  0  0  0  0  0  0
   17.3035  -12.2283  -16.0598 O   0  0  0  0  0  0  0  0  0  0  0  0
   21.0014  -10.4428  -15.5327 C   0  0  0  0  0  0  0  0  0  0  0  0
   21.0635  -10.0125  -14.3282 O   0  0  0  0  0  0  0  0  0  0  0  0
   18.0095  -14.3205  -15.5545 O   0  0  0  0  0  0  0  0  0  0  0  0
   26.8117  -10.4819  -17.0473 C   0  0  0  0  0  0  0  0  0  0  0  0
   25.8633   -9.8158  -16.0906 C   0  0  2  0  0  0  0  0  0  0  0  0
   26.2710  -10.2343  -14.6652 C   0  0  0  0  0  0  0  0  0  0  0  0
   24.4733  -10.2232  -16.3245 C   0  0  0  0  0  0  0  0  0  0  0  0
   23.3288   -9.4639  -15.7945 C   0  0  2  0  0  0  0  0  0  0  0  0
   22.1359  -10.1983  -16.3447 N   0  0  0  0  0  0  0  0  0  0  0  0
   23.1863   -8.0503  -16.0203 C   0  0  0  0  0  0  0  0  0  0  0  0
   24.0029   -7.2562  -15.4597 O   0  0  0  0  0  0  0  0  0  0  0  0
   22.2072   -7.4275  -16.8341 N   0  0  0  0  0  0  0  0  0  0  0  0
   22.2497   -6.0021  -17.1107 C   0  0  0  0  0  0  0  0  0  0  0  0
   21.4038   -5.2716  -16.1454 C   0  0  0  0  0  0  0  0  0  0  0  0
   21.2565   -3.8982  -16.2116 O   0  0  0  0  0  0  0  0  0  0  0  0
   20.7961   -5.8916  -15.2368 O   0  0  0  0  0  0  0  0  0  0  0  0
  2  1  1  6
  2  3  1  0
  3  4  1  0
  4  8  1  0
  4  5  2  0
  6  2  1  0
  7  6  2  0
 10  9  1  6
 10 12  1  0
 11 10  1  0
 13 12  1  6
 13 14  1  0
 14  6  1  0
 15 16  2  0
 15 13  1  0
 17 15  1  0
 18 17  1  0
 19 18  1  0
 20 19  1  0
 21 19  2  0
M  END
$$$$
