DLG.pdb
     RDKit          3D

 21 20  0  0  1  0  0  0  0  0999 V2000
   18.0063  -12.2034  -15.5425 N   0  0  0  0  0  0  0  0  0  0  0  0
   18.3438  -11.1049  -16.3917 C   0  0  1  0  0  0  0  0  0  0  0  0
   17.1283  -10.4268  -16.9962 C   0  0  0  0  0  0  0  0  0  0  0  0
   16.5284  -11.3196  -18.0050 C   0  0  0  0  0  0  0  0  0  0  0  0
   17.1766  -12.2900  -18.4422 O   0  0  0  0  0  0  0  0  0  0  0  0
   19.1795  -10.1386  -15.6332 C   0  0  0  0  0  0  0  0  0  0  0  0
   18.8697   -9.7969  -14.4385 O   0  0  0  0  0  0  0  0  0  0  0  0
   15.2553  -11.0905  -18.4695 O   0  0  0  0  0  0  0  0  0  0  0  0
   22.7972  -10.0481  -13.2024 C   0  0  0  0  0  0  0  0  0  0  0  0
   22.9658  -10.2499  -14.6820 C   0  0  2  0  0  0  0  0  0  0  0  0
   24.4648  -10.4811  -14.9516 C   0  0  0  0  0  0  0  0  0  0  0  0
   22.5215   -9.0804  -15.4486 C   0  0  0  0  0  0  0  0  0  0  0  0
   21.1476   -8.5581  -15.3654 C   0  0  2  0  0  0  0  0  0  0  0  0
   20.3477   -9.5458  -16.1715 N   0  0  0  0  0  0  0  0  0  0  0  0
   20.8213   -7.2150  -15.7643 C   0  0  0  0  0  0  0  0  0  0  0  0
   21.4673   -6.2505  -15.2505 O   0  0  0  0  0  0  0  0  0  0  0  0
   19.8308   -6.8392  -16.7059 N   0  0  0  0  0  0  0  0  0  0  0  0
   19.6081   -5.4464  -17.0534 C   0  0  0  0  0  0  0  0  0  0  0  0
   18.6378   -4.8387  -16.1205 C   0  0  0  0  0  0  0  0  0  0  0  0
   18.1359   -5.5444  -15.0424 O   0  0  0  0  0  0  0  0  0  0  0  0
   18.2467   -3.6567  -16.2915 O   0  0  0  0  0  0  0  0  0  0  0  0
  2  1  1  1
  2  3  1  0
  3  4  1  0
  4  8  1  0
  4  5  2  0
  6  2  1  0
  7  6  2  0
 10  9  1  1
 10 12  1  0
 11 10  1  0
 13 12  1  6
 13 14  1  0
 14  6  1  0
 15 16  2  0
 15 13  1  0
 17 15  1  0
 18 17  1  0
 19 18  1  0
 20 19  1  0
 21 19  2  0
M  END
$$$$
