DLG.pdb
     RDKit          3D

 21 20  0  0  1  0  0  0  0  0999 V2000
   25.6787  -19.5140  -15.6614 N   0  0  0  0  0  0  0  0  0  0  0  0
   25.6225  -20.9407  -15.7173 C   0  0  1  0  0  0  0  0  0  0  0  0
   26.9910  -21.5920  -15.6420 C   0  0  0  0  0  0  0  0  0  0  0  0
   27.7953  -21.1625  -16.8009 C   0  0  0  0  0  0  0  0  0  0  0  0
   27.2360  -20.8905  -17.8809 O   0  0  0  0  0  0  0  0  0  0  0  0
   24.7281  -21.4378  -14.6402 C   0  0  0  0  0  0  0  0  0  0  0  0
   24.5582  -22.6932  -14.4531 O   0  0  0  0  0  0  0  0  0  0  0  0
   29.1621  -21.0586  -16.7008 O   0  0  0  0  0  0  0  0  0  0  0  0
   25.4911  -22.2853  -10.9286 C   0  0  0  0  0  0  0  0  0  0  0  0
   25.1708  -20.8307  -11.1290 C   0  0  2  0  0  0  0  0  0  0  0  0
   25.4990  -20.0974   -9.8146 C   0  0  0  0  0  0  0  0  0  0  0  0
   23.7541  -20.6206  -11.4476 C   0  0  0  0  0  0  0  0  0  0  0  0
   23.1395  -21.1309  -12.6842 C   0  0  2  0  0  0  0  0  0  0  0  0
   24.0206  -20.5732  -13.7695 N   0  0  0  0  0  0  0  0  0  0  0  0
   21.7563  -20.8915  -12.9986 C   0  0  0  0  0  0  0  0  0  0  0  0
   20.8637  -21.5060  -12.3374 O   0  0  0  0  0  0  0  0  0  0  0  0
   21.2649  -20.0087  -13.9926 N   0  0  0  0  0  0  0  0  0  0  0  0
   20.1382  -20.3709  -14.8350 C   0  0  0  0  0  0  0  0  0  0  0  0
   18.8702  -20.1454  -14.1122 C   0  0  0  0  0  0  0  0  0  0  0  0
   17.6718  -20.0020  -14.7873 O   0  0  0  0  0  0  0  0  0  0  0  0
   18.8572  -20.0793  -12.8573 O   0  0  0  0  0  0  0  0  0  0  0  0
  2  1  1  1
  2  3  1  0
  3  4  1  0
  4  8  1  0
  4  5  2  0
  6  2  1  0
  7  6  2  0
 10  9  1  1
 10 12  1  0
 11 10  1  0
 13 12  1  1
 13 14  1  0
 14  6  1  0
 15 16  2  0
 15 13  1  0
 17 15  1  0
 18 17  1  0
 19 18  1  0
 20 19  1  0
 21 19  2  0
M  END
$$$$
