DLG.pdb
     RDKit          3D

 21 20  0  0  1  0  0  0  0  0999 V2000
   22.4680  -21.3424  -15.4616 N   0  0  0  0  0  0  0  0  0  0  0  0
   22.2520  -20.8179  -14.1501 C   0  0  1  0  0  0  0  0  0  0  0  0
   21.7599  -21.8633  -13.1665 C   0  0  0  0  0  0  0  0  0  0  0  0
   20.2941  -21.9799  -13.2777 C   0  0  0  0  0  0  0  0  0  0  0  0
   19.5950  -20.9551  -13.3973 O   0  0  0  0  0  0  0  0  0  0  0  0
   23.5000  -20.1703  -13.6704 C   0  0  0  0  0  0  0  0  0  0  0  0
   23.6040  -18.8947  -13.6252 O   0  0  0  0  0  0  0  0  0  0  0  0
   19.6890  -23.2136  -13.2506 O   0  0  0  0  0  0  0  0  0  0  0  0
   24.7189  -19.5402   -9.8653 C   0  0  0  0  0  0  0  0  0  0  0  0
   25.0841  -20.9132  -10.3550 C   0  0  2  0  0  0  0  0  0  0  0  0
   25.6586  -21.6956   -9.1587 C   0  0  0  0  0  0  0  0  0  0  0  0
   26.0939  -20.8650  -11.4184 C   0  0  0  0  0  0  0  0  0  0  0  0
   25.8492  -20.2007  -12.7091 C   0  0  2  0  0  0  0  0  0  0  0  0
   24.6313  -20.9067  -13.2414 N   0  0  0  0  0  0  0  0  0  0  0  0
   26.8621  -20.1261  -13.7279 C   0  0  0  0  0  0  0  0  0  0  0  0
   27.9383  -19.5017  -13.4757 O   0  0  0  0  0  0  0  0  0  0  0  0
   26.7910  -20.7000  -15.0219 N   0  0  0  0  0  0  0  0  0  0  0  0
   27.9470  -20.7268  -15.9013 C   0  0  0  0  0  0  0  0  0  0  0  0
   27.7709  -19.7577  -17.0017 C   0  0  0  0  0  0  0  0  0  0  0  0
   28.7063  -19.6384  -18.0132 O   0  0  0  0  0  0  0  0  0  0  0  0
   26.7569  -19.0162  -17.0392 O   0  0  0  0  0  0  0  0  0  0  0  0
  2  1  1  6
  2  3  1  0
  3  4  1  0
  4  8  1  0
  4  5  2  0
  6  2  1  0
  7  6  2  0
 10  9  1  1
 10 12  1  0
 11 10  1  0
 13 12  1  1
 13 14  1  0
 14  6  1  0
 15 16  2  0
 15 13  1  0
 17 15  1  0
 18 17  1  0
 19 18  1  0
 20 19  1  0
 21 19  2  0
M  END
$$$$
