DLG.pdb
     RDKit          3D

 21 20  0  0  1  0  0  0  0  0999 V2000
   20.7297  -20.5402  -13.7908 N   0  0  0  0  0  0  0  0  0  0  0  0
   21.7834  -20.3345  -14.7338 C   0  0  1  0  0  0  0  0  0  0  0  0
   21.4212  -19.3392  -15.8206 C   0  0  0  0  0  0  0  0  0  0  0  0
   20.3488  -19.9071  -16.6584 C   0  0  0  0  0  0  0  0  0  0  0  0
   20.4099  -21.0959  -17.0273 O   0  0  0  0  0  0  0  0  0  0  0  0
   23.0134  -19.9204  -14.0108 C   0  0  0  0  0  0  0  0  0  0  0  0
   23.1393  -18.7306  -13.5544 O   0  0  0  0  0  0  0  0  0  0  0  0
   19.2775  -19.1341  -17.0379 O   0  0  0  0  0  0  0  0  0  0  0  0
   25.9150  -21.6400   -9.4997 C   0  0  0  0  0  0  0  0  0  0  0  0
   25.8592  -20.5829  -10.5665 C   0  0  2  0  0  0  0  0  0  0  0  0
   24.9013  -19.4798  -10.0778 C   0  0  0  0  0  0  0  0  0  0  0  0
   25.3592  -21.1148  -11.8392 C   0  0  0  0  0  0  0  0  0  0  0  0
   25.3398  -20.3154  -13.0752 C   0  0  2  0  0  0  0  0  0  0  0  0
   24.1029  -20.7968  -13.7847 N   0  0  0  0  0  0  0  0  0  0  0  0
   26.4550  -20.2962  -13.9838 C   0  0  0  0  0  0  0  0  0  0  0  0
   26.7437  -21.3562  -14.6200 O   0  0  0  0  0  0  0  0  0  0  0  0
   27.2885  -19.1841  -14.2620 N   0  0  0  0  0  0  0  0  0  0  0  0
   28.3797  -19.2775  -15.2165 C   0  0  0  0  0  0  0  0  0  0  0  0
   27.8867  -18.9996  -16.5806 C   0  0  0  0  0  0  0  0  0  0  0  0
   28.3422  -17.9124  -17.3037 O   0  0  0  0  0  0  0  0  0  0  0  0
   27.0355  -19.7542  -17.1146 O   0  0  0  0  0  0  0  0  0  0  0  0
  2  1  1  1
  2  3  1  0
  3  4  1  0
  4  8  1  0
  4  5  2  0
  6  2  1  0
  7  6  2  0
 10  9  1  1
 10 12  1  0
 11 10  1  0
 13 12  1  1
 13 14  1  0
 14  6  1  0
 15 16  2  0
 15 13  1  0
 17 15  1  0
 18 17  1  0
 19 18  1  0
 20 19  1  0
 21 19  2  0
M  END
$$$$
