DLG.pdb
     RDKit          3D

 21 20  0  0  1  0  0  0  0  0999 V2000
   26.4686  -20.3029  -16.6223 N   0  0  0  0  0  0  0  0  0  0  0  0
   25.3875  -19.5304  -16.0966 C   0  0  1  0  0  0  0  0  0  0  0  0
   24.4939  -18.9484  -17.1762 C   0  0  0  0  0  0  0  0  0  0  0  0
   25.2872  -18.0362  -18.0207 C   0  0  0  0  0  0  0  0  0  0  0  0
   26.2242  -17.3828  -17.5224 O   0  0  0  0  0  0  0  0  0  0  0  0
   24.6099  -20.3626  -15.1427 C   0  0  0  0  0  0  0  0  0  0  0  0
   24.2408  -21.5487  -15.4537 O   0  0  0  0  0  0  0  0  0  0  0  0
   25.0016  -17.8992  -19.3581 O   0  0  0  0  0  0  0  0  0  0  0  0
   25.8235  -22.3546  -11.6694 C   0  0  0  0  0  0  0  0  0  0  0  0
   25.5179  -20.9069  -11.4061 C   0  0  2  0  0  0  0  0  0  0  0  0
   25.8673  -20.6186   -9.9337 C   0  0  0  0  0  0  0  0  0  0  0  0
   24.1007  -20.5974  -11.6260 C   0  0  0  0  0  0  0  0  0  0  0  0
   23.4438  -20.7913  -12.9291 C   0  0  2  0  0  0  0  0  0  0  0  0
   24.2345  -19.9069  -13.8553 N   0  0  0  0  0  0  0  0  0  0  0  0
   22.0351  -20.5625  -13.1100 C   0  0  0  0  0  0  0  0  0  0  0  0
   21.5804  -19.3885  -12.9469 O   0  0  0  0  0  0  0  0  0  0  0  0
   21.0691  -21.5348  -13.4711 N   0  0  0  0  0  0  0  0  0  0  0  0
   19.6650  -21.1897  -13.6108 C   0  0  0  0  0  0  0  0  0  0  0  0
   18.8682  -22.4029  -13.8836 C   0  0  0  0  0  0  0  0  0  0  0  0
   17.4866  -22.3629  -13.9261 O   0  0  0  0  0  0  0  0  0  0  0  0
   19.4376  -23.5051  -14.0843 O   0  0  0  0  0  0  0  0  0  0  0  0
  2  1  1  6
  2  3  1  0
  3  4  1  0
  4  8  1  0
  4  5  2  0
  6  2  1  0
  7  6  2  0
 10  9  1  1
 10 12  1  0
 11 10  1  0
 13 12  1  1
 13 14  1  0
 14  6  1  0
 15 16  2  0
 15 13  1  0
 17 15  1  0
 18 17  1  0
 19 18  1  0
 20 19  1  0
 21 19  2  0
M  END
$$$$
