NMV.pdb
     RDKit          3D

 24 23  0  0  1  0  0  0  0  0999 V2000
    7.6605  -15.0526   17.3344 N   0  0  0  0  0  0  0  0  0  0  0  0
    8.2015  -13.8707   17.8776 C   0  0  0  0  0  0  0  0  0  0  0  0
    8.3669  -12.8902   17.1024 O   0  0  0  0  0  0  0  0  0  0  0  0
    8.5904  -13.6966   19.2954 C   0  0  0  0  0  0  0  0  0  0  0  0
    8.4033  -14.9593   20.0896 C   0  0  2  0  0  0  0  0  0  0  0  0
    7.0600  -15.4711   20.0204 N   0  0  0  0  0  0  0  0  0  0  0  0
    8.7338  -14.6484   21.5005 C   0  0  0  0  0  0  0  0  0  0  0  0
    9.9109  -14.3305   21.8204 O   0  0  0  0  0  0  0  0  0  0  0  0
    6.9420  -10.8067   26.8132 C   0  0  0  0  0  0  0  0  0  0  0  0
    6.1932  -12.4594   26.9127 S   0  0  0  0  0  0  0  0  0  0  0  0
    7.4122  -13.6260   26.1609 C   0  0  0  0  0  0  0  0  0  0  0  0
    7.1366  -13.7539   24.6974 C   0  0  0  0  0  0  0  0  0  0  0  0
    8.1942  -14.5167   23.9605 C   0  0  2  0  0  0  0  0  0  0  0  0
    7.7864  -14.6858   22.5453 N   0  0  0  0  0  0  0  0  0  0  0  0
    8.3981  -15.8525   24.5620 C   0  0  0  0  0  0  0  0  0  0  0  0
    7.4657  -16.6443   24.6842 O   0  0  0  0  0  0  0  0  0  0  0  0
   12.3232  -17.5231   24.9831 C   0  0  0  0  0  0  0  0  0  0  0  0
   11.0372  -18.2688   24.8888 C   0  0  2  0  0  0  0  0  0  0  0  0
   10.6640  -18.5950   23.4570 C   0  0  0  0  0  0  0  0  0  0  0  0
    9.8904  -17.5756   25.6164 C   0  0  2  0  0  0  0  0  0  0  0  0
    9.6923  -16.2754   25.0262 N   0  0  0  0  0  0  0  0  0  0  0  0
   10.1611  -17.4985   27.0733 C   0  0  0  0  0  0  0  0  0  0  0  0
   10.4171  -16.3947   27.6118 O   0  0  0  0  0  0  0  0  0  0  0  0
   10.1469  -18.6097   27.8978 O   0  0  0  0  0  0  0  0  0  0  0  0
  2  1  1  0
  2  3  2  0
  4  2  1  0
  5  7  1  0
  5  4  1  0
  5  6  1  1
  7  8  2  0
  9 10  1  0
 10 11  1  0
 11 12  1  0
 13 12  1  1
 14 13  1  0
 14  7  1  0
 15 16  2  0
 15 13  1  0
 18 17  1  6
 19 18  1  0
 20 18  1  0
 20 21  1  6
 21 15  1  0
 22 20  1  0
 23 22  2  0
 24 22  1  0
M  END
$$$$
