NMV.pdb
     RDKit          3D

 24 23  0  0  1  0  0  0  0  0999 V2000
   11.3272  -18.9023   19.0970 N   0  0  0  0  0  0  0  0  0  0  0  0
   11.6163  -17.5235   19.0866 C   0  0  0  0  0  0  0  0  0  0  0  0
   12.2623  -17.0664   18.1052 O   0  0  0  0  0  0  0  0  0  0  0  0
   11.2155  -16.5710   20.1467 C   0  0  0  0  0  0  0  0  0  0  0  0
   10.6137  -17.2704   21.3337 C   0  0  2  0  0  0  0  0  0  0  0  0
    9.3444  -17.8819   21.0398 N   0  0  0  0  0  0  0  0  0  0  0  0
   10.4307  -16.2567   22.3993 C   0  0  0  0  0  0  0  0  0  0  0  0
   11.3882  -15.5077   22.7326 O   0  0  0  0  0  0  0  0  0  0  0  0
    5.7729  -11.6323   26.5275 C   0  0  0  0  0  0  0  0  0  0  0  0
    5.7631  -13.1954   25.6010 S   0  0  0  0  0  0  0  0  0  0  0  0
    7.5050  -13.8100   25.6043 C   0  0  0  0  0  0  0  0  0  0  0  0
    7.6904  -14.7770   24.4795 C   0  0  0  0  0  0  0  0  0  0  0  0
    9.1227  -15.1498   24.2498 C   0  0  2  0  0  0  0  0  0  0  0  0
    9.2146  -16.0677   23.0892 N   0  0  0  0  0  0  0  0  0  0  0  0
    9.6905  -15.8233   25.4380 C   0  0  0  0  0  0  0  0  0  0  0  0
    9.7818  -17.0480   25.4922 O   0  0  0  0  0  0  0  0  0  0  0  0
    9.3443  -14.7996   29.5458 C   0  0  0  0  0  0  0  0  0  0  0  0
   10.6893  -14.7951   28.9057 C   0  0  2  0  0  0  0  0  0  0  0  0
   11.1587  -13.3963   28.5610 C   0  0  0  0  0  0  0  0  0  0  0  0
   10.7793  -15.7230   27.6990 C   0  0  2  0  0  0  0  0  0  0  0  0
   10.1565  -15.0728   26.5732 N   0  0  0  0  0  0  0  0  0  0  0  0
   10.1654  -17.0399   28.0004 C   0  0  0  0  0  0  0  0  0  0  0  0
   10.8284  -17.9270   28.5897 O   0  0  0  0  0  0  0  0  0  0  0  0
    8.8624  -17.3551   27.6575 O   0  0  0  0  0  0  0  0  0  0  0  0
  2  1  1  0
  2  3  2  0
  4  2  1  0
  5  7  1  0
  5  4  1  0
  5  6  1  6
  7  8  2  0
  9 10  1  0
 10 11  1  0
 11 12  1  0
 13 12  1  1
 14 13  1  0
 14  7  1  0
 15 16  2  0
 15 13  1  0
 18 17  1  6
 19 18  1  0
 20 18  1  0
 20 21  1  6
 21 15  1  0
 22 20  1  0
 23 22  2  0
 24 22  1  0
M  END
$$$$
