NMV.pdb
     RDKit          3D

 24 23  0  0  1  0  0  0  0  0999 V2000
    8.7988  -16.4664   17.3238 N   0  0  0  0  0  0  0  0  0  0  0  0
    9.6122  -16.9680   18.3590 C   0  0  0  0  0  0  0  0  0  0  0  0
   10.0118  -18.1602   18.2664 O   0  0  0  0  0  0  0  0  0  0  0  0
   10.0323  -16.1948   19.5496 C   0  0  0  0  0  0  0  0  0  0  0  0
    9.7561  -16.9359   20.8281 C   0  0  2  0  0  0  0  0  0  0  0  0
    8.4874  -17.6154   20.8193 N   0  0  0  0  0  0  0  0  0  0  0  0
    9.7685  -15.9423   21.9277 C   0  0  0  0  0  0  0  0  0  0  0  0
   10.7647  -15.1865   22.0876 O   0  0  0  0  0  0  0  0  0  0  0  0
    5.9071  -11.6591   27.2675 C   0  0  0  0  0  0  0  0  0  0  0  0
    5.7708  -12.8421   25.8949 S   0  0  0  0  0  0  0  0  0  0  0  0
    7.4825  -13.4540   25.5670 C   0  0  0  0  0  0  0  0  0  0  0  0
    7.4676  -14.3461   24.3677 C   0  0  0  0  0  0  0  0  0  0  0  0
    8.8214  -14.8764   24.0079 C   0  0  2  0  0  0  0  0  0  0  0  0
    8.7035  -15.7803   22.8386 N   0  0  0  0  0  0  0  0  0  0  0  0
    9.4110  -15.6292   25.1363 C   0  0  0  0  0  0  0  0  0  0  0  0
    9.4589  -16.8575   25.1259 O   0  0  0  0  0  0  0  0  0  0  0  0
   11.8096  -15.3287   29.5241 C   0  0  0  0  0  0  0  0  0  0  0  0
   11.0698  -14.6862   28.4022 C   0  0  2  0  0  0  0  0  0  0  0  0
    9.8796  -13.8813   28.8831 C   0  0  0  0  0  0  0  0  0  0  0  0
   10.6677  -15.6718   27.3104 C   0  0  2  0  0  0  0  0  0  0  0  0
    9.9498  -14.9543   26.2867 N   0  0  0  0  0  0  0  0  0  0  0  0
    9.8745  -16.7906   27.8769 C   0  0  0  0  0  0  0  0  0  0  0  0
    8.6233  -16.7884   27.7866 O   0  0  0  0  0  0  0  0  0  0  0  0
   10.4547  -17.8702   28.5195 O   0  0  0  0  0  0  0  0  0  0  0  0
  2  1  1  0
  2  3  2  0
  4  2  1  0
  5  7  1  0
  5  4  1  0
  5  6  1  6
  7  8  2  0
  9 10  1  0
 10 11  1  0
 11 12  1  0
 13 12  1  1
 14 13  1  0
 14  7  1  0
 15 16  2  0
 15 13  1  0
 18 17  1  1
 19 18  1  0
 20 18  1  0
 20 21  1  6
 21 15  1  0
 22 20  1  0
 23 22  2  0
 24 22  1  0
M  END
$$$$
