NMV.pdb
     RDKit          3D

 24 23  0  0  1  0  0  0  0  0999 V2000
    8.3362  -19.0238   17.9350 N   0  0  0  0  0  0  0  0  0  0  0  0
    7.6524  -17.9754   18.5815 C   0  0  0  0  0  0  0  0  0  0  0  0
    6.6583  -17.4713   17.9921 O   0  0  0  0  0  0  0  0  0  0  0  0
    8.0175  -17.4219   19.9052 C   0  0  0  0  0  0  0  0  0  0  0  0
    7.9960  -15.9187   19.9121 C   0  0  2  0  0  0  0  0  0  0  0  0
    8.8278  -15.3416   18.8891 N   0  0  0  0  0  0  0  0  0  0  0  0
    8.4798  -15.4749   21.2408 C   0  0  0  0  0  0  0  0  0  0  0  0
    9.7150  -15.4568   21.4919 O   0  0  0  0  0  0  0  0  0  0  0  0
    7.1844  -11.1664   27.6292 C   0  0  0  0  0  0  0  0  0  0  0  0
    6.3609  -12.0477   26.2700 S   0  0  0  0  0  0  0  0  0  0  0  0
    7.5983  -13.2481   25.6067 C   0  0  0  0  0  0  0  0  0  0  0  0
    7.1612  -13.7128   24.2549 C   0  0  0  0  0  0  0  0  0  0  0  0
    8.1553  -14.6136   23.5888 C   0  0  2  0  0  0  0  0  0  0  0  0
    7.6207  -15.0570   22.2790 N   0  0  0  0  0  0  0  0  0  0  0  0
    8.4293  -15.8052   24.4212 C   0  0  0  0  0  0  0  0  0  0  0  0
    7.5659  -16.6586   24.6145 O   0  0  0  0  0  0  0  0  0  0  0  0
   12.4748  -16.9733   25.3280 C   0  0  0  0  0  0  0  0  0  0  0  0
   11.2725  -17.8408   25.1842 C   0  0  2  0  0  0  0  0  0  0  0  0
   11.0524  -18.2879   23.7533 C   0  0  0  0  0  0  0  0  0  0  0  0
   10.0112  -17.2149   25.7696 C   0  0  2  0  0  0  0  0  0  0  0  0
    9.7138  -16.0105   25.0353 N   0  0  0  0  0  0  0  0  0  0  0  0
   10.1736  -16.9640   27.2230 C   0  0  0  0  0  0  0  0  0  0  0  0
   10.1923  -15.7897   27.6642 O   0  0  0  0  0  0  0  0  0  0  0  0
   10.3099  -17.9835   28.1487 O   0  0  0  0  0  0  0  0  0  0  0  0
  2  1  1  0
  2  3  2  0
  4  2  1  0
  5  7  1  0
  5  4  1  0
  5  6  1  6
  7  8  2  0
  9 10  1  0
 10 11  1  0
 11 12  1  0
 13 12  1  1
 14 13  1  0
 14  7  1  0
 15 16  2  0
 15 13  1  0
 18 17  1  6
 19 18  1  0
 20 18  1  0
 20 21  1  6
 21 15  1  0
 22 20  1  0
 23 22  2  0
 24 22  1  0
M  END
$$$$
