NMV.pdb
     RDKit          3D

 24 23  0  0  1  0  0  0  0  0999 V2000
   10.0465  -18.0717   18.8550 N   0  0  0  0  0  0  0  0  0  0  0  0
   10.1855  -16.6699   18.8773 C   0  0  0  0  0  0  0  0  0  0  0  0
   10.4834  -16.0922   17.7970 O   0  0  0  0  0  0  0  0  0  0  0  0
   10.0067  -15.8249   20.0797 C   0  0  0  0  0  0  0  0  0  0  0  0
    9.8184  -16.6483   21.3234 C   0  0  2  0  0  0  0  0  0  0  0  0
    8.5802  -17.3820   21.3277 N   0  0  0  0  0  0  0  0  0  0  0  0
    9.8374  -15.7185   22.4774 C   0  0  0  0  0  0  0  0  0  0  0  0
   10.8231  -14.9540   22.6589 O   0  0  0  0  0  0  0  0  0  0  0  0
    5.6101  -11.4626   25.8325 C   0  0  0  0  0  0  0  0  0  0  0  0
    6.6233  -12.8164   26.4978 S   0  0  0  0  0  0  0  0  0  0  0  0
    6.7819  -14.0594   25.1406 C   0  0  0  0  0  0  0  0  0  0  0  0
    7.7427  -15.1261   25.5568 C   0  0  0  0  0  0  0  0  0  0  0  0
    9.0254  -15.1014   24.7839 C   0  0  2  0  0  0  0  0  0  0  0  0
    8.7902  -15.6290   23.4185 N   0  0  0  0  0  0  0  0  0  0  0  0
   10.0569  -15.9298   25.4453 C   0  0  0  0  0  0  0  0  0  0  0  0
   11.1725  -16.0728   24.9492 O   0  0  0  0  0  0  0  0  0  0  0  0
   10.1111  -14.7702   29.0883 C   0  0  0  0  0  0  0  0  0  0  0  0
   11.1748  -15.3569   28.2262 C   0  0  2  0  0  0  0  0  0  0  0  0
   11.5842  -14.4264   27.1026 C   0  0  0  0  0  0  0  0  0  0  0  0
   10.8180  -16.7417   27.6968 C   0  0  2  0  0  0  0  0  0  0  0  0
    9.7947  -16.5986   26.6916 N   0  0  0  0  0  0  0  0  0  0  0  0
   10.4001  -17.6371   28.8038 C   0  0  0  0  0  0  0  0  0  0  0  0
   11.2353  -18.0190   29.6584 O   0  0  0  0  0  0  0  0  0  0  0  0
    9.1006  -18.0891   28.9518 O   0  0  0  0  0  0  0  0  0  0  0  0
  2  1  1  0
  2  3  2  0
  4  2  1  0
  5  7  1  0
  5  4  1  0
  5  6  1  6
  7  8  2  0
  9 10  1  0
 10 11  1  0
 11 12  1  0
 13 12  1  1
 14 13  1  0
 14  7  1  0
 15 16  2  0
 15 13  1  0
 18 17  1  6
 19 18  1  0
 20 18  1  0
 20 21  1  6
 21 15  1  0
 22 20  1  0
 23 22  2  0
 24 22  1  0
M  END
$$$$
