NMV.pdb
     RDKit          3D

 24 23  0  0  1  0  0  0  0  0999 V2000
    9.7719  -20.5869   19.6256 N   0  0  0  0  0  0  0  0  0  0  0  0
    8.8366  -19.7274   20.2349 C   0  0  0  0  0  0  0  0  0  0  0  0
    7.6511  -20.1395   20.3541 O   0  0  0  0  0  0  0  0  0  0  0  0
    9.1460  -18.3729   20.7463 C   0  0  0  0  0  0  0  0  0  0  0  0
    8.9495  -18.2744   22.2335 C   0  0  2  0  0  0  0  0  0  0  0  0
    7.5808  -18.4724   22.6324 N   0  0  0  0  0  0  0  0  0  0  0  0
    9.3868  -16.9207   22.6494 C   0  0  0  0  0  0  0  0  0  0  0  0
   10.5337  -16.5014   22.3367 O   0  0  0  0  0  0  0  0  0  0  0  0
    6.2981  -11.7541   25.5088 C   0  0  0  0  0  0  0  0  0  0  0  0
    6.0934  -13.4140   26.2191 S   0  0  0  0  0  0  0  0  0  0  0  0
    6.8957  -14.5852   25.0373 C   0  0  0  0  0  0  0  0  0  0  0  0
    7.9160  -13.8505   24.2289 C   0  0  0  0  0  0  0  0  0  0  0  0
    9.0735  -14.7074   23.8170 C   0  0  2  0  0  0  0  0  0  0  0  0
    8.5774  -16.0400   23.3976 N   0  0  0  0  0  0  0  0  0  0  0  0
   10.0259  -14.8820   24.9350 C   0  0  0  0  0  0  0  0  0  0  0  0
   10.9923  -14.1343   25.0703 O   0  0  0  0  0  0  0  0  0  0  0  0
   11.1256  -14.6116   29.1793 C   0  0  0  0  0  0  0  0  0  0  0  0
   10.2994  -14.7303   27.9455 C   0  0  2  0  0  0  0  0  0  0  0  0
    8.8145  -14.6526   28.2368 C   0  0  0  0  0  0  0  0  0  0  0  0
   10.6379  -15.9648   27.1169 C   0  0  2  0  0  0  0  0  0  0  0  0
    9.8584  -15.9312   25.9047 N   0  0  0  0  0  0  0  0  0  0  0  0
   10.4091  -17.2040   27.9005 C   0  0  0  0  0  0  0  0  0  0  0  0
   11.0338  -17.4002   28.9706 O   0  0  0  0  0  0  0  0  0  0  0  0
    9.5181  -18.1864   27.5057 O   0  0  0  0  0  0  0  0  0  0  0  0
  2  1  1  0
  2  3  2  0
  4  2  1  0
  5  7  1  0
  5  4  1  0
  5  6  1  6
  7  8  2  0
  9 10  1  0
 10 11  1  0
 11 12  1  0
 13 12  1  1
 14 13  1  0
 14  7  1  0
 15 16  2  0
 15 13  1  0
 18 17  1  1
 19 18  1  0
 20 18  1  0
 20 21  1  6
 21 15  1  0
 22 20  1  0
 23 22  2  0
 24 22  1  0
M  END
$$$$
