NMV.pdb
     RDKit          3D

 24 23  0  0  1  0  0  0  0  0999 V2000
    6.9981  -15.6116   19.7947 N   0  0  0  0  0  0  0  0  0  0  0  0
    8.3058  -15.2872   19.3831 C   0  0  0  0  0  0  0  0  0  0  0  0
    8.4357  -14.4969   18.4093 O   0  0  0  0  0  0  0  0  0  0  0  0
    9.5405  -15.8081   20.0124 C   0  0  0  0  0  0  0  0  0  0  0  0
    9.2406  -16.7503   21.1448 C   0  0  2  0  0  0  0  0  0  0  0  0
    7.8830  -17.2281   21.1320 N   0  0  0  0  0  0  0  0  0  0  0  0
    9.4866  -16.0164   22.4087 C   0  0  0  0  0  0  0  0  0  0  0  0
   10.6483  -15.6198   22.6953 O   0  0  0  0  0  0  0  0  0  0  0  0
    6.2029  -12.4797   27.2259 C   0  0  0  0  0  0  0  0  0  0  0  0
    7.4692  -11.9292   26.0445 S   0  0  0  0  0  0  0  0  0  0  0  0
    7.5220  -13.2055   24.7103 C   0  0  0  0  0  0  0  0  0  0  0  0
    7.6715  -14.5591   25.3264 C   0  0  0  0  0  0  0  0  0  0  0  0
    8.7993  -15.3536   24.7429 C   0  0  2  0  0  0  0  0  0  0  0  0
    8.4727  -15.7222   23.3445 N   0  0  0  0  0  0  0  0  0  0  0  0
    9.0329  -16.5897   25.5209 C   0  0  0  0  0  0  0  0  0  0  0  0
    8.1442  -17.4262   25.6682 O   0  0  0  0  0  0  0  0  0  0  0  0
   11.8443  -18.8891   24.7540 C   0  0  0  0  0  0  0  0  0  0  0  0
   11.8791  -18.6812   26.2285 C   0  0  2  0  0  0  0  0  0  0  0  0
   12.3025  -19.9290   26.9765 C   0  0  0  0  0  0  0  0  0  0  0  0
   10.5749  -18.1183   26.7830 C   0  0  2  0  0  0  0  0  0  0  0  0
   10.3059  -16.8597   26.1337 N   0  0  0  0  0  0  0  0  0  0  0  0
   10.6431  -17.9881   28.2596 C   0  0  0  0  0  0  0  0  0  0  0  0
   10.6657  -19.0117   28.9846 O   0  0  0  0  0  0  0  0  0  0  0  0
   10.6845  -16.7635   28.9026 O   0  0  0  0  0  0  0  0  0  0  0  0
  2  1  1  0
  2  3  2  0
  4  2  1  0
  5  7  1  0
  5  4  1  0
  5  6  1  1
  7  8  2  0
  9 10  1  0
 10 11  1  0
 11 12  1  0
 13 12  1  1
 14 13  1  0
 14  7  1  0
 15 16  2  0
 15 13  1  0
 18 17  1  6
 19 18  1  0
 20 18  1  0
 20 21  1  6
 21 15  1  0
 22 20  1  0
 23 22  2  0
 24 22  1  0
M  END
$$$$
