NMV.pdb
     RDKit          3D

 24 23  0  0  1  0  0  0  0  0999 V2000
    7.2436  -16.8662   18.0945 N   0  0  0  0  0  0  0  0  0  0  0  0
    8.3465  -15.9898   18.0805 C   0  0  0  0  0  0  0  0  0  0  0  0
    8.6159  -15.4023   16.9979 O   0  0  0  0  0  0  0  0  0  0  0  0
    9.2134  -15.7083   19.2471 C   0  0  0  0  0  0  0  0  0  0  0  0
    8.8116  -16.5105   20.4535 C   0  0  2  0  0  0  0  0  0  0  0  0
    7.4197  -16.8766   20.4449 N   0  0  0  0  0  0  0  0  0  0  0  0
    9.0895  -15.6809   21.6498 C   0  0  0  0  0  0  0  0  0  0  0  0
   10.2369  -15.1905   21.8282 O   0  0  0  0  0  0  0  0  0  0  0  0
    6.9276  -10.8941   25.8535 C   0  0  0  0  0  0  0  0  0  0  0  0
    6.4655  -12.5002   26.5669 S   0  0  0  0  0  0  0  0  0  0  0  0
    7.7486  -13.7044   26.0053 C   0  0  0  0  0  0  0  0  0  0  0  0
    7.4595  -14.1145   24.5972 C   0  0  0  0  0  0  0  0  0  0  0  0
    8.5174  -14.9964   24.0087 C   0  0  2  0  0  0  0  0  0  0  0  0
    8.1224  -15.3938   22.6361 N   0  0  0  0  0  0  0  0  0  0  0  0
    8.7027  -16.2161   24.8246 C   0  0  0  0  0  0  0  0  0  0  0  0
    7.7863  -17.0198   24.9847 O   0  0  0  0  0  0  0  0  0  0  0  0
   12.6830  -17.5717   25.8188 C   0  0  0  0  0  0  0  0  0  0  0  0
   11.4661  -18.3852   25.5425 C   0  0  2  0  0  0  0  0  0  0  0  0
   11.3083  -18.7038   24.0696 C   0  0  0  0  0  0  0  0  0  0  0  0
   10.1941  -17.7703   26.1160 C   0  0  2  0  0  0  0  0  0  0  0  0
    9.9593  -16.5079   25.4609 N   0  0  0  0  0  0  0  0  0  0  0  0
   10.2947  -17.6310   27.5899 C   0  0  0  0  0  0  0  0  0  0  0  0
   10.3867  -16.4945   28.1132 O   0  0  0  0  0  0  0  0  0  0  0  0
   10.2930  -18.7173   28.4470 O   0  0  0  0  0  0  0  0  0  0  0  0
  2  1  1  0
  2  3  2  0
  4  2  1  0
  5  7  1  0
  5  4  1  0
  5  6  1  6
  7  8  2  0
  9 10  1  0
 10 11  1  0
 11 12  1  0
 13 12  1  1
 14 13  1  0
 14  7  1  0
 15 16  2  0
 15 13  1  0
 18 17  1  6
 19 18  1  0
 20 18  1  0
 20 21  1  6
 21 15  1  0
 22 20  1  0
 23 22  2  0
 24 22  1  0
M  END
$$$$
