NMV.pdb
     RDKit          3D

 24 23  0  0  1  0  0  0  0  0999 V2000
    9.0872  -15.9964   17.8560 N   0  0  0  0  0  0  0  0  0  0  0  0
    9.8296  -16.4117   18.9790 C   0  0  0  0  0  0  0  0  0  0  0  0
   10.5473  -17.4415   18.8604 O   0  0  0  0  0  0  0  0  0  0  0  0
    9.8277  -15.7251   20.2907 C   0  0  0  0  0  0  0  0  0  0  0  0
    9.4295  -16.6481   21.4086 C   0  0  2  0  0  0  0  0  0  0  0  0
    8.1933  -17.3389   21.1516 N   0  0  0  0  0  0  0  0  0  0  0  0
    9.2818  -15.8244   22.6318 C   0  0  0  0  0  0  0  0  0  0  0  0
   10.2756  -15.2115   23.1068 O   0  0  0  0  0  0  0  0  0  0  0  0
    6.9480  -10.9262   27.2412 C   0  0  0  0  0  0  0  0  0  0  0  0
    7.4428  -11.9441   25.8195 S   0  0  0  0  0  0  0  0  0  0  0  0
    6.3381  -13.4245   25.8334 C   0  0  0  0  0  0  0  0  0  0  0  0
    6.5740  -14.2292   24.5960 C   0  0  0  0  0  0  0  0  0  0  0  0
    7.9551  -14.8036   24.5181 C   0  0  2  0  0  0  0  0  0  0  0  0
    8.0613  -15.6754   23.3237 N   0  0  0  0  0  0  0  0  0  0  0  0
    8.2632  -15.6041   25.7231 C   0  0  0  0  0  0  0  0  0  0  0  0
    8.3409  -15.0800   26.8324 O   0  0  0  0  0  0  0  0  0  0  0  0
    9.1728  -19.9851   25.6213 C   0  0  0  0  0  0  0  0  0  0  0  0
    8.3457  -19.2286   26.6023 C   0  0  2  0  0  0  0  0  0  0  0  0
    6.8693  -19.2698   26.2641 C   0  0  0  0  0  0  0  0  0  0  0  0
    8.8270  -17.7967   26.8104 C   0  0  2  0  0  0  0  0  0  0  0  0
    8.4833  -17.0234   25.6434 N   0  0  0  0  0  0  0  0  0  0  0  0
   10.2823  -17.7669   27.0985 C   0  0  0  0  0  0  0  0  0  0  0  0
   11.0816  -17.2712   26.2683 O   0  0  0  0  0  0  0  0  0  0  0  0
   10.8251  -18.2706   28.2674 O   0  0  0  0  0  0  0  0  0  0  0  0
  2  1  1  0
  2  3  2  0
  4  2  1  0
  5  7  1  0
  5  4  1  0
  5  6  1  6
  7  8  2  0
  9 10  1  0
 10 11  1  0
 11 12  1  0
 13 12  1  1
 14 13  1  0
 14  7  1  0
 15 16  2  0
 15 13  1  0
 18 17  1  6
 19 18  1  0
 20 18  1  0
 20 21  1  6
 21 15  1  0
 22 20  1  0
 23 22  2  0
 24 22  1  0
M  END
$$$$
