FRS.pdb
     RDKit          3D

 29 29  0  0  1  0  0  0  0  0999 V2000
   21.0265  -20.4614  -11.7971 N   0  0  0  0  0  0  0  0  0  0  0  0
   21.7720  -21.1020  -12.8334 C   0  0  1  0  0  0  0  0  0  0  0  0
   21.0898  -20.7590  -14.1649 C   0  0  0  0  0  0  0  0  0  0  0  0
   19.8747  -21.5543  -14.3820 C   0  0  0  0  0  0  0  0  0  0  0  0
   18.6456  -20.9416  -14.3997 C   0  0  0  0  0  0  0  0  0  0  0  0
   17.4886  -21.6912  -14.6052 C   0  0  0  0  0  0  0  0  0  0  0  0
   17.5529  -23.0700  -14.7960 C   0  0  0  0  0  0  0  0  0  0  0  0
   18.7988  -23.6847  -14.7773 C   0  0  0  0  0  0  0  0  0  0  0  0
   19.9362  -22.9137  -14.5703 C   0  0  0  0  0  0  0  0  0  0  0  0
   23.1612  -20.5865  -12.9523 C   0  0  0  0  0  0  0  0  0  0  0  0
   23.3053  -19.3433  -12.6943 O   0  0  0  0  0  0  0  0  0  0  0  0
   30.3367  -20.7036   -9.2832 N   0  0  0  0  0  0  0  0  0  0  0  0
   29.9323  -21.8652   -9.9897 C   0  0  0  0  0  0  0  0  0  0  0  0
   30.7217  -22.8866  -10.1126 N   0  0  0  0  0  0  0  0  0  0  0  0
   28.6380  -21.9607  -10.5992 N   0  0  0  0  0  0  0  0  0  0  0  0
   27.6648  -20.9035  -10.4261 C   0  0  0  0  0  0  0  0  0  0  0  0
   26.3459  -21.2521  -11.0994 C   0  0  0  0  0  0  0  0  0  0  0  0
   26.6010  -21.4605  -12.5560 C   0  0  0  0  0  0  0  0  0  0  0  0
   25.5697  -20.7473  -13.4219 C   0  0  2  0  0  0  0  0  0  0  0  0
   24.2769  -21.3593  -13.3171 N   0  0  0  0  0  0  0  0  0  0  0  0
   26.0544  -20.6379  -14.8260 C   0  0  0  0  0  0  0  0  0  0  0  0
   26.2315  -21.6794  -15.4765 O   0  0  0  0  0  0  0  0  0  0  0  0
   30.3856  -23.7034  -10.6639 O   0  0  0  0  0  0  0  0  0  0  0  0
   27.4494  -16.9581  -16.3791 C   0  0  0  0  0  0  0  0  0  0  0  0
   26.9281  -17.8565  -17.2894 C   0  0  1  0  0  0  0  0  0  0  0  0
   26.8480  -19.2649  -16.7860 N   0  0  0  0  0  0  0  0  0  0  0  0
   26.3255  -19.4005  -15.4612 C   0  0  0  0  0  0  0  0  0  0  0  0
   28.1437  -19.9328  -16.9797 O   0  0  0  0  0  0  0  0  0  0  0  0
   28.6986  -20.0628  -18.1042 O   0  0  0  0  0  0  0  0  0  0  0  0
  2  1  1  1
  3  2  1  0
  3  4  1  0
  4  9  2  0
  5  4  1  0
  5  6  2  0
  6  7  1  0
  7  8  2  0
  9  8  1  0
 10 20  1  0
 10  2  1  0
 11 10  2  0
 13 12  1  0
 14 13  2  0
 15 13  1  0
 16 15  1  0
 17 16  1  0
 18 17  1  0
 19 18  1  1
 19 20  1  0
 21 19  1  0
 21 26  1  0
 22 21  2  0
 24 23  1  0
 25 24  1  6
 25 26  1  0
 25 27  1  0
 27 28  2  0
 27 29  1  0
M  END
$$$$
