FRS.pdb
     RDKit          3D

 29 29  0  0  1  0  0  0  0  0999 V2000
   25.7003  -17.9181  -17.3479 N   0  0  0  0  0  0  0  0  0  0  0  0
   25.0481  -17.7122  -16.0940 C   0  0  1  0  0  0  0  0  0  0  0  0
   24.3240  -16.3611  -16.1728 C   0  0  0  0  0  0  0  0  0  0  0  0
   25.2631  -15.2323  -16.1728 C   0  0  0  0  0  0  0  0  0  0  0  0
   25.4537  -14.4960  -17.3164 C   0  0  0  0  0  0  0  0  0  0  0  0
   26.3438  -13.4235  -17.3226 C   0  0  0  0  0  0  0  0  0  0  0  0
   27.0555  -13.0767  -16.1760 C   0  0  0  0  0  0  0  0  0  0  0  0
   26.8589  -13.8248  -15.0217 C   0  0  0  0  0  0  0  0  0  0  0  0
   25.9656  -14.8890  -15.0433 C   0  0  0  0  0  0  0  0  0  0  0  0
   23.9882  -18.7176  -15.8193 C   0  0  0  0  0  0  0  0  0  0  0  0
   23.6125  -19.4036  -16.8298 O   0  0  0  0  0  0  0  0  0  0  0  0
   27.1859  -21.4160  -11.4905 N   0  0  0  0  0  0  0  0  0  0  0  0
   25.9318  -21.2551  -10.8475 C   0  0  0  0  0  0  0  0  0  0  0  0
   25.8528  -20.8375   -9.6224 N   0  0  0  0  0  0  0  0  0  0  0  0
   24.7001  -21.5482  -11.5205 N   0  0  0  0  0  0  0  0  0  0  0  0
   24.6624  -22.5178  -12.5942 C   0  0  0  0  0  0  0  0  0  0  0  0
   23.8662  -21.9961  -13.7809 C   0  0  0  0  0  0  0  0  0  0  0  0
   22.8988  -20.9719  -13.2857 C   0  0  0  0  0  0  0  0  0  0  0  0
   22.4652  -20.0173  -14.3915 C   0  0  2  0  0  0  0  0  0  0  0  0
   23.4022  -18.9451  -14.5623 N   0  0  0  0  0  0  0  0  0  0  0  0
   21.0718  -19.5464  -14.1565 C   0  0  0  0  0  0  0  0  0  0  0  0
   20.8765  -18.6739  -13.2963 O   0  0  0  0  0  0  0  0  0  0  0  0
   24.9103  -20.7774   -9.1841 O   0  0  0  0  0  0  0  0  0  0  0  0
   17.6890  -21.0645  -16.3689 C   0  0  0  0  0  0  0  0  0  0  0  0
   17.6985  -19.7888  -15.8398 C   0  0  1  0  0  0  0  0  0  0  0  0
   18.6020  -19.6207  -14.6571 N   0  0  0  0  0  0  0  0  0  0  0  0
   19.9519  -20.0449  -14.8673 C   0  0  0  0  0  0  0  0  0  0  0  0
   17.9751  -20.2174  -13.4682 O   0  0  0  0  0  0  0  0  0  0  0  0
   18.5343  -21.0898  -12.7501 O   0  0  0  0  0  0  0  0  0  0  0  0
  2  1  1  6
  3  2  1  0
  3  4  1  0
  4  9  2  0
  5  4  1  0
  5  6  2  0
  6  7  1  0
  7  8  2  0
  9  8  1  0
 10 20  1  0
 10  2  1  0
 11 10  2  0
 13 12  1  0
 14 13  2  0
 15 13  1  0
 16 15  1  0
 17 16  1  0
 18 17  1  0
 19 18  1  1
 19 20  1  0
 21 19  1  0
 21 26  1  0
 22 21  2  0
 24 23  1  0
 25 24  1  6
 25 26  1  0
 25 27  1  0
 27 28  2  0
 27 29  1  0
M  END
$$$$
