FRS.pdb
     RDKit          3D

 29 29  0  0  1  0  0  0  0  0999 V2000
   25.9562  -17.3438  -19.6512 N   0  0  0  0  0  0  0  0  0  0  0  0
   25.4433  -16.8001  -18.4341 C   0  0  1  0  0  0  0  0  0  0  0  0
   24.2885  -15.8597  -18.8056 C   0  0  0  0  0  0  0  0  0  0  0  0
   24.7616  -14.6513  -19.4927 C   0  0  0  0  0  0  0  0  0  0  0  0
   25.3293  -13.6285  -18.7730 C   0  0  0  0  0  0  0  0  0  0  0  0
   25.7801  -12.4790  -19.4196 C   0  0  0  0  0  0  0  0  0  0  0  0
   25.6657  -12.3429  -20.8016 C   0  0  0  0  0  0  0  0  0  0  0  0
   25.0908  -13.3807  -21.5248 C   0  0  0  0  0  0  0  0  0  0  0  0
   24.6496  -14.5155  -20.8551 C   0  0  0  0  0  0  0  0  0  0  0  0
   24.8480  -17.8308  -17.5436 C   0  0  0  0  0  0  0  0  0  0  0  0
   24.2938  -18.8142  -18.1425 O   0  0  0  0  0  0  0  0  0  0  0  0
   25.0877  -23.4066  -13.3345 N   0  0  0  0  0  0  0  0  0  0  0  0
   26.3369  -22.7422  -13.4339 C   0  0  0  0  0  0  0  0  0  0  0  0
   27.2835  -23.1997  -14.1930 N   0  0  0  0  0  0  0  0  0  0  0  0
   26.6086  -21.5405  -12.7003 N   0  0  0  0  0  0  0  0  0  0  0  0
   25.5251  -20.6889  -12.2584 C   0  0  0  0  0  0  0  0  0  0  0  0
   24.5786  -20.3614  -13.4035 C   0  0  0  0  0  0  0  0  0  0  0  0
   25.1672  -19.2404  -14.1954 C   0  0  0  0  0  0  0  0  0  0  0  0
   24.2889  -18.8588  -15.3808 C   0  0  2  0  0  0  0  0  0  0  0  0
   24.8613  -17.7845  -16.1390 N   0  0  0  0  0  0  0  0  0  0  0  0
   22.8967  -18.5814  -14.9298 C   0  0  0  0  0  0  0  0  0  0  0  0
   22.6037  -17.4272  -14.5814 O   0  0  0  0  0  0  0  0  0  0  0  0
   28.1989  -22.7036  -14.1892 O   0  0  0  0  0  0  0  0  0  0  0  0
   18.8583  -18.2078  -16.4970 C   0  0  0  0  0  0  0  0  0  0  0  0
   20.1960  -18.5075  -16.3291 C   0  0  2  0  0  0  0  0  0  0  0  0
   20.4944  -19.3248  -15.1099 N   0  0  0  0  0  0  0  0  0  0  0  0
   21.8842  -19.5714  -14.8773 C   0  0  0  0  0  0  0  0  0  0  0  0
   19.6731  -20.5446  -15.1201 O   0  0  0  0  0  0  0  0  0  0  0  0
   20.1562  -21.7091  -15.1245 O   0  0  0  0  0  0  0  0  0  0  0  0
  2  1  1  6
  3  2  1  0
  3  4  1  0
  4  9  2  0
  5  4  1  0
  5  6  2  0
  6  7  1  0
  7  8  2  0
  9  8  1  0
 10 20  1  0
 10  2  1  0
 11 10  2  0
 13 12  1  0
 14 13  2  0
 15 13  1  0
 16 15  1  0
 17 16  1  0
 18 17  1  0
 19 18  1  1
 19 20  1  0
 21 19  1  0
 21 26  1  0
 22 21  2  0
 24 23  1  0
 25 24  1  1
 25 26  1  0
 25 27  1  0
 27 28  2  0
 27 29  1  0
M  END
$$$$
