FRS.pdb
     RDKit          3D

 29 29  0  0  1  0  0  0  0  0999 V2000
   17.2192   -8.7015  -10.4935 N   0  0  0  0  0  0  0  0  0  0  0  0
   16.2044   -7.7826  -10.0863 C   0  0  1  0  0  0  0  0  0  0  0  0
   16.0546   -7.9135   -8.5644 C   0  0  0  0  0  0  0  0  0  0  0  0
   14.6485   -7.8683   -8.1436 C   0  0  0  0  0  0  0  0  0  0  0  0
   14.1445   -6.7377   -7.5487 C   0  0  0  0  0  0  0  0  0  0  0  0
   12.8107   -6.6888   -7.1470 C   0  0  0  0  0  0  0  0  0  0  0  0
   11.9645   -7.7791   -7.3390 C   0  0  0  0  0  0  0  0  0  0  0  0
   12.4794   -8.9203   -7.9414 C   0  0  0  0  0  0  0  0  0  0  0  0
   13.8128   -8.9422   -8.3321 C   0  0  0  0  0  0  0  0  0  0  0  0
   16.5748   -6.3637  -10.3302 C   0  0  0  0  0  0  0  0  0  0  0  0
   17.6307   -6.1883  -11.0282 O   0  0  0  0  0  0  0  0  0  0  0  0
   15.4051   -2.3559  -16.8820 N   0  0  0  0  0  0  0  0  0  0  0  0
   15.6978   -1.2398  -16.0568 C   0  0  0  0  0  0  0  0  0  0  0  0
   15.8173   -0.0484  -16.5546 N   0  0  0  0  0  0  0  0  0  0  0  0
   15.8760   -1.3792  -14.6410 N   0  0  0  0  0  0  0  0  0  0  0  0
   15.7328   -2.6720  -14.0063 C   0  0  0  0  0  0  0  0  0  0  0  0
   16.0289   -2.5909  -12.5164 C   0  0  0  0  0  0  0  0  0  0  0  0
   15.8867   -3.9580  -11.9326 C   0  0  0  0  0  0  0  0  0  0  0  0
   16.0871   -3.9553  -10.4220 C   0  0  2  0  0  0  0  0  0  0  0  0
   15.8572   -5.2525   -9.8555 N   0  0  0  0  0  0  0  0  0  0  0  0
   15.2662   -2.8854   -9.7895 C   0  0  0  0  0  0  0  0  0  0  0  0
   14.0325   -3.0161   -9.7700 O   0  0  0  0  0  0  0  0  0  0  0  0
   16.0548    0.7323  -15.9079 O   0  0  0  0  0  0  0  0  0  0  0  0
   15.9731   -0.9463   -6.3151 C   0  0  0  0  0  0  0  0  0  0  0  0
   14.8267   -0.9457   -7.0852 C   0  0  1  0  0  0  0  0  0  0  0  0
   15.0662   -0.7027   -8.5437 N   0  0  0  0  0  0  0  0  0  0  0  0
   15.8228   -1.7203   -9.2059 C   0  0  0  0  0  0  0  0  0  0  0  0
   15.6049    0.6519   -8.7365 O   0  0  0  0  0  0  0  0  0  0  0  0
   16.6954    0.8905   -9.3226 O   0  0  0  0  0  0  0  0  0  0  0  0
  2  1  1  1
  3  2  1  0
  3  4  1  0
  4  9  2  0
  5  4  1  0
  5  6  2  0
  6  7  1  0
  7  8  2  0
  9  8  1  0
 10 20  1  0
 10  2  1  0
 11 10  2  0
 13 12  1  0
 14 13  2  0
 15 13  1  0
 16 15  1  0
 17 16  1  0
 18 17  1  0
 19 18  1  6
 19 20  1  0
 21 19  1  0
 21 26  1  0
 22 21  2  0
 24 23  1  0
 25 24  1  6
 25 26  1  0
 25 27  1  0
 27 28  2  0
 27 29  1  0
M  END
$$$$
