FRS.pdb
     RDKit          3D

 29 29  0  0  1  0  0  0  0  0999 V2000
   21.7494  -23.1748  -14.2460 N   0  0  0  0  0  0  0  0  0  0  0  0
   21.0558  -22.4089  -13.2599 C   0  0  1  0  0  0  0  0  0  0  0  0
   20.3138  -21.2841  -13.9948 C   0  0  0  0  0  0  0  0  0  0  0  0
   21.2392  -20.3309  -14.6203 C   0  0  0  0  0  0  0  0  0  0  0  0
   21.6790  -19.2364  -13.9166 C   0  0  0  0  0  0  0  0  0  0  0  0
   22.5573  -18.3281  -14.5049 C   0  0  0  0  0  0  0  0  0  0  0  0
   23.0059  -18.5091  -15.8117 C   0  0  0  0  0  0  0  0  0  0  0  0
   22.5580  -19.6180  -16.5190 C   0  0  0  0  0  0  0  0  0  0  0  0
   21.6825  -20.5078  -15.9084 C   0  0  0  0  0  0  0  0  0  0  0  0
   20.0035  -23.1873  -12.5552 C   0  0  0  0  0  0  0  0  0  0  0  0
   19.5867  -24.2249  -13.1737 O   0  0  0  0  0  0  0  0  0  0  0  0
   17.1578  -26.8990   -6.6004 N   0  0  0  0  0  0  0  0  0  0  0  0
   18.1823  -26.0920   -6.0424 C   0  0  0  0  0  0  0  0  0  0  0  0
   19.0469  -26.5831   -5.2101 N   0  0  0  0  0  0  0  0  0  0  0  0
   18.3056  -24.7018   -6.3709 N   0  0  0  0  0  0  0  0  0  0  0  0
   17.2524  -24.0217   -7.0941 C   0  0  0  0  0  0  0  0  0  0  0  0
   17.3129  -24.3356   -8.5814 C   0  0  0  0  0  0  0  0  0  0  0  0
   18.3534  -23.4645   -9.2049 C   0  0  0  0  0  0  0  0  0  0  0  0
   18.4627  -23.6952  -10.7072 C   0  0  2  0  0  0  0  0  0  0  0  0
   19.4654  -22.8581  -11.2993 N   0  0  0  0  0  0  0  0  0  0  0  0
   17.1280  -23.5583  -11.3539 C   0  0  0  0  0  0  0  0  0  0  0  0
   16.5411  -22.4676  -11.2805 O   0  0  0  0  0  0  0  0  0  0  0  0
   19.6876  -25.9235   -4.7216 O   0  0  0  0  0  0  0  0  0  0  0  0
   15.5765  -22.8123  -15.0551 C   0  0  0  0  0  0  0  0  0  0  0  0
   16.4917  -23.3453  -14.1688 C   0  0  2  0  0  0  0  0  0  0  0  0
   15.9790  -24.5138  -13.3844 N   0  0  0  0  0  0  0  0  0  0  0  0
   16.4898  -24.6135  -12.0519 C   0  0  0  0  0  0  0  0  0  0  0  0
   16.1405  -25.7456  -14.1712 O   0  0  0  0  0  0  0  0  0  0  0  0
   16.8954  -26.6958  -13.8297 O   0  0  0  0  0  0  0  0  0  0  0  0
  2  1  1  6
  3  2  1  0
  3  4  1  0
  4  9  2  0
  5  4  1  0
  5  6  2  0
  6  7  1  0
  7  8  2  0
  9  8  1  0
 10 20  1  0
 10  2  1  0
 11 10  2  0
 13 12  1  0
 14 13  2  0
 15 13  1  0
 16 15  1  0
 17 16  1  0
 18 17  1  0
 19 18  1  1
 19 20  1  0
 21 19  1  0
 21 26  1  0
 22 21  2  0
 24 23  1  0
 25 24  1  1
 25 26  1  0
 25 27  1  0
 27 28  2  0
 27 29  1  0
M  END
$$$$
