FRS.pdb
     RDKit          3D

 29 29  0  0  1  0  0  0  0  0999 V2000
   29.5739  -13.4154  -20.5550 N   0  0  0  0  0  0  0  0  0  0  0  0
   28.7611  -13.1909  -19.4021 C   0  0  1  0  0  0  0  0  0  0  0  0
   29.2630  -11.9036  -18.7338 C   0  0  0  0  0  0  0  0  0  0  0  0
   30.6365  -12.0424  -18.2334 C   0  0  0  0  0  0  0  0  0  0  0  0
   31.4450  -10.9372  -18.1273 C   0  0  0  0  0  0  0  0  0  0  0  0
   32.7496  -11.0627  -17.6532 C   0  0  0  0  0  0  0  0  0  0  0  0
   33.2593  -12.3043  -17.2786 C   0  0  0  0  0  0  0  0  0  0  0  0
   32.4372  -13.4190  -17.3878 C   0  0  0  0  0  0  0  0  0  0  0  0
   31.1407  -13.2656  -17.8637 C   0  0  0  0  0  0  0  0  0  0  0  0
   27.3355  -12.9365  -19.7380 C   0  0  0  0  0  0  0  0  0  0  0  0
   27.1285  -12.4435  -20.8986 O   0  0  0  0  0  0  0  0  0  0  0  0
   19.7608  -16.2400  -16.7561 N   0  0  0  0  0  0  0  0  0  0  0  0
   19.8791  -14.8275  -16.7006 C   0  0  0  0  0  0  0  0  0  0  0  0
   19.0948  -14.1158  -15.9525 N   0  0  0  0  0  0  0  0  0  0  0  0
   20.8663  -14.1261  -17.4683 N   0  0  0  0  0  0  0  0  0  0  0  0
   21.6577  -14.8232  -18.4594 C   0  0  0  0  0  0  0  0  0  0  0  0
   22.5582  -13.8626  -19.2215 C   0  0  0  0  0  0  0  0  0  0  0  0
   23.9293  -13.9358  -18.6343 C   0  0  0  0  0  0  0  0  0  0  0  0
   24.9074  -13.0177  -19.3571 C   0  0  2  0  0  0  0  0  0  0  0  0
   26.2496  -13.1980  -18.8850 N   0  0  0  0  0  0  0  0  0  0  0  0
   24.4454  -11.6036  -19.2846 C   0  0  0  0  0  0  0  0  0  0  0  0
   24.6437  -10.9664  -18.2386 O   0  0  0  0  0  0  0  0  0  0  0  0
   19.2059  -13.0807  -15.9697 O   0  0  0  0  0  0  0  0  0  0  0  0
   22.7376   -7.6434  -21.6361 C   0  0  0  0  0  0  0  0  0  0  0  0
   23.1395   -8.9642  -21.6750 C   0  0  2  0  0  0  0  0  0  0  0  0
   23.3671   -9.5772  -20.3275 N   0  0  0  0  0  0  0  0  0  0  0  0
   23.7878  -10.9443  -20.3527 C   0  0  0  0  0  0  0  0  0  0  0  0
   22.1958   -9.3368  -19.4715 O   0  0  0  0  0  0  0  0  0  0  0  0
   21.2403  -10.1509  -19.3545 O   0  0  0  0  0  0  0  0  0  0  0  0
  2  1  1  6
  3  2  1  0
  3  4  1  0
  4  9  2  0
  5  4  1  0
  5  6  2  0
  6  7  1  0
  7  8  2  0
  9  8  1  0
 10 20  1  0
 10  2  1  0
 11 10  2  0
 13 12  1  0
 14 13  2  0
 15 13  1  0
 16 15  1  0
 17 16  1  0
 18 17  1  0
 19 18  1  1
 19 20  1  0
 21 19  1  0
 21 26  1  0
 22 21  2  0
 24 23  1  0
 25 24  1  6
 25 26  1  0
 25 27  1  0
 27 28  2  0
 27 29  1  0
M  END
$$$$
