FRS.pdb
     RDKit          3D

 29 29  0  0  1  0  0  0  0  0999 V2000
   27.7342  -20.0011  -18.0912 N   0  0  0  0  0  0  0  0  0  0  0  0
   27.3545  -19.3012  -16.9054 C   0  0  1  0  0  0  0  0  0  0  0  0
   26.3196  -18.2431  -17.3119 C   0  0  0  0  0  0  0  0  0  0  0  0
   26.9403  -16.9392  -17.5775 C   0  0  0  0  0  0  0  0  0  0  0  0
   27.1737  -16.5390  -18.8705 C   0  0  0  0  0  0  0  0  0  0  0  0
   27.7627  -15.3026  -19.1290 C   0  0  0  0  0  0  0  0  0  0  0  0
   28.1255  -14.4504  -18.0879 C   0  0  0  0  0  0  0  0  0  0  0  0
   27.8871  -14.8600  -16.7818 C   0  0  0  0  0  0  0  0  0  0  0  0
   27.2986  -16.0978  -16.5524 C   0  0  0  0  0  0  0  0  0  0  0  0
   26.6685  -20.1701  -15.9133 C   0  0  0  0  0  0  0  0  0  0  0  0
   25.9910  -21.1336  -16.4089 O   0  0  0  0  0  0  0  0  0  0  0  0
   23.3494  -19.9897   -9.1601 N   0  0  0  0  0  0  0  0  0  0  0  0
   23.7822  -21.1987   -8.5575 C   0  0  0  0  0  0  0  0  0  0  0  0
   23.0518  -21.8109   -7.6781 N   0  0  0  0  0  0  0  0  0  0  0  0
   25.0430  -21.7944   -8.8911 N   0  0  0  0  0  0  0  0  0  0  0  0
   25.9212  -21.1647   -9.8538 C   0  0  0  0  0  0  0  0  0  0  0  0
   25.4201  -21.3712  -11.2752 C   0  0  0  0  0  0  0  0  0  0  0  0
   26.4063  -20.7607  -12.2159 C   0  0  0  0  0  0  0  0  0  0  0  0
   25.9320  -20.8314  -13.6623 C   0  0  2  0  0  0  0  0  0  0  0  0
   26.7226  -19.9969  -14.5197 N   0  0  0  0  0  0  0  0  0  0  0  0
   24.4730  -20.5434  -13.7468 C   0  0  0  0  0  0  0  0  0  0  0  0
   24.0786  -19.3941  -13.4960 O   0  0  0  0  0  0  0  0  0  0  0  0
   23.4112  -22.7013   -7.2756 O   0  0  0  0  0  0  0  0  0  0  0  0
   19.9715  -22.0826  -15.0096 C   0  0  0  0  0  0  0  0  0  0  0  0
   21.3240  -22.3413  -14.9041 C   0  0  2  0  0  0  0  0  0  0  0  0
   22.1026  -21.2677  -14.2081 N   0  0  0  0  0  0  0  0  0  0  0  0
   23.5070  -21.5180  -14.1002 C   0  0  0  0  0  0  0  0  0  0  0  0
   21.4611  -20.9458  -12.9246 O   0  0  0  0  0  0  0  0  0  0  0  0
   21.8564  -21.3977  -11.8160 O   0  0  0  0  0  0  0  0  0  0  0  0
  2  1  1  6
  3  2  1  0
  3  4  1  0
  4  9  2  0
  5  4  1  0
  5  6  2  0
  6  7  1  0
  7  8  2  0
  9  8  1  0
 10 20  1  0
 10  2  1  0
 11 10  2  0
 13 12  1  0
 14 13  2  0
 15 13  1  0
 16 15  1  0
 17 16  1  0
 18 17  1  0
 19 18  1  1
 19 20  1  0
 21 19  1  0
 21 26  1  0
 22 21  2  0
 24 23  1  0
 25 24  1  6
 25 26  1  0
 25 27  1  0
 27 28  2  0
 27 29  1  0
M  END
$$$$
