FRS.pdb
     RDKit          3D

 29 29  0  0  1  0  0  0  0  0999 V2000
   18.3023   -6.2768   -9.6397 N   0  0  0  0  0  0  0  0  0  0  0  0
   19.4365   -6.0631  -10.4810 C   0  0  1  0  0  0  0  0  0  0  0  0
   20.4716   -7.1420  -10.1339 C   0  0  0  0  0  0  0  0  0  0  0  0
   21.5269   -6.6289   -9.2512 C   0  0  0  0  0  0  0  0  0  0  0  0
   22.7862   -6.3963   -9.7475 C   0  0  0  0  0  0  0  0  0  0  0  0
   23.7921   -5.9095   -8.9145 C   0  0  0  0  0  0  0  0  0  0  0  0
   23.5439   -5.6495   -7.5683 C   0  0  0  0  0  0  0  0  0  0  0  0
   22.2682   -5.8864   -7.0713 C   0  0  0  0  0  0  0  0  0  0  0  0
   21.2840   -6.3720   -7.9237 C   0  0  0  0  0  0  0  0  0  0  0  0
   19.1323   -6.2513  -11.9239 C   0  0  0  0  0  0  0  0  0  0  0  0
   17.8925   -6.3731  -12.2081 O   0  0  0  0  0  0  0  0  0  0  0  0
   14.1887   -5.8957  -17.0465 N   0  0  0  0  0  0  0  0  0  0  0  0
   15.3559   -6.0967  -17.8270 C   0  0  0  0  0  0  0  0  0  0  0  0
   15.3359   -6.8440  -18.8866 N   0  0  0  0  0  0  0  0  0  0  0  0
   16.6059   -5.4866  -17.4793 N   0  0  0  0  0  0  0  0  0  0  0  0
   17.1302   -5.6006  -16.1351 C   0  0  0  0  0  0  0  0  0  0  0  0
   18.4184   -4.8072  -15.9763 C   0  0  0  0  0  0  0  0  0  0  0  0
   18.8693   -4.9200  -14.5571 C   0  0  0  0  0  0  0  0  0  0  0  0
   19.6866   -6.1839  -14.3187 C   0  0  2  0  0  0  0  0  0  0  0  0
   20.0932   -6.3003  -12.9483 N   0  0  0  0  0  0  0  0  0  0  0  0
   20.8253   -6.2563  -15.2762 C   0  0  0  0  0  0  0  0  0  0  0  0
   21.6983   -5.3760  -15.2291 O   0  0  0  0  0  0  0  0  0  0  0  0
   16.2312   -6.9992  -19.3949 O   0  0  0  0  0  0  0  0  0  0  0  0
   22.0875   -9.8076  -16.8489 C   0  0  0  0  0  0  0  0  0  0  0  0
   22.2411   -8.7677  -17.7448 C   0  0  2  0  0  0  0  0  0  0  0  0
   22.0702   -7.4071  -17.1422 N   0  0  0  0  0  0  0  0  0  0  0  0
   20.9646   -7.2829  -16.2430 C   0  0  0  0  0  0  0  0  0  0  0  0
   22.0819   -6.3914  -18.2055 O   0  0  0  0  0  0  0  0  0  0  0  0
   21.1458   -5.5678  -18.3919 O   0  0  0  0  0  0  0  0  0  0  0  0
  2  1  1  1
  3  2  1  0
  3  4  1  0
  4  9  2  0
  5  4  1  0
  5  6  2  0
  6  7  1  0
  7  8  2  0
  9  8  1  0
 10 20  1  0
 10  2  1  0
 11 10  2  0
 13 12  1  0
 14 13  2  0
 15 13  1  0
 16 15  1  0
 17 16  1  0
 18 17  1  0
 19 18  1  1
 19 20  1  0
 21 19  1  0
 21 26  1  0
 22 21  2  0
 24 23  1  0
 25 24  1  1
 25 26  1  0
 25 27  1  0
 27 28  2  0
 27 29  1  0
M  END
$$$$
