FRS.pdb
     RDKit          3D

 29 29  0  0  1  0  0  0  0  0999 V2000
   27.2428  -18.4706  -17.1267 N   0  0  0  0  0  0  0  0  0  0  0  0
   26.6308  -17.9450  -15.9480 C   0  0  1  0  0  0  0  0  0  0  0  0
   25.5474  -16.9556  -16.3990 C   0  0  0  0  0  0  0  0  0  0  0  0
   26.0972  -15.6199  -16.6635 C   0  0  0  0  0  0  0  0  0  0  0  0
   26.3639  -15.2287  -17.9527 C   0  0  0  0  0  0  0  0  0  0  0  0
   26.8859  -13.9622  -18.2100 C   0  0  0  0  0  0  0  0  0  0  0  0
   27.1470  -13.0706  -17.1715 C   0  0  0  0  0  0  0  0  0  0  0  0
   26.8751  -13.4713  -15.8692 C   0  0  0  0  0  0  0  0  0  0  0  0
   26.3552  -14.7396  -15.6409 C   0  0  0  0  0  0  0  0  0  0  0  0
   25.9198  -18.9800  -15.1525 C   0  0  0  0  0  0  0  0  0  0  0  0
   25.4968  -19.9847  -15.8192 O   0  0  0  0  0  0  0  0  0  0  0  0
   27.3251  -23.3866  -10.6848 N   0  0  0  0  0  0  0  0  0  0  0  0
   27.8508  -22.2148  -10.0827 C   0  0  0  0  0  0  0  0  0  0  0  0
   29.1298  -22.0215   -9.9913 N   0  0  0  0  0  0  0  0  0  0  0  0
   26.9946  -21.1965   -9.5482 N   0  0  0  0  0  0  0  0  0  0  0  0
   25.5583  -21.3746   -9.5393 C   0  0  0  0  0  0  0  0  0  0  0  0
   24.9863  -21.3146  -10.9476 C   0  0  0  0  0  0  0  0  0  0  0  0
   25.5809  -20.1373  -11.6480 C   0  0  0  0  0  0  0  0  0  0  0  0
   25.0899  -20.0232  -13.0861 C   0  0  2  0  0  0  0  0  0  0  0  0
   25.6974  -18.9164  -13.7663 N   0  0  0  0  0  0  0  0  0  0  0  0
   23.6013  -19.9912  -13.1274 C   0  0  0  0  0  0  0  0  0  0  0  0
   23.0204  -18.9422  -12.8087 O   0  0  0  0  0  0  0  0  0  0  0  0
   29.4629  -21.1513   -9.5267 O   0  0  0  0  0  0  0  0  0  0  0  0
   21.0767  -23.4690  -13.8602 C   0  0  0  0  0  0  0  0  0  0  0  0
   20.7986  -22.2266  -14.3956 C   0  0  1  0  0  0  0  0  0  0  0  0
   21.3839  -21.0815  -13.6278 N   0  0  0  0  0  0  0  0  0  0  0  0
   22.8097  -21.1013  -13.5133 C   0  0  0  0  0  0  0  0  0  0  0  0
   20.6909  -20.9465  -12.3378 O   0  0  0  0  0  0  0  0  0  0  0  0
   21.2844  -20.9458  -11.2255 O   0  0  0  0  0  0  0  0  0  0  0  0
  2  1  1  6
  3  2  1  0
  3  4  1  0
  4  9  2  0
  5  4  1  0
  5  6  2  0
  6  7  1  0
  7  8  2  0
  9  8  1  0
 10 20  1  0
 10  2  1  0
 11 10  2  0
 13 12  1  0
 14 13  2  0
 15 13  1  0
 16 15  1  0
 17 16  1  0
 18 17  1  0
 19 18  1  1
 19 20  1  0
 21 19  1  0
 21 26  1  0
 22 21  2  0
 24 23  1  0
 25 24  1  6
 25 26  1  0
 25 27  1  0
 27 28  2  0
 27 29  1  0
M  END
$$$$
