FRS.pdb
     RDKit          3D

 29 29  0  0  1  0  0  0  0  0999 V2000
   28.1301  -20.6185  -16.6187 N   0  0  0  0  0  0  0  0  0  0  0  0
   27.5998  -19.7163  -15.6467 C   0  0  1  0  0  0  0  0  0  0  0  0
   26.7043  -18.7172  -16.3922 C   0  0  0  0  0  0  0  0  0  0  0  0
   27.3900  -17.4430  -16.6418 C   0  0  0  0  0  0  0  0  0  0  0  0
   28.0126  -17.2212  -17.8458 C   0  0  0  0  0  0  0  0  0  0  0  0
   28.6652  -16.0138  -18.0886 C   0  0  0  0  0  0  0  0  0  0  0  0
   28.7002  -15.0114  -17.1213 C   0  0  0  0  0  0  0  0  0  0  0  0
   28.0687  -15.2409  -15.9052 C   0  0  0  0  0  0  0  0  0  0  0  0
   27.4255  -16.4536  -15.6894 C   0  0  0  0  0  0  0  0  0  0  0  0
   26.7144  -20.3845  -14.6570 C   0  0  0  0  0  0  0  0  0  0  0  0
   26.2016  -21.4895  -15.0431 O   0  0  0  0  0  0  0  0  0  0  0  0
   21.9855  -20.4410   -8.4763 N   0  0  0  0  0  0  0  0  0  0  0  0
   22.7565  -21.3873   -7.7536 C   0  0  0  0  0  0  0  0  0  0  0  0
   22.1989  -22.2248   -6.9354 N   0  0  0  0  0  0  0  0  0  0  0  0
   24.1816  -21.4583   -7.8933 N   0  0  0  0  0  0  0  0  0  0  0  0
   24.8787  -20.5524   -8.7810 C   0  0  0  0  0  0  0  0  0  0  0  0
   24.5794  -20.8691  -10.2386 C   0  0  0  0  0  0  0  0  0  0  0  0
   25.6553  -20.2678  -11.0819 C   0  0  0  0  0  0  0  0  0  0  0  0
   25.4293  -20.5316  -12.5657 C   0  0  2  0  0  0  0  0  0  0  0  0
   26.4235  -19.8884  -13.3747 N   0  0  0  0  0  0  0  0  0  0  0  0
   24.0365  -20.1724  -12.9524 C   0  0  0  0  0  0  0  0  0  0  0  0
   23.6440  -19.0127  -12.7509 O   0  0  0  0  0  0  0  0  0  0  0  0
   22.8161  -22.8508   -6.3775 O   0  0  0  0  0  0  0  0  0  0  0  0
   21.1465  -23.0378  -14.4584 C   0  0  0  0  0  0  0  0  0  0  0  0
   21.1931  -21.7384  -14.9240 C   0  0  1  0  0  0  0  0  0  0  0  0
   21.8047  -20.7636  -13.9653 N   0  0  0  0  0  0  0  0  0  0  0  0
   23.1314  -21.0900  -13.5412 C   0  0  0  0  0  0  0  0  0  0  0  0
   20.8750  -20.5153  -12.8534 O   0  0  0  0  0  0  0  0  0  0  0  0
   19.7098  -20.0594  -13.0089 O   0  0  0  0  0  0  0  0  0  0  0  0
  2  1  1  6
  3  2  1  0
  3  4  1  0
  4  9  2  0
  5  4  1  0
  5  6  2  0
  6  7  1  0
  7  8  2  0
  9  8  1  0
 10 20  1  0
 10  2  1  0
 11 10  2  0
 13 12  1  0
 14 13  2  0
 15 13  1  0
 16 15  1  0
 17 16  1  0
 18 17  1  0
 19 18  1  1
 19 20  1  0
 21 19  1  0
 21 26  1  0
 22 21  2  0
 24 23  1  0
 25 24  1  6
 25 26  1  0
 25 27  1  0
 27 28  2  0
 27 29  1  0
M  END
$$$$
