FRS.pdb
     RDKit          3D

 29 29  0  0  1  0  0  0  0  0999 V2000
   26.7555  -18.1568   -7.7666 N   0  0  0  0  0  0  0  0  0  0  0  0
   27.2018  -19.3913   -8.3295 C   0  0  1  0  0  0  0  0  0  0  0  0
   27.0483  -20.4683   -7.2466 C   0  0  0  0  0  0  0  0  0  0  0  0
   28.0398  -20.3161   -6.1743 C   0  0  0  0  0  0  0  0  0  0  0  0
   29.3670  -20.5663   -6.4240 C   0  0  0  0  0  0  0  0  0  0  0  0
   30.3128  -20.4238   -5.4101 C   0  0  0  0  0  0  0  0  0  0  0  0
   29.9351  -20.0269   -4.1290 C   0  0  0  0  0  0  0  0  0  0  0  0
   28.5913  -19.7749   -3.8818 C   0  0  0  0  0  0  0  0  0  0  0  0
   27.6693  -19.9248   -4.9106 C   0  0  0  0  0  0  0  0  0  0  0  0
   26.3616  -19.8473   -9.4678 C   0  0  0  0  0  0  0  0  0  0  0  0
   25.1329  -19.5009   -9.4115 O   0  0  0  0  0  0  0  0  0  0  0  0
   24.0131  -23.6947  -15.3952 N   0  0  0  0  0  0  0  0  0  0  0  0
   25.3040  -23.9424  -15.9284 C   0  0  0  0  0  0  0  0  0  0  0  0
   25.6991  -25.1470  -16.2012 N   0  0  0  0  0  0  0  0  0  0  0  0
   26.2271  -22.8761  -16.1864 N   0  0  0  0  0  0  0  0  0  0  0  0
   26.9933  -22.2905  -15.1072 C   0  0  0  0  0  0  0  0  0  0  0  0
   26.0831  -21.7451  -14.0172 C   0  0  0  0  0  0  0  0  0  0  0  0
   26.9363  -21.1684  -12.9357 C   0  0  0  0  0  0  0  0  0  0  0  0
   26.1014  -20.6011  -11.7940 C   0  0  2  0  0  0  0  0  0  0  0  0
   26.8255  -20.6060  -10.5561 N   0  0  0  0  0  0  0  0  0  0  0  0
   24.7901  -21.3024  -11.7091 C   0  0  0  0  0  0  0  0  0  0  0  0
   24.7435  -22.4099  -11.1518 O   0  0  0  0  0  0  0  0  0  0  0  0
   26.6743  -25.2787  -16.5412 O   0  0  0  0  0  0  0  0  0  0  0  0
   20.1696  -20.7964  -10.8361 C   0  0  0  0  0  0  0  0  0  0  0  0
   21.3905  -20.2786  -11.2220 C   0  0  2  0  0  0  0  0  0  0  0  0
   22.2787  -21.2580  -11.9256 N   0  0  0  0  0  0  0  0  0  0  0  0
   23.5870  -20.7686  -12.2340 C   0  0  0  0  0  0  0  0  0  0  0  0
   21.5715  -21.8210  -13.0855 O   0  0  0  0  0  0  0  0  0  0  0  0
   20.8542  -22.8562  -13.0283 O   0  0  0  0  0  0  0  0  0  0  0  0
  2  1  1  1
  3  2  1  0
  3  4  1  0
  4  9  2  0
  5  4  1  0
  5  6  2  0
  6  7  1  0
  7  8  2  0
  9  8  1  0
 10 20  1  0
 10  2  1  0
 11 10  2  0
 13 12  1  0
 14 13  2  0
 15 13  1  0
 16 15  1  0
 17 16  1  0
 18 17  1  0
 19 18  1  6
 19 20  1  0
 21 19  1  0
 21 26  1  0
 22 21  2  0
 24 23  1  0
 25 24  1  1
 25 26  1  0
 25 27  1  0
 27 28  2  0
 27 29  1  0
M  END
$$$$
