FRS.pdb
     RDKit          3D

 29 29  0  0  1  0  0  0  0  0999 V2000
   21.9717  -11.7654  -15.8950 N   0  0  0  0  0  0  0  0  0  0  0  0
   22.4500  -10.7756  -14.9832 C   0  0  1  0  0  0  0  0  0  0  0  0
   23.7478  -10.2038  -15.5701 C   0  0  0  0  0  0  0  0  0  0  0  0
   24.8726  -11.1378  -15.4328 C   0  0  0  0  0  0  0  0  0  0  0  0
   24.9014  -12.2937  -16.1740 C   0  0  0  0  0  0  0  0  0  0  0  0
   25.9661  -13.1841  -16.0479 C   0  0  0  0  0  0  0  0  0  0  0  0
   27.0184  -12.9230  -15.1726 C   0  0  0  0  0  0  0  0  0  0  0  0
   26.9844  -11.7522  -14.4253 C   0  0  0  0  0  0  0  0  0  0  0  0
   25.9108  -10.8820  -14.5704 C   0  0  0  0  0  0  0  0  0  0  0  0
   21.5284   -9.6170  -14.8487 C   0  0  0  0  0  0  0  0  0  0  0  0
   20.9063   -9.2886  -15.9155 O   0  0  0  0  0  0  0  0  0  0  0  0
   16.2740   -7.3262   -8.5907 N   0  0  0  0  0  0  0  0  0  0  0  0
   16.1591   -8.1765   -9.7203 C   0  0  0  0  0  0  0  0  0  0  0  0
   15.3686   -9.2044   -9.7107 N   0  0  0  0  0  0  0  0  0  0  0  0
   16.9107   -7.9394  -10.9180 N   0  0  0  0  0  0  0  0  0  0  0  0
   17.7764   -6.7845  -11.0255 C   0  0  0  0  0  0  0  0  0  0  0  0
   18.4936   -6.7556  -12.3667 C   0  0  0  0  0  0  0  0  0  0  0  0
   19.4913   -7.8665  -12.3917 C   0  0  0  0  0  0  0  0  0  0  0  0
   20.3637   -7.8197  -13.6402 C   0  0  2  0  0  0  0  0  0  0  0  0
   21.3131   -8.8944  -13.6627 N   0  0  0  0  0  0  0  0  0  0  0  0
   20.9936   -6.4779  -13.7856 C   0  0  0  0  0  0  0  0  0  0  0  0
   21.8506   -6.1308  -12.9582 O   0  0  0  0  0  0  0  0  0  0  0  0
   15.2614   -9.7495  -10.5912 O   0  0  0  0  0  0  0  0  0  0  0  0
   20.0873   -3.7783  -17.0549 C   0  0  0  0  0  0  0  0  0  0  0  0
   21.3258   -3.8340  -16.4461 C   0  0  1  0  0  0  0  0  0  0  0  0
   21.2908   -4.3019  -15.0237 N   0  0  0  0  0  0  0  0  0  0  0  0
   20.6640   -5.5722  -14.8244 C   0  0  0  0  0  0  0  0  0  0  0  0
   20.7493   -3.2365  -14.1668 O   0  0  0  0  0  0  0  0  0  0  0  0
   19.7340   -3.3815  -13.4336 O   0  0  0  0  0  0  0  0  0  0  0  0
  2  1  1  6
  3  2  1  0
  3  4  1  0
  4  9  2  0
  5  4  1  0
  5  6  2  0
  6  7  1  0
  7  8  2  0
  9  8  1  0
 10 20  1  0
 10  2  1  0
 11 10  2  0
 13 12  1  0
 14 13  2  0
 15 13  1  0
 16 15  1  0
 17 16  1  0
 18 17  1  0
 19 18  1  1
 19 20  1  0
 21 19  1  0
 21 26  1  0
 22 21  2  0
 24 23  1  0
 25 24  1  6
 25 26  1  0
 25 27  1  0
 27 28  2  0
 27 29  1  0
M  END
$$$$
