FRS.pdb
     RDKit          3D

 29 29  0  0  1  0  0  0  0  0999 V2000
   20.9229  -25.2037  -18.3258 N   0  0  0  0  0  0  0  0  0  0  0  0
   21.4173  -23.9172  -18.7007 C   0  0  1  0  0  0  0  0  0  0  0  0
   20.3163  -23.2252  -19.5160 C   0  0  0  0  0  0  0  0  0  0  0  0
   20.2244  -23.7583  -20.8811 C   0  0  0  0  0  0  0  0  0  0  0  0
   21.1682  -23.4157  -21.8183 C   0  0  0  0  0  0  0  0  0  0  0  0
   21.0863  -23.9184  -23.1157 C   0  0  0  0  0  0  0  0  0  0  0  0
   20.0517  -24.7742  -23.4883 C   0  0  0  0  0  0  0  0  0  0  0  0
   19.0997  -25.1176  -22.5363 C   0  0  0  0  0  0  0  0  0  0  0  0
   19.2052  -24.6021  -21.2502 C   0  0  0  0  0  0  0  0  0  0  0  0
   21.6682  -23.0297  -17.5348 C   0  0  0  0  0  0  0  0  0  0  0  0
   21.3504  -23.5200  -16.3983 O   0  0  0  0  0  0  0  0  0  0  0  0
   25.7890  -21.9880  -11.8461 N   0  0  0  0  0  0  0  0  0  0  0  0
   24.9604  -20.9166  -11.4245 C   0  0  0  0  0  0  0  0  0  0  0  0
   25.2987  -20.1558  -10.4304 N   0  0  0  0  0  0  0  0  0  0  0  0
   23.7153  -20.6295  -12.0750 N   0  0  0  0  0  0  0  0  0  0  0  0
   23.2784  -21.4193  -13.2063 C   0  0  0  0  0  0  0  0  0  0  0  0
   24.1408  -21.1531  -14.4309 C   0  0  0  0  0  0  0  0  0  0  0  0
   23.5709  -21.9137  -15.5829 C   0  0  0  0  0  0  0  0  0  0  0  0
   22.6230  -21.0593  -16.4156 C   0  0  2  0  0  0  0  0  0  0  0  0
   22.2127  -21.7364  -17.6114 N   0  0  0  0  0  0  0  0  0  0  0  0
   23.2211  -19.7202  -16.6759 C   0  0  0  0  0  0  0  0  0  0  0  0
   24.3056  -19.6601  -17.2755 O   0  0  0  0  0  0  0  0  0  0  0  0
   24.6780  -19.3546  -10.1919 O   0  0  0  0  0  0  0  0  0  0  0  0
   21.0594  -15.9750  -16.4713 C   0  0  0  0  0  0  0  0  0  0  0  0
   22.1851  -16.2658  -17.2167 C   0  0  1  0  0  0  0  0  0  0  0  0
   23.1410  -17.2037  -16.5458 N   0  0  0  0  0  0  0  0  0  0  0  0
   22.6136  -18.5052  -16.2727 C   0  0  0  0  0  0  0  0  0  0  0  0
   23.7317  -16.5485  -15.3692 O   0  0  0  0  0  0  0  0  0  0  0  0
   23.6608  -17.0187  -14.2016 O   0  0  0  0  0  0  0  0  0  0  0  0
  2  1  1  1
  3  2  1  0
  3  4  1  0
  4  9  2  0
  5  4  1  0
  5  6  2  0
  6  7  1  0
  7  8  2  0
  9  8  1  0
 10 20  1  0
 10  2  1  0
 11 10  2  0
 13 12  1  0
 14 13  2  0
 15 13  1  0
 16 15  1  0
 17 16  1  0
 18 17  1  0
 19 18  1  6
 19 20  1  0
 21 19  1  0
 21 26  1  0
 22 21  2  0
 24 23  1  0
 25 24  1  6
 25 26  1  0
 25 27  1  0
 27 28  2  0
 27 29  1  0
M  END
$$$$
