DMQ.pdb
     RDKit          3D

 26 25  0  0  1  0  0  0  0  0999 V2000
   22.6189  -14.3197  -17.5819 N   0  0  0  0  0  0  0  0  0  0  0  0
   22.4644  -12.9722  -18.0586 C   0  0  1  0  0  0  0  0  0  0  0  0
   21.0449  -12.7708  -18.4942 C   0  0  0  0  0  0  0  0  0  0  0  0
   20.6744  -13.7089  -19.5824 C   0  0  0  0  0  0  0  0  0  0  0  0
   19.7706  -14.5502  -19.3910 O   0  0  0  0  0  0  0  0  0  0  0  0
   22.8561  -12.0017  -16.9818 C   0  0  0  0  0  0  0  0  0  0  0  0
   22.5410  -12.2494  -15.7954 O   0  0  0  0  0  0  0  0  0  0  0  0
   21.3038  -13.6802  -20.8118 O   0  0  0  0  0  0  0  0  0  0  0  0
   28.5008   -9.9186  -17.1626 C   0  0  0  0  0  0  0  0  0  0  0  0
   27.9382  -10.5448  -15.5663 S   0  0  0  0  0  0  0  0  0  0  0  0
   26.1271  -10.8239  -15.5773 C   0  0  0  0  0  0  0  0  0  0  0  0
   25.4734   -9.6202  -16.1704 C   0  0  0  0  0  0  0  0  0  0  0  0
   23.9812   -9.7718  -16.4165 C   0  0  2  0  0  0  0  0  0  0  0  0
   23.5700  -10.8167  -17.2670 N   0  0  0  0  0  0  0  0  0  0  0  0
   23.3532   -8.4800  -16.5225 C   0  0  0  0  0  0  0  0  0  0  0  0
   23.4378   -7.8606  -17.6166 O   0  0  0  0  0  0  0  0  0  0  0  0
   19.3663   -6.4969  -18.8688 N   0  0  0  0  0  0  0  0  0  0  0  0
   19.0760   -5.5101  -17.8995 C   0  0  0  0  0  0  0  0  0  0  0  0
   18.2705   -4.5958  -18.1707 O   0  0  0  0  0  0  0  0  0  0  0  0
   19.7330   -5.5793  -16.5795 C   0  0  0  0  0  0  0  0  0  0  0  0
   20.5641   -6.8264  -16.4283 C   0  0  0  0  0  0  0  0  0  0  0  0
   21.8620   -6.5966  -15.7304 C   0  0  2  0  0  0  0  0  0  0  0  0
   22.6215   -7.8036  -15.4884 N   0  0  0  0  0  0  0  0  0  0  0  0
   21.7285   -5.7697  -14.5034 C   0  0  0  0  0  0  0  0  0  0  0  0
   21.2866   -4.4523  -14.5284 O   0  0  0  0  0  0  0  0  0  0  0  0
   22.0140   -6.2322  -13.3689 O   0  0  0  0  0  0  0  0  0  0  0  0
  2  3  1  0
  2  1  1  1
  3  4  1  0
  4  5  2  0
  4  8  1  0
  6  7  2  0
  6  2  1  0
  9 10  1  0
 11 10  1  0
 12 11  1  0
 13 12  1  6
 13 14  1  0
 14  6  1  0
 15 13  1  0
 15 23  1  0
 16 15  2  0
 17 18  1  0
 18 19  2  0
 20 21  1  0
 20 18  1  0
 22 21  1  1
 22 23  1  0
 24 22  1  0
 25 24  1  0
 26 24  2  0
M  END
$$$$
