DMQ.pdb
     RDKit          3D

 26 25  0  0  1  0  0  0  0  0999 V2000
   22.5435  -21.5956  -14.2267 N   0  0  0  0  0  0  0  0  0  0  0  0
   21.8575  -20.3374  -14.3429 C   0  0  1  0  0  0  0  0  0  0  0  0
   20.9370  -20.1760  -13.1717 C   0  0  0  0  0  0  0  0  0  0  0  0
   19.9481  -21.2801  -13.1044 C   0  0  0  0  0  0  0  0  0  0  0  0
   20.0615  -22.2581  -13.8738 O   0  0  0  0  0  0  0  0  0  0  0  0
   22.8550  -19.2177  -14.4216 C   0  0  0  0  0  0  0  0  0  0  0  0
   22.4467  -18.0347  -14.3761 O   0  0  0  0  0  0  0  0  0  0  0  0
   18.8963  -21.2596  -12.2090 O   0  0  0  0  0  0  0  0  0  0  0  0
   28.7808  -21.1856  -11.4028 C   0  0  0  0  0  0  0  0  0  0  0  0
   28.5521  -20.3415  -12.9815 S   0  0  0  0  0  0  0  0  0  0  0  0
   26.8411  -19.7044  -13.1380 C   0  0  0  0  0  0  0  0  0  0  0  0
   26.7078  -19.0489  -14.4723 C   0  0  0  0  0  0  0  0  0  0  0  0
   25.3032  -18.5691  -14.8000 C   0  0  2  0  0  0  0  0  0  0  0  0
   24.2412  -19.4588  -14.5454 N   0  0  0  0  0  0  0  0  0  0  0  0
   25.3051  -17.7927  -16.0131 C   0  0  0  0  0  0  0  0  0  0  0  0
   25.2026  -18.3994  -17.1128 O   0  0  0  0  0  0  0  0  0  0  0  0
   20.5162  -16.3167  -17.1724 N   0  0  0  0  0  0  0  0  0  0  0  0
   21.0029  -15.3295  -18.0592 C   0  0  0  0  0  0  0  0  0  0  0  0
   20.2099  -14.7371  -18.8197 O   0  0  0  0  0  0  0  0  0  0  0  0
   22.4453  -15.0161  -18.0694 C   0  0  0  0  0  0  0  0  0  0  0  0
   23.2225  -15.9078  -17.1368 C   0  0  0  0  0  0  0  0  0  0  0  0
   24.6778  -15.5867  -17.0800 C   0  0  2  0  0  0  0  0  0  0  0  0
   25.4141  -16.3639  -16.1073 N   0  0  0  0  0  0  0  0  0  0  0  0
   24.9518  -14.1323  -16.9502 C   0  0  0  0  0  0  0  0  0  0  0  0
   25.6354  -13.5891  -15.8690 O   0  0  0  0  0  0  0  0  0  0  0  0
   24.5713  -13.3145  -17.8271 O   0  0  0  0  0  0  0  0  0  0  0  0
  2  3  1  0
  2  1  1  1
  3  4  1  0
  4  5  2  0
  4  8  1  0
  6  7  2  0
  6  2  1  0
  9 10  1  0
 11 10  1  0
 12 11  1  0
 13 12  1  6
 13 14  1  0
 14  6  1  0
 15 13  1  0
 15 23  1  0
 16 15  2  0
 17 18  1  0
 18 19  2  0
 20 21  1  0
 20 18  1  0
 22 21  1  1
 22 23  1  0
 24 22  1  0
 25 24  1  0
 26 24  2  0
M  END
$$$$
