DMQ.pdb
     RDKit          3D

 26 25  0  0  1  0  0  0  0  0999 V2000
   21.3435  -12.7259  -18.8470 N   0  0  0  0  0  0  0  0  0  0  0  0
   21.6127  -11.3285  -19.0516 C   0  0  1  0  0  0  0  0  0  0  0  0
   20.4079  -10.6872  -19.6699 C   0  0  0  0  0  0  0  0  0  0  0  0
   20.2035  -11.1512  -21.0643 C   0  0  0  0  0  0  0  0  0  0  0  0
   21.0462  -11.9071  -21.5933 O   0  0  0  0  0  0  0  0  0  0  0  0
   21.9751  -10.6820  -17.7456 C   0  0  0  0  0  0  0  0  0  0  0  0
   21.1405  -10.6865  -16.8121 O   0  0  0  0  0  0  0  0  0  0  0  0
   19.0998  -10.7695  -21.8024 O   0  0  0  0  0  0  0  0  0  0  0  0
   27.9058  -12.7871  -15.3693 C   0  0  0  0  0  0  0  0  0  0  0  0
   27.3671  -11.0788  -15.5896 S   0  0  0  0  0  0  0  0  0  0  0  0
   25.5530  -10.9940  -15.8345 C   0  0  0  0  0  0  0  0  0  0  0  0
   25.1779   -9.5656  -16.0511 C   0  0  0  0  0  0  0  0  0  0  0  0
   23.7227   -9.3482  -16.4323 C   0  0  2  0  0  0  0  0  0  0  0  0
   23.2304  -10.0684  -17.5382 N   0  0  0  0  0  0  0  0  0  0  0  0
   23.3584   -7.9648  -16.2655 C   0  0  0  0  0  0  0  0  0  0  0  0
   23.3006   -7.2328  -17.2896 O   0  0  0  0  0  0  0  0  0  0  0  0
   20.6980   -4.6517  -17.9990 N   0  0  0  0  0  0  0  0  0  0  0  0
   20.0204   -4.1613  -16.8597 C   0  0  0  0  0  0  0  0  0  0  0  0
   19.2844   -3.1583  -16.9627 O   0  0  0  0  0  0  0  0  0  0  0  0
   20.1961   -4.8470  -15.5644 C   0  0  0  0  0  0  0  0  0  0  0  0
   21.0026   -6.1117  -15.7010 C   0  0  0  0  0  0  0  0  0  0  0  0
   22.2964   -6.0764  -14.9598 C   0  0  2  0  0  0  0  0  0  0  0  0
   23.0455   -7.3121  -15.0252 N   0  0  0  0  0  0  0  0  0  0  0  0
   22.1587   -5.5842  -13.5648 C   0  0  0  0  0  0  0  0  0  0  0  0
   21.8214   -6.4157  -12.5036 O   0  0  0  0  0  0  0  0  0  0  0  0
   22.3443   -4.3737  -13.2773 O   0  0  0  0  0  0  0  0  0  0  0  0
  2  3  1  0
  2  1  1  1
  3  4  1  0
  4  5  2  0
  4  8  1  0
  6  7  2  0
  6  2  1  0
  9 10  1  0
 11 10  1  0
 12 11  1  0
 13 12  1  6
 13 14  1  0
 14  6  1  0
 15 13  1  0
 15 23  1  0
 16 15  2  0
 17 18  1  0
 18 19  2  0
 20 21  1  0
 20 18  1  0
 22 21  1  1
 22 23  1  0
 24 22  1  0
 25 24  1  0
 26 24  2  0
M  END
$$$$
