DMQ.pdb
     RDKit          3D

 26 25  0  0  1  0  0  0  0  0999 V2000
   23.2002  -13.8134  -18.8592 N   0  0  0  0  0  0  0  0  0  0  0  0
   22.0505  -13.4255  -18.0880 C   0  0  1  0  0  0  0  0  0  0  0  0
   21.5647  -14.6106  -17.3104 C   0  0  0  0  0  0  0  0  0  0  0  0
   21.1395  -15.7110  -18.2103 C   0  0  0  0  0  0  0  0  0  0  0  0
   20.8115  -15.4535  -19.3882 O   0  0  0  0  0  0  0  0  0  0  0  0
   22.4044  -12.2785  -17.1858 C   0  0  0  0  0  0  0  0  0  0  0  0
   21.5488  -11.8557  -16.3749 O   0  0  0  0  0  0  0  0  0  0  0  0
   21.0948  -17.0236  -17.7817 O   0  0  0  0  0  0  0  0  0  0  0  0
   29.0664  -13.0571  -15.6440 C   0  0  0  0  0  0  0  0  0  0  0  0
   28.1786  -11.5102  -15.9193 S   0  0  0  0  0  0  0  0  0  0  0  0
   26.3719  -11.8030  -16.0102 C   0  0  0  0  0  0  0  0  0  0  0  0
   25.7049  -10.5065  -16.3297 C   0  0  0  0  0  0  0  0  0  0  0  0
   24.1936  -10.5935  -16.4665 C   0  0  2  0  0  0  0  0  0  0  0  0
   23.6744  -11.6615  -17.2243 N   0  0  0  0  0  0  0  0  0  0  0  0
   23.6228   -9.2787  -16.6069 C   0  0  0  0  0  0  0  0  0  0  0  0
   23.7153   -8.7014  -17.7232 O   0  0  0  0  0  0  0  0  0  0  0  0
   18.9758   -6.5885  -18.2334 N   0  0  0  0  0  0  0  0  0  0  0  0
   18.8721   -7.7287  -17.4045 C   0  0  0  0  0  0  0  0  0  0  0  0
   17.7629   -8.2791  -17.2468 O   0  0  0  0  0  0  0  0  0  0  0  0
   20.0821   -8.2493  -16.7383 C   0  0  0  0  0  0  0  0  0  0  0  0
   21.2889   -7.3899  -17.0096 C   0  0  0  0  0  0  0  0  0  0  0  0
   22.2310   -7.3043  -15.8566 C   0  0  2  0  0  0  0  0  0  0  0  0
   22.9415   -8.5346  -15.5849 N   0  0  0  0  0  0  0  0  0  0  0  0
   21.6071   -6.7418  -14.6312 C   0  0  0  0  0  0  0  0  0  0  0  0
   21.0568   -5.4664  -14.5848 O   0  0  0  0  0  0  0  0  0  0  0  0
   21.5479   -7.4052  -13.5641 O   0  0  0  0  0  0  0  0  0  0  0  0
  2  3  1  0
  2  1  1  1
  3  4  1  0
  4  5  2  0
  4  8  1  0
  6  7  2  0
  6  2  1  0
  9 10  1  0
 11 10  1  0
 12 11  1  0
 13 12  1  6
 13 14  1  0
 14  6  1  0
 15 13  1  0
 15 23  1  0
 16 15  2  0
 17 18  1  0
 18 19  2  0
 20 21  1  0
 20 18  1  0
 22 21  1  6
 22 23  1  0
 24 22  1  0
 25 24  1  0
 26 24  2  0
M  END
$$$$
