DMQ.pdb
     RDKit          3D

 26 25  0  0  1  0  0  0  0  0999 V2000
   20.6712  -11.3056  -19.5468 N   0  0  0  0  0  0  0  0  0  0  0  0
   20.7950  -11.5723  -18.1394 C   0  0  1  0  0  0  0  0  0  0  0  0
   21.5702  -12.8407  -17.9517 C   0  0  0  0  0  0  0  0  0  0  0  0
   20.8229  -14.0134  -18.4693 C   0  0  0  0  0  0  0  0  0  0  0  0
   19.5821  -14.0650  -18.3305 O   0  0  0  0  0  0  0  0  0  0  0  0
   21.4590  -10.4114  -17.4565 C   0  0  0  0  0  0  0  0  0  0  0  0
   21.5783  -10.4259  -16.2100 O   0  0  0  0  0  0  0  0  0  0  0  0
   21.4627  -15.0593  -19.1058 O   0  0  0  0  0  0  0  0  0  0  0  0
   25.6226   -3.6793  -18.8577 C   0  0  0  0  0  0  0  0  0  0  0  0
   24.8066   -5.1617  -19.4852 S   0  0  0  0  0  0  0  0  0  0  0  0
   23.9217   -6.0372  -18.1404 C   0  0  0  0  0  0  0  0  0  0  0  0
   23.2537   -7.2368  -18.7256 C   0  0  0  0  0  0  0  0  0  0  0  0
   22.4819   -8.0789  -17.7227 C   0  0  2  0  0  0  0  0  0  0  0  0
   21.9534   -9.3026  -18.1784 N   0  0  0  0  0  0  0  0  0  0  0  0
   21.6897   -7.2390  -16.8618 C   0  0  0  0  0  0  0  0  0  0  0  0
   20.6841   -6.6583  -17.3513 O   0  0  0  0  0  0  0  0  0  0  0  0
   18.6653   -8.3856  -11.9459 N   0  0  0  0  0  0  0  0  0  0  0  0
   18.2723   -8.4220  -13.3031 C   0  0  0  0  0  0  0  0  0  0  0  0
   17.2785   -9.0978  -13.6406 O   0  0  0  0  0  0  0  0  0  0  0  0
   19.0472   -7.6572  -14.2998 C   0  0  0  0  0  0  0  0  0  0  0  0
   20.2328   -6.9641  -13.6811 C   0  0  0  0  0  0  0  0  0  0  0  0
   21.0412   -6.1795  -14.6583 C   0  0  2  0  0  0  0  0  0  0  0  0
   21.9283   -6.9848  -15.4687 N   0  0  0  0  0  0  0  0  0  0  0  0
   21.7465   -5.0261  -14.0422 C   0  0  0  0  0  0  0  0  0  0  0  0
   21.0757   -3.9338  -13.5051 O   0  0  0  0  0  0  0  0  0  0  0  0
   23.0022   -4.9860  -13.9781 O   0  0  0  0  0  0  0  0  0  0  0  0
  2  3  1  0
  2  1  1  6
  3  4  1  0
  4  5  2  0
  4  8  1  0
  6  7  2  0
  6  2  1  0
  9 10  1  0
 11 10  1  0
 12 11  1  0
 13 12  1  6
 13 14  1  0
 14  6  1  0
 15 13  1  0
 15 23  1  0
 16 15  2  0
 17 18  1  0
 18 19  2  0
 20 21  1  0
 20 18  1  0
 22 21  1  1
 22 23  1  0
 24 22  1  0
 25 24  1  0
 26 24  2  0
M  END
$$$$
