DMQ.pdb
     RDKit          3D

 26 25  0  0  1  0  0  0  0  0999 V2000
   21.2733  -15.7294  -19.0616 N   0  0  0  0  0  0  0  0  0  0  0  0
   21.4775  -14.4284  -19.6384 C   0  0  1  0  0  0  0  0  0  0  0  0
   20.1660  -13.9101  -20.1446 C   0  0  0  0  0  0  0  0  0  0  0  0
   19.6157  -14.7810  -21.2124 C   0  0  0  0  0  0  0  0  0  0  0  0
   20.3954  -15.4182  -21.9523 O   0  0  0  0  0  0  0  0  0  0  0  0
   22.0804  -13.5065  -18.6177 C   0  0  0  0  0  0  0  0  0  0  0  0
   21.6448  -13.5300  -17.4440 O   0  0  0  0  0  0  0  0  0  0  0  0
   18.2553  -14.9101  -21.4154 O   0  0  0  0  0  0  0  0  0  0  0  0
   27.4102  -10.3570  -14.9107 C   0  0  0  0  0  0  0  0  0  0  0  0
   26.7109  -11.4354  -16.1776 S   0  0  0  0  0  0  0  0  0  0  0  0
   25.9225  -10.4520  -17.5078 C   0  0  0  0  0  0  0  0  0  0  0  0
   25.2546  -11.3957  -18.4519 C   0  0  0  0  0  0  0  0  0  0  0  0
   23.7886  -11.6575  -18.1476 C   0  0  2  0  0  0  0  0  0  0  0  0
   23.1250  -12.6128  -18.9422 N   0  0  0  0  0  0  0  0  0  0  0  0
   23.1178  -10.4309  -17.8018 C   0  0  0  0  0  0  0  0  0  0  0  0
   22.6955   -9.6955  -18.7339 O   0  0  0  0  0  0  0  0  0  0  0  0
   19.3413   -9.1000  -13.0093 N   0  0  0  0  0  0  0  0  0  0  0  0
   19.4351   -7.8324  -13.6274 C   0  0  0  0  0  0  0  0  0  0  0  0
   18.7381   -6.8865  -13.2062 O   0  0  0  0  0  0  0  0  0  0  0  0
   20.3594   -7.6500  -14.7639 C   0  0  0  0  0  0  0  0  0  0  0  0
   21.1432   -8.9018  -15.0593 C   0  0  0  0  0  0  0  0  0  0  0  0
   22.0806   -8.7602  -16.2108 C   0  0  2  0  0  0  0  0  0  0  0  0
   22.8716   -9.9423  -16.4740 N   0  0  0  0  0  0  0  0  0  0  0  0
   22.9197   -7.5365  -16.1354 C   0  0  0  0  0  0  0  0  0  0  0  0
   22.4485   -6.2782  -16.4908 O   0  0  0  0  0  0  0  0  0  0  0  0
   24.1130   -7.5853  -15.7404 O   0  0  0  0  0  0  0  0  0  0  0  0
  2  3  1  0
  2  1  1  1
  3  4  1  0
  4  5  2  0
  4  8  1  0
  6  7  2  0
  6  2  1  0
  9 10  1  0
 11 10  1  0
 12 11  1  0
 13 12  1  6
 13 14  1  0
 14  6  1  0
 15 13  1  0
 15 23  1  0
 16 15  2  0
 17 18  1  0
 18 19  2  0
 20 21  1  0
 20 18  1  0
 22 21  1  1
 22 23  1  0
 24 22  1  0
 25 24  1  0
 26 24  2  0
M  END
$$$$
