DMQ.pdb
     RDKit          3D

 26 25  0  0  1  0  0  0  0  0999 V2000
   20.4340  -20.1793  -13.4408 N   0  0  0  0  0  0  0  0  0  0  0  0
   20.5297  -19.7623  -14.8134 C   0  0  1  0  0  0  0  0  0  0  0  0
   19.1763  -19.8658  -15.4481 C   0  0  0  0  0  0  0  0  0  0  0  0
   18.6434  -21.2480  -15.3639 C   0  0  0  0  0  0  0  0  0  0  0  0
   17.7985  -21.5316  -14.4880 O   0  0  0  0  0  0  0  0  0  0  0  0
   21.0693  -18.3628  -14.8852 C   0  0  0  0  0  0  0  0  0  0  0  0
   20.5599  -17.4764  -14.1620 O   0  0  0  0  0  0  0  0  0  0  0  0
   19.0565  -22.2400  -16.2321 O   0  0  0  0  0  0  0  0  0  0  0  0
   27.2605  -15.4775  -14.4634 C   0  0  0  0  0  0  0  0  0  0  0  0
   26.6628  -15.5015  -16.1661 S   0  0  0  0  0  0  0  0  0  0  0  0
   24.8363  -15.3630  -16.2176 C   0  0  0  0  0  0  0  0  0  0  0  0
   24.2598  -16.7271  -16.0307 C   0  0  0  0  0  0  0  0  0  0  0  0
   22.7409  -16.7678  -15.9894 C   0  0  2  0  0  0  0  0  0  0  0  0
   22.1350  -18.0157  -15.7447 N   0  0  0  0  0  0  0  0  0  0  0  0
   22.1850  -15.8911  -16.9877 C   0  0  0  0  0  0  0  0  0  0  0  0
   21.8056  -16.3915  -18.0802 O   0  0  0  0  0  0  0  0  0  0  0  0
   18.1152  -11.8799  -18.3345 N   0  0  0  0  0  0  0  0  0  0  0  0
   18.1301  -12.4386  -17.0363 C   0  0  0  0  0  0  0  0  0  0  0  0
   17.3343  -12.0158  -16.1725 O   0  0  0  0  0  0  0  0  0  0  0  0
   19.0900  -13.5159  -16.7249 C   0  0  0  0  0  0  0  0  0  0  0  0
   19.8544  -13.9596  -17.9446 C   0  0  0  0  0  0  0  0  0  0  0  0
   21.3176  -13.6826  -17.8643 C   0  0  2  0  0  0  0  0  0  0  0  0
   22.0117  -14.4705  -16.8694 N   0  0  0  0  0  0  0  0  0  0  0  0
   21.6339  -12.2358  -17.7458 C   0  0  0  0  0  0  0  0  0  0  0  0
   21.4350  -11.3347  -18.7850 O   0  0  0  0  0  0  0  0  0  0  0  0
   22.1032  -11.7540  -16.6828 O   0  0  0  0  0  0  0  0  0  0  0  0
  2  3  1  0
  2  1  1  1
  3  4  1  0
  4  5  2  0
  4  8  1  0
  6  7  2  0
  6  2  1  0
  9 10  1  0
 11 10  1  0
 12 11  1  0
 13 12  1  6
 13 14  1  0
 14  6  1  0
 15 13  1  0
 15 23  1  0
 16 15  2  0
 17 18  1  0
 18 19  2  0
 20 21  1  0
 20 18  1  0
 22 21  1  1
 22 23  1  0
 24 22  1  0
 25 24  1  0
 26 24  2  0
M  END
$$$$
