DMQ.pdb
     RDKit          3D

 26 25  0  0  1  0  0  0  0  0999 V2000
   21.5508  -21.2212  -10.7566 N   0  0  0  0  0  0  0  0  0  0  0  0
   21.8468  -20.6738  -12.0526 C   0  0  1  0  0  0  0  0  0  0  0  0
   21.0078  -19.4510  -12.2668 C   0  0  0  0  0  0  0  0  0  0  0  0
   19.5608  -19.7627  -12.1638 C   0  0  0  0  0  0  0  0  0  0  0  0
   18.9538  -19.5309  -11.0964 O   0  0  0  0  0  0  0  0  0  0  0  0
   23.3127  -20.3639  -12.1531 C   0  0  0  0  0  0  0  0  0  0  0  0
   23.7241  -19.6719  -13.1123 O   0  0  0  0  0  0  0  0  0  0  0  0
   18.8577  -20.3063  -13.2215 O   0  0  0  0  0  0  0  0  0  0  0  0
   26.4369  -19.1120   -5.9501 C   0  0  0  0  0  0  0  0  0  0  0  0
   26.8722  -20.2782   -7.2568 S   0  0  0  0  0  0  0  0  0  0  0  0
   25.9596  -19.8984   -8.7998 C   0  0  0  0  0  0  0  0  0  0  0  0
   26.3318  -20.9178   -9.8246 C   0  0  0  0  0  0  0  0  0  0  0  0
   25.6477  -20.7363  -11.1698 C   0  0  2  0  0  0  0  0  0  0  0  0
   24.2425  -20.8300  -11.1973 N   0  0  0  0  0  0  0  0  0  0  0  0
   26.4219  -21.3515  -12.2170 C   0  0  0  0  0  0  0  0  0  0  0  0
   26.5328  -22.6067  -12.2216 O   0  0  0  0  0  0  0  0  0  0  0  0
   23.4020  -22.3927  -16.2048 N   0  0  0  0  0  0  0  0  0  0  0  0
   24.5250  -22.5650  -17.0457 C   0  0  0  0  0  0  0  0  0  0  0  0
   24.3782  -23.0738  -18.1760 O   0  0  0  0  0  0  0  0  0  0  0  0
   25.8555  -22.1382  -16.5697 C   0  0  0  0  0  0  0  0  0  0  0  0
   25.8159  -21.6561  -15.1432 C   0  0  0  0  0  0  0  0  0  0  0  0
   27.1363  -21.1817  -14.6375 C   0  0  2  0  0  0  0  0  0  0  0  0
   27.0991  -20.6708  -13.2848 N   0  0  0  0  0  0  0  0  0  0  0  0
   27.8162  -20.2428  -15.5668 C   0  0  0  0  0  0  0  0  0  0  0  0
   28.6132  -20.6729  -16.6210 O   0  0  0  0  0  0  0  0  0  0  0  0
   27.6989  -18.9969  -15.4390 O   0  0  0  0  0  0  0  0  0  0  0  0
  2  3  1  0
  2  1  1  1
  3  4  1  0
  4  5  2  0
  4  8  1  0
  6  7  2  0
  6  2  1  0
  9 10  1  0
 11 10  1  0
 12 11  1  0
 13 12  1  1
 13 14  1  0
 14  6  1  0
 15 13  1  0
 15 23  1  0
 16 15  2  0
 17 18  1  0
 18 19  2  0
 20 21  1  0
 20 18  1  0
 22 21  1  6
 22 23  1  0
 24 22  1  0
 25 24  1  0
 26 24  2  0
M  END
$$$$
