DMQ.pdb
     RDKit          3D

 26 25  0  0  1  0  0  0  0  0999 V2000
   26.3624  -22.5243  -14.8538 N   0  0  0  0  0  0  0  0  0  0  0  0
   26.4798  -21.4288  -13.9301 C   0  0  1  0  0  0  0  0  0  0  0  0
   25.8787  -20.2042  -14.5498 C   0  0  0  0  0  0  0  0  0  0  0  0
   26.6027  -19.8110  -15.7838 C   0  0  0  0  0  0  0  0  0  0  0  0
   27.8308  -19.5856  -15.7337 O   0  0  0  0  0  0  0  0  0  0  0  0
   25.8081  -21.7800  -12.6338 C   0  0  0  0  0  0  0  0  0  0  0  0
   25.1198  -22.8241  -12.5684 O   0  0  0  0  0  0  0  0  0  0  0  0
   25.9548  -19.6853  -16.9973 O   0  0  0  0  0  0  0  0  0  0  0  0
   26.3906  -18.6818   -6.6271 C   0  0  0  0  0  0  0  0  0  0  0  0
   27.6672  -19.7959   -7.2484 S   0  0  0  0  0  0  0  0  0  0  0  0
   27.0142  -20.8450   -8.6016 C   0  0  0  0  0  0  0  0  0  0  0  0
   25.7508  -20.2277   -9.1020 C   0  0  0  0  0  0  0  0  0  0  0  0
   25.1487  -20.9209  -10.3133 C   0  0  2  0  0  0  0  0  0  0  0  0
   25.9293  -20.9673  -11.4849 N   0  0  0  0  0  0  0  0  0  0  0  0
   23.7397  -20.6377  -10.4085 C   0  0  0  0  0  0  0  0  0  0  0  0
   23.3342  -19.9314  -11.3700 O   0  0  0  0  0  0  0  0  0  0  0  0
   19.1753  -23.8798   -7.3106 N   0  0  0  0  0  0  0  0  0  0  0  0
   18.4947  -23.4140   -8.4585 C   0  0  0  0  0  0  0  0  0  0  0  0
   17.2984  -23.7233   -8.6355 O   0  0  0  0  0  0  0  0  0  0  0  0
   19.2140  -22.5670   -9.4302 C   0  0  0  0  0  0  0  0  0  0  0  0
   20.6080  -22.2356   -8.9657 C   0  0  0  0  0  0  0  0  0  0  0  0
   21.3743  -21.3964   -9.9316 C   0  0  2  0  0  0  0  0  0  0  0  0
   22.7199  -21.0853   -9.5019 N   0  0  0  0  0  0  0  0  0  0  0  0
   20.6362  -20.1827  -10.3667 C   0  0  0  0  0  0  0  0  0  0  0  0
   19.8167  -20.1625  -11.4889 O   0  0  0  0  0  0  0  0  0  0  0  0
   20.7213  -19.1019   -9.7287 O   0  0  0  0  0  0  0  0  0  0  0  0
  2  3  1  0
  2  1  1  6
  3  4  1  0
  4  5  2  0
  4  8  1  0
  6  7  2  0
  6  2  1  0
  9 10  1  0
 11 10  1  0
 12 11  1  0
 13 12  1  1
 13 14  1  0
 14  6  1  0
 15 13  1  0
 15 23  1  0
 16 15  2  0
 17 18  1  0
 18 19  2  0
 20 21  1  0
 20 18  1  0
 22 21  1  1
 22 23  1  0
 24 22  1  0
 25 24  1  0
 26 24  2  0
M  END
$$$$
