DMQ.pdb
     RDKit          3D

 26 25  0  0  1  0  0  0  0  0999 V2000
   28.0416  -21.6857  -14.7233 N   0  0  0  0  0  0  0  0  0  0  0  0
   27.3137  -20.5297  -14.2752 C   0  0  1  0  0  0  0  0  0  0  0  0
   26.8960  -19.7258  -15.4687 C   0  0  0  0  0  0  0  0  0  0  0  0
   28.0596  -19.0670  -16.1117 C   0  0  0  0  0  0  0  0  0  0  0  0
   29.1325  -19.6950  -16.2381 O   0  0  0  0  0  0  0  0  0  0  0  0
   26.1313  -20.9577  -13.4545 C   0  0  0  0  0  0  0  0  0  0  0  0
   25.1634  -21.5114  -14.0244 O   0  0  0  0  0  0  0  0  0  0  0  0
   27.9925  -17.7688  -16.5791 O   0  0  0  0  0  0  0  0  0  0  0  0
   28.6892  -20.6893   -7.1480 C   0  0  0  0  0  0  0  0  0  0  0  0
   27.1133  -20.0802   -7.7828 S   0  0  0  0  0  0  0  0  0  0  0  0
   26.5119  -21.1355   -9.1549 C   0  0  0  0  0  0  0  0  0  0  0  0
   25.2662  -20.5225   -9.7030 C   0  0  0  0  0  0  0  0  0  0  0  0
   24.9943  -20.8484  -11.1625 C   0  0  2  0  0  0  0  0  0  0  0  0
   26.0778  -20.7542  -12.0577 N   0  0  0  0  0  0  0  0  0  0  0  0
   23.7006  -20.3539  -11.5577 C   0  0  0  0  0  0  0  0  0  0  0  0
   23.6401  -19.2497  -12.1618 O   0  0  0  0  0  0  0  0  0  0  0  0
   22.0960  -21.5109  -16.3159 N   0  0  0  0  0  0  0  0  0  0  0  0
   21.3255  -20.3685  -16.0014 C   0  0  0  0  0  0  0  0  0  0  0  0
   20.9163  -19.6276  -16.9189 O   0  0  0  0  0  0  0  0  0  0  0  0
   21.0177  -20.0717  -14.5886 C   0  0  0  0  0  0  0  0  0  0  0  0
   21.6220  -21.0874  -13.6547 C   0  0  0  0  0  0  0  0  0  0  0  0
   21.3073  -20.8379  -12.2184 C   0  0  2  0  0  0  0  0  0  0  0  0
   22.4384  -21.0006  -11.3316 N   0  0  0  0  0  0  0  0  0  0  0  0
   20.1161  -21.5867  -11.7413 C   0  0  0  0  0  0  0  0  0  0  0  0
   20.1697  -22.4955  -10.6913 O   0  0  0  0  0  0  0  0  0  0  0  0
   18.9879  -21.4291  -12.2749 O   0  0  0  0  0  0  0  0  0  0  0  0
  2  3  1  0
  2  1  1  6
  3  4  1  0
  4  5  2  0
  4  8  1  0
  6  7  2  0
  6  2  1  0
  9 10  1  0
 11 10  1  0
 12 11  1  0
 13 12  1  1
 13 14  1  0
 14  6  1  0
 15 13  1  0
 15 23  1  0
 16 15  2  0
 17 18  1  0
 18 19  2  0
 20 21  1  0
 20 18  1  0
 22 21  1  6
 22 23  1  0
 24 22  1  0
 25 24  1  0
 26 24  2  0
M  END
$$$$
