DMQ.pdb
     RDKit          3D

 26 25  0  0  1  0  0  0  0  0999 V2000
   27.4933  -22.2172  -15.8086 N   0  0  0  0  0  0  0  0  0  0  0  0
   27.1809  -21.1216  -14.9316 C   0  0  1  0  0  0  0  0  0  0  0  0
   26.7682  -19.9411  -15.7569 C   0  0  0  0  0  0  0  0  0  0  0  0
   27.8757  -19.4759  -16.6278 C   0  0  0  0  0  0  0  0  0  0  0  0
   27.8462  -19.7275  -17.8514 O   0  0  0  0  0  0  0  0  0  0  0  0
   26.1019  -21.5293  -13.9700 C   0  0  0  0  0  0  0  0  0  0  0  0
   25.1872  -22.2867  -14.3673 O   0  0  0  0  0  0  0  0  0  0  0  0
   28.9482  -18.7666  -16.1227 O   0  0  0  0  0  0  0  0  0  0  0  0
   26.8289  -19.4357   -7.6142 C   0  0  0  0  0  0  0  0  0  0  0  0
   26.6549  -21.2054   -7.9224 S   0  0  0  0  0  0  0  0  0  0  0  0
   26.5067  -21.5428   -9.7174 C   0  0  0  0  0  0  0  0  0  0  0  0
   25.3879  -20.7149  -10.2567 C   0  0  0  0  0  0  0  0  0  0  0  0
   25.0286  -21.0090  -11.7040 C   0  0  2  0  0  0  0  0  0  0  0  0
   26.0877  -21.0838  -12.6297 N   0  0  0  0  0  0  0  0  0  0  0  0
   23.8113  -20.3316  -12.0697 C   0  0  0  0  0  0  0  0  0  0  0  0
   23.8919  -19.3047  -12.7954 O   0  0  0  0  0  0  0  0  0  0  0  0
   19.6481  -22.6826  -15.2232 N   0  0  0  0  0  0  0  0  0  0  0  0
   19.8816  -21.3709  -15.6950 C   0  0  0  0  0  0  0  0  0  0  0  0
   19.1969  -20.9223  -16.6374 O   0  0  0  0  0  0  0  0  0  0  0  0
   20.9347  -20.5527  -15.0621 C   0  0  0  0  0  0  0  0  0  0  0  0
   21.5954  -21.2728  -13.9159 C   0  0  0  0  0  0  0  0  0  0  0  0
   21.3544  -20.6317  -12.5910 C   0  0  2  0  0  0  0  0  0  0  0  0
   22.4802  -20.7102  -11.6862 N   0  0  0  0  0  0  0  0  0  0  0  0
   20.0922  -21.0769  -11.9462 C   0  0  0  0  0  0  0  0  0  0  0  0
   20.0190  -22.2014  -11.1327 O   0  0  0  0  0  0  0  0  0  0  0  0
   19.0163  -20.4461  -12.1101 O   0  0  0  0  0  0  0  0  0  0  0  0
  2  3  1  0
  2  1  1  6
  3  4  1  0
  4  5  2  0
  4  8  1  0
  6  7  2  0
  6  2  1  0
  9 10  1  0
 11 10  1  0
 12 11  1  0
 13 12  1  1
 13 14  1  0
 14  6  1  0
 15 13  1  0
 15 23  1  0
 16 15  2  0
 17 18  1  0
 18 19  2  0
 20 21  1  0
 20 18  1  0
 22 21  1  6
 22 23  1  0
 24 22  1  0
 25 24  1  0
 26 24  2  0
M  END
$$$$
