WEM.pdb
     RDKit          3D

 32 33  0  0  1  0  0  0  0  0999 V2000
    8.4260  -18.0071   21.7791 N   0  0  0  0  0  0  0  0  0  0  0  0
    9.4920  -17.0729   22.1047 C   0  0  1  0  0  0  0  0  0  0  0  0
    8.8586  -15.9473   22.9283 C   0  0  0  0  0  0  0  0  0  0  0  0
    7.8910  -15.2343   22.0828 C   0  0  0  0  0  0  0  0  0  0  0  0
    6.5227  -15.3963   22.1117 C   0  0  0  0  0  0  0  0  0  0  0  0
    5.9886  -14.5779   21.1981 N   0  0  0  0  0  0  0  0  0  0  0  0
    6.9954  -13.9016   20.5919 C   0  0  0  0  0  0  0  0  0  0  0  0
    6.9837  -12.9637   19.6020 C   0  0  0  0  0  0  0  0  0  0  0  0
    8.1684  -12.4138   19.1422 C   0  0  0  0  0  0  0  0  0  0  0  0
    9.3821  -12.8162   19.6898 C   0  0  0  0  0  0  0  0  0  0  0  0
    9.3846  -13.7655   20.6908 C   0  0  0  0  0  0  0  0  0  0  0  0
    8.2060  -14.2954   21.1297 C   0  0  0  0  0  0  0  0  0  0  0  0
   10.5172  -17.6752   22.9976 C   0  0  0  0  0  0  0  0  0  0  0  0
   10.1631  -18.5820   23.8211 O   0  0  0  0  0  0  0  0  0  0  0  0
   11.8494  -17.2833   22.9634 N   0  0  0  0  0  0  0  0  0  0  0  0
   12.8961  -17.9663   23.8631 C   0  0  1  0  0  0  0  0  0  0  0  0
   14.1289  -17.9924   23.1002 C   0  0  0  0  0  0  0  0  0  0  0  0
   14.5157  -16.9562   22.1590 C   0  0  0  0  0  0  0  0  0  0  0  0
   15.8082  -16.3109   22.1798 C   0  0  0  0  0  0  0  0  0  0  0  0
   16.1484  -15.5313   23.0791 O   0  0  0  0  0  0  0  0  0  0  0  0
   12.6858  -17.3213   25.1096 C   0  0  0  0  0  0  0  0  0  0  0  0
   12.9620  -16.0598   25.2247 O   0  0  0  0  0  0  0  0  0  0  0  0
   16.7694  -16.5305   21.1704 O   0  0  0  0  0  0  0  0  0  0  0  0
    9.1342  -13.1041   29.0425 C   0  0  0  0  0  0  0  0  0  0  0  0
   10.1782  -14.1183   28.0347 S   0  0  0  0  0  0  0  0  0  0  0  0
    9.4301  -15.4787   27.1816 C   0  0  0  0  0  0  0  0  0  0  0  0
   10.3699  -16.3684   26.4652 C   0  0  0  0  0  0  0  0  0  0  0  0
   11.4341  -17.0534   27.2380 C   0  0  2  0  0  0  0  0  0  0  0  0
   12.1861  -17.8881   26.2765 N   0  0  0  0  0  0  0  0  0  0  0  0
   10.9526  -17.8546   28.3909 C   0  0  0  0  0  0  0  0  0  0  0  0
   10.4718  -19.1355   28.2494 O   0  0  0  0  0  0  0  0  0  0  0  0
   10.9757  -17.3787   29.5434 O   0  0  0  0  0  0  0  0  0  0  0  0
  2  1  1  1
  2 13  1  0
  3  4  1  0
  3  2  1  0
  4 12  1  0
  4  5  2  0
  5  6  1  0
  7  8  2  0
  7  6  1  0
  9  8  1  0
 10  9  2  0
 11 10  1  0
 11 12  2  0
 12  7  1  0
 13 14  2  0
 15 13  1  0
 15 16  1  0
 16 17  1  6
 18 17  1  0
 19 18  1  0
 20 19  2  0
 21 16  1  0
 21 22  2  0
 23 19  1  0
 25 24  1  0
 25 26  1  0
 26 27  1  0
 28 27  1  6
 28 29  1  0
 29 21  1  0
 30 28  1  0
 31 30  1  0
 32 30  2  0
M  END
$$$$
