WEM.pdb
     RDKit          3D

 32 33  0  0  1  0  0  0  0  0999 V2000
    6.1208  -17.9111   24.3981 N   0  0  0  0  0  0  0  0  0  0  0  0
    7.0914  -16.9868   23.8337 C   0  0  1  0  0  0  0  0  0  0  0  0
    7.7229  -16.2348   25.0093 C   0  0  0  0  0  0  0  0  0  0  0  0
    6.8356  -15.1266   25.3888 C   0  0  0  0  0  0  0  0  0  0  0  0
    5.5818  -15.2529   25.9466 C   0  0  0  0  0  0  0  0  0  0  0  0
    5.0910  -14.0246   26.1468 N   0  0  0  0  0  0  0  0  0  0  0  0
    6.0125  -13.1239   25.7248 C   0  0  0  0  0  0  0  0  0  0  0  0
    5.9987  -11.7603   25.7079 C   0  0  0  0  0  0  0  0  0  0  0  0
    7.0820  -11.0537   25.2135 C   0  0  0  0  0  0  0  0  0  0  0  0
    8.1952  -11.7332   24.7298 C   0  0  0  0  0  0  0  0  0  0  0  0
    8.2006  -13.1127   24.7507 C   0  0  0  0  0  0  0  0  0  0  0  0
    7.1226  -13.7904   25.2419 C   0  0  0  0  0  0  0  0  0  0  0  0
    8.2224  -17.6901   23.1725 C   0  0  0  0  0  0  0  0  0  0  0  0
    8.6159  -18.8072   23.6447 O   0  0  0  0  0  0  0  0  0  0  0  0
    8.8643  -17.1706   22.0555 N   0  0  0  0  0  0  0  0  0  0  0  0
   10.3454  -17.4881   21.7777 C   0  0  1  0  0  0  0  0  0  0  0  0
   10.5286  -17.3402   20.3470 C   0  0  0  0  0  0  0  0  0  0  0  0
   11.8039  -17.5189   19.6756 C   0  0  0  0  0  0  0  0  0  0  0  0
   11.9884  -17.3077   18.2583 C   0  0  0  0  0  0  0  0  0  0  0  0
   11.0910  -17.5175   17.4319 O   0  0  0  0  0  0  0  0  0  0  0  0
   11.0053  -16.7521   22.7960 C   0  0  0  0  0  0  0  0  0  0  0  0
   10.6792  -15.5132   22.9947 O   0  0  0  0  0  0  0  0  0  0  0  0
   13.2101  -16.8461   17.7244 O   0  0  0  0  0  0  0  0  0  0  0  0
   11.1222  -13.3124   28.9816 C   0  0  0  0  0  0  0  0  0  0  0  0
   10.9974  -14.6635   27.8444 S   0  0  0  0  0  0  0  0  0  0  0  0
   12.0015  -14.6084   26.3860 C   0  0  0  0  0  0  0  0  0  0  0  0
   11.6108  -15.5502   25.3145 C   0  0  0  0  0  0  0  0  0  0  0  0
   12.6751  -16.2642   24.5685 C   0  0  2  0  0  0  0  0  0  0  0  0
   11.9940  -17.2105   23.6592 N   0  0  0  0  0  0  0  0  0  0  0  0
   13.6782  -16.9545   25.4173 C   0  0  0  0  0  0  0  0  0  0  0  0
   13.5510  -18.2741   25.7840 O   0  0  0  0  0  0  0  0  0  0  0  0
   14.6864  -16.3443   25.8254 O   0  0  0  0  0  0  0  0  0  0  0  0
  2  1  1  1
  2 13  1  0
  3  4  1  0
  3  2  1  0
  4 12  1  0
  4  5  2  0
  5  6  1  0
  7  8  2  0
  7  6  1  0
  9  8  1  0
 10  9  2  0
 11 10  1  0
 11 12  2  0
 12  7  1  0
 13 14  2  0
 15 13  1  0
 15 16  1  0
 16 17  1  6
 18 17  1  0
 19 18  1  0
 20 19  2  0
 21 16  1  0
 21 22  2  0
 23 19  1  0
 25 24  1  0
 25 26  1  0
 26 27  1  0
 28 27  1  1
 28 29  1  0
 29 21  1  0
 30 28  1  0
 31 30  1  0
 32 30  2  0
M  END
$$$$
