WEM.pdb
     RDKit          3D

 32 33  0  0  1  0  0  0  0  0999 V2000
    6.4876  -18.1163   24.9602 N   0  0  0  0  0  0  0  0  0  0  0  0
    7.3068  -17.0325   24.4412 C   0  0  1  0  0  0  0  0  0  0  0  0
    7.7690  -16.2095   25.6476 C   0  0  0  0  0  0  0  0  0  0  0  0
    6.8368  -15.0894   25.8368 C   0  0  0  0  0  0  0  0  0  0  0  0
    5.5902  -15.1681   26.4190 C   0  0  0  0  0  0  0  0  0  0  0  0
    5.0487  -13.9449   26.4075 N   0  0  0  0  0  0  0  0  0  0  0  0
    5.9311  -13.0942   25.8276 C   0  0  0  0  0  0  0  0  0  0  0  0
    5.8603  -11.7560   25.5746 C   0  0  0  0  0  0  0  0  0  0  0  0
    6.9124  -11.1023   24.9556 C   0  0  0  0  0  0  0  0  0  0  0  0
    8.0523  -11.8093   24.5873 C   0  0  0  0  0  0  0  0  0  0  0  0
    8.1153  -13.1628   24.8471 C   0  0  0  0  0  0  0  0  0  0  0  0
    7.0674  -13.7884   25.4579 C   0  0  0  0  0  0  0  0  0  0  0  0
    8.5582  -17.5248   23.8068 C   0  0  0  0  0  0  0  0  0  0  0  0
    9.0539  -18.6329   24.1969 O   0  0  0  0  0  0  0  0  0  0  0  0
    9.2052  -16.8176   22.8014 N   0  0  0  0  0  0  0  0  0  0  0  0
   10.6089  -17.2323   22.3227 C   0  0  1  0  0  0  0  0  0  0  0  0
   10.6332  -16.9977   20.8920 C   0  0  0  0  0  0  0  0  0  0  0  0
   11.8040  -17.2136   20.0603 C   0  0  0  0  0  0  0  0  0  0  0  0
   11.7960  -17.0495   18.6249 C   0  0  0  0  0  0  0  0  0  0  0  0
   12.8332  -16.8970   17.9667 O   0  0  0  0  0  0  0  0  0  0  0  0
   11.4475  -16.6265   23.2941 C   0  0  0  0  0  0  0  0  0  0  0  0
   11.2575  -15.3831   23.6080 O   0  0  0  0  0  0  0  0  0  0  0  0
   10.5982  -17.0531   17.8791 O   0  0  0  0  0  0  0  0  0  0  0  0
   10.1519  -14.6301   29.4779 C   0  0  0  0  0  0  0  0  0  0  0  0
   11.1195  -14.8729   28.0154 S   0  0  0  0  0  0  0  0  0  0  0  0
   11.5600  -16.5340   27.5852 C   0  0  0  0  0  0  0  0  0  0  0  0
   11.5331  -16.8398   26.1383 C   0  0  0  0  0  0  0  0  0  0  0  0
   12.8006  -16.7758   25.3714 C   0  0  2  0  0  0  0  0  0  0  0  0
   12.4880  -17.2231   23.9971 N   0  0  0  0  0  0  0  0  0  0  0  0
   13.9232  -17.5537   25.9526 C   0  0  0  0  0  0  0  0  0  0  0  0
   14.7575  -17.0370   26.9163 O   0  0  0  0  0  0  0  0  0  0  0  0
   14.1414  -18.7229   25.5773 O   0  0  0  0  0  0  0  0  0  0  0  0
  2  1  1  1
  2 13  1  0
  3  4  1  0
  3  2  1  0
  4 12  1  0
  4  5  2  0
  5  6  1  0
  7  8  2  0
  7  6  1  0
  9  8  1  0
 10  9  2  0
 11 10  1  0
 11 12  2  0
 12  7  1  0
 13 14  2  0
 15 13  1  0
 15 16  1  0
 16 17  1  6
 18 17  1  0
 19 18  1  0
 20 19  2  0
 21 16  1  0
 21 22  2  0
 23 19  1  0
 25 24  1  0
 25 26  1  0
 26 27  1  0
 28 27  1  1
 28 29  1  0
 29 21  1  0
 30 28  1  0
 31 30  1  0
 32 30  2  0
M  END
$$$$
