WEM.pdb
     RDKit          3D

 32 33  0  0  1  0  0  0  0  0999 V2000
    8.2739  -18.7313   19.1544 N   0  0  0  0  0  0  0  0  0  0  0  0
    8.6590  -17.6195   20.0093 C   0  0  1  0  0  0  0  0  0  0  0  0
    7.3820  -16.8288   20.3100 C   0  0  0  0  0  0  0  0  0  0  0  0
    7.5860  -15.4331   19.8978 C   0  0  0  0  0  0  0  0  0  0  0  0
    7.7897  -14.9957   18.6069 C   0  0  0  0  0  0  0  0  0  0  0  0
    7.9348  -13.6662   18.6372 N   0  0  0  0  0  0  0  0  0  0  0  0
    7.8269  -13.2554   19.9249 C   0  0  0  0  0  0  0  0  0  0  0  0
    7.9021  -12.0142   20.4847 C   0  0  0  0  0  0  0  0  0  0  0  0
    7.7600  -11.8514   21.8525 C   0  0  0  0  0  0  0  0  0  0  0  0
    7.5384  -12.9574   22.6665 C   0  0  0  0  0  0  0  0  0  0  0  0
    7.4638  -14.2093   22.0917 C   0  0  0  0  0  0  0  0  0  0  0  0
    7.6067  -14.3483   20.7416 C   0  0  0  0  0  0  0  0  0  0  0  0
    9.1542  -18.0730   21.3360 C   0  0  0  0  0  0  0  0  0  0  0  0
    8.6198  -19.0958   21.8782 O   0  0  0  0  0  0  0  0  0  0  0  0
   10.1817  -17.4193   22.0043 N   0  0  0  0  0  0  0  0  0  0  0  0
   10.7691  -17.9965   23.3056 C   0  0  1  0  0  0  0  0  0  0  0  0
   12.0233  -18.6247   22.9386 C   0  0  0  0  0  0  0  0  0  0  0  0
   12.8090  -18.2380   21.7799 C   0  0  0  0  0  0  0  0  0  0  0  0
   14.2249  -17.9575   21.8418 C   0  0  0  0  0  0  0  0  0  0  0  0
   14.6726  -16.8825   22.2616 O   0  0  0  0  0  0  0  0  0  0  0  0
   10.5955  -16.9210   24.2152 C   0  0  0  0  0  0  0  0  0  0  0  0
   10.7579  -15.7049   23.7965 O   0  0  0  0  0  0  0  0  0  0  0  0
   15.1917  -18.8971   21.4256 O   0  0  0  0  0  0  0  0  0  0  0  0
    6.4591  -11.6389   26.9455 C   0  0  0  0  0  0  0  0  0  0  0  0
    6.9664  -13.1533   26.1816 S   0  0  0  0  0  0  0  0  0  0  0  0
    8.5062  -13.8610   26.6977 C   0  0  0  0  0  0  0  0  0  0  0  0
    8.9354  -15.0583   25.9427 C   0  0  0  0  0  0  0  0  0  0  0  0
   10.1610  -15.7729   26.3742 C   0  0  2  0  0  0  0  0  0  0  0  0
   10.2444  -17.0030   25.5578 N   0  0  0  0  0  0  0  0  0  0  0  0
   10.2282  -16.0795   27.8249 C   0  0  0  0  0  0  0  0  0  0  0  0
   10.3722  -17.3615   28.3020 O   0  0  0  0  0  0  0  0  0  0  0  0
   10.1584  -15.1625   28.6673 O   0  0  0  0  0  0  0  0  0  0  0  0
  2  1  1  6
  2 13  1  0
  3  4  1  0
  3  2  1  0
  4 12  1  0
  4  5  2  0
  5  6  1  0
  7  8  2  0
  7  6  1  0
  9  8  1  0
 10  9  2  0
 11 10  1  0
 11 12  2  0
 12  7  1  0
 13 14  2  0
 15 13  1  0
 15 16  1  0
 16 17  1  6
 18 17  1  0
 19 18  1  0
 20 19  2  0
 21 16  1  0
 21 22  2  0
 23 19  1  0
 25 24  1  0
 25 26  1  0
 26 27  1  0
 28 27  1  1
 28 29  1  0
 29 21  1  0
 30 28  1  0
 31 30  1  0
 32 30  2  0
M  END
$$$$
