WEM.pdb
     RDKit          3D

 32 33  0  0  1  0  0  0  0  0999 V2000
    6.7067  -17.5875   25.0888 N   0  0  0  0  0  0  0  0  0  0  0  0
    7.6833  -16.7859   24.3684 C   0  0  1  0  0  0  0  0  0  0  0  0
    8.1971  -15.7269   25.3487 C   0  0  0  0  0  0  0  0  0  0  0  0
    7.1097  -14.7786   25.6278 C   0  0  0  0  0  0  0  0  0  0  0  0
    5.9607  -15.0560   26.3362 C   0  0  0  0  0  0  0  0  0  0  0  0
    5.2182  -13.9439   26.3748 N   0  0  0  0  0  0  0  0  0  0  0  0
    5.8776  -12.9683   25.7026 C   0  0  0  0  0  0  0  0  0  0  0  0
    5.5521  -11.6680   25.4517 C   0  0  0  0  0  0  0  0  0  0  0  0
    6.4077  -10.8582   24.7240 C   0  0  0  0  0  0  0  0  0  0  0  0
    7.6092  -11.3682   24.2433 C   0  0  0  0  0  0  0  0  0  0  0  0
    7.9305  -12.6847   24.5018 C   0  0  0  0  0  0  0  0  0  0  0  0
    7.0733  -13.4663   25.2208 C   0  0  0  0  0  0  0  0  0  0  0  0
    8.8854  -17.5720   23.9838 C   0  0  0  0  0  0  0  0  0  0  0  0
    9.0949  -18.6960   24.5481 O   0  0  0  0  0  0  0  0  0  0  0  0
    9.7878  -17.1227   23.0280 N   0  0  0  0  0  0  0  0  0  0  0  0
   11.1595  -17.8015   22.8573 C   0  0  1  0  0  0  0  0  0  0  0  0
   11.6156  -17.4602   21.5239 C   0  0  0  0  0  0  0  0  0  0  0  0
   11.0715  -18.0468   20.3118 C   0  0  0  0  0  0  0  0  0  0  0  0
   11.0980  -17.3811   19.0298 C   0  0  0  0  0  0  0  0  0  0  0  0
   12.1511  -17.0159   18.4912 O   0  0  0  0  0  0  0  0  0  0  0  0
   11.8054  -17.4830   24.0801 C   0  0  0  0  0  0  0  0  0  0  0  0
   12.5701  -16.4378   24.1391 O   0  0  0  0  0  0  0  0  0  0  0  0
    9.9183  -17.1043   18.3070 O   0  0  0  0  0  0  0  0  0  0  0  0
   10.8901  -13.2934   28.4491 C   0  0  0  0  0  0  0  0  0  0  0  0
   11.5135  -14.9379   28.6521 S   0  0  0  0  0  0  0  0  0  0  0  0
   11.7486  -15.9157   27.1937 C   0  0  0  0  0  0  0  0  0  0  0  0
   12.2396  -17.2911   27.4281 C   0  0  0  0  0  0  0  0  0  0  0  0
   12.7946  -18.0556   26.2851 C   0  0  2  0  0  0  0  0  0  0  0  0
   11.7112  -18.1698   25.2852 N   0  0  0  0  0  0  0  0  0  0  0  0
   13.3525  -19.3860   26.6344 C   0  0  0  0  0  0  0  0  0  0  0  0
   14.5250  -19.5323   27.3384 O   0  0  0  0  0  0  0  0  0  0  0  0
   12.7577  -20.4283   26.2950 O   0  0  0  0  0  0  0  0  0  0  0  0
  2  1  1  1
  2 13  1  0
  3  4  1  0
  3  2  1  0
  4 12  1  0
  4  5  2  0
  5  6  1  0
  7  8  2  0
  7  6  1  0
  9  8  1  0
 10  9  2  0
 11 10  1  0
 11 12  2  0
 12  7  1  0
 13 14  2  0
 15 13  1  0
 15 16  1  0
 16 17  1  6
 18 17  1  0
 19 18  1  0
 20 19  2  0
 21 16  1  0
 21 22  2  0
 23 19  1  0
 25 24  1  0
 25 26  1  0
 26 27  1  0
 28 27  1  1
 28 29  1  0
 29 21  1  0
 30 28  1  0
 31 30  1  0
 32 30  2  0
M  END
$$$$
