WEM.pdb
     RDKit          3D

 32 33  0  0  1  0  0  0  0  0999 V2000
    6.3697  -17.6309   24.7557 N   0  0  0  0  0  0  0  0  0  0  0  0
    7.3345  -16.7336   24.1397 C   0  0  1  0  0  0  0  0  0  0  0  0
    7.9304  -15.8832   25.2657 C   0  0  0  0  0  0  0  0  0  0  0  0
    6.9613  -14.8399   25.6292 C   0  0  0  0  0  0  0  0  0  0  0  0
    5.7234  -15.0524   26.1962 C   0  0  0  0  0  0  0  0  0  0  0  0
    5.1395  -13.8623   26.3761 N   0  0  0  0  0  0  0  0  0  0  0  0
    5.9867  -12.9010   25.9323 C   0  0  0  0  0  0  0  0  0  0  0  0
    5.8671  -11.5432   25.8900 C   0  0  0  0  0  0  0  0  0  0  0  0
    6.8904  -10.7643   25.3766 C   0  0  0  0  0  0  0  0  0  0  0  0
    8.0509  -11.3646   24.8995 C   0  0  0  0  0  0  0  0  0  0  0  0
    8.1634  -12.7389   24.9462 C   0  0  0  0  0  0  0  0  0  0  0  0
    7.1432  -13.4886   25.4559 C   0  0  0  0  0  0  0  0  0  0  0  0
    8.4899  -17.4634   23.5537 C   0  0  0  0  0  0  0  0  0  0  0  0
    8.7932  -18.6126   24.0155 O   0  0  0  0  0  0  0  0  0  0  0  0
    9.2497  -16.9348   22.5180 N   0  0  0  0  0  0  0  0  0  0  0  0
   10.7414  -17.2891   22.3733 C   0  0  1  0  0  0  0  0  0  0  0  0
   11.1287  -16.8693   21.0405 C   0  0  0  0  0  0  0  0  0  0  0  0
   12.4571  -17.0672   20.4879 C   0  0  0  0  0  0  0  0  0  0  0  0
   12.6987  -17.7276   19.2259 C   0  0  0  0  0  0  0  0  0  0  0  0
   11.8600  -17.7511   18.3158 O   0  0  0  0  0  0  0  0  0  0  0  0
   11.2809  -16.8190   23.5988 C   0  0  0  0  0  0  0  0  0  0  0  0
   11.7794  -15.6236   23.6544 O   0  0  0  0  0  0  0  0  0  0  0  0
   13.9131  -18.3908   18.9500 O   0  0  0  0  0  0  0  0  0  0  0  0
   11.0638  -13.4838   28.7070 C   0  0  0  0  0  0  0  0  0  0  0  0
    9.9994  -14.7710   28.1201 S   0  0  0  0  0  0  0  0  0  0  0  0
   10.5409  -15.7145   26.7220 C   0  0  0  0  0  0  0  0  0  0  0  0
   11.7377  -16.5528   26.9513 C   0  0  0  0  0  0  0  0  0  0  0  0
   12.4017  -17.1835   25.7850 C   0  0  2  0  0  0  0  0  0  0  0  0
   11.3360  -17.4996   24.8098 N   0  0  0  0  0  0  0  0  0  0  0  0
   13.2186  -18.3814   26.1027 C   0  0  0  0  0  0  0  0  0  0  0  0
   14.3946  -18.3051   26.8119 O   0  0  0  0  0  0  0  0  0  0  0  0
   12.8500  -19.5132   25.7305 O   0  0  0  0  0  0  0  0  0  0  0  0
  2  1  1  1
  2 13  1  0
  3  4  1  0
  3  2  1  0
  4 12  1  0
  4  5  2  0
  5  6  1  0
  7  8  2  0
  7  6  1  0
  9  8  1  0
 10  9  2  0
 11 10  1  0
 11 12  2  0
 12  7  1  0
 13 14  2  0
 15 13  1  0
 15 16  1  0
 16 17  1  6
 18 17  1  0
 19 18  1  0
 20 19  2  0
 21 16  1  0
 21 22  2  0
 23 19  1  0
 25 24  1  0
 25 26  1  0
 26 27  1  0
 28 27  1  1
 28 29  1  0
 29 21  1  0
 30 28  1  0
 31 30  1  0
 32 30  2  0
M  END
$$$$
