WEM.pdb
     RDKit          3D

 32 33  0  0  1  0  0  0  0  0999 V2000
    6.2304  -18.8771   23.5122 N   0  0  0  0  0  0  0  0  0  0  0  0
    6.9449  -17.6112   23.4657 C   0  0  1  0  0  0  0  0  0  0  0  0
    6.4256  -16.7662   24.6330 C   0  0  0  0  0  0  0  0  0  0  0  0
    6.8080  -15.3657   24.4053 C   0  0  0  0  0  0  0  0  0  0  0  0
    7.4342  -14.8740   23.2805 C   0  0  0  0  0  0  0  0  0  0  0  0
    7.6157  -13.5592   23.4478 N   0  0  0  0  0  0  0  0  0  0  0  0
    7.1156  -13.2111   24.6591 C   0  0  0  0  0  0  0  0  0  0  0  0
    7.0568  -12.0080   25.2984 C   0  0  0  0  0  0  0  0  0  0  0  0
    6.4885  -11.9093   26.5572 C   0  0  0  0  0  0  0  0  0  0  0  0
    5.9719  -13.0411   27.1792 C   0  0  0  0  0  0  0  0  0  0  0  0
    6.0355  -14.2541   26.5252 C   0  0  0  0  0  0  0  0  0  0  0  0
    6.5999  -14.3301   25.2849 C   0  0  0  0  0  0  0  0  0  0  0  0
    8.4000  -17.7746   23.7241 C   0  0  0  0  0  0  0  0  0  0  0  0
    8.7775  -18.5530   24.6607 O   0  0  0  0  0  0  0  0  0  0  0  0
    9.3629  -17.1076   22.9773 N   0  0  0  0  0  0  0  0  0  0  0  0
   10.8587  -17.4308   23.1496 C   0  0  1  0  0  0  0  0  0  0  0  0
   11.5114  -16.9809   21.9355 C   0  0  0  0  0  0  0  0  0  0  0  0
   12.9244  -17.1747   21.6614 C   0  0  0  0  0  0  0  0  0  0  0  0
   13.4282  -17.6241   20.3841 C   0  0  0  0  0  0  0  0  0  0  0  0
   12.7385  -17.6152   19.3562 O   0  0  0  0  0  0  0  0  0  0  0  0
   11.1142  -16.9716   24.4678 C   0  0  0  0  0  0  0  0  0  0  0  0
   11.4154  -15.7249   24.6571 O   0  0  0  0  0  0  0  0  0  0  0  0
   14.7458  -18.1038   20.2274 O   0  0  0  0  0  0  0  0  0  0  0  0
   11.1391  -12.2697   27.6292 C   0  0  0  0  0  0  0  0  0  0  0  0
   10.3755  -13.5807   28.5417 S   0  0  0  0  0  0  0  0  0  0  0  0
   11.0962  -15.1947   28.4242 C   0  0  0  0  0  0  0  0  0  0  0  0
   10.9848  -15.8409   27.0984 C   0  0  0  0  0  0  0  0  0  0  0  0
   11.6332  -17.1580   26.8894 C   0  0  2  0  0  0  0  0  0  0  0  0
   11.0690  -17.7154   25.6414 N   0  0  0  0  0  0  0  0  0  0  0  0
   11.4942  -18.1099   28.0198 C   0  0  0  0  0  0  0  0  0  0  0  0
   10.2733  -18.4381   28.5616 O   0  0  0  0  0  0  0  0  0  0  0  0
   12.5020  -18.6517   28.5159 O   0  0  0  0  0  0  0  0  0  0  0  0
  2  1  1  1
  2 13  1  0
  3  4  1  0
  3  2  1  0
  4 12  1  0
  4  5  2  0
  5  6  1  0
  7  8  2  0
  7  6  1  0
  9  8  1  0
 10  9  2  0
 11 10  1  0
 11 12  2  0
 12  7  1  0
 13 14  2  0
 15 13  1  0
 15 16  1  0
 16 17  1  6
 18 17  1  0
 19 18  1  0
 20 19  2  0
 21 16  1  0
 21 22  2  0
 23 19  1  0
 25 24  1  0
 25 26  1  0
 26 27  1  0
 28 27  1  1
 28 29  1  0
 29 21  1  0
 30 28  1  0
 31 30  1  0
 32 30  2  0
M  END
$$$$
