WEM.pdb
     RDKit          3D

 32 33  0  0  1  0  0  0  0  0999 V2000
    6.0342  -18.3357   24.7707 N   0  0  0  0  0  0  0  0  0  0  0  0
    7.0147  -17.3360   24.3778 C   0  0  1  0  0  0  0  0  0  0  0  0
    7.3799  -16.5526   25.6424 C   0  0  0  0  0  0  0  0  0  0  0  0
    6.7020  -15.2496   25.5998 C   0  0  0  0  0  0  0  0  0  0  0  0
    5.5304  -14.9291   26.2508 C   0  0  0  0  0  0  0  0  0  0  0  0
    5.2327  -13.6561   25.9670 N   0  0  0  0  0  0  0  0  0  0  0  0
    6.1955  -13.1663   25.1474 C   0  0  0  0  0  0  0  0  0  0  0  0
    6.3541  -11.9383   24.5759 C   0  0  0  0  0  0  0  0  0  0  0  0
    7.4411  -11.6801   23.7579 C   0  0  0  0  0  0  0  0  0  0  0  0
    8.3816  -12.6755   23.5139 C   0  0  0  0  0  0  0  0  0  0  0  0
    8.2133  -13.9148   24.0963 C   0  0  0  0  0  0  0  0  0  0  0  0
    7.1348  -14.1491   24.8991 C   0  0  0  0  0  0  0  0  0  0  0  0
    8.2906  -17.9465   23.9194 C   0  0  0  0  0  0  0  0  0  0  0  0
    8.6515  -19.0661   24.4112 O   0  0  0  0  0  0  0  0  0  0  0  0
    9.1027  -17.3375   22.9710 N   0  0  0  0  0  0  0  0  0  0  0  0
   10.5527  -17.8087   22.7544 C   0  0  1  0  0  0  0  0  0  0  0  0
   10.8863  -17.4716   21.3841 C   0  0  0  0  0  0  0  0  0  0  0  0
   12.2215  -17.5958   20.8263 C   0  0  0  0  0  0  0  0  0  0  0  0
   12.5543  -17.2048   19.4759 C   0  0  0  0  0  0  0  0  0  0  0  0
   13.6354  -17.4937   18.9467 O   0  0  0  0  0  0  0  0  0  0  0  0
   11.1999  -17.3332   23.9244 C   0  0  0  0  0  0  0  0  0  0  0  0
   10.9253  -16.1439   24.3613 O   0  0  0  0  0  0  0  0  0  0  0  0
   11.6624  -16.4651   18.6708 O   0  0  0  0  0  0  0  0  0  0  0  0
   10.4852  -13.5233   29.4253 C   0  0  0  0  0  0  0  0  0  0  0  0
   10.3932  -14.4433   27.9155 S   0  0  0  0  0  0  0  0  0  0  0  0
   11.5850  -15.7288   27.6602 C   0  0  0  0  0  0  0  0  0  0  0  0
   11.5302  -16.3868   26.3366 C   0  0  0  0  0  0  0  0  0  0  0  0
   12.4677  -17.5003   26.0535 C   0  0  2  0  0  0  0  0  0  0  0  0
   12.1245  -18.0125   24.7095 N   0  0  0  0  0  0  0  0  0  0  0  0
   12.4702  -18.5878   27.0638 C   0  0  0  0  0  0  0  0  0  0  0  0
   13.1902  -18.5066   28.2330 O   0  0  0  0  0  0  0  0  0  0  0  0
   11.8020  -19.6241   26.8769 O   0  0  0  0  0  0  0  0  0  0  0  0
  2  1  1  1
  2 13  1  0
  3  4  1  0
  3  2  1  0
  4 12  1  0
  4  5  2  0
  5  6  1  0
  7  8  2  0
  7  6  1  0
  9  8  1  0
 10  9  2  0
 11 10  1  0
 11 12  2  0
 12  7  1  0
 13 14  2  0
 15 13  1  0
 15 16  1  0
 16 17  1  6
 18 17  1  0
 19 18  1  0
 20 19  2  0
 21 16  1  0
 21 22  2  0
 23 19  1  0
 25 24  1  0
 25 26  1  0
 26 27  1  0
 28 27  1  1
 28 29  1  0
 29 21  1  0
 30 28  1  0
 31 30  1  0
 32 30  2  0
M  END
$$$$
