WEM.pdb
     RDKit          3D

 32 33  0  0  1  0  0  0  0  0999 V2000
    6.0203  -18.4849   23.3472 N   0  0  0  0  0  0  0  0  0  0  0  0
    6.9979  -17.4141   23.4606 C   0  0  1  0  0  0  0  0  0  0  0  0
    7.1491  -17.1084   24.9539 C   0  0  0  0  0  0  0  0  0  0  0  0
    6.6115  -15.7659   25.2151 C   0  0  0  0  0  0  0  0  0  0  0  0
    5.5707  -15.4665   26.0673 C   0  0  0  0  0  0  0  0  0  0  0  0
    5.3749  -14.1435   26.0345 N   0  0  0  0  0  0  0  0  0  0  0  0
    6.2736  -13.6014   25.1760 C   0  0  0  0  0  0  0  0  0  0  0  0
    6.4872  -12.3108   24.7905 C   0  0  0  0  0  0  0  0  0  0  0  0
    7.4843  -12.0066   23.8791 C   0  0  0  0  0  0  0  0  0  0  0  0
    8.2773  -13.0194   23.3498 C   0  0  0  0  0  0  0  0  0  0  0  0
    8.0542  -14.3221   23.7454 C   0  0  0  0  0  0  0  0  0  0  0  0
    7.0661  -14.6010   24.6446 C   0  0  0  0  0  0  0  0  0  0  0  0
    8.3517  -17.8363   23.0135 C   0  0  0  0  0  0  0  0  0  0  0  0
    8.7670  -19.0027   23.3178 O   0  0  0  0  0  0  0  0  0  0  0  0
    9.1795  -17.0016   22.2734 N   0  0  0  0  0  0  0  0  0  0  0  0
   10.6526  -17.3729   22.0212 C   0  0  1  0  0  0  0  0  0  0  0  0
   11.0658  -16.6162   20.8554 C   0  0  0  0  0  0  0  0  0  0  0  0
   10.8306  -17.0494   19.4892 C   0  0  0  0  0  0  0  0  0  0  0  0
   11.8925  -17.2636   18.5332 C   0  0  0  0  0  0  0  0  0  0  0  0
   13.0430  -16.8431   18.7113 O   0  0  0  0  0  0  0  0  0  0  0  0
   11.2091  -17.2911   23.3241 C   0  0  0  0  0  0  0  0  0  0  0  0
   12.4929  -17.3944   23.4721 O   0  0  0  0  0  0  0  0  0  0  0  0
   11.6833  -17.9700   17.3299 O   0  0  0  0  0  0  0  0  0  0  0  0
   10.0099  -13.5754   30.1933 C   0  0  0  0  0  0  0  0  0  0  0  0
    9.7255  -14.0096   28.5007 S   0  0  0  0  0  0  0  0  0  0  0  0
   10.8131  -15.1959   27.7605 C   0  0  0  0  0  0  0  0  0  0  0  0
   10.4122  -15.6683   26.4174 C   0  0  0  0  0  0  0  0  0  0  0  0
   11.2662  -16.6645   25.7267 C   0  0  2  0  0  0  0  0  0  0  0  0
   10.5274  -17.0921   24.5192 N   0  0  0  0  0  0  0  0  0  0  0  0
   11.6670  -17.8276   26.5572 C   0  0  0  0  0  0  0  0  0  0  0  0
   12.6495  -17.7454   27.5162 O   0  0  0  0  0  0  0  0  0  0  0  0
   11.1086  -18.9325   26.4068 O   0  0  0  0  0  0  0  0  0  0  0  0
  2  1  1  1
  2 13  1  0
  3  4  1  0
  3  2  1  0
  4 12  1  0
  4  5  2  0
  5  6  1  0
  7  8  2  0
  7  6  1  0
  9  8  1  0
 10  9  2  0
 11 10  1  0
 11 12  2  0
 12  7  1  0
 13 14  2  0
 15 13  1  0
 15 16  1  0
 16 17  1  6
 18 17  1  0
 19 18  1  0
 20 19  2  0
 21 16  1  0
 21 22  2  0
 23 19  1  0
 25 24  1  0
 25 26  1  0
 26 27  1  0
 28 27  1  1
 28 29  1  0
 29 21  1  0
 30 28  1  0
 31 30  1  0
 32 30  2  0
M  END
$$$$
