WEM.pdb
     RDKit          3D

 32 33  0  0  1  0  0  0  0  0999 V2000
    6.5304  -17.4865   24.8440 N   0  0  0  0  0  0  0  0  0  0  0  0
    7.4999  -16.6581   24.1448 C   0  0  1  0  0  0  0  0  0  0  0  0
    8.0170  -15.6311   25.1568 C   0  0  0  0  0  0  0  0  0  0  0  0
    6.9637  -14.6341   25.3939 C   0  0  0  0  0  0  0  0  0  0  0  0
    5.7848  -14.8534   26.0730 C   0  0  0  0  0  0  0  0  0  0  0  0
    5.0896  -13.7105   26.0773 N   0  0  0  0  0  0  0  0  0  0  0  0
    5.8083  -12.7725   25.4123 C   0  0  0  0  0  0  0  0  0  0  0  0
    5.5455  -11.4630   25.1367 C   0  0  0  0  0  0  0  0  0  0  0  0
    6.4546  -10.6998   24.4238 C   0  0  0  0  0  0  0  0  0  0  0  0
    7.6461  -11.2664   23.9832 C   0  0  0  0  0  0  0  0  0  0  0  0
    7.9038  -12.5918   24.2664 C   0  0  0  0  0  0  0  0  0  0  0  0
    6.9945  -13.3269   24.9703 C   0  0  0  0  0  0  0  0  0  0  0  0
    8.7017  -17.4271   23.7261 C   0  0  0  0  0  0  0  0  0  0  0  0
    8.9804  -18.5147   24.3303 O   0  0  0  0  0  0  0  0  0  0  0  0
    9.5309  -17.0001   22.6967 N   0  0  0  0  0  0  0  0  0  0  0  0
   10.9535  -17.5692   22.5419 C   0  0  1  0  0  0  0  0  0  0  0  0
   11.4214  -17.1374   21.2392 C   0  0  0  0  0  0  0  0  0  0  0  0
   12.7090  -17.5117   20.6812 C   0  0  0  0  0  0  0  0  0  0  0  0
   13.1384  -17.1289   19.3559 C   0  0  0  0  0  0  0  0  0  0  0  0
   14.3191  -17.2033   18.9915 O   0  0  0  0  0  0  0  0  0  0  0  0
   11.5384  -17.2586   23.7970 C   0  0  0  0  0  0  0  0  0  0  0  0
   11.6963  -16.0162   24.1322 O   0  0  0  0  0  0  0  0  0  0  0  0
   12.2334  -16.6438   18.3882 O   0  0  0  0  0  0  0  0  0  0  0  0
   10.1393  -14.0645   28.1922 C   0  0  0  0  0  0  0  0  0  0  0  0
   10.5828  -15.5974   28.9589 S   0  0  0  0  0  0  0  0  0  0  0  0
   11.8349  -16.5774   28.1779 C   0  0  0  0  0  0  0  0  0  0  0  0
   11.5590  -16.9523   26.7739 C   0  0  0  0  0  0  0  0  0  0  0  0
   12.6145  -17.6504   26.0008 C   0  0  2  0  0  0  0  0  0  0  0  0
   11.9736  -18.1542   24.7671 N   0  0  0  0  0  0  0  0  0  0  0  0
   13.3104  -18.7378   26.7332 C   0  0  0  0  0  0  0  0  0  0  0  0
   14.1030  -18.4976   27.8314 O   0  0  0  0  0  0  0  0  0  0  0  0
   13.1887  -19.9236   26.3667 O   0  0  0  0  0  0  0  0  0  0  0  0
  2  1  1  1
  2 13  1  0
  3  4  1  0
  3  2  1  0
  4 12  1  0
  4  5  2  0
  5  6  1  0
  7  8  2  0
  7  6  1  0
  9  8  1  0
 10  9  2  0
 11 10  1  0
 11 12  2  0
 12  7  1  0
 13 14  2  0
 15 13  1  0
 15 16  1  0
 16 17  1  6
 18 17  1  0
 19 18  1  0
 20 19  2  0
 21 16  1  0
 21 22  2  0
 23 19  1  0
 25 24  1  0
 25 26  1  0
 26 27  1  0
 28 27  1  1
 28 29  1  0
 29 21  1  0
 30 28  1  0
 31 30  1  0
 32 30  2  0
M  END
$$$$
