WEM.pdb
     RDKit          3D

 32 33  0  0  1  0  0  0  0  0999 V2000
    6.0997  -18.0711   24.8818 N   0  0  0  0  0  0  0  0  0  0  0  0
    6.8901  -17.0703   24.1827 C   0  0  1  0  0  0  0  0  0  0  0  0
    7.5767  -16.2193   25.2555 C   0  0  0  0  0  0  0  0  0  0  0  0
    6.7180  -15.0666   25.5610 C   0  0  0  0  0  0  0  0  0  0  0  0
    5.4359  -15.1274   26.0627 C   0  0  0  0  0  0  0  0  0  0  0  0
    4.9859  -13.8756   26.2045 N   0  0  0  0  0  0  0  0  0  0  0  0
    5.9610  -13.0243   25.8007 C   0  0  0  0  0  0  0  0  0  0  0  0
    6.0026  -11.6624   25.7442 C   0  0  0  0  0  0  0  0  0  0  0  0
    7.1348  -11.0135   25.2812 C   0  0  0  0  0  0  0  0  0  0  0  0
    8.2408  -11.7498   24.8698 C   0  0  0  0  0  0  0  0  0  0  0  0
    8.1901  -13.1272   24.9304 C   0  0  0  0  0  0  0  0  0  0  0  0
    7.0646  -13.7475   25.3897 C   0  0  0  0  0  0  0  0  0  0  0  0
    8.0004  -17.6742   23.3994 C   0  0  0  0  0  0  0  0  0  0  0  0
    8.5396  -18.7501   23.8206 O   0  0  0  0  0  0  0  0  0  0  0  0
    8.4692  -17.1053   22.2221 N   0  0  0  0  0  0  0  0  0  0  0  0
    9.8598  -17.4689   21.6692 C   0  0  1  0  0  0  0  0  0  0  0  0
    9.7846  -17.2828   20.2332 C   0  0  0  0  0  0  0  0  0  0  0  0
   10.9025  -17.5037   19.3328 C   0  0  0  0  0  0  0  0  0  0  0  0
   10.8206  -17.2996   17.9048 C   0  0  0  0  0  0  0  0  0  0  0  0
   11.6939  -16.6967   17.2676 O   0  0  0  0  0  0  0  0  0  0  0  0
   10.7253  -16.7907   22.5663 C   0  0  0  0  0  0  0  0  0  0  0  0
   10.5411  -15.5272   22.7908 O   0  0  0  0  0  0  0  0  0  0  0  0
    9.7337  -17.7779   17.1428 O   0  0  0  0  0  0  0  0  0  0  0  0
   11.1681  -13.4989   28.7576 C   0  0  0  0  0  0  0  0  0  0  0  0
   10.6910  -14.5531   27.4177 S   0  0  0  0  0  0  0  0  0  0  0  0
   11.9754  -15.2158   26.3932 C   0  0  0  0  0  0  0  0  0  0  0  0
   11.5118  -15.9769   25.2127 C   0  0  0  0  0  0  0  0  0  0  0  0
   12.5200  -16.4971   24.2578 C   0  0  2  0  0  0  0  0  0  0  0  0
   11.7881  -17.3316   23.2809 N   0  0  0  0  0  0  0  0  0  0  0  0
   13.6411  -17.2462   24.8784 C   0  0  0  0  0  0  0  0  0  0  0  0
   14.7589  -16.6202   25.3788 O   0  0  0  0  0  0  0  0  0  0  0  0
   13.5960  -18.4893   24.9681 O   0  0  0  0  0  0  0  0  0  0  0  0
  2  1  1  1
  2 13  1  0
  3  4  1  0
  3  2  1  0
  4 12  1  0
  4  5  2  0
  5  6  1  0
  7  8  2  0
  7  6  1  0
  9  8  1  0
 10  9  2  0
 11 10  1  0
 11 12  2  0
 12  7  1  0
 13 14  2  0
 15 13  1  0
 15 16  1  0
 16 17  1  6
 18 17  1  0
 19 18  1  0
 20 19  2  0
 21 16  1  0
 21 22  2  0
 23 19  1  0
 25 24  1  0
 25 26  1  0
 26 27  1  0
 28 27  1  1
 28 29  1  0
 29 21  1  0
 30 28  1  0
 31 30  1  0
 32 30  2  0
M  END
$$$$
