YDR.pdb
     RDKit          3D

 32 32  0  0  1  0  0  0  0  0999 V2000
   29.0927  -19.8607   -3.9356 O   0  0  0  0  0  0  0  0  0  0  0  0
   28.8013  -19.8713   -5.2941 C   0  0  0  0  0  0  0  0  0  0  0  0
   27.5569  -19.4762   -5.7462 C   0  0  0  0  0  0  0  0  0  0  0  0
   27.2988  -19.4989   -7.1137 C   0  0  0  0  0  0  0  0  0  0  0  0
   28.2464  -19.9036   -8.0322 C   0  0  0  0  0  0  0  0  0  0  0  0
   27.9321  -19.9112   -9.4593 C   0  0  0  0  0  0  0  0  0  0  0  0
   26.6569  -20.6618   -9.7581 C   0  0  2  0  0  0  0  0  0  0  0  0
   26.9349  -22.0829   -9.7558 N   0  0  0  0  0  0  0  0  0  0  0  0
   26.0923  -20.2801  -11.0480 C   0  0  0  0  0  0  0  0  0  0  0  0
   25.7225  -19.0959  -11.2445 O   0  0  0  0  0  0  0  0  0  0  0  0
   29.4888  -20.2982   -7.5810 C   0  0  0  0  0  0  0  0  0  0  0  0
   29.7607  -20.2800   -6.2118 C   0  0  0  0  0  0  0  0  0  0  0  0
   25.9190  -21.1798  -12.1486 N   0  0  0  0  0  0  0  0  0  0  0  0
   25.4274  -20.7699  -13.4435 C   0  0  1  0  0  0  0  0  0  0  0  0
   25.8231  -21.8250  -14.4459 C   0  0  0  0  0  0  0  0  0  0  0  0
   27.2091  -21.7539  -14.8996 C   0  0  0  0  0  0  0  0  0  0  0  0
   27.8297  -20.6990  -15.1446 O   0  0  0  0  0  0  0  0  0  0  0  0
   23.9497  -20.6475  -13.4704 C   0  0  0  0  0  0  0  0  0  0  0  0
   23.2700  -21.4609  -12.7950 O   0  0  0  0  0  0  0  0  0  0  0  0
   27.9259  -22.9423  -15.0841 O   0  0  0  0  0  0  0  0  0  0  0  0
   19.5900  -16.1064  -18.4253 N   0  0  0  0  0  0  0  0  0  0  0  0
   18.3990  -16.5089  -17.7598 C   0  0  0  0  0  0  0  0  0  0  0  0
   17.3357  -16.5871  -18.4570 N   0  0  0  0  0  0  0  0  0  0  0  0
   18.3652  -16.8175  -16.3788 N   0  0  0  0  0  0  0  0  0  0  0  0
   19.5167  -16.6330  -15.5470 C   0  0  0  0  0  0  0  0  0  0  0  0
   19.9656  -17.8151  -14.7794 C   0  0  0  0  0  0  0  0  0  0  0  0
   21.3897  -18.1947  -14.7854 C   0  0  0  0  0  0  0  0  0  0  0  0
   21.8164  -19.4230  -14.0895 C   0  0  2  0  0  0  0  0  0  0  0  0
   23.2628  -19.6636  -14.2162 N   0  0  0  0  0  0  0  0  0  0  0  0
   21.1211  -20.6234  -14.5469 C   0  0  0  0  0  0  0  0  0  0  0  0
   21.4802  -21.3090  -15.5660 O   0  0  0  0  0  0  0  0  0  0  0  0
   20.0043  -21.0989  -13.8787 O   0  0  0  0  0  0  0  0  0  0  0  0
  2  1  1  0
  3  2  2  0
  4  3  1  0
  5 11  1  0
  5  4  2  0
  6  5  1  0
  7  6  1  0
  7  8  1  6
  9 10  2  0
  9  7  1  0
 11 12  2  0
 12  2  1  0
 13  9  1  0
 14 13  1  0
 14 15  1  6
 16 15  1  0
 16 20  1  0
 17 16  2  0
 18 14  1  0
 19 18  2  0
 22 21  1  0
 22 23  2  0
 24 22  1  0
 25 24  1  0
 25 26  1  0
 27 26  1  0
 28 27  1  6
 28 29  1  0
 29 18  1  0
 30 28  1  0
 30 32  1  0
 31 30  2  0
M  END
$$$$
