YDR.pdb
     RDKit          3D

 32 32  0  0  1  0  0  0  0  0999 V2000
   24.3492  -33.2794  -19.2782 O   0  0  0  0  0  0  0  0  0  0  0  0
   24.0216  -32.2579  -18.3952 C   0  0  0  0  0  0  0  0  0  0  0  0
   24.9307  -31.8366  -17.4438 C   0  0  0  0  0  0  0  0  0  0  0  0
   24.5698  -30.8107  -16.5752 C   0  0  0  0  0  0  0  0  0  0  0  0
   23.3328  -30.2011  -16.6341 C   0  0  0  0  0  0  0  0  0  0  0  0
   22.9964  -29.1270  -15.7021 C   0  0  0  0  0  0  0  0  0  0  0  0
   22.9429  -27.7796  -16.3806 C   0  0  2  0  0  0  0  0  0  0  0  0
   24.2921  -27.3519  -16.6863 N   0  0  0  0  0  0  0  0  0  0  0  0
   22.2939  -26.7761  -15.5438 C   0  0  0  0  0  0  0  0  0  0  0  0
   22.9801  -26.0764  -14.7581 O   0  0  0  0  0  0  0  0  0  0  0  0
   22.4250  -30.6216  -17.5839 C   0  0  0  0  0  0  0  0  0  0  0  0
   22.7745  -31.6497  -18.4613 C   0  0  0  0  0  0  0  0  0  0  0  0
   20.8859  -26.5152  -15.5457 N   0  0  0  0  0  0  0  0  0  0  0  0
   20.2650  -25.4849  -14.7461 C   0  0  1  0  0  0  0  0  0  0  0  0
   19.4647  -24.5998  -15.6686 C   0  0  0  0  0  0  0  0  0  0  0  0
   18.8345  -23.4505  -15.0253 C   0  0  0  0  0  0  0  0  0  0  0  0
   18.9599  -23.1450  -13.8216 O   0  0  0  0  0  0  0  0  0  0  0  0
   19.3376  -26.0430  -13.7324 C   0  0  0  0  0  0  0  0  0  0  0  0
   18.6421  -27.0423  -14.0442 O   0  0  0  0  0  0  0  0  0  0  0  0
   18.0206  -22.6056  -15.7894 O   0  0  0  0  0  0  0  0  0  0  0  0
   17.4525  -25.6094   -5.5551 N   0  0  0  0  0  0  0  0  0  0  0  0
   18.2505  -24.6001   -6.1613 C   0  0  0  0  0  0  0  0  0  0  0  0
   19.2649  -24.1857   -5.5115 N   0  0  0  0  0  0  0  0  0  0  0  0
   17.9552  -24.0582   -7.4352 N   0  0  0  0  0  0  0  0  0  0  0  0
   16.8003  -24.4768   -8.1721 C   0  0  0  0  0  0  0  0  0  0  0  0
   17.0396  -25.4296   -9.2779 C   0  0  0  0  0  0  0  0  0  0  0  0
   18.0674  -25.1322  -10.2915 C   0  0  0  0  0  0  0  0  0  0  0  0
   18.2168  -26.0235  -11.4569 C   0  0  2  0  0  0  0  0  0  0  0  0
   19.1930  -25.5106  -12.4316 N   0  0  0  0  0  0  0  0  0  0  0  0
   16.9639  -26.2707  -12.1659 C   0  0  0  0  0  0  0  0  0  0  0  0
   16.3738  -27.4058  -12.1937 O   0  0  0  0  0  0  0  0  0  0  0  0
   16.3275  -25.2568  -12.8639 O   0  0  0  0  0  0  0  0  0  0  0  0
  2  1  1  0
  3  2  2  0
  4  3  1  0
  5 11  1  0
  5  4  2  0
  6  5  1  0
  7  6  1  0
  7  8  1  1
  9 10  2  0
  9  7  1  0
 11 12  2  0
 12  2  1  0
 13  9  1  0
 14 13  1  0
 14 15  1  6
 16 15  1  0
 16 20  1  0
 17 16  2  0
 18 14  1  0
 19 18  2  0
 22 21  1  0
 22 23  2  0
 24 22  1  0
 25 24  1  0
 25 26  1  0
 27 26  1  0
 28 27  1  1
 28 29  1  0
 29 18  1  0
 30 28  1  0
 30 32  1  0
 31 30  2  0
M  END
$$$$
