YDR.pdb
     RDKit          3D

 32 32  0  0  1  0  0  0  0  0999 V2000
   30.3519  -21.1013  -18.6744 O   0  0  0  0  0  0  0  0  0  0  0  0
   29.2930  -20.3871  -18.1276 C   0  0  0  0  0  0  0  0  0  0  0  0
   28.0381  -20.9578  -18.0336 C   0  0  0  0  0  0  0  0  0  0  0  0
   26.9999  -20.2142  -17.4803 C   0  0  0  0  0  0  0  0  0  0  0  0
   27.1840  -18.9250  -17.0228 C   0  0  0  0  0  0  0  0  0  0  0  0
   26.0651  -18.1809  -16.4486 C   0  0  0  0  0  0  0  0  0  0  0  0
   25.2359  -17.4925  -17.5056 C   0  0  2  0  0  0  0  0  0  0  0  0
   25.9274  -16.2980  -17.9433 N   0  0  0  0  0  0  0  0  0  0  0  0
   23.9127  -17.1321  -17.0078 C   0  0  0  0  0  0  0  0  0  0  0  0
   23.7864  -16.1842  -16.1934 O   0  0  0  0  0  0  0  0  0  0  0  0
   28.4367  -18.3550  -17.1167 C   0  0  0  0  0  0  0  0  0  0  0  0
   29.4869  -19.0902  -17.6695 C   0  0  0  0  0  0  0  0  0  0  0  0
   22.7020  -17.7964  -17.3864 N   0  0  0  0  0  0  0  0  0  0  0  0
   21.4279  -17.5555  -16.7499 C   0  0  1  0  0  0  0  0  0  0  0  0
   20.3974  -17.3572  -17.8333 C   0  0  0  0  0  0  0  0  0  0  0  0
   19.0558  -17.0362  -17.3552 C   0  0  0  0  0  0  0  0  0  0  0  0
   18.7516  -16.8226  -16.1636 O   0  0  0  0  0  0  0  0  0  0  0  0
   20.9934  -18.6992  -15.9119 C   0  0  0  0  0  0  0  0  0  0  0  0
   21.2913  -19.8616  -16.2857 O   0  0  0  0  0  0  0  0  0  0  0  0
   18.0067  -16.9536  -18.2786 O   0  0  0  0  0  0  0  0  0  0  0  0
   24.9554  -22.2450  -12.9371 N   0  0  0  0  0  0  0  0  0  0  0  0
   24.0645  -23.2849  -13.3222 C   0  0  0  0  0  0  0  0  0  0  0  0
   24.5790  -24.3752  -13.7338 N   0  0  0  0  0  0  0  0  0  0  0  0
   22.6574  -23.1439  -13.2613 N   0  0  0  0  0  0  0  0  0  0  0  0
   22.0191  -21.9044  -13.5901 C   0  0  0  0  0  0  0  0  0  0  0  0
   21.3433  -21.2011  -12.4780 C   0  0  0  0  0  0  0  0  0  0  0  0
   20.7252  -19.8839  -12.7124 C   0  0  0  0  0  0  0  0  0  0  0  0
   19.8449  -19.6926  -13.8801 C   0  0  2  0  0  0  0  0  0  0  0  0
   20.2604  -18.5525  -14.7129 N   0  0  0  0  0  0  0  0  0  0  0  0
   18.4409  -19.5000  -13.5260 C   0  0  0  0  0  0  0  0  0  0  0  0
   17.8596  -18.3601  -13.5151 O   0  0  0  0  0  0  0  0  0  0  0  0
   17.6396  -20.5750  -13.1762 O   0  0  0  0  0  0  0  0  0  0  0  0
  2  1  1  0
  3  2  2  0
  4  3  1  0
  5 11  1  0
  5  4  2  0
  6  5  1  0
  7  6  1  0
  7  8  1  1
  9 10  2  0
  9  7  1  0
 11 12  2  0
 12  2  1  0
 13  9  1  0
 14 13  1  0
 14 15  1  6
 16 15  1  0
 16 20  1  0
 17 16  2  0
 18 14  1  0
 19 18  2  0
 22 21  1  0
 22 23  2  0
 24 22  1  0
 25 24  1  0
 25 26  1  0
 27 26  1  0
 28 27  1  1
 28 29  1  0
 29 18  1  0
 30 28  1  0
 30 32  1  0
 31 30  2  0
M  END
$$$$
