YDR.pdb
     RDKit          3D

 32 32  0  0  1  0  0  0  0  0999 V2000
   17.7150  -28.6358  -14.6310 O   0  0  0  0  0  0  0  0  0  0  0  0
   18.9980  -28.3222  -15.0623 C   0  0  0  0  0  0  0  0  0  0  0  0
   20.0363  -28.2223  -14.1561 C   0  0  0  0  0  0  0  0  0  0  0  0
   21.3091  -27.9066  -14.6224 C   0  0  0  0  0  0  0  0  0  0  0  0
   21.5669  -27.6902  -15.9610 C   0  0  0  0  0  0  0  0  0  0  0  0
   22.9192  -27.3613  -16.4064 C   0  0  0  0  0  0  0  0  0  0  0  0
   22.9880  -26.0054  -17.0665 C   0  0  2  0  0  0  0  0  0  0  0  0
   24.3496  -25.7571  -17.4921 N   0  0  0  0  0  0  0  0  0  0  0  0
   22.5597  -24.9410  -16.1654 C   0  0  0  0  0  0  0  0  0  0  0  0
   23.3431  -24.5163  -15.2801 O   0  0  0  0  0  0  0  0  0  0  0  0
   20.5304  -27.7898  -16.8659 C   0  0  0  0  0  0  0  0  0  0  0  0
   19.2488  -28.1059  -16.4113 C   0  0  0  0  0  0  0  0  0  0  0  0
   21.2708  -24.3186  -16.2103 N   0  0  0  0  0  0  0  0  0  0  0  0
   20.8688  -23.2530  -15.3219 C   0  0  1  0  0  0  0  0  0  0  0  0
   20.4109  -22.0911  -16.1676 C   0  0  0  0  0  0  0  0  0  0  0  0
   19.9860  -20.9132  -15.4168 C   0  0  0  0  0  0  0  0  0  0  0  0
   20.4256  -20.5801  -14.2970 O   0  0  0  0  0  0  0  0  0  0  0  0
   19.7417  -23.6490  -14.4434 C   0  0  0  0  0  0  0  0  0  0  0  0
   18.8384  -24.3799  -14.9226 O   0  0  0  0  0  0  0  0  0  0  0  0
   19.0122  -20.0712  -15.9669 O   0  0  0  0  0  0  0  0  0  0  0  0
   18.7667  -24.8880   -5.5833 N   0  0  0  0  0  0  0  0  0  0  0  0
   17.5515  -25.2862   -6.2062 C   0  0  0  0  0  0  0  0  0  0  0  0
   16.6665  -25.8315   -5.4698 N   0  0  0  0  0  0  0  0  0  0  0  0
   17.3059  -25.0969   -7.5873 N   0  0  0  0  0  0  0  0  0  0  0  0
   18.3064  -24.5468   -8.4523 C   0  0  0  0  0  0  0  0  0  0  0  0
   17.9083  -24.3338   -9.8609 C   0  0  0  0  0  0  0  0  0  0  0  0
   18.8916  -23.8177  -10.8298 C   0  0  0  0  0  0  0  0  0  0  0  0
   18.4920  -23.6239  -12.2362 C   0  0  2  0  0  0  0  0  0  0  0  0
   19.6278  -23.2480  -13.0934 N   0  0  0  0  0  0  0  0  0  0  0  0
   17.4467  -22.6189  -12.4118 C   0  0  0  0  0  0  0  0  0  0  0  0
   17.6683  -21.4242  -12.8132 O   0  0  0  0  0  0  0  0  0  0  0  0
   16.1194  -22.9169  -12.1483 O   0  0  0  0  0  0  0  0  0  0  0  0
  2  1  1  0
  3  2  2  0
  4  3  1  0
  5 11  1  0
  5  4  2  0
  6  5  1  0
  7  6  1  0
  7  8  1  1
  9 10  2  0
  9  7  1  0
 11 12  2  0
 12  2  1  0
 13  9  1  0
 14 13  1  0
 14 15  1  6
 16 15  1  0
 16 20  1  0
 17 16  2  0
 18 14  1  0
 19 18  2  0
 22 21  1  0
 22 23  2  0
 24 22  1  0
 25 24  1  0
 25 26  1  0
 27 26  1  0
 28 27  1  1
 28 29  1  0
 29 18  1  0
 30 28  1  0
 30 32  1  0
 31 30  2  0
M  END
$$$$
