YDR.pdb
     RDKit          3D

 32 32  0  0  1  0  0  0  0  0999 V2000
   18.9659  -19.0897   -7.4584 O   0  0  0  0  0  0  0  0  0  0  0  0
   19.5241  -19.4312   -8.6841 C   0  0  0  0  0  0  0  0  0  0  0  0
   19.7325  -20.7568   -9.0134 C   0  0  0  0  0  0  0  0  0  0  0  0
   20.2937  -21.0633  -10.2497 C   0  0  0  0  0  0  0  0  0  0  0  0
   20.6485  -20.0853  -11.1568 C   0  0  0  0  0  0  0  0  0  0  0  0
   21.2346  -20.4529  -12.4439 C   0  0  0  0  0  0  0  0  0  0  0  0
   20.2417  -20.3398  -13.5754 C   0  0  2  0  0  0  0  0  0  0  0  0
   19.2138  -21.3449  -13.4027 N   0  0  0  0  0  0  0  0  0  0  0  0
   20.8788  -20.5160  -14.8759 C   0  0  0  0  0  0  0  0  0  0  0  0
   20.9916  -21.6663  -15.3677 O   0  0  0  0  0  0  0  0  0  0  0  0
   20.4406  -18.7618  -10.8281 C   0  0  0  0  0  0  0  0  0  0  0  0
   19.8784  -18.4407   -9.5912 C   0  0  0  0  0  0  0  0  0  0  0  0
   21.4054  -19.4440  -15.6660 N   0  0  0  0  0  0  0  0  0  0  0  0
   21.9804  -19.6287  -16.9781 C   0  0  1  0  0  0  0  0  0  0  0  0
   22.0726  -18.2763  -17.6395 C   0  0  0  0  0  0  0  0  0  0  0  0
   20.7979  -17.7211  -18.0853 C   0  0  0  0  0  0  0  0  0  0  0  0
   20.5031  -16.5083  -18.0792 O   0  0  0  0  0  0  0  0  0  0  0  0
   23.3475  -20.1999  -16.9171 C   0  0  0  0  0  0  0  0  0  0  0  0
   24.1914  -19.6520  -16.1639 O   0  0  0  0  0  0  0  0  0  0  0  0
   19.8083  -18.5889  -18.5626 O   0  0  0  0  0  0  0  0  0  0  0  0
   29.2941  -23.4202  -16.0207 N   0  0  0  0  0  0  0  0  0  0  0  0
   29.2704  -24.7820  -16.4307 C   0  0  0  0  0  0  0  0  0  0  0  0
   30.3529  -25.4452  -16.3242 N   0  0  0  0  0  0  0  0  0  0  0  0
   28.1056  -25.4038  -16.9407 N   0  0  0  0  0  0  0  0  0  0  0  0
   26.8327  -24.7481  -16.8974 C   0  0  0  0  0  0  0  0  0  0  0  0
   26.4301  -24.0194  -18.1201 C   0  0  0  0  0  0  0  0  0  0  0  0
   25.1580  -23.2756  -18.1440 C   0  0  0  0  0  0  0  0  0  0  0  0
   25.0938  -21.9281  -17.5483 C   0  0  2  0  0  0  0  0  0  0  0  0
   23.7540  -21.3297  -17.6619 N   0  0  0  0  0  0  0  0  0  0  0  0
   26.0535  -20.9898  -18.1248 C   0  0  0  0  0  0  0  0  0  0  0  0
   25.8064  -20.2545  -19.1425 O   0  0  0  0  0  0  0  0  0  0  0  0
   27.3190  -20.8396  -17.5808 O   0  0  0  0  0  0  0  0  0  0  0  0
  2  1  1  0
  3  2  2  0
  4  3  1  0
  5 11  1  0
  5  4  2  0
  6  5  1  0
  7  6  1  0
  7  8  1  1
  9 10  2  0
  9  7  1  0
 11 12  2  0
 12  2  1  0
 13  9  1  0
 14 13  1  0
 14 15  1  1
 16 15  1  0
 16 20  1  0
 17 16  2  0
 18 14  1  0
 19 18  2  0
 22 21  1  0
 22 23  2  0
 24 22  1  0
 25 24  1  0
 25 26  1  0
 27 26  1  0
 28 27  1  6
 28 29  1  0
 29 18  1  0
 30 28  1  0
 30 32  1  0
 31 30  2  0
M  END
$$$$
