YDR.pdb
     RDKit          3D

 32 32  0  0  1  0  0  0  0  0999 V2000
   27.0298   -8.2257  -19.2788 O   0  0  0  0  0  0  0  0  0  0  0  0
   26.4312   -8.7869  -18.1576 C   0  0  0  0  0  0  0  0  0  0  0  0
   25.9406   -7.9806  -17.1485 C   0  0  0  0  0  0  0  0  0  0  0  0
   25.3469   -8.5761  -16.0394 C   0  0  0  0  0  0  0  0  0  0  0  0
   25.2328   -9.9461  -15.9156 C   0  0  0  0  0  0  0  0  0  0  0  0
   24.6014  -10.5283  -14.7334 C   0  0  0  0  0  0  0  0  0  0  0  0
   23.0962  -10.4226  -14.7807 C   0  0  2  0  0  0  0  0  0  0  0  0
   22.6443  -10.7282  -16.1220 N   0  0  0  0  0  0  0  0  0  0  0  0
   22.6338   -9.0910  -14.4046 C   0  0  0  0  0  0  0  0  0  0  0  0
   22.8482   -8.6574  -13.2454 O   0  0  0  0  0  0  0  0  0  0  0  0
   25.7227  -10.7512  -16.9230 C   0  0  0  0  0  0  0  0  0  0  0  0
   26.3205  -10.1667  -18.0410 C   0  0  0  0  0  0  0  0  0  0  0  0
   21.9291   -8.2061  -15.2826 N   0  0  0  0  0  0  0  0  0  0  0  0
   21.4347   -6.9101  -14.8796 C   0  0  1  0  0  0  0  0  0  0  0  0
   21.7681   -5.9254  -15.9723 C   0  0  0  0  0  0  0  0  0  0  0  0
   21.3804   -4.5451  -15.6961 C   0  0  0  0  0  0  0  0  0  0  0  0
   20.4513   -3.9344  -16.2635 O   0  0  0  0  0  0  0  0  0  0  0  0
   19.9635   -6.9030  -14.6935 C   0  0  0  0  0  0  0  0  0  0  0  0
   19.2496   -7.4820  -15.5508 O   0  0  0  0  0  0  0  0  0  0  0  0
   22.0847   -3.8224  -14.7257 O   0  0  0  0  0  0  0  0  0  0  0  0
   14.8041   -6.9527   -7.3573 N   0  0  0  0  0  0  0  0  0  0  0  0
   13.9535   -7.1908   -8.4722 C   0  0  0  0  0  0  0  0  0  0  0  0
   12.7431   -7.5052   -8.2294 N   0  0  0  0  0  0  0  0  0  0  0  0
   14.4049   -7.0898   -9.8099 N   0  0  0  0  0  0  0  0  0  0  0  0
   15.7941   -6.9209  -10.1155 C   0  0  0  0  0  0  0  0  0  0  0  0
   16.1303   -6.7164  -11.5414 C   0  0  0  0  0  0  0  0  0  0  0  0
   17.5419   -6.6276  -11.9556 C   0  0  0  0  0  0  0  0  0  0  0  0
   17.8683   -6.3636  -13.3694 C   0  0  2  0  0  0  0  0  0  0  0  0
   19.3191   -6.2789  -13.6020 N   0  0  0  0  0  0  0  0  0  0  0  0
   17.2595   -5.1420  -13.8897 C   0  0  0  0  0  0  0  0  0  0  0  0
   17.8269   -3.9955  -13.8597 O   0  0  0  0  0  0  0  0  0  0  0  0
   15.9985   -5.1622  -14.4638 O   0  0  0  0  0  0  0  0  0  0  0  0
  2  1  1  0
  3  2  2  0
  4  3  1  0
  5 11  1  0
  5  4  2  0
  6  5  1  0
  7  6  1  0
  7  8  1  6
  9 10  2  0
  9  7  1  0
 11 12  2  0
 12  2  1  0
 13  9  1  0
 14 13  1  0
 14 15  1  6
 16 15  1  0
 16 20  1  0
 17 16  2  0
 18 14  1  0
 19 18  2  0
 22 21  1  0
 22 23  2  0
 24 22  1  0
 25 24  1  0
 25 26  1  0
 27 26  1  0
 28 27  1  1
 28 29  1  0
 29 18  1  0
 30 28  1  0
 30 32  1  0
 31 30  2  0
M  END
$$$$
