YDR.pdb
     RDKit          3D

 32 32  0  0  1  0  0  0  0  0999 V2000
   11.5877   -7.5796   -6.5224 O   0  0  0  0  0  0  0  0  0  0  0  0
   12.6824   -7.6440   -7.3756 C   0  0  0  0  0  0  0  0  0  0  0  0
   12.5421   -8.1378   -8.6584 C   0  0  0  0  0  0  0  0  0  0  0  0
   13.6595   -8.1879   -9.4867 C   0  0  0  0  0  0  0  0  0  0  0  0
   14.9030   -7.7602   -9.0672 C   0  0  0  0  0  0  0  0  0  0  0  0
   16.0492   -7.8307   -9.9710 C   0  0  0  0  0  0  0  0  0  0  0  0
   16.7987   -6.5224  -10.0441 C   0  0  2  0  0  0  0  0  0  0  0  0
   15.8452   -5.4327  -10.0500 N   0  0  0  0  0  0  0  0  0  0  0  0
   17.6346   -6.4420  -11.2372 C   0  0  0  0  0  0  0  0  0  0  0  0
   17.2342   -5.8016  -12.2408 O   0  0  0  0  0  0  0  0  0  0  0  0
   15.0433   -7.2672   -7.7865 C   0  0  0  0  0  0  0  0  0  0  0  0
   13.9304   -7.2114   -6.9455 C   0  0  0  0  0  0  0  0  0  0  0  0
   18.9218   -7.0570  -11.3609 N   0  0  0  0  0  0  0  0  0  0  0  0
   19.7172   -7.0059  -12.5655 C   0  0  1  0  0  0  0  0  0  0  0  0
   21.1542   -6.7842  -12.1644 C   0  0  0  0  0  0  0  0  0  0  0  0
   21.5103   -5.3943  -11.8942 C   0  0  0  0  0  0  0  0  0  0  0  0
   20.9010   -4.3992  -12.3377 O   0  0  0  0  0  0  0  0  0  0  0  0
   19.6497   -8.2704  -13.3373 C   0  0  0  0  0  0  0  0  0  0  0  0
   19.8092   -9.3552  -12.7228 O   0  0  0  0  0  0  0  0  0  0  0  0
   22.6150   -5.1218  -11.0785 O   0  0  0  0  0  0  0  0  0  0  0  0
   16.5609  -14.7705  -16.0421 N   0  0  0  0  0  0  0  0  0  0  0  0
   16.4070  -14.1819  -17.3278 C   0  0  0  0  0  0  0  0  0  0  0  0
   15.6363  -14.7707  -18.1537 N   0  0  0  0  0  0  0  0  0  0  0  0
   17.0703  -12.9893  -17.7039 N   0  0  0  0  0  0  0  0  0  0  0  0
   17.1469  -11.8686  -16.8150 C   0  0  0  0  0  0  0  0  0  0  0  0
   17.8899  -10.6897  -17.3109 C   0  0  0  0  0  0  0  0  0  0  0  0
   18.1283   -9.5441  -16.4149 C   0  0  0  0  0  0  0  0  0  0  0  0
   19.2625   -9.5829  -15.4731 C   0  0  2  0  0  0  0  0  0  0  0  0
   19.4155   -8.3219  -14.7297 N   0  0  0  0  0  0  0  0  0  0  0  0
   20.5410   -9.8834  -16.1126 C   0  0  0  0  0  0  0  0  0  0  0  0
   21.2953   -8.9980  -16.6460 O   0  0  0  0  0  0  0  0  0  0  0  0
   21.0199  -11.1822  -16.1738 O   0  0  0  0  0  0  0  0  0  0  0  0
  2  1  1  0
  3  2  2  0
  4  3  1  0
  5 11  1  0
  5  4  2  0
  6  5  1  0
  7  6  1  0
  7  8  1  6
  9 10  2  0
  9  7  1  0
 11 12  2  0
 12  2  1  0
 13  9  1  0
 14 13  1  0
 14 15  1  1
 16 15  1  0
 16 20  1  0
 17 16  2  0
 18 14  1  0
 19 18  2  0
 22 21  1  0
 22 23  2  0
 24 22  1  0
 25 24  1  0
 25 26  1  0
 27 26  1  0
 28 27  1  6
 28 29  1  0
 29 18  1  0
 30 28  1  0
 30 32  1  0
 31 30  2  0
M  END
$$$$
