YDR.pdb
     RDKit          3D

 32 32  0  0  1  0  0  0  0  0999 V2000
   27.7816  -31.7232  -21.5811 O   0  0  0  0  0  0  0  0  0  0  0  0
   27.5777  -30.7093  -20.6531 C   0  0  0  0  0  0  0  0  0  0  0  0
   27.8094  -29.3907  -20.9947 C   0  0  0  0  0  0  0  0  0  0  0  0
   27.5948  -28.4003  -20.0408 C   0  0  0  0  0  0  0  0  0  0  0  0
   27.1582  -28.6935  -18.7646 C   0  0  0  0  0  0  0  0  0  0  0  0
   26.9458  -27.6213  -17.7947 C   0  0  0  0  0  0  0  0  0  0  0  0
   28.2455  -27.0748  -17.2553 C   0  0  2  0  0  0  0  0  0  0  0  0
   28.7420  -27.9672  -16.2287 N   0  0  0  0  0  0  0  0  0  0  0  0
   28.0814  -25.7369  -16.6971 C   0  0  0  0  0  0  0  0  0  0  0  0
   27.8849  -25.5917  -15.4651 O   0  0  0  0  0  0  0  0  0  0  0  0
   26.9270  -30.0100  -18.4233 C   0  0  0  0  0  0  0  0  0  0  0  0
   27.1382  -31.0132  -19.3709 C   0  0  0  0  0  0  0  0  0  0  0  0
   28.1278  -24.5316  -17.4690 N   0  0  0  0  0  0  0  0  0  0  0  0
   27.9635  -23.2140  -16.9004 C   0  0  1  0  0  0  0  0  0  0  0  0
   28.5983  -22.2199  -17.8404 C   0  0  0  0  0  0  0  0  0  0  0  0
   28.5925  -20.8377  -17.3699 C   0  0  0  0  0  0  0  0  0  0  0  0
   28.0875  -20.4479  -16.2971 O   0  0  0  0  0  0  0  0  0  0  0  0
   26.5361  -22.8443  -16.7425 C   0  0  0  0  0  0  0  0  0  0  0  0
   25.7137  -23.2548  -17.5998 O   0  0  0  0  0  0  0  0  0  0  0  0
   29.1913  -19.8485  -18.1592 O   0  0  0  0  0  0  0  0  0  0  0  0
   22.0893  -25.0213  -16.7912 N   0  0  0  0  0  0  0  0  0  0  0  0
   21.1511  -25.0010  -15.7223 C   0  0  0  0  0  0  0  0  0  0  0  0
   20.5053  -26.0740  -15.4886 N   0  0  0  0  0  0  0  0  0  0  0  0
   20.9222  -23.8497  -14.9313 N   0  0  0  0  0  0  0  0  0  0  0  0
   21.6046  -22.6182  -15.1952 C   0  0  0  0  0  0  0  0  0  0  0  0
   22.5491  -22.1574  -14.1542 C   0  0  0  0  0  0  0  0  0  0  0  0
   24.0002  -22.3073  -14.3637 C   0  0  0  0  0  0  0  0  0  0  0  0
   24.6331  -21.6777  -15.5376 C   0  0  2  0  0  0  0  0  0  0  0  0
   26.0492  -22.0531  -15.6779 N   0  0  0  0  0  0  0  0  0  0  0  0
   24.5553  -20.2191  -15.5292 C   0  0  0  0  0  0  0  0  0  0  0  0
   25.5209  -19.4570  -15.1767 O   0  0  0  0  0  0  0  0  0  0  0  0
   23.3976  -19.5644  -15.9180 O   0  0  0  0  0  0  0  0  0  0  0  0
  2  1  1  0
  3  2  2  0
  4  3  1  0
  5 11  1  0
  5  4  2  0
  6  5  1  0
  7  6  1  0
  7  8  1  1
  9 10  2  0
  9  7  1  0
 11 12  2  0
 12  2  1  0
 13  9  1  0
 14 13  1  0
 14 15  1  6
 16 15  1  0
 16 20  1  0
 17 16  2  0
 18 14  1  0
 19 18  2  0
 22 21  1  0
 22 23  2  0
 24 22  1  0
 25 24  1  0
 25 26  1  0
 27 26  1  0
 28 27  1  1
 28 29  1  0
 29 18  1  0
 30 28  1  0
 30 32  1  0
 31 30  2  0
M  END
$$$$
