YDR.pdb
     RDKit          3D

 32 32  0  0  1  0  0  0  0  0999 V2000
   21.6270  -15.6283  -22.6066 O   0  0  0  0  0  0  0  0  0  0  0  0
   21.6237  -16.5591  -21.5751 C   0  0  0  0  0  0  0  0  0  0  0  0
   20.9184  -16.3133  -20.4126 C   0  0  0  0  0  0  0  0  0  0  0  0
   20.9366  -17.2673  -19.3994 C   0  0  0  0  0  0  0  0  0  0  0  0
   21.6368  -18.4508  -19.5190 C   0  0  0  0  0  0  0  0  0  0  0  0
   21.6277  -19.4247  -18.4296 C   0  0  0  0  0  0  0  0  0  0  0  0
   22.6699  -19.1174  -17.3815 C   0  0  2  0  0  0  0  0  0  0  0  0
   23.9763  -19.4657  -17.8997 N   0  0  0  0  0  0  0  0  0  0  0  0
   22.4275  -19.8510  -16.1440 C   0  0  0  0  0  0  0  0  0  0  0  0
   22.9838  -20.9611  -15.9544 O   0  0  0  0  0  0  0  0  0  0  0  0
   22.3411  -18.6964  -20.6794 C   0  0  0  0  0  0  0  0  0  0  0  0
   22.3311  -17.7477  -21.7035 C   0  0  0  0  0  0  0  0  0  0  0  0
   21.5753  -19.3906  -15.0893 N   0  0  0  0  0  0  0  0  0  0  0  0
   21.4214  -20.0811  -13.8299 C   0  0  1  0  0  0  0  0  0  0  0  0
   21.0478  -19.0612  -12.7835 C   0  0  0  0  0  0  0  0  0  0  0  0
   20.9212  -19.5883  -11.4279 C   0  0  0  0  0  0  0  0  0  0  0  0
   21.2001  -20.7553  -11.0838 O   0  0  0  0  0  0  0  0  0  0  0  0
   20.3459  -21.1011  -13.8762 C   0  0  0  0  0  0  0  0  0  0  0  0
   19.2713  -20.8108  -14.4597 O   0  0  0  0  0  0  0  0  0  0  0  0
   20.4540  -18.7460  -10.4118 O   0  0  0  0  0  0  0  0  0  0  0  0
   20.3476  -30.0485  -12.4456 N   0  0  0  0  0  0  0  0  0  0  0  0
   19.0204  -29.6934  -12.8136 C   0  0  0  0  0  0  0  0  0  0  0  0
   18.1896  -30.6414  -12.9979 N   0  0  0  0  0  0  0  0  0  0  0  0
   18.6088  -28.3488  -12.9758 N   0  0  0  0  0  0  0  0  0  0  0  0
   19.5166  -27.2619  -12.7603 C   0  0  0  0  0  0  0  0  0  0  0  0
   19.0051  -25.9100  -13.0748 C   0  0  0  0  0  0  0  0  0  0  0  0
   19.9048  -24.7464  -12.9811 C   0  0  0  0  0  0  0  0  0  0  0  0
   19.4302  -23.4240  -13.4295 C   0  0  2  0  0  0  0  0  0  0  0  0
   20.4641  -22.3849  -13.2981 N   0  0  0  0  0  0  0  0  0  0  0  0
   18.2387  -22.9619  -12.7221 C   0  0  0  0  0  0  0  0  0  0  0  0
   18.2683  -22.1522  -11.7317 O   0  0  0  0  0  0  0  0  0  0  0  0
   16.9752  -23.3865  -13.1004 O   0  0  0  0  0  0  0  0  0  0  0  0
  2  1  1  0
  3  2  2  0
  4  3  1  0
  5 11  1  0
  5  4  2  0
  6  5  1  0
  7  6  1  0
  7  8  1  6
  9 10  2  0
  9  7  1  0
 11 12  2  0
 12  2  1  0
 13  9  1  0
 14 13  1  0
 14 15  1  1
 16 15  1  0
 16 20  1  0
 17 16  2  0
 18 14  1  0
 19 18  2  0
 22 21  1  0
 22 23  2  0
 24 22  1  0
 25 24  1  0
 25 26  1  0
 27 26  1  0
 28 27  1  1
 28 29  1  0
 29 18  1  0
 30 28  1  0
 30 32  1  0
 31 30  2  0
M  END
$$$$
