YDR.pdb
     RDKit          3D

 32 32  0  0  1  0  0  0  0  0999 V2000
   28.9977  -19.4186   -5.1676 O   0  0  0  0  0  0  0  0  0  0  0  0
   28.4210  -19.6136   -6.4165 C   0  0  0  0  0  0  0  0  0  0  0  0
   29.1387  -20.2145   -7.4329 C   0  0  0  0  0  0  0  0  0  0  0  0
   28.5302  -20.3944   -8.6717 C   0  0  0  0  0  0  0  0  0  0  0  0
   27.2330  -19.9915   -8.9169 C   0  0  0  0  0  0  0  0  0  0  0  0
   26.6336  -20.2007  -10.2331 C   0  0  0  0  0  0  0  0  0  0  0  0
   25.7003  -21.3870  -10.2524 C   0  0  2  0  0  0  0  0  0  0  0  0
   26.4734  -22.5914  -10.4727 N   0  0  0  0  0  0  0  0  0  0  0  0
   24.6872  -21.2634  -11.2949 C   0  0  0  0  0  0  0  0  0  0  0  0
   24.9444  -21.6375  -12.4661 O   0  0  0  0  0  0  0  0  0  0  0  0
   26.5163  -19.3914   -7.9023 C   0  0  0  0  0  0  0  0  0  0  0  0
   27.1149  -19.2051   -6.6550 C   0  0  0  0  0  0  0  0  0  0  0  0
   23.3752  -20.7302  -11.0830 N   0  0  0  0  0  0  0  0  0  0  0  0
   22.3541  -20.6963  -12.1040 C   0  0  1  0  0  0  0  0  0  0  0  0
   21.1143  -20.0845  -11.5010 C   0  0  0  0  0  0  0  0  0  0  0  0
   19.9509  -20.0558  -12.3828 C   0  0  0  0  0  0  0  0  0  0  0  0
   19.9583  -20.3744  -13.5896 O   0  0  0  0  0  0  0  0  0  0  0  0
   22.7508  -19.8675  -13.2680 C   0  0  0  0  0  0  0  0  0  0  0  0
   23.4190  -18.8237  -13.0589 O   0  0  0  0  0  0  0  0  0  0  0  0
   18.7165  -19.6441  -11.8662 O   0  0  0  0  0  0  0  0  0  0  0  0
   29.3493  -22.2187  -16.9713 N   0  0  0  0  0  0  0  0  0  0  0  0
   28.1238  -22.8377  -16.5995 C   0  0  0  0  0  0  0  0  0  0  0  0
   28.1524  -24.0842  -16.3381 N   0  0  0  0  0  0  0  0  0  0  0  0
   26.9047  -22.1235  -16.5142 N   0  0  0  0  0  0  0  0  0  0  0  0
   26.8198  -20.7478  -16.9042 C   0  0  0  0  0  0  0  0  0  0  0  0
   25.4669  -20.1497  -16.9032 C   0  0  0  0  0  0  0  0  0  0  0  0
   24.5670  -20.3757  -15.7582 C   0  0  0  0  0  0  0  0  0  0  0  0
   23.2251  -19.7639  -15.7577 C   0  0  2  0  0  0  0  0  0  0  0  0
   22.4174  -20.1885  -14.6030 N   0  0  0  0  0  0  0  0  0  0  0  0
   22.4569  -20.0433  -16.9683 C   0  0  0  0  0  0  0  0  0  0  0  0
   22.7741  -19.6075  -18.1289 O   0  0  0  0  0  0  0  0  0  0  0  0
   21.3115  -20.8217  -16.9223 O   0  0  0  0  0  0  0  0  0  0  0  0
  2  1  1  0
  3  2  2  0
  4  3  1  0
  5 11  1  0
  5  4  2  0
  6  5  1  0
  7  6  1  0
  7  8  1  6
  9 10  2  0
  9  7  1  0
 11 12  2  0
 12  2  1  0
 13  9  1  0
 14 13  1  0
 14 15  1  1
 16 15  1  0
 16 20  1  0
 17 16  2  0
 18 14  1  0
 19 18  2  0
 22 21  1  0
 22 23  2  0
 24 22  1  0
 25 24  1  0
 25 26  1  0
 27 26  1  0
 28 27  1  6
 28 29  1  0
 29 18  1  0
 30 28  1  0
 30 32  1  0
 31 30  2  0
M  END
$$$$
