YDR.pdb
     RDKit          3D

 32 32  0  0  1  0  0  0  0  0999 V2000
   31.8977  -22.7140   -9.9659 O   0  0  0  0  0  0  0  0  0  0  0  0
   30.8784  -22.0495  -10.6367 C   0  0  0  0  0  0  0  0  0  0  0  0
   30.6482  -20.7067  -10.4066 C   0  0  0  0  0  0  0  0  0  0  0  0
   29.6189  -20.0722  -11.0958 C   0  0  0  0  0  0  0  0  0  0  0  0
   28.8210  -20.7417  -12.0015 C   0  0  0  0  0  0  0  0  0  0  0  0
   27.7514  -20.0353  -12.7033 C   0  0  0  0  0  0  0  0  0  0  0  0
   27.7705  -20.3031  -14.1888 C   0  0  2  0  0  0  0  0  0  0  0  0
   28.9932  -19.7665  -14.7488 N   0  0  0  0  0  0  0  0  0  0  0  0
   26.6241  -19.7033  -14.8629 C   0  0  0  0  0  0  0  0  0  0  0  0
   26.5953  -18.4644  -15.0678 O   0  0  0  0  0  0  0  0  0  0  0  0
   29.0506  -22.0824  -12.2313 C   0  0  0  0  0  0  0  0  0  0  0  0
   30.0800  -22.7309  -11.5465 C   0  0  0  0  0  0  0  0  0  0  0  0
   25.4872  -20.4401  -15.3268 N   0  0  0  0  0  0  0  0  0  0  0  0
   24.3390  -19.8248  -15.9509 C   0  0  1  0  0  0  0  0  0  0  0  0
   24.4751  -19.9943  -17.4435 C   0  0  0  0  0  0  0  0  0  0  0  0
   23.3938  -19.4086  -18.2305 C   0  0  0  0  0  0  0  0  0  0  0  0
   22.9550  -18.2481  -18.0934 O   0  0  0  0  0  0  0  0  0  0  0  0
   23.0654  -20.4603  -15.5347 C   0  0  0  0  0  0  0  0  0  0  0  0
   23.0849  -21.6688  -15.1900 O   0  0  0  0  0  0  0  0  0  0  0  0
   22.7804  -20.1812  -19.2238 O   0  0  0  0  0  0  0  0  0  0  0  0
   17.4415  -22.9755  -10.9146 N   0  0  0  0  0  0  0  0  0  0  0  0
   18.7295  -23.2865  -10.3974 C   0  0  0  0  0  0  0  0  0  0  0  0
   18.8398  -24.3439   -9.6956 N   0  0  0  0  0  0  0  0  0  0  0  0
   19.8630  -22.4730  -10.6362 N   0  0  0  0  0  0  0  0  0  0  0  0
   19.7764  -21.2966  -11.4489 C   0  0  0  0  0  0  0  0  0  0  0  0
   20.1703  -21.4501  -12.8664 C   0  0  0  0  0  0  0  0  0  0  0  0
   20.1924  -20.2723  -13.7521 C   0  0  0  0  0  0  0  0  0  0  0  0
   20.5550  -20.4385  -15.1719 C   0  0  2  0  0  0  0  0  0  0  0  0
   21.8280  -19.7790  -15.5048 N   0  0  0  0  0  0  0  0  0  0  0  0
   19.5383  -19.9409  -16.0951 C   0  0  0  0  0  0  0  0  0  0  0  0
   19.5387  -18.7584  -16.5841 O   0  0  0  0  0  0  0  0  0  0  0  0
   18.4902  -20.7492  -16.5049 O   0  0  0  0  0  0  0  0  0  0  0  0
  2  1  1  0
  3  2  2  0
  4  3  1  0
  5 11  1  0
  5  4  2  0
  6  5  1  0
  7  6  1  0
  7  8  1  6
  9 10  2  0
  9  7  1  0
 11 12  2  0
 12  2  1  0
 13  9  1  0
 14 13  1  0
 14 15  1  6
 16 15  1  0
 16 20  1  0
 17 16  2  0
 18 14  1  0
 19 18  2  0
 22 21  1  0
 22 23  2  0
 24 22  1  0
 25 24  1  0
 25 26  1  0
 27 26  1  0
 28 27  1  1
 28 29  1  0
 29 18  1  0
 30 28  1  0
 30 32  1  0
 31 30  2  0
M  END
$$$$
