YDR.pdb
     RDKit          3D

 32 32  0  0  1  0  0  0  0  0999 V2000
   17.3955  -18.6623  -18.7867 O   0  0  0  0  0  0  0  0  0  0  0  0
   17.7846  -17.4265  -18.2849 C   0  0  0  0  0  0  0  0  0  0  0  0
   18.3304  -16.4717  -19.1213 C   0  0  0  0  0  0  0  0  0  0  0  0
   18.7092  -15.2443  -18.5854 C   0  0  0  0  0  0  0  0  0  0  0  0
   18.5571  -14.9509  -17.2452 C   0  0  0  0  0  0  0  0  0  0  0  0
   18.9684  -13.6486  -16.7255 C   0  0  0  0  0  0  0  0  0  0  0  0
   17.8408  -12.9343  -16.0204 C   0  0  2  0  0  0  0  0  0  0  0  0
   16.7891  -12.6553  -16.9758 N   0  0  0  0  0  0  0  0  0  0  0  0
   18.2863  -11.6858  -15.4111 C   0  0  0  0  0  0  0  0  0  0  0  0
   19.2255  -11.6957  -14.5771 O   0  0  0  0  0  0  0  0  0  0  0  0
   18.0123  -15.9042  -16.4100 C   0  0  0  0  0  0  0  0  0  0  0  0
   17.6281  -17.1394  -16.9349 C   0  0  0  0  0  0  0  0  0  0  0  0
   17.7182  -10.4029  -15.6975 N   0  0  0  0  0  0  0  0  0  0  0  0
   18.2106   -9.1687  -15.1312 C   0  0  1  0  0  0  0  0  0  0  0  0
   18.8871   -8.3900  -16.2315 C   0  0  0  0  0  0  0  0  0  0  0  0
   19.4493   -7.1065  -15.8211 C   0  0  0  0  0  0  0  0  0  0  0  0
   20.2117   -6.9366  -14.8475 O   0  0  0  0  0  0  0  0  0  0  0  0
   17.1193   -8.3276  -14.5826 C   0  0  0  0  0  0  0  0  0  0  0  0
   16.1924   -7.9730  -15.3538 O   0  0  0  0  0  0  0  0  0  0  0  0
   19.1287   -5.9581  -16.5548 O   0  0  0  0  0  0  0  0  0  0  0  0
   14.5767   -5.8731   -6.1864 N   0  0  0  0  0  0  0  0  0  0  0  0
   13.5984   -5.3943   -7.1013 C   0  0  0  0  0  0  0  0  0  0  0  0
   12.5402   -4.8804   -6.6123 N   0  0  0  0  0  0  0  0  0  0  0  0
   13.7655   -5.4715   -8.5047 N   0  0  0  0  0  0  0  0  0  0  0  0
   14.8155   -6.2529   -9.0869 C   0  0  0  0  0  0  0  0  0  0  0  0
   14.9168   -6.2172  -10.5622 C   0  0  0  0  0  0  0  0  0  0  0  0
   15.9331   -7.0362  -11.2466 C   0  0  0  0  0  0  0  0  0  0  0  0
   16.0203   -7.0042  -12.7185 C   0  0  2  0  0  0  0  0  0  0  0  0
   17.0652   -7.9020  -13.2364 N   0  0  0  0  0  0  0  0  0  0  0  0
   16.2685   -5.6699  -13.2586 C   0  0  0  0  0  0  0  0  0  0  0  0
   15.3422   -4.8671  -13.6259 O   0  0  0  0  0  0  0  0  0  0  0  0
   17.5595   -5.1876  -13.4026 O   0  0  0  0  0  0  0  0  0  0  0  0
  2  1  1  0
  3  2  2  0
  4  3  1  0
  5 11  1  0
  5  4  2  0
  6  5  1  0
  7  6  1  0
  7  8  1  6
  9 10  2  0
  9  7  1  0
 11 12  2  0
 12  2  1  0
 13  9  1  0
 14 13  1  0
 14 15  1  6
 16 15  1  0
 16 20  1  0
 17 16  2  0
 18 14  1  0
 19 18  2  0
 22 21  1  0
 22 23  2  0
 24 22  1  0
 25 24  1  0
 25 26  1  0
 27 26  1  0
 28 27  1  1
 28 29  1  0
 29 18  1  0
 30 28  1  0
 30 32  1  0
 31 30  2  0
M  END
$$$$
