YDR.pdb
     RDKit          3D

 32 32  0  0  1  0  0  0  0  0999 V2000
   17.3344  -12.3622  -15.0443 O   0  0  0  0  0  0  0  0  0  0  0  0
   18.1758  -13.4679  -15.0394 C   0  0  0  0  0  0  0  0  0  0  0  0
   17.6547  -14.7437  -14.9393 C   0  0  0  0  0  0  0  0  0  0  0  0
   18.5262  -15.8288  -14.9374 C   0  0  0  0  0  0  0  0  0  0  0  0
   19.8941  -15.6710  -15.0324 C   0  0  0  0  0  0  0  0  0  0  0  0
   20.7721  -16.8391  -15.0270 C   0  0  0  0  0  0  0  0  0  0  0  0
   21.3518  -17.1227  -16.3917 C   0  0  2  0  0  0  0  0  0  0  0  0
   20.2809  -17.5034  -17.2889 N   0  0  0  0  0  0  0  0  0  0  0  0
   22.3487  -18.1869  -16.3472 C   0  0  0  0  0  0  0  0  0  0  0  0
   21.9872  -19.3876  -16.4203 O   0  0  0  0  0  0  0  0  0  0  0  0
   20.4146  -14.3973  -15.1323 C   0  0  0  0  0  0  0  0  0  0  0  0
   19.5514  -13.3002  -15.1353 C   0  0  0  0  0  0  0  0  0  0  0  0
   23.7578  -17.9649  -16.2221 N   0  0  0  0  0  0  0  0  0  0  0  0
   24.7313  -19.0308  -16.1715 C   0  0  1  0  0  0  0  0  0  0  0  0
   26.1038  -18.4058  -16.1499 C   0  0  0  0  0  0  0  0  0  0  0  0
   27.2127  -19.3539  -16.2083 C   0  0  0  0  0  0  0  0  0  0  0  0
   28.4193  -19.0420  -16.2782 O   0  0  0  0  0  0  0  0  0  0  0  0
   24.5905  -19.8629  -14.9521 C   0  0  0  0  0  0  0  0  0  0  0  0
   24.6530  -19.2969  -13.8316 O   0  0  0  0  0  0  0  0  0  0  0  0
   26.9358  -20.7261  -16.1859 O   0  0  0  0  0  0  0  0  0  0  0  0
   22.3568  -28.5666  -13.7521 N   0  0  0  0  0  0  0  0  0  0  0  0
   21.6886  -27.7193  -12.8254 C   0  0  0  0  0  0  0  0  0  0  0  0
   20.7179  -28.2187  -12.1688 N   0  0  0  0  0  0  0  0  0  0  0  0
   22.0646  -26.3704  -12.6186 N   0  0  0  0  0  0  0  0  0  0  0  0
   23.2071  -25.8077  -13.2743 C   0  0  0  0  0  0  0  0  0  0  0  0
   23.5013  -24.3895  -12.9741 C   0  0  0  0  0  0  0  0  0  0  0  0
   23.7558  -23.4450  -14.0765 C   0  0  0  0  0  0  0  0  0  0  0  0
   24.1951  -22.0713  -13.7685 C   0  0  2  0  0  0  0  0  0  0  0  0
   24.3895  -21.2611  -14.9817 N   0  0  0  0  0  0  0  0  0  0  0  0
   25.4299  -22.0151  -12.9902 C   0  0  0  0  0  0  0  0  0  0  0  0
   25.4636  -21.9507  -11.7126 O   0  0  0  0  0  0  0  0  0  0  0  0
   26.6673  -22.0327  -13.6136 O   0  0  0  0  0  0  0  0  0  0  0  0
  2  1  1  0
  3  2  2  0
  4  3  1  0
  5 11  1  0
  5  4  2  0
  6  5  1  0
  7  6  1  0
  7  8  1  6
  9 10  2  0
  9  7  1  0
 11 12  2  0
 12  2  1  0
 13  9  1  0
 14 13  1  0
 14 15  1  1
 16 15  1  0
 16 20  1  0
 17 16  2  0
 18 14  1  0
 19 18  2  0
 22 21  1  0
 22 23  2  0
 24 22  1  0
 25 24  1  0
 25 26  1  0
 27 26  1  0
 28 27  1  6
 28 29  1  0
 29 18  1  0
 30 28  1  0
 30 32  1  0
 31 30  2  0
M  END
$$$$
