QWS.pdb
     RDKit          3D

 30 31  0  0  1  0  0  0  0  0999 V2000
    9.0253  -12.6958   18.4010 N   0  0  0  0  0  0  0  0  0  0  0  0
    7.9121  -13.4242   17.9220 C   0  0  0  0  0  0  0  0  0  0  0  0
    7.5001  -13.2961   16.7193 O   0  0  0  0  0  0  0  0  0  0  0  0
    7.2261  -14.3513   18.8609 C   0  0  0  0  0  0  0  0  0  0  0  0
    7.9510  -14.3281   20.1740 C   0  0  0  0  0  0  0  0  0  0  0  0
    8.4588  -15.7115   20.5413 C   0  0  2  0  0  0  0  0  0  0  0  0
    7.3070  -16.5924   20.5809 N   0  0  0  0  0  0  0  0  0  0  0  0
    9.0997  -15.5868   21.8869 C   0  0  0  0  0  0  0  0  0  0  0  0
   10.0728  -14.7722   21.9400 O   0  0  0  0  0  0  0  0  0  0  0  0
    8.6934  -16.2921   23.0258 N   0  0  0  0  0  0  0  0  0  0  0  0
    9.4780  -16.2714   24.2794 C   0  0  1  0  0  0  0  0  0  0  0  0
    8.5771  -16.3796   25.4519 C   0  0  0  0  0  0  0  0  0  0  0  0
    7.5605  -15.3389   25.6318 C   0  0  0  0  0  0  0  0  0  0  0  0
    6.1902  -15.5339   25.4275 C   0  0  0  0  0  0  0  0  0  0  0  0
    5.5392  -14.3688   25.6509 N   0  0  0  0  0  0  0  0  0  0  0  0
    6.4154  -13.4204   25.9921 C   0  0  0  0  0  0  0  0  0  0  0  0
    6.2639  -12.0990   26.3260 C   0  0  0  0  0  0  0  0  0  0  0  0
    7.3722  -11.3178   26.6665 C   0  0  0  0  0  0  0  0  0  0  0  0
    8.6245  -11.8960   26.6621 C   0  0  0  0  0  0  0  0  0  0  0  0
    8.7522  -13.2256   26.3225 C   0  0  0  0  0  0  0  0  0  0  0  0
    7.6621  -14.0094   25.9829 C   0  0  0  0  0  0  0  0  0  0  0  0
   10.5905  -17.1854   24.1946 C   0  0  0  0  0  0  0  0  0  0  0  0
   10.4808  -18.2991   23.6378 O   0  0  0  0  0  0  0  0  0  0  0  0
   15.3016  -17.8878   24.3986 O   0  0  0  0  0  0  0  0  0  0  0  0
   14.2105  -17.0280   24.3804 C   0  0  0  0  0  0  0  0  0  0  0  0
   12.9259  -17.8054   24.6968 C   0  0  2  0  0  0  0  0  0  0  0  0
   11.8474  -16.8388   24.7464 N   0  0  0  0  0  0  0  0  0  0  0  0
   13.0520  -18.5462   25.9691 C   0  0  0  0  0  0  0  0  0  0  0  0
   12.3640  -18.2830   26.9828 O   0  0  0  0  0  0  0  0  0  0  0  0
   13.9644  -19.5747   26.0555 O   0  0  0  0  0  0  0  0  0  0  0  0
  2  4  1  0
  2  1  1  0
  3  2  2  0
  5  4  1  0
  6  5  1  0
  6  7  1  1
  8  9  2  0
  8  6  1  0
 10  8  1  0
 11 10  1  0
 11 12  1  1
 13 12  1  0
 13 21  1  0
 14 13  2  0
 15 14  1  0
 15 16  1  0
 16 17  1  0
 16 21  2  0
 17 18  2  0
 18 19  1  0
 20 19  2  0
 21 20  1  0
 22 23  2  0
 22 11  1  0
 24 25  1  0
 26 25  1  1
 26 27  1  0
 27 22  1  0
 28 26  1  0
 29 28  2  0
 30 28  1  0
M  END
$$$$
