QWS.pdb
     RDKit          3D

 30 31  0  0  1  0  0  0  0  0999 V2000
   10.3813  -16.1659   18.1630 N   0  0  0  0  0  0  0  0  0  0  0  0
    9.2557  -16.8159   17.6064 C   0  0  0  0  0  0  0  0  0  0  0  0
    9.3331  -17.4515   16.5007 O   0  0  0  0  0  0  0  0  0  0  0  0
    7.9677  -16.7407   18.3461 C   0  0  0  0  0  0  0  0  0  0  0  0
    8.1861  -15.9683   19.6133 C   0  0  0  0  0  0  0  0  0  0  0  0
    8.0351  -16.8636   20.8308 C   0  0  2  0  0  0  0  0  0  0  0  0
    6.7027  -17.4347   20.7781 N   0  0  0  0  0  0  0  0  0  0  0  0
    8.2080  -15.9858   22.0294 C   0  0  0  0  0  0  0  0  0  0  0  0
    7.1559  -15.3792   22.4015 O   0  0  0  0  0  0  0  0  0  0  0  0
    9.4145  -15.8153   22.7184 N   0  0  0  0  0  0  0  0  0  0  0  0
    9.5625  -16.1929   24.1408 C   0  0  1  0  0  0  0  0  0  0  0  0
    8.2471  -16.5678   24.7129 C   0  0  0  0  0  0  0  0  0  0  0  0
    7.3514  -15.4867   25.1347 C   0  0  0  0  0  0  0  0  0  0  0  0
    5.9612  -15.5114   24.9801 C   0  0  0  0  0  0  0  0  0  0  0  0
    5.4434  -14.3509   25.4452 N   0  0  0  0  0  0  0  0  0  0  0  0
    6.4260  -13.5676   25.8976 C   0  0  0  0  0  0  0  0  0  0  0  0
    6.4253  -12.3213   26.4697 C   0  0  0  0  0  0  0  0  0  0  0  0
    7.6213  -11.7232   26.8779 C   0  0  0  0  0  0  0  0  0  0  0  0
    8.8060  -12.4060   26.6969 C   0  0  0  0  0  0  0  0  0  0  0  0
    8.7820  -13.6570   26.1192 C   0  0  0  0  0  0  0  0  0  0  0  0
    7.6039  -14.2594   25.7103 C   0  0  0  0  0  0  0  0  0  0  0  0
   10.6600  -17.1136   24.3078 C   0  0  0  0  0  0  0  0  0  0  0  0
   10.4956  -18.3496   24.2212 O   0  0  0  0  0  0  0  0  0  0  0  0
   14.5595  -15.7366   24.6349 O   0  0  0  0  0  0  0  0  0  0  0  0
   14.2851  -16.9802   24.0794 C   0  0  0  0  0  0  0  0  0  0  0  0
   13.0424  -17.5876   24.7437 C   0  0  2  0  0  0  0  0  0  0  0  0
   11.9644  -16.6337   24.5773 N   0  0  0  0  0  0  0  0  0  0  0  0
   13.2923  -17.8835   26.1697 C   0  0  0  0  0  0  0  0  0  0  0  0
   14.2357  -18.6100   26.5605 O   0  0  0  0  0  0  0  0  0  0  0  0
   12.4563  -17.3413   27.1208 O   0  0  0  0  0  0  0  0  0  0  0  0
  2  4  1  0
  2  1  1  0
  3  2  2  0
  5  4  1  0
  6  5  1  0
  6  7  1  1
  8  9  2  0
  8  6  1  0
 10  8  1  0
 11 10  1  0
 11 12  1  6
 13 12  1  0
 13 21  1  0
 14 13  2  0
 15 14  1  0
 15 16  1  0
 16 17  1  0
 16 21  2  0
 17 18  2  0
 18 19  1  0
 20 19  2  0
 21 20  1  0
 22 23  2  0
 22 11  1  0
 24 25  1  0
 26 25  1  1
 26 27  1  0
 27 22  1  0
 28 26  1  0
 29 28  2  0
 30 28  1  0
M  END
$$$$
