QWS.pdb
     RDKit          3D

 30 31  0  0  1  0  0  0  0  0999 V2000
    6.4838  -13.3280   19.4599 N   0  0  0  0  0  0  0  0  0  0  0  0
    7.5158  -14.2002   19.0431 C   0  0  0  0  0  0  0  0  0  0  0  0
    7.2667  -15.2407   18.3446 O   0  0  0  0  0  0  0  0  0  0  0  0
    8.9110  -13.8738   19.4415 C   0  0  0  0  0  0  0  0  0  0  0  0
    9.0751  -14.1708   20.9026 C   0  0  0  0  0  0  0  0  0  0  0  0
    9.3403  -15.6484   21.1326 C   0  0  2  0  0  0  0  0  0  0  0  0
    8.0952  -16.3494   20.8827 N   0  0  0  0  0  0  0  0  0  0  0  0
    9.7707  -15.7873   22.5582 C   0  0  0  0  0  0  0  0  0  0  0  0
   10.8318  -15.1568   22.8580 O   0  0  0  0  0  0  0  0  0  0  0  0
    9.0899  -16.5418   23.5209 N   0  0  0  0  0  0  0  0  0  0  0  0
    9.5827  -16.6645   24.9100 C   0  0  1  0  0  0  0  0  0  0  0  0
    8.4555  -16.5564   25.8671 C   0  0  0  0  0  0  0  0  0  0  0  0
    7.5017  -15.4593   25.6796 C   0  0  0  0  0  0  0  0  0  0  0  0
    6.2269  -15.6113   25.1235 C   0  0  0  0  0  0  0  0  0  0  0  0
    5.6210  -14.4026   25.0682 N   0  0  0  0  0  0  0  0  0  0  0  0
    6.4359  -13.4663   25.5613 C   0  0  0  0  0  0  0  0  0  0  0  0
    6.2909  -12.1140   25.7367 C   0  0  0  0  0  0  0  0  0  0  0  0
    7.3174  -11.3544   26.3058 C   0  0  0  0  0  0  0  0  0  0  0  0
    8.4820  -11.9857   26.6900 C   0  0  0  0  0  0  0  0  0  0  0  0
    8.6052  -13.3456   26.5033 C   0  0  0  0  0  0  0  0  0  0  0  0
    7.5957  -14.1085   25.9402 C   0  0  0  0  0  0  0  0  0  0  0  0
   10.4692  -17.7953   25.0338 C   0  0  0  0  0  0  0  0  0  0  0  0
   10.1960  -18.9001   24.5169 O   0  0  0  0  0  0  0  0  0  0  0  0
   14.2687  -17.5285   26.7703 O   0  0  0  0  0  0  0  0  0  0  0  0
   13.9030  -18.5724   25.9296 C   0  0  0  0  0  0  0  0  0  0  0  0
   12.4102  -18.8839   26.1007 C   0  0  2  0  0  0  0  0  0  0  0  0
   11.6837  -17.6795   25.7523 N   0  0  0  0  0  0  0  0  0  0  0  0
   12.1123  -19.3195   27.4809 C   0  0  0  0  0  0  0  0  0  0  0  0
   11.3244  -18.7031   28.2357 O   0  0  0  0  0  0  0  0  0  0  0  0
   12.7231  -20.4532   27.9700 O   0  0  0  0  0  0  0  0  0  0  0  0
  2  4  1  0
  2  1  1  0
  3  2  2  0
  5  4  1  0
  6  5  1  0
  6  7  1  1
  8  9  2  0
  8  6  1  0
 10  8  1  0
 11 10  1  0
 11 12  1  1
 13 12  1  0
 13 21  1  0
 14 13  2  0
 15 14  1  0
 15 16  1  0
 16 17  1  0
 16 21  2  0
 17 18  2  0
 18 19  1  0
 20 19  2  0
 21 20  1  0
 22 23  2  0
 22 11  1  0
 24 25  1  0
 26 25  1  1
 26 27  1  0
 27 22  1  0
 28 26  1  0
 29 28  2  0
 30 28  1  0
M  END
$$$$
