QWS.pdb
     RDKit          3D

 30 31  0  0  1  0  0  0  0  0999 V2000
    9.0262  -20.9844   18.8553 N   0  0  0  0  0  0  0  0  0  0  0  0
    9.6627  -19.9146   18.1848 C   0  0  0  0  0  0  0  0  0  0  0  0
    9.0783  -19.2757   17.2451 O   0  0  0  0  0  0  0  0  0  0  0  0
   11.0418  -19.5478   18.6037 C   0  0  0  0  0  0  0  0  0  0  0  0
   10.9571  -18.6600   19.8098 C   0  0  0  0  0  0  0  0  0  0  0  0
   10.4104  -17.2915   19.4425 C   0  0  2  0  0  0  0  0  0  0  0  0
   11.4083  -16.6414   18.6143 N   0  0  0  0  0  0  0  0  0  0  0  0
   10.2023  -16.5565   20.7284 C   0  0  0  0  0  0  0  0  0  0  0  0
   11.2592  -16.0783   21.2456 O   0  0  0  0  0  0  0  0  0  0  0  0
    8.9597  -16.3843   21.3498 N   0  0  0  0  0  0  0  0  0  0  0  0
    8.8398  -15.8432   22.7210 C   0  0  1  0  0  0  0  0  0  0  0  0
    7.4677  -15.3324   22.9542 C   0  0  0  0  0  0  0  0  0  0  0  0
    7.1317  -14.8649   24.3023 C   0  0  0  0  0  0  0  0  0  0  0  0
    6.5160  -15.6555   25.2786 C   0  0  0  0  0  0  0  0  0  0  0  0
    6.3225  -14.9123   26.3928 N   0  0  0  0  0  0  0  0  0  0  0  0
    6.7819  -13.6740   26.1947 C   0  0  0  0  0  0  0  0  0  0  0  0
    6.8331  -12.5669   27.0024 C   0  0  0  0  0  0  0  0  0  0  0  0
    7.3955  -11.3730   26.5412 C   0  0  0  0  0  0  0  0  0  0  0  0
    7.9001  -11.3233   25.2584 C   0  0  0  0  0  0  0  0  0  0  0  0
    7.8371  -12.4483   24.4649 C   0  0  0  0  0  0  0  0  0  0  0  0
    7.2819  -13.6364   24.9103 C   0  0  0  0  0  0  0  0  0  0  0  0
    9.3886  -16.7702   23.6801 C   0  0  0  0  0  0  0  0  0  0  0  0
    9.0486  -17.9729   23.6955 O   0  0  0  0  0  0  0  0  0  0  0  0
   12.8995  -16.1394   25.3077 O   0  0  0  0  0  0  0  0  0  0  0  0
   12.3322  -17.4015   25.4321 C   0  0  0  0  0  0  0  0  0  0  0  0
   10.8156  -17.2768   25.6288 C   0  0  2  0  0  0  0  0  0  0  0  0
   10.3361  -16.3347   24.6377 N   0  0  0  0  0  0  0  0  0  0  0  0
   10.4916  -16.8353   27.0013 C   0  0  0  0  0  0  0  0  0  0  0  0
    9.8179  -15.8074   27.2461 O   0  0  0  0  0  0  0  0  0  0  0  0
   10.9458  -17.5803   28.0672 O   0  0  0  0  0  0  0  0  0  0  0  0
  2  4  1  0
  2  1  1  0
  3  2  2  0
  5  4  1  0
  6  5  1  0
  6  7  1  6
  8  9  2  0
  8  6  1  0
 10  8  1  0
 11 10  1  0
 11 12  1  1
 13 12  1  0
 13 21  1  0
 14 13  2  0
 15 14  1  0
 15 16  1  0
 16 17  1  0
 16 21  2  0
 17 18  2  0
 18 19  1  0
 20 19  2  0
 21 20  1  0
 22 23  2  0
 22 11  1  0
 24 25  1  0
 26 25  1  1
 26 27  1  0
 27 22  1  0
 28 26  1  0
 29 28  2  0
 30 28  1  0
M  END
$$$$
