QWS.pdb
     RDKit          3D

 30 31  0  0  1  0  0  0  0  0999 V2000
    7.4737  -17.0889   16.7074 N   0  0  0  0  0  0  0  0  0  0  0  0
    8.6706  -16.6027   17.2822 C   0  0  0  0  0  0  0  0  0  0  0  0
    9.7994  -17.1448   17.0282 O   0  0  0  0  0  0  0  0  0  0  0  0
    8.5826  -15.4342   18.1980 C   0  0  0  0  0  0  0  0  0  0  0  0
    7.5245  -15.7080   19.2254 C   0  0  0  0  0  0  0  0  0  0  0  0
    7.3775  -14.5378   20.1823 C   0  0  2  0  0  0  0  0  0  0  0  0
    7.9102  -13.3676   19.5106 N   0  0  0  0  0  0  0  0  0  0  0  0
    8.1747  -14.8806   21.4005 C   0  0  0  0  0  0  0  0  0  0  0  0
    9.2534  -14.2233   21.5334 O   0  0  0  0  0  0  0  0  0  0  0  0
    7.8011  -15.8426   22.3464 N   0  0  0  0  0  0  0  0  0  0  0  0
    8.5550  -16.0364   23.6040 C   0  0  1  0  0  0  0  0  0  0  0  0
    7.6226  -16.2866   24.7292 C   0  0  0  0  0  0  0  0  0  0  0  0
    7.0429  -15.1243   25.4087 C   0  0  0  0  0  0  0  0  0  0  0  0
    5.9125  -15.1767   26.2314 C   0  0  0  0  0  0  0  0  0  0  0  0
    5.6283  -13.9296   26.6733 N   0  0  0  0  0  0  0  0  0  0  0  0
    6.5175  -13.0630   26.1811 C   0  0  0  0  0  0  0  0  0  0  0  0
    6.6726  -11.7094   26.3368 C   0  0  0  0  0  0  0  0  0  0  0  0
    7.7237  -11.0350   25.7084 C   0  0  0  0  0  0  0  0  0  0  0  0
    8.6058  -11.7519   24.9271 C   0  0  0  0  0  0  0  0  0  0  0  0
    8.4294  -13.1113   24.7848 C   0  0  0  0  0  0  0  0  0  0  0  0
    7.3919  -13.7903   25.4017 C   0  0  0  0  0  0  0  0  0  0  0  0
    9.6399  -16.9657   23.4049 C   0  0  0  0  0  0  0  0  0  0  0  0
    9.5050  -17.9860   22.6957 O   0  0  0  0  0  0  0  0  0  0  0  0
   13.0001  -16.6603   22.3587 O   0  0  0  0  0  0  0  0  0  0  0  0
   13.1859  -17.3087   23.5733 C   0  0  0  0  0  0  0  0  0  0  0  0
   11.8432  -17.8366   24.0958 C   0  0  2  0  0  0  0  0  0  0  0  0
   10.8975  -16.7417   24.0153 N   0  0  0  0  0  0  0  0  0  0  0  0
   11.9723  -18.3442   25.4775 C   0  0  0  0  0  0  0  0  0  0  0  0
   11.2978  -17.8970   26.4343 O   0  0  0  0  0  0  0  0  0  0  0  0
   12.8720  -19.3546   25.7365 O   0  0  0  0  0  0  0  0  0  0  0  0
  2  4  1  0
  2  1  1  0
  3  2  2  0
  5  4  1  0
  6  5  1  0
  6  7  1  6
  8  9  2  0
  8  6  1  0
 10  8  1  0
 11 10  1  0
 11 12  1  1
 13 12  1  0
 13 21  1  0
 14 13  2  0
 15 14  1  0
 15 16  1  0
 16 17  1  0
 16 21  2  0
 17 18  2  0
 18 19  1  0
 20 19  2  0
 21 20  1  0
 22 23  2  0
 22 11  1  0
 24 25  1  0
 26 25  1  1
 26 27  1  0
 27 22  1  0
 28 26  1  0
 29 28  2  0
 30 28  1  0
M  END
$$$$
