QWS.pdb
     RDKit          3D

 30 31  0  0  1  0  0  0  0  0999 V2000
    8.3085  -12.4359   19.1012 N   0  0  0  0  0  0  0  0  0  0  0  0
    7.6091  -13.4678   18.4337 C   0  0  0  0  0  0  0  0  0  0  0  0
    7.1143  -13.2915   17.2689 O   0  0  0  0  0  0  0  0  0  0  0  0
    7.4622  -14.7753   19.1270 C   0  0  0  0  0  0  0  0  0  0  0  0
    8.1045  -14.6768   20.4790 C   0  0  0  0  0  0  0  0  0  0  0  0
    8.6835  -16.0142   20.9066 C   0  0  2  0  0  0  0  0  0  0  0  0
    7.5777  -16.9486   20.9974 N   0  0  0  0  0  0  0  0  0  0  0  0
    9.3255  -15.7940   22.2394 C   0  0  0  0  0  0  0  0  0  0  0  0
   10.2393  -14.9119   22.2512 O   0  0  0  0  0  0  0  0  0  0  0  0
    8.9795  -16.4823   23.4083 N   0  0  0  0  0  0  0  0  0  0  0  0
    9.7559  -16.3386   24.6589 C   0  0  1  0  0  0  0  0  0  0  0  0
    8.8450  -16.2981   25.8280 C   0  0  0  0  0  0  0  0  0  0  0  0
    7.7085  -15.3738   25.7780 C   0  0  0  0  0  0  0  0  0  0  0  0
    6.3870  -15.7640   25.5352 C   0  0  0  0  0  0  0  0  0  0  0  0
    5.5956  -14.6664   25.5271 N   0  0  0  0  0  0  0  0  0  0  0  0
    6.3335  -13.5764   25.7534 C   0  0  0  0  0  0  0  0  0  0  0  0
    6.0118  -12.2472   25.8553 C   0  0  0  0  0  0  0  0  0  0  0  0
    6.9983  -11.2929   26.1210 C   0  0  0  0  0  0  0  0  0  0  0  0
    8.3041  -11.7076   26.2800 C   0  0  0  0  0  0  0  0  0  0  0  0
    8.6037  -13.0486   26.1726 C   0  0  0  0  0  0  0  0  0  0  0  0
    7.6354  -14.0031   25.9091 C   0  0  0  0  0  0  0  0  0  0  0  0
   10.8497  -17.2783   24.6857 C   0  0  0  0  0  0  0  0  0  0  0  0
   10.6548  -18.5107   24.6106 O   0  0  0  0  0  0  0  0  0  0  0  0
   14.7772  -15.9582   24.6728 O   0  0  0  0  0  0  0  0  0  0  0  0
   14.4601  -17.2020   24.1411 C   0  0  0  0  0  0  0  0  0  0  0  0
   13.2547  -17.7961   24.8816 C   0  0  2  0  0  0  0  0  0  0  0  0
   12.1851  -16.8220   24.7993 N   0  0  0  0  0  0  0  0  0  0  0  0
   13.5953  -18.1135   26.2841 C   0  0  0  0  0  0  0  0  0  0  0  0
   14.5133  -18.9056   26.6006 O   0  0  0  0  0  0  0  0  0  0  0  0
   12.8773  -17.5170   27.2971 O   0  0  0  0  0  0  0  0  0  0  0  0
  2  4  1  0
  2  1  1  0
  3  2  2  0
  5  4  1  0
  6  5  1  0
  6  7  1  1
  8  9  2  0
  8  6  1  0
 10  8  1  0
 11 10  1  0
 11 12  1  1
 13 12  1  0
 13 21  1  0
 14 13  2  0
 15 14  1  0
 15 16  1  0
 16 17  1  0
 16 21  2  0
 17 18  2  0
 18 19  1  0
 20 19  2  0
 21 20  1  0
 22 23  2  0
 22 11  1  0
 24 25  1  0
 26 25  1  1
 26 27  1  0
 27 22  1  0
 28 26  1  0
 29 28  2  0
 30 28  1  0
M  END
$$$$
