QWS.pdb
     RDKit          3D

 30 31  0  0  1  0  0  0  0  0999 V2000
    8.8968  -12.6294   16.4467 N   0  0  0  0  0  0  0  0  0  0  0  0
    8.4247  -13.7833   15.7798 C   0  0  0  0  0  0  0  0  0  0  0  0
    7.9623  -13.7226   14.5902 O   0  0  0  0  0  0  0  0  0  0  0  0
    8.4798  -15.0814   16.5036 C   0  0  0  0  0  0  0  0  0  0  0  0
    9.0369  -14.8427   17.8758 C   0  0  0  0  0  0  0  0  0  0  0  0
    9.1636  -16.1449   18.6471 C   0  0  2  0  0  0  0  0  0  0  0  0
    8.0090  -16.9554   18.3090 N   0  0  0  0  0  0  0  0  0  0  0  0
    9.1721  -15.7816   20.0980 C   0  0  0  0  0  0  0  0  0  0  0  0
   10.1862  -15.1159   20.4745 O   0  0  0  0  0  0  0  0  0  0  0  0
    8.1644  -16.1266   21.0065 N   0  0  0  0  0  0  0  0  0  0  0  0
    8.2405  -15.7557   22.4362 C   0  0  1  0  0  0  0  0  0  0  0  0
    6.9007  -15.3676   22.9389 C   0  0  0  0  0  0  0  0  0  0  0  0
    6.7927  -14.9367   24.3358 C   0  0  0  0  0  0  0  0  0  0  0  0
    6.4674  -15.7866   25.3985 C   0  0  0  0  0  0  0  0  0  0  0  0
    6.4236  -15.0668   26.5435 N   0  0  0  0  0  0  0  0  0  0  0  0
    6.7049  -13.7874   26.2833 C   0  0  0  0  0  0  0  0  0  0  0  0
    6.8013  -12.6804   27.0870 C   0  0  0  0  0  0  0  0  0  0  0  0
    7.1355  -11.4345   26.5477 C   0  0  0  0  0  0  0  0  0  0  0  0
    7.3677  -11.3334   25.1919 C   0  0  0  0  0  0  0  0  0  0  0  0
    7.2644  -12.4595   24.4041 C   0  0  0  0  0  0  0  0  0  0  0  0
    6.9336  -13.6987   24.9265 C   0  0  0  0  0  0  0  0  0  0  0  0
    8.9796  -16.7480   23.1772 C   0  0  0  0  0  0  0  0  0  0  0  0
    8.8244  -17.9705   22.9677 O   0  0  0  0  0  0  0  0  0  0  0  0
   12.7287  -16.2452   24.3472 O   0  0  0  0  0  0  0  0  0  0  0  0
   12.0479  -17.4421   24.1628 C   0  0  0  0  0  0  0  0  0  0  0  0
   10.6788  -17.3774   24.8527 C   0  0  2  0  0  0  0  0  0  0  0  0
    9.9090  -16.3565   24.1709 N   0  0  0  0  0  0  0  0  0  0  0  0
   10.8223  -17.0801   26.2931 C   0  0  0  0  0  0  0  0  0  0  0  0
   11.4443  -17.8260   27.0849 O   0  0  0  0  0  0  0  0  0  0  0  0
   10.2501  -15.9335   26.7986 O   0  0  0  0  0  0  0  0  0  0  0  0
  2  4  1  0
  2  1  1  0
  3  2  2  0
  5  4  1  0
  6  5  1  0
  6  7  1  1
  8  9  2  0
  8  6  1  0
 10  8  1  0
 11 10  1  0
 11 12  1  1
 13 12  1  0
 13 21  1  0
 14 13  2  0
 15 14  1  0
 15 16  1  0
 16 17  1  0
 16 21  2  0
 17 18  2  0
 18 19  1  0
 20 19  2  0
 21 20  1  0
 22 23  2  0
 22 11  1  0
 24 25  1  0
 26 25  1  6
 26 27  1  0
 27 22  1  0
 28 26  1  0
 29 28  2  0
 30 28  1  0
M  END
$$$$
