QWS.pdb
     RDKit          3D

 30 31  0  0  1  0  0  0  0  0999 V2000
    8.4937  -12.4152   18.6070 N   0  0  0  0  0  0  0  0  0  0  0  0
    7.7985  -13.3970   17.8640 C   0  0  0  0  0  0  0  0  0  0  0  0
    7.5839  -13.2568   16.6123 O   0  0  0  0  0  0  0  0  0  0  0  0
    7.3187  -14.6080   18.5819 C   0  0  0  0  0  0  0  0  0  0  0  0
    7.7961  -14.5446   20.0025 C   0  0  0  0  0  0  0  0  0  0  0  0
    8.4115  -15.8654   20.4306 C   0  0  2  0  0  0  0  0  0  0  0  0
    7.3474  -16.8512   20.4332 N   0  0  0  0  0  0  0  0  0  0  0  0
    8.9645  -15.6527   21.8040 C   0  0  0  0  0  0  0  0  0  0  0  0
    9.7896  -14.6921   21.9029 O   0  0  0  0  0  0  0  0  0  0  0  0
    8.6285  -16.4261   22.9214 N   0  0  0  0  0  0  0  0  0  0  0  0
    9.3422  -16.2898   24.2096 C   0  0  1  0  0  0  0  0  0  0  0  0
    8.3890  -16.3999   25.3398 C   0  0  0  0  0  0  0  0  0  0  0  0
    7.4009  -15.3303   25.5080 C   0  0  0  0  0  0  0  0  0  0  0  0
    6.0227  -15.4980   25.3352 C   0  0  0  0  0  0  0  0  0  0  0  0
    5.4037  -14.3117   25.5364 N   0  0  0  0  0  0  0  0  0  0  0  0
    6.3085  -13.3752   25.8332 C   0  0  0  0  0  0  0  0  0  0  0  0
    6.1945  -12.0414   26.1310 C   0  0  0  0  0  0  0  0  0  0  0  0
    7.3273  -11.2776   26.4276 C   0  0  0  0  0  0  0  0  0  0  0  0
    8.5653  -11.8856   26.4168 C   0  0  0  0  0  0  0  0  0  0  0  0
    8.6551  -13.2272   26.1141 C   0  0  0  0  0  0  0  0  0  0  0  0
    7.5405  -13.9940   25.8180 C   0  0  0  0  0  0  0  0  0  0  0  0
   10.5147  -17.1294   24.2292 C   0  0  0  0  0  0  0  0  0  0  0  0
   10.4696  -18.3240   23.8642 O   0  0  0  0  0  0  0  0  0  0  0  0
   14.0980  -16.3341   23.1978 O   0  0  0  0  0  0  0  0  0  0  0  0
   14.1479  -16.7639   24.5180 C   0  0  0  0  0  0  0  0  0  0  0  0
   12.8647  -17.5289   24.8683 C   0  0  2  0  0  0  0  0  0  0  0  0
   11.7586  -16.6146   24.6677 N   0  0  0  0  0  0  0  0  0  0  0  0
   12.9086  -18.0342   26.2563 C   0  0  0  0  0  0  0  0  0  0  0  0
   12.0896  -17.6816   27.1368 O   0  0  0  0  0  0  0  0  0  0  0  0
   13.8903  -18.9340   26.6087 O   0  0  0  0  0  0  0  0  0  0  0  0
  2  4  1  0
  2  1  1  0
  3  2  2  0
  5  4  1  0
  6  5  1  0
  6  7  1  1
  8  9  2  0
  8  6  1  0
 10  8  1  0
 11 10  1  0
 11 12  1  1
 13 12  1  0
 13 21  1  0
 14 13  2  0
 15 14  1  0
 15 16  1  0
 16 17  1  0
 16 21  2  0
 17 18  2  0
 18 19  1  0
 20 19  2  0
 21 20  1  0
 22 23  2  0
 22 11  1  0
 24 25  1  0
 26 25  1  1
 26 27  1  0
 27 22  1  0
 28 26  1  0
 29 28  2  0
 30 28  1  0
M  END
$$$$
