QWS.pdb
     RDKit          3D

 30 31  0  0  1  0  0  0  0  0999 V2000
    9.0497  -12.5185   18.4424 N   0  0  0  0  0  0  0  0  0  0  0  0
    7.9040  -13.2983   18.1621 C   0  0  0  0  0  0  0  0  0  0  0  0
    7.2227  -13.1213   17.0957 O   0  0  0  0  0  0  0  0  0  0  0  0
    7.5078  -14.3391   19.1478 C   0  0  0  0  0  0  0  0  0  0  0  0
    8.4720  -14.3045   20.2963 C   0  0  0  0  0  0  0  0  0  0  0  0
    8.7652  -15.7052   20.8048 C   0  0  2  0  0  0  0  0  0  0  0  0
    7.5134  -16.4378   20.7834 N   0  0  0  0  0  0  0  0  0  0  0  0
    9.2868  -15.5524   22.1982 C   0  0  0  0  0  0  0  0  0  0  0  0
   10.1784  -14.6586   22.3380 O   0  0  0  0  0  0  0  0  0  0  0  0
    8.8564  -16.3119   23.2925 N   0  0  0  0  0  0  0  0  0  0  0  0
    9.6296  -16.3767   24.5516 C   0  0  1  0  0  0  0  0  0  0  0  0
    8.7179  -16.3122   25.7190 C   0  0  0  0  0  0  0  0  0  0  0  0
    7.6442  -15.3145   25.6941 C   0  0  0  0  0  0  0  0  0  0  0  0
    6.3307  -15.5819   25.2935 C   0  0  0  0  0  0  0  0  0  0  0  0
    5.6062  -14.4410   25.3613 N   0  0  0  0  0  0  0  0  0  0  0  0
    6.3803  -13.4395   25.7874 C   0  0  0  0  0  0  0  0  0  0  0  0
    6.1256  -12.1146   26.0329 C   0  0  0  0  0  0  0  0  0  0  0  0
    7.1358  -11.2690   26.5012 C   0  0  0  0  0  0  0  0  0  0  0  0
    8.3963  -11.7871   26.7136 C   0  0  0  0  0  0  0  0  0  0  0  0
    8.6287  -13.1215   26.4592 C   0  0  0  0  0  0  0  0  0  0  0  0
    7.6365  -13.9688   25.9947 C   0  0  0  0  0  0  0  0  0  0  0  0
   10.5888  -17.4526   24.5010 C   0  0  0  0  0  0  0  0  0  0  0  0
   10.3078  -18.5553   23.9840 O   0  0  0  0  0  0  0  0  0  0  0  0
   14.5529  -16.9696   25.6350 O   0  0  0  0  0  0  0  0  0  0  0  0
   14.1457  -18.0750   24.8984 C   0  0  0  0  0  0  0  0  0  0  0  0
   12.7073  -18.4542   25.2751 C   0  0  2  0  0  0  0  0  0  0  0  0
   11.8860  -17.2833   25.0423 N   0  0  0  0  0  0  0  0  0  0  0  0
   12.6265  -18.9054   26.6798 C   0  0  0  0  0  0  0  0  0  0  0  0
   12.0050  -18.2725   27.5649 O   0  0  0  0  0  0  0  0  0  0  0  0
   13.2595  -20.0736   27.0435 O   0  0  0  0  0  0  0  0  0  0  0  0
  2  4  1  0
  2  1  1  0
  3  2  2  0
  5  4  1  0
  6  5  1  0
  6  7  1  1
  8  9  2  0
  8  6  1  0
 10  8  1  0
 11 10  1  0
 11 12  1  1
 13 12  1  0
 13 21  1  0
 14 13  2  0
 15 14  1  0
 15 16  1  0
 16 17  1  0
 16 21  2  0
 17 18  2  0
 18 19  1  0
 20 19  2  0
 21 20  1  0
 22 23  2  0
 22 11  1  0
 24 25  1  0
 26 25  1  1
 26 27  1  0
 27 22  1  0
 28 26  1  0
 29 28  2  0
 30 28  1  0
M  END
$$$$
