QWS.pdb
     RDKit          3D

 30 31  0  0  1  0  0  0  0  0999 V2000
    9.0079  -12.5359   18.7202 N   0  0  0  0  0  0  0  0  0  0  0  0
    7.9523  -13.3219   18.2032 C   0  0  0  0  0  0  0  0  0  0  0  0
    7.4552  -13.0928   17.0485 O   0  0  0  0  0  0  0  0  0  0  0  0
    7.4298  -14.4318   19.0439 C   0  0  0  0  0  0  0  0  0  0  0  0
    8.1818  -14.4461   20.3418 C   0  0  0  0  0  0  0  0  0  0  0  0
    8.5840  -15.8599   20.7237 C   0  0  2  0  0  0  0  0  0  0  0  0
    7.3642  -16.6384   20.8240 N   0  0  0  0  0  0  0  0  0  0  0  0
    9.2820  -15.7627   22.0429 C   0  0  0  0  0  0  0  0  0  0  0  0
   10.3358  -15.0536   22.0370 O   0  0  0  0  0  0  0  0  0  0  0  0
    8.8454  -16.3868   23.2175 N   0  0  0  0  0  0  0  0  0  0  0  0
    9.6137  -16.3040   24.4786 C   0  0  1  0  0  0  0  0  0  0  0  0
    8.6966  -16.3421   25.6430 C   0  0  0  0  0  0  0  0  0  0  0  0
    7.5965  -15.3740   25.6792 C   0  0  0  0  0  0  0  0  0  0  0  0
    6.2576  -15.6947   25.4302 C   0  0  0  0  0  0  0  0  0  0  0  0
    5.5098  -14.5701   25.5152 N   0  0  0  0  0  0  0  0  0  0  0  0
    6.2928  -13.5286   25.8085 C   0  0  0  0  0  0  0  0  0  0  0  0
    6.0247  -12.1993   26.0124 C   0  0  0  0  0  0  0  0  0  0  0  0
    7.0514  -11.3054   26.3310 C   0  0  0  0  0  0  0  0  0  0  0  0
    8.3420  -11.7801   26.4379 C   0  0  0  0  0  0  0  0  0  0  0  0
    8.5873  -13.1199   26.2279 C   0  0  0  0  0  0  0  0  0  0  0  0
    7.5789  -14.0149   25.9113 C   0  0  0  0  0  0  0  0  0  0  0  0
   10.7199  -17.2293   24.4583 C   0  0  0  0  0  0  0  0  0  0  0  0
   10.5521  -18.4438   24.2151 O   0  0  0  0  0  0  0  0  0  0  0  0
   14.6947  -15.9708   24.3368 O   0  0  0  0  0  0  0  0  0  0  0  0
   14.2221  -17.1644   23.8056 C   0  0  0  0  0  0  0  0  0  0  0  0
   13.1216  -17.7394   24.7072 C   0  0  2  0  0  0  0  0  0  0  0  0
   12.0370  -16.7786   24.7165 N   0  0  0  0  0  0  0  0  0  0  0  0
   13.6314  -17.9985   26.0698 C   0  0  0  0  0  0  0  0  0  0  0  0
   14.6065  -18.7505   26.3018 O   0  0  0  0  0  0  0  0  0  0  0  0
   13.0137  -17.3906   27.1406 O   0  0  0  0  0  0  0  0  0  0  0  0
  2  4  1  0
  2  1  1  0
  3  2  2  0
  5  4  1  0
  6  5  1  0
  6  7  1  1
  8  9  2  0
  8  6  1  0
 10  8  1  0
 11 10  1  0
 11 12  1  1
 13 12  1  0
 13 21  1  0
 14 13  2  0
 15 14  1  0
 15 16  1  0
 16 17  1  0
 16 21  2  0
 17 18  2  0
 18 19  1  0
 20 19  2  0
 21 20  1  0
 22 23  2  0
 22 11  1  0
 24 25  1  0
 26 25  1  6
 26 27  1  0
 27 22  1  0
 28 26  1  0
 29 28  2  0
 30 28  1  0
M  END
$$$$
