NWP.pdb
     RDKit          3D

 30 32  0  0  1  0  0  0  0  0999 V2000
   10.6310  -19.5397   18.6441 N   0  0  0  0  0  0  0  0  0  0  0  0
   11.2981  -19.9315   19.8307 C   0  0  0  0  0  0  0  0  0  0  0  0
   12.0205  -20.9638   19.7448 O   0  0  0  0  0  0  0  0  0  0  0  0
   11.1766  -19.1987   21.1064 C   0  0  0  0  0  0  0  0  0  0  0  0
   10.1277  -18.1477   21.0289 C   0  0  2  0  0  0  0  0  0  0  0  0
   10.2417  -17.3564   19.8303 N   0  0  0  0  0  0  0  0  0  0  0  0
   10.0288  -17.3272   22.2710 C   0  0  0  0  0  0  0  0  0  0  0  0
   10.7787  -16.3022   22.3966 O   0  0  0  0  0  0  0  0  0  0  0  0
    9.1612  -17.5884   23.3447 N   0  0  0  0  0  0  0  0  0  0  0  0
    9.1756  -16.7351   24.5859 C   0  0  1  0  0  0  0  0  0  0  0  0
    7.7126  -16.5746   24.8743 C   0  0  0  0  0  0  0  0  0  0  0  0
    7.1516  -15.2556   24.9820 C   0  0  0  0  0  0  0  0  0  0  0  0
    6.1791  -14.7104   24.1460 C   0  0  0  0  0  0  0  0  0  0  0  0
    5.9074  -13.4358   24.5474 N   0  0  0  0  0  0  0  0  0  0  0  0
    6.6713  -13.1376   25.6157 C   0  0  0  0  0  0  0  0  0  0  0  0
    6.7720  -11.9934   26.3792 C   0  0  0  0  0  0  0  0  0  0  0  0
    7.6542  -11.9538   27.4373 C   0  0  0  0  0  0  0  0  0  0  0  0
    8.4367  -13.0470   27.7395 C   0  0  0  0  0  0  0  0  0  0  0  0
    8.3067  -14.1668   26.9551 C   0  0  0  0  0  0  0  0  0  0  0  0
    7.4463  -14.2645   25.8900 C   0  0  0  0  0  0  0  0  0  0  0  0
    9.9651  -17.3954   25.6095 C   0  0  0  0  0  0  0  0  0  0  0  0
   10.1961  -18.6396   25.4824 O   0  0  0  0  0  0  0  0  0  0  0  0
   10.4921  -16.7403   26.7277 N   0  0  0  0  0  0  0  0  0  0  0  0
   10.3497  -15.3691   27.1839 C   0  0  0  0  0  0  0  0  0  0  0  0
   11.7134  -14.9756   27.7253 C   0  0  0  0  0  0  0  0  0  0  0  0
   12.3768  -16.2766   28.0600 C   0  0  0  0  0  0  0  0  0  0  0  0
   11.3762  -17.3672   27.7340 C   0  0  1  0  0  0  0  0  0  0  0  0
   10.6565  -17.7440   28.9548 C   0  0  0  0  0  0  0  0  0  0  0  0
   11.3566  -18.4019   29.9549 O   0  0  0  0  0  0  0  0  0  0  0  0
    9.4396  -17.5126   29.1650 O   0  0  0  0  0  0  0  0  0  0  0  0
  2  3  2  0
  2  1  1  0
  4  2  1  0
  5  4  1  0
  5  6  1  6
  7  5  1  0
  7  8  2  0
  9  7  1  0
 10  9  1  0
 10 11  1  1
 11 12  1  0
 12 13  2  0
 12 20  1  0
 13 14  1  0
 14 15  1  0
 15 16  2  0
 16 17  1  0
 18 17  2  0
 19 18  1  0
 20 19  2  0
 20 15  1  0
 21 10  1  0
 22 21  2  0
 23 24  1  0
 23 21  1  0
 25 24  1  0
 26 27  1  0
 26 25  1  0
 27 23  1  0
 28 29  1  0
 27 28  1  1
 30 28  2  0
M  END
$$$$
