NWP.pdb
     RDKit          3D

 30 32  0  0  1  0  0  0  0  0999 V2000
   12.1980  -17.7002   19.0926 N   0  0  0  0  0  0  0  0  0  0  0  0
   12.5917  -16.3827   19.4334 C   0  0  0  0  0  0  0  0  0  0  0  0
   13.4807  -15.8637   18.7018 O   0  0  0  0  0  0  0  0  0  0  0  0
   12.0166  -15.6350   20.5689 C   0  0  0  0  0  0  0  0  0  0  0  0
   10.9713  -16.4299   21.2663 C   0  0  2  0  0  0  0  0  0  0  0  0
    9.8351  -16.6912   20.4197 N   0  0  0  0  0  0  0  0  0  0  0  0
   10.5993  -15.8674   22.5970 C   0  0  0  0  0  0  0  0  0  0  0  0
   11.0542  -14.7236   22.9342 O   0  0  0  0  0  0  0  0  0  0  0  0
    9.7709  -16.5005   23.5387 N   0  0  0  0  0  0  0  0  0  0  0  0
    9.4651  -15.8585   24.8665 C   0  0  1  0  0  0  0  0  0  0  0  0
    8.0565  -16.3086   25.1167 C   0  0  0  0  0  0  0  0  0  0  0  0
    7.0460  -15.3356   25.4300 C   0  0  0  0  0  0  0  0  0  0  0  0
    5.6978  -15.6025   25.6598 C   0  0  0  0  0  0  0  0  0  0  0  0
    5.0465  -14.4313   25.9122 N   0  0  0  0  0  0  0  0  0  0  0  0
    5.9281  -13.4150   25.8537 C   0  0  0  0  0  0  0  0  0  0  0  0
    5.7725  -12.0559   26.0299 C   0  0  0  0  0  0  0  0  0  0  0  0
    6.8633  -11.2222   25.9096 C   0  0  0  0  0  0  0  0  0  0  0  0
    8.1082  -11.7340   25.6147 C   0  0  0  0  0  0  0  0  0  0  0  0
    8.2212  -13.0925   25.4468 C   0  0  0  0  0  0  0  0  0  0  0  0
    7.1719  -13.9710   25.5544 C   0  0  0  0  0  0  0  0  0  0  0  0
   10.4576  -16.2781   25.8392 C   0  0  0  0  0  0  0  0  0  0  0  0
   11.3991  -17.0387   25.4487 O   0  0  0  0  0  0  0  0  0  0  0  0
   10.4416  -15.8896   27.1831 N   0  0  0  0  0  0  0  0  0  0  0  0
    9.5071  -15.0616   27.9247 C   0  0  0  0  0  0  0  0  0  0  0  0
   10.3584  -14.2347   28.8729 C   0  0  0  0  0  0  0  0  0  0  0  0
   11.6290  -15.0153   29.0183 C   0  0  0  0  0  0  0  0  0  0  0  0
   11.4624  -16.2692   28.1834 C   0  0  1  0  0  0  0  0  0  0  0  0
   11.0196  -17.3693   29.0460 C   0  0  0  0  0  0  0  0  0  0  0  0
   11.9180  -17.8853   29.9679 O   0  0  0  0  0  0  0  0  0  0  0  0
    9.8744  -17.8849   29.0123 O   0  0  0  0  0  0  0  0  0  0  0  0
  2  3  2  0
  2  1  1  0
  4  2  1  0
  5  4  1  0
  5  6  1  6
  7  5  1  0
  7  8  2  0
  9  7  1  0
 10  9  1  0
 10 11  1  1
 11 12  1  0
 12 13  2  0
 12 20  1  0
 13 14  1  0
 14 15  1  0
 15 16  2  0
 16 17  1  0
 18 17  2  0
 19 18  1  0
 20 19  2  0
 20 15  1  0
 21 10  1  0
 22 21  2  0
 23 24  1  0
 23 21  1  0
 25 24  1  0
 26 27  1  0
 26 25  1  0
 27 23  1  0
 28 29  1  0
 27 28  1  1
 30 28  2  0
M  END
$$$$
