NWP.pdb
     RDKit          3D

 30 32  0  0  1  0  0  0  0  0999 V2000
    9.9814  -19.1621   16.9568 N   0  0  0  0  0  0  0  0  0  0  0  0
   10.3976  -19.7542   18.1745 C   0  0  0  0  0  0  0  0  0  0  0  0
   10.8680  -20.9232   18.0895 O   0  0  0  0  0  0  0  0  0  0  0  0
   10.3003  -19.0723   19.4802 C   0  0  0  0  0  0  0  0  0  0  0  0
    9.5641  -17.7856   19.3651 C   0  0  2  0  0  0  0  0  0  0  0  0
    9.9546  -17.0413   18.1949 N   0  0  0  0  0  0  0  0  0  0  0  0
    9.5998  -16.9772   20.6184 C   0  0  0  0  0  0  0  0  0  0  0  0
   10.6801  -16.3769   20.9368 O   0  0  0  0  0  0  0  0  0  0  0  0
    8.5220  -16.8127   21.5045 N   0  0  0  0  0  0  0  0  0  0  0  0
    8.6988  -16.1169   22.8287 C   0  0  1  0  0  0  0  0  0  0  0  0
    7.3076  -15.6389   23.1211 C   0  0  0  0  0  0  0  0  0  0  0  0
    6.9912  -15.1352   24.4296 C   0  0  0  0  0  0  0  0  0  0  0  0
    6.4179  -15.8646   25.4695 C   0  0  0  0  0  0  0  0  0  0  0  0
    6.2541  -15.0496   26.5505 N   0  0  0  0  0  0  0  0  0  0  0  0
    6.7025  -13.8170   26.2454 C   0  0  0  0  0  0  0  0  0  0  0  0
    6.7562  -12.6529   26.9833 C   0  0  0  0  0  0  0  0  0  0  0  0
    7.2725  -11.5078   26.4162 C   0  0  0  0  0  0  0  0  0  0  0  0
    7.7357  -11.5152   25.1184 C   0  0  0  0  0  0  0  0  0  0  0  0
    7.6647  -12.6941   24.4175 C   0  0  0  0  0  0  0  0  0  0  0  0
    7.1615  -13.8644   24.9290 C   0  0  0  0  0  0  0  0  0  0  0  0
    9.2742  -17.0468   23.7832 C   0  0  0  0  0  0  0  0  0  0  0  0
    9.0877  -18.2913   23.5987 O   0  0  0  0  0  0  0  0  0  0  0  0
   10.0279  -16.6533   24.8942 N   0  0  0  0  0  0  0  0  0  0  0  0
   10.2693  -15.3402   25.4655 C   0  0  0  0  0  0  0  0  0  0  0  0
   11.7231  -15.3478   25.9057 C   0  0  0  0  0  0  0  0  0  0  0  0
   12.0587  -16.7980   26.0763 C   0  0  0  0  0  0  0  0  0  0  0  0
   10.7945  -17.5728   25.7625 C   0  0  1  0  0  0  0  0  0  0  0  0
   10.0920  -17.8789   27.0127 C   0  0  0  0  0  0  0  0  0  0  0  0
    8.8589  -17.2853   27.2370 O   0  0  0  0  0  0  0  0  0  0  0  0
   10.5283  -18.6475   27.9058 O   0  0  0  0  0  0  0  0  0  0  0  0
  2  3  2  0
  2  1  1  0
  4  2  1  0
  5  4  1  0
  5  6  1  6
  7  5  1  0
  7  8  2  0
  9  7  1  0
 10  9  1  0
 10 11  1  1
 11 12  1  0
 12 13  2  0
 12 20  1  0
 13 14  1  0
 14 15  1  0
 15 16  2  0
 16 17  1  0
 18 17  2  0
 19 18  1  0
 20 19  2  0
 20 15  1  0
 21 10  1  0
 22 21  2  0
 23 24  1  0
 23 21  1  0
 25 24  1  0
 26 27  1  0
 26 25  1  0
 27 23  1  0
 28 29  1  0
 27 28  1  1
 30 28  2  0
M  END
$$$$
