NWP.pdb
     RDKit          3D

 30 32  0  0  1  0  0  0  0  0999 V2000
    9.2536  -20.6110   17.7923 N   0  0  0  0  0  0  0  0  0  0  0  0
   10.3500  -19.8005   18.1767 C   0  0  0  0  0  0  0  0  0  0  0  0
   11.3296  -19.7798   17.3799 O   0  0  0  0  0  0  0  0  0  0  0  0
   10.3765  -19.0156   19.4267 C   0  0  0  0  0  0  0  0  0  0  0  0
    9.7765  -17.6691   19.2328 C   0  0  2  0  0  0  0  0  0  0  0  0
   10.3646  -16.9695   18.1191 N   0  0  0  0  0  0  0  0  0  0  0  0
    9.7389  -16.8596   20.4854 C   0  0  0  0  0  0  0  0  0  0  0  0
   10.7863  -16.2237   20.8426 O   0  0  0  0  0  0  0  0  0  0  0  0
    8.6243  -16.7307   21.3309 N   0  0  0  0  0  0  0  0  0  0  0  0
    8.7406  -16.0757   22.6823 C   0  0  1  0  0  0  0  0  0  0  0  0
    7.3203  -15.6875   22.9671 C   0  0  0  0  0  0  0  0  0  0  0  0
    6.9705  -15.1801   24.2657 C   0  0  0  0  0  0  0  0  0  0  0  0
    6.4318  -15.9220   25.3150 C   0  0  0  0  0  0  0  0  0  0  0  0
    6.2189  -15.0994   26.3816 N   0  0  0  0  0  0  0  0  0  0  0  0
    6.6021  -13.8496   26.0579 C   0  0  0  0  0  0  0  0  0  0  0  0
    6.5894  -12.6724   26.7765 C   0  0  0  0  0  0  0  0  0  0  0  0
    7.0465  -11.5107   26.1926 C   0  0  0  0  0  0  0  0  0  0  0  0
    7.5161  -11.5145   24.8971 C   0  0  0  0  0  0  0  0  0  0  0  0
    7.5121  -12.7069   24.2156 C   0  0  0  0  0  0  0  0  0  0  0  0
    7.0698  -13.8939   24.7445 C   0  0  0  0  0  0  0  0  0  0  0  0
    9.3527  -17.0068   23.6126 C   0  0  0  0  0  0  0  0  0  0  0  0
    9.2742  -18.2505   23.3587 O   0  0  0  0  0  0  0  0  0  0  0  0
   10.0298  -16.6146   24.7724 N   0  0  0  0  0  0  0  0  0  0  0  0
   10.2485  -15.3003   25.3499 C   0  0  0  0  0  0  0  0  0  0  0  0
   11.6664  -15.3249   25.8944 C   0  0  0  0  0  0  0  0  0  0  0  0
   11.9673  -16.7782   26.0995 C   0  0  0  0  0  0  0  0  0  0  0  0
   10.7178  -17.5376   25.7006 C   0  0  1  0  0  0  0  0  0  0  0  0
    9.9222  -17.8231   26.8989 C   0  0  0  0  0  0  0  0  0  0  0  0
   10.4198  -18.7354   27.8173 O   0  0  0  0  0  0  0  0  0  0  0  0
    8.8112  -17.2972   27.1589 O   0  0  0  0  0  0  0  0  0  0  0  0
  2  3  2  0
  2  1  1  0
  4  2  1  0
  5  4  1  0
  5  6  1  6
  7  5  1  0
  7  8  2  0
  9  7  1  0
 10  9  1  0
 10 11  1  1
 11 12  1  0
 12 13  2  0
 12 20  1  0
 13 14  1  0
 14 15  1  0
 15 16  2  0
 16 17  1  0
 18 17  2  0
 19 18  1  0
 20 19  2  0
 20 15  1  0
 21 10  1  0
 22 21  2  0
 23 24  1  0
 23 21  1  0
 25 24  1  0
 26 27  1  0
 26 25  1  0
 27 23  1  0
 28 29  1  0
 27 28  1  1
 30 28  2  0
M  END
$$$$
