NWP.pdb
     RDKit          3D

 30 32  0  0  1  0  0  0  0  0999 V2000
   12.8555  -17.2420   18.9726 N   0  0  0  0  0  0  0  0  0  0  0  0
   11.6791  -16.4572   18.8895 C   0  0  0  0  0  0  0  0  0  0  0  0
   11.1744  -16.3361   17.7383 O   0  0  0  0  0  0  0  0  0  0  0  0
   11.0564  -15.8071   20.0595 C   0  0  0  0  0  0  0  0  0  0  0  0
   11.1014  -16.6886   21.2560 C   0  0  2  0  0  0  0  0  0  0  0  0
   10.4312  -17.9437   21.0294 N   0  0  0  0  0  0  0  0  0  0  0  0
   10.6622  -16.0018   22.5054 C   0  0  0  0  0  0  0  0  0  0  0  0
   11.2931  -14.9628   22.8946 O   0  0  0  0  0  0  0  0  0  0  0  0
    9.5876  -16.4066   23.3149 N   0  0  0  0  0  0  0  0  0  0  0  0
    9.3148  -15.7439   24.6397 C   0  0  1  0  0  0  0  0  0  0  0  0
    7.9109  -16.1851   24.9290 C   0  0  0  0  0  0  0  0  0  0  0  0
    6.9307  -15.2135   25.3307 C   0  0  0  0  0  0  0  0  0  0  0  0
    5.5992  -15.4778   25.6454 C   0  0  0  0  0  0  0  0  0  0  0  0
    4.9747  -14.3089   25.9664 N   0  0  0  0  0  0  0  0  0  0  0  0
    5.8575  -13.2965   25.8704 C   0  0  0  0  0  0  0  0  0  0  0  0
    5.7238  -11.9407   26.0859 C   0  0  0  0  0  0  0  0  0  0  0  0
    6.8098  -11.1107   25.9100 C   0  0  0  0  0  0  0  0  0  0  0  0
    8.0284  -11.6229   25.5207 C   0  0  0  0  0  0  0  0  0  0  0  0
    8.1202  -12.9779   25.3163 C   0  0  0  0  0  0  0  0  0  0  0  0
    7.0743  -13.8527   25.4757 C   0  0  0  0  0  0  0  0  0  0  0  0
   10.3281  -16.1528   25.5953 C   0  0  0  0  0  0  0  0  0  0  0  0
   11.2248  -16.9683   25.2099 O   0  0  0  0  0  0  0  0  0  0  0  0
   10.3788  -15.6973   26.9171 N   0  0  0  0  0  0  0  0  0  0  0  0
    9.5943  -14.6899   27.6087 C   0  0  0  0  0  0  0  0  0  0  0  0
   10.5717  -13.9651   28.5182 C   0  0  0  0  0  0  0  0  0  0  0  0
   11.6974  -14.9346   28.7120 C   0  0  0  0  0  0  0  0  0  0  0  0
   11.3259  -16.1862   27.9423 C   0  0  1  0  0  0  0  0  0  0  0  0
   10.7106  -17.1523   28.8580 C   0  0  0  0  0  0  0  0  0  0  0  0
   11.5242  -17.7990   29.7762 O   0  0  0  0  0  0  0  0  0  0  0  0
    9.4879  -17.4410   28.8734 O   0  0  0  0  0  0  0  0  0  0  0  0
  2  3  2  0
  2  1  1  0
  4  2  1  0
  5  4  1  0
  5  6  1  6
  7  5  1  0
  7  8  2  0
  9  7  1  0
 10  9  1  0
 10 11  1  1
 11 12  1  0
 12 13  2  0
 12 20  1  0
 13 14  1  0
 14 15  1  0
 15 16  2  0
 16 17  1  0
 18 17  2  0
 19 18  1  0
 20 19  2  0
 20 15  1  0
 21 10  1  0
 22 21  2  0
 23 24  1  0
 23 21  1  0
 25 24  1  0
 26 27  1  0
 26 25  1  0
 27 23  1  0
 28 29  1  0
 27 28  1  1
 30 28  2  0
M  END
$$$$
