NWP.pdb
     RDKit          3D

 30 32  0  0  1  0  0  0  0  0999 V2000
   11.6145  -20.5407   19.1295 N   0  0  0  0  0  0  0  0  0  0  0  0
   12.2298  -19.2759   19.2982 C   0  0  0  0  0  0  0  0  0  0  0  0
   13.0042  -18.9087   18.3707 O   0  0  0  0  0  0  0  0  0  0  0  0
   12.0001  -18.4155   20.4755 C   0  0  0  0  0  0  0  0  0  0  0  0
   10.8789  -17.4672   20.2421 C   0  0  2  0  0  0  0  0  0  0  0  0
   11.0585  -16.7032   19.0339 N   0  0  0  0  0  0  0  0  0  0  0  0
   10.5683  -16.6242   21.4331 C   0  0  0  0  0  0  0  0  0  0  0  0
   11.4583  -15.8216   21.8721 O   0  0  0  0  0  0  0  0  0  0  0  0
    9.3512  -16.6345   22.1349 N   0  0  0  0  0  0  0  0  0  0  0  0
    9.1939  -15.8935   23.4368 C   0  0  1  0  0  0  0  0  0  0  0  0
    7.7262  -15.5855   23.4483 C   0  0  0  0  0  0  0  0  0  0  0  0
    7.1173  -15.0786   24.6476 C   0  0  0  0  0  0  0  0  0  0  0  0
    6.4828  -15.8404   25.6269 C   0  0  0  0  0  0  0  0  0  0  0  0
    6.0174  -15.0130   26.6058 N   0  0  0  0  0  0  0  0  0  0  0  0
    6.3297  -13.7408   26.2932 C   0  0  0  0  0  0  0  0  0  0  0  0
    6.0855  -12.5506   26.9460 C   0  0  0  0  0  0  0  0  0  0  0  0
    6.5222  -11.3661   26.3931 C   0  0  0  0  0  0  0  0  0  0  0  0
    7.2006  -11.3600   25.1938 C   0  0  0  0  0  0  0  0  0  0  0  0
    7.4236  -12.5659   24.5754 C   0  0  0  0  0  0  0  0  0  0  0  0
    7.0130  -13.7757   25.0777 C   0  0  0  0  0  0  0  0  0  0  0  0
    9.6862  -16.7240   24.5208 C   0  0  0  0  0  0  0  0  0  0  0  0
    9.9015  -17.9552   24.2858 O   0  0  0  0  0  0  0  0  0  0  0  0
    9.9429  -16.2468   25.8106 N   0  0  0  0  0  0  0  0  0  0  0  0
    9.5994  -14.9874   26.4468 C   0  0  0  0  0  0  0  0  0  0  0  0
   10.8028  -14.6184   27.2972 C   0  0  0  0  0  0  0  0  0  0  0  0
   11.5080  -15.9182   27.5383 C   0  0  0  0  0  0  0  0  0  0  0  0
   10.6833  -16.9895   26.8533 C   0  0  1  0  0  0  0  0  0  0  0  0
    9.7919  -17.6152   27.8351 C   0  0  0  0  0  0  0  0  0  0  0  0
    8.4240  -17.4418   27.6866 O   0  0  0  0  0  0  0  0  0  0  0  0
   10.1788  -18.3047   28.8117 O   0  0  0  0  0  0  0  0  0  0  0  0
  2  3  2  0
  2  1  1  0
  4  2  1  0
  5  4  1  0
  5  6  1  6
  7  5  1  0
  7  8  2  0
  9  7  1  0
 10  9  1  0
 10 11  1  1
 11 12  1  0
 12 13  2  0
 12 20  1  0
 13 14  1  0
 14 15  1  0
 15 16  2  0
 16 17  1  0
 18 17  2  0
 19 18  1  0
 20 19  2  0
 20 15  1  0
 21 10  1  0
 22 21  2  0
 23 24  1  0
 23 21  1  0
 25 24  1  0
 26 27  1  0
 26 25  1  0
 27 23  1  0
 28 29  1  0
 27 28  1  1
 30 28  2  0
M  END
$$$$
