NWP.pdb
     RDKit          3D

 30 32  0  0  1  0  0  0  0  0999 V2000
    4.8195  -17.9815   18.9595 N   0  0  0  0  0  0  0  0  0  0  0  0
    6.1336  -17.4699   18.8249 C   0  0  0  0  0  0  0  0  0  0  0  0
    6.7002  -17.6837   17.7167 O   0  0  0  0  0  0  0  0  0  0  0  0
    6.8263  -16.7277   19.8965 C   0  0  0  0  0  0  0  0  0  0  0  0
    7.7386  -17.6143   20.6662 C   0  0  2  0  0  0  0  0  0  0  0  0
    7.0715  -18.8024   21.1342 N   0  0  0  0  0  0  0  0  0  0  0  0
    8.4859  -16.8953   21.7387 C   0  0  0  0  0  0  0  0  0  0  0  0
    9.2298  -15.9086   21.4193 O   0  0  0  0  0  0  0  0  0  0  0  0
    8.4441  -17.2152   23.1061 N   0  0  0  0  0  0  0  0  0  0  0  0
    9.3837  -16.5672   24.0889 C   0  0  1  0  0  0  0  0  0  0  0  0
    8.5402  -16.4897   25.3265 C   0  0  0  0  0  0  0  0  0  0  0  0
    7.5001  -15.5015   25.4151 C   0  0  0  0  0  0  0  0  0  0  0  0
    6.1327  -15.7412   25.2950 C   0  0  0  0  0  0  0  0  0  0  0  0
    5.4590  -14.5622   25.4205 N   0  0  0  0  0  0  0  0  0  0  0  0
    6.3447  -13.5672   25.6182 C   0  0  0  0  0  0  0  0  0  0  0  0
    6.1732  -12.2106   25.7991 C   0  0  0  0  0  0  0  0  0  0  0  0
    7.2737  -11.4014   25.9820 C   0  0  0  0  0  0  0  0  0  0  0  0
    8.5441  -11.9352   25.9858 C   0  0  0  0  0  0  0  0  0  0  0  0
    8.6722  -13.2903   25.8023 C   0  0  0  0  0  0  0  0  0  0  0  0
    7.6143  -14.1449   25.6157 C   0  0  0  0  0  0  0  0  0  0  0  0
   10.5956  -17.3606   24.1843 C   0  0  0  0  0  0  0  0  0  0  0  0
   10.5288  -18.5984   23.8998 O   0  0  0  0  0  0  0  0  0  0  0  0
   11.8368  -16.8407   24.5670 N   0  0  0  0  0  0  0  0  0  0  0  0
   12.2505  -15.4801   24.8610 C   0  0  0  0  0  0  0  0  0  0  0  0
   13.6472  -15.3437   24.2795 C   0  0  0  0  0  0  0  0  0  0  0  0
   14.1592  -16.7490   24.1926 C   0  0  0  0  0  0  0  0  0  0  0  0
   13.0672  -17.6409   24.7484 C   0  0  1  0  0  0  0  0  0  0  0  0
   13.3470  -17.9260   26.1593 C   0  0  0  0  0  0  0  0  0  0  0  0
   12.5244  -17.3588   27.1211 O   0  0  0  0  0  0  0  0  0  0  0  0
   14.2865  -18.6540   26.5668 O   0  0  0  0  0  0  0  0  0  0  0  0
  2  3  2  0
  2  1  1  0
  4  2  1  0
  5  4  1  0
  5  6  1  1
  7  5  1  0
  7  8  2  0
  9  7  1  0
 10  9  1  0
 10 11  1  1
 11 12  1  0
 12 13  2  0
 12 20  1  0
 13 14  1  0
 14 15  1  0
 15 16  2  0
 16 17  1  0
 18 17  2  0
 19 18  1  0
 20 19  2  0
 20 15  1  0
 21 10  1  0
 22 21  2  0
 23 24  1  0
 23 21  1  0
 25 24  1  0
 26 27  1  0
 26 25  1  0
 27 23  1  0
 28 29  1  0
 27 28  1  1
 30 28  2  0
M  END
$$$$
