NWP.pdb
     RDKit          3D

 30 32  0  0  1  0  0  0  0  0999 V2000
   11.1639  -17.0209   17.9067 N   0  0  0  0  0  0  0  0  0  0  0  0
   11.8361  -16.6404   19.0941 C   0  0  0  0  0  0  0  0  0  0  0  0
   13.0760  -16.8781   19.1290 O   0  0  0  0  0  0  0  0  0  0  0  0
   11.1568  -16.0028   20.2392 C   0  0  0  0  0  0  0  0  0  0  0  0
   11.2470  -16.8466   21.4601 C   0  0  2  0  0  0  0  0  0  0  0  0
   10.6183  -18.1302   21.2787 N   0  0  0  0  0  0  0  0  0  0  0  0
   10.7992  -16.1389   22.6947 C   0  0  0  0  0  0  0  0  0  0  0  0
   11.3115  -15.0048   22.9779 O   0  0  0  0  0  0  0  0  0  0  0  0
    9.8383  -16.6215   23.5990 N   0  0  0  0  0  0  0  0  0  0  0  0
    9.5820  -15.9270   24.9108 C   0  0  1  0  0  0  0  0  0  0  0  0
    8.0931  -16.0469   25.0447 C   0  0  0  0  0  0  0  0  0  0  0  0
    7.2567  -14.9351   24.6837 C   0  0  0  0  0  0  0  0  0  0  0  0
    6.5766  -14.7819   23.4771 C   0  0  0  0  0  0  0  0  0  0  0  0
    5.8995  -13.5984   23.4922 N   0  0  0  0  0  0  0  0  0  0  0  0
    6.1183  -12.9801   24.6684 C   0  0  0  0  0  0  0  0  0  0  0  0
    5.6686  -11.7757   25.1680 C   0  0  0  0  0  0  0  0  0  0  0  0
    6.0546  -11.3719   26.4278 C   0  0  0  0  0  0  0  0  0  0  0  0
    6.8860  -12.1605   27.1932 C   0  0  0  0  0  0  0  0  0  0  0  0
    7.3118  -13.3522   26.6596 C   0  0  0  0  0  0  0  0  0  0  0  0
    6.9608  -13.8060   25.4125 C   0  0  0  0  0  0  0  0  0  0  0  0
   10.3750  -16.5602   25.9487 C   0  0  0  0  0  0  0  0  0  0  0  0
   11.0783  -17.5726   25.6356 O   0  0  0  0  0  0  0  0  0  0  0  0
   10.4149  -16.1176   27.2753 N   0  0  0  0  0  0  0  0  0  0  0  0
    9.6470  -15.0940   27.9619 C   0  0  0  0  0  0  0  0  0  0  0  0
   10.6281  -14.4055   28.8952 C   0  0  0  0  0  0  0  0  0  0  0  0
   11.7220  -15.4085   29.1003 C   0  0  0  0  0  0  0  0  0  0  0  0
   11.3288  -16.6422   28.3128 C   0  0  1  0  0  0  0  0  0  0  0  0
   10.6698  -17.5981   29.2085 C   0  0  0  0  0  0  0  0  0  0  0  0
   11.4374  -18.2328   30.1734 O   0  0  0  0  0  0  0  0  0  0  0  0
    9.4479  -17.8881   29.1670 O   0  0  0  0  0  0  0  0  0  0  0  0
  2  3  2  0
  2  1  1  0
  4  2  1  0
  5  4  1  0
  5  6  1  6
  7  5  1  0
  7  8  2  0
  9  7  1  0
 10  9  1  0
 10 11  1  1
 11 12  1  0
 12 13  2  0
 12 20  1  0
 13 14  1  0
 14 15  1  0
 15 16  2  0
 16 17  1  0
 18 17  2  0
 19 18  1  0
 20 19  2  0
 20 15  1  0
 21 10  1  0
 22 21  2  0
 23 24  1  0
 23 21  1  0
 25 24  1  0
 26 27  1  0
 26 25  1  0
 27 23  1  0
 28 29  1  0
 27 28  1  1
 30 28  2  0
M  END
$$$$
