NWP.pdb
     RDKit          3D

 30 32  0  0  1  0  0  0  0  0999 V2000
   13.1943  -18.8972   19.9480 N   0  0  0  0  0  0  0  0  0  0  0  0
   13.5354  -17.5244   20.0248 C   0  0  0  0  0  0  0  0  0  0  0  0
   14.3798  -17.1155   19.1795 O   0  0  0  0  0  0  0  0  0  0  0  0
   12.9564  -16.6018   21.0211 C   0  0  0  0  0  0  0  0  0  0  0  0
   11.4712  -16.6741   21.0266 C   0  0  2  0  0  0  0  0  0  0  0  0
   10.9059  -16.2930   19.7574 N   0  0  0  0  0  0  0  0  0  0  0  0
   10.8553  -15.9634   22.1848 C   0  0  0  0  0  0  0  0  0  0  0  0
   11.1209  -14.7281   22.3648 O   0  0  0  0  0  0  0  0  0  0  0  0
    9.9858  -16.5472   23.1212 N   0  0  0  0  0  0  0  0  0  0  0  0
    9.5241  -15.7882   24.3376 C   0  0  1  0  0  0  0  0  0  0  0  0
    8.0980  -16.2346   24.4646 C   0  0  0  0  0  0  0  0  0  0  0  0
    7.1317  -15.3586   25.0686 C   0  0  0  0  0  0  0  0  0  0  0  0
    5.8859  -15.7352   25.5666 C   0  0  0  0  0  0  0  0  0  0  0  0
    5.2447  -14.6324   26.0485 N   0  0  0  0  0  0  0  0  0  0  0  0
    6.0339  -13.5544   25.8794 C   0  0  0  0  0  0  0  0  0  0  0  0
    5.8476  -12.2243   26.1935 C   0  0  0  0  0  0  0  0  0  0  0  0
    6.8364  -11.3091   25.9038 C   0  0  0  0  0  0  0  0  0  0  0  0
    8.0098  -11.7106   25.3031 C   0  0  0  0  0  0  0  0  0  0  0  0
    8.1564  -13.0436   25.0064 C   0  0  0  0  0  0  0  0  0  0  0  0
    7.2075  -13.9996   25.2711 C   0  0  0  0  0  0  0  0  0  0  0  0
   10.3982  -16.0992   25.4540 C   0  0  0  0  0  0  0  0  0  0  0  0
   11.3787  -16.8833   25.2507 O   0  0  0  0  0  0  0  0  0  0  0  0
   10.2273  -15.5816   26.7425 N   0  0  0  0  0  0  0  0  0  0  0  0
    9.2402  -14.6600   27.2762 C   0  0  0  0  0  0  0  0  0  0  0  0
    9.9967  -13.7687   28.2462 C   0  0  0  0  0  0  0  0  0  0  0  0
   11.2063  -14.5663   28.6274 C   0  0  0  0  0  0  0  0  0  0  0  0
   11.0971  -15.8903   27.8980 C   0  0  1  0  0  0  0  0  0  0  0  0
   10.5048  -16.8887   28.7941 C   0  0  0  0  0  0  0  0  0  0  0  0
    9.2558  -17.4002   28.4755 O   0  0  0  0  0  0  0  0  0  0  0  0
   11.0504  -17.3203   29.8403 O   0  0  0  0  0  0  0  0  0  0  0  0
  2  3  2  0
  2  1  1  0
  4  2  1  0
  5  4  1  0
  5  6  1  6
  7  5  1  0
  7  8  2  0
  9  7  1  0
 10  9  1  0
 10 11  1  1
 11 12  1  0
 12 13  2  0
 12 20  1  0
 13 14  1  0
 14 15  1  0
 15 16  2  0
 16 17  1  0
 18 17  2  0
 19 18  1  0
 20 19  2  0
 20 15  1  0
 21 10  1  0
 22 21  2  0
 23 24  1  0
 23 21  1  0
 25 24  1  0
 26 27  1  0
 26 25  1  0
 27 23  1  0
 28 29  1  0
 27 28  1  1
 30 28  2  0
M  END
$$$$
