NWP.pdb
     RDKit          3D

 30 32  0  0  1  0  0  0  0  0999 V2000
   13.8773  -16.9940   18.6299 N   0  0  0  0  0  0  0  0  0  0  0  0
   12.6679  -17.3851   19.2553 C   0  0  0  0  0  0  0  0  0  0  0  0
   12.2042  -18.5080   18.9105 O   0  0  0  0  0  0  0  0  0  0  0  0
   11.9676  -16.5529   20.2534 C   0  0  0  0  0  0  0  0  0  0  0  0
   11.5251  -17.3633   21.4188 C   0  0  2  0  0  0  0  0  0  0  0  0
   10.6050  -18.4040   21.0366 N   0  0  0  0  0  0  0  0  0  0  0  0
   11.0369  -16.5323   22.5576 C   0  0  0  0  0  0  0  0  0  0  0  0
   11.5720  -15.3924   22.7655 O   0  0  0  0  0  0  0  0  0  0  0  0
   10.0134  -16.9014   23.4464 N   0  0  0  0  0  0  0  0  0  0  0  0
    9.6971  -16.0700   24.6620 C   0  0  1  0  0  0  0  0  0  0  0  0
    8.2008  -15.9858   24.6049 C   0  0  0  0  0  0  0  0  0  0  0  0
    7.5710  -14.7195   24.3482 C   0  0  0  0  0  0  0  0  0  0  0  0
    7.3139  -14.1744   23.0918 C   0  0  0  0  0  0  0  0  0  0  0  0
    6.7196  -12.9567   23.2455 N   0  0  0  0  0  0  0  0  0  0  0  0
    6.5830  -12.6953   24.5595 C   0  0  0  0  0  0  0  0  0  0  0  0
    6.0522  -11.6118   25.2277 C   0  0  0  0  0  0  0  0  0  0  0  0
    6.0383  -11.5989   26.6058 C   0  0  0  0  0  0  0  0  0  0  0  0
    6.5500  -12.6589   27.3223 C   0  0  0  0  0  0  0  0  0  0  0  0
    7.0694  -13.7185   26.6197 C   0  0  0  0  0  0  0  0  0  0  0  0
    7.1103  -13.7870   25.2493 C   0  0  0  0  0  0  0  0  0  0  0  0
   10.2618  -16.7085   25.8369 C   0  0  0  0  0  0  0  0  0  0  0  0
   10.7729  -17.8658   25.7060 O   0  0  0  0  0  0  0  0  0  0  0  0
   10.2813  -16.1217   27.1067 N   0  0  0  0  0  0  0  0  0  0  0  0
    9.5734  -14.9690   27.6349 C   0  0  0  0  0  0  0  0  0  0  0  0
   10.5676  -14.2578   28.5367 C   0  0  0  0  0  0  0  0  0  0  0  0
   11.5632  -15.3139   28.9085 C   0  0  0  0  0  0  0  0  0  0  0  0
   11.1020  -16.5948   28.2424 C   0  0  1  0  0  0  0  0  0  0  0  0
   10.3265  -17.3869   29.2023 C   0  0  0  0  0  0  0  0  0  0  0  0
   10.9944  -17.9604   30.2738 O   0  0  0  0  0  0  0  0  0  0  0  0
    9.0885  -17.5871   29.1259 O   0  0  0  0  0  0  0  0  0  0  0  0
  2  3  2  0
  2  1  1  0
  4  2  1  0
  5  4  1  0
  5  6  1  6
  7  5  1  0
  7  8  2  0
  9  7  1  0
 10  9  1  0
 10 11  1  1
 11 12  1  0
 12 13  2  0
 12 20  1  0
 13 14  1  0
 14 15  1  0
 15 16  2  0
 16 17  1  0
 18 17  2  0
 19 18  1  0
 20 19  2  0
 20 15  1  0
 21 10  1  0
 22 21  2  0
 23 24  1  0
 23 21  1  0
 25 24  1  0
 26 27  1  0
 26 25  1  0
 27 23  1  0
 28 29  1  0
 27 28  1  1
 30 28  2  0
M  END
$$$$
