NWP.pdb
     RDKit          3D

 30 32  0  0  1  0  0  0  0  0999 V2000
   13.9255  -18.2188   19.3614 N   0  0  0  0  0  0  0  0  0  0  0  0
   12.9732  -18.3933   20.3955 C   0  0  0  0  0  0  0  0  0  0  0  0
   12.3342  -19.4825   20.3817 O   0  0  0  0  0  0  0  0  0  0  0  0
   12.7197  -17.3820   21.4405 C   0  0  0  0  0  0  0  0  0  0  0  0
   11.2757  -17.0362   21.5199 C   0  0  2  0  0  0  0  0  0  0  0  0
   10.8180  -16.3486   20.3395 N   0  0  0  0  0  0  0  0  0  0  0  0
   10.9097  -16.3406   22.7879 C   0  0  0  0  0  0  0  0  0  0  0  0
   11.4891  -15.2416   23.0800 O   0  0  0  0  0  0  0  0  0  0  0  0
    9.9590  -16.7988   23.7153 N   0  0  0  0  0  0  0  0  0  0  0  0
    9.6811  -16.0419   24.9876 C   0  0  1  0  0  0  0  0  0  0  0  0
    8.1839  -16.0893   25.0613 C   0  0  0  0  0  0  0  0  0  0  0  0
    7.4157  -14.9597   24.6140 C   0  0  0  0  0  0  0  0  0  0  0  0
    6.9487  -14.7507   23.3179 C   0  0  0  0  0  0  0  0  0  0  0  0
    6.2737  -13.5668   23.2710 N   0  0  0  0  0  0  0  0  0  0  0  0
    6.2878  -13.0024   24.4936 C   0  0  0  0  0  0  0  0  0  0  0  0
    5.7549  -11.8200   24.9631 C   0  0  0  0  0  0  0  0  0  0  0  0
    5.9207  -11.4740   26.2868 C   0  0  0  0  0  0  0  0  0  0  0  0
    6.6142  -12.2987   27.1457 C   0  0  0  0  0  0  0  0  0  0  0  0
    7.1293  -13.4668   26.6393 C   0  0  0  0  0  0  0  0  0  0  0  0
    6.9960  -13.8634   25.3319 C   0  0  0  0  0  0  0  0  0  0  0  0
   10.3999  -16.6685   26.0820 C   0  0  0  0  0  0  0  0  0  0  0  0
   11.0768  -17.7167   25.8358 O   0  0  0  0  0  0  0  0  0  0  0  0
   10.3954  -16.1826   27.3940 N   0  0  0  0  0  0  0  0  0  0  0  0
    9.5731  -15.1704   28.0327 C   0  0  0  0  0  0  0  0  0  0  0  0
   10.5066  -14.4124   28.9609 C   0  0  0  0  0  0  0  0  0  0  0  0
   11.6363  -15.3621   29.2186 C   0  0  0  0  0  0  0  0  0  0  0  0
   11.3095  -16.6356   28.4647 C   0  0  1  0  0  0  0  0  0  0  0  0
   10.6725  -17.5889   29.3788 C   0  0  0  0  0  0  0  0  0  0  0  0
    9.3414  -17.9151   29.1668 O   0  0  0  0  0  0  0  0  0  0  0  0
   11.2488  -18.1387   30.3505 O   0  0  0  0  0  0  0  0  0  0  0  0
  2  3  2  0
  2  1  1  0
  4  2  1  0
  5  4  1  0
  5  6  1  6
  7  5  1  0
  7  8  2  0
  9  7  1  0
 10  9  1  0
 10 11  1  1
 11 12  1  0
 12 13  2  0
 12 20  1  0
 13 14  1  0
 14 15  1  0
 15 16  2  0
 16 17  1  0
 18 17  2  0
 19 18  1  0
 20 19  2  0
 20 15  1  0
 21 10  1  0
 22 21  2  0
 23 24  1  0
 23 21  1  0
 25 24  1  0
 26 27  1  0
 26 25  1  0
 27 23  1  0
 28 29  1  0
 27 28  1  1
 30 28  2  0
M  END
$$$$
