NWP.pdb
     RDKit          3D

 30 32  0  0  1  0  0  0  0  0999 V2000
    6.2563  -23.1166   21.5231 N   0  0  0  0  0  0  0  0  0  0  0  0
    7.2411  -22.2483   20.9912 C   0  0  0  0  0  0  0  0  0  0  0  0
    8.2620  -22.8048   20.4984 O   0  0  0  0  0  0  0  0  0  0  0  0
    7.1113  -20.7778   20.9974 C   0  0  0  0  0  0  0  0  0  0  0  0
    5.9911  -20.3373   21.8704 C   0  0  2  0  0  0  0  0  0  0  0  0
    4.7121  -20.7753   21.3724 N   0  0  0  0  0  0  0  0  0  0  0  0
    6.0342  -18.8799   22.1865 C   0  0  0  0  0  0  0  0  0  0  0  0
    5.4880  -18.0556   21.3796 O   0  0  0  0  0  0  0  0  0  0  0  0
    6.6386  -18.3174   23.3231 N   0  0  0  0  0  0  0  0  0  0  0  0
    6.8826  -16.8345   23.4248 C   0  0  1  0  0  0  0  0  0  0  0  0
    7.0046  -16.6365   24.9064 C   0  0  0  0  0  0  0  0  0  0  0  0
    6.7381  -15.3429   25.4734 C   0  0  0  0  0  0  0  0  0  0  0  0
    5.4805  -14.8320   25.7886 C   0  0  0  0  0  0  0  0  0  0  0  0
    5.6225  -13.5730   26.2928 N   0  0  0  0  0  0  0  0  0  0  0  0
    6.9301  -13.2517   26.3150 C   0  0  0  0  0  0  0  0  0  0  0  0
    7.5862  -12.1103   26.7262 C   0  0  0  0  0  0  0  0  0  0  0  0
    8.9598  -12.0423   26.6370 C   0  0  0  0  0  0  0  0  0  0  0  0
    9.6839  -13.1044   26.1406 C   0  0  0  0  0  0  0  0  0  0  0  0
    8.9933  -14.2226   25.7417 C   0  0  0  0  0  0  0  0  0  0  0  0
    7.6278  -14.3475   25.8070 C   0  0  0  0  0  0  0  0  0  0  0  0
    8.0470  -16.4871   22.6307 C   0  0  0  0  0  0  0  0  0  0  0  0
    8.8974  -17.3986   22.3785 O   0  0  0  0  0  0  0  0  0  0  0  0
    8.2863  -15.2063   22.1211 N   0  0  0  0  0  0  0  0  0  0  0  0
    7.6558  -13.9313   22.4132 C   0  0  0  0  0  0  0  0  0  0  0  0
    7.5604  -13.2086   21.0804 C   0  0  0  0  0  0  0  0  0  0  0  0
    8.6166  -13.8448   20.2292 C   0  0  0  0  0  0  0  0  0  0  0  0
    9.3017  -14.8822   21.0960 C   0  0  1  0  0  0  0  0  0  0  0  0
   10.5173  -14.3019   21.6754 C   0  0  0  0  0  0  0  0  0  0  0  0
   11.5928  -14.0534   20.8358 O   0  0  0  0  0  0  0  0  0  0  0  0
   10.6591  -14.0093   22.8891 O   0  0  0  0  0  0  0  0  0  0  0  0
  2  3  2  0
  2  1  1  0
  4  2  1  0
  5  4  1  0
  5  6  1  6
  7  5  1  0
  7  8  2  0
  9  7  1  0
 10  9  1  0
 10 11  1  1
 11 12  1  0
 12 13  2  0
 12 20  1  0
 13 14  1  0
 14 15  1  0
 15 16  2  0
 16 17  1  0
 18 17  2  0
 19 18  1  0
 20 19  2  0
 20 15  1  0
 21 10  1  0
 22 21  2  0
 23 24  1  0
 23 21  1  0
 25 24  1  0
 26 27  1  0
 26 25  1  0
 27 23  1  0
 28 29  1  0
 27 28  1  1
 30 28  2  0
M  END
$$$$
