NWP.pdb
     RDKit          3D

 30 32  0  0  1  0  0  0  0  0999 V2000
    6.4900  -22.4067   22.4832 N   0  0  0  0  0  0  0  0  0  0  0  0
    6.1078  -21.7092   21.3109 C   0  0  0  0  0  0  0  0  0  0  0  0
    6.1257  -22.3766   20.2389 O   0  0  0  0  0  0  0  0  0  0  0  0
    5.7075  -20.2883   21.3095 C   0  0  0  0  0  0  0  0  0  0  0  0
    5.7761  -19.7056   22.6758 C   0  0  2  0  0  0  0  0  0  0  0  0
    4.6191  -20.0408   23.4661 N   0  0  0  0  0  0  0  0  0  0  0  0
    6.0879  -18.2466   22.6744 C   0  0  0  0  0  0  0  0  0  0  0  0
    5.2856  -17.4432   22.0915 O   0  0  0  0  0  0  0  0  0  0  0  0
    7.2161  -17.6611   23.2728 N   0  0  0  0  0  0  0  0  0  0  0  0
    7.5322  -16.2008   23.0817 C   0  0  1  0  0  0  0  0  0  0  0  0
    8.1096  -15.8268   24.4144 C   0  0  0  0  0  0  0  0  0  0  0  0
    7.3054  -15.0977   25.3564 C   0  0  0  0  0  0  0  0  0  0  0  0
    6.1645  -15.5749   25.9987 C   0  0  0  0  0  0  0  0  0  0  0  0
    5.6636  -14.5971   26.8064 N   0  0  0  0  0  0  0  0  0  0  0  0
    6.4423  -13.5027   26.7088 C   0  0  0  0  0  0  0  0  0  0  0  0
    6.3638  -12.2655   27.3135 C   0  0  0  0  0  0  0  0  0  0  0  0
    7.3101  -11.3048   27.0289 C   0  0  0  0  0  0  0  0  0  0  0  0
    8.3342  -11.5689   26.1456 C   0  0  0  0  0  0  0  0  0  0  0  0
    8.3770  -12.8127   25.5646 C   0  0  0  0  0  0  0  0  0  0  0  0
    7.4638  -13.8080   25.8093 C   0  0  0  0  0  0  0  0  0  0  0  0
    8.4085  -16.0486   21.9345 C   0  0  0  0  0  0  0  0  0  0  0  0
    9.0031  -17.0812   21.4900 O   0  0  0  0  0  0  0  0  0  0  0  0
    8.6337  -14.8302   21.2848 N   0  0  0  0  0  0  0  0  0  0  0  0
    8.2737  -13.4726   21.6536 C   0  0  0  0  0  0  0  0  0  0  0  0
    7.8705  -12.7911   20.3572 C   0  0  0  0  0  0  0  0  0  0  0  0
    8.5418  -13.5927   19.2842 C   0  0  0  0  0  0  0  0  0  0  0  0
    9.3274  -14.6815   19.9872 C   0  0  1  0  0  0  0  0  0  0  0  0
   10.7200  -14.2494   20.1429 C   0  0  0  0  0  0  0  0  0  0  0  0
   11.2049  -14.0406   21.4253 O   0  0  0  0  0  0  0  0  0  0  0  0
   11.5159  -14.0522   19.1908 O   0  0  0  0  0  0  0  0  0  0  0  0
  2  3  2  0
  2  1  1  0
  4  2  1  0
  5  4  1  0
  5  6  1  6
  7  5  1  0
  7  8  2  0
  9  7  1  0
 10  9  1  0
 10 11  1  1
 11 12  1  0
 12 13  2  0
 12 20  1  0
 13 14  1  0
 14 15  1  0
 15 16  2  0
 16 17  1  0
 18 17  2  0
 19 18  1  0
 20 19  2  0
 20 15  1  0
 21 10  1  0
 22 21  2  0
 23 24  1  0
 23 21  1  0
 25 24  1  0
 26 27  1  0
 26 25  1  0
 27 23  1  0
 28 29  1  0
 27 28  1  1
 30 28  2  0
M  END
$$$$
