NWP.pdb
     RDKit          3D

 30 32  0  0  1  0  0  0  0  0999 V2000
   14.4719  -17.8632   19.3259 N   0  0  0  0  0  0  0  0  0  0  0  0
   13.3306  -18.1356   20.1196 C   0  0  0  0  0  0  0  0  0  0  0  0
   12.7453  -19.2309   19.8901 O   0  0  0  0  0  0  0  0  0  0  0  0
   12.8306  -17.2154   21.1599 C   0  0  0  0  0  0  0  0  0  0  0  0
   11.3911  -16.9020   20.9586 C   0  0  2  0  0  0  0  0  0  0  0  0
   11.1414  -16.3084   19.6698 N   0  0  0  0  0  0  0  0  0  0  0  0
   10.7966  -16.1312   22.0890 C   0  0  0  0  0  0  0  0  0  0  0  0
   11.2554  -14.9704   22.3551 O   0  0  0  0  0  0  0  0  0  0  0  0
    9.7486  -16.5801   22.9101 N   0  0  0  0  0  0  0  0  0  0  0  0
    9.3378  -15.8148   24.1406 C   0  0  1  0  0  0  0  0  0  0  0  0
    7.8871  -16.1744   24.2651 C   0  0  0  0  0  0  0  0  0  0  0  0
    7.0061  -15.3194   25.0128 C   0  0  0  0  0  0  0  0  0  0  0  0
    5.8810  -15.7285   25.7259 C   0  0  0  0  0  0  0  0  0  0  0  0
    5.2898  -14.6383   26.2929 N   0  0  0  0  0  0  0  0  0  0  0  0
    5.9948  -13.5370   25.9710 C   0  0  0  0  0  0  0  0  0  0  0  0
    5.8134  -12.2074   26.2898 C   0  0  0  0  0  0  0  0  0  0  0  0
    6.7005  -11.2645   25.8172 C   0  0  0  0  0  0  0  0  0  0  0  0
    7.7671  -11.6379   25.0288 C   0  0  0  0  0  0  0  0  0  0  0  0
    7.9126  -12.9714   24.7340 C   0  0  0  0  0  0  0  0  0  0  0  0
    7.0621  -13.9542   25.1757 C   0  0  0  0  0  0  0  0  0  0  0  0
   10.1936  -16.1980   25.2487 C   0  0  0  0  0  0  0  0  0  0  0  0
   11.0941  -17.0715   25.0397 O   0  0  0  0  0  0  0  0  0  0  0  0
   10.0887  -15.6576   26.5349 N   0  0  0  0  0  0  0  0  0  0  0  0
    9.1866  -14.6575   27.0777 C   0  0  0  0  0  0  0  0  0  0  0  0
   10.0287  -13.8193   28.0242 C   0  0  0  0  0  0  0  0  0  0  0  0
   11.1801  -14.7051   28.3906 C   0  0  0  0  0  0  0  0  0  0  0  0
   10.9544  -16.0229   27.6768 C   0  0  1  0  0  0  0  0  0  0  0  0
   10.3042  -16.9645   28.5939 C   0  0  0  0  0  0  0  0  0  0  0  0
   11.0446  -17.4702   29.6519 O   0  0  0  0  0  0  0  0  0  0  0  0
    9.1132  -17.3515   28.4921 O   0  0  0  0  0  0  0  0  0  0  0  0
  2  3  2  0
  2  1  1  0
  4  2  1  0
  5  4  1  0
  5  6  1  6
  7  5  1  0
  7  8  2  0
  9  7  1  0
 10  9  1  0
 10 11  1  1
 11 12  1  0
 12 13  2  0
 12 20  1  0
 13 14  1  0
 14 15  1  0
 15 16  2  0
 16 17  1  0
 18 17  2  0
 19 18  1  0
 20 19  2  0
 20 15  1  0
 21 10  1  0
 22 21  2  0
 23 24  1  0
 23 21  1  0
 25 24  1  0
 26 27  1  0
 26 25  1  0
 27 23  1  0
 28 29  1  0
 27 28  1  1
 30 28  2  0
M  END
$$$$
