FSN.pdb
     RDKit          3D

 26 26  0  0  1  0  0  0  0  0999 V2000
   26.8390  -23.1375  -15.1641 N   0  0  0  0  0  0  0  0  0  0  0  0
   25.5237  -23.3521  -15.6848 C   0  0  1  0  0  0  0  0  0  0  0  0
   25.2161  -24.8303  -15.6483 C   0  0  0  0  0  0  0  0  0  0  0  0
   26.1718  -25.5376  -16.5355 C   0  0  0  0  0  0  0  0  0  0  0  0
   27.2412  -26.2769  -16.0420 C   0  0  0  0  0  0  0  0  0  0  0  0
   28.1151  -26.9245  -16.8827 C   0  0  0  0  0  0  0  0  0  0  0  0
   27.9591  -26.8625  -18.2622 C   0  0  0  0  0  0  0  0  0  0  0  0
   26.9134  -26.1399  -18.7559 C   0  0  0  0  0  0  0  0  0  0  0  0
   26.0353  -25.4891  -17.9113 C   0  0  0  0  0  0  0  0  0  0  0  0
   24.4775  -22.5582  -14.9748 C   0  0  0  0  0  0  0  0  0  0  0  0
   24.4712  -22.5371  -13.7379 O   0  0  0  0  0  0  0  0  0  0  0  0
   21.4550  -18.8614  -14.8515 O   0  0  0  0  0  0  0  0  0  0  0  0
   22.3221  -19.6479  -15.5891 C   0  0  0  0  0  0  0  0  0  0  0  0
   22.4303  -21.0633  -15.0702 C   0  0  2  0  0  0  0  0  0  0  0  0
   23.4791  -21.8187  -15.6694 N   0  0  0  0  0  0  0  0  0  0  0  0
   21.0902  -21.6923  -15.1975 C   0  0  0  0  0  0  0  0  0  0  0  0
   20.6819  -22.0081  -16.3410 O   0  0  0  0  0  0  0  0  0  0  0  0
   19.8684  -25.3615  -13.8879 N   0  0  0  0  0  0  0  0  0  0  0  0
   19.6591  -24.4172  -12.8183 C   0  0  0  0  0  0  0  0  0  0  0  0
   20.3814  -24.4869  -11.8119 O   0  0  0  0  0  0  0  0  0  0  0  0
   18.5717  -23.4418  -13.0518 C   0  0  0  0  0  0  0  0  0  0  0  0
   18.9170  -22.5542  -14.2262 C   0  0  2  0  0  0  0  0  0  0  0  0
   20.2322  -21.9629  -14.1029 N   0  0  0  0  0  0  0  0  0  0  0  0
   17.8634  -21.5508  -14.4291 C   0  0  0  0  0  0  0  0  0  0  0  0
   18.1310  -20.1985  -14.4222 O   0  0  0  0  0  0  0  0  0  0  0  0
   16.6867  -21.9258  -14.6142 O   0  0  0  0  0  0  0  0  0  0  0  0
  2  1  1  1
  3  2  1  0
  4  5  2  0
  4  3  1  0
  6  5  1  0
  7  6  2  0
  8  7  1  0
  8  9  2  0
  9  4  1  0
 10  2  1  0
 11 10  2  0
 13 12  1  0
 14 15  1  0
 14 13  1  6
 15 10  1  0
 16 14  1  0
 17 16  2  0
 19 21  1  0
 19 18  1  0
 20 19  2  0
 22 21  1  1
 22 24  1  0
 22 23  1  0
 23 16  1  0
 24 25  1  0
 26 24  2  0
M  END
$$$$
