FSN.pdb
     RDKit          3D

 26 26  0  0  1  0  0  0  0  0999 V2000
   23.6990  -13.3066  -15.8544 N   0  0  0  0  0  0  0  0  0  0  0  0
   22.9135  -12.4518  -16.6909 C   0  0  1  0  0  0  0  0  0  0  0  0
   21.7340  -13.2322  -17.2209 C   0  0  0  0  0  0  0  0  0  0  0  0
   22.2336  -14.2878  -18.1357 C   0  0  0  0  0  0  0  0  0  0  0  0
   22.7893  -13.9979  -19.3769 C   0  0  0  0  0  0  0  0  0  0  0  0
   23.2461  -14.9924  -20.2090 C   0  0  0  0  0  0  0  0  0  0  0  0
   23.1679  -16.3288  -19.8364 C   0  0  0  0  0  0  0  0  0  0  0  0
   22.6246  -16.6233  -18.6208 C   0  0  0  0  0  0  0  0  0  0  0  0
   22.1656  -15.6243  -17.7847 C   0  0  0  0  0  0  0  0  0  0  0  0
   22.4769  -11.2011  -16.0023 C   0  0  0  0  0  0  0  0  0  0  0  0
   21.8434  -11.2846  -14.9430 O   0  0  0  0  0  0  0  0  0  0  0  0
   22.7581   -6.2981  -15.7873 O   0  0  0  0  0  0  0  0  0  0  0  0
   23.1484   -7.4788  -16.3940 C   0  0  0  0  0  0  0  0  0  0  0  0
   22.3208   -8.6695  -15.9676 C   0  0  2  0  0  0  0  0  0  0  0  0
   22.7625   -9.9063  -16.5199 N   0  0  0  0  0  0  0  0  0  0  0  0
   20.8983   -8.3561  -16.2606 C   0  0  0  0  0  0  0  0  0  0  0  0
   20.4596   -8.5811  -17.4143 O   0  0  0  0  0  0  0  0  0  0  0  0
   15.3399   -7.7633  -14.2036 N   0  0  0  0  0  0  0  0  0  0  0  0
   16.2516   -8.0111  -15.2930 C   0  0  0  0  0  0  0  0  0  0  0  0
   15.8284   -7.9231  -16.4560 O   0  0  0  0  0  0  0  0  0  0  0  0
   17.6319   -8.3530  -14.8852 C   0  0  0  0  0  0  0  0  0  0  0  0
   18.6193   -7.4662  -15.6094 C   0  0  2  0  0  0  0  0  0  0  0  0
   19.9929   -7.8144  -15.3148 N   0  0  0  0  0  0  0  0  0  0  0  0
   18.3242   -6.0530  -15.3377 C   0  0  0  0  0  0  0  0  0  0  0  0
   17.2699   -5.3981  -15.9379 O   0  0  0  0  0  0  0  0  0  0  0  0
   19.0454   -5.4182  -14.5400 O   0  0  0  0  0  0  0  0  0  0  0  0
  2  1  1  1
  3  2  1  0
  4  5  2  0
  4  3  1  0
  6  5  1  0
  7  6  2  0
  8  7  1  0
  8  9  2  0
  9  4  1  0
 10  2  1  0
 11 10  2  0
 13 12  1  0
 14 15  1  0
 14 13  1  6
 15 10  1  0
 16 14  1  0
 17 16  2  0
 19 21  1  0
 19 18  1  0
 20 19  2  0
 22 21  1  1
 22 24  1  0
 22 23  1  0
 23 16  1  0
 24 25  1  0
 26 24  2  0
M  END
$$$$
