FSN.pdb
     RDKit          3D

 26 26  0  0  1  0  0  0  0  0999 V2000
   18.1341  -13.5049    8.2655 N   0  0  0  0  0  0  0  0  0  0  0  0
   18.5175  -14.7867    7.7582 C   0  0  1  0  0  0  0  0  0  0  0  0
   19.6614  -14.6090    6.7881 C   0  0  0  0  0  0  0  0  0  0  0  0
   19.1806  -13.8263    5.6232 C   0  0  0  0  0  0  0  0  0  0  0  0
   19.5673  -12.5099    5.3976 C   0  0  0  0  0  0  0  0  0  0  0  0
   19.1092  -11.8031    4.3111 C   0  0  0  0  0  0  0  0  0  0  0  0
   18.2391  -12.3829    3.3957 C   0  0  0  0  0  0  0  0  0  0  0  0
   17.8540  -13.6737    3.6083 C   0  0  0  0  0  0  0  0  0  0  0  0
   18.3142  -14.3839    4.6999 C   0  0  0  0  0  0  0  0  0  0  0  0
   18.8602  -15.7625    8.8349 C   0  0  0  0  0  0  0  0  0  0  0  0
   19.2828  -15.3419    9.9189 O   0  0  0  0  0  0  0  0  0  0  0  0
   18.8668  -20.4786   10.2635 O   0  0  0  0  0  0  0  0  0  0  0  0
   18.5899  -19.5481    9.2777 C   0  0  0  0  0  0  0  0  0  0  0  0
   19.1201  -18.1686    9.5949 C   0  0  2  0  0  0  0  0  0  0  0  0
   18.7191  -17.1684    8.6630 N   0  0  0  0  0  0  0  0  0  0  0  0
   20.5927  -18.2799    9.7584 C   0  0  0  0  0  0  0  0  0  0  0  0
   21.3111  -18.2961    8.7299 O   0  0  0  0  0  0  0  0  0  0  0  0
   25.4984  -16.3118   12.3763 N   0  0  0  0  0  0  0  0  0  0  0  0
   24.7911  -17.3566   11.6781 C   0  0  0  0  0  0  0  0  0  0  0  0
   25.4456  -18.2641   11.1421 O   0  0  0  0  0  0  0  0  0  0  0  0
   23.3179  -17.2218   11.6814 C   0  0  0  0  0  0  0  0  0  0  0  0
   22.6813  -18.4954   11.1728 C   0  0  2  0  0  0  0  0  0  0  0  0
   21.2485  -18.3696   11.0111 N   0  0  0  0  0  0  0  0  0  0  0  0
   23.0555  -19.6264   12.0324 C   0  0  0  0  0  0  0  0  0  0  0  0
   24.0635  -20.5024   11.6899 O   0  0  0  0  0  0  0  0  0  0  0  0
   22.4470  -19.8071   13.1078 O   0  0  0  0  0  0  0  0  0  0  0  0
  2  1  1  1
  3  2  1  0
  4  5  2  0
  4  3  1  0
  6  5  1  0
  7  6  2  0
  8  7  1  0
  8  9  2  0
  9  4  1  0
 10  2  1  0
 11 10  2  0
 13 12  1  0
 14 15  1  0
 14 13  1  6
 15 10  1  0
 16 14  1  0
 17 16  2  0
 19 21  1  0
 19 18  1  0
 20 19  2  0
 22 21  1  1
 22 24  1  0
 22 23  1  0
 23 16  1  0
 24 25  1  0
 26 24  2  0
M  END
$$$$
