FSN.pdb
     RDKit          3D

 26 26  0  0  1  0  0  0  0  0999 V2000
   24.8683  -20.4883   -7.9745 N   0  0  0  0  0  0  0  0  0  0  0  0
   26.0987  -20.1455   -8.6193 C   0  0  1  0  0  0  0  0  0  0  0  0
   27.2036  -21.0108   -8.0610 C   0  0  0  0  0  0  0  0  0  0  0  0
   27.6529  -20.4350   -6.7698 C   0  0  0  0  0  0  0  0  0  0  0  0
   28.2345  -19.1754   -6.6764 C   0  0  0  0  0  0  0  0  0  0  0  0
   28.6439  -18.6614   -5.4688 C   0  0  0  0  0  0  0  0  0  0  0  0
   28.4899  -19.3866   -4.2935 C   0  0  0  0  0  0  0  0  0  0  0  0
   27.9205  -20.6231   -4.3748 C   0  0  0  0  0  0  0  0  0  0  0  0
   27.5092  -21.1397   -5.5879 C   0  0  0  0  0  0  0  0  0  0  0  0
   26.0258  -20.2441  -10.1073 C   0  0  0  0  0  0  0  0  0  0  0  0
   24.9609  -20.5814  -10.6387 O   0  0  0  0  0  0  0  0  0  0  0  0
   29.3927  -20.6240  -12.4280 O   0  0  0  0  0  0  0  0  0  0  0  0
   28.4766  -19.7614  -13.0033 C   0  0  0  0  0  0  0  0  0  0  0  0
   27.1088  -19.8321  -12.3638 C   0  0  2  0  0  0  0  0  0  0  0  0
   27.1414  -19.9633  -10.9456 N   0  0  0  0  0  0  0  0  0  0  0  0
   26.3480  -20.9093  -13.0483 C   0  0  0  0  0  0  0  0  0  0  0  0
   26.4340  -22.0797  -12.6045 O   0  0  0  0  0  0  0  0  0  0  0  0
   21.1473  -22.2655  -13.8577 N   0  0  0  0  0  0  0  0  0  0  0  0
   22.4694  -22.8339  -13.7661 C   0  0  0  0  0  0  0  0  0  0  0  0
   22.6200  -24.0375  -14.0268 O   0  0  0  0  0  0  0  0  0  0  0  0
   23.5288  -21.8854  -13.3584 C   0  0  0  0  0  0  0  0  0  0  0  0
   24.4082  -21.5527  -14.5425 C   0  0  2  0  0  0  0  0  0  0  0  0
   25.5221  -20.7023  -14.1808 N   0  0  0  0  0  0  0  0  0  0  0  0
   23.5987  -20.9903  -15.6318 C   0  0  0  0  0  0  0  0  0  0  0  0
   23.1559  -21.7606  -16.6859 O   0  0  0  0  0  0  0  0  0  0  0  0
   23.2980  -19.7785  -15.6099 O   0  0  0  0  0  0  0  0  0  0  0  0
  2  1  1  1
  3  2  1  0
  4  5  2  0
  4  3  1  0
  6  5  1  0
  7  6  2  0
  8  7  1  0
  8  9  2  0
  9  4  1  0
 10  2  1  0
 11 10  2  0
 13 12  1  0
 14 15  1  0
 14 13  1  6
 15 10  1  0
 16 14  1  0
 17 16  2  0
 19 21  1  0
 19 18  1  0
 20 19  2  0
 22 21  1  1
 22 24  1  0
 22 23  1  0
 23 16  1  0
 24 25  1  0
 26 24  2  0
M  END
$$$$
