FSN.pdb
     RDKit          3D

 26 26  0  0  1  0  0  0  0  0999 V2000
   25.7402  -20.3555   -8.5416 N   0  0  0  0  0  0  0  0  0  0  0  0
   25.0006  -20.7691   -9.6944 C   0  0  1  0  0  0  0  0  0  0  0  0
   23.5493  -20.3957   -9.5069 C   0  0  0  0  0  0  0  0  0  0  0  0
   23.0116  -21.1437   -8.3441 C   0  0  0  0  0  0  0  0  0  0  0  0
   22.5756  -22.4605   -8.4407 C   0  0  0  0  0  0  0  0  0  0  0  0
   22.0805  -23.1348   -7.3496 C   0  0  0  0  0  0  0  0  0  0  0  0
   21.9983  -22.5203   -6.1059 C   0  0  0  0  0  0  0  0  0  0  0  0
   22.4234  -21.2289   -6.0011 C   0  0  0  0  0  0  0  0  0  0  0  0
   22.9208  -20.5513   -7.0971 C   0  0  0  0  0  0  0  0  0  0  0  0
   25.5474  -20.2157  -10.9688 C   0  0  0  0  0  0  0  0  0  0  0  0
   25.5770  -18.9897  -11.1312 O   0  0  0  0  0  0  0  0  0  0  0  0
   27.3257  -22.6879  -14.0012 O   0  0  0  0  0  0  0  0  0  0  0  0
   27.1669  -21.3255  -14.1830 C   0  0  0  0  0  0  0  0  0  0  0  0
   26.0043  -20.7523  -13.4056 C   0  0  2  0  0  0  0  0  0  0  0  0
   26.0398  -21.0489  -12.0126 N   0  0  0  0  0  0  0  0  0  0  0  0
   24.7542  -21.1886  -14.0798 C   0  0  0  0  0  0  0  0  0  0  0  0
   23.9784  -21.9593  -13.4648 O   0  0  0  0  0  0  0  0  0  0  0  0
   21.0109  -17.4930  -15.6509 N   0  0  0  0  0  0  0  0  0  0  0  0
   21.1781  -18.8451  -15.1782 C   0  0  0  0  0  0  0  0  0  0  0  0
   20.1793  -19.5770  -15.1005 O   0  0  0  0  0  0  0  0  0  0  0  0
   22.5668  -19.2160  -14.8288 C   0  0  0  0  0  0  0  0  0  0  0  0
   23.0514  -20.3209  -15.7401 C   0  0  2  0  0  0  0  0  0  0  0  0
   24.3742  -20.7888  -15.3848 N   0  0  0  0  0  0  0  0  0  0  0  0
   22.9607  -19.8957  -17.1434 C   0  0  0  0  0  0  0  0  0  0  0  0
   23.8287  -18.9713  -17.6844 O   0  0  0  0  0  0  0  0  0  0  0  0
   22.0732  -20.3815  -17.8753 O   0  0  0  0  0  0  0  0  0  0  0  0
  2  1  1  1
  3  2  1  0
  4  5  2  0
  4  3  1  0
  6  5  1  0
  7  6  2  0
  8  7  1  0
  8  9  2  0
  9  4  1  0
 10  2  1  0
 11 10  2  0
 13 12  1  0
 14 15  1  0
 14 13  1  6
 15 10  1  0
 16 14  1  0
 17 16  2  0
 19 21  1  0
 19 18  1  0
 20 19  2  0
 22 21  1  1
 22 24  1  0
 22 23  1  0
 23 16  1  0
 24 25  1  0
 26 24  2  0
M  END
$$$$
