FSN.pdb
     RDKit          3D

 26 26  0  0  1  0  0  0  0  0999 V2000
   13.9561   -9.5282  -10.5304 N   0  0  0  0  0  0  0  0  0  0  0  0
   14.7767   -8.3569  -10.5749 C   0  0  1  0  0  0  0  0  0  0  0  0
   15.4405   -8.1708   -9.2311 C   0  0  0  0  0  0  0  0  0  0  0  0
   14.4634   -7.5581   -8.2981 C   0  0  0  0  0  0  0  0  0  0  0  0
   14.3070   -6.1815   -8.1793 C   0  0  0  0  0  0  0  0  0  0  0  0
   13.3950   -5.6350   -7.3077 C   0  0  0  0  0  0  0  0  0  0  0  0
   12.5936   -6.4438   -6.5110 C   0  0  0  0  0  0  0  0  0  0  0  0
   12.7395   -7.7952   -6.6203 C   0  0  0  0  0  0  0  0  0  0  0  0
   13.6557   -8.3444   -7.4959 C   0  0  0  0  0  0  0  0  0  0  0  0
   15.7796   -8.3878  -11.6805 C   0  0  0  0  0  0  0  0  0  0  0  0
   16.5587   -9.3452  -11.7626 O   0  0  0  0  0  0  0  0  0  0  0  0
   15.4522   -5.6210  -14.9028 O   0  0  0  0  0  0  0  0  0  0  0  0
   16.0510   -6.8588  -15.0567 C   0  0  0  0  0  0  0  0  0  0  0  0
   16.7227   -7.3563  -13.7974 C   0  0  2  0  0  0  0  0  0  0  0  0
   15.8759   -7.3517  -12.6517 N   0  0  0  0  0  0  0  0  0  0  0  0
   17.9763   -6.5787  -13.6196 C   0  0  0  0  0  0  0  0  0  0  0  0
   17.9424   -5.5375  -12.9204 O   0  0  0  0  0  0  0  0  0  0  0  0
   20.5364   -6.3155  -11.4291 N   0  0  0  0  0  0  0  0  0  0  0  0
   21.5856   -7.0777  -12.0596 C   0  0  0  0  0  0  0  0  0  0  0  0
   22.3827   -7.7015  -11.3420 O   0  0  0  0  0  0  0  0  0  0  0  0
   21.5909   -7.0266  -13.5380 C   0  0  0  0  0  0  0  0  0  0  0  0
   20.4418   -6.1759  -14.0298 C   0  0  2  0  0  0  0  0  0  0  0  0
   19.2217   -6.9374  -14.1922 N   0  0  0  0  0  0  0  0  0  0  0  0
   20.8287   -5.4614  -15.2537 C   0  0  0  0  0  0  0  0  0  0  0  0
   21.7769   -4.4607  -15.2469 O   0  0  0  0  0  0  0  0  0  0  0  0
   20.2871   -5.7636  -16.3375 O   0  0  0  0  0  0  0  0  0  0  0  0
  2  1  1  1
  3  2  1  0
  4  5  2  0
  4  3  1  0
  6  5  1  0
  7  6  2  0
  8  7  1  0
  8  9  2  0
  9  4  1  0
 10  2  1  0
 11 10  2  0
 13 12  1  0
 14 15  1  0
 14 13  1  6
 15 10  1  0
 16 14  1  0
 17 16  2  0
 19 21  1  0
 19 18  1  0
 20 19  2  0
 22 21  1  6
 22 24  1  0
 22 23  1  0
 23 16  1  0
 24 25  1  0
 26 24  2  0
M  END
$$$$
