FSN.pdb
     RDKit          3D

 26 26  0  0  1  0  0  0  0  0999 V2000
   27.5077  -18.8483   -8.6396 N   0  0  0  0  0  0  0  0  0  0  0  0
   26.8235  -20.1049   -8.6336 C   0  0  1  0  0  0  0  0  0  0  0  0
   26.2219  -20.3303   -7.2668 C   0  0  0  0  0  0  0  0  0  0  0  0
   27.2825  -20.1532   -6.2447 C   0  0  0  0  0  0  0  0  0  0  0  0
   28.2535  -21.1184   -6.0018 C   0  0  0  0  0  0  0  0  0  0  0  0
   29.2274  -20.9333   -5.0493 C   0  0  0  0  0  0  0  0  0  0  0  0
   29.2754  -19.7690   -4.2923 C   0  0  0  0  0  0  0  0  0  0  0  0
   28.3274  -18.8163   -4.5231 C   0  0  0  0  0  0  0  0  0  0  0  0
   27.3489  -19.0021   -5.4801 C   0  0  0  0  0  0  0  0  0  0  0  0
   25.7937  -20.2145   -9.7091 C   0  0  0  0  0  0  0  0  0  0  0  0
   24.8332  -19.4349   -9.7072 O   0  0  0  0  0  0  0  0  0  0  0  0
   27.1163  -22.0084  -13.2699 O   0  0  0  0  0  0  0  0  0  0  0  0
   25.7596  -22.1164  -13.0212 C   0  0  0  0  0  0  0  0  0  0  0  0
   25.2538  -21.0988  -12.0245 C   0  0  2  0  0  0  0  0  0  0  0  0
   25.8733  -21.1878  -10.7447 N   0  0  0  0  0  0  0  0  0  0  0  0
   23.7727  -21.2086  -11.9826 C   0  0  0  0  0  0  0  0  0  0  0  0
   23.2494  -21.9322  -11.1013 O   0  0  0  0  0  0  0  0  0  0  0  0
   18.8669  -20.5332  -12.4963 N   0  0  0  0  0  0  0  0  0  0  0  0
   19.3430  -19.4608  -13.3346 C   0  0  0  0  0  0  0  0  0  0  0  0
   18.5183  -18.6652  -13.8103 O   0  0  0  0  0  0  0  0  0  0  0  0
   20.8080  -19.4317  -13.5375 C   0  0  0  0  0  0  0  0  0  0  0  0
   21.4571  -20.5690  -12.7817 C   0  0  2  0  0  0  0  0  0  0  0  0
   22.9009  -20.5439  -12.8802 N   0  0  0  0  0  0  0  0  0  0  0  0
   20.8841  -21.8525  -13.2087 C   0  0  0  0  0  0  0  0  0  0  0  0
   19.7955  -22.4136  -12.5756 O   0  0  0  0  0  0  0  0  0  0  0  0
   21.3926  -22.4604  -14.1738 O   0  0  0  0  0  0  0  0  0  0  0  0
  2  1  1  1
  3  2  1  0
  4  5  2  0
  4  3  1  0
  6  5  1  0
  7  6  2  0
  8  7  1  0
  8  9  2  0
  9  4  1  0
 10  2  1  0
 11 10  2  0
 13 12  1  0
 14 15  1  0
 14 13  1  6
 15 10  1  0
 16 14  1  0
 17 16  2  0
 19 21  1  0
 19 18  1  0
 20 19  2  0
 22 21  1  6
 22 24  1  0
 22 23  1  0
 23 16  1  0
 24 25  1  0
 26 24  2  0
M  END
$$$$
