FSN.pdb
     RDKit          3D

 26 26  0  0  1  0  0  0  0  0999 V2000
   27.5463  -21.4094   -8.0902 N   0  0  0  0  0  0  0  0  0  0  0  0
   26.5741  -20.3690   -8.2299 C   0  0  1  0  0  0  0  0  0  0  0  0
   27.1499  -19.0825   -7.6874 C   0  0  0  0  0  0  0  0  0  0  0  0
   27.7945  -19.3629   -6.3810 C   0  0  0  0  0  0  0  0  0  0  0  0
   27.1493  -20.0587   -5.3645 C   0  0  0  0  0  0  0  0  0  0  0  0
   27.7659  -20.3074   -4.1612 C   0  0  0  0  0  0  0  0  0  0  0  0
   29.0622  -19.8697   -3.9177 C   0  0  0  0  0  0  0  0  0  0  0  0
   29.7033  -19.1865   -4.9085 C   0  0  0  0  0  0  0  0  0  0  0  0
   29.0840  -18.9365   -6.1175 C   0  0  0  0  0  0  0  0  0  0  0  0
   26.0930  -20.2036   -9.6336 C   0  0  0  0  0  0  0  0  0  0  0  0
   25.4139  -19.2119   -9.9263 O   0  0  0  0  0  0  0  0  0  0  0  0
   27.1599  -21.4822  -14.2415 O   0  0  0  0  0  0  0  0  0  0  0  0
   27.2410  -21.7472  -12.8859 C   0  0  0  0  0  0  0  0  0  0  0  0
   26.2821  -20.9216  -12.0592 C   0  0  2  0  0  0  0  0  0  0  0  0
   26.3867  -21.1487  -10.6566 N   0  0  0  0  0  0  0  0  0  0  0  0
   24.9165  -21.1414  -12.6019 C   0  0  0  0  0  0  0  0  0  0  0  0
   24.2577  -22.1257  -12.1881 O   0  0  0  0  0  0  0  0  0  0  0  0
   20.3451  -18.5416  -15.8391 N   0  0  0  0  0  0  0  0  0  0  0  0
   20.9020  -19.5028  -14.9196 C   0  0  0  0  0  0  0  0  0  0  0  0
   20.1968  -20.4559  -14.5541 O   0  0  0  0  0  0  0  0  0  0  0  0
   22.2959  -19.2330  -14.5043 C   0  0  0  0  0  0  0  0  0  0  0  0
   22.9750  -20.5234  -14.1045 C   0  0  2  0  0  0  0  0  0  0  0  0
   24.3006  -20.3054  -13.5659 N   0  0  0  0  0  0  0  0  0  0  0  0
   22.9709  -21.4673  -15.2302 C   0  0  0  0  0  0  0  0  0  0  0  0
   21.9860  -22.4200  -15.3816 O   0  0  0  0  0  0  0  0  0  0  0  0
   23.8839  -21.4117  -16.0804 O   0  0  0  0  0  0  0  0  0  0  0  0
  2  1  1  6
  3  2  1  0
  4  5  2  0
  4  3  1  0
  6  5  1  0
  7  6  2  0
  8  7  1  0
  8  9  2  0
  9  4  1  0
 10  2  1  0
 11 10  2  0
 13 12  1  0
 14 15  1  0
 14 13  1  6
 15 10  1  0
 16 14  1  0
 17 16  2  0
 19 21  1  0
 19 18  1  0
 20 19  2  0
 22 21  1  6
 22 24  1  0
 22 23  1  0
 23 16  1  0
 24 25  1  0
 26 24  2  0
M  END
$$$$
