FSN.pdb
     RDKit          3D

 26 26  0  0  1  0  0  0  0  0999 V2000
   20.6919  -10.1838  -17.7393 N   0  0  0  0  0  0  0  0  0  0  0  0
   21.6069   -9.1425  -17.3848 C   0  0  1  0  0  0  0  0  0  0  0  0
   22.2368   -8.5928  -18.6427 C   0  0  0  0  0  0  0  0  0  0  0  0
   22.8652   -9.7108  -19.3883 C   0  0  0  0  0  0  0  0  0  0  0  0
   22.3832  -10.1539  -20.6149 C   0  0  0  0  0  0  0  0  0  0  0  0
   22.9814  -11.1922  -21.2888 C   0  0  0  0  0  0  0  0  0  0  0  0
   24.0944  -11.8383  -20.7645 C   0  0  0  0  0  0  0  0  0  0  0  0
   24.5746  -11.4110  -19.5619 C   0  0  0  0  0  0  0  0  0  0  0  0
   23.9738  -10.3678  -18.8847 C   0  0  0  0  0  0  0  0  0  0  0  0
   20.9750   -8.0611  -16.5721 C   0  0  0  0  0  0  0  0  0  0  0  0
   20.1925   -7.2740  -17.1184 O   0  0  0  0  0  0  0  0  0  0  0  0
   21.9369   -7.7914  -12.4758 O   0  0  0  0  0  0  0  0  0  0  0  0
   20.7417   -7.2170  -12.8707 C   0  0  0  0  0  0  0  0  0  0  0  0
   20.7005   -6.8806  -14.3437 C   0  0  2  0  0  0  0  0  0  0  0  0
   21.2389   -7.8982  -15.1829 N   0  0  0  0  0  0  0  0  0  0  0  0
   21.3462   -5.5542  -14.5200 C   0  0  0  0  0  0  0  0  0  0  0  0
   22.4669   -5.5023  -15.0817 O   0  0  0  0  0  0  0  0  0  0  0  0
   23.3915   -1.3755  -16.4042 N   0  0  0  0  0  0  0  0  0  0  0  0
   21.9672   -1.4677  -16.1977 C   0  0  0  0  0  0  0  0  0  0  0  0
   21.2866   -0.4328  -16.2683 O   0  0  0  0  0  0  0  0  0  0  0  0
   21.4651   -2.8304  -15.9161 C   0  0  0  0  0  0  0  0  0  0  0  0
   21.3058   -3.0246  -14.4251 C   0  0  2  0  0  0  0  0  0  0  0  0
   20.7759   -4.3297  -14.0923 N   0  0  0  0  0  0  0  0  0  0  0  0
   20.5099   -1.9296  -13.8544 C   0  0  0  0  0  0  0  0  0  0  0  0
   21.0966   -0.8271  -13.2705 O   0  0  0  0  0  0  0  0  0  0  0  0
   19.2634   -1.9914  -13.8954 O   0  0  0  0  0  0  0  0  0  0  0  0
  2  1  1  6
  3  2  1  0
  4  5  2  0
  4  3  1  0
  6  5  1  0
  7  6  2  0
  8  7  1  0
  8  9  2  0
  9  4  1  0
 10  2  1  0
 11 10  2  0
 13 12  1  0
 14 15  1  0
 14 13  1  1
 15 10  1  0
 16 14  1  0
 17 16  2  0
 19 21  1  0
 19 18  1  0
 20 19  2  0
 22 21  1  6
 22 24  1  0
 22 23  1  0
 23 16  1  0
 24 25  1  0
 26 24  2  0
M  END
$$$$
