FSN.pdb
     RDKit          3D

 26 26  0  0  1  0  0  0  0  0999 V2000
   40.1493  -10.1269   -6.6525 N   0  0  0  0  0  0  0  0  0  0  0  0
   39.3936   -9.8675   -7.8395 C   0  0  1  0  0  0  0  0  0  0  0  0
   37.9223   -9.8861   -7.4991 C   0  0  0  0  0  0  0  0  0  0  0  0
   37.4220  -11.2769   -7.6249 C   0  0  0  0  0  0  0  0  0  0  0  0
   37.2540  -11.9012   -8.8560 C   0  0  0  0  0  0  0  0  0  0  0  0
   36.7886  -13.1914   -8.9492 C   0  0  0  0  0  0  0  0  0  0  0  0
   36.4682  -13.9203   -7.8103 C   0  0  0  0  0  0  0  0  0  0  0  0
   36.6296  -13.3168   -6.5982 C   0  0  0  0  0  0  0  0  0  0  0  0
   37.0972  -12.0205   -6.5043 C   0  0  0  0  0  0  0  0  0  0  0  0
   39.7830   -8.5932   -8.5131 C   0  0  0  0  0  0  0  0  0  0  0  0
   40.0842   -7.6124   -7.8220 O   0  0  0  0  0  0  0  0  0  0  0  0
   39.5347   -8.2023  -12.8035 O   0  0  0  0  0  0  0  0  0  0  0  0
   40.4907   -7.4975  -12.0937 C   0  0  0  0  0  0  0  0  0  0  0  0
   40.1096   -7.2654  -10.6496 C   0  0  2  0  0  0  0  0  0  0  0  0
   39.8219   -8.4607   -9.9298 N   0  0  0  0  0  0  0  0  0  0  0  0
   39.0039   -6.2732  -10.6306 C   0  0  0  0  0  0  0  0  0  0  0  0
   37.8257   -6.6898  -10.5190 O   0  0  0  0  0  0  0  0  0  0  0  0
   36.1243   -2.2321  -10.5354 N   0  0  0  0  0  0  0  0  0  0  0  0
   37.2773   -1.7923   -9.7893 C   0  0  0  0  0  0  0  0  0  0  0  0
   37.2143   -0.7167   -9.1742 O   0  0  0  0  0  0  0  0  0  0  0  0
   38.4408   -2.7042   -9.8451 C   0  0  0  0  0  0  0  0  0  0  0  0
   38.1167   -3.9032  -10.7073 C   0  0  2  0  0  0  0  0  0  0  0  0
   39.1915   -4.8724  -10.7309 N   0  0  0  0  0  0  0  0  0  0  0  0
   37.7201   -3.4667  -12.0527 C   0  0  0  0  0  0  0  0  0  0  0  0
   36.3991   -3.2825  -12.4015 O   0  0  0  0  0  0  0  0  0  0  0  0
   38.6002   -3.2538  -12.9127 O   0  0  0  0  0  0  0  0  0  0  0  0
  2  1  1  1
  3  2  1  0
  4  5  2  0
  4  3  1  0
  6  5  1  0
  7  6  2  0
  8  7  1  0
  8  9  2  0
  9  4  1  0
 10  2  1  0
 11 10  2  0
 13 12  1  0
 14 15  1  0
 14 13  1  6
 15 10  1  0
 16 14  1  0
 17 16  2  0
 19 21  1  0
 19 18  1  0
 20 19  2  0
 22 21  1  1
 22 24  1  0
 22 23  1  0
 23 16  1  0
 24 25  1  0
 26 24  2  0
M  END
$$$$
