KLH.pdb
     RDKit          3D

 28 28  0  0  1  0  0  0  0  0999 V2000
   27.1679  -21.8405  -15.9770 N   0  0  0  0  0  0  0  0  0  0  0  0
   26.8730  -20.8289  -15.0144 C   0  0  1  0  0  0  0  0  0  0  0  0
   26.6149  -19.4944  -15.6782 C   0  0  0  0  0  0  0  0  0  0  0  0
   27.1361  -19.4468  -17.0789 C   0  0  0  0  0  0  0  0  0  0  0  0
   26.9160  -18.1355  -17.7675 C   0  0  0  0  0  0  0  0  0  0  0  0
   27.4730  -18.1122  -19.1714 C   0  0  0  0  0  0  0  0  0  0  0  0
   26.4684  -18.6826  -20.0508 N   0  0  0  0  0  0  0  0  0  0  0  0
   25.7355  -21.2254  -14.1358 C   0  0  0  0  0  0  0  0  0  0  0  0
   25.0251  -22.1739  -14.5360 O   0  0  0  0  0  0  0  0  0  0  0  0
   26.0285  -19.8261   -8.7380 C   0  0  0  0  0  0  0  0  0  0  0  0
   25.9826  -20.5301  -10.1025 C   0  0  1  0  0  0  0  0  0  0  0  0
   26.3378  -21.9848   -9.7753 C   0  0  0  0  0  0  0  0  0  0  0  0
   24.5854  -20.4099  -10.5964 C   0  0  0  0  0  0  0  0  0  0  0  0
   24.3769  -20.8831  -12.0239 C   0  0  2  0  0  0  0  0  0  0  0  0
   25.4421  -20.5983  -12.9216 N   0  0  0  0  0  0  0  0  0  0  0  0
   23.0411  -20.4873  -12.4767 C   0  0  0  0  0  0  0  0  0  0  0  0
   22.0204  -20.7651  -11.7431 O   0  0  0  0  0  0  0  0  0  0  0  0
   22.7808  -19.8130  -13.6743 N   0  0  0  0  0  0  0  0  0  0  0  0
   21.3806  -19.4258  -14.0120 C   0  0  1  0  0  0  0  0  0  0  0  0
   21.4952  -18.6582  -15.2950 C   0  0  0  0  0  0  0  0  0  0  0  0
   20.1965  -18.2548  -15.8529 C   0  0  0  0  0  0  0  0  0  0  0  0
   18.9131  -18.3957  -15.4245 C   0  0  0  0  0  0  0  0  0  0  0  0
   18.0769  -17.7853  -16.2877 N   0  0  0  0  0  0  0  0  0  0  0  0
   18.8400  -17.2725  -17.2379 C   0  0  0  0  0  0  0  0  0  0  0  0
   20.1114  -17.5389  -17.0012 N   0  0  0  0  0  0  0  0  0  0  0  0
   20.6904  -20.7231  -14.3349 C   0  0  0  0  0  0  0  0  0  0  0  0
   19.4535  -20.8005  -14.0597 O   0  0  0  0  0  0  0  0  0  0  0  0
   21.2899  -21.8154  -14.8964 O   0  0  0  0  0  0  0  0  0  0  0  0
  2  1  1  6
  3  2  1  0
  3  4  1  0
  5  4  1  0
  5  6  1  0
  7  6  1  0
  8  9  2  0
  8  2  1  0
 11 10  1  1
 11 12  1  0
 11 13  1  0
 14 13  1  1
 14 15  1  0
 15  8  1  0
 16 18  1  0
 16 14  1  0
 17 16  2  0
 19 18  1  0
 19 26  1  0
 19 20  1  6
 20 21  1  0
 21 22  2  0
 22 23  1  0
 24 23  1  0
 25 21  1  0
 25 24  2  0
 26 28  1  0
 27 26  2  0
M  END
$$$$
