KLH.pdb
     RDKit          3D

 28 28  0  0  1  0  0  0  0  0999 V2000
   22.6658   -8.9422  -24.3558 N   0  0  0  0  0  0  0  0  0  0  0  0
   23.1299   -8.1337  -23.2751 C   0  0  1  0  0  0  0  0  0  0  0  0
   22.0029   -7.3318  -22.6627 C   0  0  0  0  0  0  0  0  0  0  0  0
   20.9804   -8.2013  -22.0036 C   0  0  0  0  0  0  0  0  0  0  0  0
   19.7934   -7.4554  -21.4773 C   0  0  0  0  0  0  0  0  0  0  0  0
   18.7791   -8.3612  -20.8197 C   0  0  0  0  0  0  0  0  0  0  0  0
   17.6848   -7.5281  -20.3540 N   0  0  0  0  0  0  0  0  0  0  0  0
   23.8351   -8.9498  -22.2456 C   0  0  0  0  0  0  0  0  0  0  0  0
   23.7580  -10.1922  -22.3688 O   0  0  0  0  0  0  0  0  0  0  0  0
   28.2985  -10.2715  -19.8375 C   0  0  0  0  0  0  0  0  0  0  0  0
   27.5020   -9.3001  -18.9535 C   0  0  1  0  0  0  0  0  0  0  0  0
   28.5838   -8.4514  -18.2763 C   0  0  0  0  0  0  0  0  0  0  0  0
   26.6635   -8.4819  -19.8690 C   0  0  0  0  0  0  0  0  0  0  0  0
   25.3040   -9.0797  -20.1844 C   0  0  2  0  0  0  0  0  0  0  0  0
   24.5556   -8.3978  -21.1826 N   0  0  0  0  0  0  0  0  0  0  0  0
   24.5924   -9.3552  -18.9338 C   0  0  0  0  0  0  0  0  0  0  0  0
   24.6907  -10.5217  -18.3981 O   0  0  0  0  0  0  0  0  0  0  0  0
   23.7945   -8.4261  -18.2581 N   0  0  0  0  0  0  0  0  0  0  0  0
   23.1936   -8.7904  -16.9425 C   0  0  1  0  0  0  0  0  0  0  0  0
   24.2807   -8.5348  -15.9419 C   0  0  0  0  0  0  0  0  0  0  0  0
   25.1336   -9.7059  -15.6931 C   0  0  0  0  0  0  0  0  0  0  0  0
   25.1826  -10.9548  -16.2299 C   0  0  0  0  0  0  0  0  0  0  0  0
   26.2075  -11.6421  -15.6875 N   0  0  0  0  0  0  0  0  0  0  0  0
   26.7843  -10.8220  -14.8256 C   0  0  0  0  0  0  0  0  0  0  0  0
   26.1615   -9.6578  -14.8102 N   0  0  0  0  0  0  0  0  0  0  0  0
   22.1266   -7.7561  -16.7077 C   0  0  0  0  0  0  0  0  0  0  0  0
   21.9226   -6.9184  -17.6396 O   0  0  0  0  0  0  0  0  0  0  0  0
   21.3678   -7.6505  -15.5759 O   0  0  0  0  0  0  0  0  0  0  0  0
  2  1  1  6
  3  2  1  0
  3  4  1  0
  5  4  1  0
  5  6  1  0
  7  6  1  0
  8  9  2  0
  8  2  1  0
 11 10  1  6
 11 12  1  0
 11 13  1  0
 14 13  1  1
 14 15  1  0
 15  8  1  0
 16 18  1  0
 16 14  1  0
 17 16  2  0
 19 18  1  0
 19 26  1  0
 19 20  1  1
 20 21  1  0
 21 22  2  0
 22 23  1  0
 24 23  1  0
 25 21  1  0
 25 24  2  0
 26 28  1  0
 27 26  2  0
M  END
$$$$
