KLH.pdb
     RDKit          3D

 28 28  0  0  1  0  0  0  0  0999 V2000
   26.8851  -20.7169  -15.3360 N   0  0  0  0  0  0  0  0  0  0  0  0
   25.9988  -21.7720  -15.7075 C   0  0  1  0  0  0  0  0  0  0  0  0
   26.7597  -23.0178  -16.1038 C   0  0  0  0  0  0  0  0  0  0  0  0
   28.0324  -22.7011  -16.8221 C   0  0  0  0  0  0  0  0  0  0  0  0
   27.9647  -22.9094  -18.3034 C   0  0  0  0  0  0  0  0  0  0  0  0
   29.2351  -22.4980  -19.0097 C   0  0  0  0  0  0  0  0  0  0  0  0
   29.0069  -22.6352  -20.4370 N   0  0  0  0  0  0  0  0  0  0  0  0
   25.0111  -22.0613  -14.6287 C   0  0  0  0  0  0  0  0  0  0  0  0
   24.4795  -23.1934  -14.6471 O   0  0  0  0  0  0  0  0  0  0  0  0
   25.5870  -20.1185   -9.5545 C   0  0  0  0  0  0  0  0  0  0  0  0
   25.4146  -20.8580  -10.8898 C   0  0  1  0  0  0  0  0  0  0  0  0
   25.7463  -22.3144  -10.5465 C   0  0  0  0  0  0  0  0  0  0  0  0
   23.9884  -20.7032  -11.2807 C   0  0  0  0  0  0  0  0  0  0  0  0
   23.6442  -21.2623  -12.6497 C   0  0  2  0  0  0  0  0  0  0  0  0
   24.6674  -21.1458  -13.6299 N   0  0  0  0  0  0  0  0  0  0  0  0
   22.3205  -20.7808  -13.0523 C   0  0  0  0  0  0  0  0  0  0  0  0
   21.3024  -21.0462  -12.3105 O   0  0  0  0  0  0  0  0  0  0  0  0
   22.0695  -20.0354  -14.2089 N   0  0  0  0  0  0  0  0  0  0  0  0
   20.6645  -19.8457  -14.6723 C   0  0  1  0  0  0  0  0  0  0  0  0
   20.7680  -19.7141  -16.1623 C   0  0  0  0  0  0  0  0  0  0  0  0
   19.4737  -19.4844  -16.8203 C   0  0  0  0  0  0  0  0  0  0  0  0
   18.2131  -19.2789  -16.3523 C   0  0  0  0  0  0  0  0  0  0  0  0
   17.3763  -19.0555  -17.3851 N   0  0  0  0  0  0  0  0  0  0  0  0
   18.1166  -19.1219  -18.4786 C   0  0  0  0  0  0  0  0  0  0  0  0
   19.3744  -19.3769  -18.1682 N   0  0  0  0  0  0  0  0  0  0  0  0
   19.9868  -21.1593  -14.3921 C   0  0  0  0  0  0  0  0  0  0  0  0
   20.5456  -22.2038  -14.8487 O   0  0  0  0  0  0  0  0  0  0  0  0
   18.8241  -21.3115  -13.6900 O   0  0  0  0  0  0  0  0  0  0  0  0
  2  1  1  1
  3  2  1  0
  3  4  1  0
  5  4  1  0
  5  6  1  0
  7  6  1  0
  8  9  2  0
  8  2  1  0
 11 10  1  1
 11 12  1  0
 11 13  1  0
 14 13  1  1
 14 15  1  0
 15  8  1  0
 16 18  1  0
 16 14  1  0
 17 16  2  0
 19 18  1  0
 19 26  1  0
 19 20  1  6
 20 21  1  0
 21 22  2  0
 22 23  1  0
 24 23  1  0
 25 21  1  0
 25 24  2  0
 26 28  1  0
 27 26  2  0
M  END
$$$$
