KLH.pdb
     RDKit          3D

 28 28  0  0  1  0  0  0  0  0999 V2000
   27.9270  -22.8423  -16.7863 N   0  0  0  0  0  0  0  0  0  0  0  0
   27.3122  -21.6424  -16.3181 C   0  0  1  0  0  0  0  0  0  0  0  0
   26.5797  -20.9272  -17.4316 C   0  0  0  0  0  0  0  0  0  0  0  0
   27.5081  -20.4235  -18.4899 C   0  0  0  0  0  0  0  0  0  0  0  0
   28.4809  -19.3924  -18.0076 C   0  0  0  0  0  0  0  0  0  0  0  0
   29.3921  -18.8913  -19.1033 C   0  0  0  0  0  0  0  0  0  0  0  0
   30.3212  -17.9501  -18.5040 N   0  0  0  0  0  0  0  0  0  0  0  0
   26.4115  -21.9061  -15.1595 C   0  0  0  0  0  0  0  0  0  0  0  0
   25.4564  -22.6881  -15.3614 O   0  0  0  0  0  0  0  0  0  0  0  0
   24.9473  -21.8960   -9.9585 C   0  0  0  0  0  0  0  0  0  0  0  0
   25.1405  -20.4660  -10.4850 C   0  0  1  0  0  0  0  0  0  0  0  0
   25.6954  -19.7035   -9.2767 C   0  0  0  0  0  0  0  0  0  0  0  0
   26.1410  -20.5480  -11.5818 C   0  0  0  0  0  0  0  0  0  0  0  0
   25.6261  -21.1845  -12.8605 C   0  0  2  0  0  0  0  0  0  0  0  0
   26.5875  -21.3315  -13.8976 N   0  0  0  0  0  0  0  0  0  0  0  0
   24.3660  -20.5457  -13.2479 C   0  0  0  0  0  0  0  0  0  0  0  0
   24.3806  -19.3282  -13.6660 O   0  0  0  0  0  0  0  0  0  0  0  0
   23.1158  -21.1711  -13.1986 N   0  0  0  0  0  0  0  0  0  0  0  0
   21.8932  -20.4035  -13.5735 C   0  0  1  0  0  0  0  0  0  0  0  0
   21.1997  -21.2615  -14.5891 C   0  0  0  0  0  0  0  0  0  0  0  0
   21.6365  -21.0034  -15.9687 C   0  0  0  0  0  0  0  0  0  0  0  0
   22.4793  -20.0920  -16.5250 C   0  0  0  0  0  0  0  0  0  0  0  0
   22.5873  -20.3224  -17.8487 N   0  0  0  0  0  0  0  0  0  0  0  0
   21.8184  -21.3673  -18.1035 C   0  0  0  0  0  0  0  0  0  0  0  0
   21.2390  -21.7936  -16.9962 N   0  0  0  0  0  0  0  0  0  0  0  0
   21.0399  -20.4106  -12.3344 C   0  0  0  0  0  0  0  0  0  0  0  0
   21.3831  -21.2034  -11.4043 O   0  0  0  0  0  0  0  0  0  0  0  0
   19.9319  -19.6352  -12.1370 O   0  0  0  0  0  0  0  0  0  0  0  0
  2  1  1  6
  3  2  1  0
  3  4  1  0
  5  4  1  0
  5  6  1  0
  7  6  1  0
  8  9  2  0
  8  2  1  0
 11 10  1  1
 11 12  1  0
 11 13  1  0
 14 13  1  1
 14 15  1  0
 15  8  1  0
 16 18  1  0
 16 14  1  0
 17 16  2  0
 19 18  1  0
 19 26  1  0
 19 20  1  6
 20 21  1  0
 21 22  2  0
 22 23  1  0
 24 23  1  0
 25 21  1  0
 25 24  2  0
 26 28  1  0
 27 26  2  0
M  END
$$$$
