KLH.pdb
     RDKit          3D

 28 28  0  0  1  0  0  0  0  0999 V2000
   27.5766  -25.1529  -17.4626 N   0  0  0  0  0  0  0  0  0  0  0  0
   27.1510  -23.8242  -17.7633 C   0  0  1  0  0  0  0  0  0  0  0  0
   26.4698  -23.7553  -19.1122 C   0  0  0  0  0  0  0  0  0  0  0  0
   27.4462  -23.7944  -20.2439 C   0  0  0  0  0  0  0  0  0  0  0  0
   28.0702  -25.1376  -20.4650 C   0  0  0  0  0  0  0  0  0  0  0  0
   28.9304  -25.1848  -21.7058 C   0  0  0  0  0  0  0  0  0  0  0  0
   29.4643  -26.5303  -21.8177 N   0  0  0  0  0  0  0  0  0  0  0  0
   26.2782  -23.2732  -16.6874 C   0  0  0  0  0  0  0  0  0  0  0  0
   25.5431  -24.0909  -16.0910 O   0  0  0  0  0  0  0  0  0  0  0  0
   27.9971  -18.6010  -14.1054 C   0  0  0  0  0  0  0  0  0  0  0  0
   27.5967  -20.0252  -14.5191 C   0  0  1  0  0  0  0  0  0  0  0  0
   27.9516  -20.8750  -13.2940 C   0  0  0  0  0  0  0  0  0  0  0  0
   26.1293  -20.0021  -14.7576 C   0  0  0  0  0  0  0  0  0  0  0  0
   25.5491  -21.3144  -15.2539 C   0  0  2  0  0  0  0  0  0  0  0  0
   26.2507  -21.9219  -16.3310 N   0  0  0  0  0  0  0  0  0  0  0  0
   24.1035  -21.1670  -15.4397 C   0  0  0  0  0  0  0  0  0  0  0  0
   23.6639  -20.5056  -16.4529 O   0  0  0  0  0  0  0  0  0  0  0  0
   23.1382  -21.7030  -14.5810 N   0  0  0  0  0  0  0  0  0  0  0  0
   21.6931  -21.4449  -14.8449 C   0  0  1  0  0  0  0  0  0  0  0  0
   20.9760  -22.5948  -14.2032 C   0  0  0  0  0  0  0  0  0  0  0  0
   19.5121  -22.4696  -14.2484 C   0  0  0  0  0  0  0  0  0  0  0  0
   18.6726  -21.4991  -14.7001 C   0  0  0  0  0  0  0  0  0  0  0  0
   17.3946  -21.9060  -14.5659 N   0  0  0  0  0  0  0  0  0  0  0  0
   17.4482  -23.1168  -14.0374 C   0  0  0  0  0  0  0  0  0  0  0  0
   18.7028  -23.4771  -13.8382 N   0  0  0  0  0  0  0  0  0  0  0  0
   21.3683  -20.2175  -14.0377 C   0  0  0  0  0  0  0  0  0  0  0  0
   22.0771  -20.0031  -13.0066 O   0  0  0  0  0  0  0  0  0  0  0  0
   20.3755  -19.3242  -14.3279 O   0  0  0  0  0  0  0  0  0  0  0  0
  2  1  1  1
  3  2  1  0
  3  4  1  0
  5  4  1  0
  5  6  1  0
  7  6  1  0
  8  9  2  0
  8  2  1  0
 11 10  1  1
 11 12  1  0
 11 13  1  0
 14 13  1  6
 14 15  1  0
 15  8  1  0
 16 18  1  0
 16 14  1  0
 17 16  2  0
 19 18  1  0
 19 26  1  0
 19 20  1  1
 20 21  1  0
 21 22  2  0
 22 23  1  0
 24 23  1  0
 25 21  1  0
 25 24  2  0
 26 28  1  0
 27 26  2  0
M  END
$$$$
