KLH.pdb
     RDKit          3D

 28 28  0  0  1  0  0  0  0  0999 V2000
   27.7069  -20.3211  -15.3962 N   0  0  0  0  0  0  0  0  0  0  0  0
   26.7954  -21.3335  -15.8217 C   0  0  1  0  0  0  0  0  0  0  0  0
   27.5020  -22.6515  -16.0492 C   0  0  0  0  0  0  0  0  0  0  0  0
   28.4861  -22.5814  -17.1728 C   0  0  0  0  0  0  0  0  0  0  0  0
   27.8601  -22.5859  -18.5331 C   0  0  0  0  0  0  0  0  0  0  0  0
   28.8814  -22.5960  -19.6461 C   0  0  0  0  0  0  0  0  0  0  0  0
   29.6548  -21.3716  -19.5419 N   0  0  0  0  0  0  0  0  0  0  0  0
   25.6616  -21.4852  -14.8654 C   0  0  0  0  0  0  0  0  0  0  0  0
   24.8087  -22.3566  -15.1442 O   0  0  0  0  0  0  0  0  0  0  0  0
   26.1657  -20.0942   -9.4373 C   0  0  0  0  0  0  0  0  0  0  0  0
   25.9344  -20.8240  -10.7690 C   0  0  1  0  0  0  0  0  0  0  0  0
   25.6338  -22.2667  -10.3479 C   0  0  0  0  0  0  0  0  0  0  0  0
   24.7511  -20.1856  -11.4040 C   0  0  0  0  0  0  0  0  0  0  0  0
   24.4281  -20.6976  -12.7964 C   0  0  2  0  0  0  0  0  0  0  0  0
   25.5199  -20.7162  -13.7069 N   0  0  0  0  0  0  0  0  0  0  0  0
   23.2071  -20.0493  -13.2812 C   0  0  0  0  0  0  0  0  0  0  0  0
   23.2523  -18.8152  -13.6451 O   0  0  0  0  0  0  0  0  0  0  0  0
   21.9640  -20.6823  -13.3832 N   0  0  0  0  0  0  0  0  0  0  0  0
   20.9059  -20.0914  -14.2526 C   0  0  1  0  0  0  0  0  0  0  0  0
   21.3899  -20.3205  -15.6531 C   0  0  0  0  0  0  0  0  0  0  0  0
   20.4470  -19.8566  -16.6809 C   0  0  0  0  0  0  0  0  0  0  0  0
   19.2447  -19.2225  -16.6255 C   0  0  0  0  0  0  0  0  0  0  0  0
   18.8113  -18.9614  -17.8748 N   0  0  0  0  0  0  0  0  0  0  0  0
   19.7399  -19.4298  -18.6912 C   0  0  0  0  0  0  0  0  0  0  0  0
   20.7286  -19.9697  -18.0023 N   0  0  0  0  0  0  0  0  0  0  0  0
   19.7052  -20.9753  -14.0513 C   0  0  0  0  0  0  0  0  0  0  0  0
   19.9245  -22.1635  -13.6621 O   0  0  0  0  0  0  0  0  0  0  0  0
   18.4073  -20.5988  -14.2553 O   0  0  0  0  0  0  0  0  0  0  0  0
  2  1  1  1
  3  2  1  0
  3  4  1  0
  5  4  1  0
  5  6  1  0
  7  6  1  0
  8  9  2  0
  8  2  1  0
 11 10  1  1
 11 12  1  0
 11 13  1  0
 14 13  1  1
 14 15  1  0
 15  8  1  0
 16 18  1  0
 16 14  1  0
 17 16  2  0
 19 18  1  0
 19 26  1  0
 19 20  1  6
 20 21  1  0
 21 22  2  0
 22 23  1  0
 24 23  1  0
 25 21  1  0
 25 24  2  0
 26 28  1  0
 27 26  2  0
M  END
$$$$
