KLH.pdb
     RDKit          3D

 28 28  0  0  1  0  0  0  0  0999 V2000
   28.1536  -20.8138  -15.6255 N   0  0  0  0  0  0  0  0  0  0  0  0
   26.7627  -20.4937  -15.6183 C   0  0  1  0  0  0  0  0  0  0  0  0
   26.1016  -20.8778  -16.9235 C   0  0  0  0  0  0  0  0  0  0  0  0
   25.8285  -19.6916  -17.7920 C   0  0  0  0  0  0  0  0  0  0  0  0
   24.5537  -18.9771  -17.4655 C   0  0  0  0  0  0  0  0  0  0  0  0
   24.2847  -17.8115  -18.3879 C   0  0  0  0  0  0  0  0  0  0  0  0
   23.1085  -17.1211  -17.8896 N   0  0  0  0  0  0  0  0  0  0  0  0
   26.0653  -21.1136  -14.4554 C   0  0  0  0  0  0  0  0  0  0  0  0
   25.3123  -22.0805  -14.7063 O   0  0  0  0  0  0  0  0  0  0  0  0
   28.1014  -20.0818   -9.3393 C   0  0  0  0  0  0  0  0  0  0  0  0
   27.6563  -20.5704  -10.7259 C   0  0  1  0  0  0  0  0  0  0  0  0
   28.3918  -21.9041  -10.8970 C   0  0  0  0  0  0  0  0  0  0  0  0
   26.1842  -20.7669  -10.6553 C   0  0  0  0  0  0  0  0  0  0  0  0
   25.5301  -21.1238  -11.9782 C   0  0  2  0  0  0  0  0  0  0  0  0
   26.2156  -20.6704  -13.1383 N   0  0  0  0  0  0  0  0  0  0  0  0
   24.1024  -20.8015  -11.9168 C   0  0  0  0  0  0  0  0  0  0  0  0
   23.7083  -19.8315  -11.1677 O   0  0  0  0  0  0  0  0  0  0  0  0
   23.1080  -21.4820  -12.6272 N   0  0  0  0  0  0  0  0  0  0  0  0
   21.7911  -20.8231  -12.8648 C   0  0  1  0  0  0  0  0  0  0  0  0
   22.0882  -19.7103  -13.8248 C   0  0  0  0  0  0  0  0  0  0  0  0
   20.8872  -18.9974  -14.2833 C   0  0  0  0  0  0  0  0  0  0  0  0
   19.5751  -19.0573  -13.9294 C   0  0  0  0  0  0  0  0  0  0  0  0
   18.8760  -18.1352  -14.6208 N   0  0  0  0  0  0  0  0  0  0  0  0
   19.7513  -17.5130  -15.3921 C   0  0  0  0  0  0  0  0  0  0  0  0
   20.9611  -18.0095  -15.2090 N   0  0  0  0  0  0  0  0  0  0  0  0
   20.9794  -21.8454  -13.6129 C   0  0  0  0  0  0  0  0  0  0  0  0
   19.7429  -21.6002  -13.7628 O   0  0  0  0  0  0  0  0  0  0  0  0
   21.4686  -23.0086  -14.1378 O   0  0  0  0  0  0  0  0  0  0  0  0
  2  1  1  6
  3  2  1  0
  3  4  1  0
  5  4  1  0
  5  6  1  0
  7  6  1  0
  8  9  2  0
  8  2  1  0
 11 10  1  1
 11 12  1  0
 11 13  1  0
 14 13  1  1
 14 15  1  0
 15  8  1  0
 16 18  1  0
 16 14  1  0
 17 16  2  0
 19 18  1  0
 19 26  1  0
 19 20  1  6
 20 21  1  0
 21 22  2  0
 22 23  1  0
 24 23  1  0
 25 21  1  0
 25 24  2  0
 26 28  1  0
 27 26  2  0
M  END
$$$$
