KLH.pdb
     RDKit          3D

 28 28  0  0  1  0  0  0  0  0999 V2000
   12.7602  -17.3822    3.5879 N   0  0  0  0  0  0  0  0  0  0  0  0
   13.4375  -16.1603    3.8796 C   0  0  1  0  0  0  0  0  0  0  0  0
   12.6300  -15.2929    4.8197 C   0  0  0  0  0  0  0  0  0  0  0  0
   11.7168  -14.3613    4.0890 C   0  0  0  0  0  0  0  0  0  0  0  0
   10.9780  -13.4092    4.9779 C   0  0  0  0  0  0  0  0  0  0  0  0
   10.1058  -12.4470    4.2063 C   0  0  0  0  0  0  0  0  0  0  0  0
    9.3016  -11.7162    5.1693 N   0  0  0  0  0  0  0  0  0  0  0  0
   14.8070  -16.4087    4.4143 C   0  0  0  0  0  0  0  0  0  0  0  0
   15.1863  -17.6002    4.4464 O   0  0  0  0  0  0  0  0  0  0  0  0
   18.7817  -12.4206    4.0770 C   0  0  0  0  0  0  0  0  0  0  0  0
   17.9673  -13.7160    3.9418 C   0  0  1  0  0  0  0  0  0  0  0  0
   18.8440  -14.6080    3.0560 C   0  0  0  0  0  0  0  0  0  0  0  0
   17.8306  -14.2774    5.3118 C   0  0  0  0  0  0  0  0  0  0  0  0
   16.9668  -15.5229    5.4010 C   0  0  2  0  0  0  0  0  0  0  0  0
   15.6557  -15.3942    4.8664 N   0  0  0  0  0  0  0  0  0  0  0  0
   17.0497  -16.0756    6.7551 C   0  0  0  0  0  0  0  0  0  0  0  0
   16.2593  -15.6270    7.6669 O   0  0  0  0  0  0  0  0  0  0  0  0
   17.9427  -17.0790    7.1452 N   0  0  0  0  0  0  0  0  0  0  0  0
   17.9184  -17.5812    8.5494 C   0  0  1  0  0  0  0  0  0  0  0  0
   17.7381  -19.0643    8.4219 C   0  0  0  0  0  0  0  0  0  0  0  0
   17.7632  -19.7694    9.7114 C   0  0  0  0  0  0  0  0  0  0  0  0
   18.1170  -19.3972   10.9711 C   0  0  0  0  0  0  0  0  0  0  0  0
   17.8943  -20.4162   11.8249 N   0  0  0  0  0  0  0  0  0  0  0  0
   17.4065  -21.4059   11.0963 C   0  0  0  0  0  0  0  0  0  0  0  0
   17.3179  -21.0446    9.8294 N   0  0  0  0  0  0  0  0  0  0  0  0
   19.3129  -17.3497    9.0646 C   0  0  0  0  0  0  0  0  0  0  0  0
   20.2642  -17.5029    8.2381 O   0  0  0  0  0  0  0  0  0  0  0  0
   19.6299  -16.9911   10.3447 O   0  0  0  0  0  0  0  0  0  0  0  0
  2  1  1  1
  3  2  1  0
  3  4  1  0
  5  4  1  0
  5  6  1  0
  7  6  1  0
  8  9  2  0
  8  2  1  0
 11 10  1  1
 11 12  1  0
 11 13  1  0
 14 13  1  1
 14 15  1  0
 15  8  1  0
 16 18  1  0
 16 14  1  0
 17 16  2  0
 19 18  1  0
 19 26  1  0
 19 20  1  6
 20 21  1  0
 21 22  2  0
 22 23  1  0
 24 23  1  0
 25 21  1  0
 25 24  2  0
 26 28  1  0
 27 26  2  0
M  END
$$$$
