KLH.pdb
     RDKit          3D

 28 28  0  0  1  0  0  0  0  0999 V2000
   17.9435  -14.1106  -18.6662 N   0  0  0  0  0  0  0  0  0  0  0  0
   18.9395  -13.1547  -19.0283 C   0  0  1  0  0  0  0  0  0  0  0  0
   18.5282  -12.3662  -20.2520 C   0  0  0  0  0  0  0  0  0  0  0  0
   17.4515  -13.0500  -21.0324 C   0  0  0  0  0  0  0  0  0  0  0  0
   17.0054  -12.2957  -22.2466 C   0  0  0  0  0  0  0  0  0  0  0  0
   16.0025  -13.0634  -23.0753 C   0  0  0  0  0  0  0  0  0  0  0  0
   15.6471  -12.2334  -24.2124 N   0  0  0  0  0  0  0  0  0  0  0  0
   19.2706  -12.2519  -17.8888 C   0  0  0  0  0  0  0  0  0  0  0  0
   18.3095  -11.8537  -17.1943 O   0  0  0  0  0  0  0  0  0  0  0  0
   22.0725  -10.8657  -13.6512 C   0  0  0  0  0  0  0  0  0  0  0  0
   22.8256  -10.3628  -14.8919 C   0  0  1  0  0  0  0  0  0  0  0  0
   24.3011  -10.5727  -14.5339 C   0  0  0  0  0  0  0  0  0  0  0  0
   22.4118  -11.2346  -16.0230 C   0  0  0  0  0  0  0  0  0  0  0  0
   20.9943  -11.0015  -16.5147 C   0  0  2  0  0  0  0  0  0  0  0  0
   20.5714  -11.8466  -17.5769 N   0  0  0  0  0  0  0  0  0  0  0  0
   20.7813   -9.5668  -16.7206 C   0  0  0  0  0  0  0  0  0  0  0  0
   21.3390   -8.9861  -17.7252 O   0  0  0  0  0  0  0  0  0  0  0  0
   19.9988   -8.7574  -15.8906 N   0  0  0  0  0  0  0  0  0  0  0  0
   19.7746   -7.3284  -16.2544 C   0  0  1  0  0  0  0  0  0  0  0  0
   18.4292   -6.9950  -15.6825 C   0  0  0  0  0  0  0  0  0  0  0  0
   18.0766   -5.5735  -15.8079 C   0  0  0  0  0  0  0  0  0  0  0  0
   18.6724   -4.5154  -16.4211 C   0  0  0  0  0  0  0  0  0  0  0  0
   17.8982   -3.4198  -16.2896 N   0  0  0  0  0  0  0  0  0  0  0  0
   16.8350   -3.8016  -15.6026 C   0  0  0  0  0  0  0  0  0  0  0  0
   16.9172   -5.0849  -15.3026 N   0  0  0  0  0  0  0  0  0  0  0  0
   20.7947   -6.5638  -15.4556 C   0  0  0  0  0  0  0  0  0  0  0  0
   21.0172   -6.9654  -14.2721 O   0  0  0  0  0  0  0  0  0  0  0  0
   21.4930   -5.4778  -15.9040 O   0  0  0  0  0  0  0  0  0  0  0  0
  2  1  1  1
  3  2  1  0
  3  4  1  0
  5  4  1  0
  5  6  1  0
  7  6  1  0
  8  9  2  0
  8  2  1  0
 11 10  1  1
 11 12  1  0
 11 13  1  0
 14 13  1  6
 14 15  1  0
 15  8  1  0
 16 18  1  0
 16 14  1  0
 17 16  2  0
 19 18  1  0
 19 26  1  0
 19 20  1  1
 20 21  1  0
 21 22  2  0
 22 23  1  0
 24 23  1  0
 25 21  1  0
 25 24  2  0
 26 28  1  0
 27 26  2  0
M  END
$$$$
