KLH.pdb
     RDKit          3D

 28 28  0  0  1  0  0  0  0  0999 V2000
   28.0365  -22.7655  -16.1613 N   0  0  0  0  0  0  0  0  0  0  0  0
   27.5931  -21.4889  -15.7022 C   0  0  1  0  0  0  0  0  0  0  0  0
   27.4600  -20.5074  -16.8454 C   0  0  0  0  0  0  0  0  0  0  0  0
   28.7383  -20.3417  -17.6031 C   0  0  0  0  0  0  0  0  0  0  0  0
   28.6488  -19.3804  -18.7477 C   0  0  0  0  0  0  0  0  0  0  0  0
   29.9539  -19.2391  -19.4952 C   0  0  0  0  0  0  0  0  0  0  0  0
   29.7926  -18.1649  -20.4587 N   0  0  0  0  0  0  0  0  0  0  0  0
   26.3218  -21.5970  -14.9307 C   0  0  0  0  0  0  0  0  0  0  0  0
   25.4888  -22.4350  -15.3413 O   0  0  0  0  0  0  0  0  0  0  0  0
   25.9874  -19.9916   -9.4799 C   0  0  0  0  0  0  0  0  0  0  0  0
   25.9560  -20.8138  -10.7770 C   0  0  1  0  0  0  0  0  0  0  0  0
   25.4935  -22.2014  -10.3190 C   0  0  0  0  0  0  0  0  0  0  0  0
   24.9503  -20.1711  -11.6637 C   0  0  0  0  0  0  0  0  0  0  0  0
   24.8331  -20.7955  -13.0427 C   0  0  2  0  0  0  0  0  0  0  0  0
   26.0343  -20.8229  -13.8029 N   0  0  0  0  0  0  0  0  0  0  0  0
   23.6603  -20.2453  -13.7269 C   0  0  0  0  0  0  0  0  0  0  0  0
   23.7061  -19.0432  -14.1854 O   0  0  0  0  0  0  0  0  0  0  0  0
   22.4640  -20.9418  -13.9271 N   0  0  0  0  0  0  0  0  0  0  0  0
   21.3195  -20.2616  -14.5996 C   0  0  1  0  0  0  0  0  0  0  0  0
   21.0908  -21.0493  -15.8547 C   0  0  0  0  0  0  0  0  0  0  0  0
   19.9302  -20.5890  -16.6306 C   0  0  0  0  0  0  0  0  0  0  0  0
   19.0081  -19.6081  -16.4361 C   0  0  0  0  0  0  0  0  0  0  0  0
   18.1722  -19.5550  -17.4923 N   0  0  0  0  0  0  0  0  0  0  0  0
   18.5781  -20.4945  -18.3294 C   0  0  0  0  0  0  0  0  0  0  0  0
   19.6278  -21.1270  -17.8379 N   0  0  0  0  0  0  0  0  0  0  0  0
   20.1402  -20.5137  -13.7001 C   0  0  0  0  0  0  0  0  0  0  0  0
   19.0337  -19.9946  -14.0434 O   0  0  0  0  0  0  0  0  0  0  0  0
   20.1704  -21.2523  -12.5506 O   0  0  0  0  0  0  0  0  0  0  0  0
  2  1  1  6
  3  2  1  0
  3  4  1  0
  5  4  1  0
  5  6  1  0
  7  6  1  0
  8  9  2  0
  8  2  1  0
 11 10  1  1
 11 12  1  0
 11 13  1  0
 14 13  1  1
 14 15  1  0
 15  8  1  0
 16 18  1  0
 16 14  1  0
 17 16  2  0
 19 18  1  0
 19 26  1  0
 19 20  1  6
 20 21  1  0
 21 22  2  0
 22 23  1  0
 24 23  1  0
 25 21  1  0
 25 24  2  0
 26 28  1  0
 27 26  2  0
M  END
$$$$
