KLH.pdb
     RDKit          3D

 28 28  0  0  1  0  0  0  0  0999 V2000
   24.0084  -16.6661  -17.9591 N   0  0  0  0  0  0  0  0  0  0  0  0
   23.1812  -15.5471  -18.2761 C   0  0  1  0  0  0  0  0  0  0  0  0
   21.7217  -15.9400  -18.3373 C   0  0  0  0  0  0  0  0  0  0  0  0
   21.5011  -17.1808  -19.1420 C   0  0  0  0  0  0  0  0  0  0  0  0
   20.0808  -17.6551  -19.1549 C   0  0  0  0  0  0  0  0  0  0  0  0
   19.8882  -18.8995  -19.9892 C   0  0  0  0  0  0  0  0  0  0  0  0
   18.5113  -19.3294  -19.8230 N   0  0  0  0  0  0  0  0  0  0  0  0
   23.3988  -14.4197  -17.3249 C   0  0  0  0  0  0  0  0  0  0  0  0
   22.7215  -14.4375  -16.2735 O   0  0  0  0  0  0  0  0  0  0  0  0
   28.4060  -12.3500  -16.3758 C   0  0  0  0  0  0  0  0  0  0  0  0
   26.9912  -12.9420  -16.2893 C   0  0  1  0  0  0  0  0  0  0  0  0
   26.8441  -13.3230  -14.8121 C   0  0  0  0  0  0  0  0  0  0  0  0
   26.0509  -11.8535  -16.6659 C   0  0  0  0  0  0  0  0  0  0  0  0
   24.5912  -12.2682  -16.7149 C   0  0  2  0  0  0  0  0  0  0  0  0
   24.3012  -13.3775  -17.5556 N   0  0  0  0  0  0  0  0  0  0  0  0
   23.7556  -11.0820  -16.9169 C   0  0  0  0  0  0  0  0  0  0  0  0
   23.7634  -10.4951  -18.0627 O   0  0  0  0  0  0  0  0  0  0  0  0
   22.9280  -10.5229  -15.9377 N   0  0  0  0  0  0  0  0  0  0  0  0
   22.1007   -9.3267  -16.2680 C   0  0  1  0  0  0  0  0  0  0  0  0
   20.8158   -9.5330  -15.5232 C   0  0  0  0  0  0  0  0  0  0  0  0
   19.8724   -8.4145  -15.6639 C   0  0  0  0  0  0  0  0  0  0  0  0
   20.0296   -7.0652  -15.7349 C   0  0  0  0  0  0  0  0  0  0  0  0
   18.8314   -6.4782  -15.9265 N   0  0  0  0  0  0  0  0  0  0  0  0
   17.9455   -7.4585  -15.9742 C   0  0  0  0  0  0  0  0  0  0  0  0
   18.5423   -8.6262  -15.8201 N   0  0  0  0  0  0  0  0  0  0  0  0
   22.8110   -8.1748  -15.6106 C   0  0  0  0  0  0  0  0  0  0  0  0
   22.3374   -7.0148  -15.8153 O   0  0  0  0  0  0  0  0  0  0  0  0
   23.9188   -8.2821  -14.8175 O   0  0  0  0  0  0  0  0  0  0  0  0
  2  1  1  1
  3  2  1  0
  3  4  1  0
  5  4  1  0
  5  6  1  0
  7  6  1  0
  8  9  2  0
  8  2  1  0
 11 10  1  1
 11 12  1  0
 11 13  1  0
 14 13  1  6
 14 15  1  0
 15  8  1  0
 16 18  1  0
 16 14  1  0
 17 16  2  0
 19 18  1  0
 19 26  1  0
 19 20  1  1
 20 21  1  0
 21 22  2  0
 22 23  1  0
 24 23  1  0
 25 21  1  0
 25 24  2  0
 26 28  1  0
 27 26  2  0
M  END
$$$$
