KLH.pdb
     RDKit          3D

 28 28  0  0  1  0  0  0  0  0999 V2000
   28.0448  -22.0722  -16.0870 N   0  0  0  0  0  0  0  0  0  0  0  0
   27.1822  -20.9787  -15.7754 C   0  0  1  0  0  0  0  0  0  0  0  0
   26.6695  -20.3060  -17.0296 C   0  0  0  0  0  0  0  0  0  0  0  0
   27.7785  -19.8515  -17.9237 C   0  0  0  0  0  0  0  0  0  0  0  0
   27.9431  -20.6794  -19.1605 C   0  0  0  0  0  0  0  0  0  0  0  0
   29.0739  -20.1985  -20.0391 C   0  0  0  0  0  0  0  0  0  0  0  0
   29.3115  -21.2185  -21.0447 N   0  0  0  0  0  0  0  0  0  0  0  0
   26.0592  -21.4033  -14.8913 C   0  0  0  0  0  0  0  0  0  0  0  0
   25.4377  -22.4334  -15.2336 O   0  0  0  0  0  0  0  0  0  0  0  0
   25.8545  -19.9251   -9.4427 C   0  0  0  0  0  0  0  0  0  0  0  0
   25.8850  -20.7252  -10.7536 C   0  0  1  0  0  0  0  0  0  0  0  0
   25.8530  -22.1861  -10.2909 C   0  0  0  0  0  0  0  0  0  0  0  0
   24.6510  -20.3648  -11.5007 C   0  0  0  0  0  0  0  0  0  0  0  0
   24.5616  -20.9564  -12.8961 C   0  0  2  0  0  0  0  0  0  0  0  0
   25.6862  -20.7166  -13.7324 N   0  0  0  0  0  0  0  0  0  0  0  0
   23.2566  -20.6335  -13.4780 C   0  0  0  0  0  0  0  0  0  0  0  0
   23.0113  -19.4224  -13.8391 O   0  0  0  0  0  0  0  0  0  0  0  0
   22.2297  -21.5619  -13.6780 N   0  0  0  0  0  0  0  0  0  0  0  0
   20.9374  -21.1138  -14.2728 C   0  0  1  0  0  0  0  0  0  0  0  0
   20.5308  -22.2294  -15.1885 C   0  0  0  0  0  0  0  0  0  0  0  0
   19.2620  -21.9792  -15.8873 C   0  0  0  0  0  0  0  0  0  0  0  0
   18.3719  -20.9508  -15.8649 C   0  0  0  0  0  0  0  0  0  0  0  0
   17.3849  -21.1853  -16.7524 N   0  0  0  0  0  0  0  0  0  0  0  0
   17.6668  -22.3474  -17.3166 C   0  0  0  0  0  0  0  0  0  0  0  0
   18.7842  -22.8427  -16.8171 N   0  0  0  0  0  0  0  0  0  0  0  0
   19.9660  -21.1107  -13.1239 C   0  0  0  0  0  0  0  0  0  0  0  0
   20.2396  -21.8615  -12.1375 O   0  0  0  0  0  0  0  0  0  0  0  0
   18.8206  -20.3676  -13.0633 O   0  0  0  0  0  0  0  0  0  0  0  0
  2  1  1  6
  3  2  1  0
  3  4  1  0
  5  4  1  0
  5  6  1  0
  7  6  1  0
  8  9  2  0
  8  2  1  0
 11 10  1  1
 11 12  1  0
 11 13  1  0
 14 13  1  1
 14 15  1  0
 15  8  1  0
 16 18  1  0
 16 14  1  0
 17 16  2  0
 19 18  1  0
 19 26  1  0
 19 20  1  6
 20 21  1  0
 21 22  2  0
 22 23  1  0
 24 23  1  0
 25 21  1  0
 25 24  2  0
 26 28  1  0
 27 26  2  0
M  END
$$$$
