KLH.pdb
     RDKit          3D

 28 28  0  0  1  0  0  0  0  0999 V2000
   20.3336  -13.7870  -16.9687 N   0  0  0  0  0  0  0  0  0  0  0  0
   19.7453  -12.4905  -17.0683 C   0  0  1  0  0  0  0  0  0  0  0  0
   18.2346  -12.5683  -17.0598 C   0  0  0  0  0  0  0  0  0  0  0  0
   17.6781  -12.9453  -18.3955 C   0  0  0  0  0  0  0  0  0  0  0  0
   17.1708  -11.7850  -19.1945 C   0  0  0  0  0  0  0  0  0  0  0  0
   16.5256  -12.2077  -20.4933 C   0  0  0  0  0  0  0  0  0  0  0  0
   16.0592  -11.0063  -21.1621 N   0  0  0  0  0  0  0  0  0  0  0  0
   20.2464  -11.5794  -15.9998 C   0  0  0  0  0  0  0  0  0  0  0  0
   19.5967  -11.5615  -14.9311 O   0  0  0  0  0  0  0  0  0  0  0  0
   25.6299  -10.4381  -15.3308 C   0  0  0  0  0  0  0  0  0  0  0  0
   24.1589  -10.8249  -15.1160 C   0  0  1  0  0  0  0  0  0  0  0  0
   24.1266  -11.3543  -13.6780 C   0  0  0  0  0  0  0  0  0  0  0  0
   23.3660   -9.5745  -15.2525 C   0  0  0  0  0  0  0  0  0  0  0  0
   21.8613   -9.7768  -15.2475 C   0  0  2  0  0  0  0  0  0  0  0  0
   21.3775  -10.7706  -16.1419 N   0  0  0  0  0  0  0  0  0  0  0  0
   21.1957   -8.4741  -15.3247 C   0  0  0  0  0  0  0  0  0  0  0  0
   21.4373   -7.5900  -14.4206 O   0  0  0  0  0  0  0  0  0  0  0  0
   20.2957   -8.1054  -16.3299 N   0  0  0  0  0  0  0  0  0  0  0  0
   19.7431   -6.7202  -16.3517 C   0  0  1  0  0  0  0  0  0  0  0  0
   18.6557   -6.7262  -15.3193 C   0  0  0  0  0  0  0  0  0  0  0  0
   17.4890   -7.5335  -15.7036 C   0  0  0  0  0  0  0  0  0  0  0  0
   17.2233   -8.3426  -16.7644 C   0  0  0  0  0  0  0  0  0  0  0  0
   16.0097   -8.9088  -16.6107 N   0  0  0  0  0  0  0  0  0  0  0  0
   15.5341   -8.4526  -15.4645 C   0  0  0  0  0  0  0  0  0  0  0  0
   16.3994   -7.6288  -14.9023 N   0  0  0  0  0  0  0  0  0  0  0  0
   20.8525   -5.8554  -15.8180 C   0  0  0  0  0  0  0  0  0  0  0  0
   20.5970   -4.6213  -15.6654 O   0  0  0  0  0  0  0  0  0  0  0  0
   22.1042   -6.2944  -15.4891 O   0  0  0  0  0  0  0  0  0  0  0  0
  2  1  1  1
  3  2  1  0
  3  4  1  0
  5  4  1  0
  5  6  1  0
  7  6  1  0
  8  9  2  0
  8  2  1  0
 11 10  1  1
 11 12  1  0
 11 13  1  0
 14 13  1  6
 14 15  1  0
 15  8  1  0
 16 18  1  0
 16 14  1  0
 17 16  2  0
 19 18  1  0
 19 26  1  0
 19 20  1  1
 20 21  1  0
 21 22  2  0
 22 23  1  0
 24 23  1  0
 25 21  1  0
 25 24  2  0
 26 28  1  0
 27 26  2  0
M  END
$$$$
