KLH.pdb
     RDKit          3D

 28 28  0  0  1  0  0  0  0  0999 V2000
   27.8315  -21.7901  -14.5844 N   0  0  0  0  0  0  0  0  0  0  0  0
   27.1292  -20.7594  -13.8906 C   0  0  1  0  0  0  0  0  0  0  0  0
   26.2602  -19.9545  -14.8315 C   0  0  0  0  0  0  0  0  0  0  0  0
   26.9912  -19.5470  -16.0706 C   0  0  0  0  0  0  0  0  0  0  0  0
   26.1609  -18.7618  -17.0383 C   0  0  0  0  0  0  0  0  0  0  0  0
   26.9033  -18.4325  -18.3120 C   0  0  0  0  0  0  0  0  0  0  0  0
   27.8904  -17.4165  -17.9934 N   0  0  0  0  0  0  0  0  0  0  0  0
   26.3336  -21.3087  -12.7556 C   0  0  0  0  0  0  0  0  0  0  0  0
   25.7275  -22.3824  -12.9664 O   0  0  0  0  0  0  0  0  0  0  0  0
   27.2072  -19.1888   -7.6465 C   0  0  0  0  0  0  0  0  0  0  0  0
   27.1053  -20.0382   -8.9223 C   0  0  1  0  0  0  0  0  0  0  0  0
   27.9096  -21.2991   -8.5871 C   0  0  0  0  0  0  0  0  0  0  0  0
   25.6636  -20.3481   -9.1129 C   0  0  0  0  0  0  0  0  0  0  0  0
   25.3226  -20.9668  -10.4569 C   0  0  2  0  0  0  0  0  0  0  0  0
   26.2420  -20.6901  -11.5055 N   0  0  0  0  0  0  0  0  0  0  0  0
   23.9128  -20.7138  -10.7644 C   0  0  0  0  0  0  0  0  0  0  0  0
   23.0251  -20.9114   -9.8532 O   0  0  0  0  0  0  0  0  0  0  0  0
   23.4433  -20.2621  -12.0021 N   0  0  0  0  0  0  0  0  0  0  0  0
   21.9943  -19.9515  -12.1712 C   0  0  1  0  0  0  0  0  0  0  0  0
   21.9520  -18.8894  -13.2288 C   0  0  0  0  0  0  0  0  0  0  0  0
   20.5878  -18.5249  -13.6371 C   0  0  0  0  0  0  0  0  0  0  0  0
   19.7314  -19.0167  -14.5727 C   0  0  0  0  0  0  0  0  0  0  0  0
   18.5574  -18.3580  -14.5042 N   0  0  0  0  0  0  0  0  0  0  0  0
   18.6905  -17.4699  -13.5339 C   0  0  0  0  0  0  0  0  0  0  0  0
   19.8952  -17.5493  -12.9991 N   0  0  0  0  0  0  0  0  0  0  0  0
   21.4021  -21.1966  -12.7733 C   0  0  0  0  0  0  0  0  0  0  0  0
   22.2043  -21.9952  -13.3480 O   0  0  0  0  0  0  0  0  0  0  0  0
   20.0767  -21.5291  -12.7494 O   0  0  0  0  0  0  0  0  0  0  0  0
  2  1  1  6
  3  2  1  0
  3  4  1  0
  5  4  1  0
  5  6  1  0
  7  6  1  0
  8  9  2  0
  8  2  1  0
 11 10  1  1
 11 12  1  0
 11 13  1  0
 14 13  1  1
 14 15  1  0
 15  8  1  0
 16 18  1  0
 16 14  1  0
 17 16  2  0
 19 18  1  0
 19 26  1  0
 19 20  1  6
 20 21  1  0
 21 22  2  0
 22 23  1  0
 24 23  1  0
 25 21  1  0
 25 24  2  0
 26 28  1  0
 27 26  2  0
M  END
$$$$
