WLK.pdb
     RDKit          3D

 32 33  0  0  1  0  0  0  0  0999 V2000
   27.9976  -20.2768  -15.4549 N   0  0  0  0  0  0  0  0  0  0  0  0
   26.6238  -19.9741  -15.0175 C   0  0  1  0  0  0  0  0  0  0  0  0
   25.6826  -20.3742  -16.1679 C   0  0  0  0  0  0  0  0  0  0  0  0
   25.5783  -19.2253  -17.0971 C   0  0  0  0  0  0  0  0  0  0  0  0
   26.5283  -18.8063  -18.0319 C   0  0  0  0  0  0  0  0  0  0  0  0
   26.0412  -17.7310  -18.6604 N   0  0  0  0  0  0  0  0  0  0  0  0
   24.8294  -17.4068  -18.2059 C   0  0  0  0  0  0  0  0  0  0  0  0
   23.9539  -16.4048  -18.5388 C   0  0  0  0  0  0  0  0  0  0  0  0
   22.7506  -16.3506  -17.8591 C   0  0  0  0  0  0  0  0  0  0  0  0
   22.4091  -17.2648  -16.8674 C   0  0  0  0  0  0  0  0  0  0  0  0
   23.3195  -18.2545  -16.5662 C   0  0  0  0  0  0  0  0  0  0  0  0
   24.5257  -18.3296  -17.2296 C   0  0  0  0  0  0  0  0  0  0  0  0
   26.3027  -20.8588  -13.8668 C   0  0  0  0  0  0  0  0  0  0  0  0
   26.3005  -22.1266  -13.9818 O   0  0  0  0  0  0  0  0  0  0  0  0
   27.7585  -19.9270   -8.6623 C   0  0  0  0  0  0  0  0  0  0  0  0
   27.4390  -20.4831  -10.0574 C   0  0  1  0  0  0  0  0  0  0  0  0
   28.1558  -21.8296  -10.0950 C   0  0  0  0  0  0  0  0  0  0  0  0
   25.9702  -20.6312  -10.2103 C   0  0  0  0  0  0  0  0  0  0  0  0
   25.4852  -21.0885  -11.5527 C   0  0  2  0  0  0  0  0  0  0  0  0
   25.9931  -20.2550  -12.6179 N   0  0  0  0  0  0  0  0  0  0  0  0
   23.9779  -21.1024  -11.5722 C   0  0  0  0  0  0  0  0  0  0  0  0
   23.3102  -21.7318  -10.7176 O   0  0  0  0  0  0  0  0  0  0  0  0
   23.2649  -20.3982  -12.5639 N   0  0  0  0  0  0  0  0  0  0  0  0
   21.7961  -20.4793  -12.5743 C   0  0  1  0  0  0  0  0  0  0  0  0
   21.2855  -19.8490  -13.8556 C   0  0  0  0  0  0  0  0  0  0  0  0
   19.8171  -19.9784  -13.9799 C   0  0  0  0  0  0  0  0  0  0  0  0
   19.3989  -19.3881  -15.3476 C   0  0  0  0  0  0  0  0  0  0  0  0
   17.9056  -19.5830  -15.4470 C   0  0  0  0  0  0  0  0  0  0  0  0
   17.5042  -19.0964  -16.7457 N   0  0  0  0  0  0  0  0  0  0  0  0
   21.4160  -21.8919  -12.5220 C   0  0  0  0  0  0  0  0  0  0  0  0
   20.3035  -22.3099  -11.8394 O   0  0  0  0  0  0  0  0  0  0  0  0
   22.1201  -22.7463  -13.1103 O   0  0  0  0  0  0  0  0  0  0  0  0
  2  1  1  6
  3  2  1  0
  3  4  1  0
  4 12  1  0
  4  5  2  0
  5  6  1  0
  7  8  2  0
  7  6  1  0
  9  8  1  0
 10  9  2  0
 11 10  1  0
 11 12  2  0
 12  7  1  0
 13  2  1  0
 14 13  2  0
 16 15  1  1
 16 18  1  0
 16 17  1  0
 19 18  1  1
 19 21  1  0
 19 20  1  0
 20 13  1  0
 21 23  1  0
 22 21  2  0
 23 24  1  0
 24 30  1  0
 24 25  1  6
 25 26  1  0
 27 26  1  0
 28 27  1  0
 29 28  1  0
 30 32  2  0
 30 31  1  0
M  END
$$$$
