WLK.pdb
     RDKit          3D

 32 33  0  0  1  0  0  0  0  0999 V2000
   26.8706  -21.5462  -15.2616 N   0  0  0  0  0  0  0  0  0  0  0  0
   26.3344  -20.4266  -14.4683 C   0  0  1  0  0  0  0  0  0  0  0  0
   25.0647  -19.9308  -15.1835 C   0  0  0  0  0  0  0  0  0  0  0  0
   25.4805  -19.0619  -16.3087 C   0  0  0  0  0  0  0  0  0  0  0  0
   25.3790  -19.3416  -17.6738 C   0  0  0  0  0  0  0  0  0  0  0  0
   25.8714  -18.2957  -18.3462 N   0  0  0  0  0  0  0  0  0  0  0  0
   26.2937  -17.3380  -17.5187 C   0  0  0  0  0  0  0  0  0  0  0  0
   26.8598  -16.1082  -17.7390 C   0  0  0  0  0  0  0  0  0  0  0  0
   27.1868  -15.3440  -16.6337 C   0  0  0  0  0  0  0  0  0  0  0  0
   26.9626  -15.7776  -15.3308 C   0  0  0  0  0  0  0  0  0  0  0  0
   26.3918  -17.0198  -15.1574 C   0  0  0  0  0  0  0  0  0  0  0  0
   26.0570  -17.8005  -16.2432 C   0  0  0  0  0  0  0  0  0  0  0  0
   25.9081  -20.9615  -13.1485 C   0  0  0  0  0  0  0  0  0  0  0  0
   25.4892  -22.1565  -13.0180 O   0  0  0  0  0  0  0  0  0  0  0  0
   26.3509  -21.5425   -7.9305 C   0  0  0  0  0  0  0  0  0  0  0  0
   25.6407  -20.2174   -8.2428 C   0  0  1  0  0  0  0  0  0  0  0  0
   26.1436  -19.2619   -7.1646 C   0  0  0  0  0  0  0  0  0  0  0  0
   26.0120  -19.7622   -9.6057 C   0  0  0  0  0  0  0  0  0  0  0  0
   25.5046  -20.5937  -10.7447 C   0  0  2  0  0  0  0  0  0  0  0  0
   25.9768  -20.1020  -12.0186 N   0  0  0  0  0  0  0  0  0  0  0  0
   23.9977  -20.6244  -10.7214 C   0  0  0  0  0  0  0  0  0  0  0  0
   23.3084  -19.8349  -11.4099 O   0  0  0  0  0  0  0  0  0  0  0  0
   23.3096  -21.5543   -9.9155 N   0  0  0  0  0  0  0  0  0  0  0  0
   21.8386  -21.5588   -9.9352 C   0  0  1  0  0  0  0  0  0  0  0  0
   21.3444  -22.5966   -8.9460 C   0  0  0  0  0  0  0  0  0  0  0  0
   19.8709  -22.7233   -8.9786 C   0  0  0  0  0  0  0  0  0  0  0  0
   19.4690  -23.8785   -8.0309 C   0  0  0  0  0  0  0  0  0  0  0  0
   17.9904  -24.0957   -8.2418 C   0  0  0  0  0  0  0  0  0  0  0  0
   17.6178  -25.2447   -7.4510 N   0  0  0  0  0  0  0  0  0  0  0  0
   21.3722  -20.2279   -9.5435 C   0  0  0  0  0  0  0  0  0  0  0  0
   20.1955  -19.7118  -10.0202 O   0  0  0  0  0  0  0  0  0  0  0  0
   22.0601  -19.5359   -8.7561 O   0  0  0  0  0  0  0  0  0  0  0  0
  2  1  1  6
  3  2  1  0
  3  4  1  0
  4 12  1  0
  4  5  2  0
  5  6  1  0
  7  8  2  0
  7  6  1  0
  9  8  1  0
 10  9  2  0
 11 10  1  0
 11 12  2  0
 12  7  1  0
 13  2  1  0
 14 13  2  0
 16 15  1  1
 16 18  1  0
 16 17  1  0
 19 18  1  1
 19 21  1  0
 19 20  1  0
 20 13  1  0
 21 23  1  0
 22 21  2  0
 23 24  1  0
 24 30  1  0
 24 25  1  1
 25 26  1  0
 27 26  1  0
 28 27  1  0
 29 28  1  0
 30 32  2  0
 30 31  1  0
M  END
$$$$
