WLK.pdb
     RDKit          3D

 32 33  0  0  1  0  0  0  0  0999 V2000
   20.6413  -18.5041  -13.5204 N   0  0  0  0  0  0  0  0  0  0  0  0
   21.0126  -19.6540  -14.3631 C   0  0  1  0  0  0  0  0  0  0  0  0
   20.6730  -19.2796  -15.8170 C   0  0  0  0  0  0  0  0  0  0  0  0
   19.2061  -19.3915  -15.9898 C   0  0  0  0  0  0  0  0  0  0  0  0
   18.3862  -20.4477  -15.5845 C   0  0  0  0  0  0  0  0  0  0  0  0
   17.1300  -20.1517  -15.9351 N   0  0  0  0  0  0  0  0  0  0  0  0
   17.0595  -18.9681  -16.5467 C   0  0  0  0  0  0  0  0  0  0  0  0
   16.0094  -18.2592  -17.0721 C   0  0  0  0  0  0  0  0  0  0  0  0
   16.2862  -17.0329  -17.6486 C   0  0  0  0  0  0  0  0  0  0  0  0
   17.5733  -16.5078  -17.7098 C   0  0  0  0  0  0  0  0  0  0  0  0
   18.5972  -17.2549  -17.1691 C   0  0  0  0  0  0  0  0  0  0  0  0
   18.3468  -18.4802  -16.5890 C   0  0  0  0  0  0  0  0  0  0  0  0
   22.4882  -19.8187  -14.2910 C   0  0  0  0  0  0  0  0  0  0  0  0
   23.2731  -19.1066  -14.9961 O   0  0  0  0  0  0  0  0  0  0  0  0
   25.0826  -21.3432   -9.5331 C   0  0  0  0  0  0  0  0  0  0  0  0
   24.6056  -20.6347  -10.8092 C   0  0  1  0  0  0  0  0  0  0  0  0
   25.4275  -19.3498  -10.8515 C   0  0  0  0  0  0  0  0  0  0  0  0
   24.8661  -21.5000  -11.9865 C   0  0  0  0  0  0  0  0  0  0  0  0
   24.4485  -20.9530  -13.3179 C   0  0  2  0  0  0  0  0  0  0  0  0
   23.0147  -20.8005  -13.4083 N   0  0  0  0  0  0  0  0  0  0  0  0
   24.9497  -21.8531  -14.4184 C   0  0  0  0  0  0  0  0  0  0  0  0
   24.1946  -22.6627  -15.0073 O   0  0  0  0  0  0  0  0  0  0  0  0
   26.2991  -21.8101  -14.8244 N   0  0  0  0  0  0  0  0  0  0  0  0
   26.7345  -22.6733  -15.9332 C   0  0  1  0  0  0  0  0  0  0  0  0
   28.1986  -22.3969  -16.2158 C   0  0  0  0  0  0  0  0  0  0  0  0
   28.7147  -23.2528  -17.3064 C   0  0  0  0  0  0  0  0  0  0  0  0
   30.2191  -22.9399  -17.4887 C   0  0  0  0  0  0  0  0  0  0  0  0
   30.6975  -23.8307  -18.6092 C   0  0  0  0  0  0  0  0  0  0  0  0
   32.1215  -23.6253  -18.7300 N   0  0  0  0  0  0  0  0  0  0  0  0
   26.5552  -24.0674  -15.5246 C   0  0  0  0  0  0  0  0  0  0  0  0
   26.3462  -25.0624  -16.4436 O   0  0  0  0  0  0  0  0  0  0  0  0
   26.5895  -24.3668  -14.3076 O   0  0  0  0  0  0  0  0  0  0  0  0
  2  1  1  1
  3  2  1  0
  3  4  1  0
  4 12  1  0
  4  5  2  0
  5  6  1  0
  7  8  2  0
  7  6  1  0
  9  8  1  0
 10  9  2  0
 11 10  1  0
 11 12  2  0
 12  7  1  0
 13  2  1  0
 14 13  2  0
 16 15  1  1
 16 18  1  0
 16 17  1  0
 19 18  1  1
 19 21  1  0
 19 20  1  0
 20 13  1  0
 21 23  1  0
 22 21  2  0
 23 24  1  0
 24 30  1  0
 24 25  1  1
 25 26  1  0
 27 26  1  0
 28 27  1  0
 29 28  1  0
 30 32  2  0
 30 31  1  0
M  END
$$$$
