WLK.pdb
     RDKit          3D

 32 33  0  0  1  0  0  0  0  0999 V2000
   26.2866  -18.6967   -8.1610 N   0  0  0  0  0  0  0  0  0  0  0  0
   26.7892  -19.9254   -8.7998 C   0  0  1  0  0  0  0  0  0  0  0  0
   26.3265  -21.1099   -7.9324 C   0  0  0  0  0  0  0  0  0  0  0  0
   26.8489  -20.9070   -6.5612 C   0  0  0  0  0  0  0  0  0  0  0  0
   26.1297  -20.9729   -5.3653 C   0  0  0  0  0  0  0  0  0  0  0  0
   26.9769  -20.7239   -4.3609 N   0  0  0  0  0  0  0  0  0  0  0  0
   28.2128  -20.4969   -4.8095 C   0  0  0  0  0  0  0  0  0  0  0  0
   29.3905  -20.2060   -4.1694 C   0  0  0  0  0  0  0  0  0  0  0  0
   30.5185  -20.0263   -4.9493 C   0  0  0  0  0  0  0  0  0  0  0  0
   30.4938  -20.1299   -6.3365 C   0  0  0  0  0  0  0  0  0  0  0  0
   29.2886  -20.4237   -6.9365 C   0  0  0  0  0  0  0  0  0  0  0  0
   28.1501  -20.6073   -6.1809 C   0  0  0  0  0  0  0  0  0  0  0  0
   26.1174  -20.0651  -10.1186 C   0  0  0  0  0  0  0  0  0  0  0  0
   25.0064  -19.4942  -10.3639 O   0  0  0  0  0  0  0  0  0  0  0  0
   29.2387  -19.9747  -15.0049 C   0  0  0  0  0  0  0  0  0  0  0  0
   28.0968  -19.6035  -14.0479 C   0  0  1  0  0  0  0  0  0  0  0  0
   27.0641  -18.9269  -14.9446 C   0  0  0  0  0  0  0  0  0  0  0  0
   27.5602  -20.8326  -13.4120 C   0  0  0  0  0  0  0  0  0  0  0  0
   26.3865  -20.6492  -12.4982 C   0  0  2  0  0  0  0  0  0  0  0  0
   26.7467  -20.8596  -11.1150 N   0  0  0  0  0  0  0  0  0  0  0  0
   25.2772  -21.5880  -12.8990 C   0  0  0  0  0  0  0  0  0  0  0  0
   25.4382  -22.8314  -12.9233 O   0  0  0  0  0  0  0  0  0  0  0  0
   24.0092  -21.0899  -13.2620 N   0  0  0  0  0  0  0  0  0  0  0  0
   22.9192  -22.0436  -13.5193 C   0  0  1  0  0  0  0  0  0  0  0  0
   21.5998  -21.2979  -13.4618 C   0  0  0  0  0  0  0  0  0  0  0  0
   20.4515  -22.2027  -13.6875 C   0  0  0  0  0  0  0  0  0  0  0  0
   19.1605  -21.3500  -13.6722 C   0  0  0  0  0  0  0  0  0  0  0  0
   18.0204  -22.3155  -13.8866 C   0  0  0  0  0  0  0  0  0  0  0  0
   16.8010  -21.5445  -13.8305 N   0  0  0  0  0  0  0  0  0  0  0  0
   23.1168  -22.6147  -14.8524 C   0  0  0  0  0  0  0  0  0  0  0  0
   22.7421  -23.9003  -15.1441 O   0  0  0  0  0  0  0  0  0  0  0  0
   23.6428  -21.9197  -15.7537 O   0  0  0  0  0  0  0  0  0  0  0  0
  2  1  1  1
  3  2  1  0
  3  4  1  0
  4 12  1  0
  4  5  2  0
  5  6  1  0
  7  8  2  0
  7  6  1  0
  9  8  1  0
 10  9  2  0
 11 10  1  0
 11 12  2  0
 12  7  1  0
 13  2  1  0
 14 13  2  0
 16 15  1  6
 16 18  1  0
 16 17  1  0
 19 18  1  6
 19 21  1  0
 19 20  1  0
 20 13  1  0
 21 23  1  0
 22 21  2  0
 23 24  1  0
 24 30  1  0
 24 25  1  6
 25 26  1  0
 27 26  1  0
 28 27  1  0
 29 28  1  0
 30 32  2  0
 30 31  1  0
M  END
$$$$
