WLK.pdb
     RDKit          3D

 32 33  0  0  1  0  0  0  0  0999 V2000
   26.4481  -20.5053  -16.7969 N   0  0  0  0  0  0  0  0  0  0  0  0
   25.4696  -19.9034  -15.8747 C   0  0  1  0  0  0  0  0  0  0  0  0
   24.0859  -20.0260  -16.5378 C   0  0  0  0  0  0  0  0  0  0  0  0
   23.9328  -18.9040  -17.4927 C   0  0  0  0  0  0  0  0  0  0  0  0
   24.4143  -18.8382  -18.8025 C   0  0  0  0  0  0  0  0  0  0  0  0
   24.0621  -17.6528  -19.3117 N   0  0  0  0  0  0  0  0  0  0  0  0
   23.3776  -16.9252  -18.4273 C   0  0  0  0  0  0  0  0  0  0  0  0
   22.8195  -15.6740  -18.4928 C   0  0  0  0  0  0  0  0  0  0  0  0
   22.1609  -15.2046  -17.3708 C   0  0  0  0  0  0  0  0  0  0  0  0
   22.0501  -15.9498  -16.2011 C   0  0  0  0  0  0  0  0  0  0  0  0
   22.6262  -17.2015  -16.1809 C   0  0  0  0  0  0  0  0  0  0  0  0
   23.2881  -17.6917  -17.2865 C   0  0  0  0  0  0  0  0  0  0  0  0
   25.4335  -20.7301  -14.6398 C   0  0  0  0  0  0  0  0  0  0  0  0
   25.1559  -21.9719  -14.6775 O   0  0  0  0  0  0  0  0  0  0  0  0
   28.9277  -19.9535  -10.4577 C   0  0  0  0  0  0  0  0  0  0  0  0
   28.0404  -20.5308  -11.5699 C   0  0  1  0  0  0  0  0  0  0  0  0
   28.5169  -21.9730  -11.7159 C   0  0  0  0  0  0  0  0  0  0  0  0
   26.6158  -20.4552  -11.1604 C   0  0  0  0  0  0  0  0  0  0  0  0
   25.6071  -20.8775  -12.1853 C   0  0  2  0  0  0  0  0  0  0  0  0
   25.7181  -20.1000  -13.3979 N   0  0  0  0  0  0  0  0  0  0  0  0
   24.2179  -20.7582  -11.6122 C   0  0  0  0  0  0  0  0  0  0  0  0
   23.5728  -19.6838  -11.6574 O   0  0  0  0  0  0  0  0  0  0  0  0
   23.5941  -21.8654  -11.0017 N   0  0  0  0  0  0  0  0  0  0  0  0
   22.2790  -21.6794  -10.3693 C   0  0  1  0  0  0  0  0  0  0  0  0
   21.8082  -23.0160   -9.8291 C   0  0  0  0  0  0  0  0  0  0  0  0
   20.3480  -23.0251   -9.5929 C   0  0  0  0  0  0  0  0  0  0  0  0
   19.9438  -24.4521   -9.1518 C   0  0  0  0  0  0  0  0  0  0  0  0
   18.4992  -24.3629   -8.7237 C   0  0  0  0  0  0  0  0  0  0  0  0
   18.0834  -25.6988   -8.3678 N   0  0  0  0  0  0  0  0  0  0  0  0
   22.4298  -20.7191   -9.2750 C   0  0  0  0  0  0  0  0  0  0  0  0
   21.4115  -19.8747   -8.9170 O   0  0  0  0  0  0  0  0  0  0  0  0
   23.5132  -20.6591   -8.6468 O   0  0  0  0  0  0  0  0  0  0  0  0
  2  1  1  6
  3  2  1  0
  3  4  1  0
  4 12  1  0
  4  5  2  0
  5  6  1  0
  7  8  2  0
  7  6  1  0
  9  8  1  0
 10  9  2  0
 11 10  1  0
 11 12  2  0
 12  7  1  0
 13  2  1  0
 14 13  2  0
 16 15  1  1
 16 18  1  0
 16 17  1  0
 19 18  1  1
 19 21  1  0
 19 20  1  0
 20 13  1  0
 21 23  1  0
 22 21  2  0
 23 24  1  0
 24 30  1  0
 24 25  1  1
 25 26  1  0
 27 26  1  0
 28 27  1  0
 29 28  1  0
 30 32  2  0
 30 31  1  0
M  END
$$$$
