WLK.pdb
     RDKit          3D

 32 33  0  0  1  0  0  0  0  0999 V2000
   25.4292  -21.8131  -10.5338 N   0  0  0  0  0  0  0  0  0  0  0  0
   24.9736  -20.6571  -11.3253 C   0  0  1  0  0  0  0  0  0  0  0  0
   24.9108  -19.4504  -10.3716 C   0  0  0  0  0  0  0  0  0  0  0  0
   24.6280  -19.9563   -9.0084 C   0  0  0  0  0  0  0  0  0  0  0  0
   25.4942  -19.9591   -7.9122 C   0  0  0  0  0  0  0  0  0  0  0  0
   24.8475  -20.5073   -6.8778 N   0  0  0  0  0  0  0  0  0  0  0  0
   23.6079  -20.8693   -7.2131 C   0  0  0  0  0  0  0  0  0  0  0  0
   22.5918  -21.4569   -6.5036 C   0  0  0  0  0  0  0  0  0  0  0  0
   21.4029  -21.7015   -7.1665 C   0  0  0  0  0  0  0  0  0  0  0  0
   21.2114  -21.3752   -8.5054 C   0  0  0  0  0  0  0  0  0  0  0  0
   22.2598  -20.7864   -9.1785 C   0  0  0  0  0  0  0  0  0  0  0  0
   23.4549  -20.5324   -8.5398 C   0  0  0  0  0  0  0  0  0  0  0  0
   26.0177  -20.3546  -12.3393 C   0  0  0  0  0  0  0  0  0  0  0  0
   26.1015  -19.2088  -12.8876 O   0  0  0  0  0  0  0  0  0  0  0  0
   31.1655  -21.5121  -11.6610 C   0  0  0  0  0  0  0  0  0  0  0  0
   29.7896  -20.9243  -12.0063 C   0  0  1  0  0  0  0  0  0  0  0  0
   30.0478  -19.4268  -12.1436 C   0  0  0  0  0  0  0  0  0  0  0  0
   29.2962  -21.5214  -13.2724 C   0  0  0  0  0  0  0  0  0  0  0  0
   27.9225  -21.1109  -13.7090 C   0  0  2  0  0  0  0  0  0  0  0  0
   26.9337  -21.3828  -12.6913 N   0  0  0  0  0  0  0  0  0  0  0  0
   27.5627  -21.8180  -14.9907 C   0  0  0  0  0  0  0  0  0  0  0  0
   27.2524  -23.0328  -15.0124 O   0  0  0  0  0  0  0  0  0  0  0  0
   27.5632  -21.1256  -16.2188 N   0  0  0  0  0  0  0  0  0  0  0  0
   26.5092  -21.4223  -17.2012 C   0  0  1  0  0  0  0  0  0  0  0  0
   25.1802  -20.9519  -16.6424 C   0  0  0  0  0  0  0  0  0  0  0  0
   24.0703  -21.2076  -17.5863 C   0  0  0  0  0  0  0  0  0  0  0  0
   22.7695  -20.6560  -16.9557 C   0  0  0  0  0  0  0  0  0  0  0  0
   21.6591  -21.0071  -17.9157 C   0  0  0  0  0  0  0  0  0  0  0  0
   20.4374  -20.4796  -17.3557 N   0  0  0  0  0  0  0  0  0  0  0  0
   26.8196  -20.7009  -18.4364 C   0  0  0  0  0  0  0  0  0  0  0  0
   26.7409  -21.3103  -19.6614 O   0  0  0  0  0  0  0  0  0  0  0  0
   27.1688  -19.4980  -18.3816 O   0  0  0  0  0  0  0  0  0  0  0  0
  2  1  1  1
  3  2  1  0
  3  4  1  0
  4 12  1  0
  4  5  2  0
  5  6  1  0
  7  8  2  0
  7  6  1  0
  9  8  1  0
 10  9  2  0
 11 10  1  0
 11 12  2  0
 12  7  1  0
 13  2  1  0
 14 13  2  0
 16 15  1  6
 16 18  1  0
 16 17  1  0
 19 18  1  1
 19 21  1  0
 19 20  1  0
 20 13  1  0
 21 23  1  0
 22 21  2  0
 23 24  1  0
 24 30  1  0
 24 25  1  1
 25 26  1  0
 27 26  1  0
 28 27  1  0
 29 28  1  0
 30 32  2  0
 30 31  1  0
M  END
$$$$
