WLK.pdb
     RDKit          3D

 32 33  0  0  1  0  0  0  0  0999 V2000
   28.1231  -19.9369   -9.4782 N   0  0  0  0  0  0  0  0  0  0  0  0
   26.9563  -20.8161   -9.2891 C   0  0  1  0  0  0  0  0  0  0  0  0
   26.2527  -20.3648   -7.9965 C   0  0  0  0  0  0  0  0  0  0  0  0
   27.2486  -19.6669   -7.1508 C   0  0  0  0  0  0  0  0  0  0  0  0
   27.7174  -18.3595   -7.3026 C   0  0  0  0  0  0  0  0  0  0  0  0
   28.6086  -18.1264   -6.3331 N   0  0  0  0  0  0  0  0  0  0  0  0
   28.7638  -19.1922   -5.5458 C   0  0  0  0  0  0  0  0  0  0  0  0
   29.5492  -19.4230   -4.4452 C   0  0  0  0  0  0  0  0  0  0  0  0
   29.4682  -20.6676   -3.8475 C   0  0  0  0  0  0  0  0  0  0  0  0
   28.6300  -21.6723   -4.3206 C   0  0  0  0  0  0  0  0  0  0  0  0
   27.8592  -21.3956   -5.4289 C   0  0  0  0  0  0  0  0  0  0  0  0
   27.9221  -20.1627   -6.0425 C   0  0  0  0  0  0  0  0  0  0  0  0
   26.0089  -20.5688  -10.4076 C   0  0  0  0  0  0  0  0  0  0  0  0
   25.4750  -19.4274  -10.5882 O   0  0  0  0  0  0  0  0  0  0  0  0
   27.5094  -21.8473  -15.4264 C   0  0  0  0  0  0  0  0  0  0  0  0
   26.9256  -21.1665  -14.1800 C   0  0  1  0  0  0  0  0  0  0  0  0
   26.5494  -19.7681  -14.6608 C   0  0  0  0  0  0  0  0  0  0  0  0
   25.7432  -21.9273  -13.7045 C   0  0  0  0  0  0  0  0  0  0  0  0
   25.0186  -21.3577  -12.5226 C   0  0  2  0  0  0  0  0  0  0  0  0
   25.7049  -21.6455  -11.2842 N   0  0  0  0  0  0  0  0  0  0  0  0
   23.6117  -21.8972  -12.4792 C   0  0  0  0  0  0  0  0  0  0  0  0
   23.3743  -23.1132  -12.2856 O   0  0  0  0  0  0  0  0  0  0  0  0
   22.5067  -21.0396  -12.6559 N   0  0  0  0  0  0  0  0  0  0  0  0
   21.1503  -21.5927  -12.5207 C   0  0  1  0  0  0  0  0  0  0  0  0
   20.2043  -20.4686  -12.1447 C   0  0  0  0  0  0  0  0  0  0  0  0
   18.8186  -20.9566  -11.9720 C   0  0  0  0  0  0  0  0  0  0  0  0
   17.9056  -19.7300  -11.7352 C   0  0  0  0  0  0  0  0  0  0  0  0
   16.5560  -20.2832  -11.3477 C   0  0  0  0  0  0  0  0  0  0  0  0
   15.8259  -20.5063  -12.5731 N   0  0  0  0  0  0  0  0  0  0  0  0
   20.7611  -22.1685  -13.8089 C   0  0  0  0  0  0  0  0  0  0  0  0
   19.9428  -23.2651  -13.8858 O   0  0  0  0  0  0  0  0  0  0  0  0
   21.1836  -21.6544  -14.8715 O   0  0  0  0  0  0  0  0  0  0  0  0
  2  1  1  6
  3  2  1  0
  3  4  1  0
  4 12  1  0
  4  5  2  0
  5  6  1  0
  7  8  2  0
  7  6  1  0
  9  8  1  0
 10  9  2  0
 11 10  1  0
 11 12  2  0
 12  7  1  0
 13  2  1  0
 14 13  2  0
 16 15  1  6
 16 18  1  0
 16 17  1  0
 19 18  1  6
 19 21  1  0
 19 20  1  0
 20 13  1  0
 21 23  1  0
 22 21  2  0
 23 24  1  0
 24 30  1  0
 24 25  1  6
 25 26  1  0
 27 26  1  0
 28 27  1  0
 29 28  1  0
 30 32  2  0
 30 31  1  0
M  END
$$$$
