WLK.pdb
     RDKit          3D

 32 33  0  0  1  0  0  0  0  0999 V2000
   26.3459  -20.6437  -16.6039 N   0  0  0  0  0  0  0  0  0  0  0  0
   25.1752  -19.9222  -16.0755 C   0  0  1  0  0  0  0  0  0  0  0  0
   24.1420  -19.8387  -17.2135 C   0  0  0  0  0  0  0  0  0  0  0  0
   24.5046  -18.6936  -18.0803 C   0  0  0  0  0  0  0  0  0  0  0  0
   25.5834  -18.6120  -18.9644 C   0  0  0  0  0  0  0  0  0  0  0  0
   25.5494  -17.4080  -19.5456 N   0  0  0  0  0  0  0  0  0  0  0  0
   24.5190  -16.6829  -19.1070 C   0  0  0  0  0  0  0  0  0  0  0  0
   24.0835  -15.4174  -19.4077 C   0  0  0  0  0  0  0  0  0  0  0  0
   22.9526  -14.9558  -18.7590 C   0  0  0  0  0  0  0  0  0  0  0  0
   22.2576  -15.7225  -17.8289 C   0  0  0  0  0  0  0  0  0  0  0  0
   22.7314  -16.9878  -17.5582 C   0  0  0  0  0  0  0  0  0  0  0  0
   23.8567  -17.4707  -18.1917 C   0  0  0  0  0  0  0  0  0  0  0  0
   24.5706  -20.7526  -15.0009 C   0  0  0  0  0  0  0  0  0  0  0  0
   24.1626  -21.9374  -15.2247 O   0  0  0  0  0  0  0  0  0  0  0  0
   26.6126  -21.0634  -11.5630 C   0  0  0  0  0  0  0  0  0  0  0  0
   25.3752  -21.1959  -10.6636 C   0  0  1  0  0  0  0  0  0  0  0  0
   25.7934  -20.5333   -9.3542 C   0  0  0  0  0  0  0  0  0  0  0  0
   24.2243  -20.5026  -11.2942 C   0  0  0  0  0  0  0  0  0  0  0  0
   23.8308  -20.9772  -12.6603 C   0  0  2  0  0  0  0  0  0  0  0  0
   24.4539  -20.1914  -13.7002 N   0  0  0  0  0  0  0  0  0  0  0  0
   22.3305  -20.9365  -12.8011 C   0  0  0  0  0  0  0  0  0  0  0  0
   21.7056  -19.8560  -12.9220 O   0  0  0  0  0  0  0  0  0  0  0  0
   21.5756  -22.1272  -12.8025 N   0  0  0  0  0  0  0  0  0  0  0  0
   20.1208  -22.0450  -13.0052 C   0  0  1  0  0  0  0  0  0  0  0  0
   19.6347  -23.3672  -13.5666 C   0  0  0  0  0  0  0  0  0  0  0  0
   18.1648  -23.3825  -13.7317 C   0  0  0  0  0  0  0  0  0  0  0  0
   17.7485  -24.8039  -14.1794 C   0  0  0  0  0  0  0  0  0  0  0  0
   16.2484  -24.7674  -14.3419 C   0  0  0  0  0  0  0  0  0  0  0  0
   15.8372  -26.0917  -14.7437 N   0  0  0  0  0  0  0  0  0  0  0  0
   19.4926  -21.7873  -11.7085 C   0  0  0  0  0  0  0  0  0  0  0  0
   20.0885  -22.1689  -10.5349 O   0  0  0  0  0  0  0  0  0  0  0  0
   18.3822  -21.2069  -11.6612 O   0  0  0  0  0  0  0  0  0  0  0  0
  2  1  1  6
  3  2  1  0
  3  4  1  0
  4 12  1  0
  4  5  2  0
  5  6  1  0
  7  8  2  0
  7  6  1  0
  9  8  1  0
 10  9  2  0
 11 10  1  0
 11 12  2  0
 12  7  1  0
 13  2  1  0
 14 13  2  0
 16 15  1  6
 16 18  1  0
 16 17  1  0
 19 18  1  1
 19 21  1  0
 19 20  1  0
 20 13  1  0
 21 23  1  0
 22 21  2  0
 23 24  1  0
 24 30  1  0
 24 25  1  1
 25 26  1  0
 27 26  1  0
 28 27  1  0
 29 28  1  0
 30 32  2  0
 30 31  1  0
M  END
$$$$
