WLK.pdb
     RDKit          3D

 32 33  0  0  1  0  0  0  0  0999 V2000
   26.5885  -20.1562  -16.6374 N   0  0  0  0  0  0  0  0  0  0  0  0
   25.2234  -19.7545  -16.2556 C   0  0  1  0  0  0  0  0  0  0  0  0
   24.3470  -19.8710  -17.5156 C   0  0  0  0  0  0  0  0  0  0  0  0
   24.5395  -18.6449  -18.3243 C   0  0  0  0  0  0  0  0  0  0  0  0
   25.5322  -18.4103  -19.2789 C   0  0  0  0  0  0  0  0  0  0  0  0
   25.3490  -17.1797  -19.7697 N   0  0  0  0  0  0  0  0  0  0  0  0
   24.2995  -16.5800  -19.2049 C   0  0  0  0  0  0  0  0  0  0  0  0
   23.7351  -15.3424  -19.3821 C   0  0  0  0  0  0  0  0  0  0  0  0
   22.6253  -15.0271  -18.6194 C   0  0  0  0  0  0  0  0  0  0  0  0
   22.0756  -15.9109  -17.6961 C   0  0  0  0  0  0  0  0  0  0  0  0
   22.6757  -17.1430  -17.5516 C   0  0  0  0  0  0  0  0  0  0  0  0
   23.7830  -17.4810  -18.3003 C   0  0  0  0  0  0  0  0  0  0  0  0
   24.7094  -20.7478  -15.2764 C   0  0  0  0  0  0  0  0  0  0  0  0
   24.5284  -21.9665  -15.5966 O   0  0  0  0  0  0  0  0  0  0  0  0
   25.7600  -20.3780   -9.7831 C   0  0  0  0  0  0  0  0  0  0  0  0
   25.6080  -20.7164  -11.2731 C   0  0  1  0  0  0  0  0  0  0  0  0
   26.3858  -22.0183  -11.4408 C   0  0  0  0  0  0  0  0  0  0  0  0
   24.1703  -20.8818  -11.6023 C   0  0  0  0  0  0  0  0  0  0  0  0
   23.8517  -21.2483  -13.0202 C   0  0  2  0  0  0  0  0  0  0  0  0
   24.4189  -20.3059  -13.9571 N   0  0  0  0  0  0  0  0  0  0  0  0
   22.3576  -21.3319  -13.2015 C   0  0  0  0  0  0  0  0  0  0  0  0
   21.6223  -20.3198  -13.1156 O   0  0  0  0  0  0  0  0  0  0  0  0
   21.7345  -22.5661  -13.4776 N   0  0  0  0  0  0  0  0  0  0  0  0
   20.2825  -22.5912  -13.7122 C   0  0  1  0  0  0  0  0  0  0  0  0
   19.9468  -23.8173  -14.5392 C   0  0  0  0  0  0  0  0  0  0  0  0
   20.4048  -25.0608  -13.8818 C   0  0  0  0  0  0  0  0  0  0  0  0
   20.2220  -26.2263  -14.8830 C   0  0  0  0  0  0  0  0  0  0  0  0
   20.8158  -27.4442  -14.2182 C   0  0  0  0  0  0  0  0  0  0  0  0
   20.6644  -28.5430  -15.1425 N   0  0  0  0  0  0  0  0  0  0  0  0
   19.6108  -22.6606  -12.4135 C   0  0  0  0  0  0  0  0  0  0  0  0
   18.2516  -22.5258  -12.3015 O   0  0  0  0  0  0  0  0  0  0  0  0
   20.2872  -22.8449  -11.3741 O   0  0  0  0  0  0  0  0  0  0  0  0
  2  1  1  6
  3  2  1  0
  3  4  1  0
  4 12  1  0
  4  5  2  0
  5  6  1  0
  7  8  2  0
  7  6  1  0
  9  8  1  0
 10  9  2  0
 11 10  1  0
 11 12  2  0
 12  7  1  0
 13  2  1  0
 14 13  2  0
 16 15  1  1
 16 18  1  0
 16 17  1  0
 19 18  1  1
 19 21  1  0
 19 20  1  0
 20 13  1  0
 21 23  1  0
 22 21  2  0
 23 24  1  0
 24 30  1  0
 24 25  1  6
 25 26  1  0
 27 26  1  0
 28 27  1  0
 29 28  1  0
 30 32  2  0
 30 31  1  0
M  END
$$$$
