PMR.pdb
     RDKit          3D

 27 27  0  0  1  0  0  0  0  0999 V2000
   32.8999  -28.8431    4.2509 N   0  0  0  0  0  0  0  0  0  0  0  0
   32.6102  -30.2300    3.9340 C   0  0  0  0  0  0  0  0  0  0  0  0
   33.2707  -30.4647    2.5915 C   0  0  0  0  0  0  0  0  0  0  0  0
   34.0947  -29.1948    2.3269 C   0  0  0  0  0  0  0  0  0  0  0  0
   34.2339  -28.6872    3.7353 C   0  0  1  0  0  0  0  0  0  0  0  0
   34.7648  -27.3318    3.8618 C   0  0  0  0  0  0  0  0  0  0  0  0
   35.9052  -27.0726    3.4385 O   0  0  0  0  0  0  0  0  0  0  0  0
   31.5229  -22.5412    6.9616 C   0  0  0  0  0  0  0  0  0  0  0  0
   32.1950  -21.6782    5.5040 S   0  0  0  0  0  0  0  0  0  0  0  0
   33.6151  -22.6208    4.9189 C   0  0  0  0  0  0  0  0  0  0  0  0
   33.2540  -24.0909    4.9954 C   0  0  0  0  0  0  0  0  0  0  0  0
   34.4203  -24.9155    4.5011 C   0  0  2  0  0  0  0  0  0  0  0  0
   33.9861  -26.3083    4.4663 N   0  0  0  0  0  0  0  0  0  0  0  0
   35.5313  -24.7341    5.4752 C   0  0  0  0  0  0  0  0  0  0  0  0
   35.4965  -25.4180    6.5428 O   0  0  0  0  0  0  0  0  0  0  0  0
   43.4656  -25.6653    3.4774 N   0  0  0  0  0  0  0  0  0  0  0  0
   43.6273  -25.2620    4.8504 C   0  0  0  0  0  0  0  0  0  0  0  0
   44.7258  -25.4971    5.4821 N   0  0  0  0  0  0  0  0  0  0  0  0
   42.5728  -24.6014    5.5331 N   0  0  0  0  0  0  0  0  0  0  0  0
   41.2867  -24.4469    4.8919 C   0  0  0  0  0  0  0  0  0  0  0  0
   40.3315  -23.7300    5.7877 C   0  0  0  0  0  0  0  0  0  0  0  0
   38.9768  -23.6296    5.1597 C   0  0  0  0  0  0  0  0  0  0  0  0
   37.8517  -24.0829    6.0213 C   0  0  2  0  0  0  0  0  0  0  0  0
   36.6020  -23.8571    5.2748 N   0  0  0  0  0  0  0  0  0  0  0  0
   37.7755  -23.3944    7.3260 C   0  0  0  0  0  0  0  0  0  0  0  0
   38.6096  -23.6541    8.3973 O   0  0  0  0  0  0  0  0  0  0  0  0
   36.8978  -22.5086    7.4907 O   0  0  0  0  0  0  0  0  0  0  0  0
  1  5  1  0
  2  3  1  0
  2  1  1  0
  3  4  1  0
  4  5  1  0
  5  6  1  6
  6  7  2  0
  9  8  1  0
 10  9  1  0
 11 10  1  0
 12 11  1  1
 12 14  1  0
 13  6  1  0
 13 12  1  0
 14 24  1  0
 14 15  2  0
 16 17  1  0
 17 19  1  0
 18 17  2  0
 19 20  1  0
 20 21  1  0
 21 22  1  0
 23 22  1  6
 23 25  1  0
 24 23  1  0
 25 27  2  0
 25 26  1  0
M  END
$$$$
