PMR.pdb
     RDKit          3D

 27 27  0  0  1  0  0  0  0  0999 V2000
   27.7558  -18.7279  -14.7545 N   0  0  0  0  0  0  0  0  0  0  0  0
   28.6866  -18.2468  -15.7595 C   0  0  0  0  0  0  0  0  0  0  0  0
   29.6028  -19.4219  -16.0303 C   0  0  0  0  0  0  0  0  0  0  0  0
   28.9717  -20.6004  -15.2725 C   0  0  0  0  0  0  0  0  0  0  0  0
   27.5602  -20.0962  -15.1537 C   0  0  1  0  0  0  0  0  0  0  0  0
   26.6972  -20.8594  -14.2550 C   0  0  0  0  0  0  0  0  0  0  0  0
   26.2695  -21.9731  -14.6064 O   0  0  0  0  0  0  0  0  0  0  0  0
   25.5642  -20.6700   -7.5564 C   0  0  0  0  0  0  0  0  0  0  0  0
   27.1381  -20.3655   -8.4230 S   0  0  0  0  0  0  0  0  0  0  0  0
   26.9755  -21.0187  -10.0947 C   0  0  0  0  0  0  0  0  0  0  0  0
   25.6922  -20.4654  -10.6815 C   0  0  0  0  0  0  0  0  0  0  0  0
   25.4777  -21.0583  -12.0551 C   0  0  2  0  0  0  0  0  0  0  0  0
   26.3430  -20.3362  -12.9820 N   0  0  0  0  0  0  0  0  0  0  0  0
   24.0450  -20.8536  -12.4037 C   0  0  0  0  0  0  0  0  0  0  0  0
   23.6905  -19.6966  -12.7839 O   0  0  0  0  0  0  0  0  0  0  0  0
   17.6559  -22.7920  -16.0707 N   0  0  0  0  0  0  0  0  0  0  0  0
   18.5307  -23.6257  -16.8541 C   0  0  0  0  0  0  0  0  0  0  0  0
   18.4037  -23.6953  -18.1348 N   0  0  0  0  0  0  0  0  0  0  0  0
   19.5468  -24.3908  -16.2242 N   0  0  0  0  0  0  0  0  0  0  0  0
   19.7079  -24.3292  -14.7892 C   0  0  0  0  0  0  0  0  0  0  0  0
   20.0946  -22.9530  -14.3588 C   0  0  0  0  0  0  0  0  0  0  0  0
   21.4014  -22.9646  -13.6294 C   0  0  0  0  0  0  0  0  0  0  0  0
   21.7947  -21.6617  -13.0281 C   0  0  2  0  0  0  0  0  0  0  0  0
   23.0789  -21.8624  -12.3348 N   0  0  0  0  0  0  0  0  0  0  0  0
   20.8052  -21.1119  -12.0790 C   0  0  0  0  0  0  0  0  0  0  0  0
   19.5918  -20.5608  -12.4461 O   0  0  0  0  0  0  0  0  0  0  0  0
   21.0685  -21.1390  -10.8493 O   0  0  0  0  0  0  0  0  0  0  0  0
  1  5  1  0
  2  3  1  0
  2  1  1  0
  3  4  1  0
  4  5  1  0
  5  6  1  1
  6  7  2  0
  9  8  1  0
 10  9  1  0
 11 10  1  0
 12 11  1  1
 12 14  1  0
 13  6  1  0
 13 12  1  0
 14 24  1  0
 14 15  2  0
 16 17  1  0
 17 19  1  0
 18 17  2  0
 19 20  1  0
 20 21  1  0
 21 22  1  0
 23 22  1  1
 23 25  1  0
 24 23  1  0
 25 27  2  0
 25 26  1  0
M  END
$$$$
