PMR.pdb
     RDKit          3D

 27 27  0  0  1  0  0  0  0  0999 V2000
   22.1052  -14.7043  -19.1970 N   0  0  0  0  0  0  0  0  0  0  0  0
   21.5797  -15.8128  -19.9735 C   0  0  0  0  0  0  0  0  0  0  0  0
   20.9986  -16.7618  -18.9462 C   0  0  0  0  0  0  0  0  0  0  0  0
   21.0599  -15.9938  -17.6166 C   0  0  0  0  0  0  0  0  0  0  0  0
   21.1342  -14.5869  -18.1419 C   0  0  1  0  0  0  0  0  0  0  0  0
   21.4571  -13.5650  -17.1488 C   0  0  0  0  0  0  0  0  0  0  0  0
   20.7059  -13.3923  -16.1727 O   0  0  0  0  0  0  0  0  0  0  0  0
   27.7701  -13.9543  -15.0506 C   0  0  0  0  0  0  0  0  0  0  0  0
   26.9572  -12.5892  -15.9432 S   0  0  0  0  0  0  0  0  0  0  0  0
   25.1796  -12.7627  -15.7032 C   0  0  0  0  0  0  0  0  0  0  0  0
   24.5064  -11.5924  -16.3921 C   0  0  0  0  0  0  0  0  0  0  0  0
   23.0069  -11.7609  -16.3065 C   0  0  2  0  0  0  0  0  0  0  0  0
   22.6239  -12.7665  -17.2921 N   0  0  0  0  0  0  0  0  0  0  0  0
   22.3968  -10.4430  -16.6339 C   0  0  0  0  0  0  0  0  0  0  0  0
   22.4423  -10.0563  -17.8411 O   0  0  0  0  0  0  0  0  0  0  0  0
   14.7111   -7.2215  -14.9258 N   0  0  0  0  0  0  0  0  0  0  0  0
   15.3170   -6.1721  -15.7040 C   0  0  0  0  0  0  0  0  0  0  0  0
   14.6205   -5.1678  -16.1131 N   0  0  0  0  0  0  0  0  0  0  0  0
   16.6952   -6.2312  -16.0384 N   0  0  0  0  0  0  0  0  0  0  0  0
   17.4838   -7.3744  -15.6380 C   0  0  0  0  0  0  0  0  0  0  0  0
   18.8984   -7.2263  -16.0915 C   0  0  0  0  0  0  0  0  0  0  0  0
   19.7076   -8.4331  -15.7328 C   0  0  0  0  0  0  0  0  0  0  0  0
   21.1360   -8.3747  -16.1451 C   0  0  2  0  0  0  0  0  0  0  0  0
   21.7812   -9.6176  -15.6878 N   0  0  0  0  0  0  0  0  0  0  0  0
   21.8723   -7.2127  -15.6070 C   0  0  0  0  0  0  0  0  0  0  0  0
   21.7703   -5.9255  -16.1004 O   0  0  0  0  0  0  0  0  0  0  0  0
   22.6494   -7.3885  -14.6338 O   0  0  0  0  0  0  0  0  0  0  0  0
  1  5  1  0
  2  3  1  0
  2  1  1  0
  3  4  1  0
  4  5  1  0
  5  6  1  1
  6  7  2  0
  9  8  1  0
 10  9  1  0
 11 10  1  0
 12 11  1  6
 12 14  1  0
 13  6  1  0
 13 12  1  0
 14 24  1  0
 14 15  2  0
 16 17  1  0
 17 19  1  0
 18 17  2  0
 19 20  1  0
 20 21  1  0
 21 22  1  0
 23 22  1  1
 23 25  1  0
 24 23  1  0
 25 27  2  0
 25 26  1  0
M  END
$$$$
