PMR.pdb
     RDKit          3D

 27 27  0  0  1  0  0  0  0  0999 V2000
   27.0039  -20.7456  -15.8436 N   0  0  0  0  0  0  0  0  0  0  0  0
   28.0018  -21.7979  -15.7744 C   0  0  0  0  0  0  0  0  0  0  0  0
   28.9676  -21.3432  -14.7001 C   0  0  0  0  0  0  0  0  0  0  0  0
   28.3069  -20.1074  -14.0693 C   0  0  0  0  0  0  0  0  0  0  0  0
   26.8778  -20.3572  -14.4640 C   0  0  1  0  0  0  0  0  0  0  0  0
   25.9636  -19.2389  -14.2432 C   0  0  0  0  0  0  0  0  0  0  0  0
   25.7805  -18.8085  -13.0908 O   0  0  0  0  0  0  0  0  0  0  0  0
   25.8304  -14.5661  -18.0340 C   0  0  0  0  0  0  0  0  0  0  0  0
   26.7936  -14.5041  -16.4883 S   0  0  0  0  0  0  0  0  0  0  0  0
   26.1912  -15.8221  -15.4170 C   0  0  0  0  0  0  0  0  0  0  0  0
   24.9275  -16.3799  -16.0409 C   0  0  0  0  0  0  0  0  0  0  0  0
   24.3940  -17.4948  -15.1708 C   0  0  2  0  0  0  0  0  0  0  0  0
   25.2819  -18.6409  -15.3373 N   0  0  0  0  0  0  0  0  0  0  0  0
   23.0238  -17.8147  -15.6568 C   0  0  0  0  0  0  0  0  0  0  0  0
   22.9203  -18.4802  -16.7317 O   0  0  0  0  0  0  0  0  0  0  0  0
   18.4139  -22.2580  -12.0073 N   0  0  0  0  0  0  0  0  0  0  0  0
   19.3356  -22.8308  -12.9540 C   0  0  0  0  0  0  0  0  0  0  0  0
   19.2305  -24.0639  -13.3139 N   0  0  0  0  0  0  0  0  0  0  0  0
   20.3815  -22.0440  -13.5033 N   0  0  0  0  0  0  0  0  0  0  0  0
   20.3646  -20.6084  -13.3368 C   0  0  0  0  0  0  0  0  0  0  0  0
   19.6436  -19.9531  -14.4680 C   0  0  0  0  0  0  0  0  0  0  0  0
   19.7879  -18.4646  -14.4078 C   0  0  0  0  0  0  0  0  0  0  0  0
   20.5564  -17.8638  -15.5312 C   0  0  2  0  0  0  0  0  0  0  0  0
   21.8558  -17.4236  -14.9948 N   0  0  0  0  0  0  0  0  0  0  0  0
   19.8814  -16.7219  -16.1814 C   0  0  0  0  0  0  0  0  0  0  0  0
   18.8053  -16.8360  -17.0414 O   0  0  0  0  0  0  0  0  0  0  0  0
   20.3015  -15.5596  -15.9476 O   0  0  0  0  0  0  0  0  0  0  0  0
  1  5  1  0
  2  3  1  0
  2  1  1  0
  3  4  1  0
  4  5  1  0
  5  6  1  6
  6  7  2  0
  9  8  1  0
 10  9  1  0
 11 10  1  0
 12 11  1  6
 12 14  1  0
 13  6  1  0
 13 12  1  0
 14 24  1  0
 14 15  2  0
 16 17  1  0
 17 19  1  0
 18 17  2  0
 19 20  1  0
 20 21  1  0
 21 22  1  0
 23 22  1  1
 23 25  1  0
 24 23  1  0
 25 27  2  0
 25 26  1  0
M  END
$$$$
