PMR.pdb
     RDKit          3D

 27 27  0  0  1  0  0  0  0  0999 V2000
   27.1061  -19.4579  -12.9431 N   0  0  0  0  0  0  0  0  0  0  0  0
   27.7743  -19.4031  -14.2309 C   0  0  0  0  0  0  0  0  0  0  0  0
   28.7335  -20.5751  -14.2176 C   0  0  0  0  0  0  0  0  0  0  0  0
   28.3796  -21.3636  -12.9470 C   0  0  0  0  0  0  0  0  0  0  0  0
   26.9742  -20.8748  -12.7308 C   0  0  1  0  0  0  0  0  0  0  0  0
   26.3798  -21.2296  -11.4441 C   0  0  0  0  0  0  0  0  0  0  0  0
   26.1425  -22.4216  -11.1805 O   0  0  0  0  0  0  0  0  0  0  0  0
   28.0452  -19.9072   -5.0835 C   0  0  0  0  0  0  0  0  0  0  0  0
   27.4976  -18.6605   -6.2945 S   0  0  0  0  0  0  0  0  0  0  0  0
   27.2865  -19.4943   -7.8782 C   0  0  0  0  0  0  0  0  0  0  0  0
   25.8229  -19.3937   -8.2591 C   0  0  0  0  0  0  0  0  0  0  0  0
   25.4743  -20.5271   -9.1962 C   0  0  2  0  0  0  0  0  0  0  0  0
   26.0705  -20.2205  -10.4924 N   0  0  0  0  0  0  0  0  0  0  0  0
   23.9898  -20.5737   -9.2969 C   0  0  0  0  0  0  0  0  0  0  0  0
   23.4487  -20.0070  -10.2943 O   0  0  0  0  0  0  0  0  0  0  0  0
   18.0241  -25.5671   -5.0359 N   0  0  0  0  0  0  0  0  0  0  0  0
   17.4441  -25.2692   -6.3200 C   0  0  0  0  0  0  0  0  0  0  0  0
   16.3898  -25.8884   -6.7275 N   0  0  0  0  0  0  0  0  0  0  0  0
   18.0306  -24.2886   -7.1621 N   0  0  0  0  0  0  0  0  0  0  0  0
   19.3647  -23.8070   -6.8840 C   0  0  0  0  0  0  0  0  0  0  0  0
   19.8028  -22.8313   -7.9255 C   0  0  0  0  0  0  0  0  0  0  0  0
   21.1865  -22.3331   -7.6480 C   0  0  0  0  0  0  0  0  0  0  0  0
   21.7577  -21.4509   -8.7012 C   0  0  2  0  0  0  0  0  0  0  0  0
   23.1689  -21.2052   -8.3572 N   0  0  0  0  0  0  0  0  0  0  0  0
   21.0571  -20.1592   -8.8516 C   0  0  0  0  0  0  0  0  0  0  0  0
   19.9358  -19.9644   -9.6363 O   0  0  0  0  0  0  0  0  0  0  0  0
   21.4971  -19.1578   -8.2306 O   0  0  0  0  0  0  0  0  0  0  0  0
  1  5  1  0
  2  3  1  0
  2  1  1  0
  3  4  1  0
  4  5  1  0
  5  6  1  1
  6  7  2  0
  9  8  1  0
 10  9  1  0
 11 10  1  0
 12 11  1  1
 12 14  1  0
 13  6  1  0
 13 12  1  0
 14 24  1  0
 14 15  2  0
 16 17  1  0
 17 19  1  0
 18 17  2  0
 19 20  1  0
 20 21  1  0
 21 22  1  0
 23 22  1  1
 23 25  1  0
 24 23  1  0
 25 27  2  0
 25 26  1  0
M  END
$$$$
