PMR.pdb
     RDKit          3D

 27 27  0  0  1  0  0  0  0  0999 V2000
   26.9886  -19.5052  -14.3715 N   0  0  0  0  0  0  0  0  0  0  0  0
   27.6463  -19.3846  -15.6602 C   0  0  0  0  0  0  0  0  0  0  0  0
   28.6302  -20.5352  -15.7000 C   0  0  0  0  0  0  0  0  0  0  0  0
   28.3022  -21.3813  -14.4598 C   0  0  0  0  0  0  0  0  0  0  0  0
   26.8883  -20.9319  -14.2154 C   0  0  1  0  0  0  0  0  0  0  0  0
   26.3108  -21.3506  -12.9403 C   0  0  0  0  0  0  0  0  0  0  0  0
   26.0774  -22.5545  -12.7330 O   0  0  0  0  0  0  0  0  0  0  0  0
   28.4781  -19.6959   -7.1493 C   0  0  0  0  0  0  0  0  0  0  0  0
   26.7234  -19.2130   -7.0556 S   0  0  0  0  0  0  0  0  0  0  0  0
   25.8091  -20.2532   -8.2087 C   0  0  0  0  0  0  0  0  0  0  0  0
   26.2125  -19.8480   -9.6124 C   0  0  0  0  0  0  0  0  0  0  0  0
   25.5460  -20.7706  -10.6069 C   0  0  2  0  0  0  0  0  0  0  0  0
   26.0133  -20.3902  -11.9359 N   0  0  0  0  0  0  0  0  0  0  0  0
   24.0772  -20.5614  -10.4850 C   0  0  0  0  0  0  0  0  0  0  0  0
   23.5565  -19.6268  -11.1663 O   0  0  0  0  0  0  0  0  0  0  0  0
   18.2244  -25.1236   -6.0255 N   0  0  0  0  0  0  0  0  0  0  0  0
   18.0008  -25.1736   -7.4473 C   0  0  0  0  0  0  0  0  0  0  0  0
   17.3212  -26.1331   -7.9750 N   0  0  0  0  0  0  0  0  0  0  0  0
   18.5324  -24.1653   -8.2931 N   0  0  0  0  0  0  0  0  0  0  0  0
   19.1354  -22.9859   -7.7147 C   0  0  0  0  0  0  0  0  0  0  0  0
   19.6687  -22.0873   -8.7809 C   0  0  0  0  0  0  0  0  0  0  0  0
   21.1617  -22.0050   -8.7182 C   0  0  0  0  0  0  0  0  0  0  0  0
   21.7894  -21.1838   -9.7884 C   0  0  2  0  0  0  0  0  0  0  0  0
   23.2495  -21.3359   -9.6660 N   0  0  0  0  0  0  0  0  0  0  0  0
   21.4389  -19.7498   -9.7326 C   0  0  0  0  0  0  0  0  0  0  0  0
   20.5022  -19.1415  -10.5470 O   0  0  0  0  0  0  0  0  0  0  0  0
   22.0228  -19.0180   -8.8927 O   0  0  0  0  0  0  0  0  0  0  0  0
  1  5  1  0
  2  3  1  0
  2  1  1  0
  3  4  1  0
  4  5  1  0
  5  6  1  1
  6  7  2  0
  9  8  1  0
 10  9  1  0
 11 10  1  0
 12 11  1  1
 12 14  1  0
 13  6  1  0
 13 12  1  0
 14 24  1  0
 14 15  2  0
 16 17  1  0
 17 19  1  0
 18 17  2  0
 19 20  1  0
 20 21  1  0
 21 22  1  0
 23 22  1  1
 23 25  1  0
 24 23  1  0
 25 27  2  0
 25 26  1  0
M  END
$$$$
