PMR.pdb
     RDKit          3D

 27 27  0  0  1  0  0  0  0  0999 V2000
   27.8787  -18.8131  -15.4164 N   0  0  0  0  0  0  0  0  0  0  0  0
   28.8281  -18.2880  -16.3811 C   0  0  0  0  0  0  0  0  0  0  0  0
   29.9039  -19.3493  -16.4801 C   0  0  0  0  0  0  0  0  0  0  0  0
   29.3595  -20.5426  -15.6793 C   0  0  0  0  0  0  0  0  0  0  0  0
   27.8913  -20.2205  -15.7148 C   0  0  1  0  0  0  0  0  0  0  0  0
   27.0535  -21.0233  -14.8268 C   0  0  0  0  0  0  0  0  0  0  0  0
   26.9766  -22.2533  -14.9942 O   0  0  0  0  0  0  0  0  0  0  0  0
   25.9940  -19.0625   -8.9136 C   0  0  0  0  0  0  0  0  0  0  0  0
   25.6746  -20.8506   -8.7670 S   0  0  0  0  0  0  0  0  0  0  0  0
   25.1475  -21.4450  -10.3846 C   0  0  0  0  0  0  0  0  0  0  0  0
   25.8641  -20.6186  -11.4337 C   0  0  0  0  0  0  0  0  0  0  0  0
   25.5539  -21.1771  -12.8035 C   0  0  2  0  0  0  0  0  0  0  0  0
   26.3253  -20.4068  -13.7736 N   0  0  0  0  0  0  0  0  0  0  0  0
   24.0935  -20.9990  -13.0307 C   0  0  0  0  0  0  0  0  0  0  0  0
   23.6509  -19.8135  -13.1174 O   0  0  0  0  0  0  0  0  0  0  0  0
   16.8055  -22.7897  -12.6418 N   0  0  0  0  0  0  0  0  0  0  0  0
   16.6057  -23.5911  -13.8215 C   0  0  0  0  0  0  0  0  0  0  0  0
   15.4500  -23.6540  -14.3885 N   0  0  0  0  0  0  0  0  0  0  0  0
   17.6820  -24.3313  -14.3768 N   0  0  0  0  0  0  0  0  0  0  0  0
   18.9672  -24.3371  -13.7157 C   0  0  0  0  0  0  0  0  0  0  0  0
   19.6379  -23.0102  -13.8512 C   0  0  0  0  0  0  0  0  0  0  0  0
   21.0197  -23.0445  -13.2775 C   0  0  0  0  0  0  0  0  0  0  0  0
   21.7669  -21.7610  -13.3661 C   0  0  2  0  0  0  0  0  0  0  0  0
   23.1931  -22.0619  -13.1531 N   0  0  0  0  0  0  0  0  0  0  0  0
   21.3299  -20.7399  -12.3920 C   0  0  0  0  0  0  0  0  0  0  0  0
   21.6255  -20.7698  -11.0420 O   0  0  0  0  0  0  0  0  0  0  0  0
   20.6412  -19.7705  -12.8018 O   0  0  0  0  0  0  0  0  0  0  0  0
  1  5  1  0
  2  3  1  0
  2  1  1  0
  3  4  1  0
  4  5  1  0
  5  6  1  1
  6  7  2  0
  9  8  1  0
 10  9  1  0
 11 10  1  0
 12 11  1  1
 12 14  1  0
 13  6  1  0
 13 12  1  0
 14 24  1  0
 14 15  2  0
 16 17  1  0
 17 19  1  0
 18 17  2  0
 19 20  1  0
 20 21  1  0
 21 22  1  0
 23 22  1  1
 23 25  1  0
 24 23  1  0
 25 27  2  0
 25 26  1  0
M  END
$$$$
