PMR.pdb
     RDKit          3D

 27 27  0  0  1  0  0  0  0  0999 V2000
   28.1381  -19.2747  -14.0661 N   0  0  0  0  0  0  0  0  0  0  0  0
   29.0907  -19.0393  -15.1361 C   0  0  0  0  0  0  0  0  0  0  0  0
   29.8834  -20.3258  -15.2365 C   0  0  0  0  0  0  0  0  0  0  0  0
   29.1566  -21.3134  -14.3102 C   0  0  0  0  0  0  0  0  0  0  0  0
   27.8032  -20.6606  -14.2588 C   0  0  1  0  0  0  0  0  0  0  0  0
   26.8886  -21.1959  -13.2529 C   0  0  0  0  0  0  0  0  0  0  0  0
   26.2567  -22.2414  -13.4859 O   0  0  0  0  0  0  0  0  0  0  0  0
   28.7361  -20.5176   -6.6853 C   0  0  0  0  0  0  0  0  0  0  0  0
   27.2810  -19.8185   -7.5309 S   0  0  0  0  0  0  0  0  0  0  0  0
   27.0823  -20.6979   -9.0913 C   0  0  0  0  0  0  0  0  0  0  0  0
   25.8856  -20.1020   -9.8055 C   0  0  0  0  0  0  0  0  0  0  0  0
   25.6392  -20.8669  -11.0856 C   0  0  2  0  0  0  0  0  0  0  0  0
   26.7164  -20.5284  -12.0102 N   0  0  0  0  0  0  0  0  0  0  0  0
   24.3248  -20.4173  -11.6206 C   0  0  0  0  0  0  0  0  0  0  0  0
   24.2479  -19.2372  -12.0794 O   0  0  0  0  0  0  0  0  0  0  0  0
   17.6996  -23.0620  -14.5192 N   0  0  0  0  0  0  0  0  0  0  0  0
   17.8749  -22.3565  -15.7625 C   0  0  0  0  0  0  0  0  0  0  0  0
   16.8606  -22.0531  -16.4975 N   0  0  0  0  0  0  0  0  0  0  0  0
   19.1733  -21.9880  -16.2015 N   0  0  0  0  0  0  0  0  0  0  0  0
   20.3267  -22.3265  -15.3988 C   0  0  0  0  0  0  0  0  0  0  0  0
   20.4963  -21.3531  -14.2796 C   0  0  0  0  0  0  0  0  0  0  0  0
   21.7563  -21.6228  -13.5182 C   0  0  0  0  0  0  0  0  0  0  0  0
   21.9845  -20.7316  -12.3489 C   0  0  2  0  0  0  0  0  0  0  0  0
   23.1815  -21.2220  -11.6439 N   0  0  0  0  0  0  0  0  0  0  0  0
   20.8494  -20.6715  -11.4054 C   0  0  0  0  0  0  0  0  0  0  0  0
   19.6529  -20.0284  -11.6614 O   0  0  0  0  0  0  0  0  0  0  0  0
   20.9622  -21.2387  -10.2885 O   0  0  0  0  0  0  0  0  0  0  0  0
  1  5  1  0
  2  3  1  0
  2  1  1  0
  3  4  1  0
  4  5  1  0
  5  6  1  1
  6  7  2  0
  9  8  1  0
 10  9  1  0
 11 10  1  0
 12 11  1  1
 12 14  1  0
 13  6  1  0
 13 12  1  0
 14 24  1  0
 14 15  2  0
 16 17  1  0
 17 19  1  0
 18 17  2  0
 19 20  1  0
 20 21  1  0
 21 22  1  0
 23 22  1  6
 23 25  1  0
 24 23  1  0
 25 27  2  0
 25 26  1  0
M  END
$$$$
