PMR.pdb
     RDKit          3D

 27 27  0  0  1  0  0  0  0  0999 V2000
   30.8361  -21.9149  -10.6539 N   0  0  0  0  0  0  0  0  0  0  0  0
   32.1870  -22.4112  -10.8450 C   0  0  0  0  0  0  0  0  0  0  0  0
   32.7553  -22.5307   -9.4463 C   0  0  0  0  0  0  0  0  0  0  0  0
   31.5640  -22.2733   -8.5103 C   0  0  0  0  0  0  0  0  0  0  0  0
   30.4333  -22.5905   -9.4492 C   0  0  1  0  0  0  0  0  0  0  0  0
   29.1030  -22.2160   -8.9749 C   0  0  0  0  0  0  0  0  0  0  0  0
   28.7419  -22.5381   -7.8292 O   0  0  0  0  0  0  0  0  0  0  0  0
   28.1709  -19.5792   -4.2032 C   0  0  0  0  0  0  0  0  0  0  0  0
   27.9338  -18.9073   -5.8805 S   0  0  0  0  0  0  0  0  0  0  0  0
   27.5136  -20.2839   -6.9650 C   0  0  0  0  0  0  0  0  0  0  0  0
   27.4235  -19.7444   -8.3786 C   0  0  0  0  0  0  0  0  0  0  0  0
   27.0030  -20.8581   -9.3097 C   0  0  2  0  0  0  0  0  0  0  0  0
   28.2191  -21.4867   -9.8152 N   0  0  0  0  0  0  0  0  0  0  0  0
   26.2311  -20.2353  -10.4199 C   0  0  0  0  0  0  0  0  0  0  0  0
   26.8753  -19.5608  -11.2795 O   0  0  0  0  0  0  0  0  0  0  0  0
   18.0747  -22.5354  -12.2795 N   0  0  0  0  0  0  0  0  0  0  0  0
   19.2603  -23.2849  -11.9528 C   0  0  0  0  0  0  0  0  0  0  0  0
   19.1749  -24.4708  -11.4553 N   0  0  0  0  0  0  0  0  0  0  0  0
   20.5460  -22.7243  -12.1697 N   0  0  0  0  0  0  0  0  0  0  0  0
   20.6679  -21.4201  -12.7808 C   0  0  0  0  0  0  0  0  0  0  0  0
   22.1006  -21.0878  -13.0372 C   0  0  0  0  0  0  0  0  0  0  0  0
   22.8391  -20.8645  -11.7548 C   0  0  0  0  0  0  0  0  0  0  0  0
   24.2874  -20.5615  -11.9105 C   0  0  2  0  0  0  0  0  0  0  0  0
   24.8452  -20.3555  -10.5628 N   0  0  0  0  0  0  0  0  0  0  0  0
   24.5694  -19.3756  -12.7450 C   0  0  0  0  0  0  0  0  0  0  0  0
   24.6398  -19.3896  -14.1255 O   0  0  0  0  0  0  0  0  0  0  0  0
   24.7611  -18.2698  -12.1773 O   0  0  0  0  0  0  0  0  0  0  0  0
  1  5  1  0
  2  3  1  0
  2  1  1  0
  3  4  1  0
  4  5  1  0
  5  6  1  1
  6  7  2  0
  9  8  1  0
 10  9  1  0
 11 10  1  0
 12 11  1  1
 12 14  1  0
 13  6  1  0
 13 12  1  0
 14 24  1  0
 14 15  2  0
 16 17  1  0
 17 19  1  0
 18 17  2  0
 19 20  1  0
 20 21  1  0
 21 22  1  0
 23 22  1  1
 23 25  1  0
 24 23  1  0
 25 27  2  0
 25 26  1  0
M  END
$$$$
