ICS.pdb
     RDKit          3D

 21 20  0  0  1  0  0  0  0  0999 V2000
    7.3372  -11.7229   19.7091 C   0  0  0  0  0  0  0  0  0  0  0  0
    8.1866  -12.8442   19.2158 C   0  0  0  0  0  0  0  0  0  0  0  0
    8.0129  -14.1286   19.9636 C   0  0  2  0  0  0  0  0  0  0  0  0
    8.5154  -13.9199   21.3757 C   0  0  0  0  0  0  0  0  0  0  0  0
    8.7915  -15.2696   19.3548 C   0  0  2  0  0  0  0  0  0  0  0  0
    8.3164  -15.5978   18.0371 N   0  0  0  0  0  0  0  0  0  0  0  0
    8.6361  -16.4522   20.2747 C   0  0  0  0  0  0  0  0  0  0  0  0
    7.7555  -17.3210   20.0722 O   0  0  0  0  0  0  0  0  0  0  0  0
    9.5061  -16.5886   21.3982 N   0  0  0  0  0  0  0  0  0  0  0  0
    9.4684  -17.7348   22.2572 C   0  0  1  0  0  0  0  0  0  0  0  0
    9.8702  -18.9672   21.4902 C   0  0  0  0  0  0  0  0  0  0  0  0
   11.5041  -18.6652   20.7718 S   0  0  0  0  0  0  0  0  0  0  0  0
   10.3316  -17.5664   23.4616 C   0  0  0  0  0  0  0  0  0  0  0  0
   11.3328  -16.8168   23.3764 O   0  0  0  0  0  0  0  0  0  0  0  0
    9.1799  -19.1331   27.1164 O   0  0  0  0  0  0  0  0  0  0  0  0
   10.0981  -18.0857   27.1202 C   0  0  0  0  0  0  0  0  0  0  0  0
   10.9067  -18.0703   25.8352 C   0  0  2  0  0  0  0  0  0  0  0  0
   10.0519  -18.2206   24.6749 N   0  0  0  0  0  0  0  0  0  0  0  0
   11.9605  -19.1123   25.8558 C   0  0  0  0  0  0  0  0  0  0  0  0
   11.9689  -20.0870   25.0657 O   0  0  0  0  0  0  0  0  0  0  0  0
   13.0106  -19.0439   26.7813 O   0  0  0  0  0  0  0  0  0  0  0  0
  2  1  1  0
  3  2  1  0
  3  4  1  1
  5  7  1  0
  5  3  1  0
  5  6  1  6
  7  8  2  0
  9 10  1  0
  9  7  1  0
 11 12  1  0
 10 11  1  6
 13 18  1  0
 13 10  1  0
 14 13  2  0
 16 15  1  0
 17 18  1  0
 17 16  1  1
 19 17  1  0
 20 19  2  0
 21 19  1  0
M  END
$$$$
