ICS.pdb
     RDKit          3D

 21 20  0  0  1  0  0  0  0  0999 V2000
    6.8631  -11.8728   27.5231 C   0  0  0  0  0  0  0  0  0  0  0  0
    6.2063  -13.0280   26.8478 C   0  0  0  0  0  0  0  0  0  0  0  0
    7.1319  -13.8809   26.0386 C   0  0  2  0  0  0  0  0  0  0  0  0
    7.7013  -13.0283   24.9256 C   0  0  0  0  0  0  0  0  0  0  0  0
    6.4373  -15.0651   25.4109 C   0  0  2  0  0  0  0  0  0  0  0  0
    5.8752  -15.9424   26.4029 N   0  0  0  0  0  0  0  0  0  0  0  0
    7.4659  -15.7975   24.5897 C   0  0  0  0  0  0  0  0  0  0  0  0
    8.2922  -16.5731   25.1255 O   0  0  0  0  0  0  0  0  0  0  0  0
    7.5027  -15.6069   23.1754 N   0  0  0  0  0  0  0  0  0  0  0  0
    8.4156  -16.3212   22.3332 C   0  0  1  0  0  0  0  0  0  0  0  0
    8.1109  -16.0376   20.8857 C   0  0  0  0  0  0  0  0  0  0  0  0
    6.7208  -14.8797   20.8280 S   0  0  0  0  0  0  0  0  0  0  0  0
    9.8385  -15.9962   22.6393 C   0  0  0  0  0  0  0  0  0  0  0  0
   10.1714  -14.7897   22.7118 O   0  0  0  0  0  0  0  0  0  0  0  0
   11.9488  -18.5998   24.5701 O   0  0  0  0  0  0  0  0  0  0  0  0
   12.6518  -17.4094   24.3994 C   0  0  0  0  0  0  0  0  0  0  0  0
   12.1814  -16.6768   23.1556 C   0  0  2  0  0  0  0  0  0  0  0  0
   10.8029  -16.9989   22.8460 N   0  0  0  0  0  0  0  0  0  0  0  0
   13.0651  -16.9645   22.0010 C   0  0  0  0  0  0  0  0  0  0  0  0
   12.6376  -17.4273   20.9160 O   0  0  0  0  0  0  0  0  0  0  0  0
   14.4432  -16.7238   22.0827 O   0  0  0  0  0  0  0  0  0  0  0  0
  2  1  1  0
  3  2  1  0
  3  4  1  6
  5  7  1  0
  5  3  1  0
  5  6  1  1
  7  8  2  0
  9 10  1  0
  9  7  1  0
 11 12  1  0
 10 11  1  6
 13 18  1  0
 13 10  1  0
 14 13  2  0
 16 15  1  0
 17 18  1  0
 17 16  1  1
 19 17  1  0
 20 19  2  0
 21 19  1  0
M  END
$$$$
