ICS.pdb
     RDKit          3D

 21 20  0  0  1  0  0  0  0  0999 V2000
    7.5261  -12.0918   20.3303 C   0  0  0  0  0  0  0  0  0  0  0  0
    7.3670  -13.5706   20.4304 C   0  0  0  0  0  0  0  0  0  0  0  0
    8.6487  -14.3386   20.3506 C   0  0  2  0  0  0  0  0  0  0  0  0
    9.2288  -14.1391   18.9672 C   0  0  0  0  0  0  0  0  0  0  0  0
    8.4570  -15.8202   20.5673 C   0  0  2  0  0  0  0  0  0  0  0  0
    7.5178  -16.3800   19.6323 N   0  0  0  0  0  0  0  0  0  0  0  0
    7.9595  -16.0007   21.9776 C   0  0  0  0  0  0  0  0  0  0  0  0
    6.7330  -16.0215   22.2357 O   0  0  0  0  0  0  0  0  0  0  0  0
    8.8995  -16.1510   23.0414 N   0  0  0  0  0  0  0  0  0  0  0  0
    8.4896  -16.2896   24.4073 C   0  0  1  0  0  0  0  0  0  0  0  0
    8.8474  -17.6613   24.9161 C   0  0  0  0  0  0  0  0  0  0  0  0
   10.6410  -17.8567   24.7701 S   0  0  0  0  0  0  0  0  0  0  0  0
    9.0815  -15.2382   25.2838 C   0  0  0  0  0  0  0  0  0  0  0  0
   10.2059  -14.7739   24.9808 O   0  0  0  0  0  0  0  0  0  0  0  0
    7.0981  -12.4586   26.8408 O   0  0  0  0  0  0  0  0  0  0  0  0
    8.0091  -12.8004   27.8375 C   0  0  0  0  0  0  0  0  0  0  0  0
    9.0295  -13.7980   27.3190 C   0  0  2  0  0  0  0  0  0  0  0  0
    8.4160  -14.7617   26.4277 N   0  0  0  0  0  0  0  0  0  0  0  0
    9.7260  -14.4780   28.4366 C   0  0  0  0  0  0  0  0  0  0  0  0
    9.7029  -15.7224   28.5959 O   0  0  0  0  0  0  0  0  0  0  0  0
   10.4527  -13.7369   29.3781 O   0  0  0  0  0  0  0  0  0  0  0  0
  2  1  1  0
  3  2  1  0
  3  4  1  6
  5  7  1  0
  5  3  1  0
  5  6  1  6
  7  8  2  0
  9 10  1  0
  9  7  1  0
 11 12  1  0
 10 11  1  1
 13 18  1  0
 13 10  1  0
 14 13  2  0
 16 15  1  0
 17 18  1  0
 17 16  1  1
 19 17  1  0
 20 19  2  0
 21 19  1  0
M  END
$$$$
