ICS.pdb
     RDKit          3D

 21 20  0  0  1  0  0  0  0  0999 V2000
   10.7237  -13.1122   28.7078 C   0  0  0  0  0  0  0  0  0  0  0  0
   11.3781  -14.4174   28.4073 C   0  0  0  0  0  0  0  0  0  0  0  0
   10.4988  -15.4048   27.7066 C   0  0  2  0  0  0  0  0  0  0  0  0
    9.3394  -15.7318   28.6224 C   0  0  0  0  0  0  0  0  0  0  0  0
   11.2127  -16.6938   27.3785 C   0  0  2  0  0  0  0  0  0  0  0  0
   12.6357  -16.5066   27.2804 N   0  0  0  0  0  0  0  0  0  0  0  0
   10.6595  -17.1846   26.0663 C   0  0  0  0  0  0  0  0  0  0  0  0
    9.4603  -17.5333   25.9569 O   0  0  0  0  0  0  0  0  0  0  0  0
   11.5140  -17.2551   24.9249 N   0  0  0  0  0  0  0  0  0  0  0  0
   11.0816  -17.8231   23.6825 C   0  0  1  0  0  0  0  0  0  0  0  0
   11.0043  -16.7528   22.6257 C   0  0  0  0  0  0  0  0  0  0  0  0
   12.2953  -15.5332   22.9760 S   0  0  0  0  0  0  0  0  0  0  0  0
   11.9660  -18.9364   23.2326 C   0  0  0  0  0  0  0  0  0  0  0  0
   13.1784  -18.8988   23.5491 O   0  0  0  0  0  0  0  0  0  0  0  0
   10.5475  -21.7553   20.5908 O   0  0  0  0  0  0  0  0  0  0  0  0
   11.5381  -22.2362   21.4438 C   0  0  0  0  0  0  0  0  0  0  0  0
   12.3414  -21.0935   22.0388 C   0  0  2  0  0  0  0  0  0  0  0  0
   11.4775  -20.0135   22.4714 N   0  0  0  0  0  0  0  0  0  0  0  0
   13.3625  -20.6047   21.0823 C   0  0  0  0  0  0  0  0  0  0  0  0
   13.2678  -19.5023   20.4906 O   0  0  0  0  0  0  0  0  0  0  0  0
   14.4978  -21.3756   20.7981 O   0  0  0  0  0  0  0  0  0  0  0  0
  2  1  1  0
  3  2  1  0
  3  4  1  1
  5  7  1  0
  5  3  1  0
  5  6  1  6
  7  8  2  0
  9 10  1  0
  9  7  1  0
 11 12  1  0
 10 11  1  6
 13 18  1  0
 13 10  1  0
 14 13  2  0
 16 15  1  0
 17 18  1  0
 17 16  1  6
 19 17  1  0
 20 19  2  0
 21 19  1  0
M  END
$$$$
