ICS.pdb
     RDKit          3D

 21 20  0  0  1  0  0  0  0  0999 V2000
    7.5489  -12.8946   18.0553 C   0  0  0  0  0  0  0  0  0  0  0  0
    7.0485  -13.8003   19.1283 C   0  0  0  0  0  0  0  0  0  0  0  0
    7.9320  -13.8808   20.3333 C   0  0  2  0  0  0  0  0  0  0  0  0
    9.3167  -14.2816   19.8727 C   0  0  0  0  0  0  0  0  0  0  0  0
    7.4596  -14.9041   21.3375 C   0  0  2  0  0  0  0  0  0  0  0  0
    6.0696  -14.7294   21.6650 N   0  0  0  0  0  0  0  0  0  0  0  0
    8.3102  -14.7406   22.5698 C   0  0  0  0  0  0  0  0  0  0  0  0
    8.7327  -13.6142   22.9224 O   0  0  0  0  0  0  0  0  0  0  0  0
    8.6429  -15.8873   23.3523 N   0  0  0  0  0  0  0  0  0  0  0  0
    9.5670  -15.8227   24.4453 C   0  0  1  0  0  0  0  0  0  0  0  0
    8.8653  -16.1614   25.7342 C   0  0  0  0  0  0  0  0  0  0  0  0
    7.4971  -14.9949   25.9440 S   0  0  0  0  0  0  0  0  0  0  0  0
   10.7441  -16.7157   24.2429 C   0  0  0  0  0  0  0  0  0  0  0  0
   10.5398  -17.8948   23.8692 O   0  0  0  0  0  0  0  0  0  0  0  0
   14.1774  -15.3803   22.9413 O   0  0  0  0  0  0  0  0  0  0  0  0
   14.4482  -16.3396   23.9142 C   0  0  0  0  0  0  0  0  0  0  0  0
   13.2016  -17.1397   24.2471 C   0  0  2  0  0  0  0  0  0  0  0  0
   12.0610  -16.2714   24.4588 N   0  0  0  0  0  0  0  0  0  0  0  0
   13.4273  -18.0143   25.4222 C   0  0  0  0  0  0  0  0  0  0  0  0
   12.7531  -17.9243   26.4766 O   0  0  0  0  0  0  0  0  0  0  0  0
   14.4261  -18.9969   25.3963 O   0  0  0  0  0  0  0  0  0  0  0  0
  2  1  1  0
  3  2  1  0
  3  4  1  6
  5  7  1  0
  5  3  1  0
  5  6  1  1
  7  8  2  0
  9 10  1  0
  9  7  1  0
 11 12  1  0
 10 11  1  1
 13 18  1  0
 13 10  1  0
 14 13  2  0
 16 15  1  0
 17 18  1  0
 17 16  1  1
 19 17  1  0
 20 19  2  0
 21 19  1  0
M  END
$$$$
