ICS.pdb
     RDKit          3D

 21 20  0  0  1  0  0  0  0  0999 V2000
    7.2063  -12.4966   19.4202 C   0  0  0  0  0  0  0  0  0  0  0  0
    7.2403  -13.7712   20.1924 C   0  0  0  0  0  0  0  0  0  0  0  0
    8.0200  -13.7026   21.4677 C   0  0  2  0  0  0  0  0  0  0  0  0
    9.4442  -13.3220   21.1259 C   0  0  0  0  0  0  0  0  0  0  0  0
    8.0528  -15.0196   22.2046 C   0  0  2  0  0  0  0  0  0  0  0  0
    6.7397  -15.4285   22.6270 N   0  0  0  0  0  0  0  0  0  0  0  0
    8.9514  -14.8362   23.3995 C   0  0  0  0  0  0  0  0  0  0  0  0
   10.1830  -14.6467   23.2627 O   0  0  0  0  0  0  0  0  0  0  0  0
    8.3932  -14.8783   24.7127 N   0  0  0  0  0  0  0  0  0  0  0  0
    9.2086  -14.8313   25.8899 C   0  0  1  0  0  0  0  0  0  0  0  0
    8.5849  -13.9185   26.9128 C   0  0  0  0  0  0  0  0  0  0  0  0
    9.6698  -13.8854   28.3615 S   0  0  0  0  0  0  0  0  0  0  0  0
    9.4391  -16.1850   26.4715 C   0  0  0  0  0  0  0  0  0  0  0  0
    8.4547  -16.8119   26.9294 O   0  0  0  0  0  0  0  0  0  0  0  0
   13.1119  -18.1496   26.0480 O   0  0  0  0  0  0  0  0  0  0  0  0
   11.9305  -18.8719   26.1996 C   0  0  0  0  0  0  0  0  0  0  0  0
   10.9295  -18.1013   27.0419 C   0  0  2  0  0  0  0  0  0  0  0  0
   10.7187  -16.7670   26.5176 N   0  0  0  0  0  0  0  0  0  0  0  0
   11.3529  -18.0523   28.4614 C   0  0  0  0  0  0  0  0  0  0  0  0
   11.5621  -16.9764   29.0721 O   0  0  0  0  0  0  0  0  0  0  0  0
   11.5390  -19.2351   29.1895 O   0  0  0  0  0  0  0  0  0  0  0  0
  2  1  1  0
  3  2  1  0
  3  4  1  6
  5  7  1  0
  5  3  1  0
  5  6  1  1
  7  8  2  0
  9 10  1  0
  9  7  1  0
 11 12  1  0
 10 11  1  1
 13 18  1  0
 13 10  1  0
 14 13  2  0
 16 15  1  0
 17 18  1  0
 17 16  1  6
 19 17  1  0
 20 19  2  0
 21 19  1  0
M  END
$$$$
