ICS.pdb
     RDKit          3D

 21 20  0  0  1  0  0  0  0  0999 V2000
    6.7446  -17.2331   18.8393 C   0  0  0  0  0  0  0  0  0  0  0  0
    6.7655  -15.8228   19.3215 C   0  0  0  0  0  0  0  0  0  0  0  0
    7.4585  -15.6264   20.6331 C   0  0  2  0  0  0  0  0  0  0  0  0
    6.7334  -16.4515   21.6739 C   0  0  0  0  0  0  0  0  0  0  0  0
    7.4502  -14.1875   21.0892 C   0  0  2  0  0  0  0  0  0  0  0  0
    8.0559  -13.3156   20.1183 N   0  0  0  0  0  0  0  0  0  0  0  0
    8.2110  -14.1302   22.3880 C   0  0  0  0  0  0  0  0  0  0  0  0
    9.4569  -14.2652   22.4171 O   0  0  0  0  0  0  0  0  0  0  0  0
    7.5029  -13.9186   23.6093 N   0  0  0  0  0  0  0  0  0  0  0  0
    8.1401  -14.0241   24.8883 C   0  0  1  0  0  0  0  0  0  0  0  0
    7.4094  -13.1801   25.8993 C   0  0  0  0  0  0  0  0  0  0  0  0
    5.6825  -13.7220   25.9299 S   0  0  0  0  0  0  0  0  0  0  0  0
    8.2325  -15.4364   25.3582 C   0  0  0  0  0  0  0  0  0  0  0  0
    7.2143  -16.1622   25.2671 O   0  0  0  0  0  0  0  0  0  0  0  0
   11.4814  -17.5321   24.8601 O   0  0  0  0  0  0  0  0  0  0  0  0
   10.2746  -18.1486   25.1824 C   0  0  0  0  0  0  0  0  0  0  0  0
    9.5357  -17.3653   26.2527 C   0  0  2  0  0  0  0  0  0  0  0  0
    9.4202  -15.9661   25.8941 N   0  0  0  0  0  0  0  0  0  0  0  0
   10.1884  -17.5217   27.5742 C   0  0  0  0  0  0  0  0  0  0  0  0
   10.6030  -16.5475   28.2475 O   0  0  0  0  0  0  0  0  0  0  0  0
   10.3699  -18.7944   28.1318 O   0  0  0  0  0  0  0  0  0  0  0  0
  2  1  1  0
  3  2  1  0
  3  4  1  1
  5  7  1  0
  5  3  1  0
  5  6  1  6
  7  8  2  0
  9 10  1  0
  9  7  1  0
 11 12  1  0
 10 11  1  1
 13 18  1  0
 13 10  1  0
 14 13  2  0
 16 15  1  0
 17 18  1  0
 17 16  1  6
 19 17  1  0
 20 19  2  0
 21 19  1  0
M  END
$$$$
