ICS.pdb
     RDKit          3D

 21 20  0  0  1  0  0  0  0  0999 V2000
    8.0024  -12.6904   17.9398 C   0  0  0  0  0  0  0  0  0  0  0  0
    7.3593  -13.5836   18.9452 C   0  0  0  0  0  0  0  0  0  0  0  0
    8.0733  -13.6537   20.2584 C   0  0  2  0  0  0  0  0  0  0  0  0
    9.4412  -14.2538   20.0162 C   0  0  0  0  0  0  0  0  0  0  0  0
    7.3568  -14.5173   21.2682 C   0  0  2  0  0  0  0  0  0  0  0  0
    5.9555  -14.2003   21.3439 N   0  0  0  0  0  0  0  0  0  0  0  0
    8.0176  -14.2810   22.6010 C   0  0  0  0  0  0  0  0  0  0  0  0
    8.5752  -13.1898   22.8649 O   0  0  0  0  0  0  0  0  0  0  0  0
    8.0103  -15.3169   23.5833 N   0  0  0  0  0  0  0  0  0  0  0  0
    8.8306  -15.2609   24.7567 C   0  0  1  0  0  0  0  0  0  0  0  0
    8.0194  -14.7778   25.9301 C   0  0  0  0  0  0  0  0  0  0  0  0
    6.5395  -13.9608   25.2827 S   0  0  0  0  0  0  0  0  0  0  0  0
    9.4631  -16.5754   25.0665 C   0  0  0  0  0  0  0  0  0  0  0  0
    8.7364  -17.5968   25.0830 O   0  0  0  0  0  0  0  0  0  0  0  0
   13.6018  -16.9049   25.5773 O   0  0  0  0  0  0  0  0  0  0  0  0
   12.8952  -18.0001   25.0857 C   0  0  0  0  0  0  0  0  0  0  0  0
   11.4585  -17.9816   25.5764 C   0  0  2  0  0  0  0  0  0  0  0  0
   10.8382  -16.6941   25.3372 N   0  0  0  0  0  0  0  0  0  0  0  0
   11.3799  -18.3499   27.0098 C   0  0  0  0  0  0  0  0  0  0  0  0
   10.9406  -17.5701   27.8893 O   0  0  0  0  0  0  0  0  0  0  0  0
   11.8037  -19.6130   27.4442 O   0  0  0  0  0  0  0  0  0  0  0  0
  2  1  1  0
  3  2  1  0
  3  4  1  6
  5  7  1  0
  5  3  1  0
  5  6  1  1
  7  8  2  0
  9 10  1  0
  9  7  1  0
 11 12  1  0
 10 11  1  1
 13 18  1  0
 13 10  1  0
 14 13  2  0
 16 15  1  0
 17 18  1  0
 17 16  1  1
 19 17  1  0
 20 19  2  0
 21 19  1  0
M  END
$$$$
