ICS.pdb
     RDKit          3D

 21 20  0  0  1  0  0  0  0  0999 V2000
    7.6299  -11.9452   19.1494 C   0  0  0  0  0  0  0  0  0  0  0  0
    7.2663  -13.3784   19.3384 C   0  0  0  0  0  0  0  0  0  0  0  0
    7.4069  -13.8734   20.7435 C   0  0  2  0  0  0  0  0  0  0  0  0
    8.8728  -13.8168   21.1153 C   0  0  0  0  0  0  0  0  0  0  0  0
    6.9374  -15.2982   20.9113 C   0  0  2  0  0  0  0  0  0  0  0  0
    5.5573  -15.4538   20.5358 N   0  0  0  0  0  0  0  0  0  0  0  0
    7.1271  -15.6590   22.3614 C   0  0  0  0  0  0  0  0  0  0  0  0
    6.3983  -15.1654   23.2540 O   0  0  0  0  0  0  0  0  0  0  0  0
    8.1546  -16.5794   22.7288 N   0  0  0  0  0  0  0  0  0  0  0  0
    8.3914  -16.9539   24.0914 C   0  0  1  0  0  0  0  0  0  0  0  0
    7.3117  -17.8922   24.5631 C   0  0  0  0  0  0  0  0  0  0  0  0
    7.6391  -18.2864   26.2992 S   0  0  0  0  0  0  0  0  0  0  0  0
    9.7363  -17.5695   24.2821 C   0  0  0  0  0  0  0  0  0  0  0  0
    9.9785  -18.6595   23.7121 O   0  0  0  0  0  0  0  0  0  0  0  0
   12.9917  -15.7941   23.9248 O   0  0  0  0  0  0  0  0  0  0  0  0
   13.1341  -16.5152   25.1081 C   0  0  0  0  0  0  0  0  0  0  0  0
   12.0377  -17.5567   25.2424 C   0  0  2  0  0  0  0  0  0  0  0  0
   10.7262  -16.9633   25.0763 N   0  0  0  0  0  0  0  0  0  0  0  0
   12.1363  -18.2708   26.5374 C   0  0  0  0  0  0  0  0  0  0  0  0
   11.1990  -18.3000   27.3711 O   0  0  0  0  0  0  0  0  0  0  0  0
   13.3086  -18.9553   26.8849 O   0  0  0  0  0  0  0  0  0  0  0  0
  2  1  1  0
  3  2  1  0
  3  4  1  6
  5  7  1  0
  5  3  1  0
  5  6  1  1
  7  8  2  0
  9 10  1  0
  9  7  1  0
 11 12  1  0
 10 11  1  6
 13 18  1  0
 13 10  1  0
 14 13  2  0
 16 15  1  0
 17 18  1  0
 17 16  1  1
 19 17  1  0
 20 19  2  0
 21 19  1  0
M  END
$$$$
