ICS.pdb
     RDKit          3D

 21 20  0  0  1  0  0  0  0  0999 V2000
    7.8806  -18.6480   19.7268 C   0  0  0  0  0  0  0  0  0  0  0  0
    8.1740  -17.1987   19.9152 C   0  0  0  0  0  0  0  0  0  0  0  0
    8.5763  -16.8237   21.3069 C   0  0  2  0  0  0  0  0  0  0  0  0
    7.4104  -17.1162   22.2262 C   0  0  0  0  0  0  0  0  0  0  0  0
    8.9214  -15.3603   21.4415 C   0  0  2  0  0  0  0  0  0  0  0  0
   10.0089  -14.9859   20.5772 N   0  0  0  0  0  0  0  0  0  0  0  0
    9.2947  -15.1241   22.8816 C   0  0  0  0  0  0  0  0  0  0  0  0
   10.4152  -15.4675   23.3266 O   0  0  0  0  0  0  0  0  0  0  0  0
    8.3575  -14.4981   23.7577 N   0  0  0  0  0  0  0  0  0  0  0  0
    8.6408  -14.2760   25.1446 C   0  0  1  0  0  0  0  0  0  0  0  0
    7.6512  -13.2988   25.7228 C   0  0  0  0  0  0  0  0  0  0  0  0
    7.9923  -13.1464   27.4940 S   0  0  0  0  0  0  0  0  0  0  0  0
    8.6413  -15.5433   25.9307 C   0  0  0  0  0  0  0  0  0  0  0  0
    7.5692  -16.1863   26.0245 O   0  0  0  0  0  0  0  0  0  0  0  0
   11.8509  -18.0561   26.3565 O   0  0  0  0  0  0  0  0  0  0  0  0
   10.5091  -18.3726   26.5554 C   0  0  0  0  0  0  0  0  0  0  0  0
    9.7987  -17.2656   27.3138 C   0  0  2  0  0  0  0  0  0  0  0  0
    9.8017  -16.0275   26.5610 N   0  0  0  0  0  0  0  0  0  0  0  0
   10.3955  -17.0711   28.6565 C   0  0  0  0  0  0  0  0  0  0  0  0
   10.5326  -18.0062   29.4818 O   0  0  0  0  0  0  0  0  0  0  0  0
   10.8386  -15.8049   29.0614 O   0  0  0  0  0  0  0  0  0  0  0  0
  2  1  1  0
  3  2  1  0
  3  4  1  1
  5  7  1  0
  5  3  1  0
  5  6  1  6
  7  8  2  0
  9 10  1  0
  9  7  1  0
 11 12  1  0
 10 11  1  1
 13 18  1  0
 13 10  1  0
 14 13  2  0
 16 15  1  0
 17 18  1  0
 17 16  1  6
 19 17  1  0
 20 19  2  0
 21 19  1  0
M  END
$$$$
