GWG.pdb
     RDKit          3D

 23 24  0  0  1  0  0  0  0  0999 V2000
   29.0406  -18.3281  -15.4658 N   0  0  0  0  0  0  0  0  0  0  0  0
   28.1450  -18.2186  -14.3538 C   0  0  0  0  0  0  0  0  0  0  0  0
   27.3123  -19.4679  -14.1984 C   0  0  0  0  0  0  0  0  0  0  0  0
   27.0201  -20.1089  -15.2143 O   0  0  0  0  0  0  0  0  0  0  0  0
   26.8658  -19.9161  -12.9412 N   0  0  0  0  0  0  0  0  0  0  0  0
   26.1034  -21.0615  -12.6213 C   0  0  1  0  0  0  0  0  0  0  0  0
   26.3706  -21.7724  -11.3383 C   0  0  0  0  0  0  0  0  0  0  0  0
   26.2754  -21.0060  -10.0986 C   0  0  0  0  0  0  0  0  0  0  0  0
   25.2904  -20.3340   -9.4527 C   0  0  0  0  0  0  0  0  0  0  0  0
   25.7704  -19.8050   -8.3218 N   0  0  0  0  0  0  0  0  0  0  0  0
   27.0731  -20.1143   -8.1955 C   0  0  0  0  0  0  0  0  0  0  0  0
   28.0309  -19.8370   -7.2363 C   0  0  0  0  0  0  0  0  0  0  0  0
   29.3198  -20.2994   -7.3590 C   0  0  0  0  0  0  0  0  0  0  0  0
   29.6869  -21.0567   -8.4516 C   0  0  0  0  0  0  0  0  0  0  0  0
   28.7203  -21.3209   -9.3935 C   0  0  0  0  0  0  0  0  0  0  0  0
   27.4262  -20.8659   -9.2877 C   0  0  0  0  0  0  0  0  0  0  0  0
   24.6407  -20.9383  -12.7645 C   0  0  0  0  0  0  0  0  0  0  0  0
   24.0316  -20.0990  -12.0409 O   0  0  0  0  0  0  0  0  0  0  0  0
   23.8850  -21.7237  -13.6827 N   0  0  0  0  0  0  0  0  0  0  0  0
   22.4964  -21.4205  -13.8555 C   0  0  0  0  0  0  0  0  0  0  0  0
   21.6126  -22.5194  -13.4167 C   0  0  0  0  0  0  0  0  0  0  0  0
   20.2337  -22.4494  -13.4450 O   0  0  0  0  0  0  0  0  0  0  0  0
   22.1516  -23.5750  -12.9952 O   0  0  0  0  0  0  0  0  0  0  0  0
  1  2  1  0
  3  4  2  0
  3  2  1  0
  5  3  1  0
  6  5  1  0
  6 17  1  0
  6  7  1  1
  8  7  1  0
  9  8  2  0
 10 11  1  0
 10  9  1  0
 11 16  2  0
 12 11  1  0
 12 13  2  0
 13 14  1  0
 14 15  2  0
 16  8  1  0
 16 15  1  0
 17 19  1  0
 17 18  2  0
 19 20  1  0
 20 21  1  0
 21 23  2  0
 21 22  1  0
M  END
$$$$
