GWG.pdb
     RDKit          3D

 23 24  0  0  1  0  0  0  0  0999 V2000
   28.6241  -21.0806  -15.5463 N   0  0  0  0  0  0  0  0  0  0  0  0
   27.9224  -20.2337  -14.6292 C   0  0  0  0  0  0  0  0  0  0  0  0
   27.0198  -21.0377  -13.7251 C   0  0  0  0  0  0  0  0  0  0  0  0
   26.8240  -22.2273  -13.9982 O   0  0  0  0  0  0  0  0  0  0  0  0
   26.4033  -20.4737  -12.5925 N   0  0  0  0  0  0  0  0  0  0  0  0
   25.4998  -21.0644  -11.6813 C   0  0  1  0  0  0  0  0  0  0  0  0
   25.7621  -20.9383  -10.2190 C   0  0  0  0  0  0  0  0  0  0  0  0
   27.1422  -21.0656   -9.7579 C   0  0  0  0  0  0  0  0  0  0  0  0
   28.2687  -21.6512  -10.2344 C   0  0  0  0  0  0  0  0  0  0  0  0
   29.2791  -21.4484   -9.3816 N   0  0  0  0  0  0  0  0  0  0  0  0
   28.8463  -20.7288   -8.3311 C   0  0  0  0  0  0  0  0  0  0  0  0
   29.4597  -20.2420   -7.1904 C   0  0  0  0  0  0  0  0  0  0  0  0
   28.7611  -19.5076   -6.2616 C   0  0  0  0  0  0  0  0  0  0  0  0
   27.4217  -19.2389   -6.4506 C   0  0  0  0  0  0  0  0  0  0  0  0
   26.8309  -19.7318   -7.5905 C   0  0  0  0  0  0  0  0  0  0  0  0
   27.5138  -20.4690   -8.5301 C   0  0  0  0  0  0  0  0  0  0  0  0
   24.0684  -20.7859  -11.9014 C   0  0  0  0  0  0  0  0  0  0  0  0
   23.6842  -19.5814  -11.9256 O   0  0  0  0  0  0  0  0  0  0  0  0
   23.1003  -21.8152  -12.0880 N   0  0  0  0  0  0  0  0  0  0  0  0
   21.8257  -21.4595  -12.6346 C   0  0  0  0  0  0  0  0  0  0  0  0
   20.8018  -21.2311  -11.5950 C   0  0  0  0  0  0  0  0  0  0  0  0
   19.5987  -20.5961  -11.8330 O   0  0  0  0  0  0  0  0  0  0  0  0
   21.0447  -21.6400  -10.4304 O   0  0  0  0  0  0  0  0  0  0  0  0
  1  2  1  0
  3  4  2  0
  3  2  1  0
  5  3  1  0
  6  5  1  0
  6 17  1  0
  6  7  1  1
  8  7  1  0
  9  8  2  0
 10 11  1  0
 10  9  1  0
 11 16  2  0
 12 11  1  0
 12 13  2  0
 13 14  1  0
 14 15  2  0
 16  8  1  0
 16 15  1  0
 17 19  1  0
 17 18  2  0
 19 20  1  0
 20 21  1  0
 21 23  2  0
 21 22  1  0
M  END
$$$$
