GWG.pdb
     RDKit          3D

 23 24  0  0  1  0  0  0  0  0999 V2000
   25.2863  -24.8621  -14.7237 N   0  0  0  0  0  0  0  0  0  0  0  0
   25.2326  -23.4395  -14.8791 C   0  0  0  0  0  0  0  0  0  0  0  0
   24.2112  -22.8273  -13.9516 C   0  0  0  0  0  0  0  0  0  0  0  0
   23.7179  -23.5390  -13.0694 O   0  0  0  0  0  0  0  0  0  0  0  0
   23.8116  -21.4825  -14.0644 N   0  0  0  0  0  0  0  0  0  0  0  0
   22.9673  -20.7286  -13.2192 C   0  0  1  0  0  0  0  0  0  0  0  0
   23.5781  -19.8967  -12.1432 C   0  0  0  0  0  0  0  0  0  0  0  0
   24.8372  -20.3510  -11.5585 C   0  0  0  0  0  0  0  0  0  0  0  0
   25.1971  -20.9821  -10.4135 C   0  0  0  0  0  0  0  0  0  0  0  0
   26.5227  -21.1600  -10.3929 N   0  0  0  0  0  0  0  0  0  0  0  0
   27.0639  -20.6553  -11.5159 C   0  0  0  0  0  0  0  0  0  0  0  0
   28.3575  -20.5795  -12.0010 C   0  0  0  0  0  0  0  0  0  0  0  0
   28.6314  -20.0021  -13.2182 C   0  0  0  0  0  0  0  0  0  0  0  0
   27.6117  -19.4819  -13.9874 C   0  0  0  0  0  0  0  0  0  0  0  0
   26.3334  -19.5670  -13.4872 C   0  0  0  0  0  0  0  0  0  0  0  0
   26.0409  -20.1404  -12.2713 C   0  0  0  0  0  0  0  0  0  0  0  0
   21.9355  -19.9096  -13.8821 C   0  0  0  0  0  0  0  0  0  0  0  0
   21.1868  -19.1851  -13.1654 O   0  0  0  0  0  0  0  0  0  0  0  0
   21.7461  -19.8994  -15.2947 N   0  0  0  0  0  0  0  0  0  0  0  0
   20.7366  -19.0428  -15.8398 C   0  0  0  0  0  0  0  0  0  0  0  0
   19.5246  -19.7788  -16.2525 C   0  0  0  0  0  0  0  0  0  0  0  0
   18.8594  -19.5514  -17.4413 O   0  0  0  0  0  0  0  0  0  0  0  0
   19.0783  -20.6605  -15.4741 O   0  0  0  0  0  0  0  0  0  0  0  0
  1  2  1  0
  3  4  2  0
  3  2  1  0
  5  3  1  0
  6  5  1  0
  6 17  1  0
  6  7  1  6
  8  7  1  0
  9  8  2  0
 10 11  1  0
 10  9  1  0
 11 16  2  0
 12 11  1  0
 12 13  2  0
 13 14  1  0
 14 15  2  0
 16  8  1  0
 16 15  1  0
 17 19  1  0
 17 18  2  0
 19 20  1  0
 20 21  1  0
 21 23  2  0
 21 22  1  0
M  END
$$$$
