GWG.pdb
     RDKit          3D

 23 24  0  0  1  0  0  0  0  0999 V2000
   28.5272  -18.0934  -15.7772 N   0  0  0  0  0  0  0  0  0  0  0  0
   27.8042  -18.1206  -14.5413 C   0  0  0  0  0  0  0  0  0  0  0  0
   27.2429  -19.4948  -14.2675 C   0  0  0  0  0  0  0  0  0  0  0  0
   27.2918  -20.3394  -15.1689 O   0  0  0  0  0  0  0  0  0  0  0  0
   26.6724  -19.8346  -13.0266 N   0  0  0  0  0  0  0  0  0  0  0  0
   26.1339  -21.0690  -12.6000 C   0  0  1  0  0  0  0  0  0  0  0  0
   26.6854  -21.7129  -11.3736 C   0  0  0  0  0  0  0  0  0  0  0  0
   26.4780  -21.0387  -10.0945 C   0  0  0  0  0  0  0  0  0  0  0  0
   25.4045  -20.5559   -9.4211 C   0  0  0  0  0  0  0  0  0  0  0  0
   25.8010  -20.0255   -8.2589 N   0  0  0  0  0  0  0  0  0  0  0  0
   27.1351  -20.1461   -8.1389 C   0  0  0  0  0  0  0  0  0  0  0  0
   28.0413  -19.7842   -7.1580 C   0  0  0  0  0  0  0  0  0  0  0  0
   29.3843  -20.0444   -7.2950 C   0  0  0  0  0  0  0  0  0  0  0  0
   29.8593  -20.6776   -8.4244 C   0  0  0  0  0  0  0  0  0  0  0  0
   28.9424  -21.0287   -9.3874 C   0  0  0  0  0  0  0  0  0  0  0  0
   27.5954  -20.7757   -9.2677 C   0  0  0  0  0  0  0  0  0  0  0  0
   24.6636  -21.1529  -12.5229 C   0  0  0  0  0  0  0  0  0  0  0  0
   24.0229  -20.1499  -12.0958 O   0  0  0  0  0  0  0  0  0  0  0  0
   23.9343  -22.3151  -12.9088 N   0  0  0  0  0  0  0  0  0  0  0  0
   22.5128  -22.3145  -12.7376 C   0  0  0  0  0  0  0  0  0  0  0  0
   21.7941  -21.8150  -13.9272 C   0  0  0  0  0  0  0  0  0  0  0  0
   20.8626  -20.7962  -13.8860 O   0  0  0  0  0  0  0  0  0  0  0  0
   22.0490  -22.3508  -15.0364 O   0  0  0  0  0  0  0  0  0  0  0  0
  1  2  1  0
  3  4  2  0
  3  2  1  0
  5  3  1  0
  6  5  1  0
  6 17  1  0
  6  7  1  1
  8  7  1  0
  9  8  2  0
 10 11  1  0
 10  9  1  0
 11 16  2  0
 12 11  1  0
 12 13  2  0
 13 14  1  0
 14 15  2  0
 16  8  1  0
 16 15  1  0
 17 19  1  0
 17 18  2  0
 19 20  1  0
 20 21  1  0
 21 23  2  0
 21 22  1  0
M  END
$$$$
