GWG.pdb
     RDKit          3D

 23 24  0  0  1  0  0  0  0  0999 V2000
   28.6666  -20.9623  -15.4652 N   0  0  0  0  0  0  0  0  0  0  0  0
   27.9127  -20.1266  -14.5798 C   0  0  0  0  0  0  0  0  0  0  0  0
   26.9639  -20.9419  -13.7352 C   0  0  0  0  0  0  0  0  0  0  0  0
   26.7330  -22.1088  -14.0716 O   0  0  0  0  0  0  0  0  0  0  0  0
   26.3433  -20.4133  -12.5878 N   0  0  0  0  0  0  0  0  0  0  0  0
   25.4245  -21.0269  -11.7075 C   0  0  1  0  0  0  0  0  0  0  0  0
   25.6844  -20.9751  -10.2403 C   0  0  0  0  0  0  0  0  0  0  0  0
   27.0707  -21.0584   -9.7876 C   0  0  0  0  0  0  0  0  0  0  0  0
   28.2133  -21.6036  -10.2734 C   0  0  0  0  0  0  0  0  0  0  0  0
   29.2213  -21.3713   -9.4253 N   0  0  0  0  0  0  0  0  0  0  0  0
   28.7707  -20.6719   -8.3687 C   0  0  0  0  0  0  0  0  0  0  0  0
   29.3741  -20.1706   -7.2289 C   0  0  0  0  0  0  0  0  0  0  0  0
   28.6567  -19.4647   -6.2923 C   0  0  0  0  0  0  0  0  0  0  0  0
   27.3080  -19.2400   -6.4724 C   0  0  0  0  0  0  0  0  0  0  0  0
   26.7274  -19.7467   -7.6115 C   0  0  0  0  0  0  0  0  0  0  0  0
   27.4292  -20.4559   -8.5588 C   0  0  0  0  0  0  0  0  0  0  0  0
   24.0000  -20.7082  -11.9177 C   0  0  0  0  0  0  0  0  0  0  0  0
   23.6290  -19.5037  -11.8151 O   0  0  0  0  0  0  0  0  0  0  0  0
   23.0243  -21.6987  -12.2314 N   0  0  0  0  0  0  0  0  0  0  0  0
   21.7529  -21.2678  -12.7290 C   0  0  0  0  0  0  0  0  0  0  0  0
   20.6738  -21.3985  -11.7292 C   0  0  0  0  0  0  0  0  0  0  0  0
   19.4281  -20.8186  -11.8683 O   0  0  0  0  0  0  0  0  0  0  0  0
   20.9082  -22.0768  -10.6961 O   0  0  0  0  0  0  0  0  0  0  0  0
  1  2  1  0
  3  4  2  0
  3  2  1  0
  5  3  1  0
  6  5  1  0
  6 17  1  0
  6  7  1  1
  8  7  1  0
  9  8  2  0
 10 11  1  0
 10  9  1  0
 11 16  2  0
 12 11  1  0
 12 13  2  0
 13 14  1  0
 14 15  2  0
 16  8  1  0
 16 15  1  0
 17 19  1  0
 17 18  2  0
 19 20  1  0
 20 21  1  0
 21 23  2  0
 21 22  1  0
M  END
$$$$
