GWG.pdb
     RDKit          3D

 23 24  0  0  1  0  0  0  0  0999 V2000
   28.3960  -20.9093  -14.1554 N   0  0  0  0  0  0  0  0  0  0  0  0
   27.7728  -20.0035  -13.2379 C   0  0  0  0  0  0  0  0  0  0  0  0
   26.9855  -20.7471  -12.1864 C   0  0  0  0  0  0  0  0  0  0  0  0
   26.5807  -21.8847  -12.4512 O   0  0  0  0  0  0  0  0  0  0  0  0
   26.7045  -20.1847  -10.9272 N   0  0  0  0  0  0  0  0  0  0  0  0
   25.9047  -20.6948   -9.8805 C   0  0  1  0  0  0  0  0  0  0  0  0
   26.3043  -20.4271   -8.4693 C   0  0  0  0  0  0  0  0  0  0  0  0
   27.6912  -20.6844   -8.0902 C   0  0  0  0  0  0  0  0  0  0  0  0
   28.7656  -21.2545   -8.6900 C   0  0  0  0  0  0  0  0  0  0  0  0
   29.8161  -21.2206   -7.8626 N   0  0  0  0  0  0  0  0  0  0  0  0
   29.4623  -20.6308   -6.7070 C   0  0  0  0  0  0  0  0  0  0  0  0
   30.1428  -20.3356   -5.5390 C   0  0  0  0  0  0  0  0  0  0  0  0
   29.5202  -19.7015   -4.4901 C   0  0  0  0  0  0  0  0  0  0  0  0
   28.1916  -19.3433   -4.5825 C   0  0  0  0  0  0  0  0  0  0  0  0
   27.5332  -19.6459   -5.7515 C   0  0  0  0  0  0  0  0  0  0  0  0
   28.1398  -20.2806   -6.8107 C   0  0  0  0  0  0  0  0  0  0  0  0
   24.4536  -20.4530   -9.9847 C   0  0  0  0  0  0  0  0  0  0  0  0
   24.0376  -19.2589   -9.9693 O   0  0  0  0  0  0  0  0  0  0  0  0
   23.5008  -21.5064  -10.1021 N   0  0  0  0  0  0  0  0  0  0  0  0
   22.1255  -21.1611  -10.3002 C   0  0  0  0  0  0  0  0  0  0  0  0
   21.7691  -21.0301  -11.7274 C   0  0  0  0  0  0  0  0  0  0  0  0
   21.0663  -21.9882  -12.4311 O   0  0  0  0  0  0  0  0  0  0  0  0
   22.1280  -19.9857  -12.3298 O   0  0  0  0  0  0  0  0  0  0  0  0
  1  2  1  0
  3  4  2  0
  3  2  1  0
  5  3  1  0
  6  5  1  0
  6 17  1  0
  6  7  1  1
  8  7  1  0
  9  8  2  0
 10 11  1  0
 10  9  1  0
 11 16  2  0
 12 11  1  0
 12 13  2  0
 13 14  1  0
 14 15  2  0
 16  8  1  0
 16 15  1  0
 17 19  1  0
 17 18  2  0
 19 20  1  0
 20 21  1  0
 21 23  2  0
 21 22  1  0
M  END
$$$$
