GWG.pdb
     RDKit          3D

 23 24  0  0  1  0  0  0  0  0999 V2000
   28.0618  -21.1156  -15.1873 N   0  0  0  0  0  0  0  0  0  0  0  0
   27.5911  -20.2672  -14.1339 C   0  0  0  0  0  0  0  0  0  0  0  0
   26.7835  -21.0468  -13.1248 C   0  0  0  0  0  0  0  0  0  0  0  0
   26.4984  -22.2218  -13.3823 O   0  0  0  0  0  0  0  0  0  0  0  0
   26.3524  -20.4764  -11.9124 N   0  0  0  0  0  0  0  0  0  0  0  0
   25.5961  -21.0592  -10.8713 C   0  0  1  0  0  0  0  0  0  0  0  0
   25.9334  -20.7242   -9.4582 C   0  0  0  0  0  0  0  0  0  0  0  0
   27.3229  -20.8721   -9.0328 C   0  0  0  0  0  0  0  0  0  0  0  0
   28.4310  -21.4631   -9.5444 C   0  0  0  0  0  0  0  0  0  0  0  0
   29.4640  -21.2824   -8.7140 N   0  0  0  0  0  0  0  0  0  0  0  0
   29.0648  -20.5723   -7.6440 C   0  0  0  0  0  0  0  0  0  0  0  0
   29.7111  -20.1073   -6.5124 C   0  0  0  0  0  0  0  0  0  0  0  0
   29.0435  -19.3780   -5.5572 C   0  0  0  0  0  0  0  0  0  0  0  0
   27.7029  -19.0927   -5.7097 C   0  0  0  0  0  0  0  0  0  0  0  0
   27.0790  -19.5641   -6.8411 C   0  0  0  0  0  0  0  0  0  0  0  0
   27.7308  -20.2959   -7.8068 C   0  0  0  0  0  0  0  0  0  0  0  0
   24.1292  -20.9896  -11.0062 C   0  0  0  0  0  0  0  0  0  0  0  0
   23.4140  -21.4886  -10.0906 O   0  0  0  0  0  0  0  0  0  0  0  0
   23.4835  -20.3843  -12.1234 N   0  0  0  0  0  0  0  0  0  0  0  0
   22.2073  -20.8912  -12.5286 C   0  0  0  0  0  0  0  0  0  0  0  0
   21.1005  -19.9621  -12.2238 C   0  0  0  0  0  0  0  0  0  0  0  0
   20.1344  -20.2106  -11.2688 O   0  0  0  0  0  0  0  0  0  0  0  0
   21.0398  -18.8863  -12.8732 O   0  0  0  0  0  0  0  0  0  0  0  0
  1  2  1  0
  3  4  2  0
  3  2  1  0
  5  3  1  0
  6  5  1  0
  6 17  1  0
  6  7  1  1
  8  7  1  0
  9  8  2  0
 10 11  1  0
 10  9  1  0
 11 16  2  0
 12 11  1  0
 12 13  2  0
 13 14  1  0
 14 15  2  0
 16  8  1  0
 16 15  1  0
 17 19  1  0
 17 18  2  0
 19 20  1  0
 20 21  1  0
 21 23  2  0
 21 22  1  0
M  END
$$$$
