GWG.pdb
     RDKit          3D

 23 24  0  0  1  0  0  0  0  0999 V2000
   27.8568  -17.6967  -15.6695 N   0  0  0  0  0  0  0  0  0  0  0  0
   27.4013  -17.8500  -14.3205 C   0  0  0  0  0  0  0  0  0  0  0  0
   27.2646  -19.3075  -13.9528 C   0  0  0  0  0  0  0  0  0  0  0  0
   27.2503  -20.1439  -14.8630 O   0  0  0  0  0  0  0  0  0  0  0  0
   27.1546  -19.7331  -12.6157 N   0  0  0  0  0  0  0  0  0  0  0  0
   27.0654  -21.0458  -12.1016 C   0  0  1  0  0  0  0  0  0  0  0  0
   27.6074  -21.3277  -10.7415 C   0  0  0  0  0  0  0  0  0  0  0  0
   26.9229  -20.7345   -9.5957 C   0  0  0  0  0  0  0  0  0  0  0  0
   25.6357  -20.4389   -9.2876 C   0  0  0  0  0  0  0  0  0  0  0  0
   25.5766  -19.8943   -8.0672 N   0  0  0  0  0  0  0  0  0  0  0  0
   26.8138  -19.8194   -7.5454 C   0  0  0  0  0  0  0  0  0  0  0  0
   27.3147  -19.3598   -6.3403 C   0  0  0  0  0  0  0  0  0  0  0  0
   28.6593  -19.4130   -6.0586 C   0  0  0  0  0  0  0  0  0  0  0  0
   29.5441  -19.9310   -6.9810 C   0  0  0  0  0  0  0  0  0  0  0  0
   29.0261  -20.3822   -8.1724 C   0  0  0  0  0  0  0  0  0  0  0  0
   27.6841  -20.3361   -8.4717 C   0  0  0  0  0  0  0  0  0  0  0  0
   25.7483  -21.7018  -12.1995 C   0  0  0  0  0  0  0  0  0  0  0  0
   25.6509  -22.9152  -11.8572 O   0  0  0  0  0  0  0  0  0  0  0  0
   24.5813  -21.0275  -12.6630 N   0  0  0  0  0  0  0  0  0  0  0  0
   23.3601  -21.7687  -12.7593 C   0  0  0  0  0  0  0  0  0  0  0  0
   22.2254  -20.9431  -13.2195 C   0  0  0  0  0  0  0  0  0  0  0  0
   20.9259  -21.4043  -13.2970 O   0  0  0  0  0  0  0  0  0  0  0  0
   22.4617  -19.7548  -13.5582 O   0  0  0  0  0  0  0  0  0  0  0  0
  1  2  1  0
  3  4  2  0
  3  2  1  0
  5  3  1  0
  6  5  1  0
  6 17  1  0
  6  7  1  1
  8  7  1  0
  9  8  2  0
 10 11  1  0
 10  9  1  0
 11 16  2  0
 12 11  1  0
 12 13  2  0
 13 14  1  0
 14 15  2  0
 16  8  1  0
 16 15  1  0
 17 19  1  0
 17 18  2  0
 19 20  1  0
 20 21  1  0
 21 23  2  0
 21 22  1  0
M  END
$$$$
