GWG.pdb
     RDKit          3D

 23 24  0  0  1  0  0  0  0  0999 V2000
   29.0195  -19.8193  -14.1596 N   0  0  0  0  0  0  0  0  0  0  0  0
   28.5986  -19.3752  -12.8649 C   0  0  0  0  0  0  0  0  0  0  0  0
   27.7338  -20.4103  -12.1872 C   0  0  0  0  0  0  0  0  0  0  0  0
   27.2524  -21.3161  -12.8772 O   0  0  0  0  0  0  0  0  0  0  0  0
   27.4654  -20.3707  -10.8062 N   0  0  0  0  0  0  0  0  0  0  0  0
   26.6023  -21.1865  -10.0412 C   0  0  1  0  0  0  0  0  0  0  0  0
   26.9083  -21.4093   -8.5991 C   0  0  0  0  0  0  0  0  0  0  0  0
   27.0868  -20.2356   -7.7481 C   0  0  0  0  0  0  0  0  0  0  0  0
   26.6542  -18.9506   -7.7733 C   0  0  0  0  0  0  0  0  0  0  0  0
   27.1325  -18.2917   -6.7120 N   0  0  0  0  0  0  0  0  0  0  0  0
   27.8852  -19.1205   -5.9670 C   0  0  0  0  0  0  0  0  0  0  0  0
   28.5935  -18.9661   -4.7886 C   0  0  0  0  0  0  0  0  0  0  0  0
   29.2861  -20.0134   -4.2287 C   0  0  0  0  0  0  0  0  0  0  0  0
   29.2884  -21.2511   -4.8370 C   0  0  0  0  0  0  0  0  0  0  0  0
   28.5786  -21.3837   -6.0074 C   0  0  0  0  0  0  0  0  0  0  0  0
   27.8806  -20.3468   -6.5824 C   0  0  0  0  0  0  0  0  0  0  0  0
   25.1597  -20.9003  -10.1501 C   0  0  0  0  0  0  0  0  0  0  0  0
   24.6574  -20.0283   -9.3843 O   0  0  0  0  0  0  0  0  0  0  0  0
   24.3080  -21.5637  -11.0806 N   0  0  0  0  0  0  0  0  0  0  0  0
   22.9879  -21.0474  -11.2827 C   0  0  0  0  0  0  0  0  0  0  0  0
   22.2679  -21.7318  -12.3755 C   0  0  0  0  0  0  0  0  0  0  0  0
   20.9847  -21.4052  -12.7680 O   0  0  0  0  0  0  0  0  0  0  0  0
   22.8614  -22.6627  -12.9785 O   0  0  0  0  0  0  0  0  0  0  0  0
  1  2  1  0
  3  4  2  0
  3  2  1  0
  5  3  1  0
  6  5  1  0
  6 17  1  0
  6  7  1  1
  8  7  1  0
  9  8  2  0
 10 11  1  0
 10  9  1  0
 11 16  2  0
 12 11  1  0
 12 13  2  0
 13 14  1  0
 14 15  2  0
 16  8  1  0
 16 15  1  0
 17 19  1  0
 17 18  2  0
 19 20  1  0
 20 21  1  0
 21 23  2  0
 21 22  1  0
M  END
$$$$
