GWG.pdb
     RDKit          3D

 23 24  0  0  1  0  0  0  0  0999 V2000
   27.3677  -18.8316  -17.1768 N   0  0  0  0  0  0  0  0  0  0  0  0
   26.3622  -19.8100  -16.8896 C   0  0  0  0  0  0  0  0  0  0  0  0
   25.2986  -19.2483  -15.9778 C   0  0  0  0  0  0  0  0  0  0  0  0
   25.4814  -18.1314  -15.4805 O   0  0  0  0  0  0  0  0  0  0  0  0
   24.1180  -19.9557  -15.6833 N   0  0  0  0  0  0  0  0  0  0  0  0
   22.9664  -19.5206  -14.9903 C   0  0  1  0  0  0  0  0  0  0  0  0
   21.8085  -18.9970  -15.7700 C   0  0  0  0  0  0  0  0  0  0  0  0
   22.0787  -18.0282  -16.8292 C   0  0  0  0  0  0  0  0  0  0  0  0
   22.8275  -18.0182  -17.9597 C   0  0  0  0  0  0  0  0  0  0  0  0
   22.7014  -16.8372  -18.5751 N   0  0  0  0  0  0  0  0  0  0  0  0
   21.8719  -16.0470  -17.8708 C   0  0  0  0  0  0  0  0  0  0  0  0
   21.3978  -14.7597  -18.0517 C   0  0  0  0  0  0  0  0  0  0  0  0
   20.5279  -14.1861  -17.1549 C   0  0  0  0  0  0  0  0  0  0  0  0
   20.1063  -14.8898  -16.0463 C   0  0  0  0  0  0  0  0  0  0  0  0
   20.5892  -16.1673  -15.8847 C   0  0  0  0  0  0  0  0  0  0  0  0
   21.4606  -16.7569  -16.7712 C   0  0  0  0  0  0  0  0  0  0  0  0
   22.4332  -20.4346  -13.9630 C   0  0  0  0  0  0  0  0  0  0  0  0
   22.5199  -21.6807  -14.1596 O   0  0  0  0  0  0  0  0  0  0  0  0
   21.8251  -19.9740  -12.7591 N   0  0  0  0  0  0  0  0  0  0  0  0
   21.3442  -20.9462  -11.8245 C   0  0  0  0  0  0  0  0  0  0  0  0
   19.9775  -21.4111  -12.1358 C   0  0  0  0  0  0  0  0  0  0  0  0
   19.2224  -22.1919  -11.2829 O   0  0  0  0  0  0  0  0  0  0  0  0
   19.4788  -21.0738  -13.2404 O   0  0  0  0  0  0  0  0  0  0  0  0
  1  2  1  0
  3  4  2  0
  3  2  1  0
  5  3  1  0
  6  5  1  0
  6 17  1  0
  6  7  1  6
  8  7  1  0
  9  8  2  0
 10 11  1  0
 10  9  1  0
 11 16  2  0
 12 11  1  0
 12 13  2  0
 13 14  1  0
 14 15  2  0
 16  8  1  0
 16 15  1  0
 17 19  1  0
 17 18  2  0
 19 20  1  0
 20 21  1  0
 21 23  2  0
 21 22  1  0
M  END
$$$$
