DCQ.pdb
     RDKit          3D

 24 23  0  0  1  0  0  0  0  0999 V2000
   17.0174  -10.0273  -13.5329 N   0  0  0  0  0  0  0  0  0  0  0  0
   18.1578   -9.6936  -14.3491 C   0  0  1  0  0  0  0  0  0  0  0  0
   17.8814   -9.8634  -15.8160 C   0  0  0  0  0  0  0  0  0  0  0  0
   17.6372  -11.2915  -16.0903 C   0  0  0  0  0  0  0  0  0  0  0  0
   18.3873  -12.1540  -15.5870 O   0  0  0  0  0  0  0  0  0  0  0  0
   18.7050   -8.3549  -14.0266 C   0  0  0  0  0  0  0  0  0  0  0  0
   17.9033   -7.4220  -13.7405 O   0  0  0  0  0  0  0  0  0  0  0  0
   16.5965  -11.6886  -16.8916 O   0  0  0  0  0  0  0  0  0  0  0  0
   20.0923   -8.0588  -14.0211 N   0  0  0  0  0  0  0  0  0  0  0  0
   20.5354   -6.7283  -13.7734 C   0  0  1  0  0  0  0  0  0  0  0  0
   21.7863   -6.7897  -12.8946 C   0  0  0  0  0  0  0  0  0  0  0  0
   22.4455   -5.1486  -12.5837 S   0  0  0  0  0  0  0  0  0  0  0  0
   20.7879   -5.9384  -14.9968 C   0  0  0  0  0  0  0  0  0  0  0  0
   21.5360   -6.4827  -15.8678 O   0  0  0  0  0  0  0  0  0  0  0  0
   16.9478   -3.1957  -18.7886 N   0  0  0  0  0  0  0  0  0  0  0  0
   18.2061   -2.7331  -19.2840 C   0  0  0  0  0  0  0  0  0  0  0  0
   18.2171   -2.1123  -20.3922 O   0  0  0  0  0  0  0  0  0  0  0  0
   19.4791   -2.9401  -18.5615 C   0  0  0  0  0  0  0  0  0  0  0  0
   19.4014   -3.7461  -17.3151 C   0  0  0  0  0  0  0  0  0  0  0  0
   20.6357   -3.9651  -16.5235 C   0  0  2  0  0  0  0  0  0  0  0  0
   20.2763   -4.6684  -15.2583 N   0  0  0  0  0  0  0  0  0  0  0  0
   21.3572   -2.7551  -16.1751 C   0  0  0  0  0  0  0  0  0  0  0  0
   22.1777   -2.1452  -17.1238 O   0  0  0  0  0  0  0  0  0  0  0  0
   21.3111   -2.1774  -15.0466 O   0  0  0  0  0  0  0  0  0  0  0  0
  2  1  1  1
  2  3  1  0
  3  4  1  0
  4  8  1  0
  4  5  2  0
  6  2  1  0
  6  9  1  0
  7  6  2  0
 10  9  1  0
 10 11  1  6
 10 13  1  0
 12 11  1  0
 13 21  1  0
 14 13  2  0
 16 17  2  0
 16 15  1  0
 18 16  1  0
 19 18  1  0
 20 19  1  1
 21 20  1  0
 22 23  1  0
 22 20  1  0
 24 22  2  0
M  END
$$$$
