DCQ.pdb
     RDKit          3D

 24 23  0  0  1  0  0  0  0  0999 V2000
   18.9722  -12.2155  -16.4939 N   0  0  0  0  0  0  0  0  0  0  0  0
   18.2922  -10.9631  -16.2765 C   0  0  1  0  0  0  0  0  0  0  0  0
   16.8664  -11.1536  -15.8428 C   0  0  0  0  0  0  0  0  0  0  0  0
   16.1235  -11.8136  -16.9322 C   0  0  0  0  0  0  0  0  0  0  0  0
   16.0987  -11.2922  -18.0669 O   0  0  0  0  0  0  0  0  0  0  0  0
   19.0457  -10.0665  -15.3690 C   0  0  0  0  0  0  0  0  0  0  0  0
   19.3037  -10.4622  -14.1977 O   0  0  0  0  0  0  0  0  0  0  0  0
   15.4576  -12.9941  -16.7185 O   0  0  0  0  0  0  0  0  0  0  0  0
   19.4985   -8.7758  -15.7448 N   0  0  0  0  0  0  0  0  0  0  0  0
   20.2956   -8.0110  -14.8461 C   0  0  1  0  0  0  0  0  0  0  0  0
   21.5798   -8.7898  -14.5545 C   0  0  0  0  0  0  0  0  0  0  0  0
   22.6847   -7.8512  -13.4950 S   0  0  0  0  0  0  0  0  0  0  0  0
   20.6025   -6.6462  -15.3231 C   0  0  0  0  0  0  0  0  0  0  0  0
   21.2366   -6.5684  -16.4214 O   0  0  0  0  0  0  0  0  0  0  0  0
   17.3899   -1.3176  -14.5058 N   0  0  0  0  0  0  0  0  0  0  0  0
   17.2489   -2.3434  -15.4909 C   0  0  0  0  0  0  0  0  0  0  0  0
   16.1604   -2.3954  -16.1438 O   0  0  0  0  0  0  0  0  0  0  0  0
   18.3111   -3.3296  -15.7814 C   0  0  0  0  0  0  0  0  0  0  0  0
   19.5786   -3.1702  -15.0219 C   0  0  0  0  0  0  0  0  0  0  0  0
   20.6715   -4.1491  -15.2350 C   0  0  2  0  0  0  0  0  0  0  0  0
   20.2546   -5.4649  -14.6700 N   0  0  0  0  0  0  0  0  0  0  0  0
   21.9406   -3.7840  -14.6333 C   0  0  0  0  0  0  0  0  0  0  0  0
   22.6416   -2.6809  -15.1201 O   0  0  0  0  0  0  0  0  0  0  0  0
   22.4944   -4.3962  -13.6701 O   0  0  0  0  0  0  0  0  0  0  0  0
  2  1  1  1
  2  3  1  0
  3  4  1  0
  4  8  1  0
  4  5  2  0
  6  2  1  0
  6  9  1  0
  7  6  2  0
 10  9  1  0
 10 11  1  6
 10 13  1  0
 12 11  1  0
 13 21  1  0
 14 13  2  0
 16 17  2  0
 16 15  1  0
 18 16  1  0
 19 18  1  0
 20 19  1  1
 21 20  1  0
 22 23  1  0
 22 20  1  0
 24 22  2  0
M  END
$$$$
