DCQ.pdb
     RDKit          3D

 24 23  0  0  1  0  0  0  0  0999 V2000
   22.3255  -12.5872  -18.9694 N   0  0  0  0  0  0  0  0  0  0  0  0
   21.1793  -11.7915  -18.6074 C   0  0  1  0  0  0  0  0  0  0  0  0
   19.9296  -12.6148  -18.4743 C   0  0  0  0  0  0  0  0  0  0  0  0
   19.5748  -13.1558  -19.7994 C   0  0  0  0  0  0  0  0  0  0  0  0
   20.2185  -12.7937  -20.8067 O   0  0  0  0  0  0  0  0  0  0  0  0
   21.4347  -10.9518  -17.4136 C   0  0  0  0  0  0  0  0  0  0  0  0
   20.4574  -10.3916  -16.8426 O   0  0  0  0  0  0  0  0  0  0  0  0
   18.5465  -14.0526  -19.9436 O   0  0  0  0  0  0  0  0  0  0  0  0
   22.7276  -10.7394  -16.8701 N   0  0  0  0  0  0  0  0  0  0  0  0
   22.8801   -9.9970  -15.6645 C   0  0  1  0  0  0  0  0  0  0  0  0
   24.2376  -10.3441  -15.0500 C   0  0  0  0  0  0  0  0  0  0  0  0
   24.3201  -12.0778  -14.5894 S   0  0  0  0  0  0  0  0  0  0  0  0
   22.7348   -8.5358  -15.8327 C   0  0  0  0  0  0  0  0  0  0  0  0
   23.3642   -8.0213  -16.8092 O   0  0  0  0  0  0  0  0  0  0  0  0
   20.2143   -4.9010  -18.5418 N   0  0  0  0  0  0  0  0  0  0  0  0
   20.0094   -4.0445  -17.4162 C   0  0  0  0  0  0  0  0  0  0  0  0
   19.6753   -2.8393  -17.6389 O   0  0  0  0  0  0  0  0  0  0  0  0
   20.1620   -4.5034  -16.0192 C   0  0  0  0  0  0  0  0  0  0  0  0
   20.5508   -5.9261  -15.8358 C   0  0  0  0  0  0  0  0  0  0  0  0
   21.8998   -6.2393  -15.3065 C   0  0  2  0  0  0  0  0  0  0  0  0
   21.9744   -7.7004  -15.0161 N   0  0  0  0  0  0  0  0  0  0  0  0
   22.2601   -5.5223  -14.0974 C   0  0  0  0  0  0  0  0  0  0  0  0
   21.9296   -6.0599  -12.8535 O   0  0  0  0  0  0  0  0  0  0  0  0
   22.8701   -4.4106  -14.0626 O   0  0  0  0  0  0  0  0  0  0  0  0
  2  1  1  1
  2  3  1  0
  3  4  1  0
  4  8  1  0
  4  5  2  0
  6  2  1  0
  6  9  1  0
  7  6  2  0
 10  9  1  0
 10 11  1  6
 10 13  1  0
 12 11  1  0
 13 21  1  0
 14 13  2  0
 16 17  2  0
 16 15  1  0
 18 16  1  0
 19 18  1  0
 20 19  1  1
 21 20  1  0
 22 23  1  0
 22 20  1  0
 24 22  2  0
M  END
$$$$
