DCQ.pdb
     RDKit          3D

 24 23  0  0  1  0  0  0  0  0999 V2000
   14.1444  -12.4331  -11.9335 N   0  0  0  0  0  0  0  0  0  0  0  0
   15.2772  -11.6456  -12.3515 C   0  0  1  0  0  0  0  0  0  0  0  0
   15.5110  -11.7205  -13.8337 C   0  0  0  0  0  0  0  0  0  0  0  0
   15.8558  -13.1093  -14.1899 C   0  0  0  0  0  0  0  0  0  0  0  0
   16.5574  -13.7900  -13.4125 O   0  0  0  0  0  0  0  0  0  0  0  0
   15.2017  -10.2501  -11.8594 C   0  0  0  0  0  0  0  0  0  0  0  0
   14.6516   -9.3766  -12.5869 O   0  0  0  0  0  0  0  0  0  0  0  0
   15.4170  -13.6666  -15.3644 O   0  0  0  0  0  0  0  0  0  0  0  0
   15.7175   -9.8353  -10.6047 N   0  0  0  0  0  0  0  0  0  0  0  0
   15.5689   -8.4824  -10.1858 C   0  0  1  0  0  0  0  0  0  0  0  0
   14.8480   -8.4693   -8.8364 C   0  0  0  0  0  0  0  0  0  0  0  0
   14.9640   -6.8585   -8.0513 S   0  0  0  0  0  0  0  0  0  0  0  0
   16.8389   -7.7298  -10.1134 C   0  0  0  0  0  0  0  0  0  0  0  0
   17.7446   -8.2334   -9.3781 O   0  0  0  0  0  0  0  0  0  0  0  0
   20.9587   -6.1191  -14.1203 N   0  0  0  0  0  0  0  0  0  0  0  0
   20.8968   -7.2032  -13.1910 C   0  0  0  0  0  0  0  0  0  0  0  0
   21.5906   -8.2383  -13.4377 O   0  0  0  0  0  0  0  0  0  0  0  0
   20.0723   -7.1638  -11.9646 C   0  0  0  0  0  0  0  0  0  0  0  0
   19.2315   -5.9524  -11.7791 C   0  0  0  0  0  0  0  0  0  0  0  0
   18.4053   -5.8324  -10.5539 C   0  0  2  0  0  0  0  0  0  0  0  0
   17.1088   -6.5348  -10.7782 N   0  0  0  0  0  0  0  0  0  0  0  0
   18.1134   -4.4700  -10.1484 C   0  0  0  0  0  0  0  0  0  0  0  0
   19.0619   -3.7490   -9.4232 O   0  0  0  0  0  0  0  0  0  0  0  0
   17.0365   -3.8486  -10.4002 O   0  0  0  0  0  0  0  0  0  0  0  0
  2  1  1  6
  2  3  1  0
  3  4  1  0
  4  8  1  0
  4  5  2  0
  6  2  1  0
  6  9  1  0
  7  6  2  0
 10  9  1  0
 10 11  1  1
 10 13  1  0
 12 11  1  0
 13 21  1  0
 14 13  2  0
 16 17  2  0
 16 15  1  0
 18 16  1  0
 19 18  1  0
 20 19  1  6
 21 20  1  0
 22 23  1  0
 22 20  1  0
 24 22  2  0
M  END
$$$$
