DCQ.pdb
     RDKit          3D

 24 23  0  0  1  0  0  0  0  0999 V2000
   17.0728  -12.5926  -15.6112 N   0  0  0  0  0  0  0  0  0  0  0  0
   17.5717  -11.4124  -16.2718 C   0  0  1  0  0  0  0  0  0  0  0  0
   16.4826  -10.4232  -16.5764 C   0  0  0  0  0  0  0  0  0  0  0  0
   15.7037  -10.9151  -17.7279 C   0  0  0  0  0  0  0  0  0  0  0  0
   15.2786  -12.0895  -17.7293 O   0  0  0  0  0  0  0  0  0  0  0  0
   18.7064  -10.7994  -15.5424 C   0  0  0  0  0  0  0  0  0  0  0  0
   18.5259  -10.4041  -14.3566 O   0  0  0  0  0  0  0  0  0  0  0  0
   15.4382  -10.1012  -18.8001 O   0  0  0  0  0  0  0  0  0  0  0  0
   19.9969  -10.6294  -16.1061 N   0  0  0  0  0  0  0  0  0  0  0  0
   21.0108   -9.9501  -15.3723 C   0  0  1  0  0  0  0  0  0  0  0  0
   22.3540  -10.6209  -15.6664 C   0  0  0  0  0  0  0  0  0  0  0  0
   23.6958   -9.7999  -14.8004 S   0  0  0  0  0  0  0  0  0  0  0  0
   21.0768   -8.4974  -15.6368 C   0  0  0  0  0  0  0  0  0  0  0  0
   20.9781   -8.1470  -16.8542 O   0  0  0  0  0  0  0  0  0  0  0  0
   17.2956   -4.6077  -16.0156 N   0  0  0  0  0  0  0  0  0  0  0  0
   18.3914   -3.6941  -15.9307 C   0  0  0  0  0  0  0  0  0  0  0  0
   18.1558   -2.4624  -16.1335 O   0  0  0  0  0  0  0  0  0  0  0  0
   19.7704   -4.1211  -15.6123 C   0  0  0  0  0  0  0  0  0  0  0  0
   19.9717   -5.5775  -15.3951 C   0  0  0  0  0  0  0  0  0  0  0  0
   21.3315   -6.0749  -15.0764 C   0  0  2  0  0  0  0  0  0  0  0  0
   21.2360   -7.5066  -14.6695 N   0  0  0  0  0  0  0  0  0  0  0  0
   22.0106   -5.3515  -14.0174 C   0  0  0  0  0  0  0  0  0  0  0  0
   22.3067   -6.0015  -12.8194 O   0  0  0  0  0  0  0  0  0  0  0  0
   22.3745   -4.1378  -14.0798 O   0  0  0  0  0  0  0  0  0  0  0  0
  2  1  1  1
  2  3  1  0
  3  4  1  0
  4  8  1  0
  4  5  2  0
  6  2  1  0
  6  9  1  0
  7  6  2  0
 10  9  1  0
 10 11  1  6
 10 13  1  0
 12 11  1  0
 13 21  1  0
 14 13  2  0
 16 17  2  0
 16 15  1  0
 18 16  1  0
 19 18  1  0
 20 19  1  1
 21 20  1  0
 22 23  1  0
 22 20  1  0
 24 22  2  0
M  END
$$$$
