DCQ.pdb
     RDKit          3D

 24 23  0  0  1  0  0  0  0  0999 V2000
   16.8663  -12.1256  -15.5979 N   0  0  0  0  0  0  0  0  0  0  0  0
   17.0574  -10.7324  -15.9151 C   0  0  1  0  0  0  0  0  0  0  0  0
   15.8730   -9.8906  -15.5331 C   0  0  0  0  0  0  0  0  0  0  0  0
   14.7083  -10.3223  -16.3280 C   0  0  0  0  0  0  0  0  0  0  0  0
   13.6361  -10.6007  -15.7511 O   0  0  0  0  0  0  0  0  0  0  0  0
   18.3289  -10.2027  -15.3690 C   0  0  0  0  0  0  0  0  0  0  0  0
   18.4661  -10.1198  -14.1163 O   0  0  0  0  0  0  0  0  0  0  0  0
   14.7843  -10.4233  -17.6942 O   0  0  0  0  0  0  0  0  0  0  0  0
   19.4117   -9.7792  -16.1817 N   0  0  0  0  0  0  0  0  0  0  0  0
   20.6082   -9.2965  -15.5789 C   0  0  1  0  0  0  0  0  0  0  0  0
   21.7911  -10.0737  -16.1596 C   0  0  0  0  0  0  0  0  0  0  0  0
   23.3497   -9.4836  -15.4911 S   0  0  0  0  0  0  0  0  0  0  0  0
   20.8116   -7.8397  -15.7230 C   0  0  0  0  0  0  0  0  0  0  0  0
   20.5547   -7.3510  -16.8674 O   0  0  0  0  0  0  0  0  0  0  0  0
   17.5496   -3.6375  -15.6449 N   0  0  0  0  0  0  0  0  0  0  0  0
   18.7216   -2.8345  -15.4896 C   0  0  0  0  0  0  0  0  0  0  0  0
   18.5856   -1.5718  -15.5190 O   0  0  0  0  0  0  0  0  0  0  0  0
   20.0689   -3.4097  -15.2910 C   0  0  0  0  0  0  0  0  0  0  0  0
   20.1421   -4.8914  -15.2026 C   0  0  0  0  0  0  0  0  0  0  0  0
   21.4637   -5.5348  -15.0087 C   0  0  2  0  0  0  0  0  0  0  0  0
   21.2549   -6.9825  -14.7172 N   0  0  0  0  0  0  0  0  0  0  0  0
   22.2626   -4.9716  -13.9361 C   0  0  0  0  0  0  0  0  0  0  0  0
   22.6832   -3.6441  -14.0147 O   0  0  0  0  0  0  0  0  0  0  0  0
   22.6290   -5.5955  -12.8941 O   0  0  0  0  0  0  0  0  0  0  0  0
  2  1  1  1
  2  3  1  0
  3  4  1  0
  4  8  1  0
  4  5  2  0
  6  2  1  0
  6  9  1  0
  7  6  2  0
 10  9  1  0
 10 11  1  6
 10 13  1  0
 12 11  1  0
 13 21  1  0
 14 13  2  0
 16 17  2  0
 16 15  1  0
 18 16  1  0
 19 18  1  0
 20 19  1  1
 21 20  1  0
 22 23  1  0
 22 20  1  0
 24 22  2  0
M  END
$$$$
