DCQ.pdb
     RDKit          3D

 24 23  0  0  1  0  0  0  0  0999 V2000
   17.9317  -13.7313  -15.8661 N   0  0  0  0  0  0  0  0  0  0  0  0
   17.3189  -12.4571  -16.1469 C   0  0  1  0  0  0  0  0  0  0  0  0
   15.8542  -12.4401  -15.8127 C   0  0  0  0  0  0  0  0  0  0  0  0
   15.0966  -12.9374  -16.9759 C   0  0  0  0  0  0  0  0  0  0  0  0
   14.3294  -12.1657  -17.5889 O   0  0  0  0  0  0  0  0  0  0  0  0
   18.0553  -11.3320  -15.5245 C   0  0  0  0  0  0  0  0  0  0  0  0
   17.9113  -11.1196  -14.2880 O   0  0  0  0  0  0  0  0  0  0  0  0
   15.2216  -14.2375  -17.3963 O   0  0  0  0  0  0  0  0  0  0  0  0
   18.9217  -10.4712  -16.2462 N   0  0  0  0  0  0  0  0  0  0  0  0
   19.6014   -9.4168  -15.5723 C   0  0  1  0  0  0  0  0  0  0  0  0
   21.1076   -9.6570  -15.6916 C   0  0  0  0  0  0  0  0  0  0  0  0
   22.0423   -8.3094  -14.9602 S   0  0  0  0  0  0  0  0  0  0  0  0
   19.2427   -8.0649  -16.0499 C   0  0  0  0  0  0  0  0  0  0  0  0
   19.2217   -7.9059  -17.3104 O   0  0  0  0  0  0  0  0  0  0  0  0
   15.0526   -4.8836  -17.2616 N   0  0  0  0  0  0  0  0  0  0  0  0
   15.6917   -3.7344  -16.7018 C   0  0  0  0  0  0  0  0  0  0  0  0
   15.2129   -2.5917  -16.9826 O   0  0  0  0  0  0  0  0  0  0  0  0
   16.8697   -3.8234  -15.8131 C   0  0  0  0  0  0  0  0  0  0  0  0
   17.3124   -5.1942  -15.4475 C   0  0  0  0  0  0  0  0  0  0  0  0
   18.6692   -5.6407  -15.8451 C   0  0  2  0  0  0  0  0  0  0  0  0
   18.9329   -6.9764  -15.2362 N   0  0  0  0  0  0  0  0  0  0  0  0
   19.7429   -4.7477  -15.4506 C   0  0  0  0  0  0  0  0  0  0  0  0
   20.0903   -3.6803  -16.2785 O   0  0  0  0  0  0  0  0  0  0  0  0
   20.4218   -4.8494  -14.3838 O   0  0  0  0  0  0  0  0  0  0  0  0
  2  1  1  1
  2  3  1  0
  3  4  1  0
  4  8  1  0
  4  5  2  0
  6  2  1  0
  6  9  1  0
  7  6  2  0
 10  9  1  0
 10 11  1  6
 10 13  1  0
 12 11  1  0
 13 21  1  0
 14 13  2  0
 16 17  2  0
 16 15  1  0
 18 16  1  0
 19 18  1  0
 20 19  1  1
 21 20  1  0
 22 23  1  0
 22 20  1  0
 24 22  2  0
M  END
$$$$
