DCQ.pdb
     RDKit          3D

 24 23  0  0  1  0  0  0  0  0999 V2000
   20.9987  -10.9975  -16.1551 N   0  0  0  0  0  0  0  0  0  0  0  0
   19.8008  -10.5501  -15.4896 C   0  0  1  0  0  0  0  0  0  0  0  0
   19.0246  -11.6848  -14.8837 C   0  0  0  0  0  0  0  0  0  0  0  0
   18.4056  -12.4686  -15.9686 C   0  0  0  0  0  0  0  0  0  0  0  0
   18.2995  -11.9688  -17.1083 O   0  0  0  0  0  0  0  0  0  0  0  0
   20.0719   -9.4657  -14.5170 C   0  0  0  0  0  0  0  0  0  0  0  0
   21.2163   -9.3946  -13.9874 O   0  0  0  0  0  0  0  0  0  0  0  0
   17.9432  -13.7409  -15.7451 O   0  0  0  0  0  0  0  0  0  0  0  0
   19.1094   -8.4931  -14.1430 N   0  0  0  0  0  0  0  0  0  0  0  0
   19.4869   -7.4009  -13.3109 C   0  0  1  0  0  0  0  0  0  0  0  0
   20.6062   -6.6248  -14.0078 C   0  0  0  0  0  0  0  0  0  0  0  0
   21.0541   -5.1537  -13.0806 S   0  0  0  0  0  0  0  0  0  0  0  0
   18.3695   -6.5042  -12.9477 C   0  0  0  0  0  0  0  0  0  0  0  0
   17.6691   -6.0664  -13.9133 O   0  0  0  0  0  0  0  0  0  0  0  0
   14.8091   -7.1304   -7.8656 N   0  0  0  0  0  0  0  0  0  0  0  0
   14.2965   -5.9325   -8.4530 C   0  0  0  0  0  0  0  0  0  0  0  0
   13.2968   -5.3787   -7.8985 O   0  0  0  0  0  0  0  0  0  0  0  0
   14.8827   -5.3163   -9.6623 C   0  0  0  0  0  0  0  0  0  0  0  0
   16.1148   -5.9565  -10.1922 C   0  0  0  0  0  0  0  0  0  0  0  0
   16.7601   -5.3837  -11.3979 C   0  0  2  0  0  0  0  0  0  0  0  0
   18.0359   -6.1131  -11.6521 N   0  0  0  0  0  0  0  0  0  0  0  0
   17.0625   -3.9671  -11.3106 C   0  0  0  0  0  0  0  0  0  0  0  0
   16.0214   -3.0390  -11.3147 O   0  0  0  0  0  0  0  0  0  0  0  0
   18.2283   -3.4736  -11.2280 O   0  0  0  0  0  0  0  0  0  0  0  0
  2  1  1  1
  2  3  1  0
  3  4  1  0
  4  8  1  0
  4  5  2  0
  6  2  1  0
  6  9  1  0
  7  6  2  0
 10  9  1  0
 10 11  1  6
 10 13  1  0
 12 11  1  0
 13 21  1  0
 14 13  2  0
 16 17  2  0
 16 15  1  0
 18 16  1  0
 19 18  1  0
 20 19  1  1
 21 20  1  0
 22 23  1  0
 22 20  1  0
 24 22  2  0
M  END
$$$$
