DCQ.pdb
     RDKit          3D

 24 23  0  0  1  0  0  0  0  0999 V2000
   24.3633  -22.7112  -15.2176 N   0  0  0  0  0  0  0  0  0  0  0  0
   24.7833  -21.6391  -14.3502 C   0  0  1  0  0  0  0  0  0  0  0  0
   25.5264  -20.5625  -15.0891 C   0  0  0  0  0  0  0  0  0  0  0  0
   26.2524  -21.1756  -16.2166 C   0  0  0  0  0  0  0  0  0  0  0  0
   25.7168  -21.2216  -17.3440 O   0  0  0  0  0  0  0  0  0  0  0  0
   23.6643  -21.1023  -13.5408 C   0  0  0  0  0  0  0  0  0  0  0  0
   23.7818  -19.9562  -13.0235 O   0  0  0  0  0  0  0  0  0  0  0  0
   27.5098  -21.6977  -16.0463 O   0  0  0  0  0  0  0  0  0  0  0  0
   22.4563  -21.8098  -13.3117 N   0  0  0  0  0  0  0  0  0  0  0  0
   21.4104  -21.2071  -12.5563 C   0  0  1  0  0  0  0  0  0  0  0  0
   20.9630  -19.9342  -13.2777 C   0  0  0  0  0  0  0  0  0  0  0  0
   19.6193  -19.1269  -12.4018 S   0  0  0  0  0  0  0  0  0  0  0  0
   20.2608  -22.0994  -12.2980 C   0  0  0  0  0  0  0  0  0  0  0  0
   19.8614  -22.7944  -13.2839 O   0  0  0  0  0  0  0  0  0  0  0  0
   18.5453  -24.5898   -6.7119 N   0  0  0  0  0  0  0  0  0  0  0  0
   17.6028  -25.1350   -7.6377 C   0  0  0  0  0  0  0  0  0  0  0  0
   16.7487  -25.9658   -7.1972 O   0  0  0  0  0  0  0  0  0  0  0  0
   17.5790  -24.7680   -9.0696 C   0  0  0  0  0  0  0  0  0  0  0  0
   18.5637  -23.7411   -9.4991 C   0  0  0  0  0  0  0  0  0  0  0  0
   18.5507  -23.2786  -10.9077 C   0  0  2  0  0  0  0  0  0  0  0  0
   19.5981  -22.2306  -11.0788 N   0  0  0  0  0  0  0  0  0  0  0  0
   17.2855  -22.7260  -11.3545 C   0  0  0  0  0  0  0  0  0  0  0  0
   16.3242  -23.5688  -11.9121 O   0  0  0  0  0  0  0  0  0  0  0  0
   16.9580  -21.5024  -11.2838 O   0  0  0  0  0  0  0  0  0  0  0  0
  2  1  1  6
  2  3  1  0
  3  4  1  0
  4  8  1  0
  4  5  2  0
  6  2  1  0
  6  9  1  0
  7  6  2  0
 10  9  1  0
 10 11  1  6
 10 13  1  0
 12 11  1  0
 13 21  1  0
 14 13  2  0
 16 17  2  0
 16 15  1  0
 18 16  1  0
 19 18  1  0
 20 19  1  1
 21 20  1  0
 22 23  1  0
 22 20  1  0
 24 22  2  0
M  END
$$$$
