DCQ.pdb
     RDKit          3D

 24 23  0  0  1  0  0  0  0  0999 V2000
   28.0101  -14.4924  -19.0440 N   0  0  0  0  0  0  0  0  0  0  0  0
   27.7026  -13.3142  -19.8157 C   0  0  1  0  0  0  0  0  0  0  0  0
   26.4183  -13.4515  -20.5831 C   0  0  0  0  0  0  0  0  0  0  0  0
   26.5800  -14.5148  -21.5918 C   0  0  0  0  0  0  0  0  0  0  0  0
   25.9374  -15.5794  -21.4751 O   0  0  0  0  0  0  0  0  0  0  0  0
   27.7439  -12.0808  -18.9957 C   0  0  0  0  0  0  0  0  0  0  0  0
   27.1120  -12.0547  -17.9025 O   0  0  0  0  0  0  0  0  0  0  0  0
   27.4271  -14.3527  -22.6590 O   0  0  0  0  0  0  0  0  0  0  0  0
   28.4601  -10.9158  -19.3726 N   0  0  0  0  0  0  0  0  0  0  0  0
   28.5143   -9.7973  -18.4928 C   0  0  1  0  0  0  0  0  0  0  0  0
   29.8104   -9.0306  -18.7629 C   0  0  0  0  0  0  0  0  0  0  0  0
   31.2489   -9.9955  -18.2897 S   0  0  0  0  0  0  0  0  0  0  0  0
   27.3422   -8.9014  -18.5824 C   0  0  0  0  0  0  0  0  0  0  0  0
   26.7813   -8.8286  -19.7202 O   0  0  0  0  0  0  0  0  0  0  0  0
   22.6097   -8.5946  -14.7376 N   0  0  0  0  0  0  0  0  0  0  0  0
   22.2997   -7.5544  -15.6674 C   0  0  0  0  0  0  0  0  0  0  0  0
   21.1574   -7.0046  -15.5857 O   0  0  0  0  0  0  0  0  0  0  0  0
   23.2485   -7.0939  -16.7033 C   0  0  0  0  0  0  0  0  0  0  0  0
   24.5657   -7.7814  -16.7373 C   0  0  0  0  0  0  0  0  0  0  0  0
   25.5751   -7.3504  -17.7340 C   0  0  2  0  0  0  0  0  0  0  0  0
   26.8195   -8.1476  -17.5329 N   0  0  0  0  0  0  0  0  0  0  0  0
   25.9281   -5.9441  -17.6728 C   0  0  0  0  0  0  0  0  0  0  0  0
   25.0473   -4.9901  -18.1819 O   0  0  0  0  0  0  0  0  0  0  0  0
   27.0027   -5.4823  -17.1816 O   0  0  0  0  0  0  0  0  0  0  0  0
  2  1  1  1
  2  3  1  0
  3  4  1  0
  4  8  1  0
  4  5  2  0
  6  2  1  0
  6  9  1  0
  7  6  2  0
 10  9  1  0
 10 11  1  6
 10 13  1  0
 12 11  1  0
 13 21  1  0
 14 13  2  0
 16 17  2  0
 16 15  1  0
 18 16  1  0
 19 18  1  0
 20 19  1  1
 21 20  1  0
 22 23  1  0
 22 20  1  0
 24 22  2  0
M  END
$$$$
