DCQ.pdb
     RDKit          3D

 24 23  0  0  1  0  0  0  0  0999 V2000
   28.0713  -20.6070  -15.2023 N   0  0  0  0  0  0  0  0  0  0  0  0
   26.9959  -21.5226  -15.4911 C   0  0  1  0  0  0  0  0  0  0  0  0
   27.4921  -22.8467  -15.9987 C   0  0  0  0  0  0  0  0  0  0  0  0
   28.4518  -22.6060  -17.0920 C   0  0  0  0  0  0  0  0  0  0  0  0
   28.0968  -21.9459  -18.0911 O   0  0  0  0  0  0  0  0  0  0  0  0
   26.0614  -21.6669  -14.3504 C   0  0  0  0  0  0  0  0  0  0  0  0
   25.0335  -22.3868  -14.4924 O   0  0  0  0  0  0  0  0  0  0  0  0
   29.7315  -23.0970  -17.0289 O   0  0  0  0  0  0  0  0  0  0  0  0
   26.2576  -21.0359  -13.0952 N   0  0  0  0  0  0  0  0  0  0  0  0
   25.2701  -21.1550  -12.0761 C   0  0  1  0  0  0  0  0  0  0  0  0
   25.8702  -20.6587  -10.7592 C   0  0  0  0  0  0  0  0  0  0  0  0
   24.6511  -20.6743   -9.4408 S   0  0  0  0  0  0  0  0  0  0  0  0
   24.0043  -20.4537  -12.3772 C   0  0  0  0  0  0  0  0  0  0  0  0
   24.1084  -19.3744  -13.0396 O   0  0  0  0  0  0  0  0  0  0  0  0
   21.9228  -22.0121  -16.8744 N   0  0  0  0  0  0  0  0  0  0  0  0
   20.7411  -21.3128  -16.4776 C   0  0  0  0  0  0  0  0  0  0  0  0
   19.8331  -21.1374  -17.3486 O   0  0  0  0  0  0  0  0  0  0  0  0
   20.5340  -20.7984  -15.1072 C   0  0  0  0  0  0  0  0  0  0  0  0
   21.6748  -20.9583  -14.1681 C   0  0  0  0  0  0  0  0  0  0  0  0
   21.5373  -20.4576  -12.7794 C   0  0  2  0  0  0  0  0  0  0  0  0
   22.7336  -20.8810  -11.9956 N   0  0  0  0  0  0  0  0  0  0  0  0
   20.3544  -20.9231  -12.0796 C   0  0  0  0  0  0  0  0  0  0  0  0
   20.4461  -22.0246  -11.2289 O   0  0  0  0  0  0  0  0  0  0  0  0
   19.2005  -20.4039  -12.1716 O   0  0  0  0  0  0  0  0  0  0  0  0
  2  1  1  1
  2  3  1  0
  3  4  1  0
  4  8  1  0
  4  5  2  0
  6  2  1  0
  6  9  1  0
  7  6  2  0
 10  9  1  0
 10 11  1  1
 10 13  1  0
 12 11  1  0
 13 21  1  0
 14 13  2  0
 16 17  2  0
 16 15  1  0
 18 16  1  0
 19 18  1  0
 20 19  1  6
 21 20  1  0
 22 23  1  0
 22 20  1  0
 24 22  2  0
M  END
$$$$
