QQK.pdb
     RDKit          3D

 28 27  0  0  1  0  0  0  0  0999 V2000
    8.0721  -12.4180   18.6906 N   0  0  0  0  0  0  0  0  0  0  0  0
    8.3842  -13.2298   17.5403 C   0  0  0  0  0  0  0  0  0  0  0  0
    8.3616  -12.6480   16.4197 O   0  0  0  0  0  0  0  0  0  0  0  0
    8.7009  -14.6492   17.7504 C   0  0  0  0  0  0  0  0  0  0  0  0
    8.5837  -15.1136   19.1591 C   0  0  0  0  0  0  0  0  0  0  0  0
    8.9652  -16.5385   19.3690 C   0  0  2  0  0  0  0  0  0  0  0  0
    8.1256  -17.3952   18.5645 N   0  0  0  0  0  0  0  0  0  0  0  0
    8.9143  -16.9130   20.8076 C   0  0  0  0  0  0  0  0  0  0  0  0
    7.7975  -17.2227   21.2850 O   0  0  0  0  0  0  0  0  0  0  0  0
   13.0675  -20.3377   23.7666 N   0  0  0  0  0  0  0  0  0  0  0  0
   12.2239  -19.9452   24.8352 C   0  0  0  0  0  0  0  0  0  0  0  0
   12.4728  -20.4106   25.9767 O   0  0  0  0  0  0  0  0  0  0  0  0
   11.0981  -19.0137   24.5625 C   0  0  0  0  0  0  0  0  0  0  0  0
   11.1139  -18.5327   23.1272 C   0  0  0  0  0  0  0  0  0  0  0  0
   10.0217  -17.4950   23.0035 C   0  0  2  0  0  0  0  0  0  0  0  0
   10.0342  -16.9416   21.6627 N   0  0  0  0  0  0  0  0  0  0  0  0
   10.2561  -16.3566   23.9633 C   0  0  0  0  0  0  0  0  0  0  0  0
   11.1820  -15.5358   23.7641 O   0  0  0  0  0  0  0  0  0  0  0  0
    9.4503  -16.1760   25.1087 N   0  0  0  0  0  0  0  0  0  0  0  0
    9.6301  -15.2143   26.1549 C   0  0  1  0  0  0  0  0  0  0  0  0
    8.4196  -14.5715   26.6548 C   0  0  0  0  0  0  0  0  0  0  0  0
    7.9060  -13.2949   26.1971 C   0  0  0  0  0  0  0  0  0  0  0  0
    6.6708  -12.6853   26.6707 C   0  0  0  0  0  0  0  0  0  0  0  0
    6.2284  -11.3353   26.2724 C   0  0  0  0  0  0  0  0  0  0  0  0
    5.0018  -10.8264   26.7653 N   0  0  0  0  0  0  0  0  0  0  0  0
   10.1721  -15.9861   27.4086 C   0  0  0  0  0  0  0  0  0  0  0  0
   10.1027  -17.1999   27.4896 O   0  0  0  0  0  0  0  0  0  0  0  0
   10.7335  -15.2324   28.4216 O   0  0  0  0  0  0  0  0  0  0  0  0
  2  1  1  0
  3  2  2  0
  4  2  1  0
  5  6  1  0
  5  4  1  0
  6  8  1  0
  6  7  1  6
  8  9  2  0
 11 10  1  0
 11 12  2  0
 13 11  1  0
 14 13  1  0
 15 14  1  6
 16 15  1  0
 16  8  1  0
 17 15  1  0
 17 18  2  0
 19 17  1  0
 20 19  1  0
 20 26  1  0
 20 21  1  1
 22 21  1  0
 23 22  1  0
 24 23  1  0
 25 24  1  0
 26 28  1  0
 27 26  2  0
M  END
$$$$
