QQK.pdb
     RDKit          3D

 28 27  0  0  1  0  0  0  0  0999 V2000
    8.4892  -12.5302   19.2606 N   0  0  0  0  0  0  0  0  0  0  0  0
    8.5949  -13.5551   18.2516 C   0  0  0  0  0  0  0  0  0  0  0  0
    8.8658  -13.1652   17.0814 O   0  0  0  0  0  0  0  0  0  0  0  0
    8.3846  -14.9537   18.6500 C   0  0  0  0  0  0  0  0  0  0  0  0
    7.9986  -15.1464   20.0739 C   0  0  0  0  0  0  0  0  0  0  0  0
    7.7650  -16.5666   20.4594 C   0  0  2  0  0  0  0  0  0  0  0  0
    6.6416  -17.0969   19.7225 N   0  0  0  0  0  0  0  0  0  0  0  0
    7.5770  -16.7119   21.9277 C   0  0  0  0  0  0  0  0  0  0  0  0
    6.4268  -16.5148   22.3854 O   0  0  0  0  0  0  0  0  0  0  0  0
    8.3627  -21.2337   26.0912 N   0  0  0  0  0  0  0  0  0  0  0  0
    9.0105  -20.0985   26.6383 C   0  0  0  0  0  0  0  0  0  0  0  0
    9.8787  -20.2936   27.5270 O   0  0  0  0  0  0  0  0  0  0  0  0
    8.6398  -18.7467   26.1439 C   0  0  0  0  0  0  0  0  0  0  0  0
    8.8152  -18.6394   24.6441 C   0  0  0  0  0  0  0  0  0  0  0  0
    8.4055  -17.2367   24.2569 C   0  0  2  0  0  0  0  0  0  0  0  0
    8.6027  -17.0548   22.8313 N   0  0  0  0  0  0  0  0  0  0  0  0
    9.2607  -16.2167   24.9641 C   0  0  0  0  0  0  0  0  0  0  0  0
   10.4442  -16.0172   24.6033 O   0  0  0  0  0  0  0  0  0  0  0  0
    8.7649  -15.4575   26.0466 N   0  0  0  0  0  0  0  0  0  0  0  0
    9.4452  -14.4222   26.7658 C   0  0  1  0  0  0  0  0  0  0  0  0
    8.6006  -13.4175   27.4026 C   0  0  0  0  0  0  0  0  0  0  0  0
    7.5575  -12.6633   26.7347 C   0  0  0  0  0  0  0  0  0  0  0  0
    6.5148  -11.9125   27.4207 C   0  0  0  0  0  0  0  0  0  0  0  0
    5.5361  -11.0589   26.7202 C   0  0  0  0  0  0  0  0  0  0  0  0
    4.5511  -10.3659   27.4657 N   0  0  0  0  0  0  0  0  0  0  0  0
   10.1752  -15.0998   27.9779 C   0  0  0  0  0  0  0  0  0  0  0  0
   10.9097  -14.4663   28.7154 O   0  0  0  0  0  0  0  0  0  0  0  0
    9.9517  -16.4488   28.1773 O   0  0  0  0  0  0  0  0  0  0  0  0
  2  1  1  0
  3  2  2  0
  4  2  1  0
  5  6  1  0
  5  4  1  0
  6  8  1  0
  6  7  1  6
  8  9  2  0
 11 10  1  0
 11 12  2  0
 13 11  1  0
 14 13  1  0
 15 14  1  1
 16 15  1  0
 16  8  1  0
 17 15  1  0
 17 18  2  0
 19 17  1  0
 20 19  1  0
 20 26  1  0
 20 21  1  1
 22 21  1  0
 23 22  1  0
 24 23  1  0
 25 24  1  0
 26 28  1  0
 27 26  2  0
M  END
$$$$
