QQK.pdb
     RDKit          3D

 28 27  0  0  1  0  0  0  0  0999 V2000
   11.4716  -17.3672   13.3694 N   0  0  0  0  0  0  0  0  0  0  0  0
   10.4746  -18.4067   13.2971 C   0  0  0  0  0  0  0  0  0  0  0  0
   10.4888  -19.1271   12.2600 O   0  0  0  0  0  0  0  0  0  0  0  0
    9.5316  -18.5509   14.4147 C   0  0  0  0  0  0  0  0  0  0  0  0
    9.6776  -17.5337   15.4906 C   0  0  0  0  0  0  0  0  0  0  0  0
    8.7252  -17.6989   16.6245 C   0  0  2  0  0  0  0  0  0  0  0  0
    7.3709  -17.7472   16.1250 N   0  0  0  0  0  0  0  0  0  0  0  0
    8.8971  -16.6301   17.6444 C   0  0  0  0  0  0  0  0  0  0  0  0
   10.0328  -16.1106   17.7515 O   0  0  0  0  0  0  0  0  0  0  0  0
    8.4699  -12.3812   19.3331 N   0  0  0  0  0  0  0  0  0  0  0  0
    7.9982  -12.4732   20.6660 C   0  0  0  0  0  0  0  0  0  0  0  0
    8.4032  -11.6131   21.4893 O   0  0  0  0  0  0  0  0  0  0  0  0
    7.0588  -13.5673   21.0262 C   0  0  0  0  0  0  0  0  0  0  0  0
    6.7945  -14.4796   19.8473 C   0  0  0  0  0  0  0  0  0  0  0  0
    8.0763  -15.2374   19.5871 C   0  0  2  0  0  0  0  0  0  0  0  0
    7.8712  -16.1670   18.4926 N   0  0  0  0  0  0  0  0  0  0  0  0
    8.4735  -16.0451   20.7962 C   0  0  0  0  0  0  0  0  0  0  0  0
    7.6790  -16.8750   21.2970 O   0  0  0  0  0  0  0  0  0  0  0  0
    9.7406  -15.8976   21.4016 N   0  0  0  0  0  0  0  0  0  0  0  0
   10.2362  -16.5820   22.5582 C   0  0  1  0  0  0  0  0  0  0  0  0
   11.3642  -17.4813   22.3412 C   0  0  0  0  0  0  0  0  0  0  0  0
   11.2876  -18.7651   21.6711 C   0  0  0  0  0  0  0  0  0  0  0  0
   12.4393  -19.5943   21.3434 C   0  0  0  0  0  0  0  0  0  0  0  0
   12.3311  -20.9025   20.6697 C   0  0  0  0  0  0  0  0  0  0  0  0
   13.5066  -21.5827   20.2677 N   0  0  0  0  0  0  0  0  0  0  0  0
   10.8227  -15.4956   23.5262 C   0  0  0  0  0  0  0  0  0  0  0  0
   10.9059  -14.3255   23.1966 O   0  0  0  0  0  0  0  0  0  0  0  0
   11.2430  -15.9194   24.7725 O   0  0  0  0  0  0  0  0  0  0  0  0
  2  1  1  0
  3  2  2  0
  4  2  1  0
  5  6  1  0
  5  4  1  0
  6  8  1  0
  6  7  1  6
  8  9  2  0
 11 10  1  0
 11 12  2  0
 13 11  1  0
 14 13  1  0
 15 14  1  1
 16 15  1  0
 16  8  1  0
 17 15  1  0
 17 18  2  0
 19 17  1  0
 20 19  1  0
 20 26  1  0
 20 21  1  6
 22 21  1  0
 23 22  1  0
 24 23  1  0
 25 24  1  0
 26 28  1  0
 27 26  2  0
M  END
$$$$
