QQK.pdb
     RDKit          3D

 28 27  0  0  1  0  0  0  0  0999 V2000
    6.1963  -22.4836   23.8544 N   0  0  0  0  0  0  0  0  0  0  0  0
    5.9533  -21.1587   24.3696 C   0  0  0  0  0  0  0  0  0  0  0  0
    5.3588  -21.0890   25.4815 O   0  0  0  0  0  0  0  0  0  0  0  0
    6.4070  -20.0062   23.5790 C   0  0  0  0  0  0  0  0  0  0  0  0
    5.3319  -19.0555   23.1868 C   0  0  0  0  0  0  0  0  0  0  0  0
    5.3654  -18.6487   21.7538 C   0  0  2  0  0  0  0  0  0  0  0  0
    5.4374  -19.8205   20.9124 N   0  0  0  0  0  0  0  0  0  0  0  0
    6.4814  -17.7049   21.4782 C   0  0  0  0  0  0  0  0  0  0  0  0
    7.5879  -18.1969   21.1545 O   0  0  0  0  0  0  0  0  0  0  0  0
    7.7698  -12.6714   18.3255 N   0  0  0  0  0  0  0  0  0  0  0  0
    8.4989  -13.3063   19.3613 C   0  0  0  0  0  0  0  0  0  0  0  0
    9.4741  -14.0284   19.0309 O   0  0  0  0  0  0  0  0  0  0  0  0
    8.0840  -13.0930   20.7726 C   0  0  0  0  0  0  0  0  0  0  0  0
    6.9174  -13.9826   21.1462 C   0  0  0  0  0  0  0  0  0  0  0  0
    7.4648  -15.3852   21.2809 C   0  0  2  0  0  0  0  0  0  0  0  0
    6.3750  -16.3018   21.5571 N   0  0  0  0  0  0  0  0  0  0  0  0
    8.4308  -15.4724   22.4347 C   0  0  0  0  0  0  0  0  0  0  0  0
    8.1168  -15.0276   23.5635 O   0  0  0  0  0  0  0  0  0  0  0  0
    9.7099  -16.0519   22.2871 N   0  0  0  0  0  0  0  0  0  0  0  0
   10.7310  -16.1698   23.2848 C   0  0  1  0  0  0  0  0  0  0  0  0
   11.1565  -17.5257   23.6149 C   0  0  0  0  0  0  0  0  0  0  0  0
   10.3051  -18.5470   24.1937 C   0  0  0  0  0  0  0  0  0  0  0  0
   10.6918  -19.9401   24.3704 C   0  0  0  0  0  0  0  0  0  0  0  0
    9.8003  -20.9612   24.9530 C   0  0  0  0  0  0  0  0  0  0  0  0
   10.1825  -22.3248   24.9217 N   0  0  0  0  0  0  0  0  0  0  0  0
   12.0317  -15.5166   22.6993 C   0  0  0  0  0  0  0  0  0  0  0  0
   12.1424  -15.2698   21.5112 O   0  0  0  0  0  0  0  0  0  0  0  0
   13.0510  -15.2308   23.5874 O   0  0  0  0  0  0  0  0  0  0  0  0
  2  1  1  0
  3  2  2  0
  4  2  1  0
  5  6  1  0
  5  4  1  0
  6  8  1  0
  6  7  1  6
  8  9  2  0
 11 10  1  0
 11 12  2  0
 13 11  1  0
 14 13  1  0
 15 14  1  1
 16 15  1  0
 16  8  1  0
 17 15  1  0
 17 18  2  0
 19 17  1  0
 20 19  1  0
 20 26  1  0
 20 21  1  6
 22 21  1  0
 23 22  1  0
 24 23  1  0
 25 24  1  0
 26 28  1  0
 27 26  2  0
M  END
$$$$
