QQK.pdb
     RDKit          3D

 28 27  0  0  1  0  0  0  0  0999 V2000
   12.1119  -14.7406   14.6311 N   0  0  0  0  0  0  0  0  0  0  0  0
   11.2798  -15.8287   14.1800 C   0  0  0  0  0  0  0  0  0  0  0  0
   11.1663  -15.9678   12.9300 O   0  0  0  0  0  0  0  0  0  0  0  0
   10.6363  -16.6822   15.1883 C   0  0  0  0  0  0  0  0  0  0  0  0
   10.9139  -16.3003   16.5992 C   0  0  0  0  0  0  0  0  0  0  0  0
   10.2573  -17.1741   17.6118 C   0  0  2  0  0  0  0  0  0  0  0  0
    8.9677  -17.6059   17.1253 N   0  0  0  0  0  0  0  0  0  0  0  0
   10.1482  -16.4969   18.9315 C   0  0  0  0  0  0  0  0  0  0  0  0
   11.2143  -16.2334   19.5359 O   0  0  0  0  0  0  0  0  0  0  0  0
    8.7852  -12.1154   19.0314 N   0  0  0  0  0  0  0  0  0  0  0  0
    8.2246  -12.7499   20.1675 C   0  0  0  0  0  0  0  0  0  0  0  0
    8.5801  -12.3377   21.3012 O   0  0  0  0  0  0  0  0  0  0  0  0
    7.2546  -13.8589   19.9708 C   0  0  0  0  0  0  0  0  0  0  0  0
    7.4323  -14.9403   21.0153 C   0  0  0  0  0  0  0  0  0  0  0  0
    8.8287  -15.4916   20.8382 C   0  0  2  0  0  0  0  0  0  0  0  0
    8.9307  -16.1346   19.5420 N   0  0  0  0  0  0  0  0  0  0  0  0
    9.1269  -16.5353   21.8841 C   0  0  0  0  0  0  0  0  0  0  0  0
    8.7154  -17.7111   21.7462 O   0  0  0  0  0  0  0  0  0  0  0  0
    9.8721  -16.2296   23.0438 N   0  0  0  0  0  0  0  0  0  0  0  0
   10.2121  -17.1153   24.1170 C   0  0  1  0  0  0  0  0  0  0  0  0
   11.6314  -17.4063   24.2877 C   0  0  0  0  0  0  0  0  0  0  0  0
   12.1855  -18.2758   25.3075 C   0  0  0  0  0  0  0  0  0  0  0  0
   13.6032  -18.5761   25.4538 C   0  0  0  0  0  0  0  0  0  0  0  0
   14.1411  -19.4539   26.5108 C   0  0  0  0  0  0  0  0  0  0  0  0
   15.5053  -19.8334   26.4790 N   0  0  0  0  0  0  0  0  0  0  0  0
    9.8289  -16.3931   25.4559 C   0  0  0  0  0  0  0  0  0  0  0  0
    9.5693  -15.2030   25.4871 O   0  0  0  0  0  0  0  0  0  0  0  0
    9.7970  -17.1626   26.6032 O   0  0  0  0  0  0  0  0  0  0  0  0
  2  1  1  0
  3  2  2  0
  4  2  1  0
  5  6  1  0
  5  4  1  0
  6  8  1  0
  6  7  1  6
  8  9  2  0
 11 10  1  0
 11 12  2  0
 13 11  1  0
 14 13  1  0
 15 14  1  1
 16 15  1  0
 16  8  1  0
 17 15  1  0
 17 18  2  0
 19 17  1  0
 20 19  1  0
 20 26  1  0
 20 21  1  1
 22 21  1  0
 23 22  1  0
 24 23  1  0
 25 24  1  0
 26 28  1  0
 27 26  2  0
M  END
$$$$
