QQK.pdb
     RDKit          3D

 28 27  0  0  1  0  0  0  0  0999 V2000
   22.1445  -10.3237   38.2720 N   0  0  0  0  0  0  0  0  0  0  0  0
   20.8471  -10.8695   37.9578 C   0  0  0  0  0  0  0  0  0  0  0  0
   20.3350  -10.5051   36.8625 O   0  0  0  0  0  0  0  0  0  0  0  0
   20.2259  -11.7939   38.9163 C   0  0  0  0  0  0  0  0  0  0  0  0
   19.0010  -12.4777   38.4206 C   0  0  0  0  0  0  0  0  0  0  0  0
   17.7287  -11.9339   38.9734 C   0  0  2  0  0  0  0  0  0  0  0  0
   18.0162  -10.9533   39.9941 N   0  0  0  0  0  0  0  0  0  0  0  0
   16.8464  -13.0168   39.4846 C   0  0  0  0  0  0  0  0  0  0  0  0
   16.6339  -13.9942   38.7291 O   0  0  0  0  0  0  0  0  0  0  0  0
   15.1050  -17.0407   42.3667 N   0  0  0  0  0  0  0  0  0  0  0  0
   16.5066  -16.8335   42.3790 C   0  0  0  0  0  0  0  0  0  0  0  0
   17.2471  -17.8435   42.2644 O   0  0  0  0  0  0  0  0  0  0  0  0
   17.0314  -15.4505   42.5248 C   0  0  0  0  0  0  0  0  0  0  0  0
   15.9087  -14.4461   42.6750 C   0  0  0  0  0  0  0  0  0  0  0  0
   15.4390  -14.1059   41.2790 C   0  0  2  0  0  0  0  0  0  0  0  0
   16.2381  -13.0142   40.7559 N   0  0  0  0  0  0  0  0  0  0  0  0
   14.0036  -13.6460   41.2963 C   0  0  0  0  0  0  0  0  0  0  0  0
   13.1255  -14.3208   41.8830 O   0  0  0  0  0  0  0  0  0  0  0  0
   13.6010  -12.4520   40.6592 N   0  0  0  0  0  0  0  0  0  0  0  0
   12.2754  -11.9157   40.5757 C   0  0  1  0  0  0  0  0  0  0  0  0
   11.2507  -12.8089   40.0460 C   0  0  0  0  0  0  0  0  0  0  0  0
   11.2127  -13.3191   38.6890 C   0  0  0  0  0  0  0  0  0  0  0  0
   10.1191  -14.1048   38.1338 C   0  0  0  0  0  0  0  0  0  0  0  0
   10.0749  -14.5533   36.7289 C   0  0  0  0  0  0  0  0  0  0  0  0
    8.9771  -15.3242   36.2740 N   0  0  0  0  0  0  0  0  0  0  0  0
   11.7908  -11.6415   42.0425 C   0  0  0  0  0  0  0  0  0  0  0  0
   12.4580  -11.9722   43.0070 O   0  0  0  0  0  0  0  0  0  0  0  0
   10.5729  -11.0077   42.1984 O   0  0  0  0  0  0  0  0  0  0  0  0
  2  1  1  0
  3  2  2  0
  4  2  1  0
  5  6  1  0
  5  4  1  0
  6  8  1  0
  6  7  1  1
  8  9  2  0
 11 10  1  0
 11 12  2  0
 13 11  1  0
 14 13  1  0
 15 14  1  1
 16 15  1  0
 16  8  1  0
 17 15  1  0
 17 18  2  0
 19 17  1  0
 20 19  1  0
 20 26  1  0
 20 21  1  1
 22 21  1  0
 23 22  1  0
 24 23  1  0
 25 24  1  0
 26 28  1  0
 27 26  2  0
M  END
$$$$
