QQK.pdb
     RDKit          3D

 28 27  0  0  1  0  0  0  0  0999 V2000
    7.5547  -15.5863   15.7951 N   0  0  0  0  0  0  0  0  0  0  0  0
    7.7676  -14.1940   15.4854 C   0  0  0  0  0  0  0  0  0  0  0  0
    7.9832  -13.9150   14.2728 O   0  0  0  0  0  0  0  0  0  0  0  0
    7.7185  -13.2176   16.5825 C   0  0  0  0  0  0  0  0  0  0  0  0
    7.6114  -13.8110   17.9426 C   0  0  0  0  0  0  0  0  0  0  0  0
    8.8836  -13.8006   18.7183 C   0  0  2  0  0  0  0  0  0  0  0  0
    9.9784  -14.2133   17.8714 N   0  0  0  0  0  0  0  0  0  0  0  0
    8.7867  -14.6425   19.9406 C   0  0  0  0  0  0  0  0  0  0  0  0
    7.8618  -14.3866   20.7469 O   0  0  0  0  0  0  0  0  0  0  0  0
   12.2189  -19.8291   21.5147 N   0  0  0  0  0  0  0  0  0  0  0  0
   11.3592  -19.6268   22.6226 C   0  0  0  0  0  0  0  0  0  0  0  0
   11.4588  -20.4220   23.5918 O   0  0  0  0  0  0  0  0  0  0  0  0
   10.3914  -18.4991   22.5899 C   0  0  0  0  0  0  0  0  0  0  0  0
   10.5278  -17.6904   21.3174 C   0  0  0  0  0  0  0  0  0  0  0  0
    9.5269  -16.5613   21.4095 C   0  0  2  0  0  0  0  0  0  0  0  0
    9.6628  -15.7028   20.2482 N   0  0  0  0  0  0  0  0  0  0  0  0
    9.7881  -15.7148   22.6290 C   0  0  0  0  0  0  0  0  0  0  0  0
   10.8540  -15.0646   22.7368 O   0  0  0  0  0  0  0  0  0  0  0  0
    8.8520  -15.6250   23.6823 N   0  0  0  0  0  0  0  0  0  0  0  0
    8.8962  -14.7451   24.8117 C   0  0  1  0  0  0  0  0  0  0  0  0
    7.7052  -13.9358   25.0457 C   0  0  0  0  0  0  0  0  0  0  0  0
    7.5336  -13.0069   26.1460 C   0  0  0  0  0  0  0  0  0  0  0  0
    6.3301  -12.2211   26.3818 C   0  0  0  0  0  0  0  0  0  0  0  0
    6.1963  -11.2559   27.4897 C   0  0  0  0  0  0  0  0  0  0  0  0
    4.9713  -10.5697   27.6766 N   0  0  0  0  0  0  0  0  0  0  0  0
    8.9811  -15.6410   26.0968 C   0  0  0  0  0  0  0  0  0  0  0  0
    9.1876  -15.1601   27.1972 O   0  0  0  0  0  0  0  0  0  0  0  0
    8.8119  -17.0024   25.9312 O   0  0  0  0  0  0  0  0  0  0  0  0
  2  1  1  0
  3  2  2  0
  4  2  1  0
  5  6  1  0
  5  4  1  0
  6  8  1  0
  6  7  1  6
  8  9  2  0
 11 10  1  0
 11 12  2  0
 13 11  1  0
 14 13  1  0
 15 14  1  6
 16 15  1  0
 16  8  1  0
 17 15  1  0
 17 18  2  0
 19 17  1  0
 20 19  1  0
 20 26  1  0
 20 21  1  1
 22 21  1  0
 23 22  1  0
 24 23  1  0
 25 24  1  0
 26 28  1  0
 27 26  2  0
M  END
$$$$
