QQK.pdb
     RDKit          3D

 28 27  0  0  1  0  0  0  0  0999 V2000
   16.5007  -19.0310   17.5858 N   0  0  0  0  0  0  0  0  0  0  0  0
   15.3578  -19.8230   17.9682 C   0  0  0  0  0  0  0  0  0  0  0  0
   15.5403  -20.6614   18.8948 O   0  0  0  0  0  0  0  0  0  0  0  0
   14.0862  -19.6013   17.2660 C   0  0  0  0  0  0  0  0  0  0  0  0
   12.8853  -19.5688   18.1437 C   0  0  0  0  0  0  0  0  0  0  0  0
   12.0022  -18.3876   17.9316 C   0  0  2  0  0  0  0  0  0  0  0  0
   12.4627  -17.6286   16.7923 N   0  0  0  0  0  0  0  0  0  0  0  0
   11.9122  -17.5445   19.1536 C   0  0  0  0  0  0  0  0  0  0  0  0
   12.9784  -17.2961   19.7642 O   0  0  0  0  0  0  0  0  0  0  0  0
    7.2802  -13.3547   21.0635 N   0  0  0  0  0  0  0  0  0  0  0  0
    7.7740  -13.8899   19.8480 C   0  0  0  0  0  0  0  0  0  0  0  0
    7.0443  -13.7928   18.8283 O   0  0  0  0  0  0  0  0  0  0  0  0
    9.1139  -14.5331   19.8331 C   0  0  0  0  0  0  0  0  0  0  0  0
    9.2425  -15.5680   20.9305 C   0  0  0  0  0  0  0  0  0  0  0  0
   10.6366  -16.1431   20.8257 C   0  0  2  0  0  0  0  0  0  0  0  0
   10.7126  -17.0103   19.6655 N   0  0  0  0  0  0  0  0  0  0  0  0
   10.9609  -16.9802   22.0365 C   0  0  0  0  0  0  0  0  0  0  0  0
   10.8425  -18.2273   21.9991 O   0  0  0  0  0  0  0  0  0  0  0  0
   11.4048  -16.3962   23.2431 N   0  0  0  0  0  0  0  0  0  0  0  0
   11.7646  -17.0709   24.4543 C   0  0  1  0  0  0  0  0  0  0  0  0
   12.9690  -17.8924   24.4016 C   0  0  0  0  0  0  0  0  0  0  0  0
   14.1807  -17.5470   23.6837 C   0  0  0  0  0  0  0  0  0  0  0  0
   15.3876  -18.3621   23.6628 C   0  0  0  0  0  0  0  0  0  0  0  0
   16.6239  -17.9623   22.9639 C   0  0  0  0  0  0  0  0  0  0  0  0
   17.7852  -18.7648   23.0805 N   0  0  0  0  0  0  0  0  0  0  0  0
   12.1261  -15.9691   25.5111 C   0  0  0  0  0  0  0  0  0  0  0  0
   12.4237  -16.2575   26.6570 O   0  0  0  0  0  0  0  0  0  0  0  0
   12.0936  -14.6535   25.0898 O   0  0  0  0  0  0  0  0  0  0  0  0
  2  1  1  0
  3  2  2  0
  4  2  1  0
  5  6  1  0
  5  4  1  0
  6  8  1  0
  6  7  1  6
  8  9  2  0
 11 10  1  0
 11 12  2  0
 13 11  1  0
 14 13  1  0
 15 14  1  1
 16 15  1  0
 16  8  1  0
 17 15  1  0
 17 18  2  0
 19 17  1  0
 20 19  1  0
 20 26  1  0
 20 21  1  6
 22 21  1  0
 23 22  1  0
 24 23  1  0
 25 24  1  0
 26 28  1  0
 27 26  2  0
M  END
$$$$
