QQK.pdb
     RDKit          3D

 28 27  0  0  1  0  0  0  0  0999 V2000
   11.2025  -19.6236   19.2321 N   0  0  0  0  0  0  0  0  0  0  0  0
   12.0098  -20.4774   18.3959 C   0  0  0  0  0  0  0  0  0  0  0  0
   11.5017  -21.5864   18.0695 O   0  0  0  0  0  0  0  0  0  0  0  0
   13.3406  -20.0043   17.9906 C   0  0  0  0  0  0  0  0  0  0  0  0
   13.6289  -18.5845   18.3294 C   0  0  0  0  0  0  0  0  0  0  0  0
   13.0354  -17.5959   17.3858 C   0  0  2  0  0  0  0  0  0  0  0  0
   13.9968  -17.2548   16.3633 N   0  0  0  0  0  0  0  0  0  0  0  0
   12.5390  -16.3883   18.0982 C   0  0  0  0  0  0  0  0  0  0  0  0
   13.3455  -15.4434   18.2652 O   0  0  0  0  0  0  0  0  0  0  0  0
    7.3686  -11.5981   19.2795 N   0  0  0  0  0  0  0  0  0  0  0  0
    7.8206  -12.8653   18.8352 C   0  0  0  0  0  0  0  0  0  0  0  0
    7.3395  -13.3138   17.7632 O   0  0  0  0  0  0  0  0  0  0  0  0
    8.8293  -13.5976   19.6449 C   0  0  0  0  0  0  0  0  0  0  0  0
    9.2674  -14.8742   18.9593 C   0  0  0  0  0  0  0  0  0  0  0  0
   10.7391  -15.0465   19.2589 C   0  0  2  0  0  0  0  0  0  0  0  0
   11.2282  -16.2395   18.5942 N   0  0  0  0  0  0  0  0  0  0  0  0
   10.9647  -15.2298   20.7379 C   0  0  0  0  0  0  0  0  0  0  0  0
   10.6100  -14.3444   21.5509 O   0  0  0  0  0  0  0  0  0  0  0  0
   11.5767  -16.3924   21.2551 N   0  0  0  0  0  0  0  0  0  0  0  0
   11.8083  -16.7137   22.6317 C   0  0  1  0  0  0  0  0  0  0  0  0
   11.9252  -18.1321   22.9519 C   0  0  0  0  0  0  0  0  0  0  0  0
   10.8081  -19.0284   23.1795 C   0  0  0  0  0  0  0  0  0  0  0  0
   10.9369  -20.4513   23.4626 C   0  0  0  0  0  0  0  0  0  0  0  0
    9.7806  -21.3507   23.6392 C   0  0  0  0  0  0  0  0  0  0  0  0
    9.9823  -22.7522   23.6734 N   0  0  0  0  0  0  0  0  0  0  0  0
   13.2183  -16.1410   23.0126 C   0  0  0  0  0  0  0  0  0  0  0  0
   14.1947  -16.3290   22.3083 O   0  0  0  0  0  0  0  0  0  0  0  0
   13.3100  -15.4119   24.1828 O   0  0  0  0  0  0  0  0  0  0  0  0
  2  1  1  0
  3  2  2  0
  4  2  1  0
  5  6  1  0
  5  4  1  0
  6  8  1  0
  6  7  1  6
  8  9  2  0
 11 10  1  0
 11 12  2  0
 13 11  1  0
 14 13  1  0
 15 14  1  1
 16 15  1  0
 16  8  1  0
 17 15  1  0
 17 18  2  0
 19 17  1  0
 20 19  1  0
 20 26  1  0
 20 21  1  6
 22 21  1  0
 23 22  1  0
 24 23  1  0
 25 24  1  0
 26 28  1  0
 27 26  2  0
M  END
$$$$
