QQK.pdb
     RDKit          3D

 28 27  0  0  1  0  0  0  0  0999 V2000
   11.1060  -16.0296   12.5210 N   0  0  0  0  0  0  0  0  0  0  0  0
    9.6952  -16.1686   12.7856 C   0  0  0  0  0  0  0  0  0  0  0  0
    8.9585  -15.2098   12.4213 O   0  0  0  0  0  0  0  0  0  0  0  0
    9.2245  -17.3933   13.4471 C   0  0  0  0  0  0  0  0  0  0  0  0
    9.0545  -17.2815   14.9210 C   0  0  0  0  0  0  0  0  0  0  0  0
   10.2486  -17.6966   15.7095 C   0  0  2  0  0  0  0  0  0  0  0  0
   10.6727  -19.0154   15.3007 N   0  0  0  0  0  0  0  0  0  0  0  0
    9.9885  -17.6320   17.1725 C   0  0  0  0  0  0  0  0  0  0  0  0
    9.6146  -16.5329   17.6451 O   0  0  0  0  0  0  0  0  0  0  0  0
    8.9027  -22.2253   21.4342 N   0  0  0  0  0  0  0  0  0  0  0  0
    9.0035  -21.0435   22.2091 C   0  0  0  0  0  0  0  0  0  0  0  0
    8.7124  -21.1195   23.4302 O   0  0  0  0  0  0  0  0  0  0  0  0
    9.4428  -19.7842   21.5529 C   0  0  0  0  0  0  0  0  0  0  0  0
    9.5515  -19.9518   20.0522 C   0  0  0  0  0  0  0  0  0  0  0  0
   10.0098  -18.6223   19.4976 C   0  0  2  0  0  0  0  0  0  0  0  0
   10.1346  -18.7205   18.0558 N   0  0  0  0  0  0  0  0  0  0  0  0
   11.3660  -18.2554   20.0436 C   0  0  0  0  0  0  0  0  0  0  0  0
   12.4101  -18.6198   19.4539 O   0  0  0  0  0  0  0  0  0  0  0  0
   11.5076  -17.4964   21.2258 N   0  0  0  0  0  0  0  0  0  0  0  0
   12.7054  -16.9011   21.7383 C   0  0  1  0  0  0  0  0  0  0  0  0
   13.1004  -15.6301   21.1410 C   0  0  0  0  0  0  0  0  0  0  0  0
   14.0836  -15.4766   20.0861 C   0  0  0  0  0  0  0  0  0  0  0  0
   14.3804  -14.2200   19.4121 C   0  0  0  0  0  0  0  0  0  0  0  0
   15.4144  -14.0845   18.3683 C   0  0  0  0  0  0  0  0  0  0  0  0
   15.6581  -12.8173   17.7842 N   0  0  0  0  0  0  0  0  0  0  0  0
   12.4344  -16.5259   23.2373 C   0  0  0  0  0  0  0  0  0  0  0  0
   11.3042  -16.4880   23.6911 O   0  0  0  0  0  0  0  0  0  0  0  0
   13.5320  -16.2389   24.0261 O   0  0  0  0  0  0  0  0  0  0  0  0
  2  1  1  0
  3  2  2  0
  4  2  1  0
  5  6  1  0
  5  4  1  0
  6  8  1  0
  6  7  1  6
  8  9  2  0
 11 10  1  0
 11 12  2  0
 13 11  1  0
 14 13  1  0
 15 14  1  1
 16 15  1  0
 16  8  1  0
 17 15  1  0
 17 18  2  0
 19 17  1  0
 20 19  1  0
 20 26  1  0
 20 21  1  6
 22 21  1  0
 23 22  1  0
 24 23  1  0
 25 24  1  0
 26 28  1  0
 27 26  2  0
M  END
$$$$
