QQK.pdb
     RDKit          3D

 28 27  0  0  1  0  0  0  0  0999 V2000
    9.5077  -15.7042   13.1347 N   0  0  0  0  0  0  0  0  0  0  0  0
    9.4506  -16.9979   13.7694 C   0  0  0  0  0  0  0  0  0  0  0  0
    9.1045  -17.9674   13.0380 O   0  0  0  0  0  0  0  0  0  0  0  0
    9.7936  -17.0938   15.1951 C   0  0  0  0  0  0  0  0  0  0  0  0
    8.7036  -16.6992   16.1277 C   0  0  0  0  0  0  0  0  0  0  0  0
    8.7950  -17.3239   17.4774 C   0  0  2  0  0  0  0  0  0  0  0  0
    7.4895  -17.7763   17.8983 N   0  0  0  0  0  0  0  0  0  0  0  0
    9.4020  -16.3974   18.4699 C   0  0  0  0  0  0  0  0  0  0  0  0
    8.8429  -15.2890   18.6433 O   0  0  0  0  0  0  0  0  0  0  0  0
   10.9014  -16.7800   24.2187 N   0  0  0  0  0  0  0  0  0  0  0  0
   11.3140  -17.7878   23.3123 C   0  0  0  0  0  0  0  0  0  0  0  0
   11.7226  -18.8750   23.7947 O   0  0  0  0  0  0  0  0  0  0  0  0
   11.2463  -17.5184   21.8521 C   0  0  0  0  0  0  0  0  0  0  0  0
   10.7144  -16.1293   21.5704 C   0  0  0  0  0  0  0  0  0  0  0  0
   11.1605  -15.7673   20.1722 C   0  0  2  0  0  0  0  0  0  0  0  0
   10.5582  -16.6841   19.2232 N   0  0  0  0  0  0  0  0  0  0  0  0
   12.6562  -15.8982   20.0386 C   0  0  0  0  0  0  0  0  0  0  0  0
   13.1903  -17.0274   19.9374 O   0  0  0  0  0  0  0  0  0  0  0  0
   13.5001  -14.7663   20.0230 N   0  0  0  0  0  0  0  0  0  0  0  0
   14.9148  -14.7399   19.7999 C   0  0  1  0  0  0  0  0  0  0  0  0
   15.4983  -13.4336   19.5147 C   0  0  0  0  0  0  0  0  0  0  0  0
   16.8871  -13.2007   19.1681 C   0  0  0  0  0  0  0  0  0  0  0  0
   17.3933  -13.1126   17.8052 C   0  0  0  0  0  0  0  0  0  0  0  0
   18.8159  -12.8929   17.4814 C   0  0  0  0  0  0  0  0  0  0  0  0
   19.2323  -12.8809   16.1277 N   0  0  0  0  0  0  0  0  0  0  0  0
   15.6060  -15.1572   21.1451 C   0  0  0  0  0  0  0  0  0  0  0  0
   16.7839  -15.4661   21.1880 O   0  0  0  0  0  0  0  0  0  0  0  0
   14.8235  -15.1607   22.2840 O   0  0  0  0  0  0  0  0  0  0  0  0
  2  1  1  0
  3  2  2  0
  4  2  1  0
  5  6  1  0
  5  4  1  0
  6  8  1  0
  6  7  1  1
  8  9  2  0
 11 10  1  0
 11 12  2  0
 13 11  1  0
 14 13  1  0
 15 14  1  1
 16 15  1  0
 16  8  1  0
 17 15  1  0
 17 18  2  0
 19 17  1  0
 20 19  1  0
 20 26  1  0
 20 21  1  1
 22 21  1  0
 23 22  1  0
 24 23  1  0
 25 24  1  0
 26 28  1  0
 27 26  2  0
M  END
$$$$
