QQK.pdb
     RDKit          3D

 28 27  0  0  1  0  0  0  0  0999 V2000
    9.3860  -20.1196   16.4626 N   0  0  0  0  0  0  0  0  0  0  0  0
    8.1432  -20.4263   17.1266 C   0  0  0  0  0  0  0  0  0  0  0  0
    7.3402  -21.1717   16.4987 O   0  0  0  0  0  0  0  0  0  0  0  0
    7.9048  -19.8608   18.4617 C   0  0  0  0  0  0  0  0  0  0  0  0
    8.9835  -18.9672   18.9634 C   0  0  0  0  0  0  0  0  0  0  0  0
    8.6724  -18.2965   20.2570 C   0  0  2  0  0  0  0  0  0  0  0  0
    7.2474  -18.3192   20.4916 N   0  0  0  0  0  0  0  0  0  0  0  0
    9.2144  -16.9121   20.3005 C   0  0  0  0  0  0  0  0  0  0  0  0
   10.4360  -16.7620   20.0631 O   0  0  0  0  0  0  0  0  0  0  0  0
    9.5739  -12.8256   17.9220 N   0  0  0  0  0  0  0  0  0  0  0  0
    8.4766  -13.6702   17.6221 C   0  0  0  0  0  0  0  0  0  0  0  0
    8.3515  -14.0656   16.4348 O   0  0  0  0  0  0  0  0  0  0  0  0
    7.5354  -14.0458   18.7096 C   0  0  0  0  0  0  0  0  0  0  0  0
    7.9653  -13.4622   20.0387 C   0  0  0  0  0  0  0  0  0  0  0  0
    8.9797  -14.4169   20.6259 C   0  0  2  0  0  0  0  0  0  0  0  0
    8.4473  -15.7657   20.5897 N   0  0  0  0  0  0  0  0  0  0  0  0
    9.2567  -14.0800   22.0687 C   0  0  0  0  0  0  0  0  0  0  0  0
    9.9752  -13.0974   22.3669 O   0  0  0  0  0  0  0  0  0  0  0  0
    8.7226  -14.8504   23.1246 N   0  0  0  0  0  0  0  0  0  0  0  0
    8.6936  -14.5151   24.5169 C   0  0  1  0  0  0  0  0  0  0  0  0
    7.4306  -13.9942   25.0285 C   0  0  0  0  0  0  0  0  0  0  0  0
    7.2203  -13.4960   26.3741 C   0  0  0  0  0  0  0  0  0  0  0  0
    6.2663  -12.4537   26.7278 C   0  0  0  0  0  0  0  0  0  0  0  0
    6.0907  -11.9481   28.1027 C   0  0  0  0  0  0  0  0  0  0  0  0
    5.1063  -10.9646   28.3669 N   0  0  0  0  0  0  0  0  0  0  0  0
    8.8855  -15.8485   25.3211 C   0  0  0  0  0  0  0  0  0  0  0  0
    8.8242  -16.9365   24.7761 O   0  0  0  0  0  0  0  0  0  0  0  0
    9.1280  -15.7401   26.6771 O   0  0  0  0  0  0  0  0  0  0  0  0
  2  1  1  0
  3  2  2  0
  4  2  1  0
  5  6  1  0
  5  4  1  0
  6  8  1  0
  6  7  1  6
  8  9  2  0
 11 10  1  0
 11 12  2  0
 13 11  1  0
 14 13  1  0
 15 14  1  1
 16 15  1  0
 16  8  1  0
 17 15  1  0
 17 18  2  0
 19 17  1  0
 20 19  1  0
 20 26  1  0
 20 21  1  1
 22 21  1  0
 23 22  1  0
 24 23  1  0
 25 24  1  0
 26 28  1  0
 27 26  2  0
M  END
$$$$
