QQK.pdb
     RDKit          3D

 28 27  0  0  1  0  0  0  0  0999 V2000
    6.9901  -15.0643   17.1355 N   0  0  0  0  0  0  0  0  0  0  0  0
    7.8674  -13.9584   17.4304 C   0  0  0  0  0  0  0  0  0  0  0  0
    8.8891  -13.8413   16.6976 O   0  0  0  0  0  0  0  0  0  0  0  0
    7.5157  -13.0630   18.5413 C   0  0  0  0  0  0  0  0  0  0  0  0
    8.4034  -13.1651   19.7309 C   0  0  0  0  0  0  0  0  0  0  0  0
    8.2766  -14.4451   20.4829 C   0  0  2  0  0  0  0  0  0  0  0  0
    6.9996  -15.0571   20.1987 N   0  0  0  0  0  0  0  0  0  0  0  0
    8.4772  -14.2448   21.9430 C   0  0  0  0  0  0  0  0  0  0  0  0
    9.5272  -13.6656   22.3081 O   0  0  0  0  0  0  0  0  0  0  0  0
    7.5663  -11.3410   26.2544 N   0  0  0  0  0  0  0  0  0  0  0  0
    7.7482  -12.6700   26.7105 C   0  0  0  0  0  0  0  0  0  0  0  0
    8.8005  -12.9294   27.3484 O   0  0  0  0  0  0  0  0  0  0  0  0
    6.7014  -13.6840   26.4183 C   0  0  0  0  0  0  0  0  0  0  0  0
    6.4784  -13.8348   24.9286 C   0  0  0  0  0  0  0  0  0  0  0  0
    7.7468  -14.4248   24.3558 C   0  0  2  0  0  0  0  0  0  0  0  0
    7.5680  -14.6618   22.9359 N   0  0  0  0  0  0  0  0  0  0  0  0
    8.0557  -15.7525   24.9991 C   0  0  0  0  0  0  0  0  0  0  0  0
    7.1451  -16.5894   25.2019 O   0  0  0  0  0  0  0  0  0  0  0  0
    9.3672  -16.0975   25.3922 N   0  0  0  0  0  0  0  0  0  0  0  0
    9.8203  -17.3602   25.8945 C   0  0  1  0  0  0  0  0  0  0  0  0
   11.2297  -17.6707   25.6816 C   0  0  0  0  0  0  0  0  0  0  0  0
   11.8832  -18.8969   26.0966 C   0  0  0  0  0  0  0  0  0  0  0  0
   13.2486  -19.2631   25.7459 C   0  0  0  0  0  0  0  0  0  0  0  0
   13.9088  -20.4904   26.2306 C   0  0  0  0  0  0  0  0  0  0  0  0
   15.2811  -20.7042   25.9524 N   0  0  0  0  0  0  0  0  0  0  0  0
    9.6942  -17.3118   27.4575 C   0  0  0  0  0  0  0  0  0  0  0  0
    9.6114  -16.2550   28.0584 O   0  0  0  0  0  0  0  0  0  0  0  0
    9.6807  -18.5195   28.1288 O   0  0  0  0  0  0  0  0  0  0  0  0
  2  1  1  0
  3  2  2  0
  4  2  1  0
  5  6  1  0
  5  4  1  0
  6  8  1  0
  6  7  1  1
  8  9  2  0
 11 10  1  0
 11 12  2  0
 13 11  1  0
 14 13  1  0
 15 14  1  1
 16 15  1  0
 16  8  1  0
 17 15  1  0
 17 18  2  0
 19 17  1  0
 20 19  1  0
 20 26  1  0
 20 21  1  1
 22 21  1  0
 23 22  1  0
 24 23  1  0
 25 24  1  0
 26 28  1  0
 27 26  2  0
M  END
$$$$
