YGY.pdb
     RDKit          3D

 29 30  0  0  1  0  0  0  0  0999 V2000
   21.7254  -19.8249  -21.6510 O   0  0  0  0  0  0  0  0  0  0  0  0
   22.4384  -19.5805  -20.4704 C   0  0  0  0  0  0  0  0  0  0  0  0
   23.6601  -20.1824  -20.2349 C   0  0  0  0  0  0  0  0  0  0  0  0
   24.3880  -19.9592  -19.0758 C   0  0  0  0  0  0  0  0  0  0  0  0
   23.8617  -19.0955  -18.1191 C   0  0  0  0  0  0  0  0  0  0  0  0
   24.6395  -18.8695  -16.9023 C   0  0  0  0  0  0  0  0  0  0  0  0
   24.5829  -19.9751  -15.9028 C   0  0  2  0  0  0  0  0  0  0  0  0
   23.2205  -20.2161  -15.4255 N   0  0  0  0  0  0  0  0  0  0  0  0
   25.5296  -19.8213  -14.7859 C   0  0  0  0  0  0  0  0  0  0  0  0
   26.7576  -19.7983  -15.0601 O   0  0  0  0  0  0  0  0  0  0  0  0
   22.6422  -18.4780  -18.3250 C   0  0  0  0  0  0  0  0  0  0  0  0
   21.9670  -18.7341  -19.4861 C   0  0  0  0  0  0  0  0  0  0  0  0
   25.1657  -19.6977  -13.4302 N   0  0  0  0  0  0  0  0  0  0  0  0
   26.1046  -19.4724  -12.3590 C   0  0  0  0  0  0  0  0  0  0  0  0
   25.9862  -20.4728  -11.2787 C   0  0  0  0  0  0  0  0  0  0  0  0
   25.1944  -21.4337  -11.4217 O   0  0  0  0  0  0  0  0  0  0  0  0
   28.1462  -18.3699   -3.6222 O   0  0  0  0  0  0  0  0  0  0  0  0
   28.1170  -19.1516   -4.7805 C   0  0  0  0  0  0  0  0  0  0  0  0
   28.2326  -18.4613   -5.9865 C   0  0  0  0  0  0  0  0  0  0  0  0
   28.2061  -19.2125   -7.1376 C   0  0  0  0  0  0  0  0  0  0  0  0
   28.0714  -20.5984   -7.1338 C   0  0  0  0  0  0  0  0  0  0  0  0
   28.0355  -21.3441   -8.3949 C   0  0  0  0  0  0  0  0  0  0  0  0
   26.6471  -21.2893   -8.9861 C   0  0  2  0  0  0  0  0  0  0  0  0
   26.7446  -20.3559  -10.1085 N   0  0  0  0  0  0  0  0  0  0  0  0
   25.6147  -20.8862   -8.0320 C   0  0  0  0  0  0  0  0  0  0  0  0
   25.1129  -21.7434   -7.0420 O   0  0  0  0  0  0  0  0  0  0  0  0
   27.9618  -21.2270   -5.9284 C   0  0  0  0  0  0  0  0  0  0  0  0
   27.9830  -20.5175   -4.7456 C   0  0  0  0  0  0  0  0  0  0  0  0
   25.1145  -19.7351   -8.0473 O   0  0  0  0  0  0  0  0  0  0  0  0
  2  1  1  0
  3  2  2  0
  4  3  1  0
  5  4  2  0
  5 11  1  0
  6  5  1  0
  7  6  1  0
  7  8  1  1
  9  7  1  0
  9 13  1  0
 10  9  2  0
 11 12  2  0
 12  2  1  0
 14 13  1  0
 15 14  1  0
 15 24  1  0
 16 15  2  0
 18 28  2  0
 18 17  1  0
 19 18  1  0
 20 21  1  0
 20 19  2  0
 21 27  2  0
 22 21  1  0
 23 24  1  0
 23 22  1  1
 25 23  1  0
 26 25  1  0
 27 28  1  0
 29 25  2  0
M  END
$$$$
