YGY.pdb
     RDKit          3D

 29 30  0  0  1  0  0  0  0  0999 V2000
   23.6109  -16.6323  -20.2624 O   0  0  0  0  0  0  0  0  0  0  0  0
   22.8998  -17.2120  -19.2040 C   0  0  0  0  0  0  0  0  0  0  0  0
   22.3530  -16.4358  -18.1996 C   0  0  0  0  0  0  0  0  0  0  0  0
   21.6444  -16.9819  -17.1399 C   0  0  0  0  0  0  0  0  0  0  0  0
   21.4825  -18.3640  -17.0936 C   0  0  0  0  0  0  0  0  0  0  0  0
   20.7335  -18.9259  -15.9712 C   0  0  0  0  0  0  0  0  0  0  0  0
   21.5506  -19.2486  -14.7659 C   0  0  2  0  0  0  0  0  0  0  0  0
   22.6250  -20.1957  -15.0669 N   0  0  0  0  0  0  0  0  0  0  0  0
   20.7575  -19.6799  -13.6030 C   0  0  0  0  0  0  0  0  0  0  0  0
   19.7640  -18.9778  -13.2807 O   0  0  0  0  0  0  0  0  0  0  0  0
   22.0174  -19.1676  -18.0831 C   0  0  0  0  0  0  0  0  0  0  0  0
   22.7069  -18.5760  -19.1048 C   0  0  0  0  0  0  0  0  0  0  0  0
   21.0258  -20.8211  -12.8210 N   0  0  0  0  0  0  0  0  0  0  0  0
   20.2271  -21.2338  -11.6934 C   0  0  0  0  0  0  0  0  0  0  0  0
   19.0615  -22.0498  -12.0901 C   0  0  0  0  0  0  0  0  0  0  0  0
   18.8642  -22.2805  -13.3059 O   0  0  0  0  0  0  0  0  0  0  0  0
   18.0340  -24.7848   -5.3420 O   0  0  0  0  0  0  0  0  0  0  0  0
   17.9550  -24.7755   -6.7373 C   0  0  0  0  0  0  0  0  0  0  0  0
   16.7274  -25.1501   -7.2823 C   0  0  0  0  0  0  0  0  0  0  0  0
   16.6292  -25.1473   -8.6535 C   0  0  0  0  0  0  0  0  0  0  0  0
   17.6867  -24.7926   -9.4871 C   0  0  0  0  0  0  0  0  0  0  0  0
   17.5261  -24.8226  -10.9435 C   0  0  0  0  0  0  0  0  0  0  0  0
   17.0801  -23.4682  -11.4403 C   0  0  2  0  0  0  0  0  0  0  0  0
   18.1849  -22.5616  -11.1267 N   0  0  0  0  0  0  0  0  0  0  0  0
   15.8195  -23.0110  -10.8567 C   0  0  0  0  0  0  0  0  0  0  0  0
   14.5714  -23.5267  -11.2348 O   0  0  0  0  0  0  0  0  0  0  0  0
   18.8671  -24.4340   -8.9054 C   0  0  0  0  0  0  0  0  0  0  0  0
   19.0153  -24.4208   -7.5340 C   0  0  0  0  0  0  0  0  0  0  0  0
   15.7854  -22.1198   -9.9734 O   0  0  0  0  0  0  0  0  0  0  0  0
  2  1  1  0
  3  2  2  0
  4  3  1  0
  5  4  2  0
  5 11  1  0
  6  5  1  0
  7  6  1  0
  7  8  1  6
  9  7  1  0
  9 13  1  0
 10  9  2  0
 11 12  2  0
 12  2  1  0
 14 13  1  0
 15 14  1  0
 15 24  1  0
 16 15  2  0
 18 28  2  0
 18 17  1  0
 19 18  1  0
 20 21  1  0
 20 19  2  0
 21 27  2  0
 22 21  1  0
 23 24  1  0
 23 22  1  1
 25 23  1  0
 26 25  1  0
 27 28  1  0
 29 25  2  0
M  END
$$$$
