YGY.pdb
     RDKit          3D

 29 30  0  0  1  0  0  0  0  0999 V2000
   21.5716   -2.3789  -14.3824 O   0  0  0  0  0  0  0  0  0  0  0  0
   21.4194   -3.7688  -14.4639 C   0  0  0  0  0  0  0  0  0  0  0  0
   20.8743   -4.3642  -15.5859 C   0  0  0  0  0  0  0  0  0  0  0  0
   20.7116   -5.7371  -15.6944 C   0  0  0  0  0  0  0  0  0  0  0  0
   21.1148   -6.5382  -14.6294 C   0  0  0  0  0  0  0  0  0  0  0  0
   20.9375   -7.9834  -14.7574 C   0  0  0  0  0  0  0  0  0  0  0  0
   21.9594   -8.6725  -15.5972 C   0  0  2  0  0  0  0  0  0  0  0  0
   22.1535   -8.0056  -16.8855 N   0  0  0  0  0  0  0  0  0  0  0  0
   21.7225  -10.1160  -15.7641 C   0  0  0  0  0  0  0  0  0  0  0  0
   21.6727  -10.8237  -14.7247 O   0  0  0  0  0  0  0  0  0  0  0  0
   21.6635   -5.9730  -13.4935 C   0  0  0  0  0  0  0  0  0  0  0  0
   21.8007   -4.6137  -13.4401 C   0  0  0  0  0  0  0  0  0  0  0  0
   21.5469  -10.7677  -17.0011 N   0  0  0  0  0  0  0  0  0  0  0  0
   21.3254  -12.1857  -17.1429 C   0  0  0  0  0  0  0  0  0  0  0  0
   19.9162  -12.5668  -16.9171 C   0  0  0  0  0  0  0  0  0  0  0  0
   19.0824  -11.6765  -16.6298 O   0  0  0  0  0  0  0  0  0  0  0  0
   12.8632  -17.7991  -16.9928 O   0  0  0  0  0  0  0  0  0  0  0  0
   14.1390  -17.2526  -17.1573 C   0  0  0  0  0  0  0  0  0  0  0  0
   15.1210  -17.7197  -16.2846 C   0  0  0  0  0  0  0  0  0  0  0  0
   16.3830  -17.1943  -16.4303 C   0  0  0  0  0  0  0  0  0  0  0  0
   16.6987  -16.2397  -17.3936 C   0  0  0  0  0  0  0  0  0  0  0  0
   18.0600  -15.7059  -17.4915 C   0  0  0  0  0  0  0  0  0  0  0  0
   18.1253  -14.3409  -16.8493 C   0  0  2  0  0  0  0  0  0  0  0  0
   19.5104  -13.9020  -17.0210 N   0  0  0  0  0  0  0  0  0  0  0  0
   17.7219  -14.3299  -15.4436 C   0  0  0  0  0  0  0  0  0  0  0  0
   16.4691  -13.8706  -15.0121 O   0  0  0  0  0  0  0  0  0  0  0  0
   15.7030  -15.8150  -18.2234 C   0  0  0  0  0  0  0  0  0  0  0  0
   14.4205  -16.3120  -18.1169 C   0  0  0  0  0  0  0  0  0  0  0  0
   18.4854  -14.7366  -14.5342 O   0  0  0  0  0  0  0  0  0  0  0  0
  2  1  1  0
  3  2  2  0
  4  3  1  0
  5  4  2  0
  5 11  1  0
  6  5  1  0
  7  6  1  0
  7  8  1  6
  9  7  1  0
  9 13  1  0
 10  9  2  0
 11 12  2  0
 12  2  1  0
 14 13  1  0
 15 14  1  0
 15 24  1  0
 16 15  2  0
 18 28  2  0
 18 17  1  0
 19 18  1  0
 20 21  1  0
 20 19  2  0
 21 27  2  0
 22 21  1  0
 23 24  1  0
 23 22  1  1
 25 23  1  0
 26 25  1  0
 27 28  1  0
 29 25  2  0
M  END
$$$$
