YGY.pdb
     RDKit          3D

 29 30  0  0  1  0  0  0  0  0999 V2000
   24.1331  -14.2693  -27.2026 O   0  0  0  0  0  0  0  0  0  0  0  0
   24.5893  -13.0462  -26.6950 C   0  0  0  0  0  0  0  0  0  0  0  0
   23.7042  -12.0613  -26.2987 C   0  0  0  0  0  0  0  0  0  0  0  0
   24.1270  -10.8413  -25.7927 C   0  0  0  0  0  0  0  0  0  0  0  0
   25.4952  -10.6079  -25.6831 C   0  0  0  0  0  0  0  0  0  0  0  0
   25.9266   -9.3179  -25.1482 C   0  0  0  0  0  0  0  0  0  0  0  0
   26.7987   -9.3953  -23.9407 C   0  0  2  0  0  0  0  0  0  0  0  0
   26.1220  -10.0388  -22.8137 N   0  0  0  0  0  0  0  0  0  0  0  0
   27.3968   -8.1079  -23.5507 C   0  0  0  0  0  0  0  0  0  0  0  0
   28.0917   -7.5031  -24.4081 O   0  0  0  0  0  0  0  0  0  0  0  0
   26.4058  -11.5729  -26.0710 C   0  0  0  0  0  0  0  0  0  0  0  0
   25.9336  -12.7579  -26.5631 C   0  0  0  0  0  0  0  0  0  0  0  0
   27.2508   -7.4991  -22.2882 N   0  0  0  0  0  0  0  0  0  0  0  0
   27.8172   -6.2199  -21.9378 C   0  0  0  0  0  0  0  0  0  0  0  0
   28.7572   -6.3060  -20.8016 C   0  0  0  0  0  0  0  0  0  0  0  0
   29.5231   -7.2943  -20.7174 O   0  0  0  0  0  0  0  0  0  0  0  0
   34.5826   -5.4432  -14.7405 O   0  0  0  0  0  0  0  0  0  0  0  0
   33.7058   -5.4398  -15.8288 C   0  0  0  0  0  0  0  0  0  0  0  0
   33.0104   -6.6266  -16.0569 C   0  0  0  0  0  0  0  0  0  0  0  0
   32.1427   -6.6436  -17.1231 C   0  0  0  0  0  0  0  0  0  0  0  0
   31.9446   -5.5447  -17.9551 C   0  0  0  0  0  0  0  0  0  0  0  0
   31.0159   -5.6276  -19.0857 C   0  0  0  0  0  0  0  0  0  0  0  0
   29.6029   -5.3888  -18.6099 C   0  0  2  0  0  0  0  0  0  0  0  0
   28.7975   -5.3013  -19.8283 N   0  0  0  0  0  0  0  0  0  0  0  0
   29.4548   -4.1982  -17.7738 C   0  0  0  0  0  0  0  0  0  0  0  0
   28.8062   -3.0339  -18.2104 O   0  0  0  0  0  0  0  0  0  0  0  0
   32.6486   -4.4070  -17.6902 C   0  0  0  0  0  0  0  0  0  0  0  0
   33.5312   -4.3402  -16.6322 C   0  0  0  0  0  0  0  0  0  0  0  0
   29.9064   -4.1526  -16.6035 O   0  0  0  0  0  0  0  0  0  0  0  0
  2  1  1  0
  3  2  2  0
  4  3  1  0
  5  4  2  0
  5 11  1  0
  6  5  1  0
  7  6  1  0
  7  8  1  1
  9  7  1  0
  9 13  1  0
 10  9  2  0
 11 12  2  0
 12  2  1  0
 14 13  1  0
 15 14  1  0
 15 24  1  0
 16 15  2  0
 18 28  2  0
 18 17  1  0
 19 18  1  0
 20 21  1  0
 20 19  2  0
 21 27  2  0
 22 21  1  0
 23 24  1  0
 23 22  1  6
 25 23  1  0
 26 25  1  0
 27 28  1  0
 29 25  2  0
M  END
$$$$
