YGY.pdb
     RDKit          3D

 29 30  0  0  1  0  0  0  0  0999 V2000
   21.1544   -0.4613  -15.6879 O   0  0  0  0  0  0  0  0  0  0  0  0
   21.5635   -1.7467  -15.3106 C   0  0  0  0  0  0  0  0  0  0  0  0
   22.2497   -2.5653  -16.1876 C   0  0  0  0  0  0  0  0  0  0  0  0
   22.6670   -3.8418  -15.8417 C   0  0  0  0  0  0  0  0  0  0  0  0
   22.3800   -4.3083  -14.5616 C   0  0  0  0  0  0  0  0  0  0  0  0
   22.8257   -5.6554  -14.2106 C   0  0  0  0  0  0  0  0  0  0  0  0
   21.8584   -6.7440  -14.5330 C   0  0  2  0  0  0  0  0  0  0  0  0
   20.5755   -6.5594  -13.8532 N   0  0  0  0  0  0  0  0  0  0  0  0
   22.3923   -8.1002  -14.3248 C   0  0  0  0  0  0  0  0  0  0  0  0
   21.9072   -8.7808  -13.3840 O   0  0  0  0  0  0  0  0  0  0  0  0
   21.6953   -3.5136  -13.6613 C   0  0  0  0  0  0  0  0  0  0  0  0
   21.3076   -2.2631  -14.0555 C   0  0  0  0  0  0  0  0  0  0  0  0
   23.4071   -8.6962  -15.0998 N   0  0  0  0  0  0  0  0  0  0  0  0
   23.8925  -10.0395  -14.9001 C   0  0  0  0  0  0  0  0  0  0  0  0
   25.0083  -10.3817  -15.8054 C   0  0  0  0  0  0  0  0  0  0  0  0
   25.2046   -9.6786  -16.8241 O   0  0  0  0  0  0  0  0  0  0  0  0
   32.3180  -14.3896  -18.5170 O   0  0  0  0  0  0  0  0  0  0  0  0
   31.2194  -13.9460  -17.7758 C   0  0  0  0  0  0  0  0  0  0  0  0
   30.1984  -14.8754  -17.5807 C   0  0  0  0  0  0  0  0  0  0  0  0
   29.1087  -14.4584  -16.8538 C   0  0  0  0  0  0  0  0  0  0  0  0
   28.9987  -13.1754  -16.3237 C   0  0  0  0  0  0  0  0  0  0  0  0
   27.8052  -12.7840  -15.5687 C   0  0  0  0  0  0  0  0  0  0  0  0
   26.9224  -11.9039  -16.4210 C   0  0  2  0  0  0  0  0  0  0  0  0
   25.8393  -11.4749  -15.5358 N   0  0  0  0  0  0  0  0  0  0  0  0
   26.4133  -12.5648  -17.6221 C   0  0  0  0  0  0  0  0  0  0  0  0
   26.9043  -12.2962  -18.9080 O   0  0  0  0  0  0  0  0  0  0  0  0
   30.0242  -12.3031  -16.5423 C   0  0  0  0  0  0  0  0  0  0  0  0
   31.1389  -12.6741  -17.2653 C   0  0  0  0  0  0  0  0  0  0  0  0
   25.4964  -13.4202  -17.5670 O   0  0  0  0  0  0  0  0  0  0  0  0
  2  1  1  0
  3  2  2  0
  4  3  1  0
  5  4  2  0
  5 11  1  0
  6  5  1  0
  7  6  1  0
  7  8  1  1
  9  7  1  0
  9 13  1  0
 10  9  2  0
 11 12  2  0
 12  2  1  0
 14 13  1  0
 15 14  1  0
 15 24  1  0
 16 15  2  0
 18 28  2  0
 18 17  1  0
 19 18  1  0
 20 21  1  0
 20 19  2  0
 21 27  2  0
 22 21  1  0
 23 24  1  0
 23 22  1  1
 25 23  1  0
 26 25  1  0
 27 28  1  0
 29 25  2  0
M  END
$$$$
