YGY.pdb
     RDKit          3D

 29 30  0  0  1  0  0  0  0  0999 V2000
   34.6827  -27.8863  -19.0885 O   0  0  0  0  0  0  0  0  0  0  0  0
   33.6709  -28.8459  -18.9572 C   0  0  0  0  0  0  0  0  0  0  0  0
   32.4222  -28.5070  -18.4711 C   0  0  0  0  0  0  0  0  0  0  0  0
   31.4018  -29.4356  -18.3303 C   0  0  0  0  0  0  0  0  0  0  0  0
   31.6527  -30.7557  -18.6945 C   0  0  0  0  0  0  0  0  0  0  0  0
   30.5683  -31.7237  -18.5409 C   0  0  0  0  0  0  0  0  0  0  0  0
   30.2365  -32.0810  -17.1313 C   0  0  2  0  0  0  0  0  0  0  0  0
   31.3719  -32.6884  -16.4357 N   0  0  0  0  0  0  0  0  0  0  0  0
   29.0168  -32.8935  -16.9910 C   0  0  0  0  0  0  0  0  0  0  0  0
   27.9616  -32.4598  -17.5222 O   0  0  0  0  0  0  0  0  0  0  0  0
   32.8912  -31.1263  -19.1840 C   0  0  0  0  0  0  0  0  0  0  0  0
   33.8610  -30.1697  -19.3020 C   0  0  0  0  0  0  0  0  0  0  0  0
   28.9398  -34.1226  -16.3060 N   0  0  0  0  0  0  0  0  0  0  0  0
   27.7272  -34.8886  -16.1548 C   0  0  0  0  0  0  0  0  0  0  0  0
   27.1361  -34.7580  -14.8074 C   0  0  0  0  0  0  0  0  0  0  0  0
   27.8654  -34.9279  -13.8026 O   0  0  0  0  0  0  0  0  0  0  0  0
   23.0846  -32.8716   -7.6129 O   0  0  0  0  0  0  0  0  0  0  0  0
   23.7372  -32.9617   -8.8455 C   0  0  0  0  0  0  0  0  0  0  0  0
   22.9767  -32.6277   -9.9654 C   0  0  0  0  0  0  0  0  0  0  0  0
   23.6008  -32.7099  -11.1876 C   0  0  0  0  0  0  0  0  0  0  0  0
   24.9280  -33.1046  -11.3345 C   0  0  0  0  0  0  0  0  0  0  0  0
   25.5349  -33.1868  -12.6659 C   0  0  0  0  0  0  0  0  0  0  0  0
   25.0974  -34.4580  -13.3536 C   0  0  2  0  0  0  0  0  0  0  0  0
   25.7807  -34.4489  -14.6474 N   0  0  0  0  0  0  0  0  0  0  0  0
   23.6479  -34.5783  -13.5052 C   0  0  0  0  0  0  0  0  0  0  0  0
   22.9270  -33.9141  -14.5081 O   0  0  0  0  0  0  0  0  0  0  0  0
   25.6294  -33.4211  -10.2084 C   0  0  0  0  0  0  0  0  0  0  0  0
   25.0479  -33.3543   -8.9593 C   0  0  0  0  0  0  0  0  0  0  0  0
   22.9603  -35.2925  -12.7353 O   0  0  0  0  0  0  0  0  0  0  0  0
  2  1  1  0
  3  2  2  0
  4  3  1  0
  5  4  2  0
  5 11  1  0
  6  5  1  0
  7  6  1  0
  7  8  1  6
  9  7  1  0
  9 13  1  0
 10  9  2  0
 11 12  2  0
 12  2  1  0
 14 13  1  0
 15 14  1  0
 15 24  1  0
 16 15  2  0
 18 28  2  0
 18 17  1  0
 19 18  1  0
 20 21  1  0
 20 19  2  0
 21 27  2  0
 22 21  1  0
 23 24  1  0
 23 22  1  6
 25 23  1  0
 26 25  1  0
 27 28  1  0
 29 25  2  0
M  END
$$$$
