YGY.pdb
     RDKit          3D

 29 30  0  0  1  0  0  0  0  0999 V2000
   18.6207  -23.3900   -9.6579 O   0  0  0  0  0  0  0  0  0  0  0  0
   19.3874  -22.4868  -10.4050 C   0  0  0  0  0  0  0  0  0  0  0  0
   19.1547  -22.2957  -11.7540 C   0  0  0  0  0  0  0  0  0  0  0  0
   19.8975  -21.4086  -12.5185 C   0  0  0  0  0  0  0  0  0  0  0  0
   20.9134  -20.6878  -11.8965 C   0  0  0  0  0  0  0  0  0  0  0  0
   21.6883  -19.7565  -12.7143 C   0  0  0  0  0  0  0  0  0  0  0  0
   22.6892  -20.3930  -13.6184 C   0  0  2  0  0  0  0  0  0  0  0  0
   23.6264  -21.2470  -12.8874 N   0  0  0  0  0  0  0  0  0  0  0  0
   23.3926  -19.4430  -14.4960 C   0  0  0  0  0  0  0  0  0  0  0  0
   23.8237  -18.3796  -13.9792 O   0  0  0  0  0  0  0  0  0  0  0  0
   21.1709  -20.8564  -10.5489 C   0  0  0  0  0  0  0  0  0  0  0  0
   20.4076  -21.7444   -9.8431 C   0  0  0  0  0  0  0  0  0  0  0  0
   23.6208  -19.6331  -15.8735 N   0  0  0  0  0  0  0  0  0  0  0  0
   24.4165  -18.7499  -16.6900 C   0  0  0  0  0  0  0  0  0  0  0  0
   25.8668  -18.9815  -16.5322 C   0  0  0  0  0  0  0  0  0  0  0  0
   26.6516  -18.5545  -17.4110 O   0  0  0  0  0  0  0  0  0  0  0  0
   25.3222  -20.9576   -9.5521 O   0  0  0  0  0  0  0  0  0  0  0  0
   26.0871  -20.6203  -10.6721 C   0  0  0  0  0  0  0  0  0  0  0  0
   25.8360  -19.3666  -11.2285 C   0  0  0  0  0  0  0  0  0  0  0  0
   26.5784  -19.0160  -12.3312 C   0  0  0  0  0  0  0  0  0  0  0  0
   27.5429  -19.8502  -12.8905 C   0  0  0  0  0  0  0  0  0  0  0  0
   28.2933  -19.4267  -14.0760 C   0  0  0  0  0  0  0  0  0  0  0  0
   27.7516  -20.1202  -15.3031 C   0  0  2  0  0  0  0  0  0  0  0  0
   26.3651  -19.6676  -15.4189 N   0  0  0  0  0  0  0  0  0  0  0  0
   27.8444  -21.5785  -15.2464 C   0  0  0  0  0  0  0  0  0  0  0  0
   29.0627  -22.2697  -15.3159 O   0  0  0  0  0  0  0  0  0  0  0  0
   27.7511  -21.0664  -12.3095 C   0  0  0  0  0  0  0  0  0  0  0  0
   27.0318  -21.4641  -11.2017 C   0  0  0  0  0  0  0  0  0  0  0  0
   26.8247  -22.3013  -15.1307 O   0  0  0  0  0  0  0  0  0  0  0  0
  2  1  1  0
  3  2  2  0
  4  3  1  0
  5  4  2  0
  5 11  1  0
  6  5  1  0
  7  6  1  0
  7  8  1  1
  9  7  1  0
  9 13  1  0
 10  9  2  0
 11 12  2  0
 12  2  1  0
 14 13  1  0
 15 14  1  0
 15 24  1  0
 16 15  2  0
 18 28  2  0
 18 17  1  0
 19 18  1  0
 20 21  1  0
 20 19  2  0
 21 27  2  0
 22 21  1  0
 23 24  1  0
 23 22  1  1
 25 23  1  0
 26 25  1  0
 27 28  1  0
 29 25  2  0
M  END
$$$$
