YGY.pdb
     RDKit          3D

 29 30  0  0  1  0  0  0  0  0999 V2000
   19.2981  -19.7103  -20.0809 O   0  0  0  0  0  0  0  0  0  0  0  0
   20.4752  -19.5812  -19.3328 C   0  0  0  0  0  0  0  0  0  0  0  0
   20.4523  -19.0851  -18.0429 C   0  0  0  0  0  0  0  0  0  0  0  0
   21.6014  -18.9463  -17.2791 C   0  0  0  0  0  0  0  0  0  0  0  0
   22.8190  -19.3228  -17.8396 C   0  0  0  0  0  0  0  0  0  0  0  0
   24.0219  -19.1711  -17.0233 C   0  0  0  0  0  0  0  0  0  0  0  0
   24.6437  -20.4496  -16.5722 C   0  0  2  0  0  0  0  0  0  0  0  0
   23.7092  -21.2761  -15.8070 N   0  0  0  0  0  0  0  0  0  0  0  0
   25.9213  -20.2758  -15.8616 C   0  0  0  0  0  0  0  0  0  0  0  0
   26.8646  -19.7211  -16.4830 O   0  0  0  0  0  0  0  0  0  0  0  0
   22.8750  -19.8225  -19.1273 C   0  0  0  0  0  0  0  0  0  0  0  0
   21.7112  -19.9380  -19.8354 C   0  0  0  0  0  0  0  0  0  0  0  0
   26.1699  -20.6838  -14.5359 N   0  0  0  0  0  0  0  0  0  0  0  0
   27.3822  -20.3874  -13.8132 C   0  0  0  0  0  0  0  0  0  0  0  0
   27.3612  -20.9055  -12.4301 C   0  0  0  0  0  0  0  0  0  0  0  0
   27.5662  -22.1260  -12.2330 O   0  0  0  0  0  0  0  0  0  0  0  0
   27.3458  -20.4653   -3.6760 O   0  0  0  0  0  0  0  0  0  0  0  0
   27.4863  -20.1875   -5.0385 C   0  0  0  0  0  0  0  0  0  0  0  0
   26.3049  -19.9404   -5.7367 C   0  0  0  0  0  0  0  0  0  0  0  0
   26.4219  -19.6650   -7.0785 C   0  0  0  0  0  0  0  0  0  0  0  0
   27.6471  -19.6268   -7.7391 C   0  0  0  0  0  0  0  0  0  0  0  0
   27.7075  -19.3413   -9.1753 C   0  0  0  0  0  0  0  0  0  0  0  0
   27.1169  -20.4922   -9.9543 C   0  0  2  0  0  0  0  0  0  0  0  0
   27.1163  -20.0509  -11.3493 N   0  0  0  0  0  0  0  0  0  0  0  0
   25.7806  -20.8836   -9.5074 C   0  0  0  0  0  0  0  0  0  0  0  0
   25.5510  -21.9571   -8.6347 O   0  0  0  0  0  0  0  0  0  0  0  0
   28.7738  -19.8756   -7.0118 C   0  0  0  0  0  0  0  0  0  0  0  0
   28.7086  -20.1568   -5.6630 C   0  0  0  0  0  0  0  0  0  0  0  0
   24.7520  -20.2717   -9.8858 O   0  0  0  0  0  0  0  0  0  0  0  0
  2  1  1  0
  3  2  2  0
  4  3  1  0
  5  4  2  0
  5 11  1  0
  6  5  1  0
  7  6  1  0
  7  8  1  1
  9  7  1  0
  9 13  1  0
 10  9  2  0
 11 12  2  0
 12  2  1  0
 14 13  1  0
 15 14  1  0
 15 24  1  0
 16 15  2  0
 18 28  2  0
 18 17  1  0
 19 18  1  0
 20 21  1  0
 20 19  2  0
 21 27  2  0
 22 21  1  0
 23 24  1  0
 23 22  1  1
 25 23  1  0
 26 25  1  0
 27 28  1  0
 29 25  2  0
M  END
$$$$
