YGY.pdb
     RDKit          3D

 29 30  0  0  1  0  0  0  0  0999 V2000
   29.1993  -18.5906  -19.9119 O   0  0  0  0  0  0  0  0  0  0  0  0
   28.5797  -18.6146  -18.6560 C   0  0  0  0  0  0  0  0  0  0  0  0
   29.1224  -17.9418  -17.5776 C   0  0  0  0  0  0  0  0  0  0  0  0
   28.5312  -17.9479  -16.3231 C   0  0  0  0  0  0  0  0  0  0  0  0
   27.3474  -18.6606  -16.1523 C   0  0  0  0  0  0  0  0  0  0  0  0
   26.7353  -18.6584  -14.8249 C   0  0  0  0  0  0  0  0  0  0  0  0
   27.2483  -19.7029  -13.8919 C   0  0  2  0  0  0  0  0  0  0  0  0
   27.2229  -21.0374  -14.4921 N   0  0  0  0  0  0  0  0  0  0  0  0
   26.6042  -19.6914  -12.5680 C   0  0  0  0  0  0  0  0  0  0  0  0
   26.4489  -18.5773  -12.0037 O   0  0  0  0  0  0  0  0  0  0  0  0
   26.7796  -19.3439  -17.2113 C   0  0  0  0  0  0  0  0  0  0  0  0
   27.4051  -19.3038  -18.4264 C   0  0  0  0  0  0  0  0  0  0  0  0
   26.1472  -20.8345  -11.8825 N   0  0  0  0  0  0  0  0  0  0  0  0
   25.4593  -20.7956  -10.6155 C   0  0  0  0  0  0  0  0  0  0  0  0
   24.0639  -21.2707  -10.7109 C   0  0  0  0  0  0  0  0  0  0  0  0
   23.7227  -21.9663  -11.6959 O   0  0  0  0  0  0  0  0  0  0  0  0
   16.2669  -23.6260   -7.4837 O   0  0  0  0  0  0  0  0  0  0  0  0
   17.4672  -22.9537   -7.7299 C   0  0  0  0  0  0  0  0  0  0  0  0
   18.6234  -23.5760   -7.2610 C   0  0  0  0  0  0  0  0  0  0  0  0
   19.8147  -22.9304   -7.4933 C   0  0  0  0  0  0  0  0  0  0  0  0
   19.8971  -21.7118   -8.1621 C   0  0  0  0  0  0  0  0  0  0  0  0
   21.1956  -21.0643   -8.3676 C   0  0  0  0  0  0  0  0  0  0  0  0
   21.7515  -21.4427   -9.7197 C   0  0  2  0  0  0  0  0  0  0  0  0
   23.1300  -20.9523   -9.7186 N   0  0  0  0  0  0  0  0  0  0  0  0
   20.9848  -20.9071  -10.8440 C   0  0  0  0  0  0  0  0  0  0  0  0
   21.1259  -19.5908  -11.3067 O   0  0  0  0  0  0  0  0  0  0  0  0
   18.7376  -21.1437   -8.6011 C   0  0  0  0  0  0  0  0  0  0  0  0
   17.5174  -21.7523   -8.3925 C   0  0  0  0  0  0  0  0  0  0  0  0
   20.1472  -21.6061  -11.4649 O   0  0  0  0  0  0  0  0  0  0  0  0
  2  1  1  0
  3  2  2  0
  4  3  1  0
  5  4  2  0
  5 11  1  0
  6  5  1  0
  7  6  1  0
  7  8  1  6
  9  7  1  0
  9 13  1  0
 10  9  2  0
 11 12  2  0
 12  2  1  0
 14 13  1  0
 15 14  1  0
 15 24  1  0
 16 15  2  0
 18 28  2  0
 18 17  1  0
 19 18  1  0
 20 21  1  0
 20 19  2  0
 21 27  2  0
 22 21  1  0
 23 24  1  0
 23 22  1  1
 25 23  1  0
 26 25  1  0
 27 28  1  0
 29 25  2  0
M  END
$$$$
