YGY.pdb
     RDKit          3D

 29 30  0  0  1  0  0  0  0  0999 V2000
   33.8438  -30.3747  -18.1765 O   0  0  0  0  0  0  0  0  0  0  0  0
   32.9044  -29.3373  -18.1189 C   0  0  0  0  0  0  0  0  0  0  0  0
   31.8122  -29.3134  -18.9655 C   0  0  0  0  0  0  0  0  0  0  0  0
   30.8666  -28.2996  -18.9310 C   0  0  0  0  0  0  0  0  0  0  0  0
   31.0310  -27.2716  -18.0066 C   0  0  0  0  0  0  0  0  0  0  0  0
   30.0269  -26.2097  -17.9813 C   0  0  0  0  0  0  0  0  0  0  0  0
   29.2018  -26.1509  -16.7402 C   0  0  2  0  0  0  0  0  0  0  0  0
   28.4276  -27.3759  -16.5356 N   0  0  0  0  0  0  0  0  0  0  0  0
   28.3546  -24.9510  -16.6409 C   0  0  0  0  0  0  0  0  0  0  0  0
   28.9153  -23.8295  -16.7486 O   0  0  0  0  0  0  0  0  0  0  0  0
   32.1129  -27.2668  -17.1461 C   0  0  0  0  0  0  0  0  0  0  0  0
   33.0148  -28.2915  -17.2235 C   0  0  0  0  0  0  0  0  0  0  0  0
   26.9607  -24.9616  -16.4340 N   0  0  0  0  0  0  0  0  0  0  0  0
   26.1503  -23.7731  -16.3302 C   0  0  0  0  0  0  0  0  0  0  0  0
   25.7854  -23.2164  -17.6489 C   0  0  0  0  0  0  0  0  0  0  0  0
   26.2867  -23.7178  -18.6822 O   0  0  0  0  0  0  0  0  0  0  0  0
   18.7294  -23.5094  -16.9258 O   0  0  0  0  0  0  0  0  0  0  0  0
   19.9216  -23.3001  -17.6245 C   0  0  0  0  0  0  0  0  0  0  0  0
   20.9802  -24.1452  -17.2937 C   0  0  0  0  0  0  0  0  0  0  0  0
   22.1619  -23.9554  -17.9701 C   0  0  0  0  0  0  0  0  0  0  0  0
   22.3267  -22.9749  -18.9450 C   0  0  0  0  0  0  0  0  0  0  0  0
   23.6158  -22.8111  -19.6225 C   0  0  0  0  0  0  0  0  0  0  0  0
   24.3683  -21.6471  -19.0232 C   0  0  2  0  0  0  0  0  0  0  0  0
   24.8926  -22.1436  -17.7507 N   0  0  0  0  0  0  0  0  0  0  0  0
   23.5528  -20.4465  -18.8437 C   0  0  0  0  0  0  0  0  0  0  0  0
   23.0797  -19.6771  -19.9165 O   0  0  0  0  0  0  0  0  0  0  0  0
   21.2611  -22.1735  -19.2324 C   0  0  0  0  0  0  0  0  0  0  0  0
   20.0545  -22.3245  -18.5813 C   0  0  0  0  0  0  0  0  0  0  0  0
   23.2274  -20.0334  -17.7040 O   0  0  0  0  0  0  0  0  0  0  0  0
  2  1  1  0
  3  2  2  0
  4  3  1  0
  5  4  2  0
  5 11  1  0
  6  5  1  0
  7  6  1  0
  7  8  1  6
  9  7  1  0
  9 13  1  0
 10  9  2  0
 11 12  2  0
 12  2  1  0
 14 13  1  0
 15 14  1  0
 15 24  1  0
 16 15  2  0
 18 28  2  0
 18 17  1  0
 19 18  1  0
 20 21  1  0
 20 19  2  0
 21 27  2  0
 22 21  1  0
 23 24  1  0
 23 22  1  1
 25 23  1  0
 26 25  1  0
 27 28  1  0
 29 25  2  0
M  END
$$$$
