YGY.pdb
     RDKit          3D

 29 30  0  0  1  0  0  0  0  0999 V2000
   18.4720  -23.0813  -12.9315 O   0  0  0  0  0  0  0  0  0  0  0  0
   19.4865  -22.5560  -13.7418 C   0  0  0  0  0  0  0  0  0  0  0  0
   19.5818  -21.1976  -13.9785 C   0  0  0  0  0  0  0  0  0  0  0  0
   20.5751  -20.6496  -14.7760 C   0  0  0  0  0  0  0  0  0  0  0  0
   21.5069  -21.5062  -15.3560 C   0  0  0  0  0  0  0  0  0  0  0  0
   22.5482  -20.9150  -16.1942 C   0  0  0  0  0  0  0  0  0  0  0  0
   23.9425  -21.1167  -15.7044 C   0  0  2  0  0  0  0  0  0  0  0  0
   24.1360  -20.5780  -14.3574 N   0  0  0  0  0  0  0  0  0  0  0  0
   24.9787  -20.6376  -16.6341 C   0  0  0  0  0  0  0  0  0  0  0  0
   25.2941  -19.4205  -16.5803 O   0  0  0  0  0  0  0  0  0  0  0  0
   21.4385  -22.8696  -15.1385 C   0  0  0  0  0  0  0  0  0  0  0  0
   20.4382  -23.3560  -14.3434 C   0  0  0  0  0  0  0  0  0  0  0  0
   25.6461  -21.4389  -17.5818 N   0  0  0  0  0  0  0  0  0  0  0  0
   26.6696  -20.9523  -18.4737 C   0  0  0  0  0  0  0  0  0  0  0  0
   28.0155  -20.9830  -17.8660 C   0  0  0  0  0  0  0  0  0  0  0  0
   28.2073  -20.3897  -16.7789 O   0  0  0  0  0  0  0  0  0  0  0  0
   27.8156  -27.9641  -16.6530 O   0  0  0  0  0  0  0  0  0  0  0  0
   28.2222  -26.6279  -16.6010 C   0  0  0  0  0  0  0  0  0  0  0  0
   29.5980  -26.4098  -16.5397 C   0  0  0  0  0  0  0  0  0  0  0  0
   30.0183  -25.1019  -16.4878 C   0  0  0  0  0  0  0  0  0  0  0  0
   29.1377  -24.0232  -16.4945 C   0  0  0  0  0  0  0  0  0  0  0  0
   29.6452  -22.6503  -16.4231 C   0  0  0  0  0  0  0  0  0  0  0  0
   30.2014  -22.2365  -17.7646 C   0  0  2  0  0  0  0  0  0  0  0  0
   29.0673  -21.6633  -18.4898 N   0  0  0  0  0  0  0  0  0  0  0  0
   30.8252  -23.3305  -18.5080 C   0  0  0  0  0  0  0  0  0  0  0  0
   30.1983  -23.9793  -19.5818 O   0  0  0  0  0  0  0  0  0  0  0  0
   27.8014  -24.2891  -16.5555 C   0  0  0  0  0  0  0  0  0  0  0  0
   27.3300  -25.5844  -16.6091 C   0  0  0  0  0  0  0  0  0  0  0  0
   31.9714  -23.7545  -18.2217 O   0  0  0  0  0  0  0  0  0  0  0  0
  2  1  1  0
  3  2  2  0
  4  3  1  0
  5  4  2  0
  5 11  1  0
  6  5  1  0
  7  6  1  0
  7  8  1  1
  9  7  1  0
  9 13  1  0
 10  9  2  0
 11 12  2  0
 12  2  1  0
 14 13  1  0
 15 14  1  0
 15 24  1  0
 16 15  2  0
 18 28  2  0
 18 17  1  0
 19 18  1  0
 20 21  1  0
 20 19  2  0
 21 27  2  0
 22 21  1  0
 23 24  1  0
 23 22  1  1
 25 23  1  0
 26 25  1  0
 27 28  1  0
 29 25  2  0
M  END
$$$$
