YGY.pdb
     RDKit          3D

 29 30  0  0  1  0  0  0  0  0999 V2000
   18.7954  -17.3046  -16.8043 O   0  0  0  0  0  0  0  0  0  0  0  0
   19.9289  -17.9328  -16.2727 C   0  0  0  0  0  0  0  0  0  0  0  0
   19.9628  -19.3006  -16.0767 C   0  0  0  0  0  0  0  0  0  0  0  0
   21.0707  -19.9494  -15.5524 C   0  0  0  0  0  0  0  0  0  0  0  0
   22.1858  -19.1876  -15.2137 C   0  0  0  0  0  0  0  0  0  0  0  0
   23.3463  -19.8844  -14.6623 C   0  0  0  0  0  0  0  0  0  0  0  0
   23.1695  -20.4051  -13.2758 C   0  0  2  0  0  0  0  0  0  0  0  0
   22.1489  -19.6623  -12.5351 N   0  0  0  0  0  0  0  0  0  0  0  0
   24.4236  -20.5121  -12.5121 C   0  0  0  0  0  0  0  0  0  0  0  0
   25.3018  -21.3057  -12.9394 O   0  0  0  0  0  0  0  0  0  0  0  0
   22.1829  -17.8175  -15.3978 C   0  0  0  0  0  0  0  0  0  0  0  0
   21.0636  -17.2297  -15.9184 C   0  0  0  0  0  0  0  0  0  0  0  0
   24.7170  -19.7925  -11.3366 N   0  0  0  0  0  0  0  0  0  0  0  0
   25.9759  -19.8667  -10.6370 C   0  0  0  0  0  0  0  0  0  0  0  0
   25.8833  -20.6354   -9.3790 C   0  0  0  0  0  0  0  0  0  0  0  0
   24.7926  -21.1698   -9.0700 O   0  0  0  0  0  0  0  0  0  0  0  0
   29.8978  -17.2219   -3.6411 O   0  0  0  0  0  0  0  0  0  0  0  0
   29.5420  -18.2853   -4.4754 C   0  0  0  0  0  0  0  0  0  0  0  0
   28.9000  -19.3580   -3.8580 C   0  0  0  0  0  0  0  0  0  0  0  0
   28.5418  -20.4142   -4.6617 C   0  0  0  0  0  0  0  0  0  0  0  0
   28.7937  -20.4426   -6.0310 C   0  0  0  0  0  0  0  0  0  0  0  0
   28.4005  -21.6037   -6.8341 C   0  0  0  0  0  0  0  0  0  0  0  0
   26.9566  -21.4727   -7.2561 C   0  0  2  0  0  0  0  0  0  0  0  0
   26.9941  -20.7693   -8.5386 N   0  0  0  0  0  0  0  0  0  0  0  0
   26.1169  -20.7792   -6.2802 C   0  0  0  0  0  0  0  0  0  0  0  0
   25.8161  -19.4121   -6.3658 O   0  0  0  0  0  0  0  0  0  0  0  0
   29.4245  -19.3690   -6.5875 C   0  0  0  0  0  0  0  0  0  0  0  0
   29.8037  -18.2851   -5.8232 C   0  0  0  0  0  0  0  0  0  0  0  0
   25.6125  -21.3779   -5.2990 O   0  0  0  0  0  0  0  0  0  0  0  0
  2  1  1  0
  3  2  2  0
  4  3  1  0
  5  4  2  0
  5 11  1  0
  6  5  1  0
  7  6  1  0
  7  8  1  1
  9  7  1  0
  9 13  1  0
 10  9  2  0
 11 12  2  0
 12  2  1  0
 14 13  1  0
 15 14  1  0
 15 24  1  0
 16 15  2  0
 18 28  2  0
 18 17  1  0
 19 18  1  0
 20 21  1  0
 20 19  2  0
 21 27  2  0
 22 21  1  0
 23 24  1  0
 23 22  1  1
 25 23  1  0
 26 25  1  0
 27 28  1  0
 29 25  2  0
M  END
$$$$
