YGY.pdb
     RDKit          3D

 29 30  0  0  1  0  0  0  0  0999 V2000
   16.3953  -12.4300  -18.9095 O   0  0  0  0  0  0  0  0  0  0  0  0
   16.3097  -11.8404  -17.6419 C   0  0  0  0  0  0  0  0  0  0  0  0
   15.6425  -10.6449  -17.4525 C   0  0  0  0  0  0  0  0  0  0  0  0
   15.5417  -10.0383  -16.2095 C   0  0  0  0  0  0  0  0  0  0  0  0
   16.1374  -10.6633  -15.1172 C   0  0  0  0  0  0  0  0  0  0  0  0
   16.0233  -10.0128  -13.8132 C   0  0  0  0  0  0  0  0  0  0  0  0
   17.0773   -8.9992  -13.5193 C   0  0  2  0  0  0  0  0  0  0  0  0
   18.4257   -9.5478  -13.6707 N   0  0  0  0  0  0  0  0  0  0  0  0
   16.9104   -8.3204  -12.2236 C   0  0  0  0  0  0  0  0  0  0  0  0
   17.5700   -8.7584  -11.2455 O   0  0  0  0  0  0  0  0  0  0  0  0
   16.8119  -11.8596  -15.2739 C   0  0  0  0  0  0  0  0  0  0  0  0
   16.8804  -12.4133  -16.5222 C   0  0  0  0  0  0  0  0  0  0  0  0
   16.0668   -7.2153  -11.9939 N   0  0  0  0  0  0  0  0  0  0  0  0
   15.9943   -6.5005  -10.7434 C   0  0  0  0  0  0  0  0  0  0  0  0
   15.0082   -5.4011  -10.7729 C   0  0  0  0  0  0  0  0  0  0  0  0
   14.4022   -5.1541  -11.8416 O   0  0  0  0  0  0  0  0  0  0  0  0
   10.8808   -7.2726   -5.4090 O   0  0  0  0  0  0  0  0  0  0  0  0
   11.2466   -6.4693   -6.4926 C   0  0  0  0  0  0  0  0  0  0  0  0
   11.8655   -7.1237   -7.5570 C   0  0  0  0  0  0  0  0  0  0  0  0
   12.2330   -6.3509   -8.6328 C   0  0  0  0  0  0  0  0  0  0  0  0
   12.0120   -4.9771   -8.6884 C   0  0  0  0  0  0  0  0  0  0  0  0
   12.4392   -4.2033   -9.8573 C   0  0  0  0  0  0  0  0  0  0  0  0
   13.7736   -3.5514   -9.5836 C   0  0  2  0  0  0  0  0  0  0  0  0
   14.7489   -4.6412   -9.6267 N   0  0  0  0  0  0  0  0  0  0  0  0
   13.8265   -2.8244   -8.3158 C   0  0  0  0  0  0  0  0  0  0  0  0
   13.0628   -1.6760   -8.0614 O   0  0  0  0  0  0  0  0  0  0  0  0
   11.4032   -4.3838   -7.6219 C   0  0  0  0  0  0  0  0  0  0  0  0
   11.0156   -5.1162   -6.5190 C   0  0  0  0  0  0  0  0  0  0  0  0
   14.5686   -3.1936   -7.3732 O   0  0  0  0  0  0  0  0  0  0  0  0
  2  1  1  0
  3  2  2  0
  4  3  1  0
  5  4  2  0
  5 11  1  0
  6  5  1  0
  7  6  1  0
  7  8  1  1
  9  7  1  0
  9 13  1  0
 10  9  2  0
 11 12  2  0
 12  2  1  0
 14 13  1  0
 15 14  1  0
 15 24  1  0
 16 15  2  0
 18 28  2  0
 18 17  1  0
 19 18  1  0
 20 21  1  0
 20 19  2  0
 21 27  2  0
 22 21  1  0
 23 24  1  0
 23 22  1  1
 25 23  1  0
 26 25  1  0
 27 28  1  0
 29 25  2  0
M  END
$$$$
