YGY.pdb
     RDKit          3D

 29 30  0  0  1  0  0  0  0  0999 V2000
   28.2473  -19.9620   -4.0932 O   0  0  0  0  0  0  0  0  0  0  0  0
   27.8479  -19.8579   -5.4316 C   0  0  0  0  0  0  0  0  0  0  0  0
   28.5485  -19.0735   -6.3284 C   0  0  0  0  0  0  0  0  0  0  0  0
   28.1764  -18.9517   -7.6588 C   0  0  0  0  0  0  0  0  0  0  0  0
   27.0545  -19.6486   -8.0993 C   0  0  0  0  0  0  0  0  0  0  0  0
   26.6739  -19.5111   -9.5038 C   0  0  0  0  0  0  0  0  0  0  0  0
   26.3998  -20.7949  -10.2119 C   0  0  2  0  0  0  0  0  0  0  0  0
   27.4027  -21.8163   -9.9072 N   0  0  0  0  0  0  0  0  0  0  0  0
   26.1995  -20.6473  -11.6629 C   0  0  0  0  0  0  0  0  0  0  0  0
   25.3604  -19.7944  -12.0530 O   0  0  0  0  0  0  0  0  0  0  0  0
   26.3326  -20.4415   -7.2269 C   0  0  0  0  0  0  0  0  0  0  0  0
   26.7443  -20.5253   -5.9258 C   0  0  0  0  0  0  0  0  0  0  0  0
   26.8768  -21.3893  -12.6511 N   0  0  0  0  0  0  0  0  0  0  0  0
   26.6002  -21.2953  -14.0633 C   0  0  0  0  0  0  0  0  0  0  0  0
   25.2873  -21.8675  -14.4252 C   0  0  0  0  0  0  0  0  0  0  0  0
   25.2013  -23.0956  -14.6598 O   0  0  0  0  0  0  0  0  0  0  0  0
   18.0537  -23.6480  -10.5862 O   0  0  0  0  0  0  0  0  0  0  0  0
   19.2692  -23.1367  -11.0493 C   0  0  0  0  0  0  0  0  0  0  0  0
   19.8033  -23.7580  -12.1776 C   0  0  0  0  0  0  0  0  0  0  0  0
   20.9987  -23.2696  -12.6489 C   0  0  0  0  0  0  0  0  0  0  0  0
   21.6701  -22.2062  -12.0510 C   0  0  0  0  0  0  0  0  0  0  0  0
   22.9496  -21.7383  -12.5911 C   0  0  0  0  0  0  0  0  0  0  0  0
   22.8200  -21.4825  -14.0737 C   0  0  2  0  0  0  0  0  0  0  0  0
   24.1506  -21.0555  -14.5070 N   0  0  0  0  0  0  0  0  0  0  0  0
   21.7948  -20.4971  -14.4153 C   0  0  0  0  0  0  0  0  0  0  0  0
   21.9530  -19.1216  -14.1925 O   0  0  0  0  0  0  0  0  0  0  0  0
   21.1065  -21.6322  -10.9496 C   0  0  0  0  0  0  0  0  0  0  0  0
   19.9083  -22.0863  -10.4386 C   0  0  0  0  0  0  0  0  0  0  0  0
   20.7022  -20.8334  -14.9338 O   0  0  0  0  0  0  0  0  0  0  0  0
  2  1  1  0
  3  2  2  0
  4  3  1  0
  5  4  2  0
  5 11  1  0
  6  5  1  0
  7  6  1  0
  7  8  1  6
  9  7  1  0
  9 13  1  0
 10  9  2  0
 11 12  2  0
 12  2  1  0
 14 13  1  0
 15 14  1  0
 15 24  1  0
 16 15  2  0
 18 28  2  0
 18 17  1  0
 19 18  1  0
 20 21  1  0
 20 19  2  0
 21 27  2  0
 22 21  1  0
 23 24  1  0
 23 22  1  1
 25 23  1  0
 26 25  1  0
 27 28  1  0
 29 25  2  0
M  END
$$$$
