YGY.pdb
     RDKit          3D

 29 30  0  0  1  0  0  0  0  0999 V2000
   27.1564  -17.9379  -23.8550 O   0  0  0  0  0  0  0  0  0  0  0  0
   26.9985  -17.8038  -22.4697 C   0  0  0  0  0  0  0  0  0  0  0  0
   25.8320  -18.1973  -21.8413 C   0  0  0  0  0  0  0  0  0  0  0  0
   25.6477  -18.0764  -20.4721 C   0  0  0  0  0  0  0  0  0  0  0  0
   26.6808  -17.5379  -19.7096 C   0  0  0  0  0  0  0  0  0  0  0  0
   26.4729  -17.4164  -18.2679 C   0  0  0  0  0  0  0  0  0  0  0  0
   27.2313  -18.3951  -17.4364 C   0  0  2  0  0  0  0  0  0  0  0  0
   26.9475  -19.7789  -17.8192 N   0  0  0  0  0  0  0  0  0  0  0  0
   27.0807  -18.1919  -15.9861 C   0  0  0  0  0  0  0  0  0  0  0  0
   27.3680  -17.0579  -15.5222 O   0  0  0  0  0  0  0  0  0  0  0  0
   27.8597  -17.1350  -20.3085 C   0  0  0  0  0  0  0  0  0  0  0  0
   27.9876  -17.2771  -21.6624 C   0  0  0  0  0  0  0  0  0  0  0  0
   26.6384  -19.1718  -15.0751 N   0  0  0  0  0  0  0  0  0  0  0  0
   26.4859  -18.9478  -13.6586 C   0  0  0  0  0  0  0  0  0  0  0  0
   25.8617  -20.0932  -12.9654 C   0  0  0  0  0  0  0  0  0  0  0  0
   25.7257  -21.1771  -13.5796 O   0  0  0  0  0  0  0  0  0  0  0  0
   29.9457  -20.3328   -7.5206 O   0  0  0  0  0  0  0  0  0  0  0  0
   28.6524  -20.4423   -8.0390 C   0  0  0  0  0  0  0  0  0  0  0  0
   27.7444  -19.4677   -7.6270 C   0  0  0  0  0  0  0  0  0  0  0  0
   26.4665  -19.5580   -8.1260 C   0  0  0  0  0  0  0  0  0  0  0  0
   26.0659  -20.5626   -9.0030 C   0  0  0  0  0  0  0  0  0  0  0  0
   24.6849  -20.6151   -9.4906 C   0  0  0  0  0  0  0  0  0  0  0  0
   24.6675  -21.0176  -10.9458 C   0  0  2  0  0  0  0  0  0  0  0  0
   25.4256  -19.9770  -11.6408 N   0  0  0  0  0  0  0  0  0  0  0  0
   23.3228  -21.1721  -11.4996 C   0  0  0  0  0  0  0  0  0  0  0  0
   22.5252  -22.3015  -11.2651 O   0  0  0  0  0  0  0  0  0  0  0  0
   26.9914  -21.4924   -9.3760 C   0  0  0  0  0  0  0  0  0  0  0  0
   28.2863  -21.4447   -8.9028 C   0  0  0  0  0  0  0  0  0  0  0  0
   22.8019  -20.2900  -12.2250 O   0  0  0  0  0  0  0  0  0  0  0  0
  2  1  1  0
  3  2  2  0
  4  3  1  0
  5  4  2  0
  5 11  1  0
  6  5  1  0
  7  6  1  0
  7  8  1  1
  9  7  1  0
  9 13  1  0
 10  9  2  0
 11 12  2  0
 12  2  1  0
 14 13  1  0
 15 14  1  0
 15 24  1  0
 16 15  2  0
 18 28  2  0
 18 17  1  0
 19 18  1  0
 20 21  1  0
 20 19  2  0
 21 27  2  0
 22 21  1  0
 23 24  1  0
 23 22  1  1
 25 23  1  0
 26 25  1  0
 27 28  1  0
 29 25  2  0
M  END
$$$$
