WRW.pdb
     RDKit          3D

 40 43  0  0  1  0  0  0  0  0999 V2000
    7.7227  -18.3260   20.8499 N   0  0  0  0  0  0  0  0  0  0  0  0
    8.5390  -17.4517   21.6494 C   0  0  1  0  0  0  0  0  0  0  0  0
    7.6989  -16.4070   22.3978 C   0  0  0  0  0  0  0  0  0  0  0  0
    7.1186  -15.4282   21.4618 C   0  0  0  0  0  0  0  0  0  0  0  0
    5.7770  -15.3699   21.0532 C   0  0  0  0  0  0  0  0  0  0  0  0
    5.6162  -14.3408   20.2151 N   0  0  0  0  0  0  0  0  0  0  0  0
    6.7757  -13.6935   20.0293 C   0  0  0  0  0  0  0  0  0  0  0  0
    7.1098  -12.5859   19.2574 C   0  0  0  0  0  0  0  0  0  0  0  0
    8.4156  -12.1669   19.2807 C   0  0  0  0  0  0  0  0  0  0  0  0
    9.3714  -12.8205   20.0431 C   0  0  0  0  0  0  0  0  0  0  0  0
    9.0374  -13.9072   20.7967 C   0  0  0  0  0  0  0  0  0  0  0  0
    7.7241  -14.3708   20.8081 C   0  0  0  0  0  0  0  0  0  0  0  0
    9.2068  -18.2338   22.7543 C   0  0  0  0  0  0  0  0  0  0  0  0
    8.9984  -19.4507   22.8172 O   0  0  0  0  0  0  0  0  0  0  0  0
   16.0284  -19.1519   21.2052 N   0  0  0  0  0  0  0  0  0  0  0  0
   15.2379  -18.3102   20.3966 C   0  0  0  0  0  0  0  0  0  0  0  0
   15.7176  -17.5570   19.4678 N   0  0  0  0  0  0  0  0  0  0  0  0
   13.8300  -18.2848   20.6209 N   0  0  0  0  0  0  0  0  0  0  0  0
   13.2741  -19.1382   21.6515 C   0  0  0  0  0  0  0  0  0  0  0  0
   12.4680  -18.2833   22.5980 C   0  0  0  0  0  0  0  0  0  0  0  0
   11.8582  -19.1210   23.6505 C   0  0  0  0  0  0  0  0  0  0  0  0
   10.9165  -18.3534   24.5405 C   0  0  2  0  0  0  0  0  0  0  0  0
   10.0244  -17.5558   23.6509 N   0  0  0  0  0  0  0  0  0  0  0  0
   11.5092  -17.3951   25.4475 C   0  0  0  0  0  0  0  0  0  0  0  0
   12.7871  -17.5026   25.6574 O   0  0  0  0  0  0  0  0  0  0  0  0
   15.1377  -16.9244   18.8946 N   0  0  0  0  0  0  0  0  0  0  0  0
   10.8042  -16.3786   26.0950 C   0  0  1  0  0  0  0  0  0  0  0  0
   10.5566  -16.4760   27.5559 C   0  0  0  0  0  0  0  0  0  0  0  0
    9.1149  -16.8265   27.6714 C   0  0  0  0  0  0  0  0  0  0  0  0
    8.1711  -15.9258   27.0078 C   0  0  0  0  0  0  0  0  0  0  0  0
    7.0113  -16.3049   26.3530 N   0  0  0  0  0  0  0  0  0  0  0  0
    6.4200  -15.2276   25.8396 C   0  0  0  0  0  0  0  0  0  0  0  0
    7.1451  -14.1061   26.1243 C   0  0  0  0  0  0  0  0  0  0  0  0
    6.9576  -12.7680   25.8322 C   0  0  0  0  0  0  0  0  0  0  0  0
    7.8766  -11.8447   26.2779 C   0  0  0  0  0  0  0  0  0  0  0  0
    8.9720  -12.2532   27.0081 C   0  0  0  0  0  0  0  0  0  0  0  0
    9.1335  -13.5897   27.2831 C   0  0  0  0  0  0  0  0  0  0  0  0
    8.2245  -14.5603   26.8489 C   0  0  0  0  0  0  0  0  0  0  0  0
   11.5199  -17.4213   28.1126 O   0  0  0  0  0  0  0  0  0  0  0  0
   11.9113  -18.3955   27.4392 O   0  0  0  0  0  0  0  0  0  0  0  0
  2  1  1  1
  2  3  1  0
  3  4  1  0
  4  5  2  0
  6  5  1  0
  7  6  1  0
  8  7  2  0
  9  8  1  0
 10 11  1  0
 10  9  2  0
 11 12  2  0
 12  7  1  0
 12  4  1  0
 13  2  1  0
 13 14  2  0
 15 16  1  0
 16 18  1  0
 17 16  2  0
 18 19  1  0
 19 20  1  0
 20 21  1  0
 22 21  1  6
 22 23  1  0
 22 24  1  0
 23 13  1  0
 24 25  2  0
 26 24  1  0
 26 27  1  0
 27 38  1  0
 27 28  1  1
 29 28  1  0
 30 29  2  0
 31 30  1  0
 32 31  1  0
 32 37  2  0
 33 32  1  0
 34 33  2  0
 34 35  1  0
 35 36  2  0
 36 37  1  0
 37 29  1  0
 38 40  1  0
 39 38  2  0
M  END
$$$$
