WRW.pdb
     RDKit          3D

 40 43  0  0  1  0  0  0  0  0999 V2000
    6.2719  -18.2791   24.5926 N   0  0  0  0  0  0  0  0  0  0  0  0
    6.9291  -17.0603   24.2020 C   0  0  1  0  0  0  0  0  0  0  0  0
    7.5738  -16.3468   25.3990 C   0  0  0  0  0  0  0  0  0  0  0  0
    6.7599  -15.1959   25.8276 C   0  0  0  0  0  0  0  0  0  0  0  0
    5.6434  -15.2435   26.6770 C   0  0  0  0  0  0  0  0  0  0  0  0
    5.1733  -14.0049   26.8563 N   0  0  0  0  0  0  0  0  0  0  0  0
    5.9085  -13.1142   26.1750 C   0  0  0  0  0  0  0  0  0  0  0  0
    5.8118  -11.7330   26.0451 C   0  0  0  0  0  0  0  0  0  0  0  0
    6.7367  -11.1042   25.2512 C   0  0  0  0  0  0  0  0  0  0  0  0
    7.7326  -11.8147   24.5991 C   0  0  0  0  0  0  0  0  0  0  0  0
    7.8208  -13.1696   24.7294 C   0  0  0  0  0  0  0  0  0  0  0  0
    6.9062  -13.8544   25.5258 C   0  0  0  0  0  0  0  0  0  0  0  0
    8.0968  -17.3690   23.2966 C   0  0  0  0  0  0  0  0  0  0  0  0
    8.5129  -18.5324   23.2557 O   0  0  0  0  0  0  0  0  0  0  0  0
    8.0684  -14.8049   15.8597 N   0  0  0  0  0  0  0  0  0  0  0  0
    8.3965  -13.8898   16.8804 C   0  0  0  0  0  0  0  0  0  0  0  0
    8.1479  -12.6272   16.8138 N   0  0  0  0  0  0  0  0  0  0  0  0
    9.0447  -14.3852   18.0498 N   0  0  0  0  0  0  0  0  0  0  0  0
    9.8057  -15.6147   17.9555 C   0  0  0  0  0  0  0  0  0  0  0  0
   10.4599  -15.8765   19.2897 C   0  0  0  0  0  0  0  0  0  0  0  0
    9.4853  -15.6864   20.3831 C   0  0  0  0  0  0  0  0  0  0  0  0
    9.6564  -16.6797   21.5020 C   0  0  2  0  0  0  0  0  0  0  0  0
    8.6530  -16.3367   22.5503 N   0  0  0  0  0  0  0  0  0  0  0  0
   10.9334  -16.6859   22.1815 C   0  0  0  0  0  0  0  0  0  0  0  0
   11.9614  -17.0764   21.4892 O   0  0  0  0  0  0  0  0  0  0  0  0
    8.4139  -11.9572   17.5522 N   0  0  0  0  0  0  0  0  0  0  0  0
   11.1239  -16.3005   23.5099 C   0  0  1  0  0  0  0  0  0  0  0  0
   12.4990  -16.2558   24.0686 C   0  0  0  0  0  0  0  0  0  0  0  0
   12.4584  -17.1684   25.2435 C   0  0  0  0  0  0  0  0  0  0  0  0
   11.5128  -16.8206   26.3053 C   0  0  0  0  0  0  0  0  0  0  0  0
   10.7052  -17.7088   26.9955 N   0  0  0  0  0  0  0  0  0  0  0  0
    9.9495  -17.0381   27.8632 C   0  0  0  0  0  0  0  0  0  0  0  0
   10.2151  -15.7006   27.7906 C   0  0  0  0  0  0  0  0  0  0  0  0
    9.7168  -14.6064   28.4728 C   0  0  0  0  0  0  0  0  0  0  0  0
   10.2026  -13.3513   28.1820 C   0  0  0  0  0  0  0  0  0  0  0  0
   11.1762  -13.1902   27.2198 C   0  0  0  0  0  0  0  0  0  0  0  0
   11.6526  -14.2955   26.5569 C   0  0  0  0  0  0  0  0  0  0  0  0
   11.1863  -15.5877   26.8209 C   0  0  0  0  0  0  0  0  0  0  0  0
   13.4308  -16.5901   22.9957 O   0  0  0  0  0  0  0  0  0  0  0  0
   13.0070  -16.9120   21.8676 O   0  0  0  0  0  0  0  0  0  0  0  0
  2  1  1  1
  2  3  1  0
  3  4  1  0
  4  5  2  0
  6  5  1  0
  7  6  1  0
  8  7  2  0
  9  8  1  0
 10 11  1  0
 10  9  2  0
 11 12  2  0
 12  7  1  0
 12  4  1  0
 13  2  1  0
 13 14  2  0
 15 16  1  0
 16 18  1  0
 17 16  2  0
 18 19  1  0
 19 20  1  0
 20 21  1  0
 22 21  1  6
 22 23  1  0
 22 24  1  0
 23 13  1  0
 24 25  2  0
 26 24  1  0
 26 27  1  0
 27 38  1  0
 27 28  1  6
 29 28  1  0
 30 29  2  0
 31 30  1  0
 32 31  1  0
 32 37  2  0
 33 32  1  0
 34 33  2  0
 34 35  1  0
 35 36  2  0
 36 37  1  0
 37 29  1  0
 38 40  1  0
 39 38  2  0
M  END
$$$$
