WRW.pdb
     RDKit          3D

 40 43  0  0  1  0  0  0  0  0999 V2000
    6.3923  -20.2745   24.1813 N   0  0  0  0  0  0  0  0  0  0  0  0
    7.1194  -19.0333   24.1568 C   0  0  1  0  0  0  0  0  0  0  0  0
    7.7850  -18.7312   25.5070 C   0  0  0  0  0  0  0  0  0  0  0  0
    7.2409  -17.4963   26.0984 C   0  0  0  0  0  0  0  0  0  0  0  0
    5.8822  -17.1621   26.2102 C   0  0  0  0  0  0  0  0  0  0  0  0
    5.7688  -15.9757   26.8159 N   0  0  0  0  0  0  0  0  0  0  0  0
    6.9769  -15.4818   27.1235 C   0  0  0  0  0  0  0  0  0  0  0  0
    7.3686  -14.2999   27.7431 C   0  0  0  0  0  0  0  0  0  0  0  0
    8.7133  -14.0852   27.9072 C   0  0  0  0  0  0  0  0  0  0  0  0
    9.6516  -15.0085   27.4725 C   0  0  0  0  0  0  0  0  0  0  0  0
    9.2606  -16.1651   26.8641 C   0  0  0  0  0  0  0  0  0  0  0  0
    7.9064  -16.4304   26.6756 C   0  0  0  0  0  0  0  0  0  0  0  0
    8.2812  -19.1328   23.1982 C   0  0  0  0  0  0  0  0  0  0  0  0
    9.0973  -20.0468   23.3619 O   0  0  0  0  0  0  0  0  0  0  0  0
    6.6827  -13.4540   19.1400 N   0  0  0  0  0  0  0  0  0  0  0  0
    8.0769  -13.5093   18.9398 C   0  0  0  0  0  0  0  0  0  0  0  0
    8.8670  -12.5118   19.1423 N   0  0  0  0  0  0  0  0  0  0  0  0
    8.6461  -14.7341   18.4825 N   0  0  0  0  0  0  0  0  0  0  0  0
    7.9332  -15.9699   18.7353 C   0  0  0  0  0  0  0  0  0  0  0  0
    8.3129  -16.4699   20.1073 C   0  0  0  0  0  0  0  0  0  0  0  0
    9.2354  -17.6179   19.9959 C   0  0  0  0  0  0  0  0  0  0  0  0
    9.6138  -18.1996   21.3325 C   0  0  2  0  0  0  0  0  0  0  0  0
    8.3844  -18.1965   22.1761 N   0  0  0  0  0  0  0  0  0  0  0  0
   10.6072  -17.4814   22.1005 C   0  0  0  0  0  0  0  0  0  0  0  0
   11.7286  -17.2146   21.5005 O   0  0  0  0  0  0  0  0  0  0  0  0
    9.8838  -12.5497   18.9699 N   0  0  0  0  0  0  0  0  0  0  0  0
   10.4344  -17.0624   23.4211 C   0  0  1  0  0  0  0  0  0  0  0  0
   11.4869  -16.2414   24.0718 C   0  0  0  0  0  0  0  0  0  0  0  0
   10.7390  -15.2024   24.8308 C   0  0  0  0  0  0  0  0  0  0  0  0
    9.5446  -14.6574   24.1836 C   0  0  0  0  0  0  0  0  0  0  0  0
    9.0380  -15.0471   22.9552 N   0  0  0  0  0  0  0  0  0  0  0  0
    7.9640  -14.3145   22.6663 C   0  0  0  0  0  0  0  0  0  0  0  0
    7.7128  -13.4226   23.6693 C   0  0  0  0  0  0  0  0  0  0  0  0
    6.7308  -12.4668   23.8513 C   0  0  0  0  0  0  0  0  0  0  0  0
    6.7302  -11.7104   25.0018 C   0  0  0  0  0  0  0  0  0  0  0  0
    7.7003  -11.9064   25.9612 C   0  0  0  0  0  0  0  0  0  0  0  0
    8.6646  -12.8628   25.7535 C   0  0  0  0  0  0  0  0  0  0  0  0
    8.7022  -13.6523   24.5992 C   0  0  0  0  0  0  0  0  0  0  0  0
   12.3465  -17.1385   24.8383 O   0  0  0  0  0  0  0  0  0  0  0  0
   12.1136  -18.3635   24.8700 O   0  0  0  0  0  0  0  0  0  0  0  0
  2  1  1  1
  2  3  1  0
  3  4  1  0
  4  5  2  0
  6  5  1  0
  7  6  1  0
  8  7  2  0
  9  8  1  0
 10 11  1  0
 10  9  2  0
 11 12  2  0
 12  7  1  0
 12  4  1  0
 13  2  1  0
 13 14  2  0
 15 16  1  0
 16 18  1  0
 17 16  2  0
 18 19  1  0
 19 20  1  0
 20 21  1  0
 22 21  1  6
 22 23  1  0
 22 24  1  0
 23 13  1  0
 24 25  2  0
 26 24  1  0
 26 27  1  0
 27 38  1  0
 27 28  1  1
 29 28  1  0
 30 29  2  0
 31 30  1  0
 32 31  1  0
 32 37  2  0
 33 32  1  0
 34 33  2  0
 34 35  1  0
 35 36  2  0
 36 37  1  0
 37 29  1  0
 38 40  1  0
 39 38  2  0
M  END
$$$$
