WRW.pdb
     RDKit          3D

 40 43  0  0  1  0  0  0  0  0999 V2000
    6.1677  -19.0301   24.0803 N   0  0  0  0  0  0  0  0  0  0  0  0
    6.8333  -17.7856   23.8007 C   0  0  1  0  0  0  0  0  0  0  0  0
    7.6450  -17.2857   25.0043 C   0  0  0  0  0  0  0  0  0  0  0  0
    7.0343  -16.0781   25.5872 C   0  0  0  0  0  0  0  0  0  0  0  0
    6.0522  -16.0500   26.5897 C   0  0  0  0  0  0  0  0  0  0  0  0
    5.7539  -14.7793   26.8785 N   0  0  0  0  0  0  0  0  0  0  0  0
    6.4792  -13.9382   26.1271 C   0  0  0  0  0  0  0  0  0  0  0  0
    6.5200  -12.5497   26.0601 C   0  0  0  0  0  0  0  0  0  0  0  0
    7.3865  -11.9831   25.1605 C   0  0  0  0  0  0  0  0  0  0  0  0
    8.1935  -12.7613   24.3450 C   0  0  0  0  0  0  0  0  0  0  0  0
    8.1474  -14.1228   24.4146 C   0  0  0  0  0  0  0  0  0  0  0  0
    7.2851  -14.7461   25.3131 C   0  0  0  0  0  0  0  0  0  0  0  0
    7.8728  -17.9849   22.7245 C   0  0  0  0  0  0  0  0  0  0  0  0
    8.4009  -19.0978   22.6211 O   0  0  0  0  0  0  0  0  0  0  0  0
    7.9571  -14.1101   15.4859 N   0  0  0  0  0  0  0  0  0  0  0  0
    8.1939  -13.4959   16.7324 C   0  0  0  0  0  0  0  0  0  0  0  0
    8.3809  -12.2296   16.8798 N   0  0  0  0  0  0  0  0  0  0  0  0
    8.2350  -14.3201   17.8953 N   0  0  0  0  0  0  0  0  0  0  0  0
    7.5565  -15.6000   17.8653 C   0  0  0  0  0  0  0  0  0  0  0  0
    7.6288  -16.2128   19.2422 C   0  0  0  0  0  0  0  0  0  0  0  0
    9.0038  -16.1174   19.7728 C   0  0  0  0  0  0  0  0  0  0  0  0
    9.2725  -17.0934   20.8877 C   0  0  2  0  0  0  0  0  0  0  0  0
    8.1913  -16.9132   21.8986 N   0  0  0  0  0  0  0  0  0  0  0  0
   10.5106  -16.9280   21.6173 C   0  0  0  0  0  0  0  0  0  0  0  0
   11.5976  -17.3122   21.0179 O   0  0  0  0  0  0  0  0  0  0  0  0
    8.4984  -11.7770   17.7998 N   0  0  0  0  0  0  0  0  0  0  0  0
   10.6054  -16.3867   22.9009 C   0  0  1  0  0  0  0  0  0  0  0  0
   11.9443  -16.1515   23.4985 C   0  0  0  0  0  0  0  0  0  0  0  0
   11.7058  -15.1534   24.5765 C   0  0  0  0  0  0  0  0  0  0  0  0
   11.3728  -15.6892   25.8973 C   0  0  0  0  0  0  0  0  0  0  0  0
   11.7833  -16.9105   26.4045 N   0  0  0  0  0  0  0  0  0  0  0  0
   11.2637  -17.0832   27.6186 C   0  0  0  0  0  0  0  0  0  0  0  0
   10.4999  -16.0062   27.9666 C   0  0  0  0  0  0  0  0  0  0  0  0
    9.7711  -15.6995   29.1005 C   0  0  0  0  0  0  0  0  0  0  0  0
    9.0984  -14.4999   29.1664 C   0  0  0  0  0  0  0  0  0  0  0  0
    9.1528  -13.6153   28.1108 C   0  0  0  0  0  0  0  0  0  0  0  0
    9.8842  -13.9466   26.9958 C   0  0  0  0  0  0  0  0  0  0  0  0
   10.5816  -15.1545   26.8875 C   0  0  0  0  0  0  0  0  0  0  0  0
   12.4922  -17.4450   23.8960 O   0  0  0  0  0  0  0  0  0  0  0  0
   11.7555  -18.4491   23.9666 O   0  0  0  0  0  0  0  0  0  0  0  0
  2  1  1  1
  2  3  1  0
  3  4  1  0
  4  5  2  0
  6  5  1  0
  7  6  1  0
  8  7  2  0
  9  8  1  0
 10 11  1  0
 10  9  2  0
 11 12  2  0
 12  7  1  0
 12  4  1  0
 13  2  1  0
 13 14  2  0
 15 16  1  0
 16 18  1  0
 17 16  2  0
 18 19  1  0
 19 20  1  0
 20 21  1  0
 22 21  1  6
 22 23  1  0
 22 24  1  0
 23 13  1  0
 24 25  2  0
 26 24  1  0
 26 27  1  0
 27 38  1  0
 27 28  1  6
 29 28  1  0
 30 29  2  0
 31 30  1  0
 32 31  1  0
 32 37  2  0
 33 32  1  0
 34 33  2  0
 34 35  1  0
 35 36  2  0
 36 37  1  0
 37 29  1  0
 38 40  1  0
 39 38  2  0
M  END
$$$$
