WRW.pdb
     RDKit          3D

 40 43  0  0  1  0  0  0  0  0999 V2000
    6.3694  -18.5201   24.7498 N   0  0  0  0  0  0  0  0  0  0  0  0
    6.8122  -17.5992   23.7369 C   0  0  1  0  0  0  0  0  0  0  0  0
    7.8275  -16.5866   24.2859 C   0  0  0  0  0  0  0  0  0  0  0  0
    7.1656  -15.5895   25.1453 C   0  0  0  0  0  0  0  0  0  0  0  0
    6.1814  -15.8532   26.1107 C   0  0  0  0  0  0  0  0  0  0  0  0
    5.8295  -14.7086   26.7050 N   0  0  0  0  0  0  0  0  0  0  0  0
    6.5201  -13.6775   26.1972 C   0  0  0  0  0  0  0  0  0  0  0  0
    6.5027  -12.3161   26.4807 C   0  0  0  0  0  0  0  0  0  0  0  0
    7.3462  -11.5076   25.7624 C   0  0  0  0  0  0  0  0  0  0  0  0
    8.1866  -12.0233   24.7878 C   0  0  0  0  0  0  0  0  0  0  0  0
    8.1976  -13.3594   24.5136 C   0  0  0  0  0  0  0  0  0  0  0  0
    7.3606  -14.2223   25.2167 C   0  0  0  0  0  0  0  0  0  0  0  0
    7.5824  -18.3362   22.6682 C   0  0  0  0  0  0  0  0  0  0  0  0
    8.2418  -19.3274   23.0015 O   0  0  0  0  0  0  0  0  0  0  0  0
    9.2280  -17.3132   13.9050 N   0  0  0  0  0  0  0  0  0  0  0  0
    8.4815  -16.6803   14.9196 C   0  0  0  0  0  0  0  0  0  0  0  0
    8.2273  -15.4173   14.9360 N   0  0  0  0  0  0  0  0  0  0  0  0
    7.9841  -17.4789   15.9911 N   0  0  0  0  0  0  0  0  0  0  0  0
    7.3039  -16.8235   17.0898 C   0  0  0  0  0  0  0  0  0  0  0  0
    8.0961  -17.0588   18.3522 C   0  0  0  0  0  0  0  0  0  0  0  0
    7.6706  -18.3183   18.9956 C   0  0  0  0  0  0  0  0  0  0  0  0
    8.3419  -18.5564   20.3224 C   0  0  2  0  0  0  0  0  0  0  0  0
    7.5184  -17.8715   21.3598 N   0  0  0  0  0  0  0  0  0  0  0  0
    9.6784  -18.0271   20.4833 C   0  0  0  0  0  0  0  0  0  0  0  0
   10.3918  -17.9045   19.4042 O   0  0  0  0  0  0  0  0  0  0  0  0
    7.6768  -14.9593   15.6792 N   0  0  0  0  0  0  0  0  0  0  0  0
   10.2351  -17.6437   21.7051 C   0  0  1  0  0  0  0  0  0  0  0  0
   11.5945  -17.0469   21.7345 C   0  0  0  0  0  0  0  0  0  0  0  0
   11.4797  -15.8075   20.9184 C   0  0  0  0  0  0  0  0  0  0  0  0
   10.5033  -14.8168   21.3737 C   0  0  0  0  0  0  0  0  0  0  0  0
   10.3739  -14.3401   22.6674 N   0  0  0  0  0  0  0  0  0  0  0  0
    9.3605  -13.4777   22.7225 C   0  0  0  0  0  0  0  0  0  0  0  0
    8.7820  -13.3445   21.4928 C   0  0  0  0  0  0  0  0  0  0  0  0
    7.7263  -12.5814   21.0299 C   0  0  0  0  0  0  0  0  0  0  0  0
    7.3758  -12.6506   19.7001 C   0  0  0  0  0  0  0  0  0  0  0  0
    8.0722  -13.4733   18.8411 C   0  0  0  0  0  0  0  0  0  0  0  0
    9.1167  -14.2211   19.3288 C   0  0  0  0  0  0  0  0  0  0  0  0
    9.5052  -14.1811   20.6721 C   0  0  0  0  0  0  0  0  0  0  0  0
   11.9867  -16.8917   23.1321 O   0  0  0  0  0  0  0  0  0  0  0  0
   13.1323  -16.4959   23.4271 O   0  0  0  0  0  0  0  0  0  0  0  0
  2  1  1  1
  2  3  1  0
  3  4  1  0
  4  5  2  0
  6  5  1  0
  7  6  1  0
  8  7  2  0
  9  8  1  0
 10 11  1  0
 10  9  2  0
 11 12  2  0
 12  7  1  0
 12  4  1  0
 13  2  1  0
 13 14  2  0
 15 16  1  0
 16 18  1  0
 17 16  2  0
 18 19  1  0
 19 20  1  0
 20 21  1  0
 22 21  1  6
 22 23  1  0
 22 24  1  0
 23 13  1  0
 24 25  2  0
 26 24  1  0
 26 27  1  0
 27 38  1  0
 27 28  1  6
 29 28  1  0
 30 29  2  0
 31 30  1  0
 32 31  1  0
 32 37  2  0
 33 32  1  0
 34 33  2  0
 34 35  1  0
 35 36  2  0
 36 37  1  0
 37 29  1  0
 38 40  1  0
 39 38  2  0
M  END
$$$$
