WRW.pdb
     RDKit          3D

 40 43  0  0  1  0  0  0  0  0999 V2000
    8.8377  -20.4752   25.2259 N   0  0  0  0  0  0  0  0  0  0  0  0
    7.7277  -19.7245   24.7021 C   0  0  1  0  0  0  0  0  0  0  0  0
    7.0784  -18.8368   25.7734 C   0  0  0  0  0  0  0  0  0  0  0  0
    8.0058  -18.5981   26.8932 C   0  0  0  0  0  0  0  0  0  0  0  0
    8.6986  -19.5813   27.6168 C   0  0  0  0  0  0  0  0  0  0  0  0
    9.4594  -18.9913   28.5443 N   0  0  0  0  0  0  0  0  0  0  0  0
    9.3232  -17.6583   28.4933 C   0  0  0  0  0  0  0  0  0  0  0  0
    9.8933  -16.6354   29.2433 C   0  0  0  0  0  0  0  0  0  0  0  0
    9.5331  -15.3478   28.9373 C   0  0  0  0  0  0  0  0  0  0  0  0
    8.6335  -15.0709   27.9195 C   0  0  0  0  0  0  0  0  0  0  0  0
    8.0767  -16.0791   27.1887 C   0  0  0  0  0  0  0  0  0  0  0  0
    8.4115  -17.4036   27.4596 C   0  0  0  0  0  0  0  0  0  0  0  0
    8.2118  -18.7401   23.6653 C   0  0  0  0  0  0  0  0  0  0  0  0
    9.3211  -18.9287   23.1533 O   0  0  0  0  0  0  0  0  0  0  0  0
    9.4999  -14.9408   17.2078 N   0  0  0  0  0  0  0  0  0  0  0  0
    8.2508  -14.3965   17.5692 C   0  0  0  0  0  0  0  0  0  0  0  0
    7.8844  -13.1960   17.2778 N   0  0  0  0  0  0  0  0  0  0  0  0
    7.3432  -15.2157   18.3029 N   0  0  0  0  0  0  0  0  0  0  0  0
    7.7374  -15.6888   19.6145 C   0  0  0  0  0  0  0  0  0  0  0  0
    6.7736  -15.1331   20.6337 C   0  0  0  0  0  0  0  0  0  0  0  0
    6.5183  -16.1301   21.6930 C   0  0  0  0  0  0  0  0  0  0  0  0
    7.7699  -16.8260   22.1589 C   0  0  2  0  0  0  0  0  0  0  0  0
    7.3936  -17.6672   23.3311 N   0  0  0  0  0  0  0  0  0  0  0  0
    8.8517  -15.9851   22.6224 C   0  0  0  0  0  0  0  0  0  0  0  0
    9.3789  -15.1783   21.7508 O   0  0  0  0  0  0  0  0  0  0  0  0
    7.0131  -12.7683   17.6284 N   0  0  0  0  0  0  0  0  0  0  0  0
    9.3506  -15.9858   23.9265 C   0  0  1  0  0  0  0  0  0  0  0  0
   10.4859  -15.0947   24.2760 C   0  0  0  0  0  0  0  0  0  0  0  0
    9.9665  -13.7178   24.0540 C   0  0  0  0  0  0  0  0  0  0  0  0
    8.6751  -13.4028   24.6668 C   0  0  0  0  0  0  0  0  0  0  0  0
    7.7780  -14.3210   25.1861 N   0  0  0  0  0  0  0  0  0  0  0  0
    6.6962  -13.6821   25.6282 C   0  0  0  0  0  0  0  0  0  0  0  0
    6.8227  -12.3375   25.4271 C   0  0  0  0  0  0  0  0  0  0  0  0
    5.9994  -11.2643   25.7125 C   0  0  0  0  0  0  0  0  0  0  0  0
    6.4164   -9.9909   25.3957 C   0  0  0  0  0  0  0  0  0  0  0  0
    7.6432   -9.7908   24.8001 C   0  0  0  0  0  0  0  0  0  0  0  0
    8.4406  -10.8760   24.5272 C   0  0  0  0  0  0  0  0  0  0  0  0
    8.0552  -12.1859   24.8317 C   0  0  0  0  0  0  0  0  0  0  0  0
   10.9232  -15.4333   25.6270 O   0  0  0  0  0  0  0  0  0  0  0  0
   11.8868  -14.8365   26.1479 O   0  0  0  0  0  0  0  0  0  0  0  0
  2  1  1  1
  2  3  1  0
  3  4  1  0
  4  5  2  0
  6  5  1  0
  7  6  1  0
  8  7  2  0
  9  8  1  0
 10 11  1  0
 10  9  2  0
 11 12  2  0
 12  7  1  0
 12  4  1  0
 13  2  1  0
 13 14  2  0
 15 16  1  0
 16 18  1  0
 17 16  2  0
 18 19  1  0
 19 20  1  0
 20 21  1  0
 22 21  1  1
 22 23  1  0
 22 24  1  0
 23 13  1  0
 24 25  2  0
 26 24  1  0
 26 27  1  0
 27 38  1  0
 27 28  1  6
 29 28  1  0
 30 29  2  0
 31 30  1  0
 32 31  1  0
 32 37  2  0
 33 32  1  0
 34 33  2  0
 34 35  1  0
 35 36  2  0
 36 37  1  0
 37 29  1  0
 38 40  1  0
 39 38  2  0
M  END
$$$$
