WRW.pdb
     RDKit          3D

 40 43  0  0  1  0  0  0  0  0999 V2000
    5.9685  -19.0086   22.5260 N   0  0  0  0  0  0  0  0  0  0  0  0
    6.7777  -17.8243   22.6381 C   0  0  1  0  0  0  0  0  0  0  0  0
    6.6978  -17.2050   24.0408 C   0  0  0  0  0  0  0  0  0  0  0  0
    6.7749  -15.7352   23.9734 C   0  0  0  0  0  0  0  0  0  0  0  0
    6.4991  -14.8439   25.0220 C   0  0  0  0  0  0  0  0  0  0  0  0
    6.6932  -13.5911   24.5978 N   0  0  0  0  0  0  0  0  0  0  0  0
    7.0865  -13.5789   23.3159 C   0  0  0  0  0  0  0  0  0  0  0  0
    7.3997  -12.5379   22.4486 C   0  0  0  0  0  0  0  0  0  0  0  0
    7.7692  -12.8673   21.1694 C   0  0  0  0  0  0  0  0  0  0  0  0
    7.8289  -14.1877   20.7512 C   0  0  0  0  0  0  0  0  0  0  0  0
    7.5189  -15.2039   21.6065 C   0  0  0  0  0  0  0  0  0  0  0  0
    7.1394  -14.9214   22.9164 C   0  0  0  0  0  0  0  0  0  0  0  0
    8.2371  -18.1781   22.4845 C   0  0  0  0  0  0  0  0  0  0  0  0
    8.7212  -19.0107   23.2594 O   0  0  0  0  0  0  0  0  0  0  0  0
   11.4246  -18.1374   15.8291 N   0  0  0  0  0  0  0  0  0  0  0  0
   12.0712  -19.2169   16.4644 C   0  0  0  0  0  0  0  0  0  0  0  0
   12.1297  -20.4050   15.9692 N   0  0  0  0  0  0  0  0  0  0  0  0
   12.6905  -18.9852   17.7278 N   0  0  0  0  0  0  0  0  0  0  0  0
   12.6351  -17.6535   18.2961 C   0  0  0  0  0  0  0  0  0  0  0  0
   12.3050  -17.7724   19.7635 C   0  0  0  0  0  0  0  0  0  0  0  0
   10.8570  -17.5775   19.9793 C   0  0  0  0  0  0  0  0  0  0  0  0
   10.4363  -17.8271   21.4036 C   0  0  2  0  0  0  0  0  0  0  0  0
    8.9723  -17.5554   21.4826 N   0  0  0  0  0  0  0  0  0  0  0  0
   11.0366  -16.9900   22.4191 C   0  0  0  0  0  0  0  0  0  0  0  0
   10.7303  -15.7275   22.3913 O   0  0  0  0  0  0  0  0  0  0  0  0
   12.5830  -21.1979   16.4497 N   0  0  0  0  0  0  0  0  0  0  0  0
   11.9055  -17.4499   23.4106 C   0  0  1  0  0  0  0  0  0  0  0  0
   12.0570  -16.6742   24.6678 C   0  0  0  0  0  0  0  0  0  0  0  0
   10.6633  -16.3864   25.1034 C   0  0  0  0  0  0  0  0  0  0  0  0
   10.5105  -15.7233   26.3993 C   0  0  0  0  0  0  0  0  0  0  0  0
   10.9198  -16.2278   27.6221 N   0  0  0  0  0  0  0  0  0  0  0  0
   10.5885  -15.3723   28.5877 C   0  0  0  0  0  0  0  0  0  0  0  0
    9.9569  -14.2823   28.0611 C   0  0  0  0  0  0  0  0  0  0  0  0
    9.4363  -13.1341   28.6284 C   0  0  0  0  0  0  0  0  0  0  0  0
    8.8576  -12.1835   27.8178 C   0  0  0  0  0  0  0  0  0  0  0  0
    8.7992  -12.3770   26.4544 C   0  0  0  0  0  0  0  0  0  0  0  0
    9.3238  -13.5280   25.9178 C   0  0  0  0  0  0  0  0  0  0  0  0
    9.9197  -14.5191   26.7050 C   0  0  0  0  0  0  0  0  0  0  0  0
   12.8933  -17.4519   25.5773 O   0  0  0  0  0  0  0  0  0  0  0  0
   12.8664  -18.6987   25.5508 O   0  0  0  0  0  0  0  0  0  0  0  0
  2  1  1  1
  2  3  1  0
  3  4  1  0
  4  5  2  0
  6  5  1  0
  7  6  1  0
  8  7  2  0
  9  8  1  0
 10 11  1  0
 10  9  2  0
 11 12  2  0
 12  7  1  0
 12  4  1  0
 13  2  1  0
 13 14  2  0
 15 16  1  0
 16 18  1  0
 17 16  2  0
 18 19  1  0
 19 20  1  0
 20 21  1  0
 22 21  1  6
 22 23  1  0
 22 24  1  0
 23 13  1  0
 24 25  2  0
 26 24  1  0
 26 27  1  0
 27 38  1  0
 27 28  1  6
 29 28  1  0
 30 29  2  0
 31 30  1  0
 32 31  1  0
 32 37  2  0
 33 32  1  0
 34 33  2  0
 34 35  1  0
 35 36  2  0
 36 37  1  0
 37 29  1  0
 38 40  1  0
 39 38  2  0
M  END
$$$$
