WRW.pdb
     RDKit          3D

 40 43  0  0  1  0  0  0  0  0999 V2000
    7.7984  -18.0929   19.1282 N   0  0  0  0  0  0  0  0  0  0  0  0
    8.0877  -17.0068   20.0264 C   0  0  1  0  0  0  0  0  0  0  0  0
    6.8107  -16.2989   20.5013 C   0  0  0  0  0  0  0  0  0  0  0  0
    7.1260  -14.9938   21.1081 C   0  0  0  0  0  0  0  0  0  0  0  0
    6.9471  -14.6438   22.4556 C   0  0  0  0  0  0  0  0  0  0  0  0
    7.3599  -13.3861   22.6425 N   0  0  0  0  0  0  0  0  0  0  0  0
    7.8108  -12.8584   21.4952 C   0  0  0  0  0  0  0  0  0  0  0  0
    8.3283  -11.6047   21.1877 C   0  0  0  0  0  0  0  0  0  0  0  0
    8.7008  -11.3735   19.8882 C   0  0  0  0  0  0  0  0  0  0  0  0
    8.5676  -12.3498   18.9130 C   0  0  0  0  0  0  0  0  0  0  0  0
    8.0579  -13.5769   19.2210 C   0  0  0  0  0  0  0  0  0  0  0  0
    7.6666  -13.8615   20.5269 C   0  0  0  0  0  0  0  0  0  0  0  0
    8.6989  -17.5376   21.3005 C   0  0  0  0  0  0  0  0  0  0  0  0
    7.9664  -18.1405   22.0930 O   0  0  0  0  0  0  0  0  0  0  0  0
   12.2288  -19.4180   18.3027 N   0  0  0  0  0  0  0  0  0  0  0  0
   11.1551  -20.2955   18.5563 C   0  0  0  0  0  0  0  0  0  0  0  0
   10.1600  -20.4561   17.7536 N   0  0  0  0  0  0  0  0  0  0  0  0
   11.1654  -21.0433   19.7704 N   0  0  0  0  0  0  0  0  0  0  0  0
   11.1147  -20.3273   21.0291 C   0  0  0  0  0  0  0  0  0  0  0  0
   12.0814  -19.1709   20.9615 C   0  0  0  0  0  0  0  0  0  0  0  0
   12.0785  -18.4268   22.2374 C   0  0  0  0  0  0  0  0  0  0  0  0
   10.6965  -18.0235   22.6793 C   0  0  2  0  0  0  0  0  0  0  0  0
   10.0537  -17.3268   21.5283 N   0  0  0  0  0  0  0  0  0  0  0  0
   10.6085  -17.0962   23.7860 C   0  0  0  0  0  0  0  0  0  0  0  0
   11.0155  -15.8822   23.5645 O   0  0  0  0  0  0  0  0  0  0  0  0
    9.3830  -21.1099   17.9375 N   0  0  0  0  0  0  0  0  0  0  0  0
   10.1178  -17.4209   25.0522 C   0  0  1  0  0  0  0  0  0  0  0  0
   10.4088  -16.5261   26.2011 C   0  0  0  0  0  0  0  0  0  0  0  0
    9.1958  -16.6082   27.0595 C   0  0  0  0  0  0  0  0  0  0  0  0
    7.9823  -15.9820   26.5326 C   0  0  0  0  0  0  0  0  0  0  0  0
    6.9072  -16.6457   25.9659 N   0  0  0  0  0  0  0  0  0  0  0  0
    5.9989  -15.7575   25.5661 C   0  0  0  0  0  0  0  0  0  0  0  0
    6.4204  -14.4886   25.8434 C   0  0  0  0  0  0  0  0  0  0  0  0
    5.8511  -13.2452   25.6411 C   0  0  0  0  0  0  0  0  0  0  0  0
    6.5281  -12.1183   26.0505 C   0  0  0  0  0  0  0  0  0  0  0  0
    7.7611  -12.2316   26.6561 C   0  0  0  0  0  0  0  0  0  0  0  0
    8.3033  -13.4801   26.8438 C   0  0  0  0  0  0  0  0  0  0  0  0
    7.6498  -14.6501   26.4425 C   0  0  0  0  0  0  0  0  0  0  0  0
   11.6744  -16.9509   26.7919 O   0  0  0  0  0  0  0  0  0  0  0  0
   12.2570  -17.9711   26.3727 O   0  0  0  0  0  0  0  0  0  0  0  0
  2  1  1  6
  2  3  1  0
  3  4  1  0
  4  5  2  0
  6  5  1  0
  7  6  1  0
  8  7  2  0
  9  8  1  0
 10 11  1  0
 10  9  2  0
 11 12  2  0
 12  7  1  0
 12  4  1  0
 13  2  1  0
 13 14  2  0
 15 16  1  0
 16 18  1  0
 17 16  2  0
 18 19  1  0
 19 20  1  0
 20 21  1  0
 22 21  1  6
 22 23  1  0
 22 24  1  0
 23 13  1  0
 24 25  2  0
 26 24  1  0
 26 27  1  0
 27 38  1  0
 27 28  1  6
 29 28  1  0
 30 29  2  0
 31 30  1  0
 32 31  1  0
 32 37  2  0
 33 32  1  0
 34 33  2  0
 34 35  1  0
 35 36  2  0
 36 37  1  0
 37 29  1  0
 38 40  1  0
 39 38  2  0
M  END
$$$$
