WRW.pdb
     RDKit          3D

 40 43  0  0  1  0  0  0  0  0999 V2000
    6.6270  -18.9818   22.9826 N   0  0  0  0  0  0  0  0  0  0  0  0
    7.3382  -17.7486   23.1910 C   0  0  1  0  0  0  0  0  0  0  0  0
    7.5560  -17.4565   24.6825 C   0  0  0  0  0  0  0  0  0  0  0  0
    6.6101  -16.4341   25.1631 C   0  0  0  0  0  0  0  0  0  0  0  0
    5.3634  -16.6769   25.7606 C   0  0  0  0  0  0  0  0  0  0  0  0
    4.7950  -15.5107   26.0830 N   0  0  0  0  0  0  0  0  0  0  0  0
    5.5862  -14.4847   25.7378 C   0  0  0  0  0  0  0  0  0  0  0  0
    5.4316  -13.1081   25.8607 C   0  0  0  0  0  0  0  0  0  0  0  0
    6.4452  -12.3116   25.3924 C   0  0  0  0  0  0  0  0  0  0  0  0
    7.5836  -12.8536   24.8160 C   0  0  0  0  0  0  0  0  0  0  0  0
    7.7282  -14.2047   24.6970 C   0  0  0  0  0  0  0  0  0  0  0  0
    6.7276  -15.0563   25.1588 C   0  0  0  0  0  0  0  0  0  0  0  0
    8.7386  -17.8589   22.6386 C   0  0  0  0  0  0  0  0  0  0  0  0
    9.2059  -18.9881   22.4519 O   0  0  0  0  0  0  0  0  0  0  0  0
    8.2765  -11.9148   19.2735 N   0  0  0  0  0  0  0  0  0  0  0  0
    7.8791  -13.0827   18.5915 C   0  0  0  0  0  0  0  0  0  0  0  0
    6.6592  -13.3376   18.2641 N   0  0  0  0  0  0  0  0  0  0  0  0
    8.8796  -14.0392   18.2490 N   0  0  0  0  0  0  0  0  0  0  0  0
   10.0263  -14.1896   19.1219 C   0  0  0  0  0  0  0  0  0  0  0  0
    9.7858  -15.3709   20.0292 C   0  0  0  0  0  0  0  0  0  0  0  0
   10.9892  -15.6463   20.8399 C   0  0  0  0  0  0  0  0  0  0  0  0
   10.8095  -16.8064   21.7832 C   0  0  2  0  0  0  0  0  0  0  0  0
    9.4411  -16.6913   22.3643 N   0  0  0  0  0  0  0  0  0  0  0  0
   11.7036  -16.8707   22.9185 C   0  0  0  0  0  0  0  0  0  0  0  0
   12.9600  -16.6335   22.6865 O   0  0  0  0  0  0  0  0  0  0  0  0
    6.3691  -14.2072   17.7900 N   0  0  0  0  0  0  0  0  0  0  0  0
   11.3039  -17.1627   24.2240 C   0  0  1  0  0  0  0  0  0  0  0  0
   12.3301  -17.3143   25.2867 C   0  0  0  0  0  0  0  0  0  0  0  0
   11.5616  -17.2782   26.5606 C   0  0  0  0  0  0  0  0  0  0  0  0
   10.5182  -16.2567   26.6625 C   0  0  0  0  0  0  0  0  0  0  0  0
    9.3041  -16.2678   25.9966 N   0  0  0  0  0  0  0  0  0  0  0  0
    8.6221  -15.1649   26.3005 C   0  0  0  0  0  0  0  0  0  0  0  0
    9.3373  -14.3865   27.1648 C   0  0  0  0  0  0  0  0  0  0  0  0
    9.0729  -13.1744   27.7747 C   0  0  0  0  0  0  0  0  0  0  0  0
   10.0059  -12.6313   28.6294 C   0  0  0  0  0  0  0  0  0  0  0  0
   11.1909  -13.2917   28.8728 C   0  0  0  0  0  0  0  0  0  0  0  0
   11.4275  -14.4946   28.2523 C   0  0  0  0  0  0  0  0  0  0  0  0
   10.5074  -15.0810   27.3768 C   0  0  0  0  0  0  0  0  0  0  0  0
   13.0951  -18.5248   25.0028 O   0  0  0  0  0  0  0  0  0  0  0  0
   14.1054  -18.8072   25.6778 O   0  0  0  0  0  0  0  0  0  0  0  0
  2  1  1  1
  2  3  1  0
  3  4  1  0
  4  5  2  0
  6  5  1  0
  7  6  1  0
  8  7  2  0
  9  8  1  0
 10 11  1  0
 10  9  2  0
 11 12  2  0
 12  7  1  0
 12  4  1  0
 13  2  1  0
 13 14  2  0
 15 16  1  0
 16 18  1  0
 17 16  2  0
 18 19  1  0
 19 20  1  0
 20 21  1  0
 22 21  1  6
 22 23  1  0
 22 24  1  0
 23 13  1  0
 24 25  2  0
 26 24  1  0
 26 27  1  0
 27 38  1  0
 27 28  1  6
 29 28  1  0
 30 29  2  0
 31 30  1  0
 32 31  1  0
 32 37  2  0
 33 32  1  0
 34 33  2  0
 34 35  1  0
 35 36  2  0
 36 37  1  0
 37 29  1  0
 38 40  1  0
 39 38  2  0
M  END
$$$$
