PNK.pdb
     RDKit          3D

 25 25  0  0  1  0  0  0  0  0999 V2000
    8.6529  -14.5587   18.6093 N   0  0  0  0  0  0  0  0  0  0  0  0
    7.2518  -14.3364   18.3215 C   0  0  0  0  0  0  0  0  0  0  0  0
    6.8830  -12.9667   18.8052 C   0  0  0  0  0  0  0  0  0  0  0  0
    8.1575  -12.4422   19.3762 C   0  0  0  0  0  0  0  0  0  0  0  0
    8.8874  -13.7052   19.7521 C   0  0  1  0  0  0  0  0  0  0  0  0
    8.3719  -14.3613   20.9559 C   0  0  0  0  0  0  0  0  0  0  0  0
    8.3298  -13.7501   22.0410 O   0  0  0  0  0  0  0  0  0  0  0  0
    6.2975  -17.8800   24.4364 N   0  0  0  0  0  0  0  0  0  0  0  0
    6.2032  -18.3151   23.1034 C   0  0  0  0  0  0  0  0  0  0  0  0
    5.5650  -19.4082   22.8874 O   0  0  0  0  0  0  0  0  0  0  0  0
    6.7526  -17.6632   21.9155 C   0  0  0  0  0  0  0  0  0  0  0  0
    7.4349  -16.3453   22.1661 C   0  0  2  0  0  0  0  0  0  0  0  0
    7.8948  -15.7083   20.9723 N   0  0  0  0  0  0  0  0  0  0  0  0
    8.5354  -16.5854   23.1538 C   0  0  0  0  0  0  0  0  0  0  0  0
    9.6202  -17.1247   22.7875 O   0  0  0  0  0  0  0  0  0  0  0  0
    8.3170  -16.1897   24.4986 N   0  0  0  0  0  0  0  0  0  0  0  0
    9.4109  -16.1980   25.4768 C   0  0  1  0  0  0  0  0  0  0  0  0
    8.9990  -15.3028   26.6170 C   0  0  0  0  0  0  0  0  0  0  0  0
    9.9765  -15.2287   27.7384 C   0  0  0  0  0  0  0  0  0  0  0  0
    9.5237  -14.3233   28.8537 C   0  0  0  0  0  0  0  0  0  0  0  0
   10.5059  -14.2798   29.9923 C   0  0  0  0  0  0  0  0  0  0  0  0
   10.1042  -13.4349   31.0716 N   0  0  0  0  0  0  0  0  0  0  0  0
    9.7156  -17.5838   25.9015 C   0  0  0  0  0  0  0  0  0  0  0  0
    8.7865  -18.4173   25.9999 O   0  0  0  0  0  0  0  0  0  0  0  0
   11.0043  -17.9989   26.1978 O   0  0  0  0  0  0  0  0  0  0  0  0
  1  2  1  0
  2  3  1  0
  4  3  1  0
  5  1  1  0
  5  4  1  0
  5  6  1  1
  7  6  2  0
  8  9  1  0
  9 11  1  0
 10  9  2  0
 12 11  1  6
 12 13  1  0
 13  6  1  0
 14 12  1  0
 14 15  2  0
 16 14  1  0
 17 16  1  0
 17 18  1  1
 19 18  1  0
 19 20  1  0
 21 22  1  0
 21 20  1  0
 23 17  1  0
 24 23  2  0
 25 23  1  0
M  END
$$$$
