PNK.pdb
     RDKit          3D

 25 25  0  0  1  0  0  0  0  0999 V2000
    8.9120  -14.7438   19.3540 N   0  0  0  0  0  0  0  0  0  0  0  0
    7.5041  -14.7223   19.0186 C   0  0  0  0  0  0  0  0  0  0  0  0
    6.9542  -13.3757   19.3800 C   0  0  0  0  0  0  0  0  0  0  0  0
    8.1356  -12.6522   19.9334 C   0  0  0  0  0  0  0  0  0  0  0  0
    9.0031  -13.7802   20.4276 C   0  0  1  0  0  0  0  0  0  0  0  0
    8.5344  -14.3988   21.6699 C   0  0  0  0  0  0  0  0  0  0  0  0
    8.4682  -13.7343   22.7219 O   0  0  0  0  0  0  0  0  0  0  0  0
    6.0289  -17.3787   25.3492 N   0  0  0  0  0  0  0  0  0  0  0  0
    6.1421  -17.9731   24.0809 C   0  0  0  0  0  0  0  0  0  0  0  0
    5.8174  -19.2116   23.9829 O   0  0  0  0  0  0  0  0  0  0  0  0
    6.5919  -17.3417   22.8411 C   0  0  0  0  0  0  0  0  0  0  0  0
    7.7283  -16.3669   22.9947 C   0  0  2  0  0  0  0  0  0  0  0  0
    8.1318  -15.7668   21.7620 N   0  0  0  0  0  0  0  0  0  0  0  0
    8.8498  -17.0831   23.6830 C   0  0  0  0  0  0  0  0  0  0  0  0
    8.6422  -17.7171   24.7585 O   0  0  0  0  0  0  0  0  0  0  0  0
   10.1372  -17.0236   23.0899 N   0  0  0  0  0  0  0  0  0  0  0  0
   11.2857  -17.6986   23.7055 C   0  0  1  0  0  0  0  0  0  0  0  0
   12.4801  -17.4456   22.8221 C   0  0  0  0  0  0  0  0  0  0  0  0
   13.7325  -17.0966   23.5490 C   0  0  0  0  0  0  0  0  0  0  0  0
   14.8727  -16.7569   22.6252 C   0  0  0  0  0  0  0  0  0  0  0  0
   16.1161  -16.3566   23.3712 C   0  0  0  0  0  0  0  0  0  0  0  0
   17.2133  -16.0106   22.5247 N   0  0  0  0  0  0  0  0  0  0  0  0
   11.4773  -17.2296   25.0972 C   0  0  0  0  0  0  0  0  0  0  0  0
   11.1175  -16.0728   25.4135 O   0  0  0  0  0  0  0  0  0  0  0  0
   12.0461  -18.0306   26.0747 O   0  0  0  0  0  0  0  0  0  0  0  0
  1  2  1  0
  2  3  1  0
  4  3  1  0
  5  1  1  0
  5  4  1  0
  5  6  1  1
  7  6  2  0
  8  9  1  0
  9 11  1  0
 10  9  2  0
 12 11  1  6
 12 13  1  0
 13  6  1  0
 14 12  1  0
 14 15  2  0
 16 14  1  0
 17 16  1  0
 17 18  1  6
 19 18  1  0
 19 20  1  0
 21 22  1  0
 21 20  1  0
 23 17  1  0
 24 23  2  0
 25 23  1  0
M  END
$$$$
