PNK.pdb
     RDKit          3D

 25 25  0  0  1  0  0  0  0  0999 V2000
    9.3269  -14.2991   18.4410 N   0  0  0  0  0  0  0  0  0  0  0  0
    7.9600  -14.4234   17.9813 C   0  0  0  0  0  0  0  0  0  0  0  0
    7.1510  -13.3278   18.6068 C   0  0  0  0  0  0  0  0  0  0  0  0
    8.1455  -12.5892   19.4380 C   0  0  0  0  0  0  0  0  0  0  0  0
    9.1786  -13.6478   19.7229 C   0  0  1  0  0  0  0  0  0  0  0  0
    8.7651  -14.6378   20.7201 C   0  0  0  0  0  0  0  0  0  0  0  0
    7.7485  -14.4489   21.4157 O   0  0  0  0  0  0  0  0  0  0  0  0
    8.6083  -18.3910   19.6961 N   0  0  0  0  0  0  0  0  0  0  0  0
    9.4329  -18.8219   20.7494 C   0  0  0  0  0  0  0  0  0  0  0  0
    9.9246  -20.0049   20.6625 O   0  0  0  0  0  0  0  0  0  0  0  0
    9.8036  -18.0742   21.9500 C   0  0  0  0  0  0  0  0  0  0  0  0
    9.1854  -16.7070   22.0692 C   0  0  2  0  0  0  0  0  0  0  0  0
    9.4758  -15.8542   20.9598 N   0  0  0  0  0  0  0  0  0  0  0  0
    9.6249  -16.1235   23.3772 C   0  0  0  0  0  0  0  0  0  0  0  0
   10.8014  -15.6792   23.5188 O   0  0  0  0  0  0  0  0  0  0  0  0
    8.6828  -16.0889   24.4374 N   0  0  0  0  0  0  0  0  0  0  0  0
    9.0500  -15.5670   25.7589 C   0  0  1  0  0  0  0  0  0  0  0  0
    7.8269  -14.8989   26.3322 C   0  0  0  0  0  0  0  0  0  0  0  0
    7.6933  -13.4520   26.0046 C   0  0  0  0  0  0  0  0  0  0  0  0
    6.4474  -12.8318   26.5805 C   0  0  0  0  0  0  0  0  0  0  0  0
    6.3257  -11.3705   26.2446 C   0  0  0  0  0  0  0  0  0  0  0  0
    5.1621  -10.7461   26.7890 N   0  0  0  0  0  0  0  0  0  0  0  0
    9.5795  -16.6528   26.6159 C   0  0  0  0  0  0  0  0  0  0  0  0
    9.3157  -17.8442   26.3357 O   0  0  0  0  0  0  0  0  0  0  0  0
   10.3649  -16.3984   27.7291 O   0  0  0  0  0  0  0  0  0  0  0  0
  1  2  1  0
  2  3  1  0
  4  3  1  0
  5  1  1  0
  5  4  1  0
  5  6  1  1
  7  6  2  0
  8  9  1  0
  9 11  1  0
 10  9  2  0
 12 11  1  6
 12 13  1  0
 13  6  1  0
 14 12  1  0
 14 15  2  0
 16 14  1  0
 17 16  1  0
 17 18  1  1
 19 18  1  0
 19 20  1  0
 21 22  1  0
 21 20  1  0
 23 17  1  0
 24 23  2  0
 25 23  1  0
M  END
$$$$
