PNK.pdb
     RDKit          3D

 25 25  0  0  1  0  0  0  0  0999 V2000
    6.3509  -18.5634   19.8358 N   0  0  0  0  0  0  0  0  0  0  0  0
    6.3795  -18.2130   18.4316 C   0  0  0  0  0  0  0  0  0  0  0  0
    7.4761  -18.9943   17.7734 C   0  0  0  0  0  0  0  0  0  0  0  0
    8.0529  -19.7974   18.8904 C   0  0  0  0  0  0  0  0  0  0  0  0
    7.7156  -18.9615   20.0973 C   0  0  1  0  0  0  0  0  0  0  0  0
    8.5450  -17.7637   20.2493 C   0  0  0  0  0  0  0  0  0  0  0  0
    9.7876  -17.8442   20.2014 O   0  0  0  0  0  0  0  0  0  0  0  0
    6.7045  -12.8216   18.9550 N   0  0  0  0  0  0  0  0  0  0  0  0
    7.7588  -13.6555   19.3649 C   0  0  0  0  0  0  0  0  0  0  0  0
    8.4982  -14.1607   18.4446 O   0  0  0  0  0  0  0  0  0  0  0  0
    8.1204  -14.0224   20.7333 C   0  0  0  0  0  0  0  0  0  0  0  0
    8.8091  -15.3528   20.8787 C   0  0  2  0  0  0  0  0  0  0  0  0
    8.0055  -16.4569   20.4572 N   0  0  0  0  0  0  0  0  0  0  0  0
    9.2601  -15.4764   22.3020 C   0  0  0  0  0  0  0  0  0  0  0  0
    8.4921  -15.1402   23.2501 O   0  0  0  0  0  0  0  0  0  0  0  0
   10.5649  -15.9787   22.5425 N   0  0  0  0  0  0  0  0  0  0  0  0
   11.0975  -16.0789   23.9063 C   0  0  1  0  0  0  0  0  0  0  0  0
   10.7424  -17.4480   24.4263 C   0  0  0  0  0  0  0  0  0  0  0  0
   11.2839  -17.7634   25.7776 C   0  0  0  0  0  0  0  0  0  0  0  0
   10.8920  -19.1346   26.2622 C   0  0  0  0  0  0  0  0  0  0  0  0
   11.3009  -19.3776   27.6894 C   0  0  0  0  0  0  0  0  0  0  0  0
   10.9201  -20.6597   28.1907 N   0  0  0  0  0  0  0  0  0  0  0  0
   12.5538  -15.8093   23.9149 C   0  0  0  0  0  0  0  0  0  0  0  0
   13.1552  -15.7036   25.0079 O   0  0  0  0  0  0  0  0  0  0  0  0
   13.2855  -15.6678   22.7465 O   0  0  0  0  0  0  0  0  0  0  0  0
  1  2  1  0
  2  3  1  0
  4  3  1  0
  5  1  1  0
  5  4  1  0
  5  6  1  6
  7  6  2  0
  8  9  1  0
  9 11  1  0
 10  9  2  0
 12 11  1  1
 12 13  1  0
 13  6  1  0
 14 12  1  0
 14 15  2  0
 16 14  1  0
 17 16  1  0
 17 18  1  6
 19 18  1  0
 19 20  1  0
 21 22  1  0
 21 20  1  0
 23 17  1  0
 24 23  2  0
 25 23  1  0
M  END
$$$$
