PNK.pdb
     RDKit          3D

 25 25  0  0  1  0  0  0  0  0999 V2000
    8.0902  -13.8255   17.9234 N   0  0  0  0  0  0  0  0  0  0  0  0
    7.4351  -14.1517   19.1722 C   0  0  0  0  0  0  0  0  0  0  0  0
    7.8656  -13.1545   20.2047 C   0  0  0  0  0  0  0  0  0  0  0  0
    8.7950  -12.2572   19.4587 C   0  0  0  0  0  0  0  0  0  0  0  0
    9.2948  -13.1539   18.3563 C   0  0  1  0  0  0  0  0  0  0  0  0
   10.2725  -14.1538   18.7920 C   0  0  0  0  0  0  0  0  0  0  0  0
    9.8955  -15.2392   19.2745 O   0  0  0  0  0  0  0  0  0  0  0  0
   13.2577  -16.7941   16.4288 N   0  0  0  0  0  0  0  0  0  0  0  0
   13.6248  -15.4943   16.8171 C   0  0  0  0  0  0  0  0  0  0  0  0
   13.7896  -14.6283   15.8834 O   0  0  0  0  0  0  0  0  0  0  0  0
   13.8450  -15.0022   18.1762 C   0  0  0  0  0  0  0  0  0  0  0  0
   12.6232  -14.9804   19.0550 C   0  0  2  0  0  0  0  0  0  0  0  0
   11.6855  -13.9627   18.6981 N   0  0  0  0  0  0  0  0  0  0  0  0
   13.0881  -14.8657   20.4746 C   0  0  0  0  0  0  0  0  0  0  0  0
   13.6172  -13.7945   20.8921 O   0  0  0  0  0  0  0  0  0  0  0  0
   12.9144  -15.9903   21.3218 N   0  0  0  0  0  0  0  0  0  0  0  0
   13.3748  -15.9662   22.7150 C   0  0  1  0  0  0  0  0  0  0  0  0
   12.6373  -17.0562   23.4493 C   0  0  0  0  0  0  0  0  0  0  0  0
   13.0653  -17.2587   24.8615 C   0  0  0  0  0  0  0  0  0  0  0  0
   12.2390  -18.2906   25.5836 C   0  0  0  0  0  0  0  0  0  0  0  0
   12.6072  -18.4059   27.0376 C   0  0  0  0  0  0  0  0  0  0  0  0
   11.7051  -19.2075   27.8016 N   0  0  0  0  0  0  0  0  0  0  0  0
   14.8474  -16.1121   22.7766 C   0  0  0  0  0  0  0  0  0  0  0  0
   15.4387  -16.7783   21.8968 O   0  0  0  0  0  0  0  0  0  0  0  0
   15.6054  -15.5330   23.7820 O   0  0  0  0  0  0  0  0  0  0  0  0
  1  2  1  0
  2  3  1  0
  4  3  1  0
  5  1  1  0
  5  4  1  0
  5  6  1  1
  7  6  2  0
  8  9  1  0
  9 11  1  0
 10  9  2  0
 12 11  1  6
 12 13  1  0
 13  6  1  0
 14 12  1  0
 14 15  2  0
 16 14  1  0
 17 16  1  0
 17 18  1  1
 19 18  1  0
 19 20  1  0
 21 22  1  0
 21 20  1  0
 23 17  1  0
 24 23  2  0
 25 23  1  0
M  END
$$$$
