PNK.pdb
     RDKit          3D

 25 25  0  0  1  0  0  0  0  0999 V2000
    8.4573  -16.2704   17.1363 N   0  0  0  0  0  0  0  0  0  0  0  0
    8.6109  -17.3986   16.2425 C   0  0  0  0  0  0  0  0  0  0  0  0
    7.7548  -18.5201   16.7479 C   0  0  0  0  0  0  0  0  0  0  0  0
    7.1177  -17.9505   17.9706 C   0  0  0  0  0  0  0  0  0  0  0  0
    8.1094  -16.8976   18.3913 C   0  0  1  0  0  0  0  0  0  0  0  0
    9.3229  -17.4303   19.0152 C   0  0  0  0  0  0  0  0  0  0  0  0
    9.2506  -18.3344   19.8697 O   0  0  0  0  0  0  0  0  0  0  0  0
   14.2553  -18.9751   20.0568 N   0  0  0  0  0  0  0  0  0  0  0  0
   14.2127  -18.0462   19.0032 C   0  0  0  0  0  0  0  0  0  0  0  0
   15.2909  -17.8777   18.3265 O   0  0  0  0  0  0  0  0  0  0  0  0
   13.0716  -17.2364   18.5787 C   0  0  0  0  0  0  0  0  0  0  0  0
   11.8045  -17.4557   19.3609 C   0  0  2  0  0  0  0  0  0  0  0  0
   10.6367  -16.9658   18.6986 N   0  0  0  0  0  0  0  0  0  0  0  0
   11.9978  -16.8479   20.7165 C   0  0  0  0  0  0  0  0  0  0  0  0
   12.1656  -15.5998   20.8422 O   0  0  0  0  0  0  0  0  0  0  0  0
   11.9857  -17.7149   21.8394 N   0  0  0  0  0  0  0  0  0  0  0  0
   12.2415  -17.2051   23.1915 C   0  0  1  0  0  0  0  0  0  0  0  0
   11.6431  -18.1903   24.1622 C   0  0  0  0  0  0  0  0  0  0  0  0
   11.8831  -17.8772   25.5986 C   0  0  0  0  0  0  0  0  0  0  0  0
   11.3478  -18.9348   26.5278 C   0  0  0  0  0  0  0  0  0  0  0  0
   11.6962  -18.6649   27.9662 C   0  0  0  0  0  0  0  0  0  0  0  0
   11.2584  -19.6816   28.8687 N   0  0  0  0  0  0  0  0  0  0  0  0
   13.6921  -16.9881   23.3976 C   0  0  0  0  0  0  0  0  0  0  0  0
   14.0786  -16.0199   24.0910 O   0  0  0  0  0  0  0  0  0  0  0  0
   14.6496  -17.8247   22.8463 O   0  0  0  0  0  0  0  0  0  0  0  0
  1  2  1  0
  2  3  1  0
  4  3  1  0
  5  1  1  0
  5  4  1  0
  5  6  1  6
  7  6  2  0
  8  9  1  0
  9 11  1  0
 10  9  2  0
 12 11  1  6
 12 13  1  0
 13  6  1  0
 14 12  1  0
 14 15  2  0
 16 14  1  0
 17 16  1  0
 17 18  1  1
 19 18  1  0
 19 20  1  0
 21 22  1  0
 21 20  1  0
 23 17  1  0
 24 23  2  0
 25 23  1  0
M  END
$$$$
