PNK.pdb
     RDKit          3D

 25 25  0  0  1  0  0  0  0  0999 V2000
    9.2734  -13.9375   18.2851 N   0  0  0  0  0  0  0  0  0  0  0  0
    7.9207  -14.3053   17.9242 C   0  0  0  0  0  0  0  0  0  0  0  0
    6.9740  -13.4604   18.7217 C   0  0  0  0  0  0  0  0  0  0  0  0
    7.8771  -12.6036   19.5438 C   0  0  0  0  0  0  0  0  0  0  0  0
    9.1244  -13.4431   19.6353 C   0  0  1  0  0  0  0  0  0  0  0  0
    9.0182  -14.5789   20.5541 C   0  0  0  0  0  0  0  0  0  0  0  0
    8.2550  -14.5278   21.5378 O   0  0  0  0  0  0  0  0  0  0  0  0
    9.1821  -20.2299   22.0275 N   0  0  0  0  0  0  0  0  0  0  0  0
   10.1747  -19.2610   21.8022 C   0  0  0  0  0  0  0  0  0  0  0  0
   11.2316  -19.3248   22.5287 O   0  0  0  0  0  0  0  0  0  0  0  0
   10.1485  -18.1730   20.8256 C   0  0  0  0  0  0  0  0  0  0  0  0
    9.7559  -16.8282   21.3758 C   0  0  2  0  0  0  0  0  0  0  0  0
    9.7593  -15.7902   20.3935 N   0  0  0  0  0  0  0  0  0  0  0  0
   10.6590  -16.5310   22.5336 C   0  0  0  0  0  0  0  0  0  0  0  0
   11.8229  -16.0740   22.3389 O   0  0  0  0  0  0  0  0  0  0  0  0
   10.1648  -16.7788   23.8402 N   0  0  0  0  0  0  0  0  0  0  0  0
   10.9780  -16.4826   25.0254 C   0  0  1  0  0  0  0  0  0  0  0  0
   10.0906  -15.7647   26.0093 C   0  0  0  0  0  0  0  0  0  0  0  0
   10.7460  -15.4095   27.2989 C   0  0  0  0  0  0  0  0  0  0  0  0
    9.8207  -14.7000   28.2524 C   0  0  0  0  0  0  0  0  0  0  0  0
   10.5000  -14.3293   29.5424 C   0  0  0  0  0  0  0  0  0  0  0  0
    9.6926  -13.5383   30.4156 N   0  0  0  0  0  0  0  0  0  0  0  0
   11.5709  -17.7255   25.5708 C   0  0  0  0  0  0  0  0  0  0  0  0
   10.8645  -18.7545   25.6690 O   0  0  0  0  0  0  0  0  0  0  0  0
   12.8927  -17.7947   25.9815 O   0  0  0  0  0  0  0  0  0  0  0  0
  1  2  1  0
  2  3  1  0
  4  3  1  0
  5  1  1  0
  5  4  1  0
  5  6  1  1
  7  6  2  0
  8  9  1  0
  9 11  1  0
 10  9  2  0
 12 11  1  6
 12 13  1  0
 13  6  1  0
 14 12  1  0
 14 15  2  0
 16 14  1  0
 17 16  1  0
 17 18  1  1
 19 18  1  0
 19 20  1  0
 21 22  1  0
 21 20  1  0
 23 17  1  0
 24 23  2  0
 25 23  1  0
M  END
$$$$
