PNK.pdb
     RDKit          3D

 25 25  0  0  1  0  0  0  0  0999 V2000
    8.1785  -17.9987   17.7275 N   0  0  0  0  0  0  0  0  0  0  0  0
    7.8495  -16.8934   16.8527 C   0  0  0  0  0  0  0  0  0  0  0  0
    9.0819  -16.5140   16.0890 C   0  0  0  0  0  0  0  0  0  0  0  0
   10.1117  -17.4708   16.5885 C   0  0  0  0  0  0  0  0  0  0  0  0
    9.5935  -17.8166   17.9599 C   0  0  1  0  0  0  0  0  0  0  0  0
    9.7848  -16.7618   18.9581 C   0  0  0  0  0  0  0  0  0  0  0  0
   10.9305  -16.3722   19.2555 O   0  0  0  0  0  0  0  0  0  0  0  0
    7.5326  -12.2048   19.5247 N   0  0  0  0  0  0  0  0  0  0  0  0
    7.3170  -13.5634   19.8122 C   0  0  0  0  0  0  0  0  0  0  0  0
    6.6530  -14.2465   18.9511 O   0  0  0  0  0  0  0  0  0  0  0  0
    7.7643  -14.3036   20.9912 C   0  0  0  0  0  0  0  0  0  0  0  0
    8.9094  -15.2516   20.7557 C   0  0  2  0  0  0  0  0  0  0  0  0
    8.7046  -16.1232   19.6418 N   0  0  0  0  0  0  0  0  0  0  0  0
    9.1528  -15.9944   22.0337 C   0  0  0  0  0  0  0  0  0  0  0  0
    8.1810  -16.3876   22.7426 O   0  0  0  0  0  0  0  0  0  0  0  0
   10.4981  -16.2369   22.4133 N   0  0  0  0  0  0  0  0  0  0  0  0
   10.8161  -17.0040   23.6233 C   0  0  1  0  0  0  0  0  0  0  0  0
   11.5939  -18.2203   23.1910 C   0  0  0  0  0  0  0  0  0  0  0  0
   11.0697  -19.5145   23.7096 C   0  0  0  0  0  0  0  0  0  0  0  0
   11.8052  -20.7086   23.1603 C   0  0  0  0  0  0  0  0  0  0  0  0
   11.1895  -22.0111   23.5935 C   0  0  0  0  0  0  0  0  0  0  0  0
   11.8193  -23.1641   23.0331 N   0  0  0  0  0  0  0  0  0  0  0  0
   11.5456  -16.1583   24.5961 C   0  0  0  0  0  0  0  0  0  0  0  0
   12.1609  -15.1451   24.1931 O   0  0  0  0  0  0  0  0  0  0  0  0
   11.5741  -16.4482   25.9510 O   0  0  0  0  0  0  0  0  0  0  0  0
  1  2  1  0
  2  3  1  0
  4  3  1  0
  5  1  1  0
  5  4  1  0
  5  6  1  1
  7  6  2  0
  8  9  1  0
  9 11  1  0
 10  9  2  0
 12 11  1  1
 12 13  1  0
 13  6  1  0
 14 12  1  0
 14 15  2  0
 16 14  1  0
 17 16  1  0
 17 18  1  6
 19 18  1  0
 19 20  1  0
 21 22  1  0
 21 20  1  0
 23 17  1  0
 24 23  2  0
 25 23  1  0
M  END
$$$$
