PNK.pdb
     RDKit          3D

 25 25  0  0  1  0  0  0  0  0999 V2000
    9.1836  -14.1954   17.9707 N   0  0  0  0  0  0  0  0  0  0  0  0
    7.7879  -14.3249   17.6098 C   0  0  0  0  0  0  0  0  0  0  0  0
    7.0071  -13.2968   18.3709 C   0  0  0  0  0  0  0  0  0  0  0  0
    8.0476  -12.5900   19.1729 C   0  0  0  0  0  0  0  0  0  0  0  0
    9.1225  -13.6373   19.3027 C   0  0  1  0  0  0  0  0  0  0  0  0
    8.8100  -14.7038   20.2569 C   0  0  0  0  0  0  0  0  0  0  0  0
    8.1045  -14.4712   21.2574 O   0  0  0  0  0  0  0  0  0  0  0  0
    7.4215  -19.3364   19.2768 N   0  0  0  0  0  0  0  0  0  0  0  0
    8.7060  -18.7874   19.4302 C   0  0  0  0  0  0  0  0  0  0  0  0
    9.3810  -18.5675   18.3602 O   0  0  0  0  0  0  0  0  0  0  0  0
    9.3761  -18.4311   20.6800 C   0  0  0  0  0  0  0  0  0  0  0  0
    9.1446  -17.0205   21.1511 C   0  0  2  0  0  0  0  0  0  0  0  0
    9.2774  -16.0467   20.1136 N   0  0  0  0  0  0  0  0  0  0  0  0
   10.0709  -16.7692   22.3015 C   0  0  0  0  0  0  0  0  0  0  0  0
   11.2929  -16.5114   22.0970 O   0  0  0  0  0  0  0  0  0  0  0  0
    9.5316  -16.8307   23.6122 N   0  0  0  0  0  0  0  0  0  0  0  0
   10.3692  -16.5670   24.7880 C   0  0  1  0  0  0  0  0  0  0  0  0
    9.6043  -15.6238   25.6804 C   0  0  0  0  0  0  0  0  0  0  0  0
   10.2601  -15.3267   26.9843 C   0  0  0  0  0  0  0  0  0  0  0  0
    9.4307  -14.4334   27.8691 C   0  0  0  0  0  0  0  0  0  0  0  0
   10.1199  -14.1111   29.1669 C   0  0  0  0  0  0  0  0  0  0  0  0
    9.3243  -13.3412   30.0694 N   0  0  0  0  0  0  0  0  0  0  0  0
   10.7374  -17.8361   25.4569 C   0  0  0  0  0  0  0  0  0  0  0  0
   10.0256  -18.8520   25.2872 O   0  0  0  0  0  0  0  0  0  0  0  0
   11.8523  -17.9443   26.2729 O   0  0  0  0  0  0  0  0  0  0  0  0
  1  2  1  0
  2  3  1  0
  4  3  1  0
  5  1  1  0
  5  4  1  0
  5  6  1  1
  7  6  2  0
  8  9  1  0
  9 11  1  0
 10  9  2  0
 12 11  1  6
 12 13  1  0
 13  6  1  0
 14 12  1  0
 14 15  2  0
 16 14  1  0
 17 16  1  0
 17 18  1  1
 19 18  1  0
 19 20  1  0
 21 22  1  0
 21 20  1  0
 23 17  1  0
 24 23  2  0
 25 23  1  0
M  END
$$$$
