PNK.pdb
     RDKit          3D

 25 25  0  0  1  0  0  0  0  0999 V2000
    8.9337  -13.1486   18.1318 N   0  0  0  0  0  0  0  0  0  0  0  0
    8.2314  -14.2007   17.4282 C   0  0  0  0  0  0  0  0  0  0  0  0
    6.9969  -14.5446   18.2053 C   0  0  0  0  0  0  0  0  0  0  0  0
    7.0538  -13.6242   19.3780 C   0  0  0  0  0  0  0  0  0  0  0  0
    8.5300  -13.3527   19.5046 C   0  0  1  0  0  0  0  0  0  0  0  0
    9.2987  -14.4633   20.0715 C   0  0  0  0  0  0  0  0  0  0  0  0
    8.7450  -15.5495   20.3293 O   0  0  0  0  0  0  0  0  0  0  0  0
   12.7542  -15.4706   18.3944 N   0  0  0  0  0  0  0  0  0  0  0  0
   13.4526  -15.3009   19.6020 C   0  0  0  0  0  0  0  0  0  0  0  0
   14.7241  -15.1381   19.5259 O   0  0  0  0  0  0  0  0  0  0  0  0
   12.8975  -15.2871   20.9547 C   0  0  0  0  0  0  0  0  0  0  0  0
   11.4011  -15.4285   21.0341 C   0  0  2  0  0  0  0  0  0  0  0  0
   10.6958  -14.3836   20.3610 N   0  0  0  0  0  0  0  0  0  0  0  0
   11.0323  -15.5349   22.4822 C   0  0  0  0  0  0  0  0  0  0  0  0
   11.0827  -14.5179   23.2338 O   0  0  0  0  0  0  0  0  0  0  0  0
   10.6294  -16.8040   22.9720 N   0  0  0  0  0  0  0  0  0  0  0  0
   10.2645  -16.9900   24.3812 C   0  0  1  0  0  0  0  0  0  0  0  0
    9.3240  -18.1656   24.4489 C   0  0  0  0  0  0  0  0  0  0  0  0
    8.8715  -18.5260   25.8215 C   0  0  0  0  0  0  0  0  0  0  0  0
    7.9966  -19.7518   25.8487 C   0  0  0  0  0  0  0  0  0  0  0  0
    7.5059  -20.0761   27.2332 C   0  0  0  0  0  0  0  0  0  0  0  0
    6.5634  -21.1485   27.2773 N   0  0  0  0  0  0  0  0  0  0  0  0
   11.4782  -17.1629   25.2123 C   0  0  0  0  0  0  0  0  0  0  0  0
   12.5072  -17.6638   24.7046 O   0  0  0  0  0  0  0  0  0  0  0  0
   11.5197  -16.7876   26.5457 O   0  0  0  0  0  0  0  0  0  0  0  0
  1  2  1  0
  2  3  1  0
  4  3  1  0
  5  1  1  0
  5  4  1  0
  5  6  1  6
  7  6  2  0
  8  9  1  0
  9 11  1  0
 10  9  2  0
 12 11  1  1
 12 13  1  0
 13  6  1  0
 14 12  1  0
 14 15  2  0
 16 14  1  0
 17 16  1  0
 17 18  1  6
 19 18  1  0
 19 20  1  0
 21 22  1  0
 21 20  1  0
 23 17  1  0
 24 23  2  0
 25 23  1  0
M  END
$$$$
