PNK.pdb
     RDKit          3D

 25 25  0  0  1  0  0  0  0  0999 V2000
    8.8601  -14.4947   18.3378 N   0  0  0  0  0  0  0  0  0  0  0  0
    7.4186  -14.3733   18.2905 C   0  0  0  0  0  0  0  0  0  0  0  0
    7.0175  -13.1940   19.1239 C   0  0  0  0  0  0  0  0  0  0  0  0
    8.3167  -12.6683   19.6348 C   0  0  0  0  0  0  0  0  0  0  0  0
    9.1936  -13.8929   19.6090 C   0  0  1  0  0  0  0  0  0  0  0  0
    8.9183  -14.8516   20.6816 C   0  0  0  0  0  0  0  0  0  0  0  0
    7.8171  -14.8495   21.2651 O   0  0  0  0  0  0  0  0  0  0  0  0
    9.2162  -18.7927   19.9978 N   0  0  0  0  0  0  0  0  0  0  0  0
   10.3206  -18.6839   20.8599 C   0  0  0  0  0  0  0  0  0  0  0  0
   11.4127  -19.2471   20.4873 O   0  0  0  0  0  0  0  0  0  0  0  0
   10.3765  -17.9963   22.1491 C   0  0  0  0  0  0  0  0  0  0  0  0
    9.6047  -16.7060   22.2206 C   0  0  2  0  0  0  0  0  0  0  0  0
    9.8635  -15.8284   21.1228 N   0  0  0  0  0  0  0  0  0  0  0  0
    9.8993  -16.0748   23.5469 C   0  0  0  0  0  0  0  0  0  0  0  0
   11.0365  -15.5703   23.7792 O   0  0  0  0  0  0  0  0  0  0  0  0
    8.8669  -16.0646   24.5200 N   0  0  0  0  0  0  0  0  0  0  0  0
    9.0972  -15.5163   25.8616 C   0  0  1  0  0  0  0  0  0  0  0  0
    7.8143  -14.8607   26.3038 C   0  0  0  0  0  0  0  0  0  0  0  0
    7.7293  -13.4004   26.0229 C   0  0  0  0  0  0  0  0  0  0  0  0
    6.4220  -12.7932   26.4598 C   0  0  0  0  0  0  0  0  0  0  0  0
    6.3995  -11.2983   26.2937 C   0  0  0  0  0  0  0  0  0  0  0  0
    5.1428  -10.6990   26.6126 N   0  0  0  0  0  0  0  0  0  0  0  0
    9.5590  -16.5795   26.7835 C   0  0  0  0  0  0  0  0  0  0  0  0
    9.3663  -17.7803   26.4863 O   0  0  0  0  0  0  0  0  0  0  0  0
   10.2037  -16.2936   27.9765 O   0  0  0  0  0  0  0  0  0  0  0  0
  1  2  1  0
  2  3  1  0
  4  3  1  0
  5  1  1  0
  5  4  1  0
  5  6  1  1
  7  6  2  0
  8  9  1  0
  9 11  1  0
 10  9  2  0
 12 11  1  6
 12 13  1  0
 13  6  1  0
 14 12  1  0
 14 15  2  0
 16 14  1  0
 17 16  1  0
 17 18  1  1
 19 18  1  0
 19 20  1  0
 21 22  1  0
 21 20  1  0
 23 17  1  0
 24 23  2  0
 25 23  1  0
M  END
$$$$
