PNK.pdb
     RDKit          3D

 25 25  0  0  1  0  0  0  0  0999 V2000
    8.4075  -15.0385   18.9033 N   0  0  0  0  0  0  0  0  0  0  0  0
    7.0312  -14.6148   18.7563 C   0  0  0  0  0  0  0  0  0  0  0  0
    6.9854  -13.1201   18.8546 C   0  0  0  0  0  0  0  0  0  0  0  0
    8.4125  -12.7391   19.0634 C   0  0  0  0  0  0  0  0  0  0  0  0
    8.9890  -13.9788   19.6958 C   0  0  1  0  0  0  0  0  0  0  0  0
    8.6141  -14.1671   21.0993 C   0  0  0  0  0  0  0  0  0  0  0  0
    8.8963  -13.3026   21.9512 O   0  0  0  0  0  0  0  0  0  0  0  0
    6.8578  -17.9546   25.5645 N   0  0  0  0  0  0  0  0  0  0  0  0
    6.4575  -16.9998   24.6143 C   0  0  0  0  0  0  0  0  0  0  0  0
    5.5448  -16.1684   24.9673 O   0  0  0  0  0  0  0  0  0  0  0  0
    6.9628  -16.8368   23.2519 C   0  0  0  0  0  0  0  0  0  0  0  0
    7.5880  -15.4999   22.9565 C   0  0  2  0  0  0  0  0  0  0  0  0
    7.9192  -15.3204   21.5779 N   0  0  0  0  0  0  0  0  0  0  0  0
    8.7725  -15.3440   23.8604 C   0  0  0  0  0  0  0  0  0  0  0  0
    9.1246  -14.1977   24.2651 O   0  0  0  0  0  0  0  0  0  0  0  0
    9.4752  -16.5165   24.2403 N   0  0  0  0  0  0  0  0  0  0  0  0
   10.4954  -16.4789   25.2944 C   0  0  1  0  0  0  0  0  0  0  0  0
    9.8563  -15.8680   26.5148 C   0  0  0  0  0  0  0  0  0  0  0  0
   10.7572  -15.7382   27.6938 C   0  0  0  0  0  0  0  0  0  0  0  0
   10.1101  -15.0254   28.8522 C   0  0  0  0  0  0  0  0  0  0  0  0
   11.0069  -14.9579   30.0580 C   0  0  0  0  0  0  0  0  0  0  0  0
   10.4364  -14.2595   31.1657 N   0  0  0  0  0  0  0  0  0  0  0  0
   11.0409  -17.8345   25.5362 C   0  0  0  0  0  0  0  0  0  0  0  0
   10.2716  -18.8220   25.5136 O   0  0  0  0  0  0  0  0  0  0  0  0
   12.3855  -18.0551   25.7894 O   0  0  0  0  0  0  0  0  0  0  0  0
  1  2  1  0
  2  3  1  0
  4  3  1  0
  5  1  1  0
  5  4  1  0
  5  6  1  1
  7  6  2  0
  8  9  1  0
  9 11  1  0
 10  9  2  0
 12 11  1  6
 12 13  1  0
 13  6  1  0
 14 12  1  0
 14 15  2  0
 16 14  1  0
 17 16  1  0
 17 18  1  1
 19 18  1  0
 19 20  1  0
 21 22  1  0
 21 20  1  0
 23 17  1  0
 24 23  2  0
 25 23  1  0
M  END
$$$$
