PNK.pdb
     RDKit          3D

 25 25  0  0  1  0  0  0  0  0999 V2000
    9.4429  -14.0069   18.4858 N   0  0  0  0  0  0  0  0  0  0  0  0
    8.1095  -14.2668   17.9861 C   0  0  0  0  0  0  0  0  0  0  0  0
    7.1633  -13.3125   18.6497 C   0  0  0  0  0  0  0  0  0  0  0  0
    8.0465  -12.5091   19.5441 C   0  0  0  0  0  0  0  0  0  0  0  0
    9.1940  -13.4516   19.7970 C   0  0  1  0  0  0  0  0  0  0  0  0
    8.8845  -14.5387   20.7285 C   0  0  0  0  0  0  0  0  0  0  0  0
    7.8306  -14.5216   21.3934 O   0  0  0  0  0  0  0  0  0  0  0  0
    9.1248  -19.4979   20.1907 N   0  0  0  0  0  0  0  0  0  0  0  0
   10.1122  -18.5546   20.5225 C   0  0  0  0  0  0  0  0  0  0  0  0
   10.9487  -18.2335   19.6027 O   0  0  0  0  0  0  0  0  0  0  0  0
   10.3046  -17.8851   21.8081 C   0  0  0  0  0  0  0  0  0  0  0  0
    9.5294  -16.6074   21.9869 C   0  0  2  0  0  0  0  0  0  0  0  0
    9.7422  -15.6628   20.9357 N   0  0  0  0  0  0  0  0  0  0  0  0
    9.8704  -16.0556   23.3373 C   0  0  0  0  0  0  0  0  0  0  0  0
   11.0157  -15.5652   23.5598 O   0  0  0  0  0  0  0  0  0  0  0  0
    8.8721  -16.1038   24.3442 N   0  0  0  0  0  0  0  0  0  0  0  0
    9.1316  -15.5847   25.6921 C   0  0  1  0  0  0  0  0  0  0  0  0
    7.8322  -15.0298   26.2161 C   0  0  0  0  0  0  0  0  0  0  0  0
    7.6002  -13.5898   25.9143 C   0  0  0  0  0  0  0  0  0  0  0  0
    6.2732  -13.0894   26.4216 C   0  0  0  0  0  0  0  0  0  0  0  0
    6.0508  -11.6348   26.1094 C   0  0  0  0  0  0  0  0  0  0  0  0
    4.7666  -11.1480   26.5016 N   0  0  0  0  0  0  0  0  0  0  0  0
    9.7053  -16.6440   26.5537 C   0  0  0  0  0  0  0  0  0  0  0  0
    9.5563  -17.8458   26.2358 O   0  0  0  0  0  0  0  0  0  0  0  0
   10.4090  -16.3535   27.7118 O   0  0  0  0  0  0  0  0  0  0  0  0
  1  2  1  0
  2  3  1  0
  4  3  1  0
  5  1  1  0
  5  4  1  0
  5  6  1  1
  7  6  2  0
  8  9  1  0
  9 11  1  0
 10  9  2  0
 12 11  1  6
 12 13  1  0
 13  6  1  0
 14 12  1  0
 14 15  2  0
 16 14  1  0
 17 16  1  0
 17 18  1  1
 19 18  1  0
 19 20  1  0
 21 22  1  0
 21 20  1  0
 23 17  1  0
 24 23  2  0
 25 23  1  0
M  END
$$$$
