PNK.pdb
     RDKit          3D

 25 25  0  0  1  0  0  0  0  0999 V2000
    8.8510  -14.6181   18.6122 N   0  0  0  0  0  0  0  0  0  0  0  0
    7.4610  -14.5033   18.2250 C   0  0  0  0  0  0  0  0  0  0  0  0
    6.9462  -13.1800   18.7045 C   0  0  0  0  0  0  0  0  0  0  0  0
    8.1281  -12.5677   19.3779 C   0  0  0  0  0  0  0  0  0  0  0  0
    8.9306  -13.7760   19.7843 C   0  0  1  0  0  0  0  0  0  0  0  0
    8.3850  -14.5005   20.9346 C   0  0  0  0  0  0  0  0  0  0  0  0
    8.0628  -13.8900   21.9721 O   0  0  0  0  0  0  0  0  0  0  0  0
    5.2893  -18.7525   23.3479 N   0  0  0  0  0  0  0  0  0  0  0  0
    6.6368  -18.7043   22.9520 C   0  0  0  0  0  0  0  0  0  0  0  0
    7.4813  -19.3561   23.6667 O   0  0  0  0  0  0  0  0  0  0  0  0
    7.2012  -17.9906   21.8074 C   0  0  0  0  0  0  0  0  0  0  0  0
    7.7341  -16.6158   22.1095 C   0  0  2  0  0  0  0  0  0  0  0  0
    8.1889  -15.9159   20.9494 N   0  0  0  0  0  0  0  0  0  0  0  0
    8.8007  -16.7620   23.1513 C   0  0  0  0  0  0  0  0  0  0  0  0
    9.9793  -17.0847   22.8223 O   0  0  0  0  0  0  0  0  0  0  0  0
    8.4425  -16.5276   24.5039 N   0  0  0  0  0  0  0  0  0  0  0  0
    9.4594  -16.4977   25.5615 C   0  0  1  0  0  0  0  0  0  0  0  0
    9.0027  -15.4992   26.5938 C   0  0  0  0  0  0  0  0  0  0  0  0
    9.8963  -15.3720   27.7787 C   0  0  0  0  0  0  0  0  0  0  0  0
    9.3496  -14.4416   28.8296 C   0  0  0  0  0  0  0  0  0  0  0  0
   10.2410  -14.3536   30.0381 C   0  0  0  0  0  0  0  0  0  0  0  0
   10.8472  -13.0729   30.2185 N   0  0  0  0  0  0  0  0  0  0  0  0
    9.6721  -17.8552   26.1144 C   0  0  0  0  0  0  0  0  0  0  0  0
    8.7234  -18.6721   26.1260 O   0  0  0  0  0  0  0  0  0  0  0  0
   10.8946  -18.2612   26.6254 O   0  0  0  0  0  0  0  0  0  0  0  0
  1  2  1  0
  2  3  1  0
  4  3  1  0
  5  1  1  0
  5  4  1  0
  5  6  1  1
  7  6  2  0
  8  9  1  0
  9 11  1  0
 10  9  2  0
 12 11  1  6
 12 13  1  0
 13  6  1  0
 14 12  1  0
 14 15  2  0
 16 14  1  0
 17 16  1  0
 17 18  1  1
 19 18  1  0
 19 20  1  0
 21 22  1  0
 21 20  1  0
 23 17  1  0
 24 23  2  0
 25 23  1  0
M  END
$$$$
