REV.pdb
     RDKit          3D

 28 27  0  0  1  0  0  0  0  0999 V2000
   31.5255  -25.1818  -15.7841 N   0  0  0  0  0  0  0  0  0  0  0  0
   31.0200  -25.3096  -17.1043 C   0  0  0  0  0  0  0  0  0  0  0  0
   30.0463  -26.1196  -17.3118 N   0  0  0  0  0  0  0  0  0  0  0  0
   31.5792  -24.5583  -18.1717 N   0  0  0  0  0  0  0  0  0  0  0  0
   31.4610  -23.1291  -18.2547 C   0  0  0  0  0  0  0  0  0  0  0  0
   30.1029  -22.6674  -18.6567 C   0  0  0  0  0  0  0  0  0  0  0  0
   29.5192  -21.5495  -17.8755 C   0  0  0  0  0  0  0  0  0  0  0  0
   29.0716  -21.8663  -16.4931 C   0  0  2  0  0  0  0  0  0  0  0  0
   28.9179  -23.2667  -16.2668 N   0  0  0  0  0  0  0  0  0  0  0  0
   27.8864  -21.0774  -16.0733 C   0  0  0  0  0  0  0  0  0  0  0  0
   27.9391  -19.8275  -16.1720 O   0  0  0  0  0  0  0  0  0  0  0  0
   29.7472  -26.3096  -18.2865 N   0  0  0  0  0  0  0  0  0  0  0  0
   26.6910  -21.6559  -15.5643 C   0  0  2  0  0  0  0  0  0  0  0  0
   25.5900  -20.8636  -15.0558 C   0  0  0  0  0  0  0  0  0  0  0  0
   24.3787  -20.9111  -15.9426 C   0  0  0  0  0  0  0  0  0  0  0  0
   24.4965  -20.0385  -17.1628 C   0  0  0  0  0  0  0  0  0  0  0  0
   23.2178  -20.1235  -17.9112 O   0  0  0  0  0  0  0  0  0  0  0  0
   22.8992  -21.1586  -18.5556 C   0  0  0  0  0  0  0  0  0  0  0  0
   25.1815  -21.4466  -13.7280 O   0  0  0  0  0  0  0  0  0  0  0  0
   25.0193  -22.6893  -13.5978 O   0  0  0  0  0  0  0  0  0  0  0  0
   22.3130  -19.0728  -17.9391 C   0  0  0  0  0  0  0  0  0  0  0  0
   26.7830  -21.3126  -10.4422 C   0  0  2  0  0  0  0  0  0  0  0  0
   25.3749  -20.8353  -10.1821 C   0  0  0  0  0  0  0  0  0  0  0  0
   25.3457  -19.3710   -9.8957 C   0  0  2  0  0  0  0  0  0  0  0  0
   24.5202  -21.2233  -11.3647 N   0  0  0  0  0  0  0  0  0  0  0  0
   24.9671  -20.6356  -12.5920 C   0  0  0  0  0  0  0  0  0  0  0  0
   23.1080  -20.8401  -11.0503 O   0  0  0  0  0  0  0  0  0  0  0  0
   22.5234  -19.8748  -11.8540 O   0  0  0  0  0  0  0  0  0  0  0  0
  2  1  1  0
  2  4  1  0
  3  2  2  0
  5  4  1  0
  6  5  1  0
  7  6  1  0
  8  7  1  0
  8  9  1  6
 10 11  2  0
 10  8  1  0
 12 10  1  0
 13 12  1  0
 14 15  1  0
 13 14  1  6
 15 16  1  0
 16 17  2  0
 16 20  1  0
 18 13  1  0
 18 19  2  0
 22 21  1  1
 23 22  1  0
 24 22  1  0
 24 25  1  1
 25 18  1  0
 26 24  1  0
 27 26  1  0
 28 26  2  0
M  END
$$$$
