REV.pdb
     RDKit          3D

 28 27  0  0  1  0  0  0  0  0999 V2000
   26.8150  -16.9365  -18.3280 N   0  0  0  0  0  0  0  0  0  0  0  0
   25.8869  -18.0105  -18.3260 C   0  0  0  0  0  0  0  0  0  0  0  0
   25.5992  -18.5736  -19.4428 N   0  0  0  0  0  0  0  0  0  0  0  0
   25.2899  -18.4518  -17.1155 N   0  0  0  0  0  0  0  0  0  0  0  0
   25.8385  -18.1389  -15.8253 C   0  0  0  0  0  0  0  0  0  0  0  0
   27.2985  -18.4147  -15.7174 C   0  0  0  0  0  0  0  0  0  0  0  0
   27.9176  -18.2224  -14.3831 C   0  0  0  0  0  0  0  0  0  0  0  0
   28.0528  -19.4341  -13.5314 C   0  0  2  0  0  0  0  0  0  0  0  0
   27.9204  -20.6484  -14.2691 N   0  0  0  0  0  0  0  0  0  0  0  0
   27.1907  -19.3921  -12.3239 C   0  0  0  0  0  0  0  0  0  0  0  0
   27.0296  -18.2893  -11.7469 O   0  0  0  0  0  0  0  0  0  0  0  0
   24.8509  -19.2913  -19.4679 N   0  0  0  0  0  0  0  0  0  0  0  0
   26.5346  -20.5308  -11.7803 C   0  0  1  0  0  0  0  0  0  0  0  0
   25.6396  -20.4532  -10.6439 C   0  0  0  0  0  0  0  0  0  0  0  0
   24.5347  -21.4690  -10.7011 C   0  0  0  0  0  0  0  0  0  0  0  0
   23.4410  -21.2196   -9.6982 C   0  0  0  0  0  0  0  0  0  0  0  0
   22.3973  -20.3941  -10.3552 O   0  0  0  0  0  0  0  0  0  0  0  0
   22.0466  -20.6023  -11.5477 C   0  0  0  0  0  0  0  0  0  0  0  0
   26.4445  -20.7536   -9.4062 O   0  0  0  0  0  0  0  0  0  0  0  0
   27.2530  -21.7198   -9.3879 O   0  0  0  0  0  0  0  0  0  0  0  0
   21.7580  -19.3566   -9.6932 C   0  0  0  0  0  0  0  0  0  0  0  0
   27.8919  -19.8535   -4.8338 C   0  0  1  0  0  0  0  0  0  0  0  0
   27.2703  -19.2742   -6.0814 C   0  0  0  0  0  0  0  0  0  0  0  0
   28.1584  -18.2464   -6.6995 C   0  0  1  0  0  0  0  0  0  0  0  0
   26.9438  -20.4131   -7.0173 N   0  0  0  0  0  0  0  0  0  0  0  0
   26.3270  -19.9755   -8.2336 C   0  0  0  0  0  0  0  0  0  0  0  0
   26.0753  -21.3784   -6.2731 O   0  0  0  0  0  0  0  0  0  0  0  0
   26.6631  -22.0842   -5.2359 O   0  0  0  0  0  0  0  0  0  0  0  0
  2  1  1  0
  2  4  1  0
  3  2  2  0
  5  4  1  0
  6  5  1  0
  7  6  1  0
  8  7  1  0
  8  9  1  6
 10 11  2  0
 10  8  1  0
 12 10  1  0
 13 12  1  0
 14 15  1  0
 13 14  1  1
 15 16  1  0
 16 17  2  0
 16 20  1  0
 18 13  1  0
 18 19  2  0
 22 21  1  1
 23 22  1  0
 24 22  1  0
 24 25  1  1
 25 18  1  0
 26 24  1  0
 27 26  1  0
 28 26  2  0
M  END
$$$$
