REV.pdb
     RDKit          3D

 28 27  0  0  1  0  0  0  0  0999 V2000
   27.1851  -16.1254  -19.1055 N   0  0  0  0  0  0  0  0  0  0  0  0
   27.5622  -17.4514  -19.4439 C   0  0  0  0  0  0  0  0  0  0  0  0
   28.6413  -17.6289  -20.1155 N   0  0  0  0  0  0  0  0  0  0  0  0
   26.7631  -18.5566  -19.0485 N   0  0  0  0  0  0  0  0  0  0  0  0
   26.5993  -18.9380  -17.6733 C   0  0  0  0  0  0  0  0  0  0  0  0
   27.5786  -18.2906  -16.7562 C   0  0  0  0  0  0  0  0  0  0  0  0
   27.4191  -18.5651  -15.3071 C   0  0  0  0  0  0  0  0  0  0  0  0
   27.7172  -19.9504  -14.8556 C   0  0  2  0  0  0  0  0  0  0  0  0
   28.2860  -20.7591  -15.8845 N   0  0  0  0  0  0  0  0  0  0  0  0
   26.5668  -20.5986  -14.1777 C   0  0  0  0  0  0  0  0  0  0  0  0
   25.9210  -21.4714  -14.8072 O   0  0  0  0  0  0  0  0  0  0  0  0
   28.8809  -18.5836  -20.4420 N   0  0  0  0  0  0  0  0  0  0  0  0
   26.1518  -20.2883  -12.8533 C   0  0  2  0  0  0  0  0  0  0  0  0
   25.0014  -20.9062  -12.2260 C   0  0  0  0  0  0  0  0  0  0  0  0
   24.9808  -20.7224  -10.7355 C   0  0  0  0  0  0  0  0  0  0  0  0
   26.2781  -21.0931  -10.0694 C   0  0  0  0  0  0  0  0  0  0  0  0
   26.1333  -20.8420   -8.6139 O   0  0  0  0  0  0  0  0  0  0  0  0
   25.0117  -20.5897   -8.0974 C   0  0  0  0  0  0  0  0  0  0  0  0
   23.7678  -20.2305  -12.7659 O   0  0  0  0  0  0  0  0  0  0  0  0
   23.8492  -19.1071  -13.3308 O   0  0  0  0  0  0  0  0  0  0  0  0
   27.2198  -20.8719   -7.7526 C   0  0  0  0  0  0  0  0  0  0  0  0
   22.0064  -22.1081  -15.1884 C   0  0  2  0  0  0  0  0  0  0  0  0
   21.7471  -20.6341  -14.9922 C   0  0  0  0  0  0  0  0  0  0  0  0
   20.6717  -20.1491  -15.9063 C   0  0  1  0  0  0  0  0  0  0  0  0
   21.4326  -20.4013  -13.5339 N   0  0  0  0  0  0  0  0  0  0  0  0
   22.4890  -20.8203  -12.6622 C   0  0  0  0  0  0  0  0  0  0  0  0
   20.1495  -21.1079  -13.2271 O   0  0  0  0  0  0  0  0  0  0  0  0
   18.9794  -20.5054  -13.6600 O   0  0  0  0  0  0  0  0  0  0  0  0
  2  1  1  0
  2  4  1  0
  3  2  2  0
  5  4  1  0
  6  5  1  0
  7  6  1  0
  8  7  1  0
  8  9  1  6
 10 11  2  0
 10  8  1  0
 12 10  1  0
 13 12  1  0
 14 15  1  0
 13 14  1  1
 15 16  1  0
 16 17  2  0
 16 20  1  0
 18 13  1  0
 18 19  2  0
 22 21  1  6
 23 22  1  0
 24 22  1  0
 24 25  1  6
 25 18  1  0
 26 24  1  0
 27 26  1  0
 28 26  2  0
M  END
$$$$
