REV.pdb
     RDKit          3D

 28 27  0  0  1  0  0  0  0  0999 V2000
   24.8691  -15.3544  -15.4317 N   0  0  0  0  0  0  0  0  0  0  0  0
   26.1935  -15.3021  -15.9399 C   0  0  0  0  0  0  0  0  0  0  0  0
   26.8283  -16.4044  -16.1104 N   0  0  0  0  0  0  0  0  0  0  0  0
   26.8025  -14.0579  -16.2523 N   0  0  0  0  0  0  0  0  0  0  0  0
   26.0393  -12.8738  -16.5331 C   0  0  0  0  0  0  0  0  0  0  0  0
   25.3407  -12.3199  -15.3395 C   0  0  0  0  0  0  0  0  0  0  0  0
   24.6679  -11.0085  -15.5082 C   0  0  0  0  0  0  0  0  0  0  0  0
   23.1886  -11.0341  -15.6582 C   0  0  2  0  0  0  0  0  0  0  0  0
   22.7209  -12.1911  -16.3502 N   0  0  0  0  0  0  0  0  0  0  0  0
   22.6404   -9.7688  -16.2072 C   0  0  0  0  0  0  0  0  0  0  0  0
   22.7059   -9.5809  -17.4463 O   0  0  0  0  0  0  0  0  0  0  0  0
   27.7968  -16.3767  -16.4801 N   0  0  0  0  0  0  0  0  0  0  0  0
   22.0434   -8.7535  -15.4099 C   0  0  1  0  0  0  0  0  0  0  0  0
   21.4559   -7.5558  -15.9745 C   0  0  0  0  0  0  0  0  0  0  0  0
   20.3317   -7.0092  -15.1419 C   0  0  0  0  0  0  0  0  0  0  0  0
   19.7521   -5.7312  -15.6851 C   0  0  0  0  0  0  0  0  0  0  0  0
   18.6960   -5.2734  -14.7484 O   0  0  0  0  0  0  0  0  0  0  0  0
   18.4664   -5.8793  -13.6675 C   0  0  0  0  0  0  0  0  0  0  0  0
   22.5258   -6.4956  -16.0126 O   0  0  0  0  0  0  0  0  0  0  0  0
   23.3969   -6.4330  -15.1045 O   0  0  0  0  0  0  0  0  0  0  0  0
   17.9118   -4.1608  -15.0141 C   0  0  0  0  0  0  0  0  0  0  0  0
   25.4501   -3.4307  -18.2378 C   0  0  2  0  0  0  0  0  0  0  0  0
   24.3599   -4.4661  -18.3709 C   0  0  0  0  0  0  0  0  0  0  0  0
   24.9131   -5.7774  -18.8200 C   0  0  1  0  0  0  0  0  0  0  0  0
   23.6296   -4.5532  -17.0523 N   0  0  0  0  0  0  0  0  0  0  0  0
   22.5945   -5.5430  -17.0528 C   0  0  0  0  0  0  0  0  0  0  0  0
   23.0927   -3.1918  -16.7391 O   0  0  0  0  0  0  0  0  0  0  0  0
   24.0112   -2.2214  -16.3727 O   0  0  0  0  0  0  0  0  0  0  0  0
  2  1  1  0
  2  4  1  0
  3  2  2  0
  5  4  1  0
  6  5  1  0
  7  6  1  0
  8  7  1  0
  8  9  1  6
 10 11  2  0
 10  8  1  0
 12 10  1  0
 13 12  1  0
 14 15  1  0
 13 14  1  6
 15 16  1  0
 16 17  2  0
 16 20  1  0
 18 13  1  0
 18 19  2  0
 22 21  1  6
 23 22  1  0
 24 22  1  0
 24 25  1  6
 25 18  1  0
 26 24  1  0
 27 26  1  0
 28 26  2  0
M  END
$$$$
