REV.pdb
     RDKit          3D

 28 27  0  0  1  0  0  0  0  0999 V2000
   29.2791  -22.3536  -16.0298 N   0  0  0  0  0  0  0  0  0  0  0  0
   27.9550  -22.6675  -16.4338 C   0  0  0  0  0  0  0  0  0  0  0  0
   27.5111  -23.8510  -16.2119 N   0  0  0  0  0  0  0  0  0  0  0  0
   27.1399  -21.6938  -17.0694 N   0  0  0  0  0  0  0  0  0  0  0  0
   27.5323  -20.3170  -17.1881 C   0  0  0  0  0  0  0  0  0  0  0  0
   27.5141  -19.5800  -15.8935 C   0  0  0  0  0  0  0  0  0  0  0  0
   26.3900  -18.6364  -15.6778 C   0  0  0  0  0  0  0  0  0  0  0  0
   25.1486  -18.8914  -16.4561 C   0  0  2  0  0  0  0  0  0  0  0  0
   25.1406  -18.2301  -17.7205 N   0  0  0  0  0  0  0  0  0  0  0  0
   23.9128  -18.6532  -15.6692 C   0  0  0  0  0  0  0  0  0  0  0  0
   23.8885  -17.6760  -14.8822 O   0  0  0  0  0  0  0  0  0  0  0  0
   26.5505  -24.0949  -16.5173 N   0  0  0  0  0  0  0  0  0  0  0  0
   22.7511  -19.4693  -15.7544 C   0  0  2  0  0  0  0  0  0  0  0  0
   21.5472  -19.2031  -14.9941 C   0  0  0  0  0  0  0  0  0  0  0  0
   20.2926  -19.4690  -15.7759 C   0  0  0  0  0  0  0  0  0  0  0  0
   20.1717  -18.6266  -17.0168 C   0  0  0  0  0  0  0  0  0  0  0  0
   18.9148  -19.0078  -17.7078 O   0  0  0  0  0  0  0  0  0  0  0  0
   17.8373  -18.3863  -17.5056 C   0  0  0  0  0  0  0  0  0  0  0  0
   21.5336  -20.1414  -13.8153 O   0  0  0  0  0  0  0  0  0  0  0  0
   22.5197  -20.8904  -13.5827 O   0  0  0  0  0  0  0  0  0  0  0  0
   18.8629  -20.0625  -18.6069 C   0  0  0  0  0  0  0  0  0  0  0  0
   22.9061  -20.5522  -11.6044 C   0  0  2  0  0  0  0  0  0  0  0  0
   21.6162  -20.5874  -10.8212 C   0  0  0  0  0  0  0  0  0  0  0  0
   21.3460  -19.2733  -10.1674 C   0  0  2  0  0  0  0  0  0  0  0  0
   20.5109  -21.0219  -11.7535 N   0  0  0  0  0  0  0  0  0  0  0  0
   20.4311  -20.2181  -12.9363 C   0  0  0  0  0  0  0  0  0  0  0  0
   19.2291  -20.9981  -10.9813 O   0  0  0  0  0  0  0  0  0  0  0  0
   19.1078  -21.8970   -9.9340 O   0  0  0  0  0  0  0  0  0  0  0  0
  2  1  1  0
  2  4  1  0
  3  2  2  0
  5  4  1  0
  6  5  1  0
  7  6  1  0
  8  7  1  0
  8  9  1  6
 10 11  2  0
 10  8  1  0
 12 10  1  0
 13 12  1  0
 14 15  1  0
 13 14  1  6
 15 16  1  0
 16 17  2  0
 16 20  1  0
 18 13  1  0
 18 19  2  0
 22 21  1  1
 23 22  1  0
 24 22  1  0
 24 25  1  1
 25 18  1  0
 26 24  1  0
 27 26  1  0
 28 26  2  0
M  END
$$$$
