REV.pdb
     RDKit          3D

 28 27  0  0  1  0  0  0  0  0999 V2000
   19.2333  -19.4210  -14.4619 N   0  0  0  0  0  0  0  0  0  0  0  0
   18.4624  -19.8038  -15.5906 C   0  0  0  0  0  0  0  0  0  0  0  0
   17.7286  -20.8531  -15.5041 N   0  0  0  0  0  0  0  0  0  0  0  0
   18.5025  -19.0429  -16.7889 N   0  0  0  0  0  0  0  0  0  0  0  0
   19.1898  -17.7849  -16.8820 C   0  0  0  0  0  0  0  0  0  0  0  0
   18.5493  -16.6977  -16.0900 C   0  0  0  0  0  0  0  0  0  0  0  0
   19.1292  -15.3394  -16.2295 C   0  0  0  0  0  0  0  0  0  0  0  0
   18.8791  -14.6382  -17.5170 C   0  0  2  0  0  0  0  0  0  0  0  0
   19.3536  -15.3680  -18.6476 N   0  0  0  0  0  0  0  0  0  0  0  0
   19.3354  -13.2258  -17.5051 C   0  0  0  0  0  0  0  0  0  0  0  0
   20.3491  -12.9231  -18.1802 O   0  0  0  0  0  0  0  0  0  0  0  0
   17.2191  -21.1831  -16.3450 N   0  0  0  0  0  0  0  0  0  0  0  0
   18.6901  -12.1921  -16.7717 C   0  0  1  0  0  0  0  0  0  0  0  0
   19.0690  -10.7982  -16.8806 C   0  0  0  0  0  0  0  0  0  0  0  0
   17.8862   -9.8788  -16.9877 C   0  0  0  0  0  0  0  0  0  0  0  0
   18.2665   -8.4322  -17.1517 C   0  0  0  0  0  0  0  0  0  0  0  0
   17.0186   -7.6288  -17.1563 O   0  0  0  0  0  0  0  0  0  0  0  0
   16.0666   -7.8952  -17.9380 C   0  0  0  0  0  0  0  0  0  0  0  0
   19.8002  -10.4228  -15.6179 O   0  0  0  0  0  0  0  0  0  0  0  0
   19.3735  -10.8025  -14.4948 O   0  0  0  0  0  0  0  0  0  0  0  0
   16.8380   -6.5494  -16.3046 C   0  0  0  0  0  0  0  0  0  0  0  0
   23.0503  -11.3666  -14.5283 C   0  0  2  0  0  0  0  0  0  0  0  0
   23.0906   -9.8617  -14.4188 C   0  0  0  0  0  0  0  0  0  0  0  0
   23.9288   -9.2644  -15.4995 C   0  0  2  0  0  0  0  0  0  0  0  0
   21.6697   -9.3511  -14.4226 N   0  0  0  0  0  0  0  0  0  0  0  0
   20.9763   -9.6416  -15.6417 C   0  0  0  0  0  0  0  0  0  0  0  0
   21.7143   -7.8804  -14.1489 O   0  0  0  0  0  0  0  0  0  0  0  0
   22.0462   -7.4890  -12.8619 O   0  0  0  0  0  0  0  0  0  0  0  0
  2  1  1  0
  2  4  1  0
  3  2  2  0
  5  4  1  0
  6  5  1  0
  7  6  1  0
  8  7  1  0
  8  9  1  6
 10 11  2  0
 10  8  1  0
 12 10  1  0
 13 12  1  0
 14 15  1  0
 13 14  1  6
 15 16  1  0
 16 17  2  0
 16 20  1  0
 18 13  1  0
 18 19  2  0
 22 21  1  1
 23 22  1  0
 24 22  1  0
 24 25  1  1
 25 18  1  0
 26 24  1  0
 27 26  1  0
 28 26  2  0
M  END
$$$$
