REV.pdb
     RDKit          3D

 28 27  0  0  1  0  0  0  0  0999 V2000
   17.7674  -15.0877  -14.2544 N   0  0  0  0  0  0  0  0  0  0  0  0
   16.9516  -15.3548  -15.3849 C   0  0  0  0  0  0  0  0  0  0  0  0
   16.7170  -16.5776  -15.6960 N   0  0  0  0  0  0  0  0  0  0  0  0
   16.4076  -14.2928  -16.1547 N   0  0  0  0  0  0  0  0  0  0  0  0
   16.5478  -12.9142  -15.7759 C   0  0  0  0  0  0  0  0  0  0  0  0
   15.9717  -11.9637  -16.7679 C   0  0  0  0  0  0  0  0  0  0  0  0
   16.2287  -10.5209  -16.5377 C   0  0  0  0  0  0  0  0  0  0  0  0
   17.3773   -9.9245  -17.2704 C   0  0  2  0  0  0  0  0  0  0  0  0
   18.4833  -10.8182  -17.3905 N   0  0  0  0  0  0  0  0  0  0  0  0
   17.7646   -8.5890  -16.7512 C   0  0  0  0  0  0  0  0  0  0  0  0
   16.8595   -7.7416  -16.5571 O   0  0  0  0  0  0  0  0  0  0  0  0
   16.0859  -16.7832  -16.4928 N   0  0  0  0  0  0  0  0  0  0  0  0
   19.1045   -8.2116  -16.4600 C   0  0  1  0  0  0  0  0  0  0  0  0
   19.4520   -6.9248  -15.8927 C   0  0  0  0  0  0  0  0  0  0  0  0
   20.5950   -7.0048  -14.9216 C   0  0  0  0  0  0  0  0  0  0  0  0
   20.9083   -5.6913  -14.2576 C   0  0  0  0  0  0  0  0  0  0  0  0
   22.0643   -5.9013  -13.3510 O   0  0  0  0  0  0  0  0  0  0  0  0
   22.4623   -7.0581  -13.0481 C   0  0  0  0  0  0  0  0  0  0  0  0
   19.9005   -6.0332  -17.0215 O   0  0  0  0  0  0  0  0  0  0  0  0
   20.6284   -6.4869  -17.9444 O   0  0  0  0  0  0  0  0  0  0  0  0
   22.7619   -4.8400  -12.7937 C   0  0  0  0  0  0  0  0  0  0  0  0
   19.5706   -2.1453  -19.8504 C   0  0  2  0  0  0  0  0  0  0  0  0
   18.9273   -3.0557  -18.8327 C   0  0  0  0  0  0  0  0  0  0  0  0
   17.8859   -3.9190  -19.4630 C   0  0  1  0  0  0  0  0  0  0  0  0
   20.0184   -3.8471  -18.1524 N   0  0  0  0  0  0  0  0  0  0  0  0
   19.5283   -4.6727  -17.0897 C   0  0  0  0  0  0  0  0  0  0  0  0
   21.0495   -2.8765  -17.6680 O   0  0  0  0  0  0  0  0  0  0  0  0
   22.1014   -2.5950  -18.5247 O   0  0  0  0  0  0  0  0  0  0  0  0
  2  1  1  0
  2  4  1  0
  3  2  2  0
  5  4  1  0
  6  5  1  0
  7  6  1  0
  8  7  1  0
  8  9  1  1
 10 11  2  0
 10  8  1  0
 12 10  1  0
 13 12  1  0
 14 15  1  0
 13 14  1  1
 15 16  1  0
 16 17  2  0
 16 20  1  0
 18 13  1  0
 18 19  2  0
 22 21  1  1
 23 22  1  0
 24 22  1  0
 24 25  1  1
 25 18  1  0
 26 24  1  0
 27 26  1  0
 28 26  2  0
M  END
$$$$
