REV.pdb
     RDKit          3D

 28 27  0  0  1  0  0  0  0  0999 V2000
   31.7490  -21.7078   -8.5045 N   0  0  0  0  0  0  0  0  0  0  0  0
   31.5888  -21.7813   -9.9130 C   0  0  0  0  0  0  0  0  0  0  0  0
   32.3649  -22.5573  -10.5782 N   0  0  0  0  0  0  0  0  0  0  0  0
   30.5922  -21.0133  -10.5713 N   0  0  0  0  0  0  0  0  0  0  0  0
   29.1881  -21.2721  -10.4130 C   0  0  0  0  0  0  0  0  0  0  0  0
   28.4391  -21.2951  -11.7006 C   0  0  0  0  0  0  0  0  0  0  0  0
   27.3371  -20.3132  -11.8497 C   0  0  0  0  0  0  0  0  0  0  0  0
   25.9535  -20.8390  -11.7053 C   0  0  2  0  0  0  0  0  0  0  0  0
   25.8949  -22.2643  -11.7402 N   0  0  0  0  0  0  0  0  0  0  0  0
   24.9901  -20.1960  -12.6335 C   0  0  0  0  0  0  0  0  0  0  0  0
   24.9522  -18.9424  -12.6761 O   0  0  0  0  0  0  0  0  0  0  0  0
   32.3011  -22.5681  -11.6133 N   0  0  0  0  0  0  0  0  0  0  0  0
   24.1046  -20.9187  -13.4799 C   0  0  1  0  0  0  0  0  0  0  0  0
   23.1908  -20.2693  -14.3975 C   0  0  0  0  0  0  0  0  0  0  0  0
   23.2712  -20.8239  -15.7910 C   0  0  0  0  0  0  0  0  0  0  0  0
   24.6726  -20.8672  -16.3372 C   0  0  0  0  0  0  0  0  0  0  0  0
   24.6197  -21.4890  -17.6837 O   0  0  0  0  0  0  0  0  0  0  0  0
   23.5420  -21.9343  -18.1619 C   0  0  0  0  0  0  0  0  0  0  0  0
   21.7898  -20.5258  -13.9062 O   0  0  0  0  0  0  0  0  0  0  0  0
   21.4927  -21.6244  -13.3654 O   0  0  0  0  0  0  0  0  0  0  0  0
   25.7485  -21.6111  -18.4802 C   0  0  0  0  0  0  0  0  0  0  0  0
   19.8072  -18.4017  -11.5165 C   0  0  2  0  0  0  0  0  0  0  0  0
   18.9156  -18.6412  -12.7107 C   0  0  0  0  0  0  0  0  0  0  0  0
   18.7806  -17.4073  -13.5393 C   0  0  2  0  0  0  0  0  0  0  0  0
   19.4687  -19.8144  -13.4836 N   0  0  0  0  0  0  0  0  0  0  0  0
   20.7678  -19.5593  -14.0300 C   0  0  0  0  0  0  0  0  0  0  0  0
   18.4788  -20.1633  -14.5505 O   0  0  0  0  0  0  0  0  0  0  0  0
   17.2553  -20.6634  -14.1354 O   0  0  0  0  0  0  0  0  0  0  0  0
  2  1  1  0
  2  4  1  0
  3  2  2  0
  5  4  1  0
  6  5  1  0
  7  6  1  0
  8  7  1  0
  8  9  1  6
 10 11  2  0
 10  8  1  0
 12 10  1  0
 13 12  1  0
 14 15  1  0
 13 14  1  6
 15 16  1  0
 16 17  2  0
 16 20  1  0
 18 13  1  0
 18 19  2  0
 22 21  1  1
 23 22  1  0
 24 22  1  0
 24 25  1  1
 25 18  1  0
 26 24  1  0
 27 26  1  0
 28 26  2  0
M  END
$$$$
