REV.pdb
     RDKit          3D

 28 27  0  0  1  0  0  0  0  0999 V2000
   28.4537  -21.7190  -10.6034 N   0  0  0  0  0  0  0  0  0  0  0  0
   29.6698  -21.6679  -11.3336 C   0  0  0  0  0  0  0  0  0  0  0  0
   30.4724  -22.6665  -11.2578 N   0  0  0  0  0  0  0  0  0  0  0  0
   29.9914  -20.5370  -12.1299 N   0  0  0  0  0  0  0  0  0  0  0  0
   29.0421  -19.9206  -13.0144 C   0  0  0  0  0  0  0  0  0  0  0  0
   27.6708  -19.8237  -12.4404 C   0  0  0  0  0  0  0  0  0  0  0  0
   26.6304  -19.2038  -13.2972 C   0  0  0  0  0  0  0  0  0  0  0  0
   26.4149  -19.8201  -14.6334 C   0  0  2  0  0  0  0  0  0  0  0  0
   27.3676  -19.3881  -15.6040 N   0  0  0  0  0  0  0  0  0  0  0  0
   25.0125  -19.7034  -15.1054 C   0  0  0  0  0  0  0  0  0  0  0  0
   24.6640  -18.6415  -15.6762 O   0  0  0  0  0  0  0  0  0  0  0  0
   31.3714  -22.6314  -11.7737 N   0  0  0  0  0  0  0  0  0  0  0  0
   24.0373  -20.7267  -14.9485 C   0  0  2  0  0  0  0  0  0  0  0  0
   22.6152  -20.4824  -15.0770 C   0  0  0  0  0  0  0  0  0  0  0  0
   21.9957  -21.2316  -16.2219 C   0  0  0  0  0  0  0  0  0  0  0  0
   20.5314  -20.9381  -16.4058 C   0  0  0  0  0  0  0  0  0  0  0  0
   20.0315  -21.7837  -17.5182 O   0  0  0  0  0  0  0  0  0  0  0  0
   20.4977  -22.9350  -17.7314 C   0  0  0  0  0  0  0  0  0  0  0  0
   21.9501  -20.9793  -13.8198 O   0  0  0  0  0  0  0  0  0  0  0  0
   22.3574  -22.0280  -13.2523 O   0  0  0  0  0  0  0  0  0  0  0  0
   19.0306  -21.3517  -18.3755 C   0  0  0  0  0  0  0  0  0  0  0  0
   19.5320  -20.2287   -9.7346 C   0  0  2  0  0  0  0  0  0  0  0  0
   20.1702  -19.6485  -10.9733 C   0  0  0  0  0  0  0  0  0  0  0  0
   21.4649  -18.9800  -10.6506 C   0  0  1  0  0  0  0  0  0  0  0  0
   20.3137  -20.7544  -11.9912 N   0  0  0  0  0  0  0  0  0  0  0  0
   20.8592  -20.2997  -13.2350 C   0  0  0  0  0  0  0  0  0  0  0  0
   18.9671  -21.3813  -12.1743 O   0  0  0  0  0  0  0  0  0  0  0  0
   18.5185  -22.2165  -11.1640 O   0  0  0  0  0  0  0  0  0  0  0  0
  2  1  1  0
  2  4  1  0
  3  2  2  0
  5  4  1  0
  6  5  1  0
  7  6  1  0
  8  7  1  0
  8  9  1  6
 10 11  2  0
 10  8  1  0
 12 10  1  0
 13 12  1  0
 14 15  1  0
 13 14  1  6
 15 16  1  0
 16 17  2  0
 16 20  1  0
 18 13  1  0
 18 19  2  0
 22 21  1  1
 23 22  1  0
 24 22  1  0
 24 25  1  6
 25 18  1  0
 26 24  1  0
 27 26  1  0
 28 26  2  0
M  END
$$$$
