REV.pdb
     RDKit          3D

 28 27  0  0  1  0  0  0  0  0999 V2000
   31.5840  -21.6954   -9.4203 N   0  0  0  0  0  0  0  0  0  0  0  0
   30.3879  -21.3332   -8.7473 C   0  0  0  0  0  0  0  0  0  0  0  0
   30.4787  -20.6982   -7.6357 N   0  0  0  0  0  0  0  0  0  0  0  0
   29.1193  -21.6664   -9.2914 N   0  0  0  0  0  0  0  0  0  0  0  0
   28.9303  -21.9618  -10.6845 C   0  0  0  0  0  0  0  0  0  0  0  0
   28.9065  -20.7502  -11.5511 C   0  0  0  0  0  0  0  0  0  0  0  0
   27.7398  -20.5983  -12.4547 C   0  0  0  0  0  0  0  0  0  0  0  0
   26.5014  -21.3267  -12.0706 C   0  0  2  0  0  0  0  0  0  0  0  0
   26.7650  -22.6126  -11.5108 N   0  0  0  0  0  0  0  0  0  0  0  0
   25.4907  -21.3632  -13.1569 C   0  0  0  0  0  0  0  0  0  0  0  0
   25.8955  -21.3931  -14.3444 O   0  0  0  0  0  0  0  0  0  0  0  0
   29.6128  -20.4739   -7.1107 N   0  0  0  0  0  0  0  0  0  0  0  0
   24.0865  -21.3664  -12.9312 C   0  0  2  0  0  0  0  0  0  0  0  0
   23.1195  -21.4996  -14.0016 C   0  0  0  0  0  0  0  0  0  0  0  0
   21.9431  -22.3527  -13.6222 C   0  0  0  0  0  0  0  0  0  0  0  0
   21.2832  -21.9248  -12.3394 C   0  0  0  0  0  0  0  0  0  0  0  0
   20.0780  -22.7679  -12.1414 O   0  0  0  0  0  0  0  0  0  0  0  0
   19.2810  -22.5639  -11.1868 C   0  0  0  0  0  0  0  0  0  0  0  0
   22.5817  -20.1255  -14.3060 O   0  0  0  0  0  0  0  0  0  0  0  0
   22.5259  -19.2464  -13.4051 O   0  0  0  0  0  0  0  0  0  0  0  0
   19.7695  -23.8181  -12.9931 C   0  0  0  0  0  0  0  0  0  0  0  0
   21.4926  -16.5372  -17.3692 C   0  0  2  0  0  0  0  0  0  0  0  0
   22.1250  -17.8932  -17.1703 C   0  0  0  0  0  0  0  0  0  0  0  0
   23.6121  -17.8145  -17.2681 C   0  0  1  0  0  0  0  0  0  0  0  0
   21.6481  -18.4460  -15.8487 N   0  0  0  0  0  0  0  0  0  0  0  0
   22.1250  -19.7725  -15.5948 C   0  0  0  0  0  0  0  0  0  0  0  0
   20.1527  -18.3857  -15.8437 O   0  0  0  0  0  0  0  0  0  0  0  0
   19.5713  -17.2081  -15.4023 O   0  0  0  0  0  0  0  0  0  0  0  0
  2  1  1  0
  2  4  1  0
  3  2  2  0
  5  4  1  0
  6  5  1  0
  7  6  1  0
  8  7  1  0
  8  9  1  6
 10 11  2  0
 10  8  1  0
 12 10  1  0
 13 12  1  0
 14 15  1  0
 13 14  1  6
 15 16  1  0
 16 17  2  0
 16 20  1  0
 18 13  1  0
 18 19  2  0
 22 21  1  6
 23 22  1  0
 24 22  1  0
 24 25  1  6
 25 18  1  0
 26 24  1  0
 27 26  1  0
 28 26  2  0
M  END
$$$$
