REV.pdb
     RDKit          3D

 28 27  0  0  1  0  0  0  0  0999 V2000
   31.6113  -24.6902  -15.2148 N   0  0  0  0  0  0  0  0  0  0  0  0
   31.5492  -25.1669  -16.5504 C   0  0  0  0  0  0  0  0  0  0  0  0
   32.6092  -25.6687  -17.0717 N   0  0  0  0  0  0  0  0  0  0  0  0
   30.3414  -25.0901  -17.2932 N   0  0  0  0  0  0  0  0  0  0  0  0
   29.6000  -23.8682  -17.4371 C   0  0  0  0  0  0  0  0  0  0  0  0
   30.0302  -22.7975  -16.4948 C   0  0  0  0  0  0  0  0  0  0  0  0
   28.9894  -22.2411  -15.5959 C   0  0  0  0  0  0  0  0  0  0  0  0
   27.7709  -21.6922  -16.2485 C   0  0  2  0  0  0  0  0  0  0  0  0
   28.0515  -21.0323  -17.4822 N   0  0  0  0  0  0  0  0  0  0  0  0
   26.9403  -20.8747  -15.3293 C   0  0  0  0  0  0  0  0  0  0  0  0
   27.2615  -19.6754  -15.1461 O   0  0  0  0  0  0  0  0  0  0  0  0
   32.5602  -26.0704  -18.0266 N   0  0  0  0  0  0  0  0  0  0  0  0
   25.7987  -21.3713  -14.6418 C   0  0  2  0  0  0  0  0  0  0  0  0
   25.0132  -20.5591  -13.7353 C   0  0  0  0  0  0  0  0  0  0  0  0
   23.5412  -20.6151  -14.0283 C   0  0  0  0  0  0  0  0  0  0  0  0
   23.1790  -20.0602  -15.3792 C   0  0  0  0  0  0  0  0  0  0  0  0
   21.7068  -20.1628  -15.5363 O   0  0  0  0  0  0  0  0  0  0  0  0
   20.9882  -20.7178  -14.6623 C   0  0  0  0  0  0  0  0  0  0  0  0
   25.2026  -21.1103  -12.3459 O   0  0  0  0  0  0  0  0  0  0  0  0
   25.2083  -22.3545  -12.1468 O   0  0  0  0  0  0  0  0  0  0  0  0
   21.0505  -19.6555  -16.6477 C   0  0  0  0  0  0  0  0  0  0  0  0
   26.2306  -20.6387   -7.6005 C   0  0  2  0  0  0  0  0  0  0  0  0
   26.1306  -19.9123   -8.9199 C   0  0  0  0  0  0  0  0  0  0  0  0
   27.4704  -19.4435   -9.3806 C   0  0  1  0  0  0  0  0  0  0  0  0
   25.4517  -20.8271   -9.9108 N   0  0  0  0  0  0  0  0  0  0  0  0
   25.3789  -20.2671  -11.2270 C   0  0  0  0  0  0  0  0  0  0  0  0
   24.0937  -21.1528   -9.3726 O   0  0  0  0  0  0  0  0  0  0  0  0
   23.0100  -20.5504   -9.9909 O   0  0  0  0  0  0  0  0  0  0  0  0
  2  1  1  0
  2  4  1  0
  3  2  2  0
  5  4  1  0
  6  5  1  0
  7  6  1  0
  8  7  1  0
  8  9  1  6
 10 11  2  0
 10  8  1  0
 12 10  1  0
 13 12  1  0
 14 15  1  0
 13 14  1  6
 15 16  1  0
 16 17  2  0
 16 20  1  0
 18 13  1  0
 18 19  2  0
 22 21  1  1
 23 22  1  0
 24 22  1  0
 24 25  1  1
 25 18  1  0
 26 24  1  0
 27 26  1  0
 28 26  2  0
M  END
$$$$
