REV.pdb
     RDKit          3D

 28 27  0  0  1  0  0  0  0  0999 V2000
   29.1835  -21.4571  -10.2874 N   0  0  0  0  0  0  0  0  0  0  0  0
   28.2586  -21.4209   -9.2112 C   0  0  0  0  0  0  0  0  0  0  0  0
   28.5836  -21.9843   -8.1049 N   0  0  0  0  0  0  0  0  0  0  0  0
   27.0017  -20.7761   -9.3557 N   0  0  0  0  0  0  0  0  0  0  0  0
   26.2691  -20.7807  -10.5913 C   0  0  0  0  0  0  0  0  0  0  0  0
   26.7121  -19.7289  -11.5489 C   0  0  0  0  0  0  0  0  0  0  0  0
   25.8921  -19.5514  -12.7723 C   0  0  0  0  0  0  0  0  0  0  0  0
   25.0170  -20.6904  -13.1578 C   0  0  2  0  0  0  0  0  0  0  0  0
   25.7292  -21.9209  -13.2799 N   0  0  0  0  0  0  0  0  0  0  0  0
   24.1661  -20.3934  -14.3372 C   0  0  0  0  0  0  0  0  0  0  0  0
   24.6044  -20.6882  -15.4756 O   0  0  0  0  0  0  0  0  0  0  0  0
   27.9208  -21.9506   -7.3079 N   0  0  0  0  0  0  0  0  0  0  0  0
   22.8797  -19.7926  -14.2534 C   0  0  2  0  0  0  0  0  0  0  0  0
   22.2010  -19.2271  -15.4014 C   0  0  0  0  0  0  0  0  0  0  0  0
   20.7251  -19.0566  -15.1811 C   0  0  0  0  0  0  0  0  0  0  0  0
   19.9597  -20.3511  -15.2320 C   0  0  0  0  0  0  0  0  0  0  0  0
   18.5255  -20.0437  -15.0059 O   0  0  0  0  0  0  0  0  0  0  0  0
   18.0012  -20.1490  -13.8647 C   0  0  0  0  0  0  0  0  0  0  0  0
   22.7686  -17.8514  -15.6367 O   0  0  0  0  0  0  0  0  0  0  0  0
   23.0061  -17.0830  -14.6668 O   0  0  0  0  0  0  0  0  0  0  0  0
   17.6936  -19.6269  -16.0343 C   0  0  0  0  0  0  0  0  0  0  0  0
   26.2636  -15.4473  -16.8920 C   0  0  2  0  0  0  0  0  0  0  0  0
   25.3740  -16.6400  -16.6381 C   0  0  0  0  0  0  0  0  0  0  0  0
   25.4143  -17.0473  -15.2029 C   0  0  1  0  0  0  0  0  0  0  0  0
   23.9830  -16.3005  -17.1172 N   0  0  0  0  0  0  0  0  0  0  0  0
   23.0532  -17.3745  -16.9350 C   0  0  0  0  0  0  0  0  0  0  0  0
   24.0836  -15.8940  -18.5540 O   0  0  0  0  0  0  0  0  0  0  0  0
   24.5104  -14.6019  -18.8147 O   0  0  0  0  0  0  0  0  0  0  0  0
  2  1  1  0
  2  4  1  0
  3  2  2  0
  5  4  1  0
  6  5  1  0
  7  6  1  0
  8  7  1  0
  8  9  1  6
 10 11  2  0
 10  8  1  0
 12 10  1  0
 13 12  1  0
 14 15  1  0
 13 14  1  6
 15 16  1  0
 16 17  2  0
 16 20  1  0
 18 13  1  0
 18 19  2  0
 22 21  1  6
 23 22  1  0
 24 22  1  0
 24 25  1  6
 25 18  1  0
 26 24  1  0
 27 26  1  0
 28 26  2  0
M  END
$$$$
