NAF.pdb
     RDKit          3D

 25 25  0  0  1  0  0  0  0  0999 V2000
   28.7928  -18.1207  -14.8116 N   0  0  0  0  0  0  0  0  0  0  0  0
   27.6330  -18.1808  -15.6186 C   0  0  0  0  0  0  0  0  0  0  0  0
   27.4040  -17.2610  -16.4428 O   0  0  0  0  0  0  0  0  0  0  0  0
   26.7289  -19.3547  -15.4436 C   0  0  0  0  0  0  0  0  0  0  0  0
   27.3778  -20.2394  -14.3959 C   0  0  2  0  0  0  0  0  0  0  0  0
   28.3137  -21.1073  -15.0878 N   0  0  0  0  0  0  0  0  0  0  0  0
   26.3436  -20.9870  -13.6742 C   0  0  0  0  0  0  0  0  0  0  0  0
   25.6056  -21.8662  -14.1947 O   0  0  0  0  0  0  0  0  0  0  0  0
   25.1648  -20.9623  -10.0617 C   0  0  0  0  0  0  0  0  0  0  0  0
   25.0443  -21.2564  -11.5364 C   0  0  2  0  0  0  0  0  0  0  0  0
   26.1493  -20.7119  -12.2934 N   0  0  0  0  0  0  0  0  0  0  0  0
   23.7701  -20.6931  -12.0368 C   0  0  0  0  0  0  0  0  0  0  0  0
   23.6059  -19.4577  -12.2169 O   0  0  0  0  0  0  0  0  0  0  0  0
   22.6619  -21.5297  -12.3401 N   0  0  0  0  0  0  0  0  0  0  0  0
   21.4271  -21.0156  -12.8991 C   0  0  1  0  0  0  0  0  0  0  0  0
   21.2288  -21.4806  -14.3267 C   0  0  0  0  0  0  0  0  0  0  0  0
   22.0699  -20.7568  -15.2808 C   0  0  0  0  0  0  0  0  0  0  0  0
   21.7644  -19.5047  -15.7709 C   0  0  0  0  0  0  0  0  0  0  0  0
   22.5846  -18.8502  -16.6696 C   0  0  0  0  0  0  0  0  0  0  0  0
   23.7337  -19.4314  -17.1027 C   0  0  0  0  0  0  0  0  0  0  0  0
   24.0665  -20.6871  -16.6285 C   0  0  0  0  0  0  0  0  0  0  0  0
   23.2360  -21.3399  -15.7240 C   0  0  0  0  0  0  0  0  0  0  0  0
   20.2693  -21.4944  -12.1045 C   0  0  0  0  0  0  0  0  0  0  0  0
   19.0775  -20.8294  -12.0083 O   0  0  0  0  0  0  0  0  0  0  0  0
   20.3743  -22.5918  -11.4652 O   0  0  0  0  0  0  0  0  0  0  0  0
  1  2  1  0
  2  3  2  0
  4  5  1  0
  4  2  1  0
  5  7  1  0
  5  6  1  6
  7  8  2  0
 10  9  1  1
 11 10  1  0
 11  7  1  0
 12 10  1  0
 13 12  2  0
 14 12  1  0
 15 14  1  0
 15 23  1  0
 15 16  1  6
 17 16  1  0
 18 17  2  0
 19 18  1  0
 20 21  1  0
 20 19  2  0
 21 22  2  0
 22 17  1  0
 23 24  1  0
 25 23  2  0
M  END
$$$$
