NAF.pdb
     RDKit          3D

 25 25  0  0  1  0  0  0  0  0999 V2000
   21.1495   -3.2756  -16.9687 N   0  0  0  0  0  0  0  0  0  0  0  0
   22.5478   -3.4262  -16.8208 C   0  0  0  0  0  0  0  0  0  0  0  0
   23.3220   -2.6360  -17.4158 O   0  0  0  0  0  0  0  0  0  0  0  0
   23.0356   -4.5355  -15.9502 C   0  0  0  0  0  0  0  0  0  0  0  0
   21.7988   -5.2158  -15.3946 C   0  0  2  0  0  0  0  0  0  0  0  0
   21.3617   -4.4403  -14.2476 N   0  0  0  0  0  0  0  0  0  0  0  0
   22.1149   -6.6049  -15.0484 C   0  0  0  0  0  0  0  0  0  0  0  0
   22.6884   -6.9613  -13.9842 O   0  0  0  0  0  0  0  0  0  0  0  0
   21.0183   -9.9337  -16.3632 C   0  0  0  0  0  0  0  0  0  0  0  0
   22.0428   -9.0263  -15.7284 C   0  0  2  0  0  0  0  0  0  0  0  0
   21.7559   -7.6293  -15.9660 N   0  0  0  0  0  0  0  0  0  0  0  0
   23.3806   -9.3604  -16.2668 C   0  0  0  0  0  0  0  0  0  0  0  0
   23.8641   -8.7798  -17.2742 O   0  0  0  0  0  0  0  0  0  0  0  0
   24.1894  -10.3620  -15.6647 N   0  0  0  0  0  0  0  0  0  0  0  0
   25.4601  -10.7786  -16.2247 C   0  0  1  0  0  0  0  0  0  0  0  0
   26.4763  -11.0673  -15.1396 C   0  0  0  0  0  0  0  0  0  0  0  0
   27.7231  -11.6253  -15.6644 C   0  0  0  0  0  0  0  0  0  0  0  0
   28.0682  -12.9561  -15.5578 C   0  0  0  0  0  0  0  0  0  0  0  0
   29.2541  -13.4480  -16.0681 C   0  0  0  0  0  0  0  0  0  0  0  0
   30.1277  -12.6210  -16.6995 C   0  0  0  0  0  0  0  0  0  0  0  0
   29.8088  -11.2809  -16.8217 C   0  0  0  0  0  0  0  0  0  0  0  0
   28.6132  -10.7929  -16.3055 C   0  0  0  0  0  0  0  0  0  0  0  0
   25.2850  -12.0192  -17.0194 C   0  0  0  0  0  0  0  0  0  0  0  0
   25.9474  -12.2817  -18.1873 O   0  0  0  0  0  0  0  0  0  0  0  0
   24.4704  -12.9062  -16.6026 O   0  0  0  0  0  0  0  0  0  0  0  0
  1  2  1  0
  2  3  2  0
  4  5  1  0
  4  2  1  0
  5  7  1  0
  5  6  1  1
  7  8  2  0
 10  9  1  6
 11 10  1  0
 11  7  1  0
 12 10  1  0
 13 12  2  0
 14 12  1  0
 15 14  1  0
 15 23  1  0
 15 16  1  1
 17 16  1  0
 18 17  2  0
 19 18  1  0
 20 21  1  0
 20 19  2  0
 21 22  2  0
 22 17  1  0
 23 24  1  0
 25 23  2  0
M  END
$$$$
