NAF.pdb
     RDKit          3D

 25 25  0  0  1  0  0  0  0  0999 V2000
   20.2373  -17.8307  -12.9424 N   0  0  0  0  0  0  0  0  0  0  0  0
   19.8559  -18.6993  -11.8935 C   0  0  0  0  0  0  0  0  0  0  0  0
   18.6422  -18.8061  -11.5884 O   0  0  0  0  0  0  0  0  0  0  0  0
   20.9360  -19.4550  -11.1943 C   0  0  0  0  0  0  0  0  0  0  0  0
   21.8371  -20.0121  -12.2800 C   0  0  2  0  0  0  0  0  0  0  0  0
   21.0195  -20.8726  -13.1161 N   0  0  0  0  0  0  0  0  0  0  0  0
   22.9623  -20.7251  -11.6677 C   0  0  0  0  0  0  0  0  0  0  0  0
   22.8704  -21.4592  -10.6473 O   0  0  0  0  0  0  0  0  0  0  0  0
   26.5059  -21.3721  -12.8091 C   0  0  0  0  0  0  0  0  0  0  0  0
   25.4060  -21.3141  -11.7781 C   0  0  2  0  0  0  0  0  0  0  0  0
   24.2497  -20.5884  -12.2542 N   0  0  0  0  0  0  0  0  0  0  0  0
   25.9295  -20.6713  -10.5518 C   0  0  0  0  0  0  0  0  0  0  0  0
   25.3269  -19.7256   -9.9788 O   0  0  0  0  0  0  0  0  0  0  0  0
   27.1490  -21.0965   -9.9585 N   0  0  0  0  0  0  0  0  0  0  0  0
   27.7272  -20.4349   -8.8054 C   0  0  1  0  0  0  0  0  0  0  0  0
   26.8585  -20.6028   -7.5763 C   0  0  0  0  0  0  0  0  0  0  0  0
   27.4796  -20.0651   -6.3653 C   0  0  0  0  0  0  0  0  0  0  0  0
   27.5628  -18.7177   -6.0840 C   0  0  0  0  0  0  0  0  0  0  0  0
   28.1550  -18.2464   -4.9281 C   0  0  0  0  0  0  0  0  0  0  0  0
   28.6804  -19.1112   -4.0215 C   0  0  0  0  0  0  0  0  0  0  0  0
   28.6117  -20.4687   -4.2765 C   0  0  0  0  0  0  0  0  0  0  0  0
   28.0142  -20.9358   -5.4422 C   0  0  0  0  0  0  0  0  0  0  0  0
   29.0581  -21.0145   -8.4990 C   0  0  0  0  0  0  0  0  0  0  0  0
   30.0824  -20.3183   -7.9176 O   0  0  0  0  0  0  0  0  0  0  0  0
   29.2782  -22.2358   -8.7892 O   0  0  0  0  0  0  0  0  0  0  0  0
  1  2  1  0
  2  3  2  0
  4  5  1  0
  4  2  1  0
  5  7  1  0
  5  6  1  6
  7  8  2  0
 10  9  1  6
 11 10  1  0
 11  7  1  0
 12 10  1  0
 13 12  2  0
 14 12  1  0
 15 14  1  0
 15 23  1  0
 15 16  1  1
 17 16  1  0
 18 17  2  0
 19 18  1  0
 20 21  1  0
 20 19  2  0
 21 22  2  0
 22 17  1  0
 23 24  1  0
 25 23  2  0
M  END
$$$$
