NAF.pdb
     RDKit          3D

 25 25  0  0  1  0  0  0  0  0999 V2000
   19.3658  -14.1654  -15.5401 N   0  0  0  0  0  0  0  0  0  0  0  0
   18.1236  -13.5100  -15.7049 C   0  0  0  0  0  0  0  0  0  0  0  0
   17.1097  -13.9448  -15.1044 O   0  0  0  0  0  0  0  0  0  0  0  0
   18.0849  -12.3162  -16.5991 C   0  0  0  0  0  0  0  0  0  0  0  0
   17.4036  -11.2146  -15.8095 C   0  0  2  0  0  0  0  0  0  0  0  0
   15.9758  -11.4739  -15.8563 N   0  0  0  0  0  0  0  0  0  0  0  0
   17.7586   -9.9105  -16.3773 C   0  0  0  0  0  0  0  0  0  0  0  0
   17.5713   -9.5817  -17.5795 O   0  0  0  0  0  0  0  0  0  0  0  0
   17.4419   -6.8869  -16.5037 C   0  0  0  0  0  0  0  0  0  0  0  0
   18.6581   -7.5973  -15.9634 C   0  0  2  0  0  0  0  0  0  0  0  0
   18.3552   -8.9415  -15.5255 N   0  0  0  0  0  0  0  0  0  0  0  0
   19.2094   -6.8159  -14.8335 C   0  0  0  0  0  0  0  0  0  0  0  0
   18.6925   -6.8379  -13.6854 O   0  0  0  0  0  0  0  0  0  0  0  0
   20.3594   -5.9965  -14.9942 N   0  0  0  0  0  0  0  0  0  0  0  0
   20.9557   -5.2654  -13.8935 C   0  0  1  0  0  0  0  0  0  0  0  0
   22.2428   -5.9146  -13.4292 C   0  0  0  0  0  0  0  0  0  0  0  0
   23.1201   -6.2911  -14.5383 C   0  0  0  0  0  0  0  0  0  0  0  0
   23.1985   -7.5695  -15.0493 C   0  0  0  0  0  0  0  0  0  0  0  0
   24.0374   -7.8877  -16.0999 C   0  0  0  0  0  0  0  0  0  0  0  0
   24.8213   -6.9347  -16.6683 C   0  0  0  0  0  0  0  0  0  0  0  0
   24.7641   -5.6432  -16.1769 C   0  0  0  0  0  0  0  0  0  0  0  0
   23.9173   -5.3303  -15.1191 C   0  0  0  0  0  0  0  0  0  0  0  0
   21.2769   -3.8799  -14.3159 C   0  0  0  0  0  0  0  0  0  0  0  0
   21.6604   -2.8859  -13.4577 O   0  0  0  0  0  0  0  0  0  0  0  0
   21.1953   -3.5797  -15.5518 O   0  0  0  0  0  0  0  0  0  0  0  0
  1  2  1  0
  2  3  2  0
  4  5  1  0
  4  2  1  0
  5  7  1  0
  5  6  1  6
  7  8  2  0
 10  9  1  1
 11 10  1  0
 11  7  1  0
 12 10  1  0
 13 12  2  0
 14 12  1  0
 15 14  1  0
 15 23  1  0
 15 16  1  6
 17 16  1  0
 18 17  2  0
 19 18  1  0
 20 21  1  0
 20 19  2  0
 21 22  2  0
 22 17  1  0
 23 24  1  0
 25 23  2  0
M  END
$$$$
