NAF.pdb
     RDKit          3D

 25 25  0  0  1  0  0  0  0  0999 V2000
   25.7518  -16.6315  -16.1565 N   0  0  0  0  0  0  0  0  0  0  0  0
   26.4618  -17.5088  -17.0086 C   0  0  0  0  0  0  0  0  0  0  0  0
   26.5389  -17.2524  -18.2358 O   0  0  0  0  0  0  0  0  0  0  0  0
   27.0917  -18.7127  -16.3919 C   0  0  0  0  0  0  0  0  0  0  0  0
   26.6835  -18.7055  -14.9309 C   0  0  2  0  0  0  0  0  0  0  0  0
   27.3190  -17.5549  -14.3140 N   0  0  0  0  0  0  0  0  0  0  0  0
   27.0774  -19.9706  -14.3037 C   0  0  0  0  0  0  0  0  0  0  0  0
   26.8410  -21.1101  -14.7878 O   0  0  0  0  0  0  0  0  0  0  0  0
   29.5320  -20.9674  -11.7118 C   0  0  0  0  0  0  0  0  0  0  0  0
   28.1720  -21.1143  -12.3480 C   0  0  2  0  0  0  0  0  0  0  0  0
   27.7739  -19.9240  -13.0656 N   0  0  0  0  0  0  0  0  0  0  0  0
   27.1781  -21.4183  -11.2939 C   0  0  0  0  0  0  0  0  0  0  0  0
   27.2867  -22.4177  -10.5356 O   0  0  0  0  0  0  0  0  0  0  0  0
   26.0439  -20.5872  -11.0872 N   0  0  0  0  0  0  0  0  0  0  0  0
   25.0936  -20.8173  -10.0168 C   0  0  1  0  0  0  0  0  0  0  0  0
   25.0336  -19.6400   -9.0660 C   0  0  0  0  0  0  0  0  0  0  0  0
   26.2069  -19.5537   -8.1957 C   0  0  0  0  0  0  0  0  0  0  0  0
   27.0085  -18.4354   -8.1040 C   0  0  0  0  0  0  0  0  0  0  0  0
   28.1079  -18.3894   -7.2687 C   0  0  0  0  0  0  0  0  0  0  0  0
   28.4355  -19.4619   -6.5017 C   0  0  0  0  0  0  0  0  0  0  0  0
   27.6499  -20.5978   -6.5724 C   0  0  0  0  0  0  0  0  0  0  0  0
   26.5447  -20.6369   -7.4156 C   0  0  0  0  0  0  0  0  0  0  0  0
   23.7336  -21.0146  -10.5759 C   0  0  0  0  0  0  0  0  0  0  0  0
   23.4377  -20.9598  -11.9105 O   0  0  0  0  0  0  0  0  0  0  0  0
   22.7690  -21.2507   -9.7772 O   0  0  0  0  0  0  0  0  0  0  0  0
  1  2  1  0
  2  3  2  0
  4  5  1  0
  4  2  1  0
  5  7  1  0
  5  6  1  1
  7  8  2  0
 10  9  1  1
 11 10  1  0
 11  7  1  0
 12 10  1  0
 13 12  2  0
 14 12  1  0
 15 14  1  0
 15 23  1  0
 15 16  1  1
 17 16  1  0
 18 17  2  0
 19 18  1  0
 20 21  1  0
 20 19  2  0
 21 22  2  0
 22 17  1  0
 23 24  1  0
 25 23  2  0
M  END
$$$$
