NAF.pdb
     RDKit          3D

 25 25  0  0  1  0  0  0  0  0999 V2000
   19.1189  -13.6761  -15.2414 N   0  0  0  0  0  0  0  0  0  0  0  0
   18.8089  -12.4384  -15.8514 C   0  0  0  0  0  0  0  0  0  0  0  0
   17.6096  -12.1450  -16.0820 O   0  0  0  0  0  0  0  0  0  0  0  0
   19.9442  -11.5327  -16.1936 C   0  0  0  0  0  0  0  0  0  0  0  0
   19.6210  -10.9396  -17.5519 C   0  0  2  0  0  0  0  0  0  0  0  0
   20.1596  -11.8426  -18.5532 N   0  0  0  0  0  0  0  0  0  0  0  0
   20.1870   -9.5905  -17.6469 C   0  0  0  0  0  0  0  0  0  0  0  0
   21.4205   -9.3323  -17.6307 O   0  0  0  0  0  0  0  0  0  0  0  0
   18.8244   -6.2731  -18.7023 C   0  0  0  0  0  0  0  0  0  0  0  0
   19.7530   -7.1221  -17.8699 C   0  0  2  0  0  0  0  0  0  0  0  0
   19.2957   -8.4898  -17.7658 N   0  0  0  0  0  0  0  0  0  0  0  0
   19.8657   -6.5287  -16.5184 C   0  0  0  0  0  0  0  0  0  0  0  0
   19.0463   -6.7906  -15.5987 O   0  0  0  0  0  0  0  0  0  0  0  0
   20.9150   -5.6268  -16.1935 N   0  0  0  0  0  0  0  0  0  0  0  0
   21.0571   -5.0384  -14.8762 C   0  0  1  0  0  0  0  0  0  0  0  0
   22.3911   -5.3913  -14.2523 C   0  0  0  0  0  0  0  0  0  0  0  0
   22.5638   -6.8316  -14.0598 C   0  0  0  0  0  0  0  0  0  0  0  0
   23.3216   -7.6275  -14.8927 C   0  0  0  0  0  0  0  0  0  0  0  0
   23.4639   -8.9849  -14.6781 C   0  0  0  0  0  0  0  0  0  0  0  0
   22.8513   -9.5833  -13.6235 C   0  0  0  0  0  0  0  0  0  0  0  0
   22.0845   -8.8105  -12.7706 C   0  0  0  0  0  0  0  0  0  0  0  0
   21.9458   -7.4447  -12.9929 C   0  0  0  0  0  0  0  0  0  0  0  0
   20.9794   -3.5596  -14.9671 C   0  0  0  0  0  0  0  0  0  0  0  0
   20.9503   -2.7250  -13.8834 O   0  0  0  0  0  0  0  0  0  0  0  0
   20.9361   -3.0161  -16.1190 O   0  0  0  0  0  0  0  0  0  0  0  0
  1  2  1  0
  2  3  2  0
  4  5  1  0
  4  2  1  0
  5  7  1  0
  5  6  1  6
  7  8  2  0
 10  9  1  6
 11 10  1  0
 11  7  1  0
 12 10  1  0
 13 12  2  0
 14 12  1  0
 15 14  1  0
 15 23  1  0
 15 16  1  6
 17 16  1  0
 18 17  2  0
 19 18  1  0
 20 21  1  0
 20 19  2  0
 21 22  2  0
 22 17  1  0
 23 24  1  0
 25 23  2  0
M  END
$$$$
