NAF.pdb
     RDKit          3D

 25 25  0  0  1  0  0  0  0  0999 V2000
   26.8887  -22.5486  -15.9898 N   0  0  0  0  0  0  0  0  0  0  0  0
   27.9913  -21.9359  -15.3505 C   0  0  0  0  0  0  0  0  0  0  0  0
   29.1370  -22.4346  -15.4791 O   0  0  0  0  0  0  0  0  0  0  0  0
   27.7284  -20.7086  -14.5438 C   0  0  0  0  0  0  0  0  0  0  0  0
   26.2205  -20.5550  -14.4816 C   0  0  2  0  0  0  0  0  0  0  0  0
   25.8330  -19.6815  -15.5748 N   0  0  0  0  0  0  0  0  0  0  0  0
   25.8338  -20.0234  -13.1712 C   0  0  0  0  0  0  0  0  0  0  0  0
   26.0280  -18.8351  -12.7985 O   0  0  0  0  0  0  0  0  0  0  0  0
   23.3187  -21.0107  -10.6749 C   0  0  0  0  0  0  0  0  0  0  0  0
   24.6857  -20.4464  -10.9725 C   0  0  2  0  0  0  0  0  0  0  0  0
   25.1956  -20.8961  -12.2485 N   0  0  0  0  0  0  0  0  0  0  0  0
   25.6167  -20.8463   -9.8933 C   0  0  0  0  0  0  0  0  0  0  0  0
   26.0450  -22.0248   -9.7773 O   0  0  0  0  0  0  0  0  0  0  0  0
   26.0747  -19.9086   -8.9285 N   0  0  0  0  0  0  0  0  0  0  0  0
   26.9589  -20.2782   -7.8408 C   0  0  1  0  0  0  0  0  0  0  0  0
   27.5936  -19.0597   -7.2036 C   0  0  0  0  0  0  0  0  0  0  0  0
   28.4029  -19.3902   -6.0300 C   0  0  0  0  0  0  0  0  0  0  0  0
   29.5599  -20.1382   -6.0869 C   0  0  0  0  0  0  0  0  0  0  0  0
   30.3001  -20.4286   -4.9570 C   0  0  0  0  0  0  0  0  0  0  0  0
   29.9024  -19.9781   -3.7386 C   0  0  0  0  0  0  0  0  0  0  0  0
   28.7457  -19.2253   -3.6503 C   0  0  0  0  0  0  0  0  0  0  0  0
   28.0057  -18.9369   -4.7920 C   0  0  0  0  0  0  0  0  0  0  0  0
   26.1989  -20.9935   -6.7863 C   0  0  0  0  0  0  0  0  0  0  0  0
   24.8337  -21.0024   -6.6973 O   0  0  0  0  0  0  0  0  0  0  0  0
   26.8422  -21.6453   -5.9001 O   0  0  0  0  0  0  0  0  0  0  0  0
  1  2  1  0
  2  3  2  0
  4  5  1  0
  4  2  1  0
  5  7  1  0
  5  6  1  6
  7  8  2  0
 10  9  1  1
 11 10  1  0
 11  7  1  0
 12 10  1  0
 13 12  2  0
 14 12  1  0
 15 14  1  0
 15 23  1  0
 15 16  1  1
 17 16  1  0
 18 17  2  0
 19 18  1  0
 20 21  1  0
 20 19  2  0
 21 22  2  0
 22 17  1  0
 23 24  1  0
 25 23  2  0
M  END
$$$$
