NAF.pdb
     RDKit          3D

 25 25  0  0  1  0  0  0  0  0999 V2000
   20.4917  -13.1472  -19.9672 N   0  0  0  0  0  0  0  0  0  0  0  0
   20.8706  -12.4157  -18.8177 C   0  0  0  0  0  0  0  0  0  0  0  0
   21.4371  -13.0080  -17.8659 O   0  0  0  0  0  0  0  0  0  0  0  0
   20.5713  -10.9541  -18.7984 C   0  0  0  0  0  0  0  0  0  0  0  0
   20.2838  -10.5975  -17.3523 C   0  0  2  0  0  0  0  0  0  0  0  0
   19.0738  -11.3026  -16.9692 N   0  0  0  0  0  0  0  0  0  0  0  0
   20.1543   -9.1431  -17.2206 C   0  0  0  0  0  0  0  0  0  0  0  0
   21.0655   -8.3182  -17.4995 O   0  0  0  0  0  0  0  0  0  0  0  0
   17.2865   -6.8735  -16.1942 C   0  0  0  0  0  0  0  0  0  0  0  0
   18.7305   -7.2065  -16.4766 C   0  0  2  0  0  0  0  0  0  0  0  0
   18.9230   -8.6136  -16.7475 N   0  0  0  0  0  0  0  0  0  0  0  0
   19.5533   -6.8044  -15.3135 C   0  0  0  0  0  0  0  0  0  0  0  0
   19.7849   -7.5840  -14.3522 O   0  0  0  0  0  0  0  0  0  0  0  0
   20.1258   -5.5064  -15.2279 N   0  0  0  0  0  0  0  0  0  0  0  0
   21.3225   -5.2316  -14.4572 C   0  0  1  0  0  0  0  0  0  0  0  0
   22.5286   -5.9442  -15.0327 C   0  0  0  0  0  0  0  0  0  0  0  0
   22.7168   -7.2829  -14.4725 C   0  0  0  0  0  0  0  0  0  0  0  0
   22.2291   -7.6711  -13.2425 C   0  0  0  0  0  0  0  0  0  0  0  0
   22.4245   -8.9457  -12.7466 C   0  0  0  0  0  0  0  0  0  0  0  0
   23.1138   -9.8674  -13.4686 C   0  0  0  0  0  0  0  0  0  0  0  0
   23.6150   -9.5070  -14.7061 C   0  0  0  0  0  0  0  0  0  0  0  0
   23.4144   -8.2221  -15.1988 C   0  0  0  0  0  0  0  0  0  0  0  0
   21.6122   -3.7765  -14.4665 C   0  0  0  0  0  0  0  0  0  0  0  0
   22.3136   -3.1279  -13.4871 O   0  0  0  0  0  0  0  0  0  0  0  0
   21.1886   -3.0717  -15.4401 O   0  0  0  0  0  0  0  0  0  0  0  0
  1  2  1  0
  2  3  2  0
  4  5  1  0
  4  2  1  0
  5  7  1  0
  5  6  1  6
  7  8  2  0
 10  9  1  1
 11 10  1  0
 11  7  1  0
 12 10  1  0
 13 12  2  0
 14 12  1  0
 15 14  1  0
 15 23  1  0
 15 16  1  6
 17 16  1  0
 18 17  2  0
 19 18  1  0
 20 21  1  0
 20 19  2  0
 21 22  2  0
 22 17  1  0
 23 24  1  0
 25 23  2  0
M  END
$$$$
