NAF.pdb
     RDKit          3D

 25 25  0  0  1  0  0  0  0  0999 V2000
   25.9953  -16.9575  -16.4059 N   0  0  0  0  0  0  0  0  0  0  0  0
   25.1595  -17.8205  -17.1519 C   0  0  0  0  0  0  0  0  0  0  0  0
   25.0145  -17.6288  -18.3848 O   0  0  0  0  0  0  0  0  0  0  0  0
   24.4836  -18.9314  -16.4203 C   0  0  0  0  0  0  0  0  0  0  0  0
   25.5869  -19.7553  -15.7838 C   0  0  2  0  0  0  0  0  0  0  0  0
   26.2837  -20.4409  -16.8575 N   0  0  0  0  0  0  0  0  0  0  0  0
   25.0078  -20.6814  -14.8060 C   0  0  0  0  0  0  0  0  0  0  0  0
   24.3807  -21.7331  -15.1049 O   0  0  0  0  0  0  0  0  0  0  0  0
   25.1401  -20.8852  -11.0232 C   0  0  0  0  0  0  0  0  0  0  0  0
   24.5685  -21.1998  -12.3834 C   0  0  2  0  0  0  0  0  0  0  0  0
   25.1562  -20.3857  -13.4237 N   0  0  0  0  0  0  0  0  0  0  0  0
   23.1038  -20.9878  -12.3504 C   0  0  0  0  0  0  0  0  0  0  0  0
   22.5893  -19.9094  -11.9528 O   0  0  0  0  0  0  0  0  0  0  0  0
   22.2015  -22.0024  -12.7705 N   0  0  0  0  0  0  0  0  0  0  0  0
   20.7840  -21.7587  -12.9519 C   0  0  1  0  0  0  0  0  0  0  0  0
   20.5272  -20.8132  -14.1067 C   0  0  0  0  0  0  0  0  0  0  0  0
   20.6008  -19.4055  -13.7141 C   0  0  0  0  0  0  0  0  0  0  0  0
   21.5511  -18.5283  -14.1925 C   0  0  0  0  0  0  0  0  0  0  0  0
   21.5882  -17.2039  -13.8007 C   0  0  0  0  0  0  0  0  0  0  0  0
   20.6746  -16.7209  -12.9187 C   0  0  0  0  0  0  0  0  0  0  0  0
   19.7092  -17.5772  -12.4216 C   0  0  0  0  0  0  0  0  0  0  0  0
   19.6781  -18.9091  -12.8206 C   0  0  0  0  0  0  0  0  0  0  0  0
   20.0813  -23.0316  -13.2470 C   0  0  0  0  0  0  0  0  0  0  0  0
   18.7227  -23.1859  -13.2018 O   0  0  0  0  0  0  0  0  0  0  0  0
   20.7711  -24.0553  -13.5640 O   0  0  0  0  0  0  0  0  0  0  0  0
  1  2  1  0
  2  3  2  0
  4  5  1  0
  4  2  1  0
  5  7  1  0
  5  6  1  6
  7  8  2  0
 10  9  1  1
 11 10  1  0
 11  7  1  0
 12 10  1  0
 13 12  2  0
 14 12  1  0
 15 14  1  0
 15 23  1  0
 15 16  1  6
 17 16  1  0
 18 17  2  0
 19 18  1  0
 20 21  1  0
 20 19  2  0
 21 22  2  0
 22 17  1  0
 23 24  1  0
 25 23  2  0
M  END
$$$$
