NAF.pdb
     RDKit          3D

 25 25  0  0  1  0  0  0  0  0999 V2000
   21.4077  -13.6547  -17.3137 N   0  0  0  0  0  0  0  0  0  0  0  0
   20.9299  -12.3407  -17.5263 C   0  0  0  0  0  0  0  0  0  0  0  0
   19.7484  -12.1671  -17.9158 O   0  0  0  0  0  0  0  0  0  0  0  0
   21.8725  -11.2125  -17.2718 C   0  0  0  0  0  0  0  0  0  0  0  0
   21.3191  -10.4562  -16.0790 C   0  0  2  0  0  0  0  0  0  0  0  0
   19.9247  -10.1681  -16.3634 N   0  0  0  0  0  0  0  0  0  0  0  0
   22.1110   -9.2429  -15.8551 C   0  0  0  0  0  0  0  0  0  0  0  0
   23.3697   -9.2140  -15.7971 O   0  0  0  0  0  0  0  0  0  0  0  0
   23.0463   -6.4473  -16.6648 C   0  0  0  0  0  0  0  0  0  0  0  0
   22.1153   -6.7496  -15.5169 C   0  0  2  0  0  0  0  0  0  0  0  0
   21.4258   -8.0085  -15.6906 N   0  0  0  0  0  0  0  0  0  0  0  0
   21.1291   -5.6523  -15.3956 C   0  0  0  0  0  0  0  0  0  0  0  0
   21.4726   -4.4608  -15.1767 O   0  0  0  0  0  0  0  0  0  0  0  0
   19.7346   -5.8959  -15.5222 N   0  0  0  0  0  0  0  0  0  0  0  0
   18.7407   -4.8606  -15.3172 C   0  0  1  0  0  0  0  0  0  0  0  0
   17.8148   -4.7369  -16.5093 C   0  0  0  0  0  0  0  0  0  0  0  0
   18.4943   -4.2383  -17.7056 C   0  0  0  0  0  0  0  0  0  0  0  0
   19.0394   -5.0579  -18.6712 C   0  0  0  0  0  0  0  0  0  0  0  0
   19.6721   -4.5508  -19.7898 C   0  0  0  0  0  0  0  0  0  0  0  0
   19.7766   -3.2086  -19.9728 C   0  0  0  0  0  0  0  0  0  0  0  0
   19.2392   -2.3615  -19.0210 C   0  0  0  0  0  0  0  0  0  0  0  0
   18.6038   -2.8792  -17.8974 C   0  0  0  0  0  0  0  0  0  0  0  0
   17.9082   -5.1805  -14.1315 C   0  0  0  0  0  0  0  0  0  0  0  0
   16.9456   -4.3512  -13.6241 O   0  0  0  0  0  0  0  0  0  0  0  0
   18.0879   -6.2929  -13.5363 O   0  0  0  0  0  0  0  0  0  0  0  0
  1  2  1  0
  2  3  2  0
  4  5  1  0
  4  2  1  0
  5  7  1  0
  5  6  1  6
  7  8  2  0
 10  9  1  6
 11 10  1  0
 11  7  1  0
 12 10  1  0
 13 12  2  0
 14 12  1  0
 15 14  1  0
 15 23  1  0
 15 16  1  6
 17 16  1  0
 18 17  2  0
 19 18  1  0
 20 21  1  0
 20 19  2  0
 21 22  2  0
 22 17  1  0
 23 24  1  0
 25 23  2  0
M  END
$$$$
