NAF.pdb
     RDKit          3D

 25 25  0  0  1  0  0  0  0  0999 V2000
   14.7843  -12.9197  -17.0907 N   0  0  0  0  0  0  0  0  0  0  0  0
   15.7386  -11.9668  -17.5162 C   0  0  0  0  0  0  0  0  0  0  0  0
   15.4714  -11.2127  -18.4846 O   0  0  0  0  0  0  0  0  0  0  0  0
   17.0340  -11.9083  -16.7780 C   0  0  0  0  0  0  0  0  0  0  0  0
   18.1205  -11.8089  -17.8320 C   0  0  2  0  0  0  0  0  0  0  0  0
   18.7114  -13.1285  -17.9643 N   0  0  0  0  0  0  0  0  0  0  0  0
   19.0981  -10.7906  -17.4363 C   0  0  0  0  0  0  0  0  0  0  0  0
   19.9473  -10.9371  -16.5166 O   0  0  0  0  0  0  0  0  0  0  0  0
   19.8829   -7.3130  -18.7596 C   0  0  0  0  0  0  0  0  0  0  0  0
   20.0252   -8.4828  -17.8178 C   0  0  2  0  0  0  0  0  0  0  0  0
   19.0997   -9.5492  -18.1285 N   0  0  0  0  0  0  0  0  0  0  0  0
   19.8009   -8.0145  -16.4315 C   0  0  0  0  0  0  0  0  0  0  0  0
   18.6799   -8.1038  -15.8649 O   0  0  0  0  0  0  0  0  0  0  0  0
   20.8516   -7.4366  -15.6685 N   0  0  0  0  0  0  0  0  0  0  0  0
   20.6474   -6.9126  -14.3323 C   0  0  1  0  0  0  0  0  0  0  0  0
   21.7584   -7.3370  -13.3946 C   0  0  0  0  0  0  0  0  0  0  0  0
   21.6052   -6.7853  -12.0479 C   0  0  0  0  0  0  0  0  0  0  0  0
   21.9222   -5.4852  -11.7150 C   0  0  0  0  0  0  0  0  0  0  0  0
   21.7619   -4.9982  -10.4321 C   0  0  0  0  0  0  0  0  0  0  0  0
   21.2798   -5.7994   -9.4465 C   0  0  0  0  0  0  0  0  0  0  0  0
   20.9532   -7.1084   -9.7505 C   0  0  0  0  0  0  0  0  0  0  0  0
   21.1171   -7.5917  -11.0441 C   0  0  0  0  0  0  0  0  0  0  0  0
   20.6265   -5.4295  -14.3638 C   0  0  0  0  0  0  0  0  0  0  0  0
   21.5224   -4.6644  -15.0594 O   0  0  0  0  0  0  0  0  0  0  0  0
   19.7244   -4.8135  -13.7074 O   0  0  0  0  0  0  0  0  0  0  0  0
  1  2  1  0
  2  3  2  0
  4  5  1  0
  4  2  1  0
  5  7  1  0
  5  6  1  1
  7  8  2  0
 10  9  1  6
 11 10  1  0
 11  7  1  0
 12 10  1  0
 13 12  2  0
 14 12  1  0
 15 14  1  0
 15 23  1  0
 15 16  1  1
 17 16  1  0
 18 17  2  0
 19 18  1  0
 20 21  1  0
 20 19  2  0
 21 22  2  0
 22 17  1  0
 23 24  1  0
 25 23  2  0
M  END
$$$$
