NAF.pdb
     RDKit          3D

 25 25  0  0  1  0  0  0  0  0999 V2000
   28.7021  -18.2365  -16.1266 N   0  0  0  0  0  0  0  0  0  0  0  0
   27.3126  -17.9749  -16.1016 C   0  0  0  0  0  0  0  0  0  0  0  0
   26.6741  -17.9159  -17.1817 O   0  0  0  0  0  0  0  0  0  0  0  0
   26.6696  -17.7798  -14.7694 C   0  0  0  0  0  0  0  0  0  0  0  0
   26.4416  -19.1671  -14.1995 C   0  0  2  0  0  0  0  0  0  0  0  0
   25.2883  -19.7265  -14.8816 N   0  0  0  0  0  0  0  0  0  0  0  0
   26.2499  -19.0776  -12.7488 C   0  0  0  0  0  0  0  0  0  0  0  0
   27.0502  -18.5100  -11.9578 O   0  0  0  0  0  0  0  0  0  0  0  0
   23.3621  -19.9923  -10.4703 C   0  0  0  0  0  0  0  0  0  0  0  0
   24.7890  -19.6044  -10.7691 C   0  0  2  0  0  0  0  0  0  0  0  0
   25.0869  -19.6666  -12.1825 N   0  0  0  0  0  0  0  0  0  0  0  0
   25.6982  -20.5063  -10.0266 C   0  0  0  0  0  0  0  0  0  0  0  0
   26.0884  -21.6060  -10.4999 O   0  0  0  0  0  0  0  0  0  0  0  0
   26.1776  -20.1686   -8.7319 N   0  0  0  0  0  0  0  0  0  0  0  0
   27.0221  -21.0566   -7.9573 C   0  0  1  0  0  0  0  0  0  0  0  0
   28.3663  -20.4250   -7.6610 C   0  0  0  0  0  0  0  0  0  0  0  0
   28.4624  -19.9113   -6.2941 C   0  0  0  0  0  0  0  0  0  0  0  0
   27.9826  -18.6780   -5.9068 C   0  0  0  0  0  0  0  0  0  0  0  0
   28.0891  -18.2269   -4.6053 C   0  0  0  0  0  0  0  0  0  0  0  0
   28.6791  -18.9982   -3.6552 C   0  0  0  0  0  0  0  0  0  0  0  0
   29.1699  -20.2403   -4.0140 C   0  0  0  0  0  0  0  0  0  0  0  0
   29.0592  -20.6878   -5.3261 C   0  0  0  0  0  0  0  0  0  0  0  0
   26.3763  -21.3711   -6.6592 C   0  0  0  0  0  0  0  0  0  0  0  0
   26.7812  -22.3771   -5.8249 O   0  0  0  0  0  0  0  0  0  0  0  0
   25.3807  -20.6705   -6.2824 O   0  0  0  0  0  0  0  0  0  0  0  0
  1  2  1  0
  2  3  2  0
  4  5  1  0
  4  2  1  0
  5  7  1  0
  5  6  1  6
  7  8  2  0
 10  9  1  6
 11 10  1  0
 11  7  1  0
 12 10  1  0
 13 12  2  0
 14 12  1  0
 15 14  1  0
 15 23  1  0
 15 16  1  1
 17 16  1  0
 18 17  2  0
 19 18  1  0
 20 21  1  0
 20 19  2  0
 21 22  2  0
 22 17  1  0
 23 24  1  0
 25 23  2  0
M  END
$$$$
