NAF.pdb
     RDKit          3D

 25 25  0  0  1  0  0  0  0  0999 V2000
   16.7370  -10.8635  -19.0614 N   0  0  0  0  0  0  0  0  0  0  0  0
   17.7524  -11.8372  -18.9177 C   0  0  0  0  0  0  0  0  0  0  0  0
   17.4537  -13.0560  -18.9736 O   0  0  0  0  0  0  0  0  0  0  0  0
   19.1479  -11.3546  -18.7037 C   0  0  0  0  0  0  0  0  0  0  0  0
   19.0843   -9.8394  -18.7378 C   0  0  2  0  0  0  0  0  0  0  0  0
   19.4160   -9.4267  -20.0898 N   0  0  0  0  0  0  0  0  0  0  0  0
   20.0027   -9.2857  -17.7382 C   0  0  0  0  0  0  0  0  0  0  0  0
   19.9918   -9.5890  -16.5149 O   0  0  0  0  0  0  0  0  0  0  0  0
   22.9352   -6.8777  -17.9829 C   0  0  0  0  0  0  0  0  0  0  0  0
   21.9454   -7.7591  -17.2623 C   0  0  2  0  0  0  0  0  0  0  0  0
   20.9767   -8.3419  -18.1635 N   0  0  0  0  0  0  0  0  0  0  0  0
   21.2492   -6.9574  -16.2308 C   0  0  0  0  0  0  0  0  0  0  0  0
   20.1603   -6.3677  -16.4592 O   0  0  0  0  0  0  0  0  0  0  0  0
   21.7835   -6.8152  -14.9215 N   0  0  0  0  0  0  0  0  0  0  0  0
   21.1002   -6.0786  -13.8764 C   0  0  1  0  0  0  0  0  0  0  0  0
   20.9004   -6.9284  -12.6389 C   0  0  0  0  0  0  0  0  0  0  0  0
   20.2379   -6.2032  -11.5541 C   0  0  0  0  0  0  0  0  0  0  0  0
   19.0170   -5.5765  -11.6890 C   0  0  0  0  0  0  0  0  0  0  0  0
   18.4203   -4.9027  -10.6409 C   0  0  0  0  0  0  0  0  0  0  0  0
   19.0294   -4.8375   -9.4283 C   0  0  0  0  0  0  0  0  0  0  0  0
   20.2548   -5.4567   -9.2628 C   0  0  0  0  0  0  0  0  0  0  0  0
   20.8495   -6.1331  -10.3224 C   0  0  0  0  0  0  0  0  0  0  0  0
   21.8986   -4.8914  -13.4836 C   0  0  0  0  0  0  0  0  0  0  0  0
   21.3781   -3.6365  -13.3220 O   0  0  0  0  0  0  0  0  0  0  0  0
   23.1488   -5.0315  -13.2803 O   0  0  0  0  0  0  0  0  0  0  0  0
  1  2  1  0
  2  3  2  0
  4  5  1  0
  4  2  1  0
  5  7  1  0
  5  6  1  6
  7  8  2  0
 10  9  1  6
 11 10  1  0
 11  7  1  0
 12 10  1  0
 13 12  2  0
 14 12  1  0
 15 14  1  0
 15 23  1  0
 15 16  1  1
 17 16  1  0
 18 17  2  0
 19 18  1  0
 20 21  1  0
 20 19  2  0
 21 22  2  0
 22 17  1  0
 23 24  1  0
 25 23  2  0
M  END
$$$$
