WMA.pdb
     RDKit          3D

 28 29  0  0  1  0  0  0  0  0999 V2000
   24.3943  -19.8160   -9.5848 N   0  0  0  0  0  0  0  0  0  0  0  0
   25.7904  -20.0104   -9.4013 C   0  0  1  0  0  0  0  0  0  0  0  0
   26.1560  -21.1699   -8.5349 C   0  0  0  0  0  0  0  0  0  0  0  0
   26.0113  -20.7804   -7.1174 C   0  0  0  0  0  0  0  0  0  0  0  0
   24.8955  -21.0094   -6.3071 C   0  0  0  0  0  0  0  0  0  0  0  0
   25.1326  -20.5424   -5.0785 N   0  0  0  0  0  0  0  0  0  0  0  0
   26.3581  -20.0138   -5.0425 C   0  0  0  0  0  0  0  0  0  0  0  0
   27.0800  -19.3990   -4.0248 C   0  0  0  0  0  0  0  0  0  0  0  0
   28.3520  -18.9157   -4.2300 C   0  0  0  0  0  0  0  0  0  0  0  0
   28.9057  -19.0557   -5.4873 C   0  0  0  0  0  0  0  0  0  0  0  0
   28.1915  -19.6655   -6.4981 C   0  0  0  0  0  0  0  0  0  0  0  0
   26.9258  -20.1506   -6.3050 C   0  0  0  0  0  0  0  0  0  0  0  0
   26.5117  -20.0224  -10.7061 C   0  0  0  0  0  0  0  0  0  0  0  0
   25.8364  -20.3013  -11.7288 O   0  0  0  0  0  0  0  0  0  0  0  0
   32.1639  -21.7372   -9.9076 C   0  0  0  0  0  0  0  0  0  0  0  0
   32.0680  -22.5788  -11.5244 S   0  0  0  0  0  0  0  0  0  0  0  0
   30.6352  -21.8542  -12.4151 C   0  0  0  0  0  0  0  0  0  0  0  0
   29.7682  -21.2274  -11.3530 C   0  0  0  0  0  0  0  0  0  0  0  0
   28.6657  -20.3575  -11.9239 C   0  0  2  0  0  0  0  0  0  0  0  0
   27.8767  -19.7469  -10.8734 N   0  0  0  0  0  0  0  0  0  0  0  0
   27.8318  -21.0683  -12.8944 C   0  0  0  0  0  0  0  0  0  0  0  0
   27.3214  -22.1836  -12.6148 O   0  0  0  0  0  0  0  0  0  0  0  0
   25.4254  -21.0059  -15.3258 C   0  0  0  0  0  0  0  0  0  0  0  0
   26.9011  -21.3124  -15.1864 C   0  0  2  0  0  0  0  0  0  0  0  0
   27.5616  -20.5395  -14.1848 N   0  0  0  0  0  0  0  0  0  0  0  0
   27.5295  -21.1487  -16.5316 C   0  0  0  0  0  0  0  0  0  0  0  0
   28.4107  -20.2567  -16.6615 O   0  0  0  0  0  0  0  0  0  0  0  0
   27.1964  -21.9163  -17.6228 O   0  0  0  0  0  0  0  0  0  0  0  0
  2  1  1  6
  2  3  1  0
  2 13  1  0
  4  3  1  0
  4  5  2  0
  6  5  1  0
  7  6  1  0
  8  7  2  0
  9  8  1  0
 10  9  2  0
 10 11  1  0
 11 12  2  0
 12  7  1  0
 12  4  1  0
 13 14  2  0
 16 15  1  0
 17 18  1  0
 17 16  1  0
 19 18  1  1
 19 21  1  0
 20 19  1  0
 20 13  1  0
 21 22  2  0
 24 23  1  6
 24 26  1  0
 25 21  1  0
 25 24  1  0
 26 27  2  0
 26 28  1  0
M  END
$$$$
