WMA.pdb
     RDKit          3D

 28 29  0  0  1  0  0  0  0  0999 V2000
   23.3890  -18.7389  -14.1214 N   0  0  0  0  0  0  0  0  0  0  0  0
   24.0178  -19.7865  -13.3951 C   0  0  1  0  0  0  0  0  0  0  0  0
   23.2916  -21.0907  -13.4153 C   0  0  0  0  0  0  0  0  0  0  0  0
   22.4948  -21.2209  -12.1783 C   0  0  0  0  0  0  0  0  0  0  0  0
   21.1075  -21.3740  -12.1011 C   0  0  0  0  0  0  0  0  0  0  0  0
   20.7411  -21.4849  -10.8214 N   0  0  0  0  0  0  0  0  0  0  0  0
   21.8279  -21.4111  -10.0494 C   0  0  0  0  0  0  0  0  0  0  0  0
   21.9983  -21.4646   -8.6699 C   0  0  0  0  0  0  0  0  0  0  0  0
   23.2414  -21.3569   -8.0896 C   0  0  0  0  0  0  0  0  0  0  0  0
   24.3336  -21.1919   -8.9184 C   0  0  0  0  0  0  0  0  0  0  0  0
   24.1669  -21.1389  -10.2869 C   0  0  0  0  0  0  0  0  0  0  0  0
   22.9351  -21.2457  -10.8750 C   0  0  0  0  0  0  0  0  0  0  0  0
   25.4522  -19.9254  -13.7773 C   0  0  0  0  0  0  0  0  0  0  0  0
   25.8334  -19.3011  -14.7993 O   0  0  0  0  0  0  0  0  0  0  0  0
   32.7583  -21.8365  -11.4484 C   0  0  0  0  0  0  0  0  0  0  0  0
   30.9668  -21.8370  -11.0989 S   0  0  0  0  0  0  0  0  0  0  0  0
   30.1321  -21.2053  -12.6075 C   0  0  0  0  0  0  0  0  0  0  0  0
   28.6599  -21.1889  -12.2836 C   0  0  0  0  0  0  0  0  0  0  0  0
   27.8055  -20.6844  -13.4297 C   0  0  2  0  0  0  0  0  0  0  0  0
   26.3985  -20.6949  -13.0847 N   0  0  0  0  0  0  0  0  0  0  0  0
   28.0688  -21.3921  -14.6836 C   0  0  0  0  0  0  0  0  0  0  0  0
   27.6500  -22.5644  -14.8651 O   0  0  0  0  0  0  0  0  0  0  0  0
   29.7231  -20.6397  -18.0270 C   0  0  0  0  0  0  0  0  0  0  0  0
   28.9854  -21.4630  -16.9932 C   0  0  2  0  0  0  0  0  0  0  0  0
   28.8022  -20.7966  -15.7445 N   0  0  0  0  0  0  0  0  0  0  0  0
   29.7118  -22.7592  -16.8400 C   0  0  0  0  0  0  0  0  0  0  0  0
   29.4787  -23.6645  -17.6856 O   0  0  0  0  0  0  0  0  0  0  0  0
   30.6129  -23.0091  -15.8318 O   0  0  0  0  0  0  0  0  0  0  0  0
  2  1  1  6
  2  3  1  0
  2 13  1  0
  4  3  1  0
  4  5  2  0
  6  5  1  0
  7  6  1  0
  8  7  2  0
  9  8  1  0
 10  9  2  0
 10 11  1  0
 11 12  2  0
 12  7  1  0
 12  4  1  0
 13 14  2  0
 16 15  1  0
 17 18  1  0
 17 16  1  0
 19 18  1  1
 19 21  1  0
 20 19  1  0
 20 13  1  0
 21 22  2  0
 24 23  1  6
 24 26  1  0
 25 21  1  0
 25 24  1  0
 26 27  2  0
 26 28  1  0
M  END
$$$$
