WMA.pdb
     RDKit          3D

 28 29  0  0  1  0  0  0  0  0999 V2000
   27.3643  -21.4184  -14.6666 N   0  0  0  0  0  0  0  0  0  0  0  0
   26.5648  -21.0411  -13.5536 C   0  0  1  0  0  0  0  0  0  0  0  0
   27.1762  -20.0146  -12.6585 C   0  0  0  0  0  0  0  0  0  0  0  0
   28.4228  -20.5565  -12.0803 C   0  0  0  0  0  0  0  0  0  0  0  0
   29.6656  -20.6291  -12.7162 C   0  0  0  0  0  0  0  0  0  0  0  0
   30.5651  -21.1536  -11.8797 N   0  0  0  0  0  0  0  0  0  0  0  0
   29.9692  -21.4312  -10.7176 C   0  0  0  0  0  0  0  0  0  0  0  0
   30.4449  -21.9845   -9.5334 C   0  0  0  0  0  0  0  0  0  0  0  0
   29.6237  -22.1861   -8.4477 C   0  0  0  0  0  0  0  0  0  0  0  0
   28.2964  -21.8221   -8.5601 C   0  0  0  0  0  0  0  0  0  0  0  0
   27.8225  -21.2729   -9.7337 C   0  0  0  0  0  0  0  0  0  0  0  0
   28.6305  -21.0671  -10.8196 C   0  0  0  0  0  0  0  0  0  0  0  0
   25.1823  -20.6785  -13.9779 C   0  0  0  0  0  0  0  0  0  0  0  0
   25.0532  -19.6411  -14.6756 O   0  0  0  0  0  0  0  0  0  0  0  0
   20.7473  -22.2266  -17.7052 C   0  0  0  0  0  0  0  0  0  0  0  0
   21.5797  -23.6499  -16.9219 S   0  0  0  0  0  0  0  0  0  0  0  0
   22.1214  -23.0967  -15.2570 C   0  0  0  0  0  0  0  0  0  0  0  0
   22.2663  -21.5991  -15.3509 C   0  0  0  0  0  0  0  0  0  0  0  0
   22.7024  -20.9619  -14.0464 C   0  0  2  0  0  0  0  0  0  0  0  0
   24.0259  -21.4050  -13.6581 N   0  0  0  0  0  0  0  0  0  0  0  0
   21.7243  -21.1474  -12.9733 C   0  0  0  0  0  0  0  0  0  0  0  0
   21.7068  -22.2031  -12.2894 O   0  0  0  0  0  0  0  0  0  0  0  0
   18.8176  -19.2078  -11.4646 C   0  0  0  0  0  0  0  0  0  0  0  0
   19.7572  -20.3778  -11.6629 C   0  0  2  0  0  0  0  0  0  0  0  0
   20.7579  -20.1559  -12.6559 N   0  0  0  0  0  0  0  0  0  0  0  0
   18.9269  -21.5840  -11.9579 C   0  0  0  0  0  0  0  0  0  0  0  0
   18.8985  -21.9985  -13.1480 O   0  0  0  0  0  0  0  0  0  0  0  0
   18.2002  -22.2565  -11.0036 O   0  0  0  0  0  0  0  0  0  0  0  0
  2  1  1  6
  2  3  1  0
  2 13  1  0
  4  3  1  0
  4  5  2  0
  6  5  1  0
  7  6  1  0
  8  7  2  0
  9  8  1  0
 10  9  2  0
 10 11  1  0
 11 12  2  0
 12  7  1  0
 12  4  1  0
 13 14  2  0
 16 15  1  0
 17 18  1  0
 17 16  1  0
 19 18  1  6
 19 21  1  0
 20 19  1  0
 20 13  1  0
 21 22  2  0
 24 23  1  6
 24 26  1  0
 25 21  1  0
 25 24  1  0
 26 27  2  0
 26 28  1  0
M  END
$$$$
