WMA.pdb
     RDKit          3D

 28 29  0  0  1  0  0  0  0  0999 V2000
   26.4883  -22.4053  -12.6945 N   0  0  0  0  0  0  0  0  0  0  0  0
   25.6811  -21.3984  -12.0989 C   0  0  1  0  0  0  0  0  0  0  0  0
   26.4072  -20.1487  -11.7251 C   0  0  0  0  0  0  0  0  0  0  0  0
   27.4879  -20.4819  -10.7749 C   0  0  0  0  0  0  0  0  0  0  0  0
   28.8111  -20.7904  -11.1033 C   0  0  0  0  0  0  0  0  0  0  0  0
   29.5082  -21.0125   -9.9858 N   0  0  0  0  0  0  0  0  0  0  0  0
   28.7014  -20.8641   -8.9325 C   0  0  0  0  0  0  0  0  0  0  0  0
   28.9205  -20.9864   -7.5643 C   0  0  0  0  0  0  0  0  0  0  0  0
   27.9117  -20.7888   -6.6494 C   0  0  0  0  0  0  0  0  0  0  0  0
   26.6574  -20.4616   -7.1253 C   0  0  0  0  0  0  0  0  0  0  0  0
   26.4380  -20.3395   -8.4820 C   0  0  0  0  0  0  0  0  0  0  0  0
   27.4342  -20.5330   -9.4010 C   0  0  0  0  0  0  0  0  0  0  0  0
   24.4622  -21.1288  -12.9141 C   0  0  0  0  0  0  0  0  0  0  0  0
   24.6375  -20.8456  -14.1260 O   0  0  0  0  0  0  0  0  0  0  0  0
   19.6336  -25.7810  -12.8830 C   0  0  0  0  0  0  0  0  0  0  0  0
   19.4328  -23.9910  -12.5875 S   0  0  0  0  0  0  0  0  0  0  0  0
   21.0010  -23.1889  -13.1061 C   0  0  0  0  0  0  0  0  0  0  0  0
   20.7999  -21.7124  -12.8776 C   0  0  0  0  0  0  0  0  0  0  0  0
   22.0038  -20.8810  -13.2743 C   0  0  2  0  0  0  0  0  0  0  0  0
   23.1461  -21.1687  -12.4310 N   0  0  0  0  0  0  0  0  0  0  0  0
   21.7073  -19.4486  -13.3277 C   0  0  0  0  0  0  0  0  0  0  0  0
   22.2598  -18.6436  -12.5343 O   0  0  0  0  0  0  0  0  0  0  0  0
   22.4725  -17.7901  -15.6866 C   0  0  0  0  0  0  0  0  0  0  0  0
   21.1081  -17.7423  -15.0331 C   0  0  2  0  0  0  0  0  0  0  0  0
   20.7913  -18.9039  -14.2669 N   0  0  0  0  0  0  0  0  0  0  0  0
   20.0994  -17.4793  -16.1030 C   0  0  0  0  0  0  0  0  0  0  0  0
   19.7520  -18.4480  -16.8309 O   0  0  0  0  0  0  0  0  0  0  0  0
   19.5379  -16.2446  -16.3291 O   0  0  0  0  0  0  0  0  0  0  0  0
  2  1  1  6
  2  3  1  0
  2 13  1  0
  4  3  1  0
  4  5  2  0
  6  5  1  0
  7  6  1  0
  8  7  2  0
  9  8  1  0
 10  9  2  0
 10 11  1  0
 11 12  2  0
 12  7  1  0
 12  4  1  0
 13 14  2  0
 16 15  1  0
 17 18  1  0
 17 16  1  0
 19 18  1  1
 19 21  1  0
 20 19  1  0
 20 13  1  0
 21 22  2  0
 24 23  1  6
 24 26  1  0
 25 21  1  0
 25 24  1  0
 26 27  2  0
 26 28  1  0
M  END
$$$$
