WMA.pdb
     RDKit          3D

 28 29  0  0  1  0  0  0  0  0999 V2000
   24.0370  -20.0562  -12.0241 N   0  0  0  0  0  0  0  0  0  0  0  0
   25.4064  -20.4362  -12.0517 C   0  0  1  0  0  0  0  0  0  0  0  0
   25.7709  -21.5451  -11.1210 C   0  0  0  0  0  0  0  0  0  0  0  0
   26.1832  -20.9728   -9.8231 C   0  0  0  0  0  0  0  0  0  0  0  0
   25.3319  -20.4903   -8.8249 C   0  0  0  0  0  0  0  0  0  0  0  0
   26.0566  -20.0733   -7.7833 N   0  0  0  0  0  0  0  0  0  0  0  0
   27.3513  -20.2595   -8.0512 C   0  0  0  0  0  0  0  0  0  0  0  0
   28.5036  -19.9946   -7.3184 C   0  0  0  0  0  0  0  0  0  0  0  0
   29.7567  -20.2717   -7.8151 C   0  0  0  0  0  0  0  0  0  0  0  0
   29.8479  -20.8268   -9.0763 C   0  0  0  0  0  0  0  0  0  0  0  0
   28.7062  -21.0906   -9.8047 C   0  0  0  0  0  0  0  0  0  0  0  0
   27.4546  -20.8197   -9.3202 C   0  0  0  0  0  0  0  0  0  0  0  0
   25.8715  -20.6847  -13.4463 C   0  0  0  0  0  0  0  0  0  0  0  0
   25.0403  -21.1871  -14.2439 O   0  0  0  0  0  0  0  0  0  0  0  0
   27.5672  -15.4627  -17.4438 C   0  0  0  0  0  0  0  0  0  0  0  0
   28.5852  -16.8905  -16.9369 S   0  0  0  0  0  0  0  0  0  0  0  0
   27.4250  -18.1868  -16.3494 C   0  0  0  0  0  0  0  0  0  0  0  0
   28.2907  -19.2887  -15.7937 C   0  0  0  0  0  0  0  0  0  0  0  0
   27.4949  -20.4943  -15.3340 C   0  0  2  0  0  0  0  0  0  0  0  0
   27.1576  -20.4003  -13.9282 N   0  0  0  0  0  0  0  0  0  0  0  0
   28.1526  -21.7612  -15.6575 C   0  0  0  0  0  0  0  0  0  0  0  0
   29.1543  -22.1549  -15.0062 O   0  0  0  0  0  0  0  0  0  0  0  0
   27.4815  -24.7941  -17.8131 C   0  0  0  0  0  0  0  0  0  0  0  0
   28.3379  -23.8377  -17.0114 C   0  0  2  0  0  0  0  0  0  0  0  0
   27.6973  -22.5983  -16.7110 N   0  0  0  0  0  0  0  0  0  0  0  0
   29.6210  -23.6451  -17.7516 C   0  0  0  0  0  0  0  0  0  0  0  0
   29.6722  -22.7168  -18.6029 O   0  0  0  0  0  0  0  0  0  0  0  0
   30.7367  -24.4235  -17.5508 O   0  0  0  0  0  0  0  0  0  0  0  0
  2  1  1  6
  2  3  1  0
  2 13  1  0
  4  3  1  0
  4  5  2  0
  6  5  1  0
  7  6  1  0
  8  7  2  0
  9  8  1  0
 10  9  2  0
 10 11  1  0
 11 12  2  0
 12  7  1  0
 12  4  1  0
 13 14  2  0
 16 15  1  0
 17 18  1  0
 17 16  1  0
 19 18  1  1
 19 21  1  0
 20 19  1  0
 20 13  1  0
 21 22  2  0
 24 23  1  6
 24 26  1  0
 25 21  1  0
 25 24  1  0
 26 27  2  0
 26 28  1  0
M  END
$$$$
