WMA.pdb
     RDKit          3D

 28 29  0  0  1  0  0  0  0  0999 V2000
   20.5860  -21.4251  -14.4921 N   0  0  0  0  0  0  0  0  0  0  0  0
   20.9960  -22.4116  -13.5545 C   0  0  1  0  0  0  0  0  0  0  0  0
   22.2339  -22.0776  -12.7899 C   0  0  0  0  0  0  0  0  0  0  0  0
   23.3652  -21.9499  -13.7311 C   0  0  0  0  0  0  0  0  0  0  0  0
   23.9412  -20.7557  -14.1738 C   0  0  0  0  0  0  0  0  0  0  0  0
   24.9565  -21.0283  -14.9977 N   0  0  0  0  0  0  0  0  0  0  0  0
   25.0758  -22.3526  -15.1185 C   0  0  0  0  0  0  0  0  0  0  0  0
   25.9534  -23.1481  -15.8478 C   0  0  0  0  0  0  0  0  0  0  0  0
   25.8777  -24.5219  -15.8205 C   0  0  0  0  0  0  0  0  0  0  0  0
   24.8967  -25.1035  -15.0419 C   0  0  0  0  0  0  0  0  0  0  0  0
   24.0254  -24.3163  -14.3175 C   0  0  0  0  0  0  0  0  0  0  0  0
   24.0920  -22.9490  -14.3366 C   0  0  0  0  0  0  0  0  0  0  0  0
   19.8685  -22.8172  -12.6672 C   0  0  0  0  0  0  0  0  0  0  0  0
   19.1812  -21.8952  -12.1603 O   0  0  0  0  0  0  0  0  0  0  0  0
   15.1088  -28.4098  -10.9442 C   0  0  0  0  0  0  0  0  0  0  0  0
   15.3502  -27.0832  -12.1746 S   0  0  0  0  0  0  0  0  0  0  0  0
   16.2290  -25.7181  -11.3168 C   0  0  0  0  0  0  0  0  0  0  0  0
   17.4424  -25.4196  -12.1601 C   0  0  0  0  0  0  0  0  0  0  0  0
   18.4127  -24.4682  -11.4882 C   0  0  2  0  0  0  0  0  0  0  0  0
   19.5222  -24.1414  -12.3606 N   0  0  0  0  0  0  0  0  0  0  0  0
   18.8645  -24.9521  -10.1828 C   0  0  0  0  0  0  0  0  0  0  0  0
   19.7720  -25.8188  -10.0927 O   0  0  0  0  0  0  0  0  0  0  0  0
   18.4348  -24.0981   -6.5334 C   0  0  0  0  0  0  0  0  0  0  0  0
   18.6770  -25.0251   -7.7052 C   0  0  2  0  0  0  0  0  0  0  0  0
   18.3065  -24.4724   -8.9677 N   0  0  0  0  0  0  0  0  0  0  0  0
   17.9710  -26.3107   -7.4226 C   0  0  0  0  0  0  0  0  0  0  0  0
   16.9779  -26.6037   -8.1416 O   0  0  0  0  0  0  0  0  0  0  0  0
   18.3486  -27.1804   -6.4267 O   0  0  0  0  0  0  0  0  0  0  0  0
  2  1  1  1
  2  3  1  0
  2 13  1  0
  4  3  1  0
  4  5  2  0
  6  5  1  0
  7  6  1  0
  8  7  2  0
  9  8  1  0
 10  9  2  0
 10 11  1  0
 11 12  2  0
 12  7  1  0
 12  4  1  0
 13 14  2  0
 16 15  1  0
 17 18  1  0
 17 16  1  0
 19 18  1  6
 19 21  1  0
 20 19  1  0
 20 13  1  0
 21 22  2  0
 24 23  1  1
 24 26  1  0
 25 21  1  0
 25 24  1  0
 26 27  2  0
 26 28  1  0
M  END
$$$$
