WMA.pdb
     RDKit          3D

 28 29  0  0  1  0  0  0  0  0999 V2000
   26.4124  -18.3078   -8.7303 N   0  0  0  0  0  0  0  0  0  0  0  0
   26.6686  -19.6747   -9.0243 C   0  0  1  0  0  0  0  0  0  0  0  0
   26.3903  -20.6224   -7.9049 C   0  0  0  0  0  0  0  0  0  0  0  0
   27.1143  -20.1731   -6.6983 C   0  0  0  0  0  0  0  0  0  0  0  0
   26.6118  -19.3388   -5.6956 C   0  0  0  0  0  0  0  0  0  0  0  0
   27.5394  -19.1690   -4.7497 N   0  0  0  0  0  0  0  0  0  0  0  0
   28.6342  -19.8556   -5.0851 C   0  0  0  0  0  0  0  0  0  0  0  0
   29.8674  -20.0097   -4.4602 C   0  0  0  0  0  0  0  0  0  0  0  0
   30.8669  -20.7783   -5.0114 C   0  0  0  0  0  0  0  0  0  0  0  0
   30.6164  -21.4033   -6.2171 C   0  0  0  0  0  0  0  0  0  0  0  0
   29.3939  -21.2520   -6.8385 C   0  0  0  0  0  0  0  0  0  0  0  0
   28.3922  -20.4904   -6.2989 C   0  0  0  0  0  0  0  0  0  0  0  0
   26.0126  -20.0868  -10.2982 C   0  0  0  0  0  0  0  0  0  0  0  0
   24.8511  -19.6547  -10.5076 O   0  0  0  0  0  0  0  0  0  0  0  0
   27.4252  -22.7420  -17.6226 C   0  0  0  0  0  0  0  0  0  0  0  0
   28.0206  -22.4998  -15.9142 S   0  0  0  0  0  0  0  0  0  0  0  0
   26.6624  -21.6785  -14.9909 C   0  0  0  0  0  0  0  0  0  0  0  0
   27.1359  -21.5874  -13.5626 C   0  0  0  0  0  0  0  0  0  0  0  0
   26.1168  -20.9500  -12.6389 C   0  0  2  0  0  0  0  0  0  0  0  0
   26.5928  -20.9139  -11.2711 N   0  0  0  0  0  0  0  0  0  0  0  0
   24.7948  -21.5693  -12.7443 C   0  0  0  0  0  0  0  0  0  0  0  0
   24.5712  -22.7049  -12.2513 O   0  0  0  0  0  0  0  0  0  0  0  0
   21.3180  -20.5689  -13.8738 C   0  0  0  0  0  0  0  0  0  0  0  0
   22.4207  -21.5280  -13.4800 C   0  0  2  0  0  0  0  0  0  0  0  0
   23.7122  -20.9257  -13.4013 N   0  0  0  0  0  0  0  0  0  0  0  0
   22.3900  -22.6750  -14.4365 C   0  0  0  0  0  0  0  0  0  0  0  0
   23.3407  -22.7780  -15.2579 O   0  0  0  0  0  0  0  0  0  0  0  0
   21.3854  -23.6135  -14.4633 O   0  0  0  0  0  0  0  0  0  0  0  0
  2  1  1  1
  2  3  1  0
  2 13  1  0
  4  3  1  0
  4  5  2  0
  6  5  1  0
  7  6  1  0
  8  7  2  0
  9  8  1  0
 10  9  2  0
 10 11  1  0
 11 12  2  0
 12  7  1  0
 12  4  1  0
 13 14  2  0
 16 15  1  0
 17 18  1  0
 17 16  1  0
 19 18  1  6
 19 21  1  0
 20 19  1  0
 20 13  1  0
 21 22  2  0
 24 23  1  6
 24 26  1  0
 25 21  1  0
 25 24  1  0
 26 27  2  0
 26 28  1  0
M  END
$$$$
