WMA.pdb
     RDKit          3D

 28 29  0  0  1  0  0  0  0  0999 V2000
   26.5653  -21.3580  -12.8383 N   0  0  0  0  0  0  0  0  0  0  0  0
   25.9874  -20.4160  -11.9445 C   0  0  1  0  0  0  0  0  0  0  0  0
   24.6612  -19.8773  -12.3684 C   0  0  0  0  0  0  0  0  0  0  0  0
   24.7642  -19.3693  -13.7517 C   0  0  0  0  0  0  0  0  0  0  0  0
   24.0416  -19.8284  -14.8567 C   0  0  0  0  0  0  0  0  0  0  0  0
   24.3783  -19.1181  -15.9366 N   0  0  0  0  0  0  0  0  0  0  0  0
   25.2934  -18.2090  -15.5920 C   0  0  0  0  0  0  0  0  0  0  0  0
   25.9680  -17.2390  -16.3261 C   0  0  0  0  0  0  0  0  0  0  0  0
   26.8927  -16.4032  -15.7430 C   0  0  0  0  0  0  0  0  0  0  0  0
   27.1411  -16.5498  -14.3925 C   0  0  0  0  0  0  0  0  0  0  0  0
   26.4728  -17.5111  -13.6625 C   0  0  0  0  0  0  0  0  0  0  0  0
   25.5505  -18.3474  -14.2320 C   0  0  0  0  0  0  0  0  0  0  0  0
   25.9731  -20.9340  -10.5465 C   0  0  0  0  0  0  0  0  0  0  0  0
   25.7493  -22.1614  -10.3951 O   0  0  0  0  0  0  0  0  0  0  0  0
   28.9085  -19.7969   -4.2111 C   0  0  0  0  0  0  0  0  0  0  0  0
   28.7235  -18.7727   -5.7106 S   0  0  0  0  0  0  0  0  0  0  0  0
   28.1347  -19.8881   -7.0451 C   0  0  0  0  0  0  0  0  0  0  0  0
   26.6299  -19.8022   -7.0153 C   0  0  0  0  0  0  0  0  0  0  0  0
   25.9648  -20.6727   -8.0632 C   0  0  2  0  0  0  0  0  0  0  0  0
   26.1900  -20.1578   -9.3986 N   0  0  0  0  0  0  0  0  0  0  0  0
   24.5436  -20.8948   -7.7927 C   0  0  0  0  0  0  0  0  0  0  0  0
   23.6697  -20.1053   -8.2350 O   0  0  0  0  0  0  0  0  0  0  0  0
   22.3373  -23.7013   -6.6698 C   0  0  0  0  0  0  0  0  0  0  0  0
   22.6962  -22.2377   -6.8113 C   0  0  2  0  0  0  0  0  0  0  0  0
   24.0870  -22.0000   -7.0259 N   0  0  0  0  0  0  0  0  0  0  0  0
   22.1810  -21.5235   -5.6047 C   0  0  0  0  0  0  0  0  0  0  0  0
   23.0198  -20.9374   -4.8686 O   0  0  0  0  0  0  0  0  0  0  0  0
   20.8500  -21.4753   -5.2626 O   0  0  0  0  0  0  0  0  0  0  0  0
  2  1  1  6
  2  3  1  0
  2 13  1  0
  4  3  1  0
  4  5  2  0
  6  5  1  0
  7  6  1  0
  8  7  2  0
  9  8  1  0
 10  9  2  0
 10 11  1  0
 11 12  2  0
 12  7  1  0
 12  4  1  0
 13 14  2  0
 16 15  1  0
 17 18  1  0
 17 16  1  0
 19 18  1  1
 19 21  1  0
 20 19  1  0
 20 13  1  0
 21 22  2  0
 24 23  1  1
 24 26  1  0
 25 21  1  0
 25 24  1  0
 26 27  2  0
 26 28  1  0
M  END
$$$$
