WMA.pdb
     RDKit          3D

 28 29  0  0  1  0  0  0  0  0999 V2000
   28.5550  -20.4964  -15.0111 N   0  0  0  0  0  0  0  0  0  0  0  0
   27.4748  -19.9511  -14.2655 C   0  0  1  0  0  0  0  0  0  0  0  0
   26.2974  -19.5283  -15.0802 C   0  0  0  0  0  0  0  0  0  0  0  0
   26.7094  -18.4536  -16.0060 C   0  0  0  0  0  0  0  0  0  0  0  0
   27.0333  -18.6059  -17.3573 C   0  0  0  0  0  0  0  0  0  0  0  0
   27.3337  -17.4146  -17.8813 N   0  0  0  0  0  0  0  0  0  0  0  0
   27.2224  -16.4813  -16.9332 C   0  0  0  0  0  0  0  0  0  0  0  0
   27.4247  -15.1051  -16.9497 C   0  0  0  0  0  0  0  0  0  0  0  0
   27.2516  -14.3346  -15.8228 C   0  0  0  0  0  0  0  0  0  0  0  0
   26.8669  -14.9661  -14.6565 C   0  0  0  0  0  0  0  0  0  0  0  0
   26.6655  -16.3309  -14.6379 C   0  0  0  0  0  0  0  0  0  0  0  0
   26.8340  -17.1069  -15.7531 C   0  0  0  0  0  0  0  0  0  0  0  0
   27.0949  -20.8420  -13.1319 C   0  0  0  0  0  0  0  0  0  0  0  0
   26.9825  -22.0683  -13.3829 O   0  0  0  0  0  0  0  0  0  0  0  0
   28.5063  -19.7323   -6.4625 C   0  0  0  0  0  0  0  0  0  0  0  0
   26.8618  -19.7665   -7.2539 S   0  0  0  0  0  0  0  0  0  0  0  0
   27.0865  -20.5249   -8.9109 C   0  0  0  0  0  0  0  0  0  0  0  0
   25.7698  -20.3478   -9.6234 C   0  0  0  0  0  0  0  0  0  0  0  0
   25.7664  -20.9379  -11.0198 C   0  0  2  0  0  0  0  0  0  0  0  0
   26.8567  -20.4144  -11.8175 N   0  0  0  0  0  0  0  0  0  0  0  0
   24.4743  -20.7902  -11.6914 C   0  0  0  0  0  0  0  0  0  0  0  0
   24.1394  -19.6973  -12.2168 O   0  0  0  0  0  0  0  0  0  0  0  0
   22.0421  -22.8590  -13.4627 C   0  0  0  0  0  0  0  0  0  0  0  0
   22.3170  -21.7282  -12.4947 C   0  0  2  0  0  0  0  0  0  0  0  0
   23.5459  -21.8616  -11.7814 N   0  0  0  0  0  0  0  0  0  0  0  0
   21.1421  -21.6164  -11.5791 C   0  0  0  0  0  0  0  0  0  0  0  0
   20.0164  -21.3840  -12.0967 O   0  0  0  0  0  0  0  0  0  0  0  0
   21.2289  -21.7536  -10.2136 O   0  0  0  0  0  0  0  0  0  0  0  0
  2  1  1  6
  2  3  1  0
  2 13  1  0
  4  3  1  0
  4  5  2  0
  6  5  1  0
  7  6  1  0
  8  7  2  0
  9  8  1  0
 10  9  2  0
 10 11  1  0
 11 12  2  0
 12  7  1  0
 12  4  1  0
 13 14  2  0
 16 15  1  0
 17 18  1  0
 17 16  1  0
 19 18  1  1
 19 21  1  0
 20 19  1  0
 20 13  1  0
 21 22  2  0
 24 23  1  6
 24 26  1  0
 25 21  1  0
 25 24  1  0
 26 27  2  0
 26 28  1  0
M  END
$$$$
