WMA.pdb
     RDKit          3D

 28 29  0  0  1  0  0  0  0  0999 V2000
   21.2052  -12.1604  -16.7327 N   0  0  0  0  0  0  0  0  0  0  0  0
   20.5154  -10.9924  -17.1574 C   0  0  1  0  0  0  0  0  0  0  0  0
   19.0977  -10.8970  -16.6994 C   0  0  0  0  0  0  0  0  0  0  0  0
   18.3064  -11.9631  -17.3470 C   0  0  0  0  0  0  0  0  0  0  0  0
   18.7910  -13.1946  -17.7969 C   0  0  0  0  0  0  0  0  0  0  0  0
   17.7851  -13.9116  -18.3048 N   0  0  0  0  0  0  0  0  0  0  0  0
   16.6559  -13.2056  -18.2100 C   0  0  0  0  0  0  0  0  0  0  0  0
   15.3466  -13.4837  -18.5886 C   0  0  0  0  0  0  0  0  0  0  0  0
   14.3287  -12.5788  -18.3919 C   0  0  0  0  0  0  0  0  0  0  0  0
   14.6390  -11.3695  -17.8017 C   0  0  0  0  0  0  0  0  0  0  0  0
   15.9369  -11.0917  -17.4252 C   0  0  0  0  0  0  0  0  0  0  0  0
   16.9571  -11.9848  -17.6153 C   0  0  0  0  0  0  0  0  0  0  0  0
   21.2981   -9.7604  -16.8533 C   0  0  0  0  0  0  0  0  0  0  0  0
   21.5789   -9.5461  -15.6472 O   0  0  0  0  0  0  0  0  0  0  0  0
   26.5879   -4.9430  -17.3924 C   0  0  0  0  0  0  0  0  0  0  0  0
   25.5825   -6.3924  -17.8615 S   0  0  0  0  0  0  0  0  0  0  0  0
   23.9172   -5.7605  -18.3077 C   0  0  0  0  0  0  0  0  0  0  0  0
   23.0976   -6.9773  -18.6541 C   0  0  0  0  0  0  0  0  0  0  0  0
   22.4696   -7.6351  -17.4412 C   0  0  2  0  0  0  0  0  0  0  0  0
   21.7402   -8.8321  -17.8073 N   0  0  0  0  0  0  0  0  0  0  0  0
   21.6488   -6.7094  -16.6591 C   0  0  0  0  0  0  0  0  0  0  0  0
   20.5215   -6.3355  -17.0740 O   0  0  0  0  0  0  0  0  0  0  0  0
   21.4750   -5.3661  -13.1648 C   0  0  0  0  0  0  0  0  0  0  0  0
   21.2831   -5.2734  -14.6633 C   0  0  2  0  0  0  0  0  0  0  0  0
   22.0804   -6.1936  -15.4079 N   0  0  0  0  0  0  0  0  0  0  0  0
   21.5302   -3.8567  -15.0675 C   0  0  0  0  0  0  0  0  0  0  0  0
   20.8294   -2.9617  -14.5226 O   0  0  0  0  0  0  0  0  0  0  0  0
   22.4753   -3.4865  -15.9952 O   0  0  0  0  0  0  0  0  0  0  0  0
  2  1  1  1
  2  3  1  0
  2 13  1  0
  4  3  1  0
  4  5  2  0
  6  5  1  0
  7  6  1  0
  8  7  2  0
  9  8  1  0
 10  9  2  0
 10 11  1  0
 11 12  2  0
 12  7  1  0
 12  4  1  0
 13 14  2  0
 16 15  1  0
 17 18  1  0
 17 16  1  0
 19 18  1  6
 19 21  1  0
 20 19  1  0
 20 13  1  0
 21 22  2  0
 24 23  1  1
 24 26  1  0
 25 21  1  0
 25 24  1  0
 26 27  2  0
 26 28  1  0
M  END
$$$$
