WNE.pdb
     RDKit          3D

 32 33  0  0  1  0  0  0  0  0999 V2000
   24.4514  -18.9443  -17.4418 N   0  0  0  0  0  0  0  0  0  0  0  0
   23.0361  -18.5769  -17.6745 C   0  0  1  0  0  0  0  0  0  0  0  0
   22.6695  -19.2212  -18.9588 C   0  0  0  0  0  0  0  0  0  0  0  0
   23.2851  -18.7240  -20.1749 C   0  0  0  0  0  0  0  0  0  0  0  0
   24.2581  -19.3588  -20.9010 C   0  0  0  0  0  0  0  0  0  0  0  0
   24.5939  -18.6037  -21.9466 N   0  0  0  0  0  0  0  0  0  0  0  0
   23.8663  -17.4790  -21.9344 C   0  0  0  0  0  0  0  0  0  0  0  0
   23.8575  -16.3909  -22.8111 C   0  0  0  0  0  0  0  0  0  0  0  0
   23.0060  -15.3320  -22.5864 C   0  0  0  0  0  0  0  0  0  0  0  0
   22.1768  -15.3885  -21.4803 C   0  0  0  0  0  0  0  0  0  0  0  0
   22.1922  -16.4661  -20.6207 C   0  0  0  0  0  0  0  0  0  0  0  0
   23.0387  -17.5387  -20.8275 C   0  0  0  0  0  0  0  0  0  0  0  0
   22.2862  -18.9638  -16.4900 C   0  0  0  0  0  0  0  0  0  0  0  0
   22.6427  -20.0284  -15.8773 O   0  0  0  0  0  0  0  0  0  0  0  0
   19.4346  -19.3150  -12.2038 N   0  0  0  0  0  0  0  0  0  0  0  0
   19.6780  -17.9610  -12.5311 C   0  0  0  0  0  0  0  0  0  0  0  0
   19.3690  -17.0843  -11.6932 O   0  0  0  0  0  0  0  0  0  0  0  0
   20.2811  -17.5914  -13.8273 C   0  0  0  0  0  0  0  0  0  0  0  0
   20.5105  -18.8277  -14.7273 C   0  0  2  0  0  0  0  0  0  0  0  0
   21.1793  -18.2837  -15.9145 N   0  0  0  0  0  0  0  0  0  0  0  0
   19.2362  -19.4892  -15.0287 C   0  0  0  0  0  0  0  0  0  0  0  0
   18.4042  -18.9516  -15.8400 O   0  0  0  0  0  0  0  0  0  0  0  0
   18.8137  -20.7218  -14.4891 N   0  0  0  0  0  0  0  0  0  0  0  0
   17.5617  -21.4009  -14.8990 C   0  0  1  0  0  0  0  0  0  0  0  0
   17.5574  -22.8000  -14.3987 C   0  0  0  0  0  0  0  0  0  0  0  0
   16.3326  -23.5471  -14.8320 C   0  0  0  0  0  0  0  0  0  0  0  0
   15.6822  -24.1333  -13.6008 C   0  0  0  0  0  0  0  0  0  0  0  0
   16.2291  -23.9158  -12.4962 O   0  0  0  0  0  0  0  0  0  0  0  0
   16.4634  -20.6145  -14.3386 C   0  0  0  0  0  0  0  0  0  0  0  0
   15.4264  -20.2928  -15.0252 O   0  0  0  0  0  0  0  0  0  0  0  0
   14.5297  -24.8702  -13.7633 O   0  0  0  0  0  0  0  0  0  0  0  0
   16.4846  -20.1759  -13.0277 O   0  0  0  0  0  0  0  0  0  0  0  0
  2  1  1  1
  2 13  1  0
  2  3  1  0
  4  3  1  0
  4  5  2  0
  6  5  1  0
  7  6  1  0
  8  7  2  0
  9  8  1  0
 10  9  2  0
 10 11  1  0
 11 12  2  0
 12  7  1  0
 12  4  1  0
 13 14  2  0
 15 16  1  0
 16 18  1  0
 17 16  2  0
 19 18  1  1
 20 19  1  0
 20 13  1  0
 21 22  2  0
 21 19  1  0
 23 21  1  0
 24 29  1  0
 24 23  1  0
 24 25  1  1
 26 25  1  0
 27 26  1  0
 27 28  2  0
 29 32  1  0
 30 29  2  0
 31 27  1  0
M  END
$$$$
