WNE.pdb
     RDKit          3D

 32 33  0  0  1  0  0  0  0  0999 V2000
   26.6798  -19.1574  -16.8976 N   0  0  0  0  0  0  0  0  0  0  0  0
   25.9667  -18.5117  -15.7721 C   0  0  1  0  0  0  0  0  0  0  0  0
   25.0238  -17.5558  -16.4016 C   0  0  0  0  0  0  0  0  0  0  0  0
   25.5707  -16.3694  -17.0330 C   0  0  0  0  0  0  0  0  0  0  0  0
   25.5288  -16.0792  -18.3713 C   0  0  0  0  0  0  0  0  0  0  0  0
   26.1401  -14.9155  -18.5913 N   0  0  0  0  0  0  0  0  0  0  0  0
   26.5891  -14.4228  -17.4293 C   0  0  0  0  0  0  0  0  0  0  0  0
   27.2849  -13.2439  -17.1485 C   0  0  0  0  0  0  0  0  0  0  0  0
   27.6450  -12.9485  -15.8526 C   0  0  0  0  0  0  0  0  0  0  0  0
   27.2969  -13.8479  -14.8604 C   0  0  0  0  0  0  0  0  0  0  0  0
   26.6104  -15.0086  -15.1466 C   0  0  0  0  0  0  0  0  0  0  0  0
   26.2395  -15.3243  -16.4399 C   0  0  0  0  0  0  0  0  0  0  0  0
   25.4021  -19.5706  -14.9506 C   0  0  0  0  0  0  0  0  0  0  0  0
   24.8490  -20.5588  -15.5449 O   0  0  0  0  0  0  0  0  0  0  0  0
   27.3406  -20.3405  -10.6446 N   0  0  0  0  0  0  0  0  0  0  0  0
   26.3000  -21.0898  -11.2405 C   0  0  0  0  0  0  0  0  0  0  0  0
   26.5608  -22.2424  -11.6522 O   0  0  0  0  0  0  0  0  0  0  0  0
   24.9412  -20.5270  -11.3732 C   0  0  0  0  0  0  0  0  0  0  0  0
   24.4561  -20.5376  -12.8413 C   0  0  2  0  0  0  0  0  0  0  0  0
   25.3928  -19.6438  -13.5316 N   0  0  0  0  0  0  0  0  0  0  0  0
   23.0599  -20.0953  -12.9258 C   0  0  0  0  0  0  0  0  0  0  0  0
   22.7559  -18.8691  -12.7175 O   0  0  0  0  0  0  0  0  0  0  0  0
   21.9620  -20.9264  -13.2308 N   0  0  0  0  0  0  0  0  0  0  0  0
   20.5681  -20.4303  -13.3186 C   0  0  1  0  0  0  0  0  0  0  0  0
   20.4242  -19.5289  -14.4909 C   0  0  0  0  0  0  0  0  0  0  0  0
   20.9183  -20.1673  -15.7537 C   0  0  0  0  0  0  0  0  0  0  0  0
   19.7669  -20.2261  -16.7299 C   0  0  0  0  0  0  0  0  0  0  0  0
   18.6511  -19.8172  -16.3366 O   0  0  0  0  0  0  0  0  0  0  0  0
   19.7154  -21.6135  -13.4282 C   0  0  0  0  0  0  0  0  0  0  0  0
   20.1890  -22.7845  -13.6620 O   0  0  0  0  0  0  0  0  0  0  0  0
   20.0093  -20.7239  -17.9913 O   0  0  0  0  0  0  0  0  0  0  0  0
   18.3433  -21.5309  -13.2812 O   0  0  0  0  0  0  0  0  0  0  0  0
  2  1  1  6
  2 13  1  0
  2  3  1  0
  4  3  1  0
  4  5  2  0
  6  5  1  0
  7  6  1  0
  8  7  2  0
  9  8  1  0
 10  9  2  0
 10 11  1  0
 11 12  2  0
 12  7  1  0
 12  4  1  0
 13 14  2  0
 15 16  1  0
 16 18  1  0
 17 16  2  0
 19 18  1  1
 20 19  1  0
 20 13  1  0
 21 22  2  0
 21 19  1  0
 23 21  1  0
 24 29  1  0
 24 23  1  0
 24 25  1  6
 26 25  1  0
 27 26  1  0
 27 28  2  0
 29 32  1  0
 30 29  2  0
 31 27  1  0
M  END
$$$$
