WNE.pdb
     RDKit          3D

 32 33  0  0  1  0  0  0  0  0999 V2000
   27.3015  -22.0592  -14.6106 N   0  0  0  0  0  0  0  0  0  0  0  0
   26.2767  -21.4837  -13.7104 C   0  0  1  0  0  0  0  0  0  0  0  0
   26.9064  -20.2787  -13.1184 C   0  0  0  0  0  0  0  0  0  0  0  0
   27.8518  -20.4627  -12.0334 C   0  0  0  0  0  0  0  0  0  0  0  0
   29.2168  -20.4078  -12.1384 C   0  0  0  0  0  0  0  0  0  0  0  0
   29.7623  -20.6369  -10.9442 N   0  0  0  0  0  0  0  0  0  0  0  0
   28.7915  -20.8434  -10.0445 C   0  0  0  0  0  0  0  0  0  0  0  0
   28.8619  -21.1196   -8.6765 C   0  0  0  0  0  0  0  0  0  0  0  0
   27.7061  -21.2959   -7.9489 C   0  0  0  0  0  0  0  0  0  0  0  0
   26.4973  -21.1905   -8.6138 C   0  0  0  0  0  0  0  0  0  0  0  0
   26.4373  -20.9177   -9.9638 C   0  0  0  0  0  0  0  0  0  0  0  0
   27.5848  -20.7375  -10.7125 C   0  0  0  0  0  0  0  0  0  0  0  0
   25.0668  -21.2936  -14.4946 C   0  0  0  0  0  0  0  0  0  0  0  0
   25.0698  -21.6992  -15.7075 O   0  0  0  0  0  0  0  0  0  0  0  0
   20.2850  -21.8681  -16.0215 N   0  0  0  0  0  0  0  0  0  0  0  0
   21.1088  -22.8298  -15.3922 C   0  0  0  0  0  0  0  0  0  0  0  0
   20.7671  -24.0321  -15.4513 O   0  0  0  0  0  0  0  0  0  0  0  0
   22.3400  -22.4257  -14.6841 C   0  0  0  0  0  0  0  0  0  0  0  0
   22.6126  -20.9103  -14.8252 C   0  0  2  0  0  0  0  0  0  0  0  0
   23.8496  -20.6994  -14.0649 N   0  0  0  0  0  0  0  0  0  0  0  0
   21.4771  -20.1329  -14.3166 C   0  0  0  0  0  0  0  0  0  0  0  0
   20.9136  -20.4567  -13.2135 O   0  0  0  0  0  0  0  0  0  0  0  0
   20.9154  -19.0058  -14.9516 N   0  0  0  0  0  0  0  0  0  0  0  0
   20.1354  -17.9724  -14.2302 C   0  0  1  0  0  0  0  0  0  0  0  0
   19.9911  -16.7620  -15.0798 C   0  0  0  0  0  0  0  0  0  0  0  0
   19.2445  -15.6688  -14.3772 C   0  0  0  0  0  0  0  0  0  0  0  0
   18.6526  -14.7572  -15.4264 C   0  0  0  0  0  0  0  0  0  0  0  0
   18.9258  -14.9966  -16.6242 O   0  0  0  0  0  0  0  0  0  0  0  0
   18.8423  -18.5779  -13.9136 C   0  0  0  0  0  0  0  0  0  0  0  0
   18.2728  -19.4300  -14.6880 O   0  0  0  0  0  0  0  0  0  0  0  0
   17.8498  -13.7192  -15.0071 O   0  0  0  0  0  0  0  0  0  0  0  0
   18.1626  -18.2629  -12.7518 O   0  0  0  0  0  0  0  0  0  0  0  0
  2  1  1  6
  2 13  1  0
  2  3  1  0
  4  3  1  0
  4  5  2  0
  6  5  1  0
  7  6  1  0
  8  7  2  0
  9  8  1  0
 10  9  2  0
 10 11  1  0
 11 12  2  0
 12  7  1  0
 12  4  1  0
 13 14  2  0
 15 16  1  0
 16 18  1  0
 17 16  2  0
 19 18  1  1
 20 19  1  0
 20 13  1  0
 21 22  2  0
 21 19  1  0
 23 21  1  0
 24 29  1  0
 24 23  1  0
 24 25  1  6
 26 25  1  0
 27 26  1  0
 27 28  2  0
 29 32  1  0
 30 29  2  0
 31 27  1  0
M  END
$$$$
