WNE.pdb
     RDKit          3D

 32 33  0  0  1  0  0  0  0  0999 V2000
   28.0382  -20.1137   -9.7624 N   0  0  0  0  0  0  0  0  0  0  0  0
   26.7349  -20.7656   -9.5007 C   0  0  1  0  0  0  0  0  0  0  0  0
   26.1645  -20.0487   -8.3346 C   0  0  0  0  0  0  0  0  0  0  0  0
   27.0816  -19.4681   -7.3719 C   0  0  0  0  0  0  0  0  0  0  0  0
   27.7385  -18.2733   -7.5067 C   0  0  0  0  0  0  0  0  0  0  0  0
   28.5057  -18.0667   -6.4367 N   0  0  0  0  0  0  0  0  0  0  0  0
   28.3753  -19.0971   -5.5907 C   0  0  0  0  0  0  0  0  0  0  0  0
   28.9699  -19.3365   -4.3490 C   0  0  0  0  0  0  0  0  0  0  0  0
   28.6744  -20.4883   -3.6543 C   0  0  0  0  0  0  0  0  0  0  0  0
   27.7831  -21.3802   -4.2240 C   0  0  0  0  0  0  0  0  0  0  0  0
   27.2013  -21.1358   -5.4495 C   0  0  0  0  0  0  0  0  0  0  0  0
   27.4839  -19.9867   -6.1633 C   0  0  0  0  0  0  0  0  0  0  0  0
   25.9783  -20.7386  -10.7424 C   0  0  0  0  0  0  0  0  0  0  0  0
   25.7895  -19.6049  -11.3037 O   0  0  0  0  0  0  0  0  0  0  0  0
   26.8386  -21.5431  -14.1345 N   0  0  0  0  0  0  0  0  0  0  0  0
   26.0478  -22.7091  -14.2555 C   0  0  0  0  0  0  0  0  0  0  0  0
   26.4365  -23.6105  -15.0317 O   0  0  0  0  0  0  0  0  0  0  0  0
   24.7965  -22.8590  -13.4861 C   0  0  0  0  0  0  0  0  0  0  0  0
   24.5294  -21.6350  -12.5798 C   0  0  2  0  0  0  0  0  0  0  0  0
   25.4115  -21.8474  -11.4268 N   0  0  0  0  0  0  0  0  0  0  0  0
   23.1090  -21.5603  -12.2201 C   0  0  0  0  0  0  0  0  0  0  0  0
   22.7578  -21.1980  -11.0434 O   0  0  0  0  0  0  0  0  0  0  0  0
   22.0358  -21.8609  -13.0844 N   0  0  0  0  0  0  0  0  0  0  0  0
   20.6924  -21.2486  -12.9538 C   0  0  1  0  0  0  0  0  0  0  0  0
   20.8038  -19.7678  -13.0031 C   0  0  0  0  0  0  0  0  0  0  0  0
   19.4896  -19.0970  -12.7404 C   0  0  0  0  0  0  0  0  0  0  0  0
   19.6035  -17.6562  -13.1801 C   0  0  0  0  0  0  0  0  0  0  0  0
   18.6109  -16.9148  -13.0017 O   0  0  0  0  0  0  0  0  0  0  0  0
   19.8899  -21.7755  -14.0571 C   0  0  0  0  0  0  0  0  0  0  0  0
   18.6352  -22.0241  -13.9387 O   0  0  0  0  0  0  0  0  0  0  0  0
   20.7876  -17.2424  -13.7497 O   0  0  0  0  0  0  0  0  0  0  0  0
   20.4462  -22.0321  -15.2964 O   0  0  0  0  0  0  0  0  0  0  0  0
  2  1  1  6
  2 13  1  0
  2  3  1  0
  4  3  1  0
  4  5  2  0
  6  5  1  0
  7  6  1  0
  8  7  2  0
  9  8  1  0
 10  9  2  0
 10 11  1  0
 11 12  2  0
 12  7  1  0
 12  4  1  0
 13 14  2  0
 15 16  1  0
 16 18  1  0
 17 16  2  0
 19 18  1  6
 20 19  1  0
 20 13  1  0
 21 22  2  0
 21 19  1  0
 23 21  1  0
 24 29  1  0
 24 23  1  0
 24 25  1  6
 26 25  1  0
 27 26  1  0
 27 28  2  0
 29 32  1  0
 30 29  2  0
 31 27  1  0
M  END
$$$$
