WNE.pdb
     RDKit          3D

 32 33  0  0  1  0  0  0  0  0999 V2000
   22.0556  -25.0985  -17.1624 N   0  0  0  0  0  0  0  0  0  0  0  0
   22.5739  -25.9831  -16.0943 C   0  0  1  0  0  0  0  0  0  0  0  0
   22.9173  -25.0803  -14.9692 C   0  0  0  0  0  0  0  0  0  0  0  0
   24.0096  -24.1429  -15.1517 C   0  0  0  0  0  0  0  0  0  0  0  0
   23.9635  -22.7965  -14.9027 C   0  0  0  0  0  0  0  0  0  0  0  0
   25.1438  -22.2513  -15.1960 N   0  0  0  0  0  0  0  0  0  0  0  0
   25.9765  -23.2043  -15.6352 C   0  0  0  0  0  0  0  0  0  0  0  0
   27.3059  -23.1271  -16.0589 C   0  0  0  0  0  0  0  0  0  0  0  0
   27.9641  -24.2637  -16.4728 C   0  0  0  0  0  0  0  0  0  0  0  0
   27.2699  -25.4604  -16.4523 C   0  0  0  0  0  0  0  0  0  0  0  0
   25.9585  -25.5272  -16.0328 C   0  0  0  0  0  0  0  0  0  0  0  0
   25.2794  -24.3990  -15.6136 C   0  0  0  0  0  0  0  0  0  0  0  0
   21.5698  -27.0069  -15.8526 C   0  0  0  0  0  0  0  0  0  0  0  0
   20.3976  -26.8198  -16.3286 O   0  0  0  0  0  0  0  0  0  0  0  0
   23.1624  -31.9119  -15.4125 N   0  0  0  0  0  0  0  0  0  0  0  0
   22.0421  -31.0871  -15.6658 C   0  0  0  0  0  0  0  0  0  0  0  0
   21.7119  -30.8855  -16.8559 O   0  0  0  0  0  0  0  0  0  0  0  0
   21.2818  -30.4799  -14.5551 C   0  0  0  0  0  0  0  0  0  0  0  0
   20.6133  -29.1506  -14.9759 C   0  0  2  0  0  0  0  0  0  0  0  0
   21.7381  -28.2223  -15.1359 N   0  0  0  0  0  0  0  0  0  0  0  0
   19.6420  -28.7195  -13.9644 C   0  0  0  0  0  0  0  0  0  0  0  0
   18.6461  -29.4661  -13.6641 O   0  0  0  0  0  0  0  0  0  0  0  0
   19.6980  -27.5041  -13.2511 N   0  0  0  0  0  0  0  0  0  0  0  0
   18.7145  -27.1293  -12.2076 C   0  0  1  0  0  0  0  0  0  0  0  0
   19.3736  -26.3011  -11.1648 C   0  0  0  0  0  0  0  0  0  0  0  0
   18.4109  -25.8674  -10.1012 C   0  0  0  0  0  0  0  0  0  0  0  0
   19.1478  -24.9587   -9.1454 C   0  0  0  0  0  0  0  0  0  0  0  0
   20.3429  -24.6912   -9.4039 O   0  0  0  0  0  0  0  0  0  0  0  0
   17.6451  -26.4024  -12.8908 C   0  0  0  0  0  0  0  0  0  0  0  0
   17.8547  -25.7001  -13.9459 O   0  0  0  0  0  0  0  0  0  0  0  0
   18.4657  -24.4785   -8.0491 O   0  0  0  0  0  0  0  0  0  0  0  0
   16.3412  -26.4374  -12.4329 O   0  0  0  0  0  0  0  0  0  0  0  0
  2  1  1  6
  2 13  1  0
  2  3  1  0
  4  3  1  0
  4  5  2  0
  6  5  1  0
  7  6  1  0
  8  7  2  0
  9  8  1  0
 10  9  2  0
 10 11  1  0
 11 12  2  0
 12  7  1  0
 12  4  1  0
 13 14  2  0
 15 16  1  0
 16 18  1  0
 17 16  2  0
 19 18  1  1
 20 19  1  0
 20 13  1  0
 21 22  2  0
 21 19  1  0
 23 21  1  0
 24 29  1  0
 24 23  1  0
 24 25  1  1
 26 25  1  0
 27 26  1  0
 27 28  2  0
 29 32  1  0
 30 29  2  0
 31 27  1  0
M  END
$$$$
