WNE.pdb
     RDKit          3D

 32 33  0  0  1  0  0  0  0  0999 V2000
   27.2024  -22.4249  -10.2857 N   0  0  0  0  0  0  0  0  0  0  0  0
   26.6174  -21.0932  -10.0091 C   0  0  1  0  0  0  0  0  0  0  0  0
   27.7659  -20.2275   -9.6476 C   0  0  0  0  0  0  0  0  0  0  0  0
   28.5376  -20.5706   -8.4678 C   0  0  0  0  0  0  0  0  0  0  0  0
   29.6878  -21.3146   -8.4479 C   0  0  0  0  0  0  0  0  0  0  0  0
   30.1131  -21.4388   -7.1910 N   0  0  0  0  0  0  0  0  0  0  0  0
   29.2721  -20.7939   -6.3716 C   0  0  0  0  0  0  0  0  0  0  0  0
   29.2931  -20.6399   -4.9829 C   0  0  0  0  0  0  0  0  0  0  0  0
   28.3013  -19.9204   -4.3544 C   0  0  0  0  0  0  0  0  0  0  0  0
   27.3038  -19.3675   -5.1380 C   0  0  0  0  0  0  0  0  0  0  0  0
   27.2910  -19.5246   -6.5074 C   0  0  0  0  0  0  0  0  0  0  0  0
   28.2764  -20.2427   -7.1580 C   0  0  0  0  0  0  0  0  0  0  0  0
   25.8298  -20.7146  -11.1716 C   0  0  0  0  0  0  0  0  0  0  0  0
   26.4530  -20.4529  -12.2574 O   0  0  0  0  0  0  0  0  0  0  0  0
   26.2497  -22.0026  -14.6158 N   0  0  0  0  0  0  0  0  0  0  0  0
   25.1751  -21.1086  -14.4024 C   0  0  0  0  0  0  0  0  0  0  0  0
   25.1636  -20.0329  -15.0417 O   0  0  0  0  0  0  0  0  0  0  0  0
   24.0949  -21.4360  -13.4503 C   0  0  0  0  0  0  0  0  0  0  0  0
   23.7699  -20.2453  -12.5190 C   0  0  2  0  0  0  0  0  0  0  0  0
   24.4157  -20.6000  -11.2502 N   0  0  0  0  0  0  0  0  0  0  0  0
   22.3188  -20.0633  -12.4026 C   0  0  0  0  0  0  0  0  0  0  0  0
   21.8383  -18.9625  -11.9592 O   0  0  0  0  0  0  0  0  0  0  0  0
   21.3493  -21.0271  -12.7494 N   0  0  0  0  0  0  0  0  0  0  0  0
   19.8929  -20.8114  -12.5786 C   0  0  1  0  0  0  0  0  0  0  0  0
   19.1671  -21.2741  -13.7897 C   0  0  0  0  0  0  0  0  0  0  0  0
   19.4256  -22.7215  -14.0802 C   0  0  0  0  0  0  0  0  0  0  0  0
   18.0947  -23.3970  -14.3136 C   0  0  0  0  0  0  0  0  0  0  0  0
   17.8789  -24.4760  -13.7169 O   0  0  0  0  0  0  0  0  0  0  0  0
   19.5022  -21.5607  -11.3849 C   0  0  0  0  0  0  0  0  0  0  0  0
   20.2379  -22.4851  -10.8805 O   0  0  0  0  0  0  0  0  0  0  0  0
   17.1985  -22.7898  -15.1656 O   0  0  0  0  0  0  0  0  0  0  0  0
   18.3109  -21.3071  -10.7309 O   0  0  0  0  0  0  0  0  0  0  0  0
  2  1  1  6
  2 13  1  0
  2  3  1  0
  4  3  1  0
  4  5  2  0
  6  5  1  0
  7  6  1  0
  8  7  2  0
  9  8  1  0
 10  9  2  0
 10 11  1  0
 11 12  2  0
 12  7  1  0
 12  4  1  0
 13 14  2  0
 15 16  1  0
 16 18  1  0
 17 16  2  0
 19 18  1  6
 20 19  1  0
 20 13  1  0
 21 22  2  0
 21 19  1  0
 23 21  1  0
 24 29  1  0
 24 23  1  0
 24 25  1  6
 26 25  1  0
 27 26  1  0
 27 28  2  0
 29 32  1  0
 30 29  2  0
 31 27  1  0
M  END
$$$$
