WNE.pdb
     RDKit          3D

 32 33  0  0  1  0  0  0  0  0999 V2000
   27.2210  -21.6133  -16.0260 N   0  0  0  0  0  0  0  0  0  0  0  0
   26.6665  -20.4965  -15.2276 C   0  0  1  0  0  0  0  0  0  0  0  0
   26.3023  -19.4514  -16.2145 C   0  0  0  0  0  0  0  0  0  0  0  0
   27.3585  -18.6051  -16.7374 C   0  0  0  0  0  0  0  0  0  0  0  0
   28.2417  -18.9420  -17.7291 C   0  0  0  0  0  0  0  0  0  0  0  0
   29.0786  -17.9265  -17.9404 N   0  0  0  0  0  0  0  0  0  0  0  0
   28.7733  -16.9193  -17.1116 C   0  0  0  0  0  0  0  0  0  0  0  0
   29.3565  -15.6589  -16.9570 C   0  0  0  0  0  0  0  0  0  0  0  0
   28.8586  -14.7795  -16.0215 C   0  0  0  0  0  0  0  0  0  0  0  0
   27.7796  -15.1863  -15.2568 C   0  0  0  0  0  0  0  0  0  0  0  0
   27.2106  -16.4318  -15.4161 C   0  0  0  0  0  0  0  0  0  0  0  0
   27.6946  -17.3294  -16.3487 C   0  0  0  0  0  0  0  0  0  0  0  0
   25.6012  -21.0406  -14.4004 C   0  0  0  0  0  0  0  0  0  0  0  0
   24.9522  -22.0482  -14.8468 O   0  0  0  0  0  0  0  0  0  0  0  0
   21.7415  -21.7025  -10.9490 N   0  0  0  0  0  0  0  0  0  0  0  0
   22.6910  -20.8215  -10.3816 C   0  0  0  0  0  0  0  0  0  0  0  0
   22.4920  -20.4054   -9.2183 O   0  0  0  0  0  0  0  0  0  0  0  0
   23.8860  -20.4038  -11.1419 C   0  0  0  0  0  0  0  0  0  0  0  0
   23.8831  -20.9782  -12.5775 C   0  0  2  0  0  0  0  0  0  0  0  0
   25.1854  -20.5787  -13.1226 N   0  0  0  0  0  0  0  0  0  0  0  0
   22.7462  -20.4518  -13.3408 C   0  0  0  0  0  0  0  0  0  0  0  0
   22.6600  -19.1993  -13.5922 O   0  0  0  0  0  0  0  0  0  0  0  0
   21.6847  -21.2258  -13.8539 N   0  0  0  0  0  0  0  0  0  0  0  0
   20.6258  -20.6717  -14.7305 C   0  0  1  0  0  0  0  0  0  0  0  0
   20.1994  -21.6958  -15.7189 C   0  0  0  0  0  0  0  0  0  0  0  0
   19.0652  -21.2143  -16.5720 C   0  0  0  0  0  0  0  0  0  0  0  0
   18.6356  -22.3538  -17.4661 C   0  0  0  0  0  0  0  0  0  0  0  0
   19.2235  -23.4506  -17.3312 O   0  0  0  0  0  0  0  0  0  0  0  0
   19.5299  -20.2694  -13.8496 C   0  0  0  0  0  0  0  0  0  0  0  0
   19.2383  -20.9112  -12.7758 O   0  0  0  0  0  0  0  0  0  0  0  0
   17.6263  -22.1220  -18.3745 O   0  0  0  0  0  0  0  0  0  0  0  0
   18.7467  -19.1651  -14.1294 O   0  0  0  0  0  0  0  0  0  0  0  0
  2  1  1  6
  2 13  1  0
  2  3  1  0
  4  3  1  0
  4  5  2  0
  6  5  1  0
  7  6  1  0
  8  7  2  0
  9  8  1  0
 10  9  2  0
 10 11  1  0
 11 12  2  0
 12  7  1  0
 12  4  1  0
 13 14  2  0
 15 16  1  0
 16 18  1  0
 17 16  2  0
 19 18  1  1
 20 19  1  0
 20 13  1  0
 21 22  2  0
 21 19  1  0
 23 21  1  0
 24 29  1  0
 24 23  1  0
 24 25  1  6
 26 25  1  0
 27 26  1  0
 27 28  2  0
 29 32  1  0
 30 29  2  0
 31 27  1  0
M  END
$$$$
