WNE.pdb
     RDKit          3D

 32 33  0  0  1  0  0  0  0  0999 V2000
   27.0212  -22.3708  -11.3588 N   0  0  0  0  0  0  0  0  0  0  0  0
   26.2599  -21.3859  -10.5572 C   0  0  1  0  0  0  0  0  0  0  0  0
   27.1225  -20.1815  -10.4930 C   0  0  0  0  0  0  0  0  0  0  0  0
   28.2758  -20.2109   -9.6131 C   0  0  0  0  0  0  0  0  0  0  0  0
   29.5475  -20.5781   -9.9666 C   0  0  0  0  0  0  0  0  0  0  0  0
   30.3441  -20.4971   -8.9012 N   0  0  0  0  0  0  0  0  0  0  0  0
   29.6320  -20.0838   -7.8444 C   0  0  0  0  0  0  0  0  0  0  0  0
   30.0178  -19.8498   -6.5219 C   0  0  0  0  0  0  0  0  0  0  0  0
   29.0898  -19.4212   -5.5991 C   0  0  0  0  0  0  0  0  0  0  0  0
   27.7869  -19.2355   -6.0260 C   0  0  0  0  0  0  0  0  0  0  0  0
   27.4151  -19.4689   -7.3328 C   0  0  0  0  0  0  0  0  0  0  0  0
   28.3302  -19.8994   -8.2747 C   0  0  0  0  0  0  0  0  0  0  0  0
   24.9504  -21.2431  -11.1736 C   0  0  0  0  0  0  0  0  0  0  0  0
   24.8317  -21.5600  -12.4069 O   0  0  0  0  0  0  0  0  0  0  0  0
   19.8156  -20.9429  -12.0892 N   0  0  0  0  0  0  0  0  0  0  0  0
   20.0462  -20.7165  -10.7126 C   0  0  0  0  0  0  0  0  0  0  0  0
   19.0565  -20.6445   -9.9502 O   0  0  0  0  0  0  0  0  0  0  0  0
   21.4189  -20.5693  -10.1885 C   0  0  0  0  0  0  0  0  0  0  0  0
   22.4817  -20.8276  -11.2815 C   0  0  2  0  0  0  0  0  0  0  0  0
   23.7558  -20.7853  -10.5552 N   0  0  0  0  0  0  0  0  0  0  0  0
   22.3835  -19.8207  -12.3440 C   0  0  0  0  0  0  0  0  0  0  0  0
   21.9351  -18.6495  -12.0860 O   0  0  0  0  0  0  0  0  0  0  0  0
   22.7538  -20.0219  -13.6899 N   0  0  0  0  0  0  0  0  0  0  0  0
   22.6065  -18.9828  -14.7364 C   0  0  1  0  0  0  0  0  0  0  0  0
   23.3745  -19.3714  -15.9475 C   0  0  0  0  0  0  0  0  0  0  0  0
   23.2960  -18.3281  -17.0206 C   0  0  0  0  0  0  0  0  0  0  0  0
   24.1842  -18.7634  -18.1624 C   0  0  0  0  0  0  0  0  0  0  0  0
   24.3340  -17.9679  -19.1170 O   0  0  0  0  0  0  0  0  0  0  0  0
   21.1738  -18.8708  -15.0076 C   0  0  0  0  0  0  0  0  0  0  0  0
   20.6112  -17.7501  -15.2865 O   0  0  0  0  0  0  0  0  0  0  0  0
   24.7760  -20.0052  -18.0882 O   0  0  0  0  0  0  0  0  0  0  0  0
   20.3450  -19.9770  -14.9805 O   0  0  0  0  0  0  0  0  0  0  0  0
  2  1  1  6
  2 13  1  0
  2  3  1  0
  4  3  1  0
  4  5  2  0
  6  5  1  0
  7  6  1  0
  8  7  2  0
  9  8  1  0
 10  9  2  0
 10 11  1  0
 11 12  2  0
 12  7  1  0
 12  4  1  0
 13 14  2  0
 15 16  1  0
 16 18  1  0
 17 16  2  0
 19 18  1  1
 20 19  1  0
 20 13  1  0
 21 22  2  0
 21 19  1  0
 23 21  1  0
 24 29  1  0
 24 23  1  0
 24 25  1  6
 26 25  1  0
 27 26  1  0
 27 28  2  0
 29 32  1  0
 30 29  2  0
 31 27  1  0
M  END
$$$$
