WNE.pdb
     RDKit          3D

 32 33  0  0  1  0  0  0  0  0999 V2000
   28.5433  -20.2087   -9.6772 N   0  0  0  0  0  0  0  0  0  0  0  0
   27.1536  -20.6257   -9.3822 C   0  0  1  0  0  0  0  0  0  0  0  0
   26.6116  -19.5775   -8.4841 C   0  0  0  0  0  0  0  0  0  0  0  0
   27.3869  -19.2099   -7.3141 C   0  0  0  0  0  0  0  0  0  0  0  0
   27.8399  -17.9526   -7.0125 C   0  0  0  0  0  0  0  0  0  0  0  0
   28.5261  -17.9913   -5.8706 N   0  0  0  0  0  0  0  0  0  0  0  0
   28.5411  -19.2468   -5.4036 C   0  0  0  0  0  0  0  0  0  0  0  0
   29.1258  -19.7834   -4.2534 C   0  0  0  0  0  0  0  0  0  0  0  0
   29.0033  -21.1278   -3.9813 C   0  0  0  0  0  0  0  0  0  0  0  0
   28.2922  -21.9093   -4.8746 C   0  0  0  0  0  0  0  0  0  0  0  0
   27.7187  -21.3714   -6.0069 C   0  0  0  0  0  0  0  0  0  0  0  0
   27.8296  -20.0252   -6.2989 C   0  0  0  0  0  0  0  0  0  0  0  0
   26.4824  -20.8329  -10.6556 C   0  0  0  0  0  0  0  0  0  0  0  0
   26.7822  -20.0532  -11.6240 O   0  0  0  0  0  0  0  0  0  0  0  0
   25.2003  -22.5500  -14.9329 N   0  0  0  0  0  0  0  0  0  0  0  0
   24.8903  -23.5974  -14.0349 C   0  0  0  0  0  0  0  0  0  0  0  0
   24.8076  -24.7610  -14.4878 O   0  0  0  0  0  0  0  0  0  0  0  0
   24.6701  -23.3251  -12.6003 C   0  0  0  0  0  0  0  0  0  0  0  0
   24.8404  -21.8246  -12.2678 C   0  0  2  0  0  0  0  0  0  0  0  0
   25.5114  -21.8237  -10.9631 N   0  0  0  0  0  0  0  0  0  0  0  0
   23.5382  -21.1490  -12.2532 C   0  0  0  0  0  0  0  0  0  0  0  0
   22.8705  -21.0547  -11.1648 O   0  0  0  0  0  0  0  0  0  0  0  0
   22.9161  -20.5610  -13.3740 N   0  0  0  0  0  0  0  0  0  0  0  0
   21.6282  -19.8314  -13.2978 C   0  0  1  0  0  0  0  0  0  0  0  0
   21.4696  -18.9583  -14.4895 C   0  0  0  0  0  0  0  0  0  0  0  0
   20.1923  -18.1755  -14.4457 C   0  0  0  0  0  0  0  0  0  0  0  0
   20.0517  -17.4357  -15.7554 C   0  0  0  0  0  0  0  0  0  0  0  0
   20.7322  -17.8388  -16.7255 O   0  0  0  0  0  0  0  0  0  0  0  0
   20.5813  -20.8496  -13.2203 C   0  0  0  0  0  0  0  0  0  0  0  0
   20.6650  -21.9720  -13.8393 O   0  0  0  0  0  0  0  0  0  0  0  0
   19.1866  -16.3649  -15.8071 O   0  0  0  0  0  0  0  0  0  0  0  0
   19.4388  -20.6548  -12.4666 O   0  0  0  0  0  0  0  0  0  0  0  0
  2  1  1  6
  2 13  1  0
  2  3  1  0
  4  3  1  0
  4  5  2  0
  6  5  1  0
  7  6  1  0
  8  7  2  0
  9  8  1  0
 10  9  2  0
 10 11  1  0
 11 12  2  0
 12  7  1  0
 12  4  1  0
 13 14  2  0
 15 16  1  0
 16 18  1  0
 17 16  2  0
 19 18  1  1
 20 19  1  0
 20 13  1  0
 21 22  2  0
 21 19  1  0
 23 21  1  0
 24 29  1  0
 24 23  1  0
 24 25  1  6
 26 25  1  0
 27 26  1  0
 27 28  2  0
 29 32  1  0
 30 29  2  0
 31 27  1  0
M  END
$$$$
