WNE.pdb
     RDKit          3D

 32 33  0  0  1  0  0  0  0  0999 V2000
   25.1038  -11.8892  -17.4340 N   0  0  0  0  0  0  0  0  0  0  0  0
   23.7256  -11.3571  -17.3373 C   0  0  1  0  0  0  0  0  0  0  0  0
   23.3167  -11.5802  -15.9294 C   0  0  0  0  0  0  0  0  0  0  0  0
   23.0637  -12.9419  -15.4971 C   0  0  0  0  0  0  0  0  0  0  0  0
   23.3165  -13.4494  -14.2499 C   0  0  0  0  0  0  0  0  0  0  0  0
   22.9720  -14.7364  -14.2174 N   0  0  0  0  0  0  0  0  0  0  0  0
   22.4949  -15.0990  -15.4156 C   0  0  0  0  0  0  0  0  0  0  0  0
   22.0131  -16.3298  -15.8691 C   0  0  0  0  0  0  0  0  0  0  0  0
   21.5690  -16.4602  -17.1661 C   0  0  0  0  0  0  0  0  0  0  0  0
   21.6182  -15.3459  -17.9849 C   0  0  0  0  0  0  0  0  0  0  0  0
   22.0952  -14.1355  -17.5289 C   0  0  0  0  0  0  0  0  0  0  0  0
   22.5456  -13.9829  -16.2314 C   0  0  0  0  0  0  0  0  0  0  0  0
   23.7545   -9.9855  -17.8198 C   0  0  0  0  0  0  0  0  0  0  0  0
   24.6134   -9.1886  -17.3070 O   0  0  0  0  0  0  0  0  0  0  0  0
   24.5284   -8.8850  -22.4701 N   0  0  0  0  0  0  0  0  0  0  0  0
   24.3867   -8.2671  -21.2062 C   0  0  0  0  0  0  0  0  0  0  0  0
   25.4224   -8.0136  -20.5513 O   0  0  0  0  0  0  0  0  0  0  0  0
   23.0515   -7.9297  -20.6732 C   0  0  0  0  0  0  0  0  0  0  0  0
   23.0208   -7.9782  -19.1281 C   0  0  2  0  0  0  0  0  0  0  0  0
   22.9250   -9.4093  -18.8193 N   0  0  0  0  0  0  0  0  0  0  0  0
   21.8941   -7.1942  -18.6102 C   0  0  0  0  0  0  0  0  0  0  0  0
   20.6903   -7.5281  -18.8907 O   0  0  0  0  0  0  0  0  0  0  0  0
   22.0085   -6.0520  -17.7907 N   0  0  0  0  0  0  0  0  0  0  0  0
   20.8390   -5.2889  -17.2940 C   0  0  1  0  0  0  0  0  0  0  0  0
   21.2551   -4.3868  -16.1892 C   0  0  0  0  0  0  0  0  0  0  0  0
   21.5592   -5.1431  -14.9315 C   0  0  0  0  0  0  0  0  0  0  0  0
   21.9227   -4.1421  -13.8600 C   0  0  0  0  0  0  0  0  0  0  0  0
   21.0074   -3.7401  -13.1067 O   0  0  0  0  0  0  0  0  0  0  0  0
   20.3137   -4.5472  -18.4398 C   0  0  0  0  0  0  0  0  0  0  0  0
   21.0761   -4.0470  -19.3446 O   0  0  0  0  0  0  0  0  0  0  0  0
   23.2346   -3.7307  -13.7733 O   0  0  0  0  0  0  0  0  0  0  0  0
   18.9563   -4.3478  -18.6102 O   0  0  0  0  0  0  0  0  0  0  0  0
  2  1  1  1
  2 13  1  0
  2  3  1  0
  4  3  1  0
  4  5  2  0
  6  5  1  0
  7  6  1  0
  8  7  2  0
  9  8  1  0
 10  9  2  0
 10 11  1  0
 11 12  2  0
 12  7  1  0
 12  4  1  0
 13 14  2  0
 15 16  1  0
 16 18  1  0
 17 16  2  0
 19 18  1  6
 20 19  1  0
 20 13  1  0
 21 22  2  0
 21 19  1  0
 23 21  1  0
 24 29  1  0
 24 23  1  0
 24 25  1  1
 26 25  1  0
 27 26  1  0
 27 28  2  0
 29 32  1  0
 30 29  2  0
 31 27  1  0
M  END
$$$$
