WNE.pdb
     RDKit          3D

 32 33  0  0  1  0  0  0  0  0999 V2000
   16.8813  -23.9575    1.6059 N   0  0  0  0  0  0  0  0  0  0  0  0
   16.6685  -24.8481    2.7694 C   0  0  1  0  0  0  0  0  0  0  0  0
   17.8988  -25.6705    2.8643 C   0  0  0  0  0  0  0  0  0  0  0  0
   18.6445  -25.9306    1.6472 C   0  0  0  0  0  0  0  0  0  0  0  0
   18.1975  -26.6467    0.5681 C   0  0  0  0  0  0  0  0  0  0  0  0
   19.1531  -26.6918   -0.3599 N   0  0  0  0  0  0  0  0  0  0  0  0
   20.2279  -26.0217    0.0762 C   0  0  0  0  0  0  0  0  0  0  0  0
   21.4650  -25.7909   -0.5312 C   0  0  0  0  0  0  0  0  0  0  0  0
   22.4296  -25.0601    0.1261 C   0  0  0  0  0  0  0  0  0  0  0  0
   22.1299  -24.5736    1.3863 C   0  0  0  0  0  0  0  0  0  0  0  0
   20.9067  -24.8062    1.9778 C   0  0  0  0  0  0  0  0  0  0  0  0
   19.9250  -25.5370    1.3359 C   0  0  0  0  0  0  0  0  0  0  0  0
   16.3337  -24.0053    3.9063 C   0  0  0  0  0  0  0  0  0  0  0  0
   16.8460  -22.8344    3.9548 O   0  0  0  0  0  0  0  0  0  0  0  0
   14.5277  -21.5734    8.0437 N   0  0  0  0  0  0  0  0  0  0  0  0
   13.5262  -22.4000    7.4840 C   0  0  0  0  0  0  0  0  0  0  0  0
   12.3421  -22.2261    7.8493 O   0  0  0  0  0  0  0  0  0  0  0  0
   13.8689  -23.4410    6.4943 C   0  0  0  0  0  0  0  0  0  0  0  0
   15.3763  -23.4321    6.1499 C   0  0  2  0  0  0  0  0  0  0  0  0
   15.4825  -24.3322    4.9962 N   0  0  0  0  0  0  0  0  0  0  0  0
   16.1710  -23.8680    7.3035 C   0  0  0  0  0  0  0  0  0  0  0  0
   16.2679  -25.1123    7.5893 O   0  0  0  0  0  0  0  0  0  0  0  0
   16.8771  -23.0113    8.1733 N   0  0  0  0  0  0  0  0  0  0  0  0
   17.7241  -23.5026    9.2859 C   0  0  1  0  0  0  0  0  0  0  0  0
   19.0876  -23.8145    8.7847 C   0  0  0  0  0  0  0  0  0  0  0  0
   19.9669  -24.3743    9.8615 C   0  0  0  0  0  0  0  0  0  0  0  0
   20.8585  -25.4232    9.2393 C   0  0  0  0  0  0  0  0  0  0  0  0
   20.9682  -25.4263    7.9924 O   0  0  0  0  0  0  0  0  0  0  0  0
   17.7388  -22.4418   10.2925 C   0  0  0  0  0  0  0  0  0  0  0  0
   18.3762  -22.5541   11.4022 O   0  0  0  0  0  0  0  0  0  0  0  0
   21.4971  -26.3123   10.0756 O   0  0  0  0  0  0  0  0  0  0  0  0
   17.0633  -21.2515   10.0973 O   0  0  0  0  0  0  0  0  0  0  0  0
  2  1  1  6
  2 13  1  0
  2  3  1  0
  4  3  1  0
  4  5  2  0
  6  5  1  0
  7  6  1  0
  8  7  2  0
  9  8  1  0
 10  9  2  0
 10 11  1  0
 11 12  2  0
 12  7  1  0
 12  4  1  0
 13 14  2  0
 15 16  1  0
 16 18  1  0
 17 16  2  0
 19 18  1  1
 20 19  1  0
 20 13  1  0
 21 22  2  0
 21 19  1  0
 23 21  1  0
 24 29  1  0
 24 23  1  0
 24 25  1  6
 26 25  1  0
 27 26  1  0
 27 28  2  0
 29 32  1  0
 30 29  2  0
 31 27  1  0
M  END
$$$$
