WNE.pdb
     RDKit          3D

 32 33  0  0  1  0  0  0  0  0999 V2000
   28.6948  -21.3005  -10.9180 N   0  0  0  0  0  0  0  0  0  0  0  0
   27.4107  -20.9438  -10.2730 C   0  0  1  0  0  0  0  0  0  0  0  0
   27.7360  -19.8443   -9.3325 C   0  0  0  0  0  0  0  0  0  0  0  0
   28.6123  -20.1367   -8.2136 C   0  0  0  0  0  0  0  0  0  0  0  0
   29.8562  -20.7051   -8.2939 C   0  0  0  0  0  0  0  0  0  0  0  0
   30.3631  -20.8361   -7.0683 N   0  0  0  0  0  0  0  0  0  0  0  0
   29.4848  -20.3675   -6.1718 C   0  0  0  0  0  0  0  0  0  0  0  0
   29.5597  -20.2900   -4.7786 C   0  0  0  0  0  0  0  0  0  0  0  0
   28.5112  -19.7590   -4.0609 C   0  0  0  0  0  0  0  0  0  0  0  0
   27.4036  -19.3144   -4.7610 C   0  0  0  0  0  0  0  0  0  0  0  0
   27.3384  -19.3949   -6.1356 C   0  0  0  0  0  0  0  0  0  0  0  0
   28.3790  -19.9242   -6.8750 C   0  0  0  0  0  0  0  0  0  0  0  0
   26.4557  -20.6616  -11.3328 C   0  0  0  0  0  0  0  0  0  0  0  0
   26.7534  -19.7507  -12.1798 O   0  0  0  0  0  0  0  0  0  0  0  0
   23.4179  -24.1694  -13.6334 N   0  0  0  0  0  0  0  0  0  0  0  0
   24.4230  -23.2761  -13.1959 C   0  0  0  0  0  0  0  0  0  0  0  0
   25.2415  -23.6790  -12.3393 O   0  0  0  0  0  0  0  0  0  0  0  0
   24.5046  -21.9041  -13.7358 C   0  0  0  0  0  0  0  0  0  0  0  0
   24.3190  -20.8397  -12.6297 C   0  0  2  0  0  0  0  0  0  0  0  0
   25.2012  -21.2931  -11.5487 N   0  0  0  0  0  0  0  0  0  0  0  0
   22.9097  -20.7500  -12.2321 C   0  0  0  0  0  0  0  0  0  0  0  0
   22.4415  -21.5276  -11.3292 O   0  0  0  0  0  0  0  0  0  0  0  0
   21.9704  -19.8459  -12.7702 N   0  0  0  0  0  0  0  0  0  0  0  0
   20.5732  -19.7434  -12.2863 C   0  0  1  0  0  0  0  0  0  0  0  0
   19.8853  -18.6126  -12.9614 C   0  0  0  0  0  0  0  0  0  0  0  0
   18.7884  -19.0835  -13.8676 C   0  0  0  0  0  0  0  0  0  0  0  0
   19.0184  -18.4800  -15.2334 C   0  0  0  0  0  0  0  0  0  0  0  0
   19.9605  -17.6652  -15.3566 O   0  0  0  0  0  0  0  0  0  0  0  0
   19.9388  -21.0274  -12.5828 C   0  0  0  0  0  0  0  0  0  0  0  0
   20.4083  -21.8417  -13.4584 O   0  0  0  0  0  0  0  0  0  0  0  0
   18.1821  -18.8590  -16.2604 O   0  0  0  0  0  0  0  0  0  0  0  0
   18.7921  -21.4348  -11.9268 O   0  0  0  0  0  0  0  0  0  0  0  0
  2  1  1  6
  2 13  1  0
  2  3  1  0
  4  3  1  0
  4  5  2  0
  6  5  1  0
  7  6  1  0
  8  7  2  0
  9  8  1  0
 10  9  2  0
 10 11  1  0
 11 12  2  0
 12  7  1  0
 12  4  1  0
 13 14  2  0
 15 16  1  0
 16 18  1  0
 17 16  2  0
 19 18  1  6
 20 19  1  0
 20 13  1  0
 21 22  2  0
 21 19  1  0
 23 21  1  0
 24 29  1  0
 24 23  1  0
 24 25  1  6
 26 25  1  0
 27 26  1  0
 27 28  2  0
 29 32  1  0
 30 29  2  0
 31 27  1  0
M  END
$$$$
