WNE.pdb
     RDKit          3D

 32 33  0  0  1  0  0  0  0  0999 V2000
   25.2463  -19.7595  -17.3871 N   0  0  0  0  0  0  0  0  0  0  0  0
   25.2217  -19.2665  -15.9913 C   0  0  1  0  0  0  0  0  0  0  0  0
   25.1942  -17.7877  -16.0978 C   0  0  0  0  0  0  0  0  0  0  0  0
   26.3408  -17.1219  -16.6869 C   0  0  0  0  0  0  0  0  0  0  0  0
   26.3069  -15.9776  -17.4395 C   0  0  0  0  0  0  0  0  0  0  0  0
   27.5437  -15.6637  -17.8240 N   0  0  0  0  0  0  0  0  0  0  0  0
   28.4024  -16.5733  -17.3446 C   0  0  0  0  0  0  0  0  0  0  0  0
   29.7899  -16.6738  -17.4765 C   0  0  0  0  0  0  0  0  0  0  0  0
   30.4647  -17.7170  -16.8825 C   0  0  0  0  0  0  0  0  0  0  0  0
   29.7280  -18.6424  -16.1646 C   0  0  0  0  0  0  0  0  0  0  0  0
   28.3593  -18.5354  -16.0397 C   0  0  0  0  0  0  0  0  0  0  0  0
   27.6627  -17.4967  -16.6277 C   0  0  0  0  0  0  0  0  0  0  0  0
   24.1044  -19.9132  -15.3216 C   0  0  0  0  0  0  0  0  0  0  0  0
   23.2048  -20.4583  -16.0492 O   0  0  0  0  0  0  0  0  0  0  0  0
   25.6093  -22.0760  -11.5169 N   0  0  0  0  0  0  0  0  0  0  0  0
   24.3992  -22.2687  -12.2226 C   0  0  0  0  0  0  0  0  0  0  0  0
   24.3153  -23.2471  -12.9984 O   0  0  0  0  0  0  0  0  0  0  0  0
   23.2643  -21.3401  -12.0485 C   0  0  0  0  0  0  0  0  0  0  0  0
   22.7553  -20.7950  -13.4030 C   0  0  2  0  0  0  0  0  0  0  0  0
   23.8869  -20.0183  -13.9214 N   0  0  0  0  0  0  0  0  0  0  0  0
   21.5394  -19.9964  -13.2128 C   0  0  0  0  0  0  0  0  0  0  0  0
   21.5284  -19.0227  -12.3815 O   0  0  0  0  0  0  0  0  0  0  0  0
   20.3190  -20.2018  -13.8893 N   0  0  0  0  0  0  0  0  0  0  0  0
   19.0954  -19.4120  -13.6142 C   0  0  1  0  0  0  0  0  0  0  0  0
   18.1149  -19.5975  -14.7149 C   0  0  0  0  0  0  0  0  0  0  0  0
   16.7971  -18.9533  -14.4072 C   0  0  0  0  0  0  0  0  0  0  0  0
   15.8288  -19.3200  -15.5072 C   0  0  0  0  0  0  0  0  0  0  0  0
   16.1964  -20.1770  -16.3422 O   0  0  0  0  0  0  0  0  0  0  0  0
   18.5773  -19.8874  -12.3318 C   0  0  0  0  0  0  0  0  0  0  0  0
   17.9834  -19.1109  -11.4985 O   0  0  0  0  0  0  0  0  0  0  0  0
   14.6022  -18.6935  -15.5286 O   0  0  0  0  0  0  0  0  0  0  0  0
   18.6990  -21.2104  -11.9495 O   0  0  0  0  0  0  0  0  0  0  0  0
  2  1  1  6
  2 13  1  0
  2  3  1  0
  4  3  1  0
  4  5  2  0
  6  5  1  0
  7  6  1  0
  8  7  2  0
  9  8  1  0
 10  9  2  0
 10 11  1  0
 11 12  2  0
 12  7  1  0
 12  4  1  0
 13 14  2  0
 15 16  1  0
 16 18  1  0
 17 16  2  0
 19 18  1  1
 20 19  1  0
 20 13  1  0
 21 22  2  0
 21 19  1  0
 23 21  1  0
 24 29  1  0
 24 23  1  0
 24 25  1  6
 26 25  1  0
 27 26  1  0
 27 28  2  0
 29 32  1  0
 30 29  2  0
 31 27  1  0
M  END
$$$$
