WNE.pdb
     RDKit          3D

 32 33  0  0  1  0  0  0  0  0999 V2000
   15.5576  -22.8686    3.7443 N   0  0  0  0  0  0  0  0  0  0  0  0
   16.9248  -23.4189    3.8859 C   0  0  1  0  0  0  0  0  0  0  0  0
   17.8328  -22.2549    3.7456 C   0  0  0  0  0  0  0  0  0  0  0  0
   18.5285  -22.0767    2.4849 C   0  0  0  0  0  0  0  0  0  0  0  0
   18.0896  -21.3305    1.4230 C   0  0  0  0  0  0  0  0  0  0  0  0
   18.9774  -21.4058    0.4319 N   0  0  0  0  0  0  0  0  0  0  0  0
   19.9992  -22.1857    0.8090 C   0  0  0  0  0  0  0  0  0  0  0  0
   21.1579  -22.5624    0.1246 C   0  0  0  0  0  0  0  0  0  0  0  0
   22.0788  -23.3873    0.7311 C   0  0  0  0  0  0  0  0  0  0  0  0
   21.8156  -23.8190    2.0190 C   0  0  0  0  0  0  0  0  0  0  0  0
   20.6698  -23.4424    2.6866 C   0  0  0  0  0  0  0  0  0  0  0  0
   19.7328  -22.6156    2.0967 C   0  0  0  0  0  0  0  0  0  0  0  0
   16.9681  -24.1585    5.1373 C   0  0  0  0  0  0  0  0  0  0  0  0
   16.0860  -23.8883    6.0231 O   0  0  0  0  0  0  0  0  0  0  0  0
   19.4331  -27.0358    4.9196 N   0  0  0  0  0  0  0  0  0  0  0  0
   18.4364  -27.8448    5.5127 C   0  0  0  0  0  0  0  0  0  0  0  0
   18.3651  -29.0455    5.1674 O   0  0  0  0  0  0  0  0  0  0  0  0
   17.5046  -27.2874    6.5134 C   0  0  0  0  0  0  0  0  0  0  0  0
   17.8158  -25.8052    6.8251 C   0  0  2  0  0  0  0  0  0  0  0  0
   17.8933  -25.1729    5.5034 N   0  0  0  0  0  0  0  0  0  0  0  0
   19.0571  -25.6910    7.5988 C   0  0  0  0  0  0  0  0  0  0  0  0
   20.1807  -25.5481    7.0018 O   0  0  0  0  0  0  0  0  0  0  0  0
   19.1423  -25.7224    9.0062 N   0  0  0  0  0  0  0  0  0  0  0  0
   20.4237  -25.6235    9.7443 C   0  0  1  0  0  0  0  0  0  0  0  0
   20.1632  -25.2908   11.1687 C   0  0  0  0  0  0  0  0  0  0  0  0
   19.8986  -23.8286   11.3642 C   0  0  0  0  0  0  0  0  0  0  0  0
   19.6726  -23.5869   12.8383 C   0  0  0  0  0  0  0  0  0  0  0  0
   18.5017  -23.3560   13.2157 O   0  0  0  0  0  0  0  0  0  0  0  0
   21.0864  -26.9187    9.5956 C   0  0  0  0  0  0  0  0  0  0  0  0
   22.2859  -27.1296   10.0041 O   0  0  0  0  0  0  0  0  0  0  0  0
   20.7628  -23.6343   13.6791 O   0  0  0  0  0  0  0  0  0  0  0  0
   20.4476  -27.9931    9.0050 O   0  0  0  0  0  0  0  0  0  0  0  0
  2  1  1  1
  2 13  1  0
  2  3  1  0
  4  3  1  0
  4  5  2  0
  6  5  1  0
  7  6  1  0
  8  7  2  0
  9  8  1  0
 10  9  2  0
 10 11  1  0
 11 12  2  0
 12  7  1  0
 12  4  1  0
 13 14  2  0
 15 16  1  0
 16 18  1  0
 17 16  2  0
 19 18  1  6
 20 19  1  0
 20 13  1  0
 21 22  2  0
 21 19  1  0
 23 21  1  0
 24 29  1  0
 24 23  1  0
 24 25  1  1
 26 25  1  0
 27 26  1  0
 27 28  2  0
 29 32  1  0
 30 29  2  0
 31 27  1  0
M  END
$$$$
