GQH.pdb
     RDKit          3D

 24 24  0  0  1  0  0  0  0  0999 V2000
    8.3030  -17.6765   14.8803 N   0  0  0  0  0  0  0  0  0  0  0  0
    7.5640  -17.7885   16.1145 C   0  0  0  0  0  0  0  0  0  0  0  0
    8.0349  -16.8357   17.1416 C   0  0  0  0  0  0  0  0  0  0  0  0
    9.1696  -16.3266   17.0028 O   0  0  0  0  0  0  0  0  0  0  0  0
    8.0242  -12.6408   19.4791 N   0  0  0  0  0  0  0  0  0  0  0  0
    7.7531  -12.9146   20.8333 C   0  0  0  0  0  0  0  0  0  0  0  0
    8.0845  -12.1201   21.7488 O   0  0  0  0  0  0  0  0  0  0  0  0
    7.0541  -14.1706   21.2497 C   0  0  0  0  0  0  0  0  0  0  0  0
    6.6852  -15.0083   20.0871 C   0  0  0  0  0  0  0  0  0  0  0  0
    7.8336  -15.5184   19.2905 C   0  0  2  0  0  0  0  0  0  0  0  0
    7.2709  -16.4657   18.2779 N   0  0  0  0  0  0  0  0  0  0  0  0
    8.8552  -16.2213   20.0798 C   0  0  0  0  0  0  0  0  0  0  0  0
    8.5998  -17.4404   20.3819 O   0  0  0  0  0  0  0  0  0  0  0  0
   10.0850  -15.6915   20.5285 N   0  0  0  0  0  0  0  0  0  0  0  0
   10.9801  -16.5508   21.3372 C   0  0  1  0  0  0  0  0  0  0  0  0
   12.3927  -16.0712   21.1938 C   0  0  0  0  0  0  0  0  0  0  0  0
   13.3044  -16.7614   22.1241 C   0  0  0  0  0  0  0  0  0  0  0  0
   13.1714  -17.1603   23.4286 C   0  0  0  0  0  0  0  0  0  0  0  0
   14.2823  -17.8472   23.8270 N   0  0  0  0  0  0  0  0  0  0  0  0
   15.0900  -17.8731   22.7799 C   0  0  0  0  0  0  0  0  0  0  0  0
   14.5403  -17.2359   21.7456 N   0  0  0  0  0  0  0  0  0  0  0  0
   10.5693  -16.3783   22.7678 C   0  0  0  0  0  0  0  0  0  0  0  0
   10.9973  -17.3341   23.6973 O   0  0  0  0  0  0  0  0  0  0  0  0
    9.8711  -15.4409   23.1865 O   0  0  0  0  0  0  0  0  0  0  0  0
  1  2  1  0
  2  3  1  0
  3 11  1  0
  4  3  2  0
  6  7  2  0
  6  5  1  0
  8  6  1  0
  9  8  1  0
 10  9  1  1
 10 12  1  0
 11 10  1  0
 12 13  2  0
 12 14  1  0
 14 15  1  0
 15 16  1  1
 16 17  1  0
 17 18  2  0
 18 19  1  0
 20 19  1  0
 21 17  1  0
 21 20  2  0
 22 15  1  0
 22 23  1  0
 24 22  2  0
M  END
$$$$
