GQH.pdb
     RDKit          3D

 24 24  0  0  1  0  0  0  0  0999 V2000
    5.9781  -24.7180   18.8727 N   0  0  0  0  0  0  0  0  0  0  0  0
    5.0963  -24.4829   19.9904 C   0  0  0  0  0  0  0  0  0  0  0  0
    5.2840  -23.1422   20.5838 C   0  0  0  0  0  0  0  0  0  0  0  0
    6.2720  -22.4656   20.2204 O   0  0  0  0  0  0  0  0  0  0  0  0
    3.2420  -18.9025   20.3317 N   0  0  0  0  0  0  0  0  0  0  0  0
    3.3297  -18.3451   21.6215 C   0  0  0  0  0  0  0  0  0  0  0  0
    3.3725  -17.1025   21.8044 O   0  0  0  0  0  0  0  0  0  0  0  0
    3.3765  -19.2092   22.8425 C   0  0  0  0  0  0  0  0  0  0  0  0
    3.3569  -20.6487   22.5010 C   0  0  0  0  0  0  0  0  0  0  0  0
    4.6736  -21.2192   22.1079 C   0  0  2  0  0  0  0  0  0  0  0  0
    4.4050  -22.5791   21.5439 N   0  0  0  0  0  0  0  0  0  0  0  0
    5.6342  -21.3467   23.2133 C   0  0  0  0  0  0  0  0  0  0  0  0
    5.4731  -22.3517   23.9922 O   0  0  0  0  0  0  0  0  0  0  0  0
    6.7138  -20.4810   23.4950 N   0  0  0  0  0  0  0  0  0  0  0  0
    7.6402  -20.8300   24.5967 C   0  0  1  0  0  0  0  0  0  0  0  0
    9.0363  -20.4421   24.2139 C   0  0  0  0  0  0  0  0  0  0  0  0
    9.6482  -21.4237   23.2999 C   0  0  0  0  0  0  0  0  0  0  0  0
    9.3083  -22.7051   22.9522 C   0  0  0  0  0  0  0  0  0  0  0  0
   10.1543  -23.1716   21.9871 N   0  0  0  0  0  0  0  0  0  0  0  0
   11.0046  -22.1887   21.7414 C   0  0  0  0  0  0  0  0  0  0  0  0
   10.7335  -21.1300   22.5053 N   0  0  0  0  0  0  0  0  0  0  0  0
    7.2332  -20.0076   25.7813 C   0  0  0  0  0  0  0  0  0  0  0  0
    6.1859  -19.0921   25.6208 O   0  0  0  0  0  0  0  0  0  0  0  0
    7.7649  -20.0832   26.9007 O   0  0  0  0  0  0  0  0  0  0  0  0
  1  2  1  0
  2  3  1  0
  3 11  1  0
  4  3  2  0
  6  7  2  0
  6  5  1  0
  8  6  1  0
  9  8  1  0
 10  9  1  1
 10 12  1  0
 11 10  1  0
 12 13  2  0
 12 14  1  0
 14 15  1  0
 15 16  1  6
 16 17  1  0
 17 18  2  0
 18 19  1  0
 20 19  1  0
 21 17  1  0
 21 20  2  0
 22 15  1  0
 22 23  1  0
 24 22  2  0
M  END
$$$$
