GQH.pdb
     RDKit          3D

 24 24  0  0  1  0  0  0  0  0999 V2000
    1.8317  -20.7186   20.7211 N   0  0  0  0  0  0  0  0  0  0  0  0
    2.2773  -19.4609   21.2704 C   0  0  0  0  0  0  0  0  0  0  0  0
    3.7510  -19.3607   21.3256 C   0  0  0  0  0  0  0  0  0  0  0  0
    4.4256  -20.3765   21.0443 O   0  0  0  0  0  0  0  0  0  0  0  0
    7.8800  -17.1937   18.8092 N   0  0  0  0  0  0  0  0  0  0  0  0
    8.4246  -17.3917   20.0922 C   0  0  0  0  0  0  0  0  0  0  0  0
    9.3929  -18.1685   20.2880 O   0  0  0  0  0  0  0  0  0  0  0  0
    7.8744  -16.6835   21.2903 C   0  0  0  0  0  0  0  0  0  0  0  0
    6.4056  -16.8299   21.3917 C   0  0  0  0  0  0  0  0  0  0  0  0
    5.9356  -18.1804   21.8026 C   0  0  2  0  0  0  0  0  0  0  0  0
    4.4441  -18.1752   21.6801 N   0  0  0  0  0  0  0  0  0  0  0  0
    6.2962  -18.5563   23.1772 C   0  0  0  0  0  0  0  0  0  0  0  0
    5.7716  -17.8556   24.1135 O   0  0  0  0  0  0  0  0  0  0  0  0
    7.1519  -19.6106   23.5651 N   0  0  0  0  0  0  0  0  0  0  0  0
    7.3896  -19.8432   25.0084 C   0  0  1  0  0  0  0  0  0  0  0  0
    7.3152  -21.3125   25.2941 C   0  0  0  0  0  0  0  0  0  0  0  0
    5.9701  -21.8557   25.0320 C   0  0  0  0  0  0  0  0  0  0  0  0
    4.7994  -21.2751   24.6186 C   0  0  0  0  0  0  0  0  0  0  0  0
    3.8387  -22.2286   24.4376 N   0  0  0  0  0  0  0  0  0  0  0  0
    4.4109  -23.3836   24.7342 C   0  0  0  0  0  0  0  0  0  0  0  0
    5.6821  -23.2008   25.0927 N   0  0  0  0  0  0  0  0  0  0  0  0
    8.7848  -19.3793   25.2976 C   0  0  0  0  0  0  0  0  0  0  0  0
    9.2880  -19.5667   26.5908 O   0  0  0  0  0  0  0  0  0  0  0  0
    9.5280  -18.8369   24.4639 O   0  0  0  0  0  0  0  0  0  0  0  0
  1  2  1  0
  2  3  1  0
  3 11  1  0
  4  3  2  0
  6  7  2  0
  6  5  1  0
  8  6  1  0
  9  8  1  0
 10  9  1  1
 10 12  1  0
 11 10  1  0
 12 13  2  0
 12 14  1  0
 14 15  1  0
 15 16  1  6
 16 17  1  0
 17 18  2  0
 18 19  1  0
 20 19  1  0
 21 17  1  0
 21 20  2  0
 22 15  1  0
 22 23  1  0
 24 22  2  0
M  END
$$$$
