GQH.pdb
     RDKit          3D

 24 24  0  0  1  0  0  0  0  0999 V2000
    7.5538  -13.1639   17.1675 N   0  0  0  0  0  0  0  0  0  0  0  0
    8.6663  -13.3301   18.0712 C   0  0  0  0  0  0  0  0  0  0  0  0
    8.4893  -14.4852   18.9763 C   0  0  0  0  0  0  0  0  0  0  0  0
    7.5244  -15.2557   18.7730 O   0  0  0  0  0  0  0  0  0  0  0  0
    8.3606  -19.7563   21.2789 N   0  0  0  0  0  0  0  0  0  0  0  0
    9.1053  -19.1731   20.2361 C   0  0  0  0  0  0  0  0  0  0  0  0
    8.7677  -19.2965   19.0319 O   0  0  0  0  0  0  0  0  0  0  0  0
   10.3404  -18.3745   20.5125 C   0  0  0  0  0  0  0  0  0  0  0  0
   10.2354  -16.9957   19.9862 C   0  0  0  0  0  0  0  0  0  0  0  0
    9.3082  -16.1058   20.7359 C   0  0  2  0  0  0  0  0  0  0  0  0
    9.3536  -14.7692   20.0643 N   0  0  0  0  0  0  0  0  0  0  0  0
    9.6476  -15.9337   22.1558 C   0  0  0  0  0  0  0  0  0  0  0  0
   10.7570  -15.3428   22.4067 O   0  0  0  0  0  0  0  0  0  0  0  0
    8.8736  -16.3458   23.2628 N   0  0  0  0  0  0  0  0  0  0  0  0
    9.3685  -16.0547   24.6281 C   0  0  1  0  0  0  0  0  0  0  0  0
    8.2020  -15.8538   25.5474 C   0  0  0  0  0  0  0  0  0  0  0  0
    7.6261  -14.5031   25.4172 C   0  0  0  0  0  0  0  0  0  0  0  0
    7.9824  -13.4106   24.6700 C   0  0  0  0  0  0  0  0  0  0  0  0
    7.0688  -12.4091   24.8343 N   0  0  0  0  0  0  0  0  0  0  0  0
    6.1591  -12.8791   25.6714 C   0  0  0  0  0  0  0  0  0  0  0  0
    6.4579  -14.1252   26.0402 N   0  0  0  0  0  0  0  0  0  0  0  0
   10.1209  -17.2678   25.0835 C   0  0  0  0  0  0  0  0  0  0  0  0
   10.7833  -17.2096   26.3158 O   0  0  0  0  0  0  0  0  0  0  0  0
   10.1974  -18.3259   24.4385 O   0  0  0  0  0  0  0  0  0  0  0  0
  1  2  1  0
  2  3  1  0
  3 11  1  0
  4  3  2  0
  6  7  2  0
  6  5  1  0
  8  6  1  0
  9  8  1  0
 10  9  1  6
 10 12  1  0
 11 10  1  0
 12 13  2  0
 12 14  1  0
 14 15  1  0
 15 16  1  1
 16 17  1  0
 17 18  2  0
 18 19  1  0
 20 19  1  0
 21 17  1  0
 21 20  2  0
 22 15  1  0
 22 23  1  0
 24 22  2  0
M  END
$$$$
