GQH.pdb
     RDKit          3D

 24 24  0  0  1  0  0  0  0  0999 V2000
    4.7303  -18.6578   21.4117 N   0  0  0  0  0  0  0  0  0  0  0  0
    4.7487  -17.2520   21.7361 C   0  0  0  0  0  0  0  0  0  0  0  0
    6.1182  -16.6962   21.7558 C   0  0  0  0  0  0  0  0  0  0  0  0
    7.0784  -17.4781   21.5745 O   0  0  0  0  0  0  0  0  0  0  0  0
    8.5047  -12.3342   17.9670 N   0  0  0  0  0  0  0  0  0  0  0  0
    8.4104  -13.4654   18.7998 C   0  0  0  0  0  0  0  0  0  0  0  0
    9.2502  -14.3988   18.7466 O   0  0  0  0  0  0  0  0  0  0  0  0
    7.3005  -13.6117   19.7930 C   0  0  0  0  0  0  0  0  0  0  0  0
    7.7928  -13.5344   21.1862 C   0  0  0  0  0  0  0  0  0  0  0  0
    7.8170  -14.8303   21.9168 C   0  0  2  0  0  0  0  0  0  0  0  0
    6.4051  -15.3238   21.9693 N   0  0  0  0  0  0  0  0  0  0  0  0
    8.3394  -14.7442   23.2881 C   0  0  0  0  0  0  0  0  0  0  0  0
    8.0904  -13.6592   23.9234 O   0  0  0  0  0  0  0  0  0  0  0  0
    9.0770  -15.7353   23.9722 N   0  0  0  0  0  0  0  0  0  0  0  0
    9.4412  -15.5038   25.3891 C   0  0  1  0  0  0  0  0  0  0  0  0
    8.2133  -15.6100   26.2417 C   0  0  0  0  0  0  0  0  0  0  0  0
    7.5820  -14.2962   26.4618 C   0  0  0  0  0  0  0  0  0  0  0  0
    8.0945  -13.0334   26.6080 C   0  0  0  0  0  0  0  0  0  0  0  0
    7.0820  -12.1222   26.7042 N   0  0  0  0  0  0  0  0  0  0  0  0
    5.9585  -12.8148   26.6167 C   0  0  0  0  0  0  0  0  0  0  0  0
    6.2172  -14.1147   26.4710 N   0  0  0  0  0  0  0  0  0  0  0  0
   10.3801  -16.6043   25.7799 C   0  0  0  0  0  0  0  0  0  0  0  0
   10.7060  -17.5671   24.8168 O   0  0  0  0  0  0  0  0  0  0  0  0
   10.8905  -16.7208   26.9058 O   0  0  0  0  0  0  0  0  0  0  0  0
  1  2  1  0
  2  3  1  0
  3 11  1  0
  4  3  2  0
  6  7  2  0
  6  5  1  0
  8  6  1  0
  9  8  1  0
 10  9  1  1
 10 12  1  0
 11 10  1  0
 12 13  2  0
 12 14  1  0
 14 15  1  0
 15 16  1  1
 16 17  1  0
 17 18  2  0
 18 19  1  0
 20 19  1  0
 21 17  1  0
 21 20  2  0
 22 15  1  0
 22 23  1  0
 24 22  2  0
M  END
$$$$
