GQH.pdb
     RDKit          3D

 24 24  0  0  1  0  0  0  0  0999 V2000
    1.7486  -19.4297   21.3798 N   0  0  0  0  0  0  0  0  0  0  0  0
    2.9232  -18.6369   21.1086 C   0  0  0  0  0  0  0  0  0  0  0  0
    3.9280  -18.7308   22.1886 C   0  0  0  0  0  0  0  0  0  0  0  0
    3.5843  -18.4094   23.3482 O   0  0  0  0  0  0  0  0  0  0  0  0
    8.1670  -20.9712   26.1822 N   0  0  0  0  0  0  0  0  0  0  0  0
    7.9181  -21.2515   24.8252 C   0  0  0  0  0  0  0  0  0  0  0  0
    7.2989  -22.2840   24.4650 O   0  0  0  0  0  0  0  0  0  0  0  0
    8.3811  -20.3294   23.7412 C   0  0  0  0  0  0  0  0  0  0  0  0
    7.3367  -20.1154   22.7152 C   0  0  0  0  0  0  0  0  0  0  0  0
    6.2241  -19.2183   23.1287 C   0  0  2  0  0  0  0  0  0  0  0  0
    5.2623  -19.1656   21.9834 N   0  0  0  0  0  0  0  0  0  0  0  0
    6.6405  -17.8482   23.4605 C   0  0  0  0  0  0  0  0  0  0  0  0
    6.8321  -17.0576   22.4701 O   0  0  0  0  0  0  0  0  0  0  0  0
    6.8416  -17.3190   24.7542 N   0  0  0  0  0  0  0  0  0  0  0  0
    7.1953  -15.8874   24.8932 C   0  0  1  0  0  0  0  0  0  0  0  0
    6.2970  -15.2497   25.9093 C   0  0  0  0  0  0  0  0  0  0  0  0
    6.6726  -13.8487   26.1722 C   0  0  0  0  0  0  0  0  0  0  0  0
    7.5623  -13.2743   27.0423 C   0  0  0  0  0  0  0  0  0  0  0  0
    7.6113  -11.9242   26.8432 N   0  0  0  0  0  0  0  0  0  0  0  0
    6.7632  -11.6695   25.8607 C   0  0  0  0  0  0  0  0  0  0  0  0
    6.1849  -12.7930   25.4350 N   0  0  0  0  0  0  0  0  0  0  0  0
    8.6001  -15.8371   25.4119 C   0  0  0  0  0  0  0  0  0  0  0  0
    9.3467  -14.6746   25.1840 O   0  0  0  0  0  0  0  0  0  0  0  0
    9.1496  -16.7614   26.0327 O   0  0  0  0  0  0  0  0  0  0  0  0
  1  2  1  0
  2  3  1  0
  3 11  1  0
  4  3  2  0
  6  7  2  0
  6  5  1  0
  8  6  1  0
  9  8  1  0
 10  9  1  6
 10 12  1  0
 11 10  1  0
 12 13  2  0
 12 14  1  0
 14 15  1  0
 15 16  1  1
 16 17  1  0
 17 18  2  0
 18 19  1  0
 20 19  1  0
 21 17  1  0
 21 20  2  0
 22 15  1  0
 22 23  1  0
 24 22  2  0
M  END
$$$$
