GQH.pdb
     RDKit          3D

 24 24  0  0  1  0  0  0  0  0999 V2000
    3.9947  -19.4921   21.3531 N   0  0  0  0  0  0  0  0  0  0  0  0
    4.0194  -18.0872   21.6808 C   0  0  0  0  0  0  0  0  0  0  0  0
    5.3536  -17.4845   21.4770 C   0  0  0  0  0  0  0  0  0  0  0  0
    6.3188  -18.2457   21.2425 O   0  0  0  0  0  0  0  0  0  0  0  0
    7.2126  -13.3772   18.2509 N   0  0  0  0  0  0  0  0  0  0  0  0
    8.2810  -13.1494   19.1390 C   0  0  0  0  0  0  0  0  0  0  0  0
    9.3559  -12.6202   18.7598 O   0  0  0  0  0  0  0  0  0  0  0  0
    8.1877  -13.5280   20.5839 C   0  0  0  0  0  0  0  0  0  0  0  0
    6.8951  -14.1735   20.9029 C   0  0  0  0  0  0  0  0  0  0  0  0
    6.9982  -15.5648   21.4199 C   0  0  2  0  0  0  0  0  0  0  0  0
    5.6011  -16.0891   21.5326 N   0  0  0  0  0  0  0  0  0  0  0  0
    7.6534  -15.6781   22.7309 C   0  0  0  0  0  0  0  0  0  0  0  0
    7.0915  -15.0580   23.7018 O   0  0  0  0  0  0  0  0  0  0  0  0
    8.8285  -16.4039   23.0254 N   0  0  0  0  0  0  0  0  0  0  0  0
    9.3827  -16.3394   24.3974 C   0  0  1  0  0  0  0  0  0  0  0  0
    9.5088  -17.7274   24.9483 C   0  0  0  0  0  0  0  0  0  0  0  0
    8.1925  -18.3291   25.2282 C   0  0  0  0  0  0  0  0  0  0  0  0
    6.9101  -17.8778   25.0538 C   0  0  0  0  0  0  0  0  0  0  0  0
    6.0170  -18.8540   25.3916 N   0  0  0  0  0  0  0  0  0  0  0  0
    6.7402  -19.8955   25.7681 C   0  0  0  0  0  0  0  0  0  0  0  0
    8.0420  -19.6198   25.6835 N   0  0  0  0  0  0  0  0  0  0  0  0
   10.7573  -15.7541   24.2818 C   0  0  0  0  0  0  0  0  0  0  0  0
   11.5011  -15.5795   25.4552 O   0  0  0  0  0  0  0  0  0  0  0  0
   11.2833  -15.4114   23.2106 O   0  0  0  0  0  0  0  0  0  0  0  0
  1  2  1  0
  2  3  1  0
  3 11  1  0
  4  3  2  0
  6  7  2  0
  6  5  1  0
  8  6  1  0
  9  8  1  0
 10  9  1  1
 10 12  1  0
 11 10  1  0
 12 13  2  0
 12 14  1  0
 14 15  1  0
 15 16  1  6
 16 17  1  0
 17 18  2  0
 18 19  1  0
 20 19  1  0
 21 17  1  0
 21 20  2  0
 22 15  1  0
 22 23  1  0
 24 22  2  0
M  END
$$$$
