GQH.pdb
     RDKit          3D

 24 24  0  0  1  0  0  0  0  0999 V2000
    8.2772  -17.6306   19.7693 N   0  0  0  0  0  0  0  0  0  0  0  0
    7.5276  -17.4337   20.9863 C   0  0  0  0  0  0  0  0  0  0  0  0
    8.0881  -16.3530   21.8246 C   0  0  0  0  0  0  0  0  0  0  0  0
    9.1764  -15.8396   21.4811 O   0  0  0  0  0  0  0  0  0  0  0  0
    5.0377  -12.6724   25.8649 N   0  0  0  0  0  0  0  0  0  0  0  0
    6.3616  -12.2145   26.0050 C   0  0  0  0  0  0  0  0  0  0  0  0
    6.6427  -11.2019   26.6942 O   0  0  0  0  0  0  0  0  0  0  0  0
    7.5033  -12.9147   25.3372 C   0  0  0  0  0  0  0  0  0  0  0  0
    7.0406  -14.0167   24.4650 C   0  0  0  0  0  0  0  0  0  0  0  0
    8.1251  -14.8127   23.8295 C   0  0  2  0  0  0  0  0  0  0  0  0
    7.4597  -15.8646   22.9986 N   0  0  0  0  0  0  0  0  0  0  0  0
    9.0352  -15.4667   24.7808 C   0  0  0  0  0  0  0  0  0  0  0  0
    8.6730  -16.6175   25.2134 O   0  0  0  0  0  0  0  0  0  0  0  0
   10.2642  -14.9586   25.2558 N   0  0  0  0  0  0  0  0  0  0  0  0
   10.9158  -15.6257   26.4065 C   0  0  1  0  0  0  0  0  0  0  0  0
   10.9121  -14.7001   27.5851 C   0  0  0  0  0  0  0  0  0  0  0  0
   11.1759  -15.4157   28.8466 C   0  0  0  0  0  0  0  0  0  0  0  0
   11.5766  -16.6977   29.1197 C   0  0  0  0  0  0  0  0  0  0  0  0
   11.7665  -16.8561   30.4627 N   0  0  0  0  0  0  0  0  0  0  0  0
   11.4879  -15.6851   31.0109 C   0  0  0  0  0  0  0  0  0  0  0  0
   11.1323  -14.8013   30.0780 N   0  0  0  0  0  0  0  0  0  0  0  0
   10.0773  -16.8203   26.7458 C   0  0  0  0  0  0  0  0  0  0  0  0
   10.7308  -18.0003   27.1215 O   0  0  0  0  0  0  0  0  0  0  0  0
    8.8361  -16.8345   26.7156 O   0  0  0  0  0  0  0  0  0  0  0  0
  1  2  1  0
  2  3  1  0
  3 11  1  0
  4  3  2  0
  6  7  2  0
  6  5  1  0
  8  6  1  0
  9  8  1  0
 10  9  1  1
 10 12  1  0
 11 10  1  0
 12 13  2  0
 12 14  1  0
 14 15  1  0
 15 16  1  1
 16 17  1  0
 17 18  2  0
 18 19  1  0
 20 19  1  0
 21 17  1  0
 21 20  2  0
 22 15  1  0
 22 23  1  0
 24 22  2  0
M  END
$$$$
