GQH.pdb
     RDKit          3D

 24 24  0  0  1  0  0  0  0  0999 V2000
    3.5666  -19.3732   21.7072 N   0  0  0  0  0  0  0  0  0  0  0  0
    3.7147  -17.9886   22.0852 C   0  0  0  0  0  0  0  0  0  0  0  0
    5.0573  -17.4583   21.7671 C   0  0  0  0  0  0  0  0  0  0  0  0
    5.9846  -18.2739   21.5649 O   0  0  0  0  0  0  0  0  0  0  0  0
    7.0442  -12.9760   18.3051 N   0  0  0  0  0  0  0  0  0  0  0  0
    8.1519  -13.3632   19.0830 C   0  0  0  0  0  0  0  0  0  0  0  0
    9.3021  -13.4733   18.5889 O   0  0  0  0  0  0  0  0  0  0  0  0
    8.0125  -13.6639   20.5424 C   0  0  0  0  0  0  0  0  0  0  0  0
    6.7002  -14.2702   20.8581 C   0  0  0  0  0  0  0  0  0  0  0  0
    6.7653  -15.6142   21.4929 C   0  0  2  0  0  0  0  0  0  0  0  0
    5.3533  -16.0742   21.6780 N   0  0  0  0  0  0  0  0  0  0  0  0
    7.4453  -15.6377   22.7959 C   0  0  0  0  0  0  0  0  0  0  0  0
    6.7010  -15.4808   23.8276 O   0  0  0  0  0  0  0  0  0  0  0  0
    8.8271  -15.8221   23.0217 N   0  0  0  0  0  0  0  0  0  0  0  0
    9.2841  -16.2063   24.3772 C   0  0  1  0  0  0  0  0  0  0  0  0
    8.7413  -17.5606   24.7196 C   0  0  0  0  0  0  0  0  0  0  0  0
    9.2142  -18.0252   26.0363 C   0  0  0  0  0  0  0  0  0  0  0  0
    9.9627  -17.4280   27.0169 C   0  0  0  0  0  0  0  0  0  0  0  0
   10.0608  -18.2512   28.1020 N   0  0  0  0  0  0  0  0  0  0  0  0
    9.3793  -19.3423   27.7947 C   0  0  0  0  0  0  0  0  0  0  0  0
    8.8598  -19.2436   26.5707 N   0  0  0  0  0  0  0  0  0  0  0  0
   10.7785  -16.3010   24.3193 C   0  0  0  0  0  0  0  0  0  0  0  0
   11.4091  -16.0461   23.0954 O   0  0  0  0  0  0  0  0  0  0  0  0
   11.4985  -16.5923   25.2880 O   0  0  0  0  0  0  0  0  0  0  0  0
  1  2  1  0
  2  3  1  0
  3 11  1  0
  4  3  2  0
  6  7  2  0
  6  5  1  0
  8  6  1  0
  9  8  1  0
 10  9  1  1
 10 12  1  0
 11 10  1  0
 12 13  2  0
 12 14  1  0
 14 15  1  0
 15 16  1  6
 16 17  1  0
 17 18  2  0
 18 19  1  0
 20 19  1  0
 21 17  1  0
 21 20  2  0
 22 15  1  0
 22 23  1  0
 24 22  2  0
M  END
$$$$
