GQH.pdb
     RDKit          3D

 24 24  0  0  1  0  0  0  0  0999 V2000
    5.5461  -20.2356   23.0173 N   0  0  0  0  0  0  0  0  0  0  0  0
    5.6944  -21.6551   23.2291 C   0  0  0  0  0  0  0  0  0  0  0  0
    5.4685  -22.0413   24.6379 C   0  0  0  0  0  0  0  0  0  0  0  0
    5.1635  -21.1456   25.4569 O   0  0  0  0  0  0  0  0  0  0  0  0
    2.9547  -24.5270   24.5760 N   0  0  0  0  0  0  0  0  0  0  0  0
    2.4181  -24.6729   25.8694 C   0  0  0  0  0  0  0  0  0  0  0  0
    1.1801  -24.6316   26.0813 O   0  0  0  0  0  0  0  0  0  0  0  0
    3.3001  -24.8852   27.0596 C   0  0  0  0  0  0  0  0  0  0  0  0
    4.7275  -24.9739   26.6801 C   0  0  0  0  0  0  0  0  0  0  0  0
    5.4316  -23.6676   26.5736 C   0  0  2  0  0  0  0  0  0  0  0  0
    5.5783  -23.3728   25.1138 N   0  0  0  0  0  0  0  0  0  0  0  0
    6.7624  -23.6429   27.1974 C   0  0  0  0  0  0  0  0  0  0  0  0
    7.7324  -24.0811   26.4833 O   0  0  0  0  0  0  0  0  0  0  0  0
    7.0763  -23.1802   28.4942 N   0  0  0  0  0  0  0  0  0  0  0  0
    8.4951  -23.1524   28.9186 C   0  0  1  0  0  0  0  0  0  0  0  0
    8.7873  -21.8455   29.5913 C   0  0  0  0  0  0  0  0  0  0  0  0
   10.1330  -21.8260   30.1929 C   0  0  0  0  0  0  0  0  0  0  0  0
   11.1821  -22.7070   30.1482 C   0  0  0  0  0  0  0  0  0  0  0  0
   12.2601  -22.1898   30.8078 N   0  0  0  0  0  0  0  0  0  0  0  0
   11.8807  -21.0033   31.2524 C   0  0  0  0  0  0  0  0  0  0  0  0
   10.6183  -20.7519   30.9045 N   0  0  0  0  0  0  0  0  0  0  0  0
    8.6667  -24.2475   29.9269 C   0  0  0  0  0  0  0  0  0  0  0  0
    9.9638  -24.7037   30.1916 O   0  0  0  0  0  0  0  0  0  0  0  0
    7.7317  -24.7805   30.5460 O   0  0  0  0  0  0  0  0  0  0  0  0
  1  2  1  0
  2  3  1  0
  3 11  1  0
  4  3  2  0
  6  7  2  0
  6  5  1  0
  8  6  1  0
  9  8  1  0
 10  9  1  6
 10 12  1  0
 11 10  1  0
 12 13  2  0
 12 14  1  0
 14 15  1  0
 15 16  1  1
 16 17  1  0
 17 18  2  0
 18 19  1  0
 20 19  1  0
 21 17  1  0
 21 20  2  0
 22 15  1  0
 22 23  1  0
 24 22  2  0
M  END
$$$$
