GQH.pdb
     RDKit          3D

 24 24  0  0  1  0  0  0  0  0999 V2000
    9.3676  -17.1991   14.6922 N   0  0  0  0  0  0  0  0  0  0  0  0
   10.4724  -17.6847   15.4832 C   0  0  0  0  0  0  0  0  0  0  0  0
   10.0964  -17.9166   16.8937 C   0  0  0  0  0  0  0  0  0  0  0  0
    8.9684  -17.5342   17.2776 O   0  0  0  0  0  0  0  0  0  0  0  0
   10.1084  -22.6487   19.8136 N   0  0  0  0  0  0  0  0  0  0  0  0
   10.2466  -21.9247   21.0131 C   0  0  0  0  0  0  0  0  0  0  0  0
    9.8915  -22.4026   22.1198 O   0  0  0  0  0  0  0  0  0  0  0  0
   10.8256  -20.5447   21.0282 C   0  0  0  0  0  0  0  0  0  0  0  0
   11.1757  -20.0782   19.6684 C   0  0  0  0  0  0  0  0  0  0  0  0
   10.4415  -18.8676   19.2110 C   0  0  2  0  0  0  0  0  0  0  0  0
   10.9445  -18.5496   17.8379 N   0  0  0  0  0  0  0  0  0  0  0  0
   10.6248  -17.6870   20.0674 C   0  0  0  0  0  0  0  0  0  0  0  0
   11.6865  -16.9980   19.8648 O   0  0  0  0  0  0  0  0  0  0  0  0
    9.7488  -17.2362   21.0792 N   0  0  0  0  0  0  0  0  0  0  0  0
   10.0941  -16.0047   21.8261 C   0  0  1  0  0  0  0  0  0  0  0  0
    8.8771  -15.1383   21.9460 C   0  0  0  0  0  0  0  0  0  0  0  0
    8.6066  -14.3958   20.7015 C   0  0  0  0  0  0  0  0  0  0  0  0
    9.2109  -14.3954   19.4713 C   0  0  0  0  0  0  0  0  0  0  0  0
    8.5268  -13.5857   18.6105 N   0  0  0  0  0  0  0  0  0  0  0  0
    7.5116  -13.0940   19.3013 C   0  0  0  0  0  0  0  0  0  0  0  0
    7.5263  -13.5552   20.5523 N   0  0  0  0  0  0  0  0  0  0  0  0
   10.5019  -16.4334   23.2027 C   0  0  0  0  0  0  0  0  0  0  0  0
   11.0024  -15.4601   24.0761 O   0  0  0  0  0  0  0  0  0  0  0  0
   10.4261  -17.5993   23.6229 O   0  0  0  0  0  0  0  0  0  0  0  0
  1  2  1  0
  2  3  1  0
  3 11  1  0
  4  3  2  0
  6  7  2  0
  6  5  1  0
  8  6  1  0
  9  8  1  0
 10  9  1  1
 10 12  1  0
 11 10  1  0
 12 13  2  0
 12 14  1  0
 14 15  1  0
 15 16  1  1
 16 17  1  0
 17 18  2  0
 18 19  1  0
 20 19  1  0
 21 17  1  0
 21 20  2  0
 22 15  1  0
 22 23  1  0
 24 22  2  0
M  END
$$$$
