GQH.pdb
     RDKit          3D

 24 24  0  0  1  0  0  0  0  0999 V2000
    5.6716  -25.9942   23.0759 N   0  0  0  0  0  0  0  0  0  0  0  0
    4.6216  -25.0155   23.2216 C   0  0  0  0  0  0  0  0  0  0  0  0
    5.0922  -23.6401   22.9539 C   0  0  0  0  0  0  0  0  0  0  0  0
    6.3147  -23.4593   22.7564 O   0  0  0  0  0  0  0  0  0  0  0  0
    1.5529  -18.9788   20.8806 N   0  0  0  0  0  0  0  0  0  0  0  0
    2.3244  -19.8056   20.0420 C   0  0  0  0  0  0  0  0  0  0  0  0
    2.0764  -19.9204   18.8154 O   0  0  0  0  0  0  0  0  0  0  0  0
    3.4821  -20.5912   20.5732 C   0  0  0  0  0  0  0  0  0  0  0  0
    3.6935  -20.3540   22.0183 C   0  0  0  0  0  0  0  0  0  0  0  0
    4.7902  -21.1504   22.6320 C   0  0  2  0  0  0  0  0  0  0  0  0
    4.2339  -22.5120   22.9082 N   0  0  0  0  0  0  0  0  0  0  0  0
    5.3181  -20.5918   23.8850 C   0  0  0  0  0  0  0  0  0  0  0  0
    4.5590  -20.6873   24.9133 O   0  0  0  0  0  0  0  0  0  0  0  0
    6.5734  -19.9712   24.0676 N   0  0  0  0  0  0  0  0  0  0  0  0
    6.9687  -19.5469   25.4305 C   0  0  1  0  0  0  0  0  0  0  0  0
    8.4383  -19.7752   25.6155 C   0  0  0  0  0  0  0  0  0  0  0  0
    8.8814  -19.4256   26.9774 C   0  0  0  0  0  0  0  0  0  0  0  0
    8.1981  -19.1157   28.1244 C   0  0  0  0  0  0  0  0  0  0  0  0
    9.0702  -18.9491   29.1620 N   0  0  0  0  0  0  0  0  0  0  0  0
   10.2767  -19.1557   28.6609 C   0  0  0  0  0  0  0  0  0  0  0  0
   10.2036  -19.4428   27.3609 N   0  0  0  0  0  0  0  0  0  0  0  0
    6.7084  -18.0738   25.5177 C   0  0  0  0  0  0  0  0  0  0  0  0
    6.4875  -17.5164   26.7830 O   0  0  0  0  0  0  0  0  0  0  0  0
    6.6746  -17.3108   24.5388 O   0  0  0  0  0  0  0  0  0  0  0  0
  1  2  1  0
  2  3  1  0
  3 11  1  0
  4  3  2  0
  6  7  2  0
  6  5  1  0
  8  6  1  0
  9  8  1  0
 10  9  1  1
 10 12  1  0
 11 10  1  0
 12 13  2  0
 12 14  1  0
 14 15  1  0
 15 16  1  6
 16 17  1  0
 17 18  2  0
 18 19  1  0
 20 19  1  0
 21 17  1  0
 21 20  2  0
 22 15  1  0
 22 23  1  0
 24 22  2  0
M  END
$$$$
