GQH.pdb
     RDKit          3D

 24 24  0  0  1  0  0  0  0  0999 V2000
    6.1945  -19.1704   21.6366 N   0  0  0  0  0  0  0  0  0  0  0  0
    6.1952  -17.7677   21.9745 C   0  0  0  0  0  0  0  0  0  0  0  0
    7.0943  -16.9793   21.1057 C   0  0  0  0  0  0  0  0  0  0  0  0
    7.8761  -17.5950   20.3468 O   0  0  0  0  0  0  0  0  0  0  0  0
    7.5682  -13.3108   16.9411 N   0  0  0  0  0  0  0  0  0  0  0  0
    8.6647  -13.1226   17.8039 C   0  0  0  0  0  0  0  0  0  0  0  0
    9.8411  -13.3814   17.4459 O   0  0  0  0  0  0  0  0  0  0  0  0
    8.4812  -12.6029   19.1953 C   0  0  0  0  0  0  0  0  0  0  0  0
    7.6025  -13.4797   20.0006 C   0  0  0  0  0  0  0  0  0  0  0  0
    8.1477  -14.8371   20.2721 C   0  0  2  0  0  0  0  0  0  0  0  0
    7.1204  -15.5615   21.0843 N   0  0  0  0  0  0  0  0  0  0  0  0
    9.4217  -14.8440   21.0053 C   0  0  0  0  0  0  0  0  0  0  0  0
    9.3405  -14.8348   22.2845 O   0  0  0  0  0  0  0  0  0  0  0  0
   10.7169  -14.8671   20.4432 N   0  0  0  0  0  0  0  0  0  0  0  0
   11.8638  -15.2318   21.3066 C   0  0  1  0  0  0  0  0  0  0  0  0
   11.7035  -16.6465   21.7746 C   0  0  0  0  0  0  0  0  0  0  0  0
   12.8385  -17.0810   22.6089 C   0  0  0  0  0  0  0  0  0  0  0  0
   13.8875  -16.4036   23.1740 C   0  0  0  0  0  0  0  0  0  0  0  0
   14.6371  -17.2499   23.9399 N   0  0  0  0  0  0  0  0  0  0  0  0
   14.0562  -18.4347   23.8495 C   0  0  0  0  0  0  0  0  0  0  0  0
   12.9802  -18.3726   23.0645 N   0  0  0  0  0  0  0  0  0  0  0  0
   13.0911  -15.1574   20.4502 C   0  0  0  0  0  0  0  0  0  0  0  0
   14.3369  -15.3298   21.0658 O   0  0  0  0  0  0  0  0  0  0  0  0
   13.0777  -14.9517   19.2258 O   0  0  0  0  0  0  0  0  0  0  0  0
  1  2  1  0
  2  3  1  0
  3 11  1  0
  4  3  2  0
  6  7  2  0
  6  5  1  0
  8  6  1  0
  9  8  1  0
 10  9  1  1
 10 12  1  0
 11 10  1  0
 12 13  2  0
 12 14  1  0
 14 15  1  0
 15 16  1  6
 16 17  1  0
 17 18  2  0
 18 19  1  0
 20 19  1  0
 21 17  1  0
 21 20  2  0
 22 15  1  0
 22 23  1  0
 24 22  2  0
M  END
$$$$
