MIV.pdb
     RDKit          3D

 24 23  0  0  1  0  0  0  0  0999 V2000
    5.4731  -11.3076   26.5073 C   0  0  0  0  0  0  0  0  0  0  0  0
    7.1540  -11.5258   27.0525 S   0  0  0  0  0  0  0  0  0  0  0  0
    7.9287  -13.0313   26.5423 C   0  0  0  0  0  0  0  0  0  0  0  0
    6.9982  -14.0486   25.9854 C   0  0  0  0  0  0  0  0  0  0  0  0
    7.6989  -15.2910   25.5603 C   0  0  2  0  0  0  0  0  0  0  0  0
    9.1247  -15.1214   25.7834 N   0  0  0  0  0  0  0  0  0  0  0  0
    7.5257  -15.5361   24.0848 C   0  0  0  0  0  0  0  0  0  0  0  0
    6.4278  -15.9182   23.6651 O   0  0  0  0  0  0  0  0  0  0  0  0
    7.3505  -12.1302   21.1017 C   0  0  0  0  0  0  0  0  0  0  0  0
    7.4605  -13.5135   21.6277 C   0  0  0  0  0  0  0  0  0  0  0  0
    8.6895  -14.2542   21.1294 C   0  0  2  0  0  0  0  0  0  0  0  0
    8.6652  -14.4742   19.6606 C   0  0  0  0  0  0  0  0  0  0  0  0
    8.6009  -15.6205   21.8330 C   0  0  2  0  0  0  0  0  0  0  0  0
    8.6563  -15.3047   23.2807 N   0  0  0  0  0  0  0  0  0  0  0  0
    9.7278  -16.5048   21.5301 C   0  0  0  0  0  0  0  0  0  0  0  0
   10.8313  -16.3253   22.1678 O   0  0  0  0  0  0  0  0  0  0  0  0
   11.8640  -20.2932   22.1041 C   0  0  0  0  0  0  0  0  0  0  0  0
   10.7323  -19.2848   21.9740 C   0  0  2  0  0  0  0  0  0  0  0  0
    9.4357  -19.9903   22.2233 C   0  0  0  0  0  0  0  0  0  0  0  0
   10.7999  -18.5920   20.6591 C   0  0  2  0  0  0  0  0  0  0  0  0
    9.7550  -17.5662   20.5981 N   0  0  0  0  0  0  0  0  0  0  0  0
   10.6473  -19.5674   19.5524 C   0  0  0  0  0  0  0  0  0  0  0  0
   11.7057  -19.9718   18.7803 O   0  0  0  0  0  0  0  0  0  0  0  0
    9.5068  -20.0520   19.2998 O   0  0  0  0  0  0  0  0  0  0  0  0
  1  2  1  0
  2  3  1  0
  4  3  1  0
  5  4  1  0
  5  6  1  6
  7  5  1  0
  7 14  1  0
  8  7  2  0
 10  9  1  0
 10 11  1  0
 11 13  1  0
 11 12  1  6
 13 14  1  1
 15 21  1  0
 15 13  1  0
 16 15  2  0
 18 17  1  6
 18 20  1  0
 18 19  1  0
 20 21  1  1
 20 22  1  0
 22 23  1  0
 24 22  2  0
M  END
$$$$
