MIV.pdb
     RDKit          3D

 24 23  0  0  1  0  0  0  0  0999 V2000
    5.8217  -20.9582   24.7447 C   0  0  0  0  0  0  0  0  0  0  0  0
    4.6624  -20.4708   23.4843 S   0  0  0  0  0  0  0  0  0  0  0  0
    4.9379  -18.8745   22.7751 C   0  0  0  0  0  0  0  0  0  0  0  0
    6.0980  -18.1371   23.3420 C   0  0  0  0  0  0  0  0  0  0  0  0
    6.1928  -16.7425   22.8307 C   0  0  2  0  0  0  0  0  0  0  0  0
    6.5109  -16.7864   21.4135 N   0  0  0  0  0  0  0  0  0  0  0  0
    7.3174  -15.9940   23.4958 C   0  0  0  0  0  0  0  0  0  0  0  0
    8.4460  -16.0371   22.9938 O   0  0  0  0  0  0  0  0  0  0  0  0
    5.6872  -11.8064   26.2681 C   0  0  0  0  0  0  0  0  0  0  0  0
    6.6086  -12.7121   25.5381 C   0  0  0  0  0  0  0  0  0  0  0  0
    7.3137  -13.7118   26.4385 C   0  0  2  0  0  0  0  0  0  0  0  0
    8.3110  -13.0687   27.3320 C   0  0  0  0  0  0  0  0  0  0  0  0
    8.0573  -14.6293   25.4512 C   0  0  2  0  0  0  0  0  0  0  0  0
    6.9855  -15.2871   24.6655 N   0  0  0  0  0  0  0  0  0  0  0  0
    8.8337  -15.6826   26.1080 C   0  0  0  0  0  0  0  0  0  0  0  0
    8.1981  -16.5824   26.7738 O   0  0  0  0  0  0  0  0  0  0  0  0
   12.0360  -17.3913   24.5020 C   0  0  0  0  0  0  0  0  0  0  0  0
   12.1868  -17.2537   26.0096 C   0  0  2  0  0  0  0  0  0  0  0  0
   12.9323  -18.4457   26.5237 C   0  0  0  0  0  0  0  0  0  0  0  0
   10.8595  -17.0490   26.6499 C   0  0  2  0  0  0  0  0  0  0  0  0
   10.2374  -15.8416   26.0993 N   0  0  0  0  0  0  0  0  0  0  0  0
   11.0063  -16.9430   28.1218 C   0  0  0  0  0  0  0  0  0  0  0  0
   11.0125  -18.0436   28.9393 O   0  0  0  0  0  0  0  0  0  0  0  0
   11.1313  -15.8036   28.6565 O   0  0  0  0  0  0  0  0  0  0  0  0
  1  2  1  0
  2  3  1  0
  4  3  1  0
  5  4  1  0
  5  6  1  6
  7  5  1  0
  7 14  1  0
  8  7  2  0
 10  9  1  0
 10 11  1  0
 11 13  1  0
 11 12  1  1
 13 14  1  6
 15 21  1  0
 15 13  1  0
 16 15  2  0
 18 17  1  6
 18 20  1  0
 18 19  1  0
 20 21  1  6
 20 22  1  0
 22 23  1  0
 24 22  2  0
M  END
$$$$
