MIV.pdb
     RDKit          3D

 24 23  0  0  1  0  0  0  0  0999 V2000
    4.8585  -19.4374   21.9890 C   0  0  0  0  0  0  0  0  0  0  0  0
    4.6197  -18.5593   20.4586 S   0  0  0  0  0  0  0  0  0  0  0  0
    5.1184  -16.8628   20.4704 C   0  0  0  0  0  0  0  0  0  0  0  0
    6.1421  -16.5256   21.4947 C   0  0  0  0  0  0  0  0  0  0  0  0
    6.5257  -15.0877   21.4664 C   0  0  2  0  0  0  0  0  0  0  0  0
    7.1345  -14.7932   20.1804 N   0  0  0  0  0  0  0  0  0  0  0  0
    7.5671  -14.7814   22.5099 C   0  0  0  0  0  0  0  0  0  0  0  0
    8.7600  -14.7882   22.1868 O   0  0  0  0  0  0  0  0  0  0  0  0
    5.9304  -11.3887   26.1799 C   0  0  0  0  0  0  0  0  0  0  0  0
    6.8073  -12.2290   25.3272 C   0  0  0  0  0  0  0  0  0  0  0  0
    7.2230  -13.5327   25.9867 C   0  0  2  0  0  0  0  0  0  0  0  0
    8.0868  -13.3190   27.1761 C   0  0  0  0  0  0  0  0  0  0  0  0
    8.0499  -14.2427   24.8995 C   0  0  2  0  0  0  0  0  0  0  0  0
    7.0870  -14.5046   23.8027 N   0  0  0  0  0  0  0  0  0  0  0  0
    8.5908  -15.5332   25.3303 C   0  0  0  0  0  0  0  0  0  0  0  0
    7.7658  -16.4356   25.7328 O   0  0  0  0  0  0  0  0  0  0  0  0
   11.3438  -17.6331   23.4638 C   0  0  0  0  0  0  0  0  0  0  0  0
   11.5740  -17.6590   24.9674 C   0  0  2  0  0  0  0  0  0  0  0  0
   12.1310  -18.9976   25.3402 C   0  0  0  0  0  0  0  0  0  0  0  0
   10.3250  -17.3013   25.6924 C   0  0  2  0  0  0  0  0  0  0  0  0
    9.9478  -15.9254   25.3571 N   0  0  0  0  0  0  0  0  0  0  0  0
   10.5142  -17.4553   27.1553 C   0  0  0  0  0  0  0  0  0  0  0  0
   10.2957  -18.6444   27.8017 O   0  0  0  0  0  0  0  0  0  0  0  0
   10.8901  -16.4635   27.8442 O   0  0  0  0  0  0  0  0  0  0  0  0
  1  2  1  0
  2  3  1  0
  4  3  1  0
  5  4  1  0
  5  6  1  6
  7  5  1  0
  7 14  1  0
  8  7  2  0
 10  9  1  0
 10 11  1  0
 11 13  1  0
 11 12  1  1
 13 14  1  6
 15 21  1  0
 15 13  1  0
 16 15  2  0
 18 17  1  6
 18 20  1  0
 18 19  1  0
 20 21  1  1
 20 22  1  0
 22 23  1  0
 24 22  2  0
M  END
$$$$
