MIV.pdb
     RDKit          3D

 24 23  0  0  1  0  0  0  0  0999 V2000
    7.0290  -10.5842   27.1209 C   0  0  0  0  0  0  0  0  0  0  0  0
    5.5164  -11.4183   27.5529 S   0  0  0  0  0  0  0  0  0  0  0  0
    5.0524  -12.7506   26.4867 C   0  0  0  0  0  0  0  0  0  0  0  0
    6.1605  -13.6784   26.1372 C   0  0  0  0  0  0  0  0  0  0  0  0
    5.7408  -14.7305   25.1716 C   0  0  2  0  0  0  0  0  0  0  0  0
    4.9090  -15.6972   25.8680 N   0  0  0  0  0  0  0  0  0  0  0  0
    6.9286  -15.4922   24.6459 C   0  0  0  0  0  0  0  0  0  0  0  0
    7.1426  -16.6344   25.0668 O   0  0  0  0  0  0  0  0  0  0  0  0
    8.0087  -13.5454   20.0494 C   0  0  0  0  0  0  0  0  0  0  0  0
    7.9599  -14.5242   21.1637 C   0  0  0  0  0  0  0  0  0  0  0  0
    9.2859  -14.6838   21.8872 C   0  0  2  0  0  0  0  0  0  0  0  0
   10.2786  -15.4527   21.0936 C   0  0  0  0  0  0  0  0  0  0  0  0
    8.9205  -15.4993   23.1407 C   0  0  2  0  0  0  0  0  0  0  0  0
    7.7204  -14.8261   23.6932 N   0  0  0  0  0  0  0  0  0  0  0  0
    9.9572  -15.4729   24.1743 C   0  0  0  0  0  0  0  0  0  0  0  0
   10.7523  -14.4614   24.2137 O   0  0  0  0  0  0  0  0  0  0  0  0
   10.0479  -13.7931   26.4254 C   0  0  0  0  0  0  0  0  0  0  0  0
   10.1292  -15.1158   27.1726 C   0  0  2  0  0  0  0  0  0  0  0  0
   10.6629  -14.8539   28.5465 C   0  0  0  0  0  0  0  0  0  0  0  0
   10.9224  -16.1059   26.3952 C   0  0  2  0  0  0  0  0  0  0  0  0
   10.1994  -16.4483   25.1671 N   0  0  0  0  0  0  0  0  0  0  0  0
   11.1800  -17.3172   27.2112 C   0  0  0  0  0  0  0  0  0  0  0  0
   12.2792  -17.4348   28.0221 O   0  0  0  0  0  0  0  0  0  0  0  0
   10.3660  -18.2841   27.1680 O   0  0  0  0  0  0  0  0  0  0  0  0
  1  2  1  0
  2  3  1  0
  4  3  1  0
  5  4  1  0
  5  6  1  1
  7  5  1  0
  7 14  1  0
  8  7  2  0
 10  9  1  0
 10 11  1  0
 11 13  1  0
 11 12  1  6
 13 14  1  1
 15 21  1  0
 15 13  1  0
 16 15  2  0
 18 17  1  6
 18 20  1  0
 18 19  1  0
 20 21  1  6
 20 22  1  0
 22 23  1  0
 24 22  2  0
M  END
$$$$
