MIV.pdb
     RDKit          3D

 24 23  0  0  1  0  0  0  0  0999 V2000
    7.6139  -10.7843   27.0887 C   0  0  0  0  0  0  0  0  0  0  0  0
    6.4335  -11.9303   27.7696 S   0  0  0  0  0  0  0  0  0  0  0  0
    5.7368  -13.0772   26.6179 C   0  0  0  0  0  0  0  0  0  0  0  0
    6.7310  -13.9340   25.9192 C   0  0  0  0  0  0  0  0  0  0  0  0
    6.0968  -14.8746   24.9557 C   0  0  2  0  0  0  0  0  0  0  0  0
    5.4354  -15.9311   25.7026 N   0  0  0  0  0  0  0  0  0  0  0  0
    7.1299  -15.5477   24.0915 C   0  0  0  0  0  0  0  0  0  0  0  0
    7.4797  -16.7015   24.3633 O   0  0  0  0  0  0  0  0  0  0  0  0
    7.2469  -12.6733   19.8768 C   0  0  0  0  0  0  0  0  0  0  0  0
    7.3552  -14.0061   20.5202 C   0  0  0  0  0  0  0  0  0  0  0  0
    8.7681  -14.3543   20.9563 C   0  0  2  0  0  0  0  0  0  0  0  0
    9.5717  -14.9516   19.8590 C   0  0  0  0  0  0  0  0  0  0  0  0
    8.5597  -15.4186   22.0488 C   0  0  2  0  0  0  0  0  0  0  0  0
    7.6275  -14.7903   23.0159 N   0  0  0  0  0  0  0  0  0  0  0  0
    9.7864  -15.7565   22.7730 C   0  0  0  0  0  0  0  0  0  0  0  0
   10.3633  -14.8321   23.4582 O   0  0  0  0  0  0  0  0  0  0  0  0
   10.5296  -18.4942   25.2874 C   0  0  0  0  0  0  0  0  0  0  0  0
   11.6694  -18.4738   24.2799 C   0  0  2  0  0  0  0  0  0  0  0  0
   12.9442  -18.7909   24.9976 C   0  0  0  0  0  0  0  0  0  0  0  0
   11.6947  -17.1790   23.5473 C   0  0  2  0  0  0  0  0  0  0  0  0
   10.4347  -17.0109   22.8178 N   0  0  0  0  0  0  0  0  0  0  0  0
   12.8515  -17.1319   22.6206 C   0  0  0  0  0  0  0  0  0  0  0  0
   13.9941  -16.4311   22.9091 O   0  0  0  0  0  0  0  0  0  0  0  0
   12.7971  -17.7551   21.5214 O   0  0  0  0  0  0  0  0  0  0  0  0
  1  2  1  0
  2  3  1  0
  4  3  1  0
  5  4  1  0
  5  6  1  1
  7  5  1  0
  7 14  1  0
  8  7  2  0
 10  9  1  0
 10 11  1  0
 11 13  1  0
 11 12  1  6
 13 14  1  1
 15 21  1  0
 15 13  1  0
 16 15  2  0
 18 17  1  1
 18 20  1  0
 18 19  1  0
 20 21  1  6
 20 22  1  0
 22 23  1  0
 24 22  2  0
M  END
$$$$
