MIV.pdb
     RDKit          3D

 24 23  0  0  1  0  0  0  0  0999 V2000
    4.7793  -18.9084   22.7595 C   0  0  0  0  0  0  0  0  0  0  0  0
    5.7537  -18.6628   21.2897 S   0  0  0  0  0  0  0  0  0  0  0  0
    6.6033  -17.1150   21.1913 C   0  0  0  0  0  0  0  0  0  0  0  0
    5.7636  -15.9273   21.4997 C   0  0  0  0  0  0  0  0  0  0  0  0
    6.5378  -14.6565   21.4651 C   0  0  2  0  0  0  0  0  0  0  0  0
    7.2723  -14.5924   20.2130 N   0  0  0  0  0  0  0  0  0  0  0  0
    7.5664  -14.6154   22.5639 C   0  0  0  0  0  0  0  0  0  0  0  0
    8.7530  -14.8159   22.2824 O   0  0  0  0  0  0  0  0  0  0  0  0
    6.0436  -11.3388   26.4709 C   0  0  0  0  0  0  0  0  0  0  0  0
    6.9397  -12.1263   25.5883 C   0  0  0  0  0  0  0  0  0  0  0  0
    7.2165  -13.5283   26.1033 C   0  0  2  0  0  0  0  0  0  0  0  0
    8.0308  -13.5280   27.3457 C   0  0  0  0  0  0  0  0  0  0  0  0
    8.0410  -14.1740   24.9750 C   0  0  2  0  0  0  0  0  0  0  0  0
    7.0825  -14.3452   23.8566 N   0  0  0  0  0  0  0  0  0  0  0  0
    8.5599  -15.4991   25.3192 C   0  0  0  0  0  0  0  0  0  0  0  0
    7.7168  -16.4244   25.6185 O   0  0  0  0  0  0  0  0  0  0  0  0
   11.3184  -17.5990   23.4612 C   0  0  0  0  0  0  0  0  0  0  0  0
   11.5297  -17.6442   24.9671 C   0  0  2  0  0  0  0  0  0  0  0  0
   12.0733  -18.9907   25.3309 C   0  0  0  0  0  0  0  0  0  0  0  0
   10.2740  -17.2867   25.6808 C   0  0  2  0  0  0  0  0  0  0  0  0
    9.9132  -15.9026   25.3619 N   0  0  0  0  0  0  0  0  0  0  0  0
   10.4421  -17.4649   27.1434 C   0  0  0  0  0  0  0  0  0  0  0  0
   10.2350  -18.6698   27.7640 O   0  0  0  0  0  0  0  0  0  0  0  0
   10.7883  -16.4796   27.8569 O   0  0  0  0  0  0  0  0  0  0  0  0
  1  2  1  0
  2  3  1  0
  4  3  1  0
  5  4  1  0
  5  6  1  6
  7  5  1  0
  7 14  1  0
  8  7  2  0
 10  9  1  0
 10 11  1  0
 11 13  1  0
 11 12  1  1
 13 14  1  6
 15 21  1  0
 15 13  1  0
 16 15  2  0
 18 17  1  6
 18 20  1  0
 18 19  1  0
 20 21  1  1
 20 22  1  0
 22 23  1  0
 24 22  2  0
M  END
$$$$
