MIV.pdb
     RDKit          3D

 24 23  0  0  1  0  0  0  0  0999 V2000
    6.9842  -13.8842   16.9037 C   0  0  0  0  0  0  0  0  0  0  0  0
    7.2089  -15.3690   17.8603 S   0  0  0  0  0  0  0  0  0  0  0  0
    6.3682  -15.4051   19.4156 C   0  0  0  0  0  0  0  0  0  0  0  0
    7.2544  -15.2683   20.6017 C   0  0  0  0  0  0  0  0  0  0  0  0
    7.2443  -13.8910   21.1659 C   0  0  2  0  0  0  0  0  0  0  0  0
    7.8709  -12.9920   20.2117 N   0  0  0  0  0  0  0  0  0  0  0  0
    8.0650  -13.8127   22.4259 C   0  0  0  0  0  0  0  0  0  0  0  0
    9.2857  -13.6406   22.3368 O   0  0  0  0  0  0  0  0  0  0  0  0
    5.8835  -11.3391   26.4095 C   0  0  0  0  0  0  0  0  0  0  0  0
    6.9220  -12.0239   25.6003 C   0  0  0  0  0  0  0  0  0  0  0  0
    7.1129  -13.4843   25.9719 C   0  0  2  0  0  0  0  0  0  0  0  0
    7.7198  -13.6551   27.3169 C   0  0  0  0  0  0  0  0  0  0  0  0
    8.1055  -14.0017   24.9151 C   0  0  2  0  0  0  0  0  0  0  0  0
    7.3590  -13.9449   23.6352 N   0  0  0  0  0  0  0  0  0  0  0  0
    8.5104  -15.3923   25.1292 C   0  0  0  0  0  0  0  0  0  0  0  0
    7.5901  -16.2877   25.2191 O   0  0  0  0  0  0  0  0  0  0  0  0
   11.1263  -17.4465   23.1786 C   0  0  0  0  0  0  0  0  0  0  0  0
   11.3065  -17.6999   24.6679 C   0  0  2  0  0  0  0  0  0  0  0  0
   11.7245  -19.1243   24.8608 C   0  0  0  0  0  0  0  0  0  0  0  0
   10.0745  -17.3257   25.4133 C   0  0  2  0  0  0  0  0  0  0  0  0
    9.8270  -15.8904   25.2499 N   0  0  0  0  0  0  0  0  0  0  0  0
   10.2108  -17.6779   26.8474 C   0  0  0  0  0  0  0  0  0  0  0  0
    9.8364  -18.9011   27.3408 O   0  0  0  0  0  0  0  0  0  0  0  0
   10.6876  -16.8305   27.6561 O   0  0  0  0  0  0  0  0  0  0  0  0
  1  2  1  0
  2  3  1  0
  4  3  1  0
  5  4  1  0
  5  6  1  6
  7  5  1  0
  7 14  1  0
  8  7  2  0
 10  9  1  0
 10 11  1  0
 11 13  1  0
 11 12  1  1
 13 14  1  6
 15 21  1  0
 15 13  1  0
 16 15  2  0
 18 17  1  6
 18 20  1  0
 18 19  1  0
 20 21  1  1
 20 22  1  0
 22 23  1  0
 24 22  2  0
M  END
$$$$
