MIV.pdb
     RDKit          3D

 24 23  0  0  1  0  0  0  0  0999 V2000
    5.2081  -19.6434   22.6764 C   0  0  0  0  0  0  0  0  0  0  0  0
    4.7872  -18.8489   21.1396 S   0  0  0  0  0  0  0  0  0  0  0  0
    5.2688  -17.1527   21.0044 C   0  0  0  0  0  0  0  0  0  0  0  0
    6.2862  -16.7171   21.9974 C   0  0  0  0  0  0  0  0  0  0  0  0
    6.6029  -15.2667   21.8913 C   0  0  2  0  0  0  0  0  0  0  0  0
    7.2147  -15.0169   20.5971 N   0  0  0  0  0  0  0  0  0  0  0  0
    7.6148  -14.8531   22.9267 C   0  0  0  0  0  0  0  0  0  0  0  0
    8.8120  -14.8318   22.6205 O   0  0  0  0  0  0  0  0  0  0  0  0
    5.9157  -11.0482   26.0339 C   0  0  0  0  0  0  0  0  0  0  0  0
    6.7982  -12.0202   25.3421 C   0  0  0  0  0  0  0  0  0  0  0  0
    7.1740  -13.2146   26.2020 C   0  0  2  0  0  0  0  0  0  0  0  0
    7.9947  -12.8327   27.3797 C   0  0  0  0  0  0  0  0  0  0  0  0
    8.0330  -14.0820   25.2643 C   0  0  2  0  0  0  0  0  0  0  0  0
    7.1038  -14.5150   24.1928 N   0  0  0  0  0  0  0  0  0  0  0  0
    8.5590  -15.2878   25.9070 C   0  0  0  0  0  0  0  0  0  0  0  0
    9.3782  -15.1462   26.8897 O   0  0  0  0  0  0  0  0  0  0  0  0
    8.9112  -19.2887   24.4105 C   0  0  0  0  0  0  0  0  0  0  0  0
    8.3471  -19.0268   25.7990 C   0  0  2  0  0  0  0  0  0  0  0  0
    6.8540  -19.1075   25.7286 C   0  0  0  0  0  0  0  0  0  0  0  0
    8.8577  -17.7359   26.3342 C   0  0  2  0  0  0  0  0  0  0  0  0
    8.2680  -16.6298   25.5747 N   0  0  0  0  0  0  0  0  0  0  0  0
   10.3384  -17.6957   26.2618 C   0  0  0  0  0  0  0  0  0  0  0  0
   11.1351  -18.3055   27.1962 O   0  0  0  0  0  0  0  0  0  0  0  0
   10.9008  -17.0809   25.3102 O   0  0  0  0  0  0  0  0  0  0  0  0
  1  2  1  0
  2  3  1  0
  4  3  1  0
  5  4  1  0
  5  6  1  6
  7  5  1  0
  7 14  1  0
  8  7  2  0
 10  9  1  0
 10 11  1  0
 11 13  1  0
 11 12  1  1
 13 14  1  6
 15 21  1  0
 15 13  1  0
 16 15  2  0
 18 17  1  6
 18 20  1  0
 18 19  1  0
 20 21  1  6
 20 22  1  0
 22 23  1  0
 24 22  2  0
M  END
$$$$
