MIV.pdb
     RDKit          3D

 24 23  0  0  1  0  0  0  0  0999 V2000
    6.4016  -21.8181   23.7369 C   0  0  0  0  0  0  0  0  0  0  0  0
    4.8479  -21.0664   24.1741 S   0  0  0  0  0  0  0  0  0  0  0  0
    4.5695  -19.4534   23.5051 C   0  0  0  0  0  0  0  0  0  0  0  0
    5.6800  -18.4903   23.7287 C   0  0  0  0  0  0  0  0  0  0  0  0
    5.4127  -17.1592   23.1186 C   0  0  2  0  0  0  0  0  0  0  0  0
    5.2929  -17.3218   21.6797 N   0  0  0  0  0  0  0  0  0  0  0  0
    6.5636  -16.2152   23.3454 C   0  0  0  0  0  0  0  0  0  0  0  0
    7.3519  -15.9971   22.4189 O   0  0  0  0  0  0  0  0  0  0  0  0
    5.8169  -12.2339   26.7182 C   0  0  0  0  0  0  0  0  0  0  0  0
    6.4847  -13.0534   25.6768 C   0  0  0  0  0  0  0  0  0  0  0  0
    7.4617  -14.0703   26.2416 C   0  0  2  0  0  0  0  0  0  0  0  0
    8.6750  -13.4355   26.8171 C   0  0  0  0  0  0  0  0  0  0  0  0
    7.8761  -14.8984   25.0119 C   0  0  2  0  0  0  0  0  0  0  0  0
    6.6523  -15.6419   24.6268 N   0  0  0  0  0  0  0  0  0  0  0  0
    8.9198  -15.8841   25.2995 C   0  0  0  0  0  0  0  0  0  0  0  0
    8.6681  -16.8027   26.1653 O   0  0  0  0  0  0  0  0  0  0  0  0
   12.7906  -16.1668   23.4552 C   0  0  0  0  0  0  0  0  0  0  0  0
   11.8745  -17.3578   23.6933 C   0  0  2  0  0  0  0  0  0  0  0  0
   11.0753  -17.5989   22.4507 C   0  0  0  0  0  0  0  0  0  0  0  0
   11.0474  -17.1441   24.9114 C   0  0  2  0  0  0  0  0  0  0  0  0
   10.2084  -15.9571   24.7248 N   0  0  0  0  0  0  0  0  0  0  0  0
   11.9143  -16.9953   26.1055 C   0  0  0  0  0  0  0  0  0  0  0  0
   12.0101  -15.8170   26.7998 O   0  0  0  0  0  0  0  0  0  0  0  0
   12.5954  -17.9814   26.5096 O   0  0  0  0  0  0  0  0  0  0  0  0
  1  2  1  0
  2  3  1  0
  4  3  1  0
  5  4  1  0
  5  6  1  6
  7  5  1  0
  7 14  1  0
  8  7  2  0
 10  9  1  0
 10 11  1  0
 11 13  1  0
 11 12  1  6
 13 14  1  1
 15 21  1  0
 15 13  1  0
 16 15  2  0
 18 17  1  6
 18 20  1  0
 18 19  1  0
 20 21  1  6
 20 22  1  0
 22 23  1  0
 24 22  2  0
M  END
$$$$
