MIV.pdb
     RDKit          3D

 24 23  0  0  1  0  0  0  0  0999 V2000
    8.4582  -20.9067   27.8933 C   0  0  0  0  0  0  0  0  0  0  0  0
    6.7269  -20.7527   28.2798 S   0  0  0  0  0  0  0  0  0  0  0  0
    5.7472  -19.9265   27.0614 C   0  0  0  0  0  0  0  0  0  0  0  0
    6.5294  -19.2408   25.9989 C   0  0  0  0  0  0  0  0  0  0  0  0
    5.6756  -18.4063   25.1102 C   0  0  2  0  0  0  0  0  0  0  0  0
    5.2610  -19.2103   23.9731 N   0  0  0  0  0  0  0  0  0  0  0  0
    6.4484  -17.2424   24.5486 C   0  0  0  0  0  0  0  0  0  0  0  0
    6.8728  -17.3075   23.3896 O   0  0  0  0  0  0  0  0  0  0  0  0
    5.5661  -12.4516   26.8340 C   0  0  0  0  0  0  0  0  0  0  0  0
    6.0256  -13.4461   25.8331 C   0  0  0  0  0  0  0  0  0  0  0  0
    7.4121  -13.9964   26.1196 C   0  0  2  0  0  0  0  0  0  0  0  0
    8.4765  -12.9741   25.9510 C   0  0  0  0  0  0  0  0  0  0  0  0
    7.6005  -15.0842   25.0468 C   0  0  2  0  0  0  0  0  0  0  0  0
    6.6307  -16.1455   25.4099 N   0  0  0  0  0  0  0  0  0  0  0  0
    8.9360  -15.6842   25.0553 C   0  0  0  0  0  0  0  0  0  0  0  0
    9.2757  -16.3998   26.0699 O   0  0  0  0  0  0  0  0  0  0  0  0
   10.7246  -16.8775   21.6215 C   0  0  0  0  0  0  0  0  0  0  0  0
   11.7142  -16.4444   22.6928 C   0  0  2  0  0  0  0  0  0  0  0  0
   12.9424  -17.2923   22.5763 C   0  0  0  0  0  0  0  0  0  0  0  0
   11.0779  -16.4843   24.0371 C   0  0  2  0  0  0  0  0  0  0  0  0
    9.9286  -15.5752   24.0559 N   0  0  0  0  0  0  0  0  0  0  0  0
   12.0602  -16.1153   25.0851 C   0  0  0  0  0  0  0  0  0  0  0  0
   12.7846  -17.0535   25.7742 O   0  0  0  0  0  0  0  0  0  0  0  0
   12.2472  -14.8960   25.3643 O   0  0  0  0  0  0  0  0  0  0  0  0
  1  2  1  0
  2  3  1  0
  4  3  1  0
  5  4  1  0
  5  6  1  6
  7  5  1  0
  7 14  1  0
  8  7  2  0
 10  9  1  0
 10 11  1  0
 11 13  1  0
 11 12  1  6
 13 14  1  1
 15 21  1  0
 15 13  1  0
 16 15  2  0
 18 17  1  6
 18 20  1  0
 18 19  1  0
 20 21  1  6
 20 22  1  0
 22 23  1  0
 24 22  2  0
M  END
$$$$
