MIV.pdb
     RDKit          3D

 24 23  0  0  1  0  0  0  0  0999 V2000
    7.6687  -20.3530   25.9775 C   0  0  0  0  0  0  0  0  0  0  0  0
    6.0232  -19.7707   26.3289 S   0  0  0  0  0  0  0  0  0  0  0  0
    5.1306  -19.1333   24.9417 C   0  0  0  0  0  0  0  0  0  0  0  0
    5.9811  -18.7287   23.7912 C   0  0  0  0  0  0  0  0  0  0  0  0
    5.6723  -17.3550   23.3085 C   0  0  2  0  0  0  0  0  0  0  0  0
    5.5247  -17.3911   21.8634 N   0  0  0  0  0  0  0  0  0  0  0  0
    6.8076  -16.4087   23.5963 C   0  0  0  0  0  0  0  0  0  0  0  0
    7.6943  -16.2602   22.7482 O   0  0  0  0  0  0  0  0  0  0  0  0
    5.7736  -12.0962   26.5264 C   0  0  0  0  0  0  0  0  0  0  0  0
    6.5616  -12.9848   25.6367 C   0  0  0  0  0  0  0  0  0  0  0  0
    7.3717  -14.0279   26.3871 C   0  0  2  0  0  0  0  0  0  0  0  0
    8.5146  -13.4360   27.1287 C   0  0  0  0  0  0  0  0  0  0  0  0
    7.9251  -14.9312   25.2703 C   0  0  2  0  0  0  0  0  0  0  0  0
    6.7677  -15.7521   24.8395 N   0  0  0  0  0  0  0  0  0  0  0  0
    8.9709  -15.8478   25.7283 C   0  0  0  0  0  0  0  0  0  0  0  0
    8.6935  -16.6562   26.6907 O   0  0  0  0  0  0  0  0  0  0  0  0
   11.3205  -17.5612   23.0280 C   0  0  0  0  0  0  0  0  0  0  0  0
   12.0490  -17.3475   24.3464 C   0  0  2  0  0  0  0  0  0  0  0  0
   13.0084  -18.4789   24.5483 C   0  0  0  0  0  0  0  0  0  0  0  0
   11.0755  -17.1754   25.4582 C   0  0  2  0  0  0  0  0  0  0  0  0
   10.2871  -15.9616   25.2278 N   0  0  0  0  0  0  0  0  0  0  0  0
   11.7837  -17.1056   26.7594 C   0  0  0  0  0  0  0  0  0  0  0  0
   12.0017  -18.2144   27.5359 O   0  0  0  0  0  0  0  0  0  0  0  0
   12.2074  -15.9910   27.1809 O   0  0  0  0  0  0  0  0  0  0  0  0
  1  2  1  0
  2  3  1  0
  4  3  1  0
  5  4  1  0
  5  6  1  6
  7  5  1  0
  7 14  1  0
  8  7  2  0
 10  9  1  0
 10 11  1  0
 11 13  1  0
 11 12  1  6
 13 14  1  1
 15 21  1  0
 15 13  1  0
 16 15  2  0
 18 17  1  6
 18 20  1  0
 18 19  1  0
 20 21  1  6
 20 22  1  0
 22 23  1  0
 24 22  2  0
M  END
$$$$
