MIV.pdb
     RDKit          3D

 24 23  0  0  1  0  0  0  0  0999 V2000
    4.6838  -19.4402   22.1312 C   0  0  0  0  0  0  0  0  0  0  0  0
    4.1558  -18.4915   20.7200 S   0  0  0  0  0  0  0  0  0  0  0  0
    4.6799  -16.8027   20.7008 C   0  0  0  0  0  0  0  0  0  0  0  0
    5.8014  -16.4920   21.6262 C   0  0  0  0  0  0  0  0  0  0  0  0
    6.2118  -15.0626   21.5660 C   0  0  2  0  0  0  0  0  0  0  0  0
    6.7319  -14.7827   20.2383 N   0  0  0  0  0  0  0  0  0  0  0  0
    7.3321  -14.7765   22.5304 C   0  0  0  0  0  0  0  0  0  0  0  0
    8.4983  -14.8116   22.1225 O   0  0  0  0  0  0  0  0  0  0  0  0
    6.1223  -11.2323   26.1249 C   0  0  0  0  0  0  0  0  0  0  0  0
    6.8987  -12.1641   25.2700 C   0  0  0  0  0  0  0  0  0  0  0  0
    7.3012  -13.4446   25.9812 C   0  0  2  0  0  0  0  0  0  0  0  0
    8.2707  -13.2045   27.0808 C   0  0  0  0  0  0  0  0  0  0  0  0
    7.9976  -14.2675   24.8824 C   0  0  2  0  0  0  0  0  0  0  0  0
    6.9526  -14.4846   23.8530 N   0  0  0  0  0  0  0  0  0  0  0  0
    8.4484  -15.5835   25.3390 C   0  0  0  0  0  0  0  0  0  0  0  0
    7.5641  -16.4160   25.7654 O   0  0  0  0  0  0  0  0  0  0  0  0
   12.3365  -17.2590   24.8061 C   0  0  0  0  0  0  0  0  0  0  0  0
   11.0305  -18.0389   24.7773 C   0  0  2  0  0  0  0  0  0  0  0  0
   10.5352  -18.0851   23.3653 C   0  0  0  0  0  0  0  0  0  0  0  0
   10.0559  -17.4595   25.7406 C   0  0  2  0  0  0  0  0  0  0  0  0
    9.7743  -16.0704   25.3679 N   0  0  0  0  0  0  0  0  0  0  0  0
   10.5866  -17.5379   27.1232 C   0  0  0  0  0  0  0  0  0  0  0  0
   10.6696  -18.7211   27.8108 O   0  0  0  0  0  0  0  0  0  0  0  0
   10.9805  -16.4844   27.7017 O   0  0  0  0  0  0  0  0  0  0  0  0
  1  2  1  0
  2  3  1  0
  4  3  1  0
  5  4  1  0
  5  6  1  6
  7  5  1  0
  7 14  1  0
  8  7  2  0
 10  9  1  0
 10 11  1  0
 11 13  1  0
 11 12  1  1
 13 14  1  6
 15 21  1  0
 15 13  1  0
 16 15  2  0
 18 17  1  6
 18 20  1  0
 18 19  1  0
 20 21  1  6
 20 22  1  0
 22 23  1  0
 24 22  2  0
M  END
$$$$
