HDR.pdb
     RDKit          3D

 30 30  0  0  1  0  0  0  0  0999 V2000
   27.8108  -16.7481  -18.1182 N   0  0  0  0  0  0  0  0  0  0  0  0
   26.9270  -17.8501  -17.9106 C   0  0  1  0  0  0  0  0  0  0  0  0
   27.6977  -19.0668  -17.4588 C   0  0  0  0  0  0  0  0  0  0  0  0
   28.6128  -19.4781  -18.5540 C   0  0  0  0  0  0  0  0  0  0  0  0
   28.3213  -20.4137  -19.5620 C   0  0  0  0  0  0  0  0  0  0  0  0
   29.3876  -20.5179  -20.3693 N   0  0  0  0  0  0  0  0  0  0  0  0
   30.3436  -19.6986  -19.9278 C   0  0  0  0  0  0  0  0  0  0  0  0
   29.8638  -19.0797  -18.8348 N   0  0  0  0  0  0  0  0  0  0  0  0
   25.8538  -17.4758  -16.9570 C   0  0  0  0  0  0  0  0  0  0  0  0
   26.1467  -17.0690  -15.8283 O   0  0  0  0  0  0  0  0  0  0  0  0
   24.4922  -17.5785  -17.3239 N   0  0  0  0  0  0  0  0  0  0  0  0
   23.3879  -17.3205  -16.4468 C   0  0  1  0  0  0  0  0  0  0  0  0
   22.3946  -16.3374  -17.0657 C   0  0  0  0  0  0  0  0  0  0  0  0
   22.9195  -14.9590  -17.1055 C   0  0  0  0  0  0  0  0  0  0  0  0
   23.4993  -14.4577  -18.1120 O   0  0  0  0  0  0  0  0  0  0  0  0
   22.6742  -18.5065  -15.9818 C   0  0  0  0  0  0  0  0  0  0  0  0
   22.3666  -19.4377  -16.7733 O   0  0  0  0  0  0  0  0  0  0  0  0
   22.7807  -14.1559  -15.9880 O   0  0  0  0  0  0  0  0  0  0  0  0
   20.2963  -21.2297   -7.7030 N   0  0  0  0  0  0  0  0  0  0  0  0
   19.8349  -22.2270   -8.6279 C   0  0  0  0  0  0  0  0  0  0  0  0
   19.3110  -23.2724   -8.1276 N   0  0  0  0  0  0  0  0  0  0  0  0
   19.9464  -22.0783  -10.0272 N   0  0  0  0  0  0  0  0  0  0  0  0
   20.5043  -20.8829  -10.6186 C   0  0  0  0  0  0  0  0  0  0  0  0
   20.6897  -21.0485  -12.1295 C   0  0  0  0  0  0  0  0  0  0  0  0
   21.3815  -19.8510  -12.7256 C   0  0  0  0  0  0  0  0  0  0  0  0
   21.5230  -19.8890  -14.2037 C   0  0  2  0  0  0  0  0  0  0  0  0
   22.2657  -18.7247  -14.6352 N   0  0  0  0  0  0  0  0  0  0  0  0
   20.2538  -20.0602  -14.9313 C   0  0  0  0  0  0  0  0  0  0  0  0
   19.4637  -19.0751  -15.0781 O   0  0  0  0  0  0  0  0  0  0  0  0
   19.8182  -21.2521  -15.5015 O   0  0  0  0  0  0  0  0  0  0  0  0
  2  3  1  0
  2  1  1  1
  3  4  1  0
  4  5  2  0
  5  6  1  0
  7  6  1  0
  8  4  1  0
  8  7  2  0
  9  2  1  0
 10  9  2  0
 11  9  1  0
 12 11  1  0
 12 13  1  6
 13 14  1  0
 14 18  1  0
 15 14  2  0
 16 27  1  0
 16 12  1  0
 17 16  2  0
 20 21  2  0
 20 19  1  0
 22 20  1  0
 23 22  1  0
 24 23  1  0
 26 25  1  1
 25 24  1  0
 26 28  1  0
 26 27  1  0
 28 30  1  0
 29 28  2  0
M  END
$$$$
