HDR.pdb
     RDKit          3D

 30 30  0  0  1  0  0  0  0  0999 V2000
   26.7691  -20.1339  -17.7015 N   0  0  0  0  0  0  0  0  0  0  0  0
   26.4682  -20.3021  -16.3159 C   0  0  1  0  0  0  0  0  0  0  0  0
   27.7168  -20.6522  -15.5434 C   0  0  0  0  0  0  0  0  0  0  0  0
   28.2983  -21.8896  -16.1239 C   0  0  0  0  0  0  0  0  0  0  0  0
   27.8887  -23.2038  -15.8382 C   0  0  0  0  0  0  0  0  0  0  0  0
   28.6425  -24.0513  -16.5544 N   0  0  0  0  0  0  0  0  0  0  0  0
   29.5116  -23.3461  -17.2806 C   0  0  0  0  0  0  0  0  0  0  0  0
   29.2934  -22.0470  -17.0113 N   0  0  0  0  0  0  0  0  0  0  0  0
   25.7975  -19.0900  -15.7848 C   0  0  0  0  0  0  0  0  0  0  0  0
   25.4340  -19.0536  -14.6050 O   0  0  0  0  0  0  0  0  0  0  0  0
   25.5668  -17.9687  -16.6148 N   0  0  0  0  0  0  0  0  0  0  0  0
   24.8758  -16.7800  -16.2089 C   0  0  1  0  0  0  0  0  0  0  0  0
   25.7791  -15.5494  -16.2848 C   0  0  0  0  0  0  0  0  0  0  0  0
   25.1405  -14.3480  -15.7137 C   0  0  0  0  0  0  0  0  0  0  0  0
   25.0929  -14.1009  -14.4739 O   0  0  0  0  0  0  0  0  0  0  0  0
   23.6286  -16.5136  -16.9201 C   0  0  0  0  0  0  0  0  0  0  0  0
   23.4256  -15.4106  -17.4951 O   0  0  0  0  0  0  0  0  0  0  0  0
   24.5540  -13.4306  -16.5666 O   0  0  0  0  0  0  0  0  0  0  0  0
   19.1597  -21.1606  -13.0334 N   0  0  0  0  0  0  0  0  0  0  0  0
   19.0201  -21.6987  -14.3576 C   0  0  0  0  0  0  0  0  0  0  0  0
   18.0031  -22.4314  -14.5731 N   0  0  0  0  0  0  0  0  0  0  0  0
   19.9521  -21.4424  -15.3865 N   0  0  0  0  0  0  0  0  0  0  0  0
   20.8549  -20.3150  -15.3254 C   0  0  0  0  0  0  0  0  0  0  0  0
   20.0848  -18.9941  -15.2433 C   0  0  0  0  0  0  0  0  0  0  0  0
   21.0248  -17.8176  -15.2370 C   0  0  0  0  0  0  0  0  0  0  0  0
   21.2116  -17.1663  -16.5589 C   0  0  2  0  0  0  0  0  0  0  0  0
   22.5516  -17.4384  -17.0321 N   0  0  0  0  0  0  0  0  0  0  0  0
   20.8767  -15.7322  -16.5823 C   0  0  0  0  0  0  0  0  0  0  0  0
   19.9970  -15.2947  -17.3891 O   0  0  0  0  0  0  0  0  0  0  0  0
   21.4568  -14.7663  -15.7660 O   0  0  0  0  0  0  0  0  0  0  0  0
  2  3  1  0
  2  1  1  6
  3  4  1  0
  4  5  2  0
  5  6  1  0
  7  6  1  0
  8  4  1  0
  8  7  2  0
  9  2  1  0
 10  9  2  0
 11  9  1  0
 12 11  1  0
 12 13  1  6
 13 14  1  0
 14 18  1  0
 15 14  2  0
 16 27  1  0
 16 12  1  0
 17 16  2  0
 20 21  2  0
 20 19  1  0
 22 20  1  0
 23 22  1  0
 24 23  1  0
 26 25  1  1
 25 24  1  0
 26 28  1  0
 26 27  1  0
 28 30  1  0
 29 28  2  0
M  END
$$$$
