HDR.pdb
     RDKit          3D

 30 30  0  0  1  0  0  0  0  0999 V2000
   26.2155  -20.0469  -15.5299 N   0  0  0  0  0  0  0  0  0  0  0  0
   25.3803  -21.1538  -15.1891 C   0  0  1  0  0  0  0  0  0  0  0  0
   26.1943  -22.2512  -14.5477 C   0  0  0  0  0  0  0  0  0  0  0  0
   27.2773  -22.6437  -15.4854 C   0  0  0  0  0  0  0  0  0  0  0  0
   27.5582  -22.0330  -16.7200 C   0  0  0  0  0  0  0  0  0  0  0  0
   28.6067  -22.6577  -17.2768 N   0  0  0  0  0  0  0  0  0  0  0  0
   29.0078  -23.6352  -16.4621 C   0  0  0  0  0  0  0  0  0  0  0  0
   28.1986  -23.6154  -15.3884 N   0  0  0  0  0  0  0  0  0  0  0  0
   24.2592  -20.7054  -14.3271 C   0  0  0  0  0  0  0  0  0  0  0  0
   24.4835  -19.9857  -13.3489 O   0  0  0  0  0  0  0  0  0  0  0  0
   22.9291  -21.0925  -14.6109 N   0  0  0  0  0  0  0  0  0  0  0  0
   21.7865  -20.7265  -13.8262 C   0  0  1  0  0  0  0  0  0  0  0  0
   21.0079  -19.5776  -14.4663 C   0  0  0  0  0  0  0  0  0  0  0  0
   19.8161  -19.2013  -13.6820 C   0  0  0  0  0  0  0  0  0  0  0  0
   19.8155  -19.0753  -12.4232 O   0  0  0  0  0  0  0  0  0  0  0  0
   20.8716  -21.8209  -13.5140 C   0  0  0  0  0  0  0  0  0  0  0  0
   20.4706  -22.6141  -14.4076 O   0  0  0  0  0  0  0  0  0  0  0  0
   18.6231  -18.9715  -14.3432 O   0  0  0  0  0  0  0  0  0  0  0  0
   18.2769  -25.1917   -5.6462 N   0  0  0  0  0  0  0  0  0  0  0  0
   18.5846  -26.1510   -6.6699 C   0  0  0  0  0  0  0  0  0  0  0  0
   18.8074  -27.3435   -6.2881 N   0  0  0  0  0  0  0  0  0  0  0  0
   18.6435  -25.8121   -8.0390 N   0  0  0  0  0  0  0  0  0  0  0  0
   18.2643  -24.4990   -8.5100 C   0  0  0  0  0  0  0  0  0  0  0  0
   18.3473  -24.4140  -10.0366 C   0  0  0  0  0  0  0  0  0  0  0  0
   19.2567  -23.2942  -10.4689 C   0  0  0  0  0  0  0  0  0  0  0  0
   19.3973  -23.1426  -11.9398 C   0  0  2  0  0  0  0  0  0  0  0  0
   20.3556  -22.0940  -12.2151 N   0  0  0  0  0  0  0  0  0  0  0  0
   18.1237  -22.9563  -12.6558 C   0  0  0  0  0  0  0  0  0  0  0  0
   17.6354  -21.7912  -12.7985 O   0  0  0  0  0  0  0  0  0  0  0  0
   17.3703  -23.9815  -13.2189 O   0  0  0  0  0  0  0  0  0  0  0  0
  2  3  1  0
  2  1  1  1
  3  4  1  0
  4  5  2  0
  5  6  1  0
  7  6  1  0
  8  4  1  0
  8  7  2  0
  9  2  1  0
 10  9  2  0
 11  9  1  0
 12 11  1  0
 12 13  1  6
 13 14  1  0
 14 18  1  0
 15 14  2  0
 16 27  1  0
 16 12  1  0
 17 16  2  0
 20 21  2  0
 20 19  1  0
 22 20  1  0
 23 22  1  0
 24 23  1  0
 26 25  1  1
 25 24  1  0
 26 28  1  0
 26 27  1  0
 28 30  1  0
 29 28  2  0
M  END
$$$$
