HDR.pdb
     RDKit          3D

 30 30  0  0  1  0  0  0  0  0999 V2000
   26.2685  -21.6272  -11.0390 N   0  0  0  0  0  0  0  0  0  0  0  0
   25.0772  -20.9560  -10.6279 C   0  0  1  0  0  0  0  0  0  0  0  0
   25.3971  -19.5632  -10.1421 C   0  0  0  0  0  0  0  0  0  0  0  0
   26.3133  -19.6693   -8.9778 C   0  0  0  0  0  0  0  0  0  0  0  0
   26.8326  -20.8624   -8.4455 C   0  0  0  0  0  0  0  0  0  0  0  0
   27.6224  -20.5576   -7.4049 N   0  0  0  0  0  0  0  0  0  0  0  0
   27.6327  -19.2330   -7.2456 C   0  0  0  0  0  0  0  0  0  0  0  0
   26.8404  -18.7114   -8.1986 N   0  0  0  0  0  0  0  0  0  0  0  0
   24.0820  -20.9551  -11.7282 C   0  0  0  0  0  0  0  0  0  0  0  0
   24.4618  -20.9906  -12.9028 O   0  0  0  0  0  0  0  0  0  0  0  0
   22.6962  -20.9139  -11.4500 N   0  0  0  0  0  0  0  0  0  0  0  0
   21.6615  -20.9950  -12.4389 C   0  0  1  0  0  0  0  0  0  0  0  0
   20.3588  -21.5339  -11.8485 C   0  0  0  0  0  0  0  0  0  0  0  0
   20.3493  -23.0068  -11.7602 C   0  0  0  0  0  0  0  0  0  0  0  0
   21.0106  -23.7603  -12.5317 O   0  0  0  0  0  0  0  0  0  0  0  0
   21.3931  -19.7538  -13.1597 C   0  0  0  0  0  0  0  0  0  0  0  0
   20.9589  -18.7316  -12.5639 O   0  0  0  0  0  0  0  0  0  0  0  0
   19.5780  -23.6154  -10.7866 O   0  0  0  0  0  0  0  0  0  0  0  0
   24.2478  -19.4343  -20.2346 N   0  0  0  0  0  0  0  0  0  0  0  0
   22.8577  -19.4058  -20.5945 C   0  0  0  0  0  0  0  0  0  0  0  0
   22.4911  -20.1933  -21.5235 N   0  0  0  0  0  0  0  0  0  0  0  0
   21.9245  -18.5547  -19.9640 N   0  0  0  0  0  0  0  0  0  0  0  0
   22.2363  -17.8753  -18.7266 C   0  0  0  0  0  0  0  0  0  0  0  0
   22.2419  -18.8510  -17.5466 C   0  0  0  0  0  0  0  0  0  0  0  0
   22.4534  -18.1256  -16.2439 C   0  0  0  0  0  0  0  0  0  0  0  0
   21.3728  -18.3200  -15.2435 C   0  0  2  0  0  0  0  0  0  0  0  0
   21.5857  -19.5771  -14.5595 N   0  0  0  0  0  0  0  0  0  0  0  0
   20.0104  -18.1881  -15.7874 C   0  0  0  0  0  0  0  0  0  0  0  0
   19.5382  -17.0387  -16.0560 O   0  0  0  0  0  0  0  0  0  0  0  0
   19.1520  -19.2513  -16.0495 O   0  0  0  0  0  0  0  0  0  0  0  0
  2  3  1  0
  2  1  1  6
  3  4  1  0
  4  5  2  0
  5  6  1  0
  7  6  1  0
  8  4  1  0
  8  7  2  0
  9  2  1  0
 10  9  2  0
 11  9  1  0
 12 11  1  0
 12 13  1  1
 13 14  1  0
 14 18  1  0
 15 14  2  0
 16 27  1  0
 16 12  1  0
 17 16  2  0
 20 21  2  0
 20 19  1  0
 22 20  1  0
 23 22  1  0
 24 23  1  0
 26 25  1  6
 25 24  1  0
 26 28  1  0
 26 27  1  0
 28 30  1  0
 29 28  2  0
M  END
$$$$
