HDR.pdb
     RDKit          3D

 30 30  0  0  1  0  0  0  0  0999 V2000
   21.9769  -11.0194  -16.1547 N   0  0  0  0  0  0  0  0  0  0  0  0
   21.3688   -9.9384  -16.8621 C   0  0  1  0  0  0  0  0  0  0  0  0
   20.0812  -10.3885  -17.5084 C   0  0  0  0  0  0  0  0  0  0  0  0
   20.3990  -11.4374  -18.5109 C   0  0  0  0  0  0  0  0  0  0  0  0
   20.6694  -11.2188  -19.8730 C   0  0  0  0  0  0  0  0  0  0  0  0
   20.9152  -12.4022  -20.4550 N   0  0  0  0  0  0  0  0  0  0  0  0
   20.8146  -13.3634  -19.5352 C   0  0  0  0  0  0  0  0  0  0  0  0
   20.5032  -12.7685  -18.3703 N   0  0  0  0  0  0  0  0  0  0  0  0
   21.1710   -8.7790  -15.9577 C   0  0  0  0  0  0  0  0  0  0  0  0
   20.5427   -8.9196  -14.9038 O   0  0  0  0  0  0  0  0  0  0  0  0
   21.6946   -7.5074  -16.2867 N   0  0  0  0  0  0  0  0  0  0  0  0
   21.5183   -6.3225  -15.4993 C   0  0  1  0  0  0  0  0  0  0  0  0
   22.8534   -5.6414  -15.1996 C   0  0  0  0  0  0  0  0  0  0  0  0
   22.6872   -4.3956  -14.4265 C   0  0  0  0  0  0  0  0  0  0  0  0
   22.2602   -4.3600  -13.2362 O   0  0  0  0  0  0  0  0  0  0  0  0
   20.5850   -5.3440  -16.0504 C   0  0  0  0  0  0  0  0  0  0  0  0
   20.6717   -4.9585  -17.2472 O   0  0  0  0  0  0  0  0  0  0  0  0
   23.0093   -3.1891  -15.0213 O   0  0  0  0  0  0  0  0  0  0  0  0
   12.1263   -4.4965  -16.4028 N   0  0  0  0  0  0  0  0  0  0  0  0
   12.7616   -5.5629  -15.6803 C   0  0  0  0  0  0  0  0  0  0  0  0
   12.0206   -6.5330  -15.3235 N   0  0  0  0  0  0  0  0  0  0  0  0
   14.1384   -5.5578  -15.3686 N   0  0  0  0  0  0  0  0  0  0  0  0
   15.0963   -4.8482  -16.1864 C   0  0  0  0  0  0  0  0  0  0  0  0
   16.5271   -5.0910  -15.6982 C   0  0  0  0  0  0  0  0  0  0  0  0
   17.5282   -4.4029  -16.5883 C   0  0  0  0  0  0  0  0  0  0  0  0
   18.6420   -3.7347  -15.8678 C   0  0  2  0  0  0  0  0  0  0  0  0
   19.5202   -4.7451  -15.3188 N   0  0  0  0  0  0  0  0  0  0  0  0
   18.2105   -2.7456  -14.8653 C   0  0  0  0  0  0  0  0  0  0  0  0
   18.6533   -2.8072  -13.6752 O   0  0  0  0  0  0  0  0  0  0  0  0
   17.3248   -1.7006  -15.1088 O   0  0  0  0  0  0  0  0  0  0  0  0
  2  3  1  0
  2  1  1  1
  3  4  1  0
  4  5  2  0
  5  6  1  0
  7  6  1  0
  8  4  1  0
  8  7  2  0
  9  2  1  0
 10  9  2  0
 11  9  1  0
 12 11  1  0
 12 13  1  6
 13 14  1  0
 14 18  1  0
 15 14  2  0
 16 27  1  0
 16 12  1  0
 17 16  2  0
 20 21  2  0
 20 19  1  0
 22 20  1  0
 23 22  1  0
 24 23  1  0
 26 25  1  1
 25 24  1  0
 26 28  1  0
 26 27  1  0
 28 30  1  0
 29 28  2  0
M  END
$$$$
