HDR.pdb
     RDKit          3D

 30 30  0  0  1  0  0  0  0  0999 V2000
   23.8182  -13.8282  -17.5490 N   0  0  0  0  0  0  0  0  0  0  0  0
   24.0105  -12.9175  -16.4663 C   0  0  1  0  0  0  0  0  0  0  0  0
   25.4599  -12.5070  -16.3729 C   0  0  0  0  0  0  0  0  0  0  0  0
   26.2834  -13.7275  -16.1767 C   0  0  0  0  0  0  0  0  0  0  0  0
   26.3547  -14.4913  -14.9986 C   0  0  0  0  0  0  0  0  0  0  0  0
   27.1957  -15.5160  -15.2043 N   0  0  0  0  0  0  0  0  0  0  0  0
   27.6647  -15.4445  -16.4513 C   0  0  0  0  0  0  0  0  0  0  0  0
   27.1077  -14.3633  -17.0245 N   0  0  0  0  0  0  0  0  0  0  0  0
   23.1021  -11.7529  -16.6068 C   0  0  0  0  0  0  0  0  0  0  0  0
   22.9931  -11.1844  -17.6978 O   0  0  0  0  0  0  0  0  0  0  0  0
   22.3547  -11.2813  -15.5031 N   0  0  0  0  0  0  0  0  0  0  0  0
   21.3983  -10.2149  -15.5596 C   0  0  1  0  0  0  0  0  0  0  0  0
   20.1297  -10.5536  -14.7772 C   0  0  0  0  0  0  0  0  0  0  0  0
   19.0981   -9.5056  -14.8991 C   0  0  0  0  0  0  0  0  0  0  0  0
   18.5028   -8.9886  -13.9099 O   0  0  0  0  0  0  0  0  0  0  0  0
   21.8980   -8.9098  -15.1363 C   0  0  0  0  0  0  0  0  0  0  0  0
   22.4828   -8.7601  -14.0299 O   0  0  0  0  0  0  0  0  0  0  0  0
   18.7481   -9.0522  -16.1581 O   0  0  0  0  0  0  0  0  0  0  0  0
   22.5215   -1.0399  -19.5692 N   0  0  0  0  0  0  0  0  0  0  0  0
   23.2774   -0.9215  -18.3537 C   0  0  0  0  0  0  0  0  0  0  0  0
   23.9174    0.1640  -18.1815 N   0  0  0  0  0  0  0  0  0  0  0  0
   23.3243   -1.9451  -17.3827 N   0  0  0  0  0  0  0  0  0  0  0  0
   22.6534   -3.2097  -17.5840 C   0  0  0  0  0  0  0  0  0  0  0  0
   22.8709   -4.1466  -16.3926 C   0  0  0  0  0  0  0  0  0  0  0  0
   22.2268   -5.4867  -16.6316 C   0  0  0  0  0  0  0  0  0  0  0  0
   22.3804   -6.4560  -15.5166 C   0  0  2  0  0  0  0  0  0  0  0  0
   21.7792   -7.7146  -15.9013 N   0  0  0  0  0  0  0  0  0  0  0  0
   21.8975   -5.9655  -14.2144 C   0  0  0  0  0  0  0  0  0  0  0  0
   22.6868   -5.3491  -13.4312 O   0  0  0  0  0  0  0  0  0  0  0  0
   20.5989   -6.1178  -13.7387 O   0  0  0  0  0  0  0  0  0  0  0  0
  2  3  1  0
  2  1  1  6
  3  4  1  0
  4  5  2  0
  5  6  1  0
  7  6  1  0
  8  4  1  0
  8  7  2  0
  9  2  1  0
 10  9  2  0
 11  9  1  0
 12 11  1  0
 12 13  1  1
 13 14  1  0
 14 18  1  0
 15 14  2  0
 16 27  1  0
 16 12  1  0
 17 16  2  0
 20 21  2  0
 20 19  1  0
 22 20  1  0
 23 22  1  0
 24 23  1  0
 26 25  1  6
 25 24  1  0
 26 28  1  0
 26 27  1  0
 28 30  1  0
 29 28  2  0
M  END
$$$$
