HDR.pdb
     RDKit          3D

 30 30  0  0  1  0  0  0  0  0999 V2000
   44.4024   -9.7177   -6.4257 N   0  0  0  0  0  0  0  0  0  0  0  0
   43.9459   -9.7632   -7.7779 C   0  0  1  0  0  0  0  0  0  0  0  0
   43.2433  -11.0701   -8.0540 C   0  0  0  0  0  0  0  0  0  0  0  0
   44.2571  -12.1556   -8.0706 C   0  0  0  0  0  0  0  0  0  0  0  0
   45.6299  -12.0033   -7.8089 C   0  0  0  0  0  0  0  0  0  0  0  0
   46.2203  -13.2034   -7.9132 N   0  0  0  0  0  0  0  0  0  0  0  0
   45.2957  -14.1120   -8.2288 C   0  0  0  0  0  0  0  0  0  0  0  0
   44.1193  -13.4674   -8.3207 N   0  0  0  0  0  0  0  0  0  0  0  0
   43.0881   -8.5885   -8.0705 C   0  0  0  0  0  0  0  0  0  0  0  0
   42.0076   -8.4540   -7.4876 O   0  0  0  0  0  0  0  0  0  0  0  0
   43.4920   -7.6147   -9.0127 N   0  0  0  0  0  0  0  0  0  0  0  0
   42.7125   -6.4735   -9.3935 C   0  0  1  0  0  0  0  0  0  0  0  0
   43.4205   -5.6378  -10.4597 C   0  0  0  0  0  0  0  0  0  0  0  0
   42.6756   -4.4094  -10.7965 C   0  0  0  0  0  0  0  0  0  0  0  0
   42.1781   -4.1809  -11.9369 O   0  0  0  0  0  0  0  0  0  0  0  0
   41.3512   -6.7695   -9.8311 C   0  0  0  0  0  0  0  0  0  0  0  0
   41.1251   -7.6051  -10.7472 O   0  0  0  0  0  0  0  0  0  0  0  0
   42.5037   -3.4413   -9.8237 O   0  0  0  0  0  0  0  0  0  0  0  0
   36.6073  -11.5837   -6.0706 N   0  0  0  0  0  0  0  0  0  0  0  0
   36.8466  -11.7154   -7.4807 C   0  0  0  0  0  0  0  0  0  0  0  0
   36.1002  -12.5273   -8.1141 N   0  0  0  0  0  0  0  0  0  0  0  0
   37.8544  -10.9913   -8.1535 N   0  0  0  0  0  0  0  0  0  0  0  0
   38.1380   -9.6112   -7.8300 C   0  0  0  0  0  0  0  0  0  0  0  0
   37.8966   -8.6998   -9.0365 C   0  0  0  0  0  0  0  0  0  0  0  0
   38.1460   -7.2569   -8.6849 C   0  0  0  0  0  0  0  0  0  0  0  0
   38.8408   -6.4733   -9.7382 C   0  0  2  0  0  0  0  0  0  0  0  0
   40.1812   -6.1657   -9.2885 N   0  0  0  0  0  0  0  0  0  0  0  0
   38.1035   -5.2832  -10.1960 C   0  0  0  0  0  0  0  0  0  0  0  0
   38.5534   -4.1196   -9.9510 O   0  0  0  0  0  0  0  0  0  0  0  0
   36.9072   -5.3127  -10.9057 O   0  0  0  0  0  0  0  0  0  0  0  0
  2  3  1  0
  2  1  1  1
  3  4  1  0
  4  5  2  0
  5  6  1  0
  7  6  1  0
  8  4  1  0
  8  7  2  0
  9  2  1  0
 10  9  2  0
 11  9  1  0
 12 11  1  0
 12 13  1  6
 13 14  1  0
 14 18  1  0
 15 14  2  0
 16 27  1  0
 16 12  1  0
 17 16  2  0
 20 21  2  0
 20 19  1  0
 22 20  1  0
 23 22  1  0
 24 23  1  0
 26 25  1  1
 25 24  1  0
 26 28  1  0
 26 27  1  0
 28 30  1  0
 29 28  2  0
M  END
$$$$
