HDR.pdb
     RDKit          3D

 30 30  0  0  1  0  0  0  0  0999 V2000
   25.9776  -14.1172  -22.8839 N   0  0  0  0  0  0  0  0  0  0  0  0
   24.6745  -14.3089  -23.4351 C   0  0  1  0  0  0  0  0  0  0  0  0
   24.7150  -14.1902  -24.9392 C   0  0  0  0  0  0  0  0  0  0  0  0
   25.1438  -12.8125  -25.2916 C   0  0  0  0  0  0  0  0  0  0  0  0
   24.3437  -11.6586  -25.2219 C   0  0  0  0  0  0  0  0  0  0  0  0
   25.0772  -10.6060  -25.6138 N   0  0  0  0  0  0  0  0  0  0  0  0
   26.3023  -11.0289  -25.9305 C   0  0  0  0  0  0  0  0  0  0  0  0
   26.3279  -12.3586  -25.7323 N   0  0  0  0  0  0  0  0  0  0  0  0
   24.1124  -15.6066  -22.9864 C   0  0  0  0  0  0  0  0  0  0  0  0
   23.3870  -16.2589  -23.7437 O   0  0  0  0  0  0  0  0  0  0  0  0
   24.3970  -16.1107  -21.6963 N   0  0  0  0  0  0  0  0  0  0  0  0
   23.8348  -17.3086  -21.1448 C   0  0  1  0  0  0  0  0  0  0  0  0
   24.7528  -17.9290  -20.0920 C   0  0  0  0  0  0  0  0  0  0  0  0
   25.9825  -18.4929  -20.6813 C   0  0  0  0  0  0  0  0  0  0  0  0
   27.1487  -18.1298  -20.3521 O   0  0  0  0  0  0  0  0  0  0  0  0
   22.4892  -17.1671  -20.5956 C   0  0  0  0  0  0  0  0  0  0  0  0
   22.1679  -16.1664  -19.9001 O   0  0  0  0  0  0  0  0  0  0  0  0
   25.8731  -19.4730  -21.6511 O   0  0  0  0  0  0  0  0  0  0  0  0
   14.8631  -21.9058  -21.8500 N   0  0  0  0  0  0  0  0  0  0  0  0
   14.5179  -20.5927  -21.3819 C   0  0  0  0  0  0  0  0  0  0  0  0
   13.2806  -20.2987  -21.3641 N   0  0  0  0  0  0  0  0  0  0  0  0
   15.4851  -19.6561  -20.9577 N   0  0  0  0  0  0  0  0  0  0  0  0
   16.8878  -19.8265  -21.2632 C   0  0  0  0  0  0  0  0  0  0  0  0
   17.7313  -18.7210  -20.6223 C   0  0  0  0  0  0  0  0  0  0  0  0
   19.1919  -18.8975  -20.9441 C   0  0  0  0  0  0  0  0  0  0  0  0
   20.0947  -17.9203  -20.2835 C   0  0  2  0  0  0  0  0  0  0  0  0
   21.4398  -18.1116  -20.7812 N   0  0  0  0  0  0  0  0  0  0  0  0
   20.0228  -17.9249  -18.8124 C   0  0  0  0  0  0  0  0  0  0  0  0
   20.7967  -18.6742  -18.1373 O   0  0  0  0  0  0  0  0  0  0  0  0
   19.1494  -17.1497  -18.0561 O   0  0  0  0  0  0  0  0  0  0  0  0
  2  3  1  0
  2  1  1  6
  3  4  1  0
  4  5  2  0
  5  6  1  0
  7  6  1  0
  8  4  1  0
  8  7  2  0
  9  2  1  0
 10  9  2  0
 11  9  1  0
 12 11  1  0
 12 13  1  1
 13 14  1  0
 14 18  1  0
 15 14  2  0
 16 27  1  0
 16 12  1  0
 17 16  2  0
 20 21  2  0
 20 19  1  0
 22 20  1  0
 23 22  1  0
 24 23  1  0
 26 25  1  6
 25 24  1  0
 26 28  1  0
 26 27  1  0
 28 30  1  0
 29 28  2  0
M  END
$$$$
