HDR.pdb
     RDKit          3D

 30 30  0  0  1  0  0  0  0  0999 V2000
   20.7734  -21.4139  -14.3732 N   0  0  0  0  0  0  0  0  0  0  0  0
   20.2206  -20.5352  -15.3534 C   0  0  1  0  0  0  0  0  0  0  0  0
   18.7288  -20.7377  -15.4624 C   0  0  0  0  0  0  0  0  0  0  0  0
   18.4729  -22.1424  -15.8717 C   0  0  0  0  0  0  0  0  0  0  0  0
   17.8602  -23.1310  -15.0820 C   0  0  0  0  0  0  0  0  0  0  0  0
   17.7996  -24.2677  -15.7917 N   0  0  0  0  0  0  0  0  0  0  0  0
   18.3425  -24.0555  -16.9918 C   0  0  0  0  0  0  0  0  0  0  0  0
   18.7437  -22.7726  -17.0258 N   0  0  0  0  0  0  0  0  0  0  0  0
   20.5779  -19.1290  -15.0431 C   0  0  0  0  0  0  0  0  0  0  0  0
   20.1728  -18.6060  -14.0002 O   0  0  0  0  0  0  0  0  0  0  0  0
   21.3805  -18.3743  -15.9293 N   0  0  0  0  0  0  0  0  0  0  0  0
   21.6608  -16.9755  -15.7878 C   0  0  1  0  0  0  0  0  0  0  0  0
   22.9863  -16.5968  -16.4480 C   0  0  0  0  0  0  0  0  0  0  0  0
   23.3503  -15.1871  -16.2085 C   0  0  0  0  0  0  0  0  0  0  0  0
   22.6630  -14.3954  -15.5005 O   0  0  0  0  0  0  0  0  0  0  0  0
   20.6081  -16.0806  -16.2602 C   0  0  0  0  0  0  0  0  0  0  0  0
   20.0501  -16.2579  -17.3763 O   0  0  0  0  0  0  0  0  0  0  0  0
   24.5034  -14.6850  -16.7842 O   0  0  0  0  0  0  0  0  0  0  0  0
   13.2886  -13.0522  -12.7201 N   0  0  0  0  0  0  0  0  0  0  0  0
   13.3670  -12.4668  -14.0292 C   0  0  0  0  0  0  0  0  0  0  0  0
   12.3058  -11.9304  -14.4805 N   0  0  0  0  0  0  0  0  0  0  0  0
   14.5513  -12.4738  -14.7975 N   0  0  0  0  0  0  0  0  0  0  0  0
   15.7399  -13.1632  -14.3483 C   0  0  0  0  0  0  0  0  0  0  0  0
   16.8394  -13.1204  -15.4132 C   0  0  0  0  0  0  0  0  0  0  0  0
   18.0361  -13.9309  -14.9903 C   0  0  0  0  0  0  0  0  0  0  0  0
   19.0878  -14.0721  -16.0296 C   0  0  2  0  0  0  0  0  0  0  0  0
   20.1219  -14.9553  -15.5355 N   0  0  0  0  0  0  0  0  0  0  0  0
   19.6194  -12.7942  -16.5335 C   0  0  0  0  0  0  0  0  0  0  0  0
   20.4613  -12.1363  -15.8445 O   0  0  0  0  0  0  0  0  0  0  0  0
   19.2735  -12.2127  -17.7492 O   0  0  0  0  0  0  0  0  0  0  0  0
  2  3  1  0
  2  1  1  1
  3  4  1  0
  4  5  2  0
  5  6  1  0
  7  6  1  0
  8  4  1  0
  8  7  2  0
  9  2  1  0
 10  9  2  0
 11  9  1  0
 12 11  1  0
 12 13  1  6
 13 14  1  0
 14 18  1  0
 15 14  2  0
 16 27  1  0
 16 12  1  0
 17 16  2  0
 20 21  2  0
 20 19  1  0
 22 20  1  0
 23 22  1  0
 24 23  1  0
 26 25  1  1
 25 24  1  0
 26 28  1  0
 26 27  1  0
 28 30  1  0
 29 28  2  0
M  END
$$$$
