HDR.pdb
     RDKit          3D

 30 30  0  0  1  0  0  0  0  0999 V2000
   25.3009   -8.9459  -16.2261 N   0  0  0  0  0  0  0  0  0  0  0  0
   24.2121   -9.5879  -15.5618 C   0  0  1  0  0  0  0  0  0  0  0  0
   24.7222  -10.4995  -14.4724 C   0  0  0  0  0  0  0  0  0  0  0  0
   25.5356  -11.5729  -15.0989 C   0  0  0  0  0  0  0  0  0  0  0  0
   26.9348  -11.6911  -15.0306 C   0  0  0  0  0  0  0  0  0  0  0  0
   27.3047  -12.7858  -15.7120 N   0  0  0  0  0  0  0  0  0  0  0  0
   26.2146  -13.3706  -16.2118 C   0  0  0  0  0  0  0  0  0  0  0  0
   25.1576  -12.6298  -15.8354 N   0  0  0  0  0  0  0  0  0  0  0  0
   23.2547   -8.5769  -15.0492 C   0  0  0  0  0  0  0  0  0  0  0  0
   23.6498   -7.6780  -14.3002 O   0  0  0  0  0  0  0  0  0  0  0  0
   21.8880   -8.6280  -15.4081 N   0  0  0  0  0  0  0  0  0  0  0  0
   20.8888   -7.7061  -14.9532 C   0  0  1  0  0  0  0  0  0  0  0  0
   20.4500   -6.7558  -16.0670 C   0  0  0  0  0  0  0  0  0  0  0  0
   19.4534   -5.7709  -15.6046 C   0  0  0  0  0  0  0  0  0  0  0  0
   18.2387   -5.7827  -15.9580 O   0  0  0  0  0  0  0  0  0  0  0  0
   19.7118   -8.3177  -14.3426 C   0  0  0  0  0  0  0  0  0  0  0  0
   19.1324   -9.3004  -14.8784 O   0  0  0  0  0  0  0  0  0  0  0  0
   19.8520   -4.7699  -14.7372 O   0  0  0  0  0  0  0  0  0  0  0  0
   14.7614   -5.9696   -7.1341 N   0  0  0  0  0  0  0  0  0  0  0  0
   14.0682   -7.0271   -7.8153 C   0  0  0  0  0  0  0  0  0  0  0  0
   12.9356   -7.3644   -7.3451 N   0  0  0  0  0  0  0  0  0  0  0  0
   14.5965   -7.6764   -8.9520 N   0  0  0  0  0  0  0  0  0  0  0  0
   15.7839   -7.1893   -9.6173 C   0  0  0  0  0  0  0  0  0  0  0  0
   16.1989   -8.1209  -10.7595 C   0  0  0  0  0  0  0  0  0  0  0  0
   17.4563   -7.6320  -11.4287 C   0  0  0  0  0  0  0  0  0  0  0  0
   17.9234   -8.4729  -12.5605 C   0  0  2  0  0  0  0  0  0  0  0  0
   19.1179   -7.8820  -13.1239 N   0  0  0  0  0  0  0  0  0  0  0  0
   16.8922   -8.7553  -13.5735 C   0  0  0  0  0  0  0  0  0  0  0  0
   16.6290   -7.8971  -14.4739 O   0  0  0  0  0  0  0  0  0  0  0  0
   16.1454   -9.9272  -13.6435 O   0  0  0  0  0  0  0  0  0  0  0  0
  2  3  1  0
  2  1  1  1
  3  4  1  0
  4  5  2  0
  5  6  1  0
  7  6  1  0
  8  4  1  0
  8  7  2  0
  9  2  1  0
 10  9  2  0
 11  9  1  0
 12 11  1  0
 12 13  1  6
 13 14  1  0
 14 18  1  0
 15 14  2  0
 16 27  1  0
 16 12  1  0
 17 16  2  0
 20 21  2  0
 20 19  1  0
 22 20  1  0
 23 22  1  0
 24 23  1  0
 26 25  1  1
 25 24  1  0
 26 28  1  0
 26 27  1  0
 28 30  1  0
 29 28  2  0
M  END
$$$$
