HDR.pdb
     RDKit          3D

 30 30  0  0  1  0  0  0  0  0999 V2000
   27.2918  -19.3024  -18.0045 N   0  0  0  0  0  0  0  0  0  0  0  0
   27.5612  -18.4726  -16.8742 C   0  0  1  0  0  0  0  0  0  0  0  0
   28.7463  -17.5784  -17.1463 C   0  0  0  0  0  0  0  0  0  0  0  0
   28.6042  -17.0107  -18.5115 C   0  0  0  0  0  0  0  0  0  0  0  0
   28.3483  -15.6631  -18.8197 C   0  0  0  0  0  0  0  0  0  0  0  0
   28.2923  -15.5333  -20.1537 N   0  0  0  0  0  0  0  0  0  0  0  0
   28.4980  -16.7276  -20.7116 C   0  0  0  0  0  0  0  0  0  0  0  0
   28.6838  -17.6072  -19.7117 N   0  0  0  0  0  0  0  0  0  0  0  0
   26.3485  -17.7040  -16.5002 C   0  0  0  0  0  0  0  0  0  0  0  0
   26.3751  -16.9468  -15.5250 O   0  0  0  0  0  0  0  0  0  0  0  0
   25.1552  -17.8265  -17.2488 N   0  0  0  0  0  0  0  0  0  0  0  0
   23.9114  -17.1980  -16.9123 C   0  0  1  0  0  0  0  0  0  0  0  0
   23.6449  -15.9724  -17.7858 C   0  0  0  0  0  0  0  0  0  0  0  0
   22.4128  -15.2611  -17.3945 C   0  0  0  0  0  0  0  0  0  0  0  0
   21.2566  -15.7697  -17.4644 O   0  0  0  0  0  0  0  0  0  0  0  0
   22.7454  -18.0766  -16.9368 C   0  0  0  0  0  0  0  0  0  0  0  0
   22.6356  -18.9951  -17.7929 O   0  0  0  0  0  0  0  0  0  0  0  0
   22.5078  -13.9637  -16.9244 O   0  0  0  0  0  0  0  0  0  0  0  0
   16.1974  -19.5036  -10.8860 N   0  0  0  0  0  0  0  0  0  0  0  0
   16.0354  -20.4648  -11.9408 C   0  0  0  0  0  0  0  0  0  0  0  0
   15.0852  -21.3003  -11.8123 N   0  0  0  0  0  0  0  0  0  0  0  0
   16.8763  -20.5017  -13.0740 N   0  0  0  0  0  0  0  0  0  0  0  0
   17.9800  -19.5807  -13.2269 C   0  0  0  0  0  0  0  0  0  0  0  0
   18.6119  -19.7011  -14.6165 C   0  0  0  0  0  0  0  0  0  0  0  0
   19.7861  -18.7693  -14.7611 C   0  0  0  0  0  0  0  0  0  0  0  0
   20.5281  -18.9010  -16.0411 C   0  0  2  0  0  0  0  0  0  0  0  0
   21.6511  -17.9887  -16.0299 N   0  0  0  0  0  0  0  0  0  0  0  0
   19.6911  -18.7636  -17.2453 C   0  0  0  0  0  0  0  0  0  0  0  0
   19.5942  -17.6394  -17.8311 O   0  0  0  0  0  0  0  0  0  0  0  0
   18.9646  -19.7954  -17.8312 O   0  0  0  0  0  0  0  0  0  0  0  0
  2  3  1  0
  2  1  1  6
  3  4  1  0
  4  5  2  0
  5  6  1  0
  7  6  1  0
  8  4  1  0
  8  7  2  0
  9  2  1  0
 10  9  2  0
 11  9  1  0
 12 11  1  0
 12 13  1  6
 13 14  1  0
 14 18  1  0
 15 14  2  0
 16 27  1  0
 16 12  1  0
 17 16  2  0
 20 21  2  0
 20 19  1  0
 22 20  1  0
 23 22  1  0
 24 23  1  0
 26 25  1  1
 25 24  1  0
 26 28  1  0
 26 27  1  0
 28 30  1  0
 29 28  2  0
M  END
$$$$
