HDR.pdb
     RDKit          3D

 30 30  0  0  1  0  0  0  0  0999 V2000
   25.0119  -10.7186  -18.0890 N   0  0  0  0  0  0  0  0  0  0  0  0
   24.4390   -9.4225  -18.2644 C   0  0  1  0  0  0  0  0  0  0  0  0
   23.7855   -9.3135  -19.6205 C   0  0  0  0  0  0  0  0  0  0  0  0
   22.7698  -10.3905  -19.7418 C   0  0  0  0  0  0  0  0  0  0  0  0
   21.4408  -10.3231  -19.2886 C   0  0  0  0  0  0  0  0  0  0  0  0
   20.8310  -11.4821  -19.5792 N   0  0  0  0  0  0  0  0  0  0  0  0
   21.7022  -12.2849  -20.1929 C   0  0  0  0  0  0  0  0  0  0  0  0
   22.8647  -11.6153  -20.2836 N   0  0  0  0  0  0  0  0  0  0  0  0
   23.4965   -9.1233  -17.1582 C   0  0  0  0  0  0  0  0  0  0  0  0
   22.8765  -10.0409  -16.6116 O   0  0  0  0  0  0  0  0  0  0  0  0
   23.2967   -7.7946  -16.7179 N   0  0  0  0  0  0  0  0  0  0  0  0
   22.4006   -7.4078  -15.6678 C   0  0  1  0  0  0  0  0  0  0  0  0
   22.7751   -6.0476  -15.0799 C   0  0  0  0  0  0  0  0  0  0  0  0
   22.0221   -5.7415  -13.8485 C   0  0  0  0  0  0  0  0  0  0  0  0
   21.2043   -6.5418  -13.3088 O   0  0  0  0  0  0  0  0  0  0  0  0
   20.9853   -7.4103  -16.0272 C   0  0  0  0  0  0  0  0  0  0  0  0
   20.5710   -6.8176  -17.0595 O   0  0  0  0  0  0  0  0  0  0  0  0
   22.2063   -4.5145  -13.2372 O   0  0  0  0  0  0  0  0  0  0  0  0
   14.6504  -13.2986  -14.1229 N   0  0  0  0  0  0  0  0  0  0  0  0
   14.0648  -11.9877  -14.1614 C   0  0  0  0  0  0  0  0  0  0  0  0
   12.8533  -11.8911  -13.7865 N   0  0  0  0  0  0  0  0  0  0  0  0
   14.7773  -10.8472  -14.5907 N   0  0  0  0  0  0  0  0  0  0  0  0
   16.0323  -10.9618  -15.2989 C   0  0  0  0  0  0  0  0  0  0  0  0
   16.5542   -9.5866  -15.7246 C   0  0  0  0  0  0  0  0  0  0  0  0
   17.9958   -9.4069  -15.3277 C   0  0  0  0  0  0  0  0  0  0  0  0
   18.5727   -8.0819  -15.6712 C   0  0  2  0  0  0  0  0  0  0  0  0
   19.9641   -8.0578  -15.2751 N   0  0  0  0  0  0  0  0  0  0  0  0
   17.8099   -6.9340  -15.1519 C   0  0  0  0  0  0  0  0  0  0  0  0
   18.1446   -6.3889  -14.0532 O   0  0  0  0  0  0  0  0  0  0  0  0
   16.7080   -6.3615  -15.7795 O   0  0  0  0  0  0  0  0  0  0  0  0
  2  3  1  0
  2  1  1  1
  3  4  1  0
  4  5  2  0
  5  6  1  0
  7  6  1  0
  8  4  1  0
  8  7  2  0
  9  2  1  0
 10  9  2  0
 11  9  1  0
 12 11  1  0
 12 13  1  6
 13 14  1  0
 14 18  1  0
 15 14  2  0
 16 27  1  0
 16 12  1  0
 17 16  2  0
 20 21  2  0
 20 19  1  0
 22 20  1  0
 23 22  1  0
 24 23  1  0
 26 25  1  1
 25 24  1  0
 26 28  1  0
 26 27  1  0
 28 30  1  0
 29 28  2  0
M  END
$$$$
