HDR.pdb
     RDKit          3D

 30 30  0  0  1  0  0  0  0  0999 V2000
   20.7813  -12.4519  -17.4437 N   0  0  0  0  0  0  0  0  0  0  0  0
   21.5923  -11.2822  -17.3302 C   0  0  1  0  0  0  0  0  0  0  0  0
   22.2944  -10.9981  -18.6357 C   0  0  0  0  0  0  0  0  0  0  0  0
   23.1290  -12.1754  -18.9875 C   0  0  0  0  0  0  0  0  0  0  0  0
   22.8968  -13.0588  -20.0561 C   0  0  0  0  0  0  0  0  0  0  0  0
   23.8617  -13.9907  -20.0574 N   0  0  0  0  0  0  0  0  0  0  0  0
   24.6961  -13.7478  -19.0449 C   0  0  0  0  0  0  0  0  0  0  0  0
   24.2427  -12.6530  -18.4095 N   0  0  0  0  0  0  0  0  0  0  0  0
   20.7754  -10.1334  -16.8673 C   0  0  0  0  0  0  0  0  0  0  0  0
   19.6363   -9.9672  -17.3144 O   0  0  0  0  0  0  0  0  0  0  0  0
   21.2852   -9.2204  -15.9156 N   0  0  0  0  0  0  0  0  0  0  0  0
   20.5571   -8.1086  -15.3781 C   0  0  1  0  0  0  0  0  0  0  0  0
   20.9835   -7.7959  -13.9440 C   0  0  0  0  0  0  0  0  0  0  0  0
   20.4804   -8.7922  -12.9788 C   0  0  0  0  0  0  0  0  0  0  0  0
   19.6532   -9.7019  -13.2762 O   0  0  0  0  0  0  0  0  0  0  0  0
   20.6074   -6.8883  -16.1785 C   0  0  0  0  0  0  0  0  0  0  0  0
   21.7025   -6.4220  -16.5931 O   0  0  0  0  0  0  0  0  0  0  0  0
   20.9258   -8.7426  -11.6702 O   0  0  0  0  0  0  0  0  0  0  0  0
   14.1220   -1.3834  -19.4198 N   0  0  0  0  0  0  0  0  0  0  0  0
   15.3180   -1.2323  -20.2006 C   0  0  0  0  0  0  0  0  0  0  0  0
   15.2167   -0.5657  -21.2790 N   0  0  0  0  0  0  0  0  0  0  0  0
   16.5567   -1.7869  -19.8123 N   0  0  0  0  0  0  0  0  0  0  0  0
   16.6297   -2.9447  -18.9498 C   0  0  0  0  0  0  0  0  0  0  0  0
   18.0829   -3.2995  -18.6228 C   0  0  0  0  0  0  0  0  0  0  0  0
   18.1578   -4.5042  -17.7222 C   0  0  0  0  0  0  0  0  0  0  0  0
   19.5366   -4.9333  -17.3743 C   0  0  2  0  0  0  0  0  0  0  0  0
   19.4661   -6.1260  -16.5581 N   0  0  0  0  0  0  0  0  0  0  0  0
   20.3682   -3.8768  -16.7730 C   0  0  0  0  0  0  0  0  0  0  0  0
   20.4038   -3.7326  -15.5104 O   0  0  0  0  0  0  0  0  0  0  0  0
   21.1567   -2.9812  -17.4885 O   0  0  0  0  0  0  0  0  0  0  0  0
  2  3  1  0
  2  1  1  6
  3  4  1  0
  4  5  2  0
  5  6  1  0
  7  6  1  0
  8  4  1  0
  8  7  2  0
  9  2  1  0
 10  9  2  0
 11  9  1  0
 12 11  1  0
 12 13  1  1
 13 14  1  0
 14 18  1  0
 15 14  2  0
 16 27  1  0
 16 12  1  0
 17 16  2  0
 20 21  2  0
 20 19  1  0
 22 20  1  0
 23 22  1  0
 24 23  1  0
 26 25  1  1
 25 24  1  0
 26 28  1  0
 26 27  1  0
 28 30  1  0
 29 28  2  0
M  END
$$$$
