HDR.pdb
     RDKit          3D

 30 30  0  0  1  0  0  0  0  0999 V2000
   24.8177  -19.1727  -19.6672 N   0  0  0  0  0  0  0  0  0  0  0  0
   25.4768  -18.6320  -18.5218 C   0  0  1  0  0  0  0  0  0  0  0  0
   24.8464  -17.3207  -18.1202 C   0  0  0  0  0  0  0  0  0  0  0  0
   25.2001  -16.2972  -19.1369 C   0  0  0  0  0  0  0  0  0  0  0  0
   24.3453  -15.8005  -20.1363 C   0  0  0  0  0  0  0  0  0  0  0  0
   25.0156  -14.8897  -20.8578 N   0  0  0  0  0  0  0  0  0  0  0  0
   26.2531  -14.7809  -20.3711 C   0  0  0  0  0  0  0  0  0  0  0  0
   26.3502  -15.6338  -19.3362 N   0  0  0  0  0  0  0  0  0  0  0  0
   25.4776  -19.6201  -17.4151 C   0  0  0  0  0  0  0  0  0  0  0  0
   24.4312  -20.1973  -17.1035 O   0  0  0  0  0  0  0  0  0  0  0  0
   26.6663  -19.9124  -16.7074 N   0  0  0  0  0  0  0  0  0  0  0  0
   26.7556  -20.8162  -15.5982 C   0  0  1  0  0  0  0  0  0  0  0  0
   28.2063  -21.1794  -15.2826 C   0  0  0  0  0  0  0  0  0  0  0  0
   28.7759  -22.1214  -16.2652 C   0  0  0  0  0  0  0  0  0  0  0  0
   28.1038  -22.6611  -17.1911 O   0  0  0  0  0  0  0  0  0  0  0  0
   26.0886  -20.3697  -14.3784 C   0  0  0  0  0  0  0  0  0  0  0  0
   25.7985  -19.1567  -14.1973 O   0  0  0  0  0  0  0  0  0  0  0  0
   30.1180  -22.4458  -16.1834 O   0  0  0  0  0  0  0  0  0  0  0  0
   18.0285  -21.5356  -11.4027 N   0  0  0  0  0  0  0  0  0  0  0  0
   18.8365  -20.9570  -12.4396 C   0  0  0  0  0  0  0  0  0  0  0  0
   18.3645  -20.9933  -13.6200 N   0  0  0  0  0  0  0  0  0  0  0  0
   20.0959  -20.3714  -12.1870 N   0  0  0  0  0  0  0  0  0  0  0  0
   21.2138  -21.1567  -11.7145 C   0  0  0  0  0  0  0  0  0  0  0  0
   22.4820  -20.3050  -11.6087 C   0  0  0  0  0  0  0  0  0  0  0  0
   23.4762  -20.6774  -12.6767 C   0  0  0  0  0  0  0  0  0  0  0  0
   24.8774  -20.8070  -12.2011 C   0  0  2  0  0  0  0  0  0  0  0  0
   25.7121  -21.2274  -13.3058 N   0  0  0  0  0  0  0  0  0  0  0  0
   25.0379  -21.6550  -11.0076 C   0  0  0  0  0  0  0  0  0  0  0  0
   24.5061  -21.3130   -9.9046 O   0  0  0  0  0  0  0  0  0  0  0  0
   25.7473  -22.8513  -10.9712 O   0  0  0  0  0  0  0  0  0  0  0  0
  2  3  1  0
  2  1  1  6
  3  4  1  0
  4  5  2  0
  5  6  1  0
  7  6  1  0
  8  4  1  0
  8  7  2  0
  9  2  1  0
 10  9  2  0
 11  9  1  0
 12 11  1  0
 12 13  1  1
 13 14  1  0
 14 18  1  0
 15 14  2  0
 16 27  1  0
 16 12  1  0
 17 16  2  0
 20 21  2  0
 20 19  1  0
 22 20  1  0
 23 22  1  0
 24 23  1  0
 26 25  1  6
 25 24  1  0
 26 28  1  0
 26 27  1  0
 28 30  1  0
 29 28  2  0
M  END
$$$$
