HDR.pdb
     RDKit          3D

 30 30  0  0  1  0  0  0  0  0999 V2000
   26.4546  -22.0164  -14.4028 N   0  0  0  0  0  0  0  0  0  0  0  0
   25.2071  -22.4071  -14.9772 C   0  0  1  0  0  0  0  0  0  0  0  0
   25.2178  -23.8790  -15.3113 C   0  0  0  0  0  0  0  0  0  0  0  0
   26.3180  -24.1351  -16.2757 C   0  0  0  0  0  0  0  0  0  0  0  0
   27.1030  -23.1550  -16.9077 C   0  0  0  0  0  0  0  0  0  0  0  0
   27.9938  -23.7678  -17.7017 N   0  0  0  0  0  0  0  0  0  0  0  0
   27.8168  -25.0869  -17.6095 C   0  0  0  0  0  0  0  0  0  0  0  0
   26.8050  -25.2935  -16.7483 N   0  0  0  0  0  0  0  0  0  0  0  0
   24.0885  -22.0416  -14.0737 C   0  0  0  0  0  0  0  0  0  0  0  0
   24.1119  -22.3937  -12.8902 O   0  0  0  0  0  0  0  0  0  0  0  0
   22.9889  -21.2915  -14.5508 N   0  0  0  0  0  0  0  0  0  0  0  0
   21.8429  -20.9330  -13.7677 C   0  0  1  0  0  0  0  0  0  0  0  0
   21.4192  -19.4861  -14.0186 C   0  0  0  0  0  0  0  0  0  0  0  0
   20.3179  -19.0618  -13.1330 C   0  0  0  0  0  0  0  0  0  0  0  0
   19.8960  -19.7500  -12.1589 O   0  0  0  0  0  0  0  0  0  0  0  0
   20.6873  -21.8125  -13.9200 C   0  0  0  0  0  0  0  0  0  0  0  0
   20.1729  -22.0279  -15.0502 O   0  0  0  0  0  0  0  0  0  0  0  0
   19.6988  -17.8473  -13.3671 O   0  0  0  0  0  0  0  0  0  0  0  0
   17.9904  -25.8359   -8.0848 N   0  0  0  0  0  0  0  0  0  0  0  0
   18.2800  -24.4576   -7.8034 C   0  0  0  0  0  0  0  0  0  0  0  0
   18.8579  -24.2087   -6.6982 N   0  0  0  0  0  0  0  0  0  0  0  0
   17.9493  -23.4124   -8.6928 N   0  0  0  0  0  0  0  0  0  0  0  0
   16.9693  -23.5924   -9.7401 C   0  0  0  0  0  0  0  0  0  0  0  0
   17.4644  -23.0092  -11.0665 C   0  0  0  0  0  0  0  0  0  0  0  0
   18.4979  -23.9029  -11.6999 C   0  0  0  0  0  0  0  0  0  0  0  0
   18.9766  -23.4503  -13.0312 C   0  0  2  0  0  0  0  0  0  0  0  0
   20.0447  -22.4919  -12.8460 N   0  0  0  0  0  0  0  0  0  0  0  0
   17.9137  -22.9572  -13.9236 C   0  0  0  0  0  0  0  0  0  0  0  0
   17.2363  -23.7747  -14.6230 O   0  0  0  0  0  0  0  0  0  0  0  0
   17.5627  -21.6200  -14.0798 O   0  0  0  0  0  0  0  0  0  0  0  0
  2  3  1  0
  2  1  1  1
  3  4  1  0
  4  5  2  0
  5  6  1  0
  7  6  1  0
  8  4  1  0
  8  7  2  0
  9  2  1  0
 10  9  2  0
 11  9  1  0
 12 11  1  0
 12 13  1  6
 13 14  1  0
 14 18  1  0
 15 14  2  0
 16 27  1  0
 16 12  1  0
 17 16  2  0
 20 21  2  0
 20 19  1  0
 22 20  1  0
 23 22  1  0
 24 23  1  0
 26 25  1  1
 25 24  1  0
 26 28  1  0
 26 27  1  0
 28 30  1  0
 29 28  2  0
M  END
$$$$
