HDR.pdb
     RDKit          3D

 30 30  0  0  1  0  0  0  0  0999 V2000
   24.3754  -19.0911  -17.0064 N   0  0  0  0  0  0  0  0  0  0  0  0
   24.8728  -19.4697  -15.7227 C   0  0  1  0  0  0  0  0  0  0  0  0
   26.0008  -18.5583  -15.3040 C   0  0  0  0  0  0  0  0  0  0  0  0
   26.9916  -18.4970  -16.4088 C   0  0  0  0  0  0  0  0  0  0  0  0
   27.6313  -19.5991  -17.0025 C   0  0  0  0  0  0  0  0  0  0  0  0
   28.4506  -19.1499  -17.9650 N   0  0  0  0  0  0  0  0  0  0  0  0
   28.3673  -17.8193  -18.0149 C   0  0  0  0  0  0  0  0  0  0  0  0
   27.4862  -17.4401  -17.0728 N   0  0  0  0  0  0  0  0  0  0  0  0
   23.7697  -19.4946  -14.7309 C   0  0  0  0  0  0  0  0  0  0  0  0
   23.9369  -19.0025  -13.6105 O   0  0  0  0  0  0  0  0  0  0  0  0
   22.5218  -20.0770  -15.0516 N   0  0  0  0  0  0  0  0  0  0  0  0
   21.3582  -20.0280  -14.2155 C   0  0  1  0  0  0  0  0  0  0  0  0
   20.4669  -18.8350  -14.5597 C   0  0  0  0  0  0  0  0  0  0  0  0
   19.3271  -18.6997  -13.6325 C   0  0  0  0  0  0  0  0  0  0  0  0
   19.3985  -18.9411  -12.3927 O   0  0  0  0  0  0  0  0  0  0  0  0
   20.5549  -21.2473  -14.1977 C   0  0  0  0  0  0  0  0  0  0  0  0
   20.1286  -21.7660  -15.2643 O   0  0  0  0  0  0  0  0  0  0  0  0
   18.1033  -18.2891  -14.1295 O   0  0  0  0  0  0  0  0  0  0  0  0
   18.1068  -24.8511   -6.8283 N   0  0  0  0  0  0  0  0  0  0  0  0
   18.4739  -25.5438   -8.0317 C   0  0  0  0  0  0  0  0  0  0  0  0
   18.8416  -26.7547   -7.9053 N   0  0  0  0  0  0  0  0  0  0  0  0
   18.4375  -24.9330   -9.3039 N   0  0  0  0  0  0  0  0  0  0  0  0
   17.9804  -23.5724   -9.4766 C   0  0  0  0  0  0  0  0  0  0  0  0
   18.0125  -23.1617  -10.9514 C   0  0  0  0  0  0  0  0  0  0  0  0
   19.2641  -23.6585  -11.6258 C   0  0  0  0  0  0  0  0  0  0  0  0
   19.4412  -23.1921  -13.0249 C   0  0  2  0  0  0  0  0  0  0  0  0
   20.1827  -21.9497  -13.0162 N   0  0  0  0  0  0  0  0  0  0  0  0
   18.1915  -23.1074  -13.7998 C   0  0  0  0  0  0  0  0  0  0  0  0
   17.8194  -24.0860  -14.5210 O   0  0  0  0  0  0  0  0  0  0  0  0
   17.3389  -22.0081  -13.8168 O   0  0  0  0  0  0  0  0  0  0  0  0
  2  3  1  0
  2  1  1  6
  3  4  1  0
  4  5  2  0
  5  6  1  0
  7  6  1  0
  8  4  1  0
  8  7  2  0
  9  2  1  0
 10  9  2  0
 11  9  1  0
 12 11  1  0
 12 13  1  6
 13 14  1  0
 14 18  1  0
 15 14  2  0
 16 27  1  0
 16 12  1  0
 17 16  2  0
 20 21  2  0
 20 19  1  0
 22 20  1  0
 23 22  1  0
 24 23  1  0
 26 25  1  1
 25 24  1  0
 26 28  1  0
 26 27  1  0
 28 30  1  0
 29 28  2  0
M  END
$$$$
