FNM.pdb
     RDKit          3D

 28 28  0  0  1  0  0  0  0  0999 V2000
   25.9088  -22.0616   -8.7977 N   0  0  0  0  0  0  0  0  0  0  0  0
   25.8001  -20.8314   -9.5257 C   0  0  1  0  0  0  0  0  0  0  0  0
   27.1706  -20.1906   -9.5518 C   0  0  0  0  0  0  0  0  0  0  0  0
   27.7120  -19.8692   -8.2307 C   0  0  0  0  0  0  0  0  0  0  0  0
   28.7449  -20.6253   -7.6843 C   0  0  0  0  0  0  0  0  0  0  0  0
   29.2434  -20.3157   -6.4422 C   0  0  0  0  0  0  0  0  0  0  0  0
   28.7551  -19.2633   -5.6921 C   0  0  0  0  0  0  0  0  0  0  0  0
   27.7366  -18.5141   -6.2263 C   0  0  0  0  0  0  0  0  0  0  0  0
   27.2304  -18.8254   -7.4837 C   0  0  0  0  0  0  0  0  0  0  0  0
   25.2564  -21.0285  -10.8899 C   0  0  0  0  0  0  0  0  0  0  0  0
   25.3433  -22.2018  -11.3912 O   0  0  0  0  0  0  0  0  0  0  0  0
   21.2560  -20.2824  -14.2223 N   0  0  0  0  0  0  0  0  0  0  0  0
   21.4604  -21.1571  -13.1426 C   0  0  0  0  0  0  0  0  0  0  0  0
   20.4751  -21.9025  -12.8412 O   0  0  0  0  0  0  0  0  0  0  0  0
   22.6624  -21.3100  -12.3315 C   0  0  0  0  0  0  0  0  0  0  0  0
   23.8131  -20.3876  -12.7659 C   0  0  2  0  0  0  0  0  0  0  0  0
   24.6541  -20.0300  -11.6743 N   0  0  0  0  0  0  0  0  0  0  0  0
   23.2770  -19.2462  -13.5220 C   0  0  0  0  0  0  0  0  0  0  0  0
   22.7338  -18.2816  -12.8996 O   0  0  0  0  0  0  0  0  0  0  0  0
   28.3113  -18.3803  -13.3285 C   0  0  0  0  0  0  0  0  0  0  0  0
   28.3788  -17.9234  -15.0977 S   0  0  0  0  0  0  0  0  0  0  0  0
   26.7313  -17.7490  -15.8111 C   0  0  0  0  0  0  0  0  0  0  0  0
   25.6476  -18.5147  -15.1605 C   0  0  0  0  0  0  0  0  0  0  0  0
   24.2956  -18.2974  -15.6523 C   0  0  2  0  0  0  0  0  0  0  0  0
   23.3128  -19.1177  -14.9242 N   0  0  0  0  0  0  0  0  0  0  0  0
   24.0927  -18.4040  -17.0854 C   0  0  0  0  0  0  0  0  0  0  0  0
   23.6213  -19.4336  -17.6096 O   0  0  0  0  0  0  0  0  0  0  0  0
   24.4188  -17.3512  -17.9395 O   0  0  0  0  0  0  0  0  0  0  0  0
  2  1  1  6
  2  3  1  0
  3  4  1  0
  4  5  2  0
  5  6  1  0
  7  6  2  0
  8  7  1  0
  9  8  2  0
  9  4  1  0
 10 11  2  0
 10  2  1  0
 13 15  1  0
 13 12  1  0
 14 13  2  0
 16 15  1  1
 16 17  1  0
 17 10  1  0
 18 16  1  0
 18 25  1  0
 19 18  2  0
 21 20  1  0
 22 21  1  0
 23 22  1  0
 24 23  1  6
 24 25  1  0
 26 28  1  0
 26 24  1  0
 27 26  2  0
M  END
$$$$
