FNM.pdb
     RDKit          3D

 28 28  0  0  1  0  0  0  0  0999 V2000
   28.8682  -32.2804  -15.6799 N   0  0  0  0  0  0  0  0  0  0  0  0
   28.0031  -33.3170  -15.1980 C   0  0  1  0  0  0  0  0  0  0  0  0
   28.8756  -34.4394  -14.6799 C   0  0  0  0  0  0  0  0  0  0  0  0
   29.6529  -35.1258  -15.7126 C   0  0  0  0  0  0  0  0  0  0  0  0
   29.0525  -36.0663  -16.5445 C   0  0  0  0  0  0  0  0  0  0  0  0
   29.7928  -36.7061  -17.5088 C   0  0  0  0  0  0  0  0  0  0  0  0
   31.1381  -36.4533  -17.6953 C   0  0  0  0  0  0  0  0  0  0  0  0
   31.7352  -35.5266  -16.8777 C   0  0  0  0  0  0  0  0  0  0  0  0
   30.9879  -34.8773  -15.9010 C   0  0  0  0  0  0  0  0  0  0  0  0
   27.0585  -32.8300  -14.1655 C   0  0  0  0  0  0  0  0  0  0  0  0
   26.4501  -31.7299  -14.4005 O   0  0  0  0  0  0  0  0  0  0  0  0
   24.2095  -31.1549  -13.8602 N   0  0  0  0  0  0  0  0  0  0  0  0
   23.7911  -32.4940  -13.9270 C   0  0  0  0  0  0  0  0  0  0  0  0
   22.8155  -32.7298  -14.7080 O   0  0  0  0  0  0  0  0  0  0  0  0
   24.3407  -33.6388  -13.2105 C   0  0  0  0  0  0  0  0  0  0  0  0
   25.5279  -33.2780  -12.3028 C   0  0  2  0  0  0  0  0  0  0  0  0
   26.7789  -33.4802  -12.9515 N   0  0  0  0  0  0  0  0  0  0  0  0
   25.3928  -33.9661  -11.0105 C   0  0  0  0  0  0  0  0  0  0  0  0
   25.4490  -35.2341  -10.9667 O   0  0  0  0  0  0  0  0  0  0  0  0
   27.1686  -31.2052   -5.4078 C   0  0  0  0  0  0  0  0  0  0  0  0
   26.4193  -32.7340   -4.7412 S   0  0  0  0  0  0  0  0  0  0  0  0
   25.7333  -33.7721   -6.0472 C   0  0  0  0  0  0  0  0  0  0  0  0
   25.6801  -33.1794   -7.3999 C   0  0  0  0  0  0  0  0  0  0  0  0
   25.1855  -34.0259   -8.4749 C   0  0  2  0  0  0  0  0  0  0  0  0
   25.2015  -33.3259   -9.7705 N   0  0  0  0  0  0  0  0  0  0  0  0
   23.9082  -34.6808   -8.2606 C   0  0  0  0  0  0  0  0  0  0  0  0
   22.8534  -34.2512   -8.7704 O   0  0  0  0  0  0  0  0  0  0  0  0
   23.8090  -35.8256   -7.4708 O   0  0  0  0  0  0  0  0  0  0  0  0
  2  1  1  1
  2  3  1  0
  3  4  1  0
  4  5  2  0
  5  6  1  0
  7  6  2  0
  8  7  1  0
  9  8  2  0
  9  4  1  0
 10 11  2  0
 10  2  1  0
 13 15  1  0
 13 12  1  0
 14 13  2  0
 16 15  1  6
 16 17  1  0
 17 10  1  0
 18 16  1  0
 18 25  1  0
 19 18  2  0
 21 20  1  0
 22 21  1  0
 23 22  1  0
 24 23  1  1
 24 25  1  0
 26 28  1  0
 26 24  1  0
 27 26  2  0
M  END
$$$$
