FNM.pdb
     RDKit          3D

 28 28  0  0  1  0  0  0  0  0999 V2000
   22.9724  -17.4996   12.0920 N   0  0  0  0  0  0  0  0  0  0  0  0
   22.5681  -18.6984   11.4180 C   0  0  1  0  0  0  0  0  0  0  0  0
   23.4345  -18.8474   10.1864 C   0  0  0  0  0  0  0  0  0  0  0  0
   23.2273  -17.8115    9.1736 C   0  0  0  0  0  0  0  0  0  0  0  0
   22.0217  -17.7253    8.4836 C   0  0  0  0  0  0  0  0  0  0  0  0
   21.8396  -16.7501    7.5332 C   0  0  0  0  0  0  0  0  0  0  0  0
   22.8215  -15.8292    7.2229 C   0  0  0  0  0  0  0  0  0  0  0  0
   24.0124  -15.9096    7.9005 C   0  0  0  0  0  0  0  0  0  0  0  0
   24.1991  -16.8957    8.8633 C   0  0  0  0  0  0  0  0  0  0  0  0
   22.6428  -19.8915   12.2935 C   0  0  0  0  0  0  0  0  0  0  0  0
   23.4105  -19.8219   13.3140 O   0  0  0  0  0  0  0  0  0  0  0  0
   18.8115  -22.5407   14.8675 N   0  0  0  0  0  0  0  0  0  0  0  0
   19.7075  -22.1283   13.8676 C   0  0  0  0  0  0  0  0  0  0  0  0
   19.5989  -20.9177   13.4934 O   0  0  0  0  0  0  0  0  0  0  0  0
   20.7415  -22.9204   13.2122 C   0  0  0  0  0  0  0  0  0  0  0  0
   22.0641  -22.1602   13.0223 C   0  0  2  0  0  0  0  0  0  0  0  0
   21.9381  -21.0905   12.0915 N   0  0  0  0  0  0  0  0  0  0  0  0
   23.1441  -23.1101   12.7170 C   0  0  0  0  0  0  0  0  0  0  0  0
   23.2249  -23.6148   11.5544 O   0  0  0  0  0  0  0  0  0  0  0  0
   28.3664  -20.3560   14.1684 C   0  0  0  0  0  0  0  0  0  0  0  0
   28.6051  -22.1189   13.7463 S   0  0  0  0  0  0  0  0  0  0  0  0
   27.1197  -22.8454   13.0252 C   0  0  0  0  0  0  0  0  0  0  0  0
   26.5127  -23.9722   13.7640 C   0  0  0  0  0  0  0  0  0  0  0  0
   25.2252  -24.4574   13.2909 C   0  0  2  0  0  0  0  0  0  0  0  0
   24.1351  -23.5263   13.6274 N   0  0  0  0  0  0  0  0  0  0  0  0
   24.8658  -25.8184   13.6444 C   0  0  0  0  0  0  0  0  0  0  0  0
   23.7863  -26.0898   14.2084 O   0  0  0  0  0  0  0  0  0  0  0  0
   25.7195  -26.8848   13.3647 O   0  0  0  0  0  0  0  0  0  0  0  0
  2  1  1  1
  2  3  1  0
  3  4  1  0
  4  5  2  0
  5  6  1  0
  7  6  2  0
  8  7  1  0
  9  8  2  0
  9  4  1  0
 10 11  2  0
 10  2  1  0
 13 15  1  0
 13 12  1  0
 14 13  2  0
 16 15  1  6
 16 17  1  0
 17 10  1  0
 18 16  1  0
 18 25  1  0
 19 18  2  0
 21 20  1  0
 22 21  1  0
 23 22  1  0
 24 23  1  1
 24 25  1  0
 26 28  1  0
 26 24  1  0
 27 26  2  0
M  END
$$$$
