FNM.pdb
     RDKit          3D

 28 28  0  0  1  0  0  0  0  0999 V2000
   19.5218   -9.7372  -15.6859 N   0  0  0  0  0  0  0  0  0  0  0  0
   19.8533   -9.3193  -14.3553 C   0  0  1  0  0  0  0  0  0  0  0  0
   21.1585   -8.5571  -14.4250 C   0  0  0  0  0  0  0  0  0  0  0  0
   22.3169   -9.3752  -14.7864 C   0  0  0  0  0  0  0  0  0  0  0  0
   22.6988  -10.4535  -13.9936 C   0  0  0  0  0  0  0  0  0  0  0  0
   23.7895  -11.2128  -14.3417 C   0  0  0  0  0  0  0  0  0  0  0  0
   24.5430  -10.9492  -15.4692 C   0  0  0  0  0  0  0  0  0  0  0  0
   24.1706   -9.8872  -16.2548 C   0  0  0  0  0  0  0  0  0  0  0  0
   23.0667   -9.1171  -15.9047 C   0  0  0  0  0  0  0  0  0  0  0  0
   18.7766   -8.5152  -13.7310 C   0  0  0  0  0  0  0  0  0  0  0  0
   17.9036   -7.9998  -14.5105 O   0  0  0  0  0  0  0  0  0  0  0  0
   16.0972   -6.2109   -8.6441 N   0  0  0  0  0  0  0  0  0  0  0  0
   16.1898   -6.9164   -9.8551 C   0  0  0  0  0  0  0  0  0  0  0  0
   15.1527   -6.8901  -10.5907 O   0  0  0  0  0  0  0  0  0  0  0  0
   17.3286   -7.6709  -10.3649 C   0  0  0  0  0  0  0  0  0  0  0  0
   17.5691   -7.4704  -11.8699 C   0  0  2  0  0  0  0  0  0  0  0  0
   18.6396   -8.2750  -12.3531 N   0  0  0  0  0  0  0  0  0  0  0  0
   17.7026   -6.0363  -12.1654 C   0  0  0  0  0  0  0  0  0  0  0  0
   18.8148   -5.4563  -11.9665 O   0  0  0  0  0  0  0  0  0  0  0  0
   18.0580   -0.2163  -17.0066 C   0  0  0  0  0  0  0  0  0  0  0  0
   17.8869   -1.9822  -16.5647 S   0  0  0  0  0  0  0  0  0  0  0  0
   17.4052   -2.2008  -14.8401 C   0  0  0  0  0  0  0  0  0  0  0  0
   17.1470   -3.5875  -14.3994 C   0  0  0  0  0  0  0  0  0  0  0  0
   16.8409   -3.7889  -12.9913 C   0  0  2  0  0  0  0  0  0  0  0  0
   16.6742   -5.2160  -12.6688 N   0  0  0  0  0  0  0  0  0  0  0  0
   15.7513   -3.0063  -12.4374 C   0  0  0  0  0  0  0  0  0  0  0  0
   14.6041   -3.4777  -12.3010 O   0  0  0  0  0  0  0  0  0  0  0  0
   15.9457   -1.6864  -12.0320 O   0  0  0  0  0  0  0  0  0  0  0  0
  2  1  1  6
  2  3  1  0
  3  4  1  0
  4  5  2  0
  5  6  1  0
  7  6  2  0
  8  7  1  0
  9  8  2  0
  9  4  1  0
 10 11  2  0
 10  2  1  0
 13 15  1  0
 13 12  1  0
 14 13  2  0
 16 15  1  1
 16 17  1  0
 17 10  1  0
 18 16  1  0
 18 25  1  0
 19 18  2  0
 21 20  1  0
 22 21  1  0
 23 22  1  0
 24 23  1  6
 24 25  1  0
 26 28  1  0
 26 24  1  0
 27 26  2  0
M  END
$$$$
