FNM.pdb
     RDKit          3D

 28 28  0  0  1  0  0  0  0  0999 V2000
   22.8759  -10.8611  -20.8154 N   0  0  0  0  0  0  0  0  0  0  0  0
   23.9202  -10.1554  -20.1323 C   0  0  1  0  0  0  0  0  0  0  0  0
   24.3820   -9.0322  -21.0349 C   0  0  0  0  0  0  0  0  0  0  0  0
   24.9957   -9.4770  -22.2868 C   0  0  0  0  0  0  0  0  0  0  0  0
   26.2580  -10.0630  -22.2888 C   0  0  0  0  0  0  0  0  0  0  0  0
   26.8251  -10.4745  -23.4705 C   0  0  0  0  0  0  0  0  0  0  0  0
   26.1850  -10.3299  -24.6862 C   0  0  0  0  0  0  0  0  0  0  0  0
   24.9397   -9.7528  -24.6899 C   0  0  0  0  0  0  0  0  0  0  0  0
   24.3634   -9.3357  -23.4949 C   0  0  0  0  0  0  0  0  0  0  0  0
   23.4903   -9.6563  -18.8050 C   0  0  0  0  0  0  0  0  0  0  0  0
   22.2597   -9.3354  -18.6705 O   0  0  0  0  0  0  0  0  0  0  0  0
   23.1083  -11.8225  -16.0230 N   0  0  0  0  0  0  0  0  0  0  0  0
   23.9159  -11.1061  -15.1245 C   0  0  0  0  0  0  0  0  0  0  0  0
   24.2907  -11.7432  -14.0896 O   0  0  0  0  0  0  0  0  0  0  0  0
   24.3722   -9.7259  -15.2382 C   0  0  0  0  0  0  0  0  0  0  0  0
   23.8036   -8.9942  -16.4648 C   0  0  2  0  0  0  0  0  0  0  0  0
   24.3262   -9.5085  -17.6851 N   0  0  0  0  0  0  0  0  0  0  0  0
   23.9642   -7.5424  -16.2965 C   0  0  0  0  0  0  0  0  0  0  0  0
   25.0129   -6.9733  -16.7314 O   0  0  0  0  0  0  0  0  0  0  0  0
   24.0126   -0.7715  -18.7865 C   0  0  0  0  0  0  0  0  0  0  0  0
   24.0651   -2.5981  -18.7242 S   0  0  0  0  0  0  0  0  0  0  0  0
   23.5956   -3.2300  -17.1012 C   0  0  0  0  0  0  0  0  0  0  0  0
   23.5132   -4.6992  -16.9652 C   0  0  0  0  0  0  0  0  0  0  0  0
   23.1290   -5.2235  -15.6635 C   0  0  2  0  0  0  0  0  0  0  0  0
   23.0276   -6.6926  -15.6763 N   0  0  0  0  0  0  0  0  0  0  0  0
   21.9607   -4.6333  -15.0365 C   0  0  0  0  0  0  0  0  0  0  0  0
   20.8934   -5.2661  -14.9039 O   0  0  0  0  0  0  0  0  0  0  0  0
   21.9856   -3.3257  -14.5530 O   0  0  0  0  0  0  0  0  0  0  0  0
  2  1  1  6
  2  3  1  0
  3  4  1  0
  4  5  2  0
  5  6  1  0
  7  6  2  0
  8  7  1  0
  9  8  2  0
  9  4  1  0
 10 11  2  0
 10  2  1  0
 13 15  1  0
 13 12  1  0
 14 13  2  0
 16 15  1  1
 16 17  1  0
 17 10  1  0
 18 16  1  0
 18 25  1  0
 19 18  2  0
 21 20  1  0
 22 21  1  0
 23 22  1  0
 24 23  1  6
 24 25  1  0
 26 28  1  0
 26 24  1  0
 27 26  2  0
M  END
$$$$
