FNM.pdb
     RDKit          3D

 28 28  0  0  1  0  0  0  0  0999 V2000
   23.0384  -13.6982  -16.6583 N   0  0  0  0  0  0  0  0  0  0  0  0
   23.4663  -12.4744  -16.0465 C   0  0  1  0  0  0  0  0  0  0  0  0
   24.8290  -12.1322  -16.6080 C   0  0  0  0  0  0  0  0  0  0  0  0
   25.8278  -13.1911  -16.4565 C   0  0  0  0  0  0  0  0  0  0  0  0
   26.2922  -13.8920  -17.5655 C   0  0  0  0  0  0  0  0  0  0  0  0
   27.2281  -14.8857  -17.4107 C   0  0  0  0  0  0  0  0  0  0  0  0
   27.7418  -15.2299  -16.1753 C   0  0  0  0  0  0  0  0  0  0  0  0
   27.2875  -14.5417  -15.0782 C   0  0  0  0  0  0  0  0  0  0  0  0
   26.3402  -13.5351  -15.2323 C   0  0  0  0  0  0  0  0  0  0  0  0
   22.4946  -11.3735  -16.2451 C   0  0  0  0  0  0  0  0  0  0  0  0
   21.4322  -11.6420  -16.9044 O   0  0  0  0  0  0  0  0  0  0  0  0
   19.1890   -7.4342  -16.1521 N   0  0  0  0  0  0  0  0  0  0  0  0
   19.1601   -8.6934  -15.5305 C   0  0  0  0  0  0  0  0  0  0  0  0
   18.0318   -9.0564  -15.0697 O   0  0  0  0  0  0  0  0  0  0  0  0
   20.2654   -9.6277  -15.3527 C   0  0  0  0  0  0  0  0  0  0  0  0
   21.5966   -9.1143  -15.9250 C   0  0  2  0  0  0  0  0  0  0  0  0
   22.6481  -10.0609  -15.7671 N   0  0  0  0  0  0  0  0  0  0  0  0
   21.8903   -7.7803  -15.3806 C   0  0  0  0  0  0  0  0  0  0  0  0
   22.1992   -7.6577  -14.1549 O   0  0  0  0  0  0  0  0  0  0  0  0
   25.1233   -0.7558  -17.1769 C   0  0  0  0  0  0  0  0  0  0  0  0
   24.3444   -2.3068  -17.7520 S   0  0  0  0  0  0  0  0  0  0  0  0
   23.5694   -3.2130  -16.3984 C   0  0  0  0  0  0  0  0  0  0  0  0
   22.9434   -4.5060  -16.7449 C   0  0  0  0  0  0  0  0  0  0  0  0
   22.4254   -5.3067  -15.6461 C   0  0  2  0  0  0  0  0  0  0  0  0
   21.8613   -6.5819  -16.1201 N   0  0  0  0  0  0  0  0  0  0  0  0
   21.5122   -4.6505  -14.7286 C   0  0  0  0  0  0  0  0  0  0  0  0
   20.2958   -4.5326  -14.9808 O   0  0  0  0  0  0  0  0  0  0  0  0
   21.9619   -4.1223  -13.5191 O   0  0  0  0  0  0  0  0  0  0  0  0
  2  1  1  6
  2  3  1  0
  3  4  1  0
  4  5  2  0
  5  6  1  0
  7  6  2  0
  8  7  1  0
  9  8  2  0
  9  4  1  0
 10 11  2  0
 10  2  1  0
 13 15  1  0
 13 12  1  0
 14 13  2  0
 16 15  1  1
 16 17  1  0
 17 10  1  0
 18 16  1  0
 18 25  1  0
 19 18  2  0
 21 20  1  0
 22 21  1  0
 23 22  1  0
 24 23  1  6
 24 25  1  0
 26 28  1  0
 26 24  1  0
 27 26  2  0
M  END
$$$$
