FNM.pdb
     RDKit          3D

 28 28  0  0  1  0  0  0  0  0999 V2000
   24.3585  -19.0295  -16.8633 N   0  0  0  0  0  0  0  0  0  0  0  0
   25.0662  -18.5677  -15.7053 C   0  0  1  0  0  0  0  0  0  0  0  0
   24.2505  -17.4564  -15.0815 C   0  0  0  0  0  0  0  0  0  0  0  0
   24.1152  -16.2637  -15.9188 C   0  0  0  0  0  0  0  0  0  0  0  0
   25.2338  -15.6761  -16.5023 C   0  0  0  0  0  0  0  0  0  0  0  0
   25.0948  -14.5553  -17.2844 C   0  0  0  0  0  0  0  0  0  0  0  0
   23.8665  -13.9701  -17.5241 C   0  0  0  0  0  0  0  0  0  0  0  0
   22.7599  -14.5456  -16.9512 C   0  0  0  0  0  0  0  0  0  0  0  0
   22.8981  -15.6805  -16.1593 C   0  0  0  0  0  0  0  0  0  0  0  0
   25.3434  -19.6578  -14.7407 C   0  0  0  0  0  0  0  0  0  0  0  0
   24.3675  -20.4206  -14.4225 O   0  0  0  0  0  0  0  0  0  0  0  0
   28.9662  -21.9453  -16.1454 N   0  0  0  0  0  0  0  0  0  0  0  0
   27.9926  -22.2493  -15.1799 C   0  0  0  0  0  0  0  0  0  0  0  0
   26.9896  -22.9112  -15.5959 O   0  0  0  0  0  0  0  0  0  0  0  0
   27.9967  -21.8971  -13.7649 C   0  0  0  0  0  0  0  0  0  0  0  0
   26.7707  -21.0742  -13.3373 C   0  0  2  0  0  0  0  0  0  0  0  0
   26.5913  -19.9189  -14.1495 N   0  0  0  0  0  0  0  0  0  0  0  0
   26.8341  -20.8010  -11.8939 C   0  0  0  0  0  0  0  0  0  0  0  0
   27.9089  -20.3522  -11.3876 O   0  0  0  0  0  0  0  0  0  0  0  0
   28.6577  -20.3521   -6.6026 C   0  0  0  0  0  0  0  0  0  0  0  0
   27.9557  -18.7345   -7.0860 S   0  0  0  0  0  0  0  0  0  0  0  0
   26.3468  -18.9100   -7.8825 C   0  0  0  0  0  0  0  0  0  0  0  0
   26.3540  -19.3714   -9.2865 C   0  0  0  0  0  0  0  0  0  0  0  0
   25.8603  -20.7155   -9.5444 C   0  0  2  0  0  0  0  0  0  0  0  0
   25.7739  -20.9964  -10.9874 N   0  0  0  0  0  0  0  0  0  0  0  0
   24.6356  -21.1062   -8.8707 C   0  0  0  0  0  0  0  0  0  0  0  0
   23.5122  -20.9001   -9.3734 O   0  0  0  0  0  0  0  0  0  0  0  0
   24.6666  -21.7328   -7.6255 O   0  0  0  0  0  0  0  0  0  0  0  0
  2  1  1  6
  2  3  1  0
  3  4  1  0
  4  5  2  0
  5  6  1  0
  7  6  2  0
  8  7  1  0
  9  8  2  0
  9  4  1  0
 10 11  2  0
 10  2  1  0
 13 15  1  0
 13 12  1  0
 14 13  2  0
 16 15  1  6
 16 17  1  0
 17 10  1  0
 18 16  1  0
 18 25  1  0
 19 18  2  0
 21 20  1  0
 22 21  1  0
 23 22  1  0
 24 23  1  6
 24 25  1  0
 26 28  1  0
 26 24  1  0
 27 26  2  0
M  END
$$$$
