FNM.pdb
     RDKit          3D

 28 28  0  0  1  0  0  0  0  0999 V2000
   26.8585  -24.0327  -16.8076 N   0  0  0  0  0  0  0  0  0  0  0  0
   25.7725  -24.7412  -16.1965 C   0  0  1  0  0  0  0  0  0  0  0  0
   26.3608  -25.8852  -15.3999 C   0  0  0  0  0  0  0  0  0  0  0  0
   26.9405  -26.9534  -16.2152 C   0  0  0  0  0  0  0  0  0  0  0  0
   26.1222  -27.8315  -16.9196 C   0  0  0  0  0  0  0  0  0  0  0  0
   26.6777  -28.8319  -17.6798 C   0  0  0  0  0  0  0  0  0  0  0  0
   28.0439  -29.0112  -17.7796 C   0  0  0  0  0  0  0  0  0  0  0  0
   28.8556  -28.1477  -17.0871 C   0  0  0  0  0  0  0  0  0  0  0  0
   28.2956  -27.1340  -16.3171 C   0  0  0  0  0  0  0  0  0  0  0  0
   24.9254  -23.8617  -15.3571 C   0  0  0  0  0  0  0  0  0  0  0  0
   25.5183  -22.9645  -14.6649 O   0  0  0  0  0  0  0  0  0  0  0  0
   22.0822  -20.6534  -12.8336 N   0  0  0  0  0  0  0  0  0  0  0  0
   22.6623  -20.4926  -14.1025 C   0  0  0  0  0  0  0  0  0  0  0  0
   22.8704  -19.2921  -14.4669 O   0  0  0  0  0  0  0  0  0  0  0  0
   23.0518  -21.5343  -15.0456 C   0  0  0  0  0  0  0  0  0  0  0  0
   22.8058  -22.9574  -14.5187 C   0  0  2  0  0  0  0  0  0  0  0  0
   23.5252  -23.9355  -15.2620 N   0  0  0  0  0  0  0  0  0  0  0  0
   21.3604  -23.2082  -14.4199 C   0  0  0  0  0  0  0  0  0  0  0  0
   20.6525  -23.2184  -15.4743 O   0  0  0  0  0  0  0  0  0  0  0  0
   18.9963  -27.4621  -10.2859 C   0  0  0  0  0  0  0  0  0  0  0  0
   17.4935  -27.0825  -11.2559 S   0  0  0  0  0  0  0  0  0  0  0  0
   17.6976  -25.5977  -12.2597 C   0  0  0  0  0  0  0  0  0  0  0  0
   19.0579  -25.0230  -12.3163 C   0  0  0  0  0  0  0  0  0  0  0  0
   19.2470  -23.8502  -13.1562 C   0  0  2  0  0  0  0  0  0  0  0  0
   20.6624  -23.4487  -13.2204 N   0  0  0  0  0  0  0  0  0  0  0  0
   18.3996  -22.7037  -12.8841 C   0  0  0  0  0  0  0  0  0  0  0  0
   17.1546  -22.7864  -12.8970 O   0  0  0  0  0  0  0  0  0  0  0  0
   18.9481  -21.4549  -12.5946 O   0  0  0  0  0  0  0  0  0  0  0  0
  2  1  1  1
  2  3  1  0
  3  4  1  0
  4  5  2  0
  5  6  1  0
  7  6  2  0
  8  7  1  0
  9  8  2  0
  9  4  1  0
 10 11  2  0
 10  2  1  0
 13 15  1  0
 13 12  1  0
 14 13  2  0
 16 15  1  6
 16 17  1  0
 17 10  1  0
 18 16  1  0
 18 25  1  0
 19 18  2  0
 21 20  1  0
 22 21  1  0
 23 22  1  0
 24 23  1  1
 24 25  1  0
 26 28  1  0
 26 24  1  0
 27 26  2  0
M  END
$$$$
