FNM.pdb
     RDKit          3D

 28 28  0  0  1  0  0  0  0  0999 V2000
   18.3113  -12.8208  -18.7062 N   0  0  0  0  0  0  0  0  0  0  0  0
   19.0536  -12.4322  -17.5431 C   0  0  1  0  0  0  0  0  0  0  0  0
   20.4665  -12.9486  -17.7062 C   0  0  0  0  0  0  0  0  0  0  0  0
   20.5754  -14.4075  -17.7447 C   0  0  0  0  0  0  0  0  0  0  0  0
   20.5515  -15.0888  -18.9581 C   0  0  0  0  0  0  0  0  0  0  0  0
   20.6520  -16.4587  -18.9816 C   0  0  0  0  0  0  0  0  0  0  0  0
   20.7785  -17.2095  -17.8288 C   0  0  0  0  0  0  0  0  0  0  0  0
   20.8029  -16.5427  -16.6294 C   0  0  0  0  0  0  0  0  0  0  0  0
   20.7016  -15.1559  -16.6030 C   0  0  0  0  0  0  0  0  0  0  0  0
   19.0233  -10.9682  -17.3166 C   0  0  0  0  0  0  0  0  0  0  0  0
   19.0133  -10.2157  -18.3506 O   0  0  0  0  0  0  0  0  0  0  0  0
   17.1744   -6.0232  -15.8418 N   0  0  0  0  0  0  0  0  0  0  0  0
   17.7508   -6.9725  -14.9819 C   0  0  0  0  0  0  0  0  0  0  0  0
   18.3146   -6.5058  -13.9420 O   0  0  0  0  0  0  0  0  0  0  0  0
   17.7784   -8.4217  -15.1406 C   0  0  0  0  0  0  0  0  0  0  0  0
   18.9753   -8.9227  -15.9650 C   0  0  2  0  0  0  0  0  0  0  0  0
   19.0046  -10.3429  -16.0582 N   0  0  0  0  0  0  0  0  0  0  0  0
   20.2162   -8.3192  -15.4572 C   0  0  0  0  0  0  0  0  0  0  0  0
   20.7605   -8.7914  -14.4114 O   0  0  0  0  0  0  0  0  0  0  0  0
   26.8431   -4.2353  -17.1647 C   0  0  0  0  0  0  0  0  0  0  0  0
   25.1602   -4.7383  -17.6726 S   0  0  0  0  0  0  0  0  0  0  0  0
   24.2677   -5.5520  -16.3327 C   0  0  0  0  0  0  0  0  0  0  0  0
   22.9312   -6.0892  -16.6628 C   0  0  0  0  0  0  0  0  0  0  0  0
   22.1782   -6.7032  -15.5798 C   0  0  2  0  0  0  0  0  0  0  0  0
   20.8829   -7.2269  -16.0456 N   0  0  0  0  0  0  0  0  0  0  0  0
   22.0104   -5.9198  -14.3697 C   0  0  0  0  0  0  0  0  0  0  0  0
   21.1012   -5.0732  -14.2532 O   0  0  0  0  0  0  0  0  0  0  0  0
   22.8653   -6.0844  -13.2805 O   0  0  0  0  0  0  0  0  0  0  0  0
  2  1  1  6
  2  3  1  0
  3  4  1  0
  4  5  2  0
  5  6  1  0
  7  6  2  0
  8  7  1  0
  9  8  2  0
  9  4  1  0
 10 11  2  0
 10  2  1  0
 13 15  1  0
 13 12  1  0
 14 13  2  0
 16 15  1  1
 16 17  1  0
 17 10  1  0
 18 16  1  0
 18 25  1  0
 19 18  2  0
 21 20  1  0
 22 21  1  0
 23 22  1  0
 24 23  1  6
 24 25  1  0
 26 28  1  0
 26 24  1  0
 27 26  2  0
M  END
$$$$
