FNM.pdb
     RDKit          3D

 28 28  0  0  1  0  0  0  0  0999 V2000
   22.7428  -18.7023  -19.6745 N   0  0  0  0  0  0  0  0  0  0  0  0
   22.6161  -17.9886  -18.4378 C   0  0  1  0  0  0  0  0  0  0  0  0
   21.9329  -16.6717  -18.7354 C   0  0  0  0  0  0  0  0  0  0  0  0
   22.7043  -15.7719  -19.5940 C   0  0  0  0  0  0  0  0  0  0  0  0
   23.8099  -15.0898  -19.0949 C   0  0  0  0  0  0  0  0  0  0  0  0
   24.5248  -14.2459  -19.9097 C   0  0  0  0  0  0  0  0  0  0  0  0
   24.1889  -14.0377  -21.2335 C   0  0  0  0  0  0  0  0  0  0  0  0
   23.0995  -14.7082  -21.7310 C   0  0  0  0  0  0  0  0  0  0  0  0
   22.3742  -15.5633  -20.9082 C   0  0  0  0  0  0  0  0  0  0  0  0
   21.8893  -18.7675  -17.4079 C   0  0  0  0  0  0  0  0  0  0  0  0
   21.1047  -19.6908  -17.8172 O   0  0  0  0  0  0  0  0  0  0  0  0
   20.4361  -21.4751  -13.1776 N   0  0  0  0  0  0  0  0  0  0  0  0
   21.4667  -20.5659  -12.8883 C   0  0  0  0  0  0  0  0  0  0  0  0
   21.9608  -20.6444  -11.7191 O   0  0  0  0  0  0  0  0  0  0  0  0
   22.0334  -19.5485  -13.7658 C   0  0  0  0  0  0  0  0  0  0  0  0
   21.3163  -19.4438  -15.1215 C   0  0  2  0  0  0  0  0  0  0  0  0
   21.9943  -18.5723  -16.0201 N   0  0  0  0  0  0  0  0  0  0  0  0
   19.8981  -19.1185  -14.9100 C   0  0  0  0  0  0  0  0  0  0  0  0
   19.5850  -18.0823  -14.2458 O   0  0  0  0  0  0  0  0  0  0  0  0
   15.4435  -20.1950  -19.3873 C   0  0  0  0  0  0  0  0  0  0  0  0
   16.1806  -18.5478  -19.0930 S   0  0  0  0  0  0  0  0  0  0  0  0
   17.0342  -18.4662  -17.5060 C   0  0  0  0  0  0  0  0  0  0  0  0
   16.7007  -19.5191  -16.5240 C   0  0  0  0  0  0  0  0  0  0  0  0
   17.4027  -19.4831  -15.2502 C   0  0  2  0  0  0  0  0  0  0  0  0
   18.8144  -19.8764  -15.3950 N   0  0  0  0  0  0  0  0  0  0  0  0
   16.7852  -20.1846  -14.1398 C   0  0  0  0  0  0  0  0  0  0  0  0
   17.2390  -21.2637  -13.7076 O   0  0  0  0  0  0  0  0  0  0  0  0
   15.6518  -19.6757  -13.5068 O   0  0  0  0  0  0  0  0  0  0  0  0
  2  1  1  6
  2  3  1  0
  3  4  1  0
  4  5  2  0
  5  6  1  0
  7  6  2  0
  8  7  1  0
  9  8  2  0
  9  4  1  0
 10 11  2  0
 10  2  1  0
 13 15  1  0
 13 12  1  0
 14 13  2  0
 16 15  1  1
 16 17  1  0
 17 10  1  0
 18 16  1  0
 18 25  1  0
 19 18  2  0
 21 20  1  0
 22 21  1  0
 23 22  1  0
 24 23  1  6
 24 25  1  0
 26 28  1  0
 26 24  1  0
 27 26  2  0
M  END
$$$$
