AIQ.pdb
     RDKit          3D

 23 22  0  0  1  0  0  0  0  0999 V2000
    7.4472  -19.5376   18.5082 C   0  0  0  0  0  0  0  0  0  0  0  0
    7.9370  -18.2969   17.8402 C   0  0  2  0  0  0  0  0  0  0  0  0
    8.7825  -18.5664   16.6966 N   0  0  0  0  0  0  0  0  0  0  0  0
    8.7062  -17.4157   18.7673 C   0  0  0  0  0  0  0  0  0  0  0  0
    9.9335  -17.5954   18.8173 O   0  0  0  0  0  0  0  0  0  0  0  0
    6.7524  -12.4193   19.8317 C   0  0  0  0  0  0  0  0  0  0  0  0
    7.7386  -13.5057   19.5127 C   0  0  0  0  0  0  0  0  0  0  0  0
    7.9954  -14.3220   20.7596 C   0  0  2  0  0  0  0  0  0  0  0  0
    8.5751  -13.3671   21.7690 C   0  0  0  0  0  0  0  0  0  0  0  0
    8.8264  -15.5104   20.4472 C   0  0  2  0  0  0  0  0  0  0  0  0
    8.0813  -16.4174   19.5592 N   0  0  0  0  0  0  0  0  0  0  0  0
    9.3465  -16.2627   21.6078 C   0  0  0  0  0  0  0  0  0  0  0  0
    8.5083  -16.8960   22.3419 O   0  0  0  0  0  0  0  0  0  0  0  0
   13.4455  -20.5268   21.5546 N   0  0  0  0  0  0  0  0  0  0  0  0
   13.1532  -20.5198   22.9399 C   0  0  0  0  0  0  0  0  0  0  0  0
   13.6284  -21.4440   23.6650 O   0  0  0  0  0  0  0  0  0  0  0  0
   12.3141  -19.4371   23.4948 C   0  0  0  0  0  0  0  0  0  0  0  0
   11.8723  -18.4121   22.5150 C   0  0  0  0  0  0  0  0  0  0  0  0
   11.1052  -17.2954   23.0932 C   0  0  2  0  0  0  0  0  0  0  0  0
   10.6876  -16.3674   22.0080 N   0  0  0  0  0  0  0  0  0  0  0  0
   11.6904  -16.5099   24.1508 C   0  0  0  0  0  0  0  0  0  0  0  0
   11.5630  -16.9144   25.5015 O   0  0  0  0  0  0  0  0  0  0  0  0
   12.3532  -15.4230   24.0166 O   0  0  0  0  0  0  0  0  0  0  0  0
  2  1  1  1
  2  3  1  0
  4  5  2  0
  4  2  1  0
  7  6  1  0
  8  7  1  0
  8 10  1  0
  8  9  1  1
 10 12  1  0
 10 11  1  6
 11  4  1  0
 12 20  1  0
 13 12  2  0
 15 14  1  0
 16 15  2  0
 17 15  1  0
 18 17  1  0
 19 18  1  6
 20 19  1  0
 21 22  1  0
 21 19  1  0
 23 21  2  0
M  END
$$$$
