AIQ.pdb
     RDKit          3D

 23 22  0  0  1  0  0  0  0  0999 V2000
    6.7697  -16.3487   21.2393 C   0  0  0  0  0  0  0  0  0  0  0  0
    7.0056  -14.8824   21.3805 C   0  0  2  0  0  0  0  0  0  0  0  0
    7.6970  -14.3090   20.2455 N   0  0  0  0  0  0  0  0  0  0  0  0
    7.7958  -14.5470   22.6016 C   0  0  0  0  0  0  0  0  0  0  0  0
    9.0264  -14.4609   22.4631 O   0  0  0  0  0  0  0  0  0  0  0  0
    5.8362  -11.3987   26.5315 C   0  0  0  0  0  0  0  0  0  0  0  0
    6.7814  -12.0634   25.5726 C   0  0  0  0  0  0  0  0  0  0  0  0
    7.1468  -13.4304   26.1062 C   0  0  2  0  0  0  0  0  0  0  0  0
    7.8078  -13.1933   27.4380 C   0  0  0  0  0  0  0  0  0  0  0  0
    7.9517  -14.1835   25.1136 C   0  0  2  0  0  0  0  0  0  0  0  0
    7.1863  -14.3341   23.8655 N   0  0  0  0  0  0  0  0  0  0  0  0
    8.4569  -15.5011   25.5522 C   0  0  0  0  0  0  0  0  0  0  0  0
    7.6033  -16.4282   25.7855 O   0  0  0  0  0  0  0  0  0  0  0  0
   13.4273  -17.4070   23.5457 N   0  0  0  0  0  0  0  0  0  0  0  0
   12.1364  -17.5048   22.9725 C   0  0  0  0  0  0  0  0  0  0  0  0
   12.0231  -17.4144   21.7137 O   0  0  0  0  0  0  0  0  0  0  0  0
   10.9693  -17.7153   23.8545 C   0  0  0  0  0  0  0  0  0  0  0  0
   11.2689  -17.7316   25.3091 C   0  0  0  0  0  0  0  0  0  0  0  0
   10.1796  -17.2383   26.1692 C   0  0  2  0  0  0  0  0  0  0  0  0
    9.7987  -15.8637   25.7461 N   0  0  0  0  0  0  0  0  0  0  0  0
   10.3578  -17.2309   27.5997 C   0  0  0  0  0  0  0  0  0  0  0  0
   10.6000  -18.4372   28.3000 O   0  0  0  0  0  0  0  0  0  0  0  0
   10.3227  -16.2074   28.3676 O   0  0  0  0  0  0  0  0  0  0  0  0
  2  1  1  6
  2  3  1  0
  4  5  2  0
  4  2  1  0
  7  6  1  0
  8  7  1  0
  8 10  1  0
  8  9  1  1
 10 12  1  0
 10 11  1  6
 11  4  1  0
 12 20  1  0
 13 12  2  0
 15 14  1  0
 16 15  2  0
 17 15  1  0
 18 17  1  0
 19 18  1  6
 20 19  1  0
 21 22  1  0
 21 19  1  0
 23 21  2  0
M  END
$$$$
