AIQ.pdb
     RDKit          3D

 23 22  0  0  1  0  0  0  0  0999 V2000
    6.5808  -16.5324   21.2546 C   0  0  0  0  0  0  0  0  0  0  0  0
    6.9235  -15.0842   21.3593 C   0  0  2  0  0  0  0  0  0  0  0  0
    7.6287  -14.5847   20.1981 N   0  0  0  0  0  0  0  0  0  0  0  0
    7.7624  -14.7818   22.5562 C   0  0  0  0  0  0  0  0  0  0  0  0
    8.9904  -14.9033   22.4214 O   0  0  0  0  0  0  0  0  0  0  0  0
    5.9065  -11.1867   26.0653 C   0  0  0  0  0  0  0  0  0  0  0  0
    6.8955  -11.9368   25.2203 C   0  0  0  0  0  0  0  0  0  0  0  0
    7.2654  -13.2259   25.9190 C   0  0  2  0  0  0  0  0  0  0  0  0
    7.9990  -12.8242   27.1709 C   0  0  0  0  0  0  0  0  0  0  0  0
    8.0047  -14.1270   25.0015 C   0  0  2  0  0  0  0  0  0  0  0  0
    7.2001  -14.3746   23.7940 N   0  0  0  0  0  0  0  0  0  0  0  0
    8.4535  -15.4126   25.5753 C   0  0  0  0  0  0  0  0  0  0  0  0
    7.5623  -16.2805   25.8834 O   0  0  0  0  0  0  0  0  0  0  0  0
   13.2912  -18.8706   23.9955 N   0  0  0  0  0  0  0  0  0  0  0  0
   12.8443  -19.5813   25.1355 C   0  0  0  0  0  0  0  0  0  0  0  0
   13.4243  -20.6660   25.4402 O   0  0  0  0  0  0  0  0  0  0  0  0
   11.7269  -19.0354   25.9339 C   0  0  0  0  0  0  0  0  0  0  0  0
   11.1998  -17.7252   25.4737 C   0  0  0  0  0  0  0  0  0  0  0  0
   10.1083  -17.1757   26.2961 C   0  0  2  0  0  0  0  0  0  0  0  0
    9.7779  -15.8030   25.8268 N   0  0  0  0  0  0  0  0  0  0  0  0
   10.2569  -17.1330   27.7294 C   0  0  0  0  0  0  0  0  0  0  0  0
   10.1843  -18.3214   28.4952 O   0  0  0  0  0  0  0  0  0  0  0  0
   10.4590  -16.0909   28.4447 O   0  0  0  0  0  0  0  0  0  0  0  0
  2  1  1  6
  2  3  1  0
  4  5  2  0
  4  2  1  0
  7  6  1  0
  8  7  1  0
  8 10  1  0
  8  9  1  1
 10 12  1  0
 10 11  1  6
 11  4  1  0
 12 20  1  0
 13 12  2  0
 15 14  1  0
 16 15  2  0
 17 15  1  0
 18 17  1  0
 19 18  1  6
 20 19  1  0
 21 22  1  0
 21 19  1  0
 23 21  2  0
M  END
$$$$
