AIQ.pdb
     RDKit          3D

 23 22  0  0  1  0  0  0  0  0999 V2000
    6.4272  -16.1867   20.9406 C   0  0  0  0  0  0  0  0  0  0  0  0
    6.9651  -14.8006   21.0624 C   0  0  2  0  0  0  0  0  0  0  0  0
    7.8121  -14.4230   19.9510 N   0  0  0  0  0  0  0  0  0  0  0  0
    7.7547  -14.6033   22.3136 C   0  0  0  0  0  0  0  0  0  0  0  0
    8.9657  -14.8704   22.2565 O   0  0  0  0  0  0  0  0  0  0  0  0
    5.8560  -11.1052   26.0174 C   0  0  0  0  0  0  0  0  0  0  0  0
    6.8076  -11.8390   25.1169 C   0  0  0  0  0  0  0  0  0  0  0  0
    7.1406  -13.1781   25.7358 C   0  0  2  0  0  0  0  0  0  0  0  0
    7.8308  -12.8733   27.0386 C   0  0  0  0  0  0  0  0  0  0  0  0
    7.9057  -14.0204   24.7842 C   0  0  2  0  0  0  0  0  0  0  0  0
    7.1660  -14.1346   23.5168 N   0  0  0  0  0  0  0  0  0  0  0  0
    8.2830  -15.3656   25.2657 C   0  0  0  0  0  0  0  0  0  0  0  0
    7.4635  -16.3304   25.0661 O   0  0  0  0  0  0  0  0  0  0  0  0
   13.0597  -18.1658   23.3175 N   0  0  0  0  0  0  0  0  0  0  0  0
   12.6090  -18.9673   24.3941 C   0  0  0  0  0  0  0  0  0  0  0  0
   13.4397  -19.7295   24.9724 O   0  0  0  0  0  0  0  0  0  0  0  0
   11.1937  -18.8847   24.8119 C   0  0  0  0  0  0  0  0  0  0  0  0
   10.6067  -17.5205   24.7960 C   0  0  0  0  0  0  0  0  0  0  0  0
    9.9103  -17.1338   26.0350 C   0  0  2  0  0  0  0  0  0  0  0  0
    9.4670  -15.7173   25.9322 N   0  0  0  0  0  0  0  0  0  0  0  0
   10.5778  -17.3010   27.3017 C   0  0  0  0  0  0  0  0  0  0  0  0
   10.6482  -18.5753   27.9143 O   0  0  0  0  0  0  0  0  0  0  0  0
   11.1520  -16.3858   27.9881 O   0  0  0  0  0  0  0  0  0  0  0  0
  2  1  1  6
  2  3  1  0
  4  5  2  0
  4  2  1  0
  7  6  1  0
  8  7  1  0
  8 10  1  0
  8  9  1  1
 10 12  1  0
 10 11  1  6
 11  4  1  0
 12 20  1  0
 13 12  2  0
 15 14  1  0
 16 15  2  0
 17 15  1  0
 18 17  1  0
 19 18  1  6
 20 19  1  0
 21 22  1  0
 21 19  1  0
 23 21  2  0
M  END
$$$$
