AIQ.pdb
     RDKit          3D

 23 22  0  0  1  0  0  0  0  0999 V2000
    6.4249  -16.6753   21.3086 C   0  0  0  0  0  0  0  0  0  0  0  0
    6.5307  -15.2022   21.5194 C   0  0  2  0  0  0  0  0  0  0  0  0
    6.8933  -14.4834   20.3165 N   0  0  0  0  0  0  0  0  0  0  0  0
    7.5288  -14.8468   22.5707 C   0  0  0  0  0  0  0  0  0  0  0  0
    8.7177  -14.7979   22.2169 O   0  0  0  0  0  0  0  0  0  0  0  0
    5.6091  -11.8567   26.6083 C   0  0  0  0  0  0  0  0  0  0  0  0
    6.5886  -12.2789   25.5514 C   0  0  0  0  0  0  0  0  0  0  0  0
    7.3715  -13.4723   26.0513 C   0  0  2  0  0  0  0  0  0  0  0  0
    8.2203  -12.9659   27.1870 C   0  0  0  0  0  0  0  0  0  0  0  0
    8.1068  -14.1214   24.9385 C   0  0  2  0  0  0  0  0  0  0  0  0
    7.1542  -14.5755   23.9124 N   0  0  0  0  0  0  0  0  0  0  0  0
    9.0045  -15.2334   25.3143 C   0  0  0  0  0  0  0  0  0  0  0  0
    8.4753  -16.3593   25.6219 O   0  0  0  0  0  0  0  0  0  0  0  0
   15.7654  -18.2002   24.4984 N   0  0  0  0  0  0  0  0  0  0  0  0
   14.7871  -17.1831   24.3845 C   0  0  0  0  0  0  0  0  0  0  0  0
   15.0756  -16.1337   23.7355 O   0  0  0  0  0  0  0  0  0  0  0  0
   13.4655  -17.3792   25.0162 C   0  0  0  0  0  0  0  0  0  0  0  0
   12.4913  -16.2787   24.8026 C   0  0  0  0  0  0  0  0  0  0  0  0
   11.2108  -16.4413   25.5122 C   0  0  2  0  0  0  0  0  0  0  0  0
   10.4062  -15.1976   25.3730 N   0  0  0  0  0  0  0  0  0  0  0  0
   11.2177  -16.8141   26.9047 C   0  0  0  0  0  0  0  0  0  0  0  0
   11.4371  -18.1593   27.2876 O   0  0  0  0  0  0  0  0  0  0  0  0
   11.0391  -16.0344   27.9041 O   0  0  0  0  0  0  0  0  0  0  0  0
  2  1  1  6
  2  3  1  0
  4  5  2  0
  4  2  1  0
  7  6  1  0
  8  7  1  0
  8 10  1  0
  8  9  1  1
 10 12  1  0
 10 11  1  6
 11  4  1  0
 12 20  1  0
 13 12  2  0
 15 14  1  0
 16 15  2  0
 17 15  1  0
 18 17  1  0
 19 18  1  1
 20 19  1  0
 21 22  1  0
 21 19  1  0
 23 21  2  0
M  END
$$$$
