AIQ.pdb
     RDKit          3D

 23 22  0  0  1  0  0  0  0  0999 V2000
    5.7618  -19.3132   25.2503 C   0  0  0  0  0  0  0  0  0  0  0  0
    5.0736  -18.0354   24.9053 C   0  0  2  0  0  0  0  0  0  0  0  0
    4.1468  -18.1722   23.8020 N   0  0  0  0  0  0  0  0  0  0  0  0
    6.0333  -16.9485   24.5510 C   0  0  0  0  0  0  0  0  0  0  0  0
    6.5478  -17.0050   23.4226 O   0  0  0  0  0  0  0  0  0  0  0  0
    5.8036  -12.0160   26.9471 C   0  0  0  0  0  0  0  0  0  0  0  0
    6.0204  -13.0243   25.8558 C   0  0  0  0  0  0  0  0  0  0  0  0
    7.3015  -13.7802   26.1287 C   0  0  2  0  0  0  0  0  0  0  0  0
    8.4068  -12.7598   26.0684 C   0  0  0  0  0  0  0  0  0  0  0  0
    7.4385  -14.9321   25.2042 C   0  0  2  0  0  0  0  0  0  0  0  0
    6.3527  -15.8957   25.4475 N   0  0  0  0  0  0  0  0  0  0  0  0
    8.7406  -15.6305   25.2249 C   0  0  0  0  0  0  0  0  0  0  0  0
    8.9967  -16.4016   26.2160 O   0  0  0  0  0  0  0  0  0  0  0  0
   14.0203  -18.5985   20.9329 N   0  0  0  0  0  0  0  0  0  0  0  0
   12.9417  -17.7259   21.2153 C   0  0  0  0  0  0  0  0  0  0  0  0
   12.4170  -17.0805   20.2594 O   0  0  0  0  0  0  0  0  0  0  0  0
   12.4597  -17.6014   22.6069 C   0  0  0  0  0  0  0  0  0  0  0  0
   11.2982  -16.6953   22.7967 C   0  0  0  0  0  0  0  0  0  0  0  0
   10.8528  -16.5469   24.1928 C   0  0  2  0  0  0  0  0  0  0  0  0
    9.7544  -15.5455   24.2582 N   0  0  0  0  0  0  0  0  0  0  0  0
   11.8185  -16.2162   25.2107 C   0  0  0  0  0  0  0  0  0  0  0  0
   12.7308  -17.1918   25.6800 O   0  0  0  0  0  0  0  0  0  0  0  0
   11.9665  -15.0802   25.7817 O   0  0  0  0  0  0  0  0  0  0  0  0
  2  1  1  6
  2  3  1  0
  4  5  2  0
  4  2  1  0
  7  6  1  0
  8  7  1  0
  8 10  1  0
  8  9  1  6
 10 12  1  0
 10 11  1  1
 11  4  1  0
 12 20  1  0
 13 12  2  0
 15 14  1  0
 16 15  2  0
 17 15  1  0
 18 17  1  0
 19 18  1  6
 20 19  1  0
 21 22  1  0
 21 19  1  0
 23 21  2  0
M  END
$$$$
