AIQ.pdb
     RDKit          3D

 23 22  0  0  1  0  0  0  0  0999 V2000
    6.9461  -16.6719   21.2575 C   0  0  0  0  0  0  0  0  0  0  0  0
    6.9472  -15.1904   21.4333 C   0  0  2  0  0  0  0  0  0  0  0  0
    7.4440  -14.4836   20.2720 N   0  0  0  0  0  0  0  0  0  0  0  0
    7.7639  -14.7559   22.6046 C   0  0  0  0  0  0  0  0  0  0  0  0
    8.9611  -14.5087   22.3884 O   0  0  0  0  0  0  0  0  0  0  0  0
    5.3822  -11.8603   26.4243 C   0  0  0  0  0  0  0  0  0  0  0  0
    6.4114  -12.3708   25.4574 C   0  0  0  0  0  0  0  0  0  0  0  0
    7.1216  -13.5563   26.0714 C   0  0  2  0  0  0  0  0  0  0  0  0
    7.8035  -13.0366   27.3090 C   0  0  0  0  0  0  0  0  0  0  0  0
    8.0058  -14.2115   25.0768 C   0  0  2  0  0  0  0  0  0  0  0  0
    7.2149  -14.6265   23.9069 N   0  0  0  0  0  0  0  0  0  0  0  0
    8.8051  -15.3523   25.5700 C   0  0  0  0  0  0  0  0  0  0  0  0
    8.1814  -16.3895   25.9915 O   0  0  0  0  0  0  0  0  0  0  0  0
   14.8017  -16.3936   24.4934 N   0  0  0  0  0  0  0  0  0  0  0  0
   13.6996  -16.3583   23.6053 C   0  0  0  0  0  0  0  0  0  0  0  0
   13.9237  -16.2272   22.3650 O   0  0  0  0  0  0  0  0  0  0  0  0
   12.3308  -16.4823   24.1488 C   0  0  0  0  0  0  0  0  0  0  0  0
   12.2492  -16.7223   25.6122 C   0  0  0  0  0  0  0  0  0  0  0  0
   10.8920  -16.6338   26.1775 C   0  0  2  0  0  0  0  0  0  0  0  0
   10.2049  -15.4331   25.6299 N   0  0  0  0  0  0  0  0  0  0  0  0
   10.7222  -16.6303   27.6091 C   0  0  0  0  0  0  0  0  0  0  0  0
   10.5219  -15.4145   28.3061 O   0  0  0  0  0  0  0  0  0  0  0  0
   10.7301  -17.6515   28.3808 O   0  0  0  0  0  0  0  0  0  0  0  0
  2  1  1  6
  2  3  1  0
  4  5  2  0
  4  2  1  0
  7  6  1  0
  8  7  1  0
  8 10  1  0
  8  9  1  1
 10 12  1  0
 10 11  1  6
 11  4  1  0
 12 20  1  0
 13 12  2  0
 15 14  1  0
 16 15  2  0
 17 15  1  0
 18 17  1  0
 19 18  1  1
 20 19  1  0
 21 22  1  0
 21 19  1  0
 23 21  2  0
M  END
$$$$
