AIQ.pdb
     RDKit          3D

 23 22  0  0  1  0  0  0  0  0999 V2000
    5.4907  -17.0720   22.4486 C   0  0  0  0  0  0  0  0  0  0  0  0
    5.8875  -15.6818   22.0808 C   0  0  2  0  0  0  0  0  0  0  0  0
    6.4190  -15.5819   20.7382 N   0  0  0  0  0  0  0  0  0  0  0  0
    6.9096  -15.1159   23.0097 C   0  0  0  0  0  0  0  0  0  0  0  0
    8.0988  -15.2543   22.6813 O   0  0  0  0  0  0  0  0  0  0  0  0
    5.5117  -10.8642   26.0489 C   0  0  0  0  0  0  0  0  0  0  0  0
    6.3021  -11.7847   25.1642 C   0  0  0  0  0  0  0  0  0  0  0  0
    6.9170  -12.8767   26.0107 C   0  0  2  0  0  0  0  0  0  0  0  0
    7.8341  -12.1825   26.9821 C   0  0  0  0  0  0  0  0  0  0  0  0
    7.5496  -13.9105   25.1554 C   0  0  2  0  0  0  0  0  0  0  0  0
    6.5567  -14.4499   24.2122 N   0  0  0  0  0  0  0  0  0  0  0  0
    8.2190  -15.0203   25.8653 C   0  0  0  0  0  0  0  0  0  0  0  0
    7.7063  -15.4297   26.9662 O   0  0  0  0  0  0  0  0  0  0  0  0
    7.7379  -20.3954   26.8918 N   0  0  0  0  0  0  0  0  0  0  0  0
    7.9078  -20.0141   25.5390 C   0  0  0  0  0  0  0  0  0  0  0  0
    7.5851  -20.8374   24.6314 O   0  0  0  0  0  0  0  0  0  0  0  0
    8.4463  -18.6730   25.2294 C   0  0  0  0  0  0  0  0  0  0  0  0
    8.7810  -17.8364   26.4101 C   0  0  0  0  0  0  0  0  0  0  0  0
    9.8856  -16.8850   26.1993 C   0  0  2  0  0  0  0  0  0  0  0  0
    9.3807  -15.6960   25.4612 N   0  0  0  0  0  0  0  0  0  0  0  0
   11.0905  -17.3351   25.5485 C   0  0  0  0  0  0  0  0  0  0  0  0
   11.9254  -18.2966   26.1671 O   0  0  0  0  0  0  0  0  0  0  0  0
   11.5310  -16.9520   24.4093 O   0  0  0  0  0  0  0  0  0  0  0  0
  2  1  1  1
  2  3  1  0
  4  5  2  0
  4  2  1  0
  7  6  1  0
  8  7  1  0
  8 10  1  0
  8  9  1  1
 10 12  1  0
 10 11  1  6
 11  4  1  0
 12 20  1  0
 13 12  2  0
 15 14  1  0
 16 15  2  0
 17 15  1  0
 18 17  1  0
 19 18  1  6
 20 19  1  0
 21 22  1  0
 21 19  1  0
 23 21  2  0
M  END
$$$$
