AIQ.pdb
     RDKit          3D

 23 22  0  0  1  0  0  0  0  0999 V2000
    6.4528  -16.0871   21.0855 C   0  0  0  0  0  0  0  0  0  0  0  0
    7.0570  -14.7309   21.2316 C   0  0  2  0  0  0  0  0  0  0  0  0
    7.9487  -14.3890   20.1439 N   0  0  0  0  0  0  0  0  0  0  0  0
    7.8248  -14.5827   22.5029 C   0  0  0  0  0  0  0  0  0  0  0  0
    9.0270  -14.8902   22.4672 O   0  0  0  0  0  0  0  0  0  0  0  0
    5.8649  -11.1164   26.2334 C   0  0  0  0  0  0  0  0  0  0  0  0
    6.8252  -11.8296   25.3256 C   0  0  0  0  0  0  0  0  0  0  0  0
    7.1676  -13.1744   25.9266 C   0  0  2  0  0  0  0  0  0  0  0  0
    7.8347  -12.8827   27.2444 C   0  0  0  0  0  0  0  0  0  0  0  0
    7.9578  -13.9901   24.9723 C   0  0  2  0  0  0  0  0  0  0  0  0
    7.2258  -14.1149   23.7014 N   0  0  0  0  0  0  0  0  0  0  0  0
    8.3683  -15.3282   25.4461 C   0  0  0  0  0  0  0  0  0  0  0  0
    7.4813  -16.2521   25.4892 O   0  0  0  0  0  0  0  0  0  0  0  0
   12.2616  -18.8249   22.9172 N   0  0  0  0  0  0  0  0  0  0  0  0
   12.1564  -19.5691   24.1170 C   0  0  0  0  0  0  0  0  0  0  0  0
   12.7326  -20.6957   24.1848 O   0  0  0  0  0  0  0  0  0  0  0  0
   11.3884  -19.0089   25.2486 C   0  0  0  0  0  0  0  0  0  0  0  0
   10.8438  -17.6443   25.0312 C   0  0  0  0  0  0  0  0  0  0  0  0
    9.9902  -17.1396   26.1204 C   0  0  2  0  0  0  0  0  0  0  0  0
    9.6515  -15.7138   25.8637 N   0  0  0  0  0  0  0  0  0  0  0  0
   10.4454  -17.2511   27.4836 C   0  0  0  0  0  0  0  0  0  0  0  0
   10.6918  -16.0907   28.2563 O   0  0  0  0  0  0  0  0  0  0  0  0
   10.6701  -18.3348   28.1267 O   0  0  0  0  0  0  0  0  0  0  0  0
  2  1  1  6
  2  3  1  0
  4  5  2  0
  4  2  1  0
  7  6  1  0
  8  7  1  0
  8 10  1  0
  8  9  1  1
 10 12  1  0
 10 11  1  6
 11  4  1  0
 12 20  1  0
 13 12  2  0
 15 14  1  0
 16 15  2  0
 17 15  1  0
 18 17  1  0
 19 18  1  6
 20 19  1  0
 21 22  1  0
 21 19  1  0
 23 21  2  0
M  END
$$$$
