AIQ.pdb
     RDKit          3D

 23 22  0  0  1  0  0  0  0  0999 V2000
    8.3160  -19.2160   18.0073 C   0  0  0  0  0  0  0  0  0  0  0  0
    8.6225  -17.8586   17.4697 C   0  0  2  0  0  0  0  0  0  0  0  0
    9.5781  -17.8834   16.3828 N   0  0  0  0  0  0  0  0  0  0  0  0
    9.1586  -16.9387   18.5157 C   0  0  0  0  0  0  0  0  0  0  0  0
   10.3934  -16.8857   18.6317 O   0  0  0  0  0  0  0  0  0  0  0  0
    6.6854  -12.2545   19.7850 C   0  0  0  0  0  0  0  0  0  0  0  0
    7.7491  -13.2796   19.5157 C   0  0  0  0  0  0  0  0  0  0  0  0
    7.8486  -14.2121   20.7021 C   0  0  2  0  0  0  0  0  0  0  0  0
    8.1603  -13.3412   21.8900 C   0  0  0  0  0  0  0  0  0  0  0  0
    8.8170  -15.3030   20.4326 C   0  0  2  0  0  0  0  0  0  0  0  0
    8.3129  -16.1567   19.3447 N   0  0  0  0  0  0  0  0  0  0  0  0
    9.1923  -16.1395   21.5915 C   0  0  0  0  0  0  0  0  0  0  0  0
    8.2833  -16.8610   22.1352 O   0  0  0  0  0  0  0  0  0  0  0  0
   12.3739  -21.2236   21.6226 N   0  0  0  0  0  0  0  0  0  0  0  0
   12.6308  -19.8331   21.5522 C   0  0  0  0  0  0  0  0  0  0  0  0
   13.7869  -19.4464   21.2063 O   0  0  0  0  0  0  0  0  0  0  0  0
   11.5468  -18.8818   21.8752 C   0  0  0  0  0  0  0  0  0  0  0  0
   11.7687  -18.0568   23.0902 C   0  0  0  0  0  0  0  0  0  0  0  0
   10.7007  -17.0846   23.3797 C   0  0  2  0  0  0  0  0  0  0  0  0
   10.4628  -16.2385   22.1792 N   0  0  0  0  0  0  0  0  0  0  0  0
   10.8297  -16.2131   24.5207 C   0  0  0  0  0  0  0  0  0  0  0  0
   10.8736  -16.7466   25.8313 O   0  0  0  0  0  0  0  0  0  0  0  0
   10.9149  -14.9360   24.4995 O   0  0  0  0  0  0  0  0  0  0  0  0
  2  1  1  1
  2  3  1  0
  4  5  2  0
  4  2  1  0
  7  6  1  0
  8  7  1  0
  8 10  1  0
  8  9  1  1
 10 12  1  0
 10 11  1  6
 11  4  1  0
 12 20  1  0
 13 12  2  0
 15 14  1  0
 16 15  2  0
 17 15  1  0
 18 17  1  0
 19 18  1  6
 20 19  1  0
 21 22  1  0
 21 19  1  0
 23 21  2  0
M  END
$$$$
