AIQ.pdb
     RDKit          3D

 23 22  0  0  1  0  0  0  0  0999 V2000
    6.3195  -16.2484   20.9892 C   0  0  0  0  0  0  0  0  0  0  0  0
    6.7166  -14.8160   21.1165 C   0  0  2  0  0  0  0  0  0  0  0  0
    7.4298  -14.3219   19.9580 N   0  0  0  0  0  0  0  0  0  0  0  0
    7.5763  -14.5667   22.3109 C   0  0  0  0  0  0  0  0  0  0  0  0
    8.8018  -14.6815   22.1494 O   0  0  0  0  0  0  0  0  0  0  0  0
    5.7817  -11.1615   26.1160 C   0  0  0  0  0  0  0  0  0  0  0  0
    6.6931  -11.8722   25.1575 C   0  0  0  0  0  0  0  0  0  0  0  0
    7.1151  -13.1921   25.7630 C   0  0  2  0  0  0  0  0  0  0  0  0
    7.8609  -12.8504   27.0254 C   0  0  0  0  0  0  0  0  0  0  0  0
    7.8627  -14.0079   24.7751 C   0  0  2  0  0  0  0  0  0  0  0  0
    7.0359  -14.2149   23.5752 N   0  0  0  0  0  0  0  0  0  0  0  0
    8.3747  -15.3067   25.2596 C   0  0  0  0  0  0  0  0  0  0  0  0
    7.5238  -16.2108   25.5774 O   0  0  0  0  0  0  0  0  0  0  0  0
   12.9902  -18.6088   22.9878 N   0  0  0  0  0  0  0  0  0  0  0  0
   12.7925  -19.3127   24.2001 C   0  0  0  0  0  0  0  0  0  0  0  0
   13.4740  -20.3598   24.4119 O   0  0  0  0  0  0  0  0  0  0  0  0
   11.8085  -18.8031   25.1782 C   0  0  0  0  0  0  0  0  0  0  0  0
   11.1418  -17.5303   24.8021 C   0  0  0  0  0  0  0  0  0  0  0  0
   10.1123  -17.0694   25.7493 C   0  0  2  0  0  0  0  0  0  0  0  0
    9.7204  -15.6738   25.4140 N   0  0  0  0  0  0  0  0  0  0  0  0
   10.3775  -17.1300   27.1649 C   0  0  0  0  0  0  0  0  0  0  0  0
   10.7029  -15.9560   27.8861 O   0  0  0  0  0  0  0  0  0  0  0  0
   10.3552  -18.1769   27.9012 O   0  0  0  0  0  0  0  0  0  0  0  0
  2  1  1  6
  2  3  1  0
  4  5  2  0
  4  2  1  0
  7  6  1  0
  8  7  1  0
  8 10  1  0
  8  9  1  1
 10 12  1  0
 10 11  1  6
 11  4  1  0
 12 20  1  0
 13 12  2  0
 15 14  1  0
 16 15  2  0
 17 15  1  0
 18 17  1  0
 19 18  1  6
 20 19  1  0
 21 22  1  0
 21 19  1  0
 23 21  2  0
M  END
$$$$
