AIQ.pdb
     RDKit          3D

 23 22  0  0  1  0  0  0  0  0999 V2000
    8.5217  -19.3684   18.0694 C   0  0  0  0  0  0  0  0  0  0  0  0
    8.8287  -17.9673   17.6592 C   0  0  2  0  0  0  0  0  0  0  0  0
    9.7862  -17.8921   16.5763 N   0  0  0  0  0  0  0  0  0  0  0  0
    9.3628  -17.1473   18.7862 C   0  0  0  0  0  0  0  0  0  0  0  0
   10.5943  -16.9977   18.8321 O   0  0  0  0  0  0  0  0  0  0  0  0
    6.6829  -12.7492   20.0487 C   0  0  0  0  0  0  0  0  0  0  0  0
    7.8225  -13.6994   19.8183 C   0  0  0  0  0  0  0  0  0  0  0  0
    7.9890  -14.5768   21.0387 C   0  0  2  0  0  0  0  0  0  0  0  0
    8.2768  -13.6440   22.1848 C   0  0  0  0  0  0  0  0  0  0  0  0
    9.0061  -15.6286   20.7944 C   0  0  2  0  0  0  0  0  0  0  0  0
    8.5188  -16.5607   19.7648 N   0  0  0  0  0  0  0  0  0  0  0  0
    9.4560  -16.3854   21.9811 C   0  0  0  0  0  0  0  0  0  0  0  0
    8.6073  -17.1420   22.5725 O   0  0  0  0  0  0  0  0  0  0  0  0
   15.2222  -17.8951   22.1615 N   0  0  0  0  0  0  0  0  0  0  0  0
   14.2421  -18.8645   22.4845 C   0  0  0  0  0  0  0  0  0  0  0  0
   14.6158  -20.0548   22.7060 O   0  0  0  0  0  0  0  0  0  0  0  0
   12.8230  -18.4584   22.5598 C   0  0  0  0  0  0  0  0  0  0  0  0
   12.4727  -17.5896   23.7124 C   0  0  0  0  0  0  0  0  0  0  0  0
   11.0618  -17.1696   23.7624 C   0  0  2  0  0  0  0  0  0  0  0  0
   10.7395  -16.3717   22.5487 N   0  0  0  0  0  0  0  0  0  0  0  0
   10.5810  -16.4455   24.9125 C   0  0  0  0  0  0  0  0  0  0  0  0
   10.4163  -17.1002   26.1568 O   0  0  0  0  0  0  0  0  0  0  0  0
   10.2633  -15.2062   24.9556 O   0  0  0  0  0  0  0  0  0  0  0  0
  2  1  1  1
  2  3  1  0
  4  5  2  0
  4  2  1  0
  7  6  1  0
  8  7  1  0
  8 10  1  0
  8  9  1  1
 10 12  1  0
 10 11  1  6
 11  4  1  0
 12 20  1  0
 13 12  2  0
 15 14  1  0
 16 15  2  0
 17 15  1  0
 18 17  1  0
 19 18  1  1
 20 19  1  0
 21 22  1  0
 21 19  1  0
 23 21  2  0
M  END
$$$$
