VPK.pdb
     RDKit          3D

 24 24  0  0  1  0  0  0  0  0999 V2000
    7.0614  -18.8649   16.6134 C   0  0  0  0  0  0  0  0  0  0  0  0
    7.6109  -18.1477   17.8224 C   0  0  2  0  0  0  0  0  0  0  0  0
    6.5097  -18.0217   18.8612 C   0  0  0  0  0  0  0  0  0  0  0  0
    8.2414  -16.8160   17.4872 C   0  0  2  0  0  0  0  0  0  0  0  0
    9.0899  -17.0426   16.3392 N   0  0  0  0  0  0  0  0  0  0  0  0
    8.9316  -16.1695   18.5896 C   0  0  0  0  0  0  0  0  0  0  0  0
   10.1377  -16.5449   18.7988 O   0  0  0  0  0  0  0  0  0  0  0  0
    8.3876  -15.1815   19.4310 N   0  0  0  0  0  0  0  0  0  0  0  0
    7.0351  -14.6642   19.2548 C   0  0  0  0  0  0  0  0  0  0  0  0
    7.2543  -13.1895   19.5232 C   0  0  0  0  0  0  0  0  0  0  0  0
    8.1866  -13.2035   20.7065 C   0  0  0  0  0  0  0  0  0  0  0  0
    8.9920  -14.5115   20.5259 C   0  0  1  0  0  0  0  0  0  0  0  0
    9.0010  -15.2007   21.8240 C   0  0  0  0  0  0  0  0  0  0  0  0
    8.0414  -15.9964   22.1424 O   0  0  0  0  0  0  0  0  0  0  0  0
    9.9983  -15.0953   22.8330 N   0  0  0  0  0  0  0  0  0  0  0  0
   10.5661  -16.2800   23.4683 C   0  0  1  0  0  0  0  0  0  0  0  0
   10.9791  -17.3100   22.4742 C   0  0  0  0  0  0  0  0  0  0  0  0
   11.5572  -18.5038   23.1824 C   0  0  0  0  0  0  0  0  0  0  0  0
   11.3062  -19.8041   22.4344 C   0  0  0  0  0  0  0  0  0  0  0  0
   11.9345  -20.9721   23.1780 C   0  0  0  0  0  0  0  0  0  0  0  0
   11.7760  -22.1724   22.3547 N   0  0  0  0  0  0  0  0  0  0  0  0
   11.5286  -16.0358   24.5090 C   0  0  0  0  0  0  0  0  0  0  0  0
   11.6004  -16.5958   25.7652 O   0  0  0  0  0  0  0  0  0  0  0  0
   12.4588  -15.1814   24.2553 O   0  0  0  0  0  0  0  0  0  0  0  0
  2  3  1  1
  2  1  1  0
  4  2  1  0
  4  5  1  6
  6  4  1  0
  7  6  2  0
  8  6  1  0
  9 10  1  0
  9  8  1  0
 10 11  1  0
 12 11  1  0
 12  8  1  0
 12 13  1  1
 14 13  2  0
 15 13  1  0
 16 17  1  6
 16 15  1  0
 18 17  1  0
 19 20  1  0
 19 18  1  0
 20 21  1  0
 22 23  1  0
 22 16  1  0
 24 22  2  0
M  END
$$$$
