VPK.pdb
     RDKit          3D

 24 24  0  0  1  0  0  0  0  0999 V2000
    5.5277  -18.3290   21.3772 C   0  0  0  0  0  0  0  0  0  0  0  0
    5.0638  -17.3640   20.3133 C   0  0  2  0  0  0  0  0  0  0  0  0
    3.7499  -17.8628   19.7371 C   0  0  0  0  0  0  0  0  0  0  0  0
    6.1029  -17.1133   19.2452 C   0  0  2  0  0  0  0  0  0  0  0  0
    6.2213  -18.3421   18.4935 N   0  0  0  0  0  0  0  0  0  0  0  0
    7.3774  -16.6169   19.7341 C   0  0  0  0  0  0  0  0  0  0  0  0
    8.3599  -17.4364   19.6828 O   0  0  0  0  0  0  0  0  0  0  0  0
    7.6120  -15.3296   20.2512 N   0  0  0  0  0  0  0  0  0  0  0  0
    6.5516  -14.3369   20.3856 C   0  0  0  0  0  0  0  0  0  0  0  0
    7.2775  -13.0803   19.9512 C   0  0  0  0  0  0  0  0  0  0  0  0
    8.6193  -13.2251   20.6208 C   0  0  0  0  0  0  0  0  0  0  0  0
    8.8315  -14.7554   20.6943 C   0  0  1  0  0  0  0  0  0  0  0  0
    9.2743  -15.0691   22.0602 C   0  0  0  0  0  0  0  0  0  0  0  0
    8.4100  -15.2891   22.9876 O   0  0  0  0  0  0  0  0  0  0  0  0
   10.6190  -15.1693   22.5135 N   0  0  0  0  0  0  0  0  0  0  0  0
   10.9865  -16.0517   23.6161 C   0  0  1  0  0  0  0  0  0  0  0  0
   10.4374  -17.4263   23.4455 C   0  0  0  0  0  0  0  0  0  0  0  0
   10.8420  -18.2883   24.6092 C   0  0  0  0  0  0  0  0  0  0  0  0
   10.4246  -19.7402   24.4327 C   0  0  0  0  0  0  0  0  0  0  0  0
   10.7971  -20.5512   25.6638 C   0  0  0  0  0  0  0  0  0  0  0  0
   10.5168  -21.9601   25.3810 N   0  0  0  0  0  0  0  0  0  0  0  0
   12.3646  -16.0066   24.0258 C   0  0  0  0  0  0  0  0  0  0  0  0
   13.4285  -15.3902   23.4052 O   0  0  0  0  0  0  0  0  0  0  0  0
   12.6695  -16.6185   25.1176 O   0  0  0  0  0  0  0  0  0  0  0  0
  2  3  1  6
  2  1  1  0
  4  2  1  0
  4  5  1  1
  6  4  1  0
  7  6  2  0
  8  6  1  0
  9 10  1  0
  9  8  1  0
 10 11  1  0
 12 11  1  0
 12  8  1  0
 12 13  1  1
 14 13  2  0
 15 13  1  0
 16 17  1  6
 16 15  1  0
 18 17  1  0
 19 20  1  0
 19 18  1  0
 20 21  1  0
 22 23  1  0
 22 16  1  0
 24 22  2  0
M  END
$$$$
