VPK.pdb
     RDKit          3D

 24 24  0  0  1  0  0  0  0  0999 V2000
    8.0452  -12.6318   26.6863 C   0  0  0  0  0  0  0  0  0  0  0  0
    7.0154  -12.2535   25.6497 C   0  0  2  0  0  0  0  0  0  0  0  0
    6.2052  -11.0780   26.1684 C   0  0  0  0  0  0  0  0  0  0  0  0
    6.1429  -13.4133   25.2286 C   0  0  2  0  0  0  0  0  0  0  0  0
    5.4023  -13.8153   26.4029 N   0  0  0  0  0  0  0  0  0  0  0  0
    6.8485  -14.5125   24.5934 C   0  0  0  0  0  0  0  0  0  0  0  0
    6.8208  -15.6336   25.2113 O   0  0  0  0  0  0  0  0  0  0  0  0
    7.5483  -14.4424   23.3748 N   0  0  0  0  0  0  0  0  0  0  0  0
    7.6393  -13.2121   22.5963 C   0  0  0  0  0  0  0  0  0  0  0  0
    7.4771  -13.7496   21.1893 C   0  0  0  0  0  0  0  0  0  0  0  0
    8.3208  -14.9976   21.2125 C   0  0  0  0  0  0  0  0  0  0  0  0
    8.2388  -15.4707   22.6828 C   0  0  1  0  0  0  0  0  0  0  0  0
    9.6077  -15.7825   23.1174 C   0  0  0  0  0  0  0  0  0  0  0  0
   10.5118  -14.8670   23.1196 O   0  0  0  0  0  0  0  0  0  0  0  0
   10.0882  -17.0441   23.5661 N   0  0  0  0  0  0  0  0  0  0  0  0
   11.4640  -17.2164   24.0209 C   0  0  1  0  0  0  0  0  0  0  0  0
   11.5515  -18.0580   25.2473 C   0  0  0  0  0  0  0  0  0  0  0  0
   10.1717  -18.4400   25.7067 C   0  0  0  0  0  0  0  0  0  0  0  0
   10.1943  -19.3907   26.8937 C   0  0  0  0  0  0  0  0  0  0  0  0
    8.7788  -19.6759   27.3702 C   0  0  0  0  0  0  0  0  0  0  0  0
    8.8577  -20.6153   28.4905 N   0  0  0  0  0  0  0  0  0  0  0  0
   12.4270  -17.5429   23.0036 C   0  0  0  0  0  0  0  0  0  0  0  0
   12.2099  -17.8558   21.6799 O   0  0  0  0  0  0  0  0  0  0  0  0
   13.6666  -17.5506   23.3538 O   0  0  0  0  0  0  0  0  0  0  0  0
  2  3  1  1
  2  1  1  0
  4  2  1  0
  4  5  1  1
  6  4  1  0
  7  6  2  0
  8  6  1  0
  9 10  1  0
  9  8  1  0
 10 11  1  0
 12 11  1  0
 12  8  1  0
 12 13  1  1
 14 13  2  0
 15 13  1  0
 16 17  1  1
 16 15  1  0
 18 17  1  0
 19 20  1  0
 19 18  1  0
 20 21  1  0
 22 23  1  0
 22 16  1  0
 24 22  2  0
M  END
$$$$
