VPK.pdb
     RDKit          3D

 24 24  0  0  1  0  0  0  0  0999 V2000
    6.2502  -16.0102   20.8287 C   0  0  0  0  0  0  0  0  0  0  0  0
    7.0514  -15.7779   22.0865 C   0  0  2  0  0  0  0  0  0  0  0  0
    6.2625  -16.3002   23.2748 C   0  0  0  0  0  0  0  0  0  0  0  0
    7.4741  -14.3379   22.2639 C   0  0  2  0  0  0  0  0  0  0  0  0
    8.1228  -13.9475   21.0327 N   0  0  0  0  0  0  0  0  0  0  0  0
    8.2808  -14.0765   23.4432 C   0  0  0  0  0  0  0  0  0  0  0  0
    9.5443  -14.2348   23.3095 O   0  0  0  0  0  0  0  0  0  0  0  0
    7.7908  -13.6713   24.6983 N   0  0  0  0  0  0  0  0  0  0  0  0
    6.3751  -13.4138   24.9378 C   0  0  0  0  0  0  0  0  0  0  0  0
    6.4516  -12.1814   25.8154 C   0  0  0  0  0  0  0  0  0  0  0  0
    7.5926  -12.5067   26.7439 C   0  0  0  0  0  0  0  0  0  0  0  0
    8.5078  -13.4217   25.8970 C   0  0  1  0  0  0  0  0  0  0  0  0
    8.8606  -14.5786   26.7319 C   0  0  0  0  0  0  0  0  0  0  0  0
    7.9790  -15.4758   27.0028 O   0  0  0  0  0  0  0  0  0  0  0  0
   10.1312  -14.8501   27.3113 N   0  0  0  0  0  0  0  0  0  0  0  0
   10.3703  -16.0628   28.0870 C   0  0  1  0  0  0  0  0  0  0  0  0
   11.4945  -16.8715   27.5373 C   0  0  0  0  0  0  0  0  0  0  0  0
   11.2273  -17.2088   26.0965 C   0  0  0  0  0  0  0  0  0  0  0  0
   12.3414  -18.0367   25.4748 C   0  0  0  0  0  0  0  0  0  0  0  0
   12.0886  -18.2325   23.9882 C   0  0  0  0  0  0  0  0  0  0  0  0
   13.1996  -19.0110   23.4376 N   0  0  0  0  0  0  0  0  0  0  0  0
   10.3949  -15.9013   29.5161 C   0  0  0  0  0  0  0  0  0  0  0  0
   10.4370  -16.8717   30.4925 O   0  0  0  0  0  0  0  0  0  0  0  0
   10.3751  -14.6951   29.9678 O   0  0  0  0  0  0  0  0  0  0  0  0
  2  3  1  1
  2  1  1  0
  4  2  1  0
  4  5  1  6
  6  4  1  0
  7  6  2  0
  8  6  1  0
  9 10  1  0
  9  8  1  0
 10 11  1  0
 12 11  1  0
 12  8  1  0
 12 13  1  1
 14 13  2  0
 15 13  1  0
 16 17  1  6
 16 15  1  0
 18 17  1  0
 19 20  1  0
 19 18  1  0
 20 21  1  0
 22 23  1  0
 22 16  1  0
 24 22  2  0
M  END
$$$$
