VPK.pdb
     RDKit          3D

 24 24  0  0  1  0  0  0  0  0999 V2000
    6.8404  -16.0391   21.6672 C   0  0  0  0  0  0  0  0  0  0  0  0
    6.6859  -14.5381   21.7050 C   0  0  2  0  0  0  0  0  0  0  0  0
    6.1055  -14.0707   20.3813 C   0  0  0  0  0  0  0  0  0  0  0  0
    7.9664  -13.8180   22.0587 C   0  0  2  0  0  0  0  0  0  0  0  0
    8.8924  -14.0763   20.9793 N   0  0  0  0  0  0  0  0  0  0  0  0
    8.5093  -14.1394   23.3671 C   0  0  0  0  0  0  0  0  0  0  0  0
    9.6334  -14.7522   23.3771 O   0  0  0  0  0  0  0  0  0  0  0  0
    7.9066  -13.8361   24.6018 N   0  0  0  0  0  0  0  0  0  0  0  0
    6.6303  -13.1360   24.6966 C   0  0  0  0  0  0  0  0  0  0  0  0
    6.8967  -12.2099   25.8654 C   0  0  0  0  0  0  0  0  0  0  0  0
    7.6378  -13.0990   26.8299 C   0  0  0  0  0  0  0  0  0  0  0  0
    8.3793  -14.1000   25.9132 C   0  0  1  0  0  0  0  0  0  0  0  0
    8.1506  -15.4446   26.4609 C   0  0  0  0  0  0  0  0  0  0  0  0
    7.2115  -16.1863   25.9881 O   0  0  0  0  0  0  0  0  0  0  0  0
    8.8822  -16.0688   27.5092 N   0  0  0  0  0  0  0  0  0  0  0  0
    9.3361  -17.4515   27.4017 C   0  0  1  0  0  0  0  0  0  0  0  0
   10.0330  -17.7177   26.1120 C   0  0  0  0  0  0  0  0  0  0  0  0
   10.4721  -19.1546   26.0532 C   0  0  0  0  0  0  0  0  0  0  0  0
   11.2706  -19.4699   24.7977 C   0  0  0  0  0  0  0  0  0  0  0  0
   11.6325  -20.9462   24.7576 C   0  0  0  0  0  0  0  0  0  0  0  0
   12.5593  -21.1561   23.6438 N   0  0  0  0  0  0  0  0  0  0  0  0
    9.9993  -17.9880   28.5598 C   0  0  0  0  0  0  0  0  0  0  0  0
    9.7410  -19.1603   29.2351 O   0  0  0  0  0  0  0  0  0  0  0  0
   10.9691  -17.2964   29.0501 O   0  0  0  0  0  0  0  0  0  0  0  0
  2  3  1  6
  2  1  1  0
  4  2  1  0
  4  5  1  6
  6  4  1  0
  7  6  2  0
  8  6  1  0
  9 10  1  0
  9  8  1  0
 10 11  1  0
 12 11  1  0
 12  8  1  0
 12 13  1  1
 14 13  2  0
 15 13  1  0
 16 17  1  6
 16 15  1  0
 18 17  1  0
 19 20  1  0
 19 18  1  0
 20 21  1  0
 22 23  1  0
 22 16  1  0
 24 22  2  0
M  END
$$$$
