VPK.pdb
     RDKit          3D

 24 24  0  0  1  0  0  0  0  0999 V2000
    8.0116  -15.5131   19.3501 C   0  0  0  0  0  0  0  0  0  0  0  0
    7.3736  -14.2139   19.7781 C   0  0  2  0  0  0  0  0  0  0  0  0
    6.6358  -13.6153   18.5928 C   0  0  0  0  0  0  0  0  0  0  0  0
    8.3556  -13.2448   20.3945 C   0  0  2  0  0  0  0  0  0  0  0  0
    9.2826  -12.8804   19.3472 N   0  0  0  0  0  0  0  0  0  0  0  0
    9.0123  -13.7206   21.5995 C   0  0  0  0  0  0  0  0  0  0  0  0
   10.2720  -13.9318   21.5103 O   0  0  0  0  0  0  0  0  0  0  0  0
    8.3833  -13.9641   22.8344 N   0  0  0  0  0  0  0  0  0  0  0  0
    6.9607  -13.7217   23.0473 C   0  0  0  0  0  0  0  0  0  0  0  0
    6.9761  -13.1238   24.4391 C   0  0  0  0  0  0  0  0  0  0  0  0
    7.9743  -13.9913   25.1608 C   0  0  0  0  0  0  0  0  0  0  0  0
    8.9510  -14.4348   24.0465 C   0  0  1  0  0  0  0  0  0  0  0  0
    9.1451  -15.8847   24.1886 C   0  0  0  0  0  0  0  0  0  0  0  0
    8.2182  -16.7015   23.8290 O   0  0  0  0  0  0  0  0  0  0  0  0
   10.2993  -16.5393   24.7018 N   0  0  0  0  0  0  0  0  0  0  0  0
   10.3622  -17.9928   24.8155 C   0  0  1  0  0  0  0  0  0  0  0  0
   11.4930  -18.5711   24.0365 C   0  0  0  0  0  0  0  0  0  0  0  0
   11.5657  -17.9245   22.6809 C   0  0  0  0  0  0  0  0  0  0  0  0
   12.6518  -18.5283   21.8039 C   0  0  0  0  0  0  0  0  0  0  0  0
   12.6279  -17.8959   20.4213 C   0  0  0  0  0  0  0  0  0  0  0  0
   13.7408  -18.4514   19.6489 N   0  0  0  0  0  0  0  0  0  0  0  0
   10.2178  -18.5270   26.1432 C   0  0  0  0  0  0  0  0  0  0  0  0
   10.0813  -19.8408   26.5334 O   0  0  0  0  0  0  0  0  0  0  0  0
   10.2122  -17.6819   27.1153 O   0  0  0  0  0  0  0  0  0  0  0  0
  2  3  1  6
  2  1  1  0
  4  2  1  0
  4  5  1  6
  6  4  1  0
  7  6  2  0
  8  6  1  0
  9 10  1  0
  9  8  1  0
 10 11  1  0
 12 11  1  0
 12  8  1  0
 12 13  1  6
 14 13  2  0
 15 13  1  0
 16 17  1  1
 16 15  1  0
 18 17  1  0
 19 20  1  0
 19 18  1  0
 20 21  1  0
 22 23  1  0
 22 16  1  0
 24 22  2  0
M  END
$$$$
