VPK.pdb
     RDKit          3D

 24 24  0  0  1  0  0  0  0  0999 V2000
    8.1932  -13.3406   27.1720 C   0  0  0  0  0  0  0  0  0  0  0  0
    7.4265  -12.5589   26.1332 C   0  0  2  0  0  0  0  0  0  0  0  0
    6.8609  -11.3061   26.7798 C   0  0  0  0  0  0  0  0  0  0  0  0
    6.3639  -13.3782   25.4381 C   0  0  2  0  0  0  0  0  0  0  0  0
    5.4566  -13.8298   26.4686 N   0  0  0  0  0  0  0  0  0  0  0  0
    6.8678  -14.4573   24.6068 C   0  0  0  0  0  0  0  0  0  0  0  0
    6.6420  -15.6459   25.0260 O   0  0  0  0  0  0  0  0  0  0  0  0
    7.5728  -14.3013   23.3991 N   0  0  0  0  0  0  0  0  0  0  0  0
    7.7134  -13.0082   22.7386 C   0  0  0  0  0  0  0  0  0  0  0  0
    7.5340  -13.4056   21.2878 C   0  0  0  0  0  0  0  0  0  0  0  0
    8.3285  -14.6822   21.1937 C   0  0  0  0  0  0  0  0  0  0  0  0
    8.2246  -15.2867   22.6135 C   0  0  1  0  0  0  0  0  0  0  0  0
    9.5793  -15.6906   23.0157 C   0  0  0  0  0  0  0  0  0  0  0  0
   10.3452  -14.8636   23.6361 O   0  0  0  0  0  0  0  0  0  0  0  0
   10.1867  -16.9579   22.7952 N   0  0  0  0  0  0  0  0  0  0  0  0
   11.2979  -17.4228   23.6190 C   0  0  1  0  0  0  0  0  0  0  0  0
   10.9321  -18.6098   24.4419 C   0  0  0  0  0  0  0  0  0  0  0  0
   12.0826  -18.9916   25.3315 C   0  0  0  0  0  0  0  0  0  0  0  0
   11.7529  -20.1660   26.2400 C   0  0  0  0  0  0  0  0  0  0  0  0
   12.9195  -20.4589   27.1703 C   0  0  0  0  0  0  0  0  0  0  0  0
   12.5770  -21.6360   27.9709 N   0  0  0  0  0  0  0  0  0  0  0  0
   12.5716  -17.5247   22.9584 C   0  0  0  0  0  0  0  0  0  0  0  0
   12.8428  -17.5473   21.6083 O   0  0  0  0  0  0  0  0  0  0  0  0
   13.6144  -17.6076   23.7101 O   0  0  0  0  0  0  0  0  0  0  0  0
  2  3  1  1
  2  1  1  0
  4  2  1  0
  4  5  1  1
  6  4  1  0
  7  6  2  0
  8  6  1  0
  9 10  1  0
  9  8  1  0
 10 11  1  0
 12 11  1  0
 12  8  1  0
 12 13  1  1
 14 13  2  0
 15 13  1  0
 16 17  1  6
 16 15  1  0
 18 17  1  0
 19 20  1  0
 19 18  1  0
 20 21  1  0
 22 23  1  0
 22 16  1  0
 24 22  2  0
M  END
$$$$
