VPK.pdb
     RDKit          3D

 24 24  0  0  1  0  0  0  0  0999 V2000
    8.1258  -13.4091   26.9219 C   0  0  0  0  0  0  0  0  0  0  0  0
    7.3892  -12.5805   25.8977 C   0  0  2  0  0  0  0  0  0  0  0  0
    6.8507  -11.3306   26.5724 C   0  0  0  0  0  0  0  0  0  0  0  0
    6.3119  -13.3530   25.1724 C   0  0  2  0  0  0  0  0  0  0  0  0
    5.3913  -13.8193   26.1844 N   0  0  0  0  0  0  0  0  0  0  0  0
    6.7956  -14.4143   24.3067 C   0  0  0  0  0  0  0  0  0  0  0  0
    6.5211  -15.6103   24.6720 O   0  0  0  0  0  0  0  0  0  0  0  0
    7.5299  -14.2337   23.1201 N   0  0  0  0  0  0  0  0  0  0  0  0
    7.7865  -12.9141   22.5538 C   0  0  0  0  0  0  0  0  0  0  0  0
    7.5979  -13.1935   21.0769 C   0  0  0  0  0  0  0  0  0  0  0  0
    8.2864  -14.5219   20.9009 C   0  0  0  0  0  0  0  0  0  0  0  0
    8.1109  -15.2129   22.2735 C   0  0  1  0  0  0  0  0  0  0  0  0
    9.4214  -15.7547   22.6596 C   0  0  0  0  0  0  0  0  0  0  0  0
   10.2209  -15.0596   23.3898 O   0  0  0  0  0  0  0  0  0  0  0  0
    9.9487  -17.0287   22.3095 N   0  0  0  0  0  0  0  0  0  0  0  0
   11.1481  -17.5581   22.9503 C   0  0  1  0  0  0  0  0  0  0  0  0
   10.8977  -18.8618   23.6267 C   0  0  0  0  0  0  0  0  0  0  0  0
   12.1526  -19.3374   24.3048 C   0  0  0  0  0  0  0  0  0  0  0  0
   11.9929  -20.7157   24.9276 C   0  0  0  0  0  0  0  0  0  0  0  0
   13.2806  -21.1369   25.6179 C   0  0  0  0  0  0  0  0  0  0  0  0
   13.0779  -22.4734   26.1803 N   0  0  0  0  0  0  0  0  0  0  0  0
   12.3524  -17.5154   22.1648 C   0  0  0  0  0  0  0  0  0  0  0  0
   13.6478  -17.3070   22.5838 O   0  0  0  0  0  0  0  0  0  0  0  0
   12.2280  -17.6930   20.8950 O   0  0  0  0  0  0  0  0  0  0  0  0
  2  3  1  1
  2  1  1  0
  4  2  1  0
  4  5  1  1
  6  4  1  0
  7  6  2  0
  8  6  1  0
  9 10  1  0
  9  8  1  0
 10 11  1  0
 12 11  1  0
 12  8  1  0
 12 13  1  1
 14 13  2  0
 15 13  1  0
 16 17  1  6
 16 15  1  0
 18 17  1  0
 19 20  1  0
 19 18  1  0
 20 21  1  0
 22 23  1  0
 22 16  1  0
 24 22  2  0
M  END
$$$$
