VPK.pdb
     RDKit          3D

 24 24  0  0  1  0  0  0  0  0999 V2000
    8.6832  -18.1948   17.0383 C   0  0  0  0  0  0  0  0  0  0  0  0
    7.8593  -17.0217   16.5659 C   0  0  2  0  0  0  0  0  0  0  0  0
    7.1802  -17.3931   15.2589 C   0  0  0  0  0  0  0  0  0  0  0  0
    8.6556  -15.7420   16.4579 C   0  0  2  0  0  0  0  0  0  0  0  0
    9.5998  -15.9375   15.3811 N   0  0  0  0  0  0  0  0  0  0  0  0
    9.2802  -15.3022   17.6933 C   0  0  0  0  0  0  0  0  0  0  0  0
   10.5398  -15.5086   17.7939 O   0  0  0  0  0  0  0  0  0  0  0  0
    8.6207  -14.6795   18.7690 N   0  0  0  0  0  0  0  0  0  0  0  0
    7.1905  -14.3928   18.7475 C   0  0  0  0  0  0  0  0  0  0  0  0
    7.1626  -13.0212   19.3898 C   0  0  0  0  0  0  0  0  0  0  0  0
    8.1495  -13.1645   20.5191 C   0  0  0  0  0  0  0  0  0  0  0  0
    9.1601  -14.2115   19.9949 C   0  0  1  0  0  0  0  0  0  0  0  0
    9.3645  -15.1953   21.0676 C   0  0  0  0  0  0  0  0  0  0  0  0
    8.5170  -16.1470   21.2449 O   0  0  0  0  0  0  0  0  0  0  0  0
   10.4481  -15.2325   21.9887 N   0  0  0  0  0  0  0  0  0  0  0  0
   10.5237  -16.2479   23.0340 C   0  0  1  0  0  0  0  0  0  0  0  0
   11.7415  -17.0970   22.9085 C   0  0  0  0  0  0  0  0  0  0  0  0
   11.8356  -17.6566   21.5161 C   0  0  0  0  0  0  0  0  0  0  0  0
   13.0337  -18.5761   21.3364 C   0  0  0  0  0  0  0  0  0  0  0  0
   13.0721  -19.1242   19.9186 C   0  0  0  0  0  0  0  0  0  0  0  0
   14.3251  -19.8630   19.7514 N   0  0  0  0  0  0  0  0  0  0  0  0
   10.2466  -15.7964   24.3712 C   0  0  0  0  0  0  0  0  0  0  0  0
   10.0069  -16.5458   25.5017 O   0  0  0  0  0  0  0  0  0  0  0  0
   10.2124  -14.5229   24.5623 O   0  0  0  0  0  0  0  0  0  0  0  0
  2  3  1  6
  2  1  1  0
  4  2  1  0
  4  5  1  6
  6  4  1  0
  7  6  2  0
  8  6  1  0
  9 10  1  0
  9  8  1  0
 10 11  1  0
 12 11  1  0
 12  8  1  0
 12 13  1  1
 14 13  2  0
 15 13  1  0
 16 17  1  1
 16 15  1  0
 18 17  1  0
 19 20  1  0
 19 18  1  0
 20 21  1  0
 22 23  1  0
 22 16  1  0
 24 22  2  0
M  END
$$$$
