VPK.pdb
     RDKit          3D

 24 24  0  0  1  0  0  0  0  0999 V2000
    7.7702  -12.5377   26.8030 C   0  0  0  0  0  0  0  0  0  0  0  0
    6.8412  -12.0821   25.7041 C   0  0  2  0  0  0  0  0  0  0  0  0
    6.0357  -10.8947   26.2028 C   0  0  0  0  0  0  0  0  0  0  0  0
    5.9633  -13.1906   25.1711 C   0  0  2  0  0  0  0  0  0  0  0  0
    5.0725  -13.5602   26.2476 N   0  0  0  0  0  0  0  0  0  0  0  0
    6.6787  -14.3218   24.6069 C   0  0  0  0  0  0  0  0  0  0  0  0
    6.6872  -15.3920   25.3096 O   0  0  0  0  0  0  0  0  0  0  0  0
    7.3518  -14.3325   23.3713 N   0  0  0  0  0  0  0  0  0  0  0  0
    7.4017  -13.1643   22.4991 C   0  0  0  0  0  0  0  0  0  0  0  0
    7.2216  -13.8114   21.1413 C   0  0  0  0  0  0  0  0  0  0  0  0
    8.0909  -15.0379   21.2414 C   0  0  0  0  0  0  0  0  0  0  0  0
    8.0487  -15.3979   22.7450 C   0  0  1  0  0  0  0  0  0  0  0  0
    9.4324  -15.6495   23.1720 C   0  0  0  0  0  0  0  0  0  0  0  0
   10.0434  -14.8024   23.9235 O   0  0  0  0  0  0  0  0  0  0  0  0
   10.2290  -16.7811   22.8422 N   0  0  0  0  0  0  0  0  0  0  0  0
   11.3979  -17.1461   23.6358 C   0  0  1  0  0  0  0  0  0  0  0  0
   11.0776  -17.2757   25.0851 C   0  0  0  0  0  0  0  0  0  0  0  0
   10.3714  -18.5785   25.3399 C   0  0  0  0  0  0  0  0  0  0  0  0
   10.0893  -18.8102   26.8164 C   0  0  0  0  0  0  0  0  0  0  0  0
    9.4007  -20.1506   27.0195 C   0  0  0  0  0  0  0  0  0  0  0  0
   10.3771  -21.0806   27.5900 N   0  0  0  0  0  0  0  0  0  0  0  0
   12.2106  -18.2088   23.1073 C   0  0  0  0  0  0  0  0  0  0  0  0
   13.4963  -18.5632   23.4512 O   0  0  0  0  0  0  0  0  0  0  0  0
   11.6869  -18.9417   22.1864 O   0  0  0  0  0  0  0  0  0  0  0  0
  2  3  1  1
  2  1  1  0
  4  2  1  0
  4  5  1  1
  6  4  1  0
  7  6  2  0
  8  6  1  0
  9 10  1  0
  9  8  1  0
 10 11  1  0
 12 11  1  0
 12  8  1  0
 12 13  1  1
 14 13  2  0
 15 13  1  0
 16 17  1  1
 16 15  1  0
 18 17  1  0
 19 20  1  0
 19 18  1  0
 20 21  1  0
 22 23  1  0
 22 16  1  0
 24 22  2  0
M  END
$$$$
