VPK.pdb
     RDKit          3D

 24 24  0  0  1  0  0  0  0  0999 V2000
    8.1117  -19.2091   19.6242 C   0  0  0  0  0  0  0  0  0  0  0  0
    7.3872  -18.0417   18.9993 C   0  0  2  0  0  0  0  0  0  0  0  0
    6.6082  -18.5362   17.7926 C   0  0  0  0  0  0  0  0  0  0  0  0
    8.3019  -16.8875   18.6608 C   0  0  2  0  0  0  0  0  0  0  0  0
    9.1615  -17.3463   17.5933 N   0  0  0  0  0  0  0  0  0  0  0  0
    9.0340  -16.3346   19.7870 C   0  0  0  0  0  0  0  0  0  0  0  0
   10.2868  -16.5955   19.8290 O   0  0  0  0  0  0  0  0  0  0  0  0
    8.4836  -15.5499   20.8170 N   0  0  0  0  0  0  0  0  0  0  0  0
    7.0985  -15.0924   20.7950 C   0  0  0  0  0  0  0  0  0  0  0  0
    7.2541  -13.6800   21.3199 C   0  0  0  0  0  0  0  0  0  0  0  0
    8.2460  -13.8509   22.4409 C   0  0  0  0  0  0  0  0  0  0  0  0
    9.1081  -15.0534   21.9903 C   0  0  1  0  0  0  0  0  0  0  0  0
    9.2203  -15.9640   23.1384 C   0  0  0  0  0  0  0  0  0  0  0  0
    8.1912  -16.6166   23.5516 O   0  0  0  0  0  0  0  0  0  0  0  0
   10.3945  -16.2338   23.8949 N   0  0  0  0  0  0  0  0  0  0  0  0
   10.4134  -17.2629   24.9294 C   0  0  1  0  0  0  0  0  0  0  0  0
   10.6874  -18.6174   24.3726 C   0  0  0  0  0  0  0  0  0  0  0  0
   12.0253  -18.6291   23.6865 C   0  0  0  0  0  0  0  0  0  0  0  0
   12.4073  -20.0099   23.1760 C   0  0  0  0  0  0  0  0  0  0  0  0
   13.7086  -19.9430   22.3923 C   0  0  0  0  0  0  0  0  0  0  0  0
   14.0017  -21.2843   21.8840 N   0  0  0  0  0  0  0  0  0  0  0  0
   11.1568  -16.9456   26.1192 C   0  0  0  0  0  0  0  0  0  0  0  0
   11.9458  -15.8460   26.3749 O   0  0  0  0  0  0  0  0  0  0  0  0
   11.0917  -17.7889   27.0908 O   0  0  0  0  0  0  0  0  0  0  0  0
  2  3  1  6
  2  1  1  0
  4  2  1  0
  4  5  1  6
  6  4  1  0
  7  6  2  0
  8  6  1  0
  9 10  1  0
  9  8  1  0
 10 11  1  0
 12 11  1  0
 12  8  1  0
 12 13  1  1
 14 13  2  0
 15 13  1  0
 16 17  1  6
 16 15  1  0
 18 17  1  0
 19 20  1  0
 19 18  1  0
 20 21  1  0
 22 23  1  0
 22 16  1  0
 24 22  2  0
M  END
$$$$
