VPK.pdb
     RDKit          3D

 24 24  0  0  1  0  0  0  0  0999 V2000
    6.6071  -15.0235   20.1405 C   0  0  0  0  0  0  0  0  0  0  0  0
    7.2113  -15.0075   21.5236 C   0  0  2  0  0  0  0  0  0  0  0  0
    6.2400  -15.6614   22.4914 C   0  0  0  0  0  0  0  0  0  0  0  0
    7.6301  -13.6268   21.9727 C   0  0  2  0  0  0  0  0  0  0  0  0
    8.4300  -13.0740   20.9033 N   0  0  0  0  0  0  0  0  0  0  0  0
    8.2904  -13.5766   23.2655 C   0  0  0  0  0  0  0  0  0  0  0  0
    9.5472  -13.8211   23.2676 O   0  0  0  0  0  0  0  0  0  0  0  0
    7.6677  -13.2864   24.4934 N   0  0  0  0  0  0  0  0  0  0  0  0
    6.2487  -12.9626   24.5920 C   0  0  0  0  0  0  0  0  0  0  0  0
    6.2789  -11.8477   25.6171 C   0  0  0  0  0  0  0  0  0  0  0  0
    7.2742  -12.3546   26.6281 C   0  0  0  0  0  0  0  0  0  0  0  0
    8.2393  -13.2260   25.7906 C   0  0  1  0  0  0  0  0  0  0  0  0
    8.4215  -14.4928   26.5132 C   0  0  0  0  0  0  0  0  0  0  0  0
    7.7897  -15.5494   26.1392 O   0  0  0  0  0  0  0  0  0  0  0  0
    9.2610  -14.7127   27.6404 N   0  0  0  0  0  0  0  0  0  0  0  0
    9.8494  -16.0212   27.9072 C   0  0  1  0  0  0  0  0  0  0  0  0
   10.6649  -16.5168   26.7631 C   0  0  0  0  0  0  0  0  0  0  0  0
   11.1754  -17.9000   27.0581 C   0  0  0  0  0  0  0  0  0  0  0  0
   12.0762  -18.4369   25.9565 C   0  0  0  0  0  0  0  0  0  0  0  0
   12.5250  -19.8526   26.2829 C   0  0  0  0  0  0  0  0  0  0  0  0
   13.2124  -20.3928   25.1084 N   0  0  0  0  0  0  0  0  0  0  0  0
   10.4693  -16.1817   29.1952 C   0  0  0  0  0  0  0  0  0  0  0  0
   10.6091  -15.2563   30.2058 O   0  0  0  0  0  0  0  0  0  0  0  0
   10.9690  -17.3385   29.4628 O   0  0  0  0  0  0  0  0  0  0  0  0
  2  3  1  1
  2  1  1  0
  4  2  1  0
  4  5  1  6
  6  4  1  0
  7  6  2  0
  8  6  1  0
  9 10  1  0
  9  8  1  0
 10 11  1  0
 12 11  1  0
 12  8  1  0
 12 13  1  1
 14 13  2  0
 15 13  1  0
 16 17  1  6
 16 15  1  0
 18 17  1  0
 19 20  1  0
 19 18  1  0
 20 21  1  0
 22 23  1  0
 22 16  1  0
 24 22  2  0
M  END
$$$$
