RFI.pdb
     RDKit          3D

 31 31  0  0  1  0  0  0  0  0999 V2000
   27.7165  -27.1434  -16.7423 N   0  0  0  0  0  0  0  0  0  0  0  0
   27.0713  -26.9397  -17.9940 C   0  0  0  0  0  0  0  0  0  0  0  0
   27.0742  -27.8637  -18.9041 N   0  0  0  0  0  0  0  0  0  0  0  0
   26.4317  -25.6817  -18.1880 N   0  0  0  0  0  0  0  0  0  0  0  0
   25.9817  -24.9120  -17.0285 C   0  0  0  0  0  0  0  0  0  0  0  0
   24.5346  -25.1844  -16.7276 C   0  0  0  0  0  0  0  0  0  0  0  0
   23.9493  -24.2816  -15.7105 C   0  0  0  0  0  0  0  0  0  0  0  0
   24.8812  -23.8567  -14.6328 C   0  0  2  0  0  0  0  0  0  0  0  0
   24.9374  -24.6663  -13.4652 N   0  0  0  0  0  0  0  0  0  0  0  0
   24.6094  -22.4159  -14.3044 C   0  0  0  0  0  0  0  0  0  0  0  0
   23.5685  -22.1067  -13.6678 O   0  0  0  0  0  0  0  0  0  0  0  0
   26.7226  -27.6699  -19.8652 N   0  0  0  0  0  0  0  0  0  0  0  0
   25.4646  -21.3520  -14.6708 C   0  0  2  0  0  0  0  0  0  0  0  0
   25.2248  -19.9620  -14.2601 C   0  0  0  0  0  0  0  0  0  0  0  0
   26.4166  -19.3592  -13.6221 C   0  0  0  0  0  0  0  0  0  0  0  0
   26.9194  -19.9966  -12.4089 C   0  0  0  0  0  0  0  0  0  0  0  0
   28.0807  -20.7559  -12.4008 C   0  0  0  0  0  0  0  0  0  0  0  0
   28.5187  -21.3568  -11.2381 C   0  0  0  0  0  0  0  0  0  0  0  0
   27.8199  -21.2220  -10.0564 C   0  0  0  0  0  0  0  0  0  0  0  0
   26.6626  -20.4720  -10.0401 C   0  0  0  0  0  0  0  0  0  0  0  0
   26.2423  -19.8782  -11.2188 C   0  0  0  0  0  0  0  0  0  0  0  0
   24.5999  -19.2112  -15.3611 O   0  0  0  0  0  0  0  0  0  0  0  0
   25.1668  -19.2367  -16.5081 C   0  0  0  0  0  0  0  0  0  0  0  0
   19.2588  -19.2610  -16.4912 C   0  0  0  0  0  0  0  0  0  0  0  0
   20.7669  -19.2563  -16.5541 C   0  0  2  0  0  0  0  0  0  0  0  0
   21.2894  -17.8599  -16.3522 C   0  0  0  0  0  0  0  0  0  0  0  0
   20.7146  -16.9985  -17.4677 C   0  0  2  0  0  0  0  0  0  0  0  0
   22.8051  -17.8059  -16.4308 N   0  0  0  0  0  0  0  0  0  0  0  0
   23.4092  -18.4506  -15.2892 C   0  0  0  0  0  0  0  0  0  0  0  0
   23.3055  -16.4735  -16.7561 O   0  0  0  0  0  0  0  0  0  0  0  0
   23.4087  -16.1161  -17.9489 O   0  0  0  0  0  0  0  0  0  0  0  0
  1  2  1  0
  2  3  2  0
  4  2  1  0
  4  5  1  0
  6  5  1  0
  7  6  1  0
  8  9  1  1
  8  7  1  0
 10 11  2  0
 10  8  1  0
 12 10  1  0
 13 21  1  0
 13 12  1  0
 13 14  1  1
 15 14  1  0
 16 15  2  0
 17 16  1  0
 18 19  1  0
 18 17  2  0
 19 20  2  0
 20 15  1  0
 21 28  1  0
 22 21  2  0
 23 24  1  0
 24 25  1  0
 25 26  1  1
 25 27  1  0
 27 29  1  0
 27 28  1  6
 29 30  2  0
 29 31  1  0
M  END
$$$$
