RFI.pdb
     RDKit          3D

 31 31  0  0  1  0  0  0  0  0999 V2000
   20.7610  -20.6640  -15.0944 N   0  0  0  0  0  0  0  0  0  0  0  0
   21.9151  -20.5424  -15.9177 C   0  0  0  0  0  0  0  0  0  0  0  0
   21.8426  -19.9956  -17.0916 N   0  0  0  0  0  0  0  0  0  0  0  0
   23.1367  -21.0484  -15.3875 N   0  0  0  0  0  0  0  0  0  0  0  0
   23.1578  -21.6287  -14.0451 C   0  0  0  0  0  0  0  0  0  0  0  0
   23.0214  -20.5636  -12.9936 C   0  0  0  0  0  0  0  0  0  0  0  0
   23.7902  -20.8337  -11.7575 C   0  0  0  0  0  0  0  0  0  0  0  0
   25.2646  -20.6929  -11.8880 C   0  0  2  0  0  0  0  0  0  0  0  0
   25.8980  -21.4249  -12.9295 N   0  0  0  0  0  0  0  0  0  0  0  0
   25.8923  -20.9631  -10.5498 C   0  0  0  0  0  0  0  0  0  0  0  0
   25.7650  -22.0971  -10.0185 O   0  0  0  0  0  0  0  0  0  0  0  0
   22.6744  -19.9579  -17.7172 N   0  0  0  0  0  0  0  0  0  0  0  0
   26.6369  -20.0060   -9.8240 C   0  0  1  0  0  0  0  0  0  0  0  0
   27.2479  -20.2966   -8.5199 C   0  0  0  0  0  0  0  0  0  0  0  0
   28.4927  -19.5247   -8.3068 C   0  0  0  0  0  0  0  0  0  0  0  0
   29.0571  -19.5252   -6.9606 C   0  0  0  0  0  0  0  0  0  0  0  0
   29.8766  -20.5475   -6.5040 C   0  0  0  0  0  0  0  0  0  0  0  0
   30.3807  -20.5228   -5.2195 C   0  0  0  0  0  0  0  0  0  0  0  0
   30.0871  -19.4880   -4.3559 C   0  0  0  0  0  0  0  0  0  0  0  0
   29.2745  -18.4606   -4.7875 C   0  0  0  0  0  0  0  0  0  0  0  0
   28.7802  -18.5065   -6.0806 C   0  0  0  0  0  0  0  0  0  0  0  0
   26.2287  -20.2341   -7.4600 O   0  0  0  0  0  0  0  0  0  0  0  0
   25.3993  -19.2596   -7.4757 C   0  0  0  0  0  0  0  0  0  0  0  0
   21.7395  -22.7659   -4.7056 C   0  0  0  0  0  0  0  0  0  0  0  0
   22.8748  -21.7988   -4.4725 C   0  0  2  0  0  0  0  0  0  0  0  0
   23.9594  -22.0178   -5.4920 C   0  0  0  0  0  0  0  0  0  0  0  0
   24.5332  -23.4062   -5.2476 C   0  0  2  0  0  0  0  0  0  0  0  0
   25.0786  -21.0003   -5.3550 N   0  0  0  0  0  0  0  0  0  0  0  0
   26.0582  -21.1593   -6.4033 C   0  0  0  0  0  0  0  0  0  0  0  0
   25.6009  -20.9167   -3.9943 O   0  0  0  0  0  0  0  0  0  0  0  0
   26.5741  -21.6215   -3.6515 O   0  0  0  0  0  0  0  0  0  0  0  0
  1  2  1  0
  2  3  2  0
  4  2  1  0
  4  5  1  0
  6  5  1  0
  7  6  1  0
  8  9  1  6
  8  7  1  0
 10 11  2  0
 10  8  1  0
 12 10  1  0
 13 21  1  0
 13 12  1  0
 13 14  1  6
 15 14  1  0
 16 15  2  0
 17 16  1  0
 18 19  1  0
 18 17  2  0
 19 20  2  0
 20 15  1  0
 21 28  1  0
 22 21  2  0
 23 24  1  0
 24 25  1  0
 25 26  1  6
 25 27  1  0
 27 29  1  0
 27 28  1  1
 29 30  2  0
 29 31  1  0
M  END
$$$$
