RFI.pdb
     RDKit          3D

 31 31  0  0  1  0  0  0  0  0999 V2000
   30.8792  -21.5801  -19.3759 N   0  0  0  0  0  0  0  0  0  0  0  0
   30.1057  -21.7225  -20.5616 C   0  0  0  0  0  0  0  0  0  0  0  0
   30.5679  -21.3357  -21.7100 N   0  0  0  0  0  0  0  0  0  0  0  0
   28.8137  -22.3051  -20.4177 N   0  0  0  0  0  0  0  0  0  0  0  0
   28.3756  -22.7792  -19.1052 C   0  0  0  0  0  0  0  0  0  0  0  0
   27.6523  -21.6973  -18.3535 C   0  0  0  0  0  0  0  0  0  0  0  0
   27.0037  -22.1595  -17.1055 C   0  0  0  0  0  0  0  0  0  0  0  0
   27.9025  -22.2542  -15.9249 C   0  0  2  0  0  0  0  0  0  0  0  0
   28.7956  -23.3595  -15.8746 N   0  0  0  0  0  0  0  0  0  0  0  0
   27.0699  -22.1480  -14.6787 C   0  0  0  0  0  0  0  0  0  0  0  0
   26.3604  -23.1230  -14.3174 O   0  0  0  0  0  0  0  0  0  0  0  0
   30.0373  -21.5139  -22.5884 N   0  0  0  0  0  0  0  0  0  0  0  0
   27.0252  -20.9972  -13.8597 C   0  0  1  0  0  0  0  0  0  0  0  0
   26.2083  -20.9201  -12.6410 C   0  0  0  0  0  0  0  0  0  0  0  0
   26.8957  -20.1800  -11.5590 C   0  0  0  0  0  0  0  0  0  0  0  0
   28.0417  -20.8287  -10.9292 C   0  0  0  0  0  0  0  0  0  0  0  0
   29.2177  -21.0833  -11.6201 C   0  0  0  0  0  0  0  0  0  0  0  0
   30.2762  -21.7123  -10.9966 C   0  0  0  0  0  0  0  0  0  0  0  0
   30.1979  -22.1048   -9.6766 C   0  0  0  0  0  0  0  0  0  0  0  0
   29.0388  -21.8624   -8.9695 C   0  0  0  0  0  0  0  0  0  0  0  0
   27.9897  -21.2297   -9.6156 C   0  0  0  0  0  0  0  0  0  0  0  0
   24.8385  -20.4999  -12.9774 O   0  0  0  0  0  0  0  0  0  0  0  0
   24.6646  -19.3187  -13.4381 C   0  0  0  0  0  0  0  0  0  0  0  0
   22.4193  -23.4946  -14.0366 C   0  0  0  0  0  0  0  0  0  0  0  0
   21.3679  -22.5499  -14.5662 C   0  0  1  0  0  0  0  0  0  0  0  0
   21.8619  -21.1306  -14.4916 C   0  0  0  0  0  0  0  0  0  0  0  0
   23.0377  -21.0123  -15.4508 C   0  0  1  0  0  0  0  0  0  0  0  0
   22.3377  -20.7697  -13.0953 N   0  0  0  0  0  0  0  0  0  0  0  0
   23.6654  -21.2802  -12.8493 C   0  0  0  0  0  0  0  0  0  0  0  0
   21.3393  -21.0537  -12.0686 O   0  0  0  0  0  0  0  0  0  0  0  0
   20.2175  -20.5054  -12.1158 O   0  0  0  0  0  0  0  0  0  0  0  0
  1  2  1  0
  2  3  2  0
  4  2  1  0
  4  5  1  0
  6  5  1  0
  7  6  1  0
  8  9  1  1
  8  7  1  0
 10 11  2  0
 10  8  1  0
 12 10  1  0
 13 21  1  0
 13 12  1  0
 13 14  1  6
 15 14  1  0
 16 15  2  0
 17 16  1  0
 18 19  1  0
 18 17  2  0
 19 20  2  0
 20 15  1  0
 21 28  1  0
 22 21  2  0
 23 24  1  0
 24 25  1  0
 25 26  1  6
 25 27  1  0
 27 29  1  0
 27 28  1  6
 29 30  2  0
 29 31  1  0
M  END
$$$$
