RFI.pdb
     RDKit          3D

 31 31  0  0  1  0  0  0  0  0999 V2000
   25.8935  -23.9478  -18.1795 N   0  0  0  0  0  0  0  0  0  0  0  0
   24.8055  -24.6863  -17.6361 C   0  0  0  0  0  0  0  0  0  0  0  0
   23.9302  -25.2508  -18.4091 N   0  0  0  0  0  0  0  0  0  0  0  0
   24.7329  -24.7689  -16.2158 N   0  0  0  0  0  0  0  0  0  0  0  0
   25.7936  -24.1768  -15.4012 C   0  0  0  0  0  0  0  0  0  0  0  0
   25.4926  -24.3190  -13.9356 C   0  0  0  0  0  0  0  0  0  0  0  0
   24.7606  -23.1703  -13.3555 C   0  0  0  0  0  0  0  0  0  0  0  0
   25.4295  -21.8517  -13.5117 C   0  0  2  0  0  0  0  0  0  0  0  0
   26.3813  -21.4841  -12.5214 N   0  0  0  0  0  0  0  0  0  0  0  0
   24.3745  -20.7976  -13.6953 C   0  0  0  0  0  0  0  0  0  0  0  0
   24.0447  -20.0692  -12.7233 O   0  0  0  0  0  0  0  0  0  0  0  0
   23.1450  -25.8079  -18.0118 N   0  0  0  0  0  0  0  0  0  0  0  0
   23.7066  -20.5595  -14.9178 C   0  0  2  0  0  0  0  0  0  0  0  0
   22.7724  -19.4418  -15.1085 C   0  0  0  0  0  0  0  0  0  0  0  0
   22.7918  -18.9344  -16.4988 C   0  0  0  0  0  0  0  0  0  0  0  0
   21.8085  -17.9150  -16.8519 C   0  0  0  0  0  0  0  0  0  0  0  0
   22.0188  -16.5671  -16.5984 C   0  0  0  0  0  0  0  0  0  0  0  0
   21.0603  -15.6320  -16.9323 C   0  0  0  0  0  0  0  0  0  0  0  0
   19.8718  -16.0060  -17.5241 C   0  0  0  0  0  0  0  0  0  0  0  0
   19.6404  -17.3403  -17.7858 C   0  0  0  0  0  0  0  0  0  0  0  0
   20.6165  -18.2609  -17.4422 C   0  0  0  0  0  0  0  0  0  0  0  0
   21.4596  -19.7777  -14.5340 O   0  0  0  0  0  0  0  0  0  0  0  0
   20.9690  -20.9332  -14.7824 C   0  0  0  0  0  0  0  0  0  0  0  0
   21.0794  -18.8053   -9.9204 C   0  0  0  0  0  0  0  0  0  0  0  0
   20.4130  -19.7539  -10.8871 C   0  0  2  0  0  0  0  0  0  0  0  0
   19.3404  -19.0363  -11.6606 C   0  0  0  0  0  0  0  0  0  0  0  0
   17.9999  -19.5112  -11.1181 C   0  0  2  0  0  0  0  0  0  0  0  0
   19.4028  -19.3555  -13.1441 N   0  0  0  0  0  0  0  0  0  0  0  0
   20.6644  -18.9443  -13.7126 C   0  0  0  0  0  0  0  0  0  0  0  0
   18.2050  -18.9312  -13.8629 O   0  0  0  0  0  0  0  0  0  0  0  0
   18.1156  -17.7636  -14.2989 O   0  0  0  0  0  0  0  0  0  0  0  0
  1  2  1  0
  2  3  2  0
  4  2  1  0
  4  5  1  0
  6  5  1  0
  7  6  1  0
  8  9  1  1
  8  7  1  0
 10 11  2  0
 10  8  1  0
 12 10  1  0
 13 21  1  0
 13 12  1  0
 13 14  1  6
 15 14  1  0
 16 15  2  0
 17 16  1  0
 18 19  1  0
 18 17  2  0
 19 20  2  0
 20 15  1  0
 21 28  1  0
 22 21  2  0
 23 24  1  0
 24 25  1  0
 25 26  1  6
 25 27  1  0
 27 29  1  0
 27 28  1  6
 29 30  2  0
 29 31  1  0
M  END
$$$$
