RFI.pdb
     RDKit          3D

 31 31  0  0  1  0  0  0  0  0999 V2000
   27.8741  -16.2102  -17.2735 N   0  0  0  0  0  0  0  0  0  0  0  0
   26.7123  -16.2576  -16.4534 C   0  0  0  0  0  0  0  0  0  0  0  0
   25.5256  -16.2131  -16.9747 N   0  0  0  0  0  0  0  0  0  0  0  0
   26.9236  -16.3551  -15.0480 N   0  0  0  0  0  0  0  0  0  0  0  0
   27.5742  -17.5424  -14.4944 C   0  0  0  0  0  0  0  0  0  0  0  0
   26.7475  -18.7740  -14.7364 C   0  0  0  0  0  0  0  0  0  0  0  0
   26.5301  -19.6019  -13.5284 C   0  0  0  0  0  0  0  0  0  0  0  0
   27.7609  -20.1880  -12.9351 C   0  0  2  0  0  0  0  0  0  0  0  0
   28.4071  -21.2216  -13.6671 N   0  0  0  0  0  0  0  0  0  0  0  0
   27.4613  -20.6034  -11.5225 C   0  0  0  0  0  0  0  0  0  0  0  0
   26.7924  -21.6478  -11.3079 O   0  0  0  0  0  0  0  0  0  0  0  0
   24.6752  -16.2603  -16.3752 N   0  0  0  0  0  0  0  0  0  0  0  0
   27.8895  -19.8831  -10.3845 C   0  0  2  0  0  0  0  0  0  0  0  0
   27.5155  -20.2640   -9.0157 C   0  0  0  0  0  0  0  0  0  0  0  0
   28.3881  -19.6254   -8.0049 C   0  0  0  0  0  0  0  0  0  0  0  0
   28.0553  -19.8447   -6.6006 C   0  0  0  0  0  0  0  0  0  0  0  0
   27.3316  -18.9208   -5.8603 C   0  0  0  0  0  0  0  0  0  0  0  0
   27.0479  -19.1545   -4.5300 C   0  0  0  0  0  0  0  0  0  0  0  0
   27.4723  -20.3057   -3.8998 C   0  0  0  0  0  0  0  0  0  0  0  0
   28.1933  -21.2386   -4.6154 C   0  0  0  0  0  0  0  0  0  0  0  0
   28.4661  -20.9829   -5.9490 C   0  0  0  0  0  0  0  0  0  0  0  0
   26.0618  -20.1250   -8.8325 O   0  0  0  0  0  0  0  0  0  0  0  0
   25.5424  -18.9646   -8.9788 C   0  0  0  0  0  0  0  0  0  0  0  0
   22.6094  -20.7281  -11.9960 C   0  0  0  0  0  0  0  0  0  0  0  0
   23.3371  -20.3352  -10.7333 C   0  0  2  0  0  0  0  0  0  0  0  0
   22.9758  -21.2733   -9.6139 C   0  0  0  0  0  0  0  0  0  0  0  0
   21.4868  -21.1042   -9.3477 C   0  0  2  0  0  0  0  0  0  0  0  0
   23.7353  -20.9518   -8.3386 N   0  0  0  0  0  0  0  0  0  0  0  0
   25.1533  -21.1604   -8.5102 C   0  0  0  0  0  0  0  0  0  0  0  0
   23.1342  -21.5612   -7.1558 O   0  0  0  0  0  0  0  0  0  0  0  0
   23.7258  -22.4844   -6.5566 O   0  0  0  0  0  0  0  0  0  0  0  0
  1  2  1  0
  2  3  2  0
  4  2  1  0
  4  5  1  0
  6  5  1  0
  7  6  1  0
  8  9  1  6
  8  7  1  0
 10 11  2  0
 10  8  1  0
 12 10  1  0
 13 21  1  0
 13 12  1  0
 13 14  1  1
 15 14  1  0
 16 15  2  0
 17 16  1  0
 18 19  1  0
 18 17  2  0
 19 20  2  0
 20 15  1  0
 21 28  1  0
 22 21  2  0
 23 24  1  0
 24 25  1  0
 25 26  1  1
 25 27  1  0
 27 29  1  0
 27 28  1  1
 29 30  2  0
 29 31  1  0
M  END
$$$$
