RFI.pdb
     RDKit          3D

 31 31  0  0  1  0  0  0  0  0999 V2000
   26.4078  -15.9339  -15.4546 N   0  0  0  0  0  0  0  0  0  0  0  0
   26.9678  -16.4527  -16.6554 C   0  0  0  0  0  0  0  0  0  0  0  0
   26.5360  -16.0641  -17.8150 N   0  0  0  0  0  0  0  0  0  0  0  0
   28.0138  -17.4092  -16.5136 N   0  0  0  0  0  0  0  0  0  0  0  0
   28.3167  -17.9604  -15.1931 C   0  0  0  0  0  0  0  0  0  0  0  0
   27.1103  -18.6303  -14.5974 C   0  0  0  0  0  0  0  0  0  0  0  0
   27.3097  -19.1111  -13.2115 C   0  0  0  0  0  0  0  0  0  0  0  0
   27.9955  -20.4248  -13.0917 C   0  0  2  0  0  0  0  0  0  0  0  0
   27.7265  -21.3928  -14.0979 N   0  0  0  0  0  0  0  0  0  0  0  0
   27.7542  -20.9676  -11.7116 C   0  0  0  0  0  0  0  0  0  0  0  0
   26.8524  -21.8262  -11.5276 O   0  0  0  0  0  0  0  0  0  0  0  0
   26.9703  -16.4163  -18.6937 N   0  0  0  0  0  0  0  0  0  0  0  0
   28.4895  -20.5705  -10.5718 C   0  0  2  0  0  0  0  0  0  0  0  0
   27.9687  -20.7022   -9.2044 C   0  0  0  0  0  0  0  0  0  0  0  0
   28.9299  -20.2041   -8.1950 C   0  0  0  0  0  0  0  0  0  0  0  0
   28.4801  -20.1632   -6.8069 C   0  0  0  0  0  0  0  0  0  0  0  0
   27.9201  -19.0246   -6.2455 C   0  0  0  0  0  0  0  0  0  0  0  0
   27.5194  -19.0172   -4.9248 C   0  0  0  0  0  0  0  0  0  0  0  0
   27.6626  -20.1339   -4.1278 C   0  0  0  0  0  0  0  0  0  0  0  0
   28.2167  -21.2775   -4.6640 C   0  0  0  0  0  0  0  0  0  0  0  0
   28.6113  -21.2618   -5.9916 C   0  0  0  0  0  0  0  0  0  0  0  0
   26.5932  -20.1831   -9.1361 O   0  0  0  0  0  0  0  0  0  0  0  0
   26.3816  -18.9800   -9.5175 C   0  0  0  0  0  0  0  0  0  0  0  0
   22.0229  -19.5864  -11.9605 C   0  0  0  0  0  0  0  0  0  0  0  0
   22.3300  -19.7513  -10.4918 C   0  0  2  0  0  0  0  0  0  0  0  0
   23.7257  -20.2833  -10.3110 C   0  0  0  0  0  0  0  0  0  0  0  0
   23.7622  -21.6722  -10.9325 C   0  0  2  0  0  0  0  0  0  0  0  0
   24.1015  -20.3992   -8.8441 N   0  0  0  0  0  0  0  0  0  0  0  0
   25.4509  -20.8880   -8.6892 C   0  0  0  0  0  0  0  0  0  0  0  0
   23.0781  -21.0746   -8.0517 O   0  0  0  0  0  0  0  0  0  0  0  0
   21.8824  -20.7228   -8.1404 O   0  0  0  0  0  0  0  0  0  0  0  0
  1  2  1  0
  2  3  2  0
  4  2  1  0
  4  5  1  0
  6  5  1  0
  7  6  1  0
  8  9  1  6
  8  7  1  0
 10 11  2  0
 10  8  1  0
 12 10  1  0
 13 21  1  0
 13 12  1  0
 13 14  1  1
 15 14  1  0
 16 15  2  0
 17 16  1  0
 18 19  1  0
 18 17  2  0
 19 20  2  0
 20 15  1  0
 21 28  1  0
 22 21  2  0
 23 24  1  0
 24 25  1  0
 25 26  1  6
 25 27  1  0
 27 29  1  0
 27 28  1  1
 29 30  2  0
 29 31  1  0
M  END
$$$$
