RFI.pdb
     RDKit          3D

 31 31  0  0  1  0  0  0  0  0999 V2000
   23.9444  -20.4948  -15.6029 N   0  0  0  0  0  0  0  0  0  0  0  0
   22.6852  -21.1305  -15.4156 C   0  0  0  0  0  0  0  0  0  0  0  0
   22.2711  -22.0452  -16.2365 N   0  0  0  0  0  0  0  0  0  0  0  0
   21.9165  -20.7111  -14.2920 N   0  0  0  0  0  0  0  0  0  0  0  0
   22.5073  -19.8037  -13.3087 C   0  0  0  0  0  0  0  0  0  0  0  0
   23.1973  -20.5681  -12.2140 C   0  0  0  0  0  0  0  0  0  0  0  0
   24.4081  -19.9017  -11.6831 C   0  0  0  0  0  0  0  0  0  0  0  0
   25.6711  -20.6705  -11.8385 C   0  0  2  0  0  0  0  0  0  0  0  0
   25.6203  -21.8515  -12.6288 N   0  0  0  0  0  0  0  0  0  0  0  0
   26.2441  -20.9320  -10.4744 C   0  0  0  0  0  0  0  0  0  0  0  0
   25.8871  -21.9546   -9.8332 O   0  0  0  0  0  0  0  0  0  0  0  0
   21.2987  -22.4143  -16.1810 N   0  0  0  0  0  0  0  0  0  0  0  0
   27.1829  -20.0861   -9.8415 C   0  0  1  0  0  0  0  0  0  0  0  0
   27.7061  -20.3471   -8.4937 C   0  0  0  0  0  0  0  0  0  0  0  0
   28.9958  -19.6603   -8.2573 C   0  0  0  0  0  0  0  0  0  0  0  0
   29.4715  -19.5878   -6.8792 C   0  0  0  0  0  0  0  0  0  0  0  0
   29.1908  -18.5058   -6.0572 C   0  0  0  0  0  0  0  0  0  0  0  0
   29.6698  -18.4639   -4.7635 C   0  0  0  0  0  0  0  0  0  0  0  0
   30.4371  -19.4895   -4.2515 C   0  0  0  0  0  0  0  0  0  0  0  0
   30.7291  -20.5755   -5.0500 C   0  0  0  0  0  0  0  0  0  0  0  0
   30.2377  -20.5959   -6.3448 C   0  0  0  0  0  0  0  0  0  0  0  0
   26.6452  -20.1476   -7.4932 O   0  0  0  0  0  0  0  0  0  0  0  0
   25.8481  -19.1582   -7.6466 C   0  0  0  0  0  0  0  0  0  0  0  0
   21.8806  -22.0753   -4.7915 C   0  0  0  0  0  0  0  0  0  0  0  0
   23.0734  -21.1745   -4.5815 C   0  0  2  0  0  0  0  0  0  0  0  0
   24.1757  -21.5433   -5.5370 C   0  0  0  0  0  0  0  0  0  0  0  0
   24.5779  -22.9783   -5.2279 C   0  0  2  0  0  0  0  0  0  0  0  0
   25.3935  -20.6518   -5.3673 N   0  0  0  0  0  0  0  0  0  0  0  0
   26.4012  -20.9530   -6.3560 C   0  0  0  0  0  0  0  0  0  0  0  0
   25.8518  -20.5811   -3.9830 O   0  0  0  0  0  0  0  0  0  0  0  0
   26.9461  -21.0892   -3.6578 O   0  0  0  0  0  0  0  0  0  0  0  0
  1  2  1  0
  2  3  2  0
  4  2  1  0
  4  5  1  0
  6  5  1  0
  7  6  1  0
  8  9  1  1
  8  7  1  0
 10 11  2  0
 10  8  1  0
 12 10  1  0
 13 21  1  0
 13 12  1  0
 13 14  1  1
 15 14  1  0
 16 15  2  0
 17 16  1  0
 18 19  1  0
 18 17  2  0
 19 20  2  0
 20 15  1  0
 21 28  1  0
 22 21  2  0
 23 24  1  0
 24 25  1  0
 25 26  1  6
 25 27  1  0
 27 29  1  0
 27 28  1  1
 29 30  2  0
 29 31  1  0
M  END
$$$$
