RFI.pdb
     RDKit          3D

 31 31  0  0  1  0  0  0  0  0999 V2000
   24.2631  -20.0925  -16.7487 N   0  0  0  0  0  0  0  0  0  0  0  0
   23.5494  -18.9461  -16.3004 C   0  0  0  0  0  0  0  0  0  0  0  0
   22.5712  -18.4550  -16.9963 N   0  0  0  0  0  0  0  0  0  0  0  0
   23.9643  -18.3765  -15.0624 N   0  0  0  0  0  0  0  0  0  0  0  0
   24.7985  -19.1578  -14.1497 C   0  0  0  0  0  0  0  0  0  0  0  0
   24.0196  -20.2896  -13.5404 C   0  0  0  0  0  0  0  0  0  0  0  0
   24.4738  -20.6739  -12.1848 C   0  0  0  0  0  0  0  0  0  0  0  0
   25.9340  -20.9221  -12.0552 C   0  0  2  0  0  0  0  0  0  0  0  0
   26.4951  -21.9425  -12.8712 N   0  0  0  0  0  0  0  0  0  0  0  0
   26.2591  -21.1231  -10.6020 C   0  0  0  0  0  0  0  0  0  0  0  0
   25.7243  -22.0700   -9.9683 O   0  0  0  0  0  0  0  0  0  0  0  0
   22.0348  -17.6290  -16.6576 N   0  0  0  0  0  0  0  0  0  0  0  0
   27.1485  -20.2998   -9.8751 C   0  0  2  0  0  0  0  0  0  0  0  0
   27.4229  -20.4947   -8.4450 C   0  0  0  0  0  0  0  0  0  0  0  0
   28.6098  -19.7307   -7.9994 C   0  0  0  0  0  0  0  0  0  0  0  0
   28.8671  -19.6733   -6.5636 C   0  0  0  0  0  0  0  0  0  0  0  0
   28.4691  -18.5962   -5.7848 C   0  0  0  0  0  0  0  0  0  0  0  0
   28.7425  -18.5687   -4.4323 C   0  0  0  0  0  0  0  0  0  0  0  0
   29.4155  -19.6040   -3.8175 C   0  0  0  0  0  0  0  0  0  0  0  0
   29.8211  -20.6853   -4.5715 C   0  0  0  0  0  0  0  0  0  0  0  0
   29.5356  -20.6913   -5.9268 C   0  0  0  0  0  0  0  0  0  0  0  0
   26.1851  -20.3278   -7.6663 O   0  0  0  0  0  0  0  0  0  0  0  0
   25.4069  -19.3580   -7.9688 C   0  0  0  0  0  0  0  0  0  0  0  0
   21.0035  -22.3300   -6.1227 C   0  0  0  0  0  0  0  0  0  0  0  0
   22.1380  -21.5185   -5.5457 C   0  0  2  0  0  0  0  0  0  0  0  0
   23.4019  -21.7698   -6.3224 C   0  0  0  0  0  0  0  0  0  0  0  0
   23.7821  -23.2273   -6.1042 C   0  0  2  0  0  0  0  0  0  0  0  0
   24.5454  -20.8938   -5.8411 N   0  0  0  0  0  0  0  0  0  0  0  0
   25.7486  -21.1459   -6.5978 C   0  0  0  0  0  0  0  0  0  0  0  0
   24.6867  -20.8993   -4.3880 O   0  0  0  0  0  0  0  0  0  0  0  0
   23.7843  -20.4208   -3.6682 O   0  0  0  0  0  0  0  0  0  0  0  0
  1  2  1  0
  2  3  2  0
  4  2  1  0
  4  5  1  0
  6  5  1  0
  7  6  1  0
  8  9  1  6
  8  7  1  0
 10 11  2  0
 10  8  1  0
 12 10  1  0
 13 21  1  0
 13 12  1  0
 13 14  1  6
 15 14  1  0
 16 15  2  0
 17 16  1  0
 18 19  1  0
 18 17  2  0
 19 20  2  0
 20 15  1  0
 21 28  1  0
 22 21  2  0
 23 24  1  0
 24 25  1  0
 25 26  1  6
 25 27  1  0
 27 29  1  0
 27 28  1  1
 29 30  2  0
 29 31  1  0
M  END
$$$$
