RFI.pdb
     RDKit          3D

 31 31  0  0  1  0  0  0  0  0999 V2000
   24.4861  -17.4165  -17.4537 N   0  0  0  0  0  0  0  0  0  0  0  0
   25.6801  -17.1684  -18.1869 C   0  0  0  0  0  0  0  0  0  0  0  0
   25.9664  -15.9771  -18.6122 N   0  0  0  0  0  0  0  0  0  0  0  0
   26.5304  -18.2865  -18.4240 N   0  0  0  0  0  0  0  0  0  0  0  0
   27.5537  -18.6392  -17.4404 C   0  0  0  0  0  0  0  0  0  0  0  0
   27.6257  -20.1277  -17.2453 C   0  0  0  0  0  0  0  0  0  0  0  0
   27.2692  -20.5754  -15.8799 C   0  0  0  0  0  0  0  0  0  0  0  0
   28.3079  -21.3851  -15.1899 C   0  0  2  0  0  0  0  0  0  0  0  0
   28.6547  -22.6335  -15.7757 N   0  0  0  0  0  0  0  0  0  0  0  0
   27.9210  -21.5309  -13.7454 C   0  0  0  0  0  0  0  0  0  0  0  0
   27.0310  -22.3587  -13.4184 O   0  0  0  0  0  0  0  0  0  0  0  0
   26.8400  -15.7958  -19.1496 N   0  0  0  0  0  0  0  0  0  0  0  0
   28.5024  -20.7822  -12.6972 C   0  0  2  0  0  0  0  0  0  0  0  0
   27.9983  -20.8217  -11.3178 C   0  0  0  0  0  0  0  0  0  0  0  0
   28.9604  -20.2332  -10.3592 C   0  0  0  0  0  0  0  0  0  0  0  0
   28.5111  -20.0634   -8.9807 C   0  0  0  0  0  0  0  0  0  0  0  0
   27.7572  -18.9698   -8.5793 C   0  0  0  0  0  0  0  0  0  0  0  0
   27.3623  -18.8340   -7.2639 C   0  0  0  0  0  0  0  0  0  0  0  0
   27.7027  -19.7747   -6.3143 C   0  0  0  0  0  0  0  0  0  0  0  0
   28.4517  -20.8703   -6.6898 C   0  0  0  0  0  0  0  0  0  0  0  0
   28.8366  -20.9857   -8.0153 C   0  0  0  0  0  0  0  0  0  0  0  0
   26.6141  -20.3235  -11.2719 O   0  0  0  0  0  0  0  0  0  0  0  0
   26.3596  -19.1947  -11.8185 C   0  0  0  0  0  0  0  0  0  0  0  0
   21.6019  -20.1919  -13.5535 C   0  0  0  0  0  0  0  0  0  0  0  0
   22.1568  -20.0423  -12.1578 C   0  0  2  0  0  0  0  0  0  0  0  0
   23.5221  -20.6690  -12.0732 C   0  0  0  0  0  0  0  0  0  0  0  0
   23.3449  -22.1650  -12.2911 C   0  0  2  0  0  0  0  0  0  0  0  0
   24.1621  -20.4501  -10.7135 N   0  0  0  0  0  0  0  0  0  0  0  0
   25.5064  -20.9748  -10.6800 C   0  0  0  0  0  0  0  0  0  0  0  0
   23.2906  -20.8439   -9.6104 O   0  0  0  0  0  0  0  0  0  0  0  0
   22.1387  -20.3680   -9.5202 O   0  0  0  0  0  0  0  0  0  0  0  0
  1  2  1  0
  2  3  2  0
  4  2  1  0
  4  5  1  0
  6  5  1  0
  7  6  1  0
  8  9  1  6
  8  7  1  0
 10 11  2  0
 10  8  1  0
 12 10  1  0
 13 21  1  0
 13 12  1  0
 13 14  1  6
 15 14  1  0
 16 15  2  0
 17 16  1  0
 18 19  1  0
 18 17  2  0
 19 20  2  0
 20 15  1  0
 21 28  1  0
 22 21  2  0
 23 24  1  0
 24 25  1  0
 25 26  1  6
 25 27  1  0
 27 29  1  0
 27 28  1  1
 29 30  2  0
 29 31  1  0
M  END
$$$$
