RFI.pdb
     RDKit          3D

 31 31  0  0  1  0  0  0  0  0999 V2000
   23.5384  -21.1930  -16.6288 N   0  0  0  0  0  0  0  0  0  0  0  0
   22.8185  -19.9711  -16.5131 C   0  0  0  0  0  0  0  0  0  0  0  0
   21.8776  -19.6691  -17.3531 N   0  0  0  0  0  0  0  0  0  0  0  0
   23.1846  -19.1110  -15.4382 N   0  0  0  0  0  0  0  0  0  0  0  0
   24.3623  -19.4243  -14.6293 C   0  0  0  0  0  0  0  0  0  0  0  0
   24.0279  -20.4134  -13.5483 C   0  0  0  0  0  0  0  0  0  0  0  0
   24.6871  -20.1364  -12.2519 C   0  0  0  0  0  0  0  0  0  0  0  0
   26.0751  -20.6544  -12.1262 C   0  0  2  0  0  0  0  0  0  0  0  0
   26.4329  -21.7605  -12.9449 N   0  0  0  0  0  0  0  0  0  0  0  0
   26.3599  -20.9153  -10.6741 C   0  0  0  0  0  0  0  0  0  0  0  0
   25.8686  -21.9300  -10.1145 O   0  0  0  0  0  0  0  0  0  0  0  0
   21.3747  -18.7592  -17.2897 N   0  0  0  0  0  0  0  0  0  0  0  0
   27.1635  -20.0772   -9.8685 C   0  0  2  0  0  0  0  0  0  0  0  0
   27.4115  -20.3430   -8.4451 C   0  0  0  0  0  0  0  0  0  0  0  0
   28.5713  -19.5794   -7.9326 C   0  0  0  0  0  0  0  0  0  0  0  0
   28.8331  -19.6444   -6.4980 C   0  0  0  0  0  0  0  0  0  0  0  0
   29.4649  -20.7315   -5.9113 C   0  0  0  0  0  0  0  0  0  0  0  0
   29.6828  -20.7659   -4.5489 C   0  0  0  0  0  0  0  0  0  0  0  0
   29.2816  -19.7277   -3.7342 C   0  0  0  0  0  0  0  0  0  0  0  0
   28.6515  -18.6364   -4.2948 C   0  0  0  0  0  0  0  0  0  0  0  0
   28.4436  -18.6237   -5.6642 C   0  0  0  0  0  0  0  0  0  0  0  0
   26.1540  -20.2445   -7.6867 O   0  0  0  0  0  0  0  0  0  0  0  0
   25.3874  -19.2455   -7.9148 C   0  0  0  0  0  0  0  0  0  0  0  0
   21.1132  -22.8170   -6.0411 C   0  0  0  0  0  0  0  0  0  0  0  0
   22.1277  -21.7848   -5.6123 C   0  0  2  0  0  0  0  0  0  0  0  0
   23.4431  -22.0350   -6.2986 C   0  0  0  0  0  0  0  0  0  0  0  0
   23.9596  -23.3792   -5.8056 C   0  0  2  0  0  0  0  0  0  0  0  0
   24.4697  -20.9682   -5.9605 N   0  0  0  0  0  0  0  0  0  0  0  0
   25.6863  -21.1588   -6.7136 C   0  0  0  0  0  0  0  0  0  0  0  0
   24.6278  -20.7738   -4.5221 O   0  0  0  0  0  0  0  0  0  0  0  0
   25.7148  -21.0442   -3.9683 O   0  0  0  0  0  0  0  0  0  0  0  0
  1  2  1  0
  2  3  2  0
  4  2  1  0
  4  5  1  0
  6  5  1  0
  7  6  1  0
  8  9  1  6
  8  7  1  0
 10 11  2  0
 10  8  1  0
 12 10  1  0
 13 21  1  0
 13 12  1  0
 13 14  1  6
 15 14  1  0
 16 15  2  0
 17 16  1  0
 18 19  1  0
 18 17  2  0
 19 20  2  0
 20 15  1  0
 21 28  1  0
 22 21  2  0
 23 24  1  0
 24 25  1  0
 25 26  1  6
 25 27  1  0
 27 29  1  0
 27 28  1  1
 29 30  2  0
 29 31  1  0
M  END
$$$$
