RFI.pdb
     RDKit          3D

 31 31  0  0  1  0  0  0  0  0999 V2000
   21.9790  -20.7578  -15.3982 N   0  0  0  0  0  0  0  0  0  0  0  0
   21.7541  -19.3955  -15.0545 C   0  0  0  0  0  0  0  0  0  0  0  0
   20.6448  -18.8022  -15.3703 N   0  0  0  0  0  0  0  0  0  0  0  0
   22.8011  -18.7299  -14.3544 N   0  0  0  0  0  0  0  0  0  0  0  0
   23.7050  -19.5005  -13.5008 C   0  0  0  0  0  0  0  0  0  0  0  0
   22.9410  -20.2677  -12.4584 C   0  0  0  0  0  0  0  0  0  0  0  0
   23.7967  -21.0416  -11.5306 C   0  0  0  0  0  0  0  0  0  0  0  0
   25.2560  -20.7869  -11.6571 C   0  0  2  0  0  0  0  0  0  0  0  0
   25.9458  -21.4622  -12.7011 N   0  0  0  0  0  0  0  0  0  0  0  0
   25.9003  -21.0152  -10.3190 C   0  0  0  0  0  0  0  0  0  0  0  0
   26.0599  -22.1898   -9.8957 O   0  0  0  0  0  0  0  0  0  0  0  0
   20.4918  -17.7971  -15.1443 N   0  0  0  0  0  0  0  0  0  0  0  0
   26.3527  -19.9740   -9.4773 C   0  0  2  0  0  0  0  0  0  0  0  0
   27.0575  -20.2238   -8.2126 C   0  0  0  0  0  0  0  0  0  0  0  0
   28.1333  -19.2357   -7.9733 C   0  0  0  0  0  0  0  0  0  0  0  0
   28.8323  -19.3057   -6.6937 C   0  0  0  0  0  0  0  0  0  0  0  0
   28.6371  -18.3642   -5.6934 C   0  0  0  0  0  0  0  0  0  0  0  0
   29.3266  -18.4532   -4.5011 C   0  0  0  0  0  0  0  0  0  0  0  0
   30.2249  -19.4739   -4.2690 C   0  0  0  0  0  0  0  0  0  0  0  0
   30.4354  -20.4215   -5.2488 C   0  0  0  0  0  0  0  0  0  0  0  0
   29.7323  -20.3121   -6.4371 C   0  0  0  0  0  0  0  0  0  0  0  0
   26.0865  -20.4360   -7.1272 O   0  0  0  0  0  0  0  0  0  0  0  0
   25.1236  -19.6019   -7.0059 C   0  0  0  0  0  0  0  0  0  0  0  0
   26.4098  -21.6806   -1.9489 C   0  0  0  0  0  0  0  0  0  0  0  0
   26.8416  -22.2742   -3.2679 C   0  0  2  0  0  0  0  0  0  0  0  0
   25.6362  -22.6532   -4.0847 C   0  0  0  0  0  0  0  0  0  0  0  0
   26.0149  -23.8786   -4.9042 C   0  0  1  0  0  0  0  0  0  0  0  0
   25.2251  -21.5428   -5.0358 N   0  0  0  0  0  0  0  0  0  0  0  0
   26.0986  -21.4904   -6.1839 C   0  0  0  0  0  0  0  0  0  0  0  0
   24.9850  -20.2752   -4.3522 O   0  0  0  0  0  0  0  0  0  0  0  0
   25.8968  -19.4249   -4.2690 O   0  0  0  0  0  0  0  0  0  0  0  0
  1  2  1  0
  2  3  2  0
  4  2  1  0
  4  5  1  0
  6  5  1  0
  7  6  1  0
  8  9  1  6
  8  7  1  0
 10 11  2  0
 10  8  1  0
 12 10  1  0
 13 21  1  0
 13 12  1  0
 13 14  1  6
 15 14  1  0
 16 15  2  0
 17 16  1  0
 18 19  1  0
 18 17  2  0
 19 20  2  0
 20 15  1  0
 21 28  1  0
 22 21  2  0
 23 24  1  0
 24 25  1  0
 25 26  1  6
 25 27  1  0
 27 29  1  0
 27 28  1  6
 29 30  2  0
 29 31  1  0
M  END
$$$$
