RFI.pdb
     RDKit          3D

 31 31  0  0  1  0  0  0  0  0999 V2000
   24.2672  -25.0953  -14.6713 N   0  0  0  0  0  0  0  0  0  0  0  0
   23.8122  -24.0063  -15.4660 C   0  0  0  0  0  0  0  0  0  0  0  0
   22.8423  -24.1585  -16.3136 N   0  0  0  0  0  0  0  0  0  0  0  0
   24.4728  -22.7579  -15.2808 N   0  0  0  0  0  0  0  0  0  0  0  0
   25.0420  -22.4268  -13.9748 C   0  0  0  0  0  0  0  0  0  0  0  0
   23.9607  -22.1418  -12.9706 C   0  0  0  0  0  0  0  0  0  0  0  0
   24.3253  -21.1180  -11.9652 C   0  0  0  0  0  0  0  0  0  0  0  0
   25.7779  -20.8156  -11.8706 C   0  0  2  0  0  0  0  0  0  0  0  0
   26.6431  -21.4922  -12.7737 N   0  0  0  0  0  0  0  0  0  0  0  0
   26.2115  -20.9875  -10.4423 C   0  0  0  0  0  0  0  0  0  0  0  0
   25.9596  -22.0631   -9.8390 O   0  0  0  0  0  0  0  0  0  0  0  0
   22.5525  -23.3796  -16.9414 N   0  0  0  0  0  0  0  0  0  0  0  0
   26.9019  -19.9979   -9.7066 C   0  0  1  0  0  0  0  0  0  0  0  0
   27.3890  -20.2199   -8.3384 C   0  0  0  0  0  0  0  0  0  0  0  0
   28.4929  -19.2986   -7.9869 C   0  0  0  0  0  0  0  0  0  0  0  0
   28.9924  -19.3464   -6.6161 C   0  0  0  0  0  0  0  0  0  0  0  0
   28.6997  -18.3566   -5.6888 C   0  0  0  0  0  0  0  0  0  0  0  0
   29.2017  -18.4267   -4.4051 C   0  0  0  0  0  0  0  0  0  0  0  0
   30.0043  -19.4756   -4.0073 C   0  0  0  0  0  0  0  0  0  0  0  0
   30.3088  -20.4713   -4.9118 C   0  0  0  0  0  0  0  0  0  0  0  0
   29.7938  -20.3801   -6.1944 C   0  0  0  0  0  0  0  0  0  0  0  0
   26.2539  -20.2955   -7.4046 O   0  0  0  0  0  0  0  0  0  0  0  0
   25.2553  -19.5201   -7.6031 C   0  0  0  0  0  0  0  0  0  0  0  0
   22.0886  -21.4871   -6.7377 C   0  0  0  0  0  0  0  0  0  0  0  0
   23.4111  -22.2056   -6.8528 C   0  0  1  0  0  0  0  0  0  0  0  0
   24.0959  -22.2477   -5.5138 C   0  0  0  0  0  0  0  0  0  0  0  0
   23.0117  -22.1470   -4.4503 C   0  0  2  0  0  0  0  0  0  0  0  0
   25.0596  -21.0877   -5.3343 N   0  0  0  0  0  0  0  0  0  0  0  0
   26.1411  -21.1567   -6.2879 C   0  0  0  0  0  0  0  0  0  0  0  0
   25.4435  -20.8845   -3.9404 O   0  0  0  0  0  0  0  0  0  0  0  0
   26.4572  -21.4515   -3.4799 O   0  0  0  0  0  0  0  0  0  0  0  0
  1  2  1  0
  2  3  2  0
  4  2  1  0
  4  5  1  0
  6  5  1  0
  7  6  1  0
  8  9  1  6
  8  7  1  0
 10 11  2  0
 10  8  1  0
 12 10  1  0
 13 21  1  0
 13 12  1  0
 13 14  1  1
 15 14  1  0
 16 15  2  0
 17 16  1  0
 18 19  1  0
 18 17  2  0
 19 20  2  0
 20 15  1  0
 21 28  1  0
 22 21  2  0
 23 24  1  0
 24 25  1  0
 25 26  1  6
 25 27  1  0
 27 29  1  0
 27 28  1  6
 29 30  2  0
 29 31  1  0
M  END
$$$$
