GIF.pdb
     RDKit          3D

 24 24  0  0  1  0  0  0  0  0999 V2000
    4.9414  -19.6524   22.6314 N   0  0  0  0  0  0  0  0  0  0  0  0
    5.0555  -18.3715   23.2732 C   0  0  0  0  0  0  0  0  0  0  0  0
    6.3642  -17.7095   22.9294 C   0  0  0  0  0  0  0  0  0  0  0  0
    7.4512  -18.2568   23.2139 O   0  0  0  0  0  0  0  0  0  0  0  0
    8.4376  -12.6557   19.8207 C   0  0  0  0  0  0  0  0  0  0  0  0
    8.5784  -13.8727   20.6597 C   0  0  0  0  0  0  0  0  0  0  0  0
    7.3256  -14.4802   21.1867 C   0  0  2  0  0  0  0  0  0  0  0  0
    6.6526  -13.3732   22.0191 C   0  0  0  0  0  0  0  0  0  0  0  0
    7.5531  -15.6891   21.9964 C   0  0  2  0  0  0  0  0  0  0  0  0
    6.3734  -16.4379   22.2688 N   0  0  0  0  0  0  0  0  0  0  0  0
    8.3179  -15.4872   23.2311 C   0  0  0  0  0  0  0  0  0  0  0  0
    7.9038  -14.8059   24.2100 O   0  0  0  0  0  0  0  0  0  0  0  0
    9.6023  -16.0759   23.3646 N   0  0  0  0  0  0  0  0  0  0  0  0
   10.4086  -15.8790   24.5535 C   0  0  1  0  0  0  0  0  0  0  0  0
    9.7410  -16.2934   25.8209 C   0  0  0  0  0  0  0  0  0  0  0  0
    9.6487  -15.2548   26.8536 C   0  0  0  0  0  0  0  0  0  0  0  0
   10.3835  -15.3087   28.0271 C   0  0  0  0  0  0  0  0  0  0  0  0
   10.2937  -14.3219   28.9887 C   0  0  0  0  0  0  0  0  0  0  0  0
    9.4679  -13.2426   28.8187 C   0  0  0  0  0  0  0  0  0  0  0  0
    8.7265  -13.1676   27.6579 C   0  0  0  0  0  0  0  0  0  0  0  0
    8.8230  -14.1681   26.6917 C   0  0  0  0  0  0  0  0  0  0  0  0
   11.7470  -16.5244   24.3870 C   0  0  0  0  0  0  0  0  0  0  0  0
   11.8743  -17.7636   24.4493 O   0  0  0  0  0  0  0  0  0  0  0  0
   12.8594  -15.7424   24.1612 O   0  0  0  0  0  0  0  0  0  0  0  0
  2  1  1  0
  3  2  1  0
  3  4  2  0
  6  7  1  0
  6  5  1  0
  7  8  1  1
  9 10  1  1
  9  7  1  0
 10  3  1  0
 11  9  1  0
 12 11  2  0
 13 11  1  0
 14 13  1  0
 14 15  1  1
 15 16  1  0
 16 17  2  0
 17 18  1  0
 19 18  2  0
 20 19  1  0
 21 16  1  0
 21 20  2  0
 22 14  1  0
 22 24  1  0
 23 22  2  0
M  END
$$$$
