GIF.pdb
     RDKit          3D

 24 24  0  0  1  0  0  0  0  0999 V2000
   12.3100  -17.5602   19.3056 N   0  0  0  0  0  0  0  0  0  0  0  0
   10.9203  -17.6885   19.6493 C   0  0  0  0  0  0  0  0  0  0  0  0
   10.5150  -16.6465   20.6589 C   0  0  0  0  0  0  0  0  0  0  0  0
   11.3125  -16.2708   21.5448 O   0  0  0  0  0  0  0  0  0  0  0  0
    6.9089  -12.6641   19.4038 C   0  0  0  0  0  0  0  0  0  0  0  0
    7.9814  -13.4593   20.0534 C   0  0  0  0  0  0  0  0  0  0  0  0
    7.5772  -14.3547   21.1720 C   0  0  2  0  0  0  0  0  0  0  0  0
    7.1135  -13.4155   22.3008 C   0  0  0  0  0  0  0  0  0  0  0  0
    8.6561  -15.2454   21.6321 C   0  0  2  0  0  0  0  0  0  0  0  0
    9.2023  -16.0737   20.6113 N   0  0  0  0  0  0  0  0  0  0  0  0
    8.3489  -16.0471   22.8208 C   0  0  0  0  0  0  0  0  0  0  0  0
    7.9414  -17.2413   22.7761 O   0  0  0  0  0  0  0  0  0  0  0  0
    8.5056  -15.4769   24.1109 N   0  0  0  0  0  0  0  0  0  0  0  0
    8.2955  -16.2551   25.3162 C   0  0  1  0  0  0  0  0  0  0  0  0
    8.4569  -15.4806   26.5803 C   0  0  0  0  0  0  0  0  0  0  0  0
    7.7596  -14.1900   26.6224 C   0  0  0  0  0  0  0  0  0  0  0  0
    8.4187  -12.9849   26.4398 C   0  0  0  0  0  0  0  0  0  0  0  0
    7.7508  -11.7769   26.4746 C   0  0  0  0  0  0  0  0  0  0  0  0
    6.3998  -11.7224   26.6927 C   0  0  0  0  0  0  0  0  0  0  0  0
    5.7225  -12.9098   26.8772 C   0  0  0  0  0  0  0  0  0  0  0  0
    6.4041  -14.1255   26.8404 C   0  0  0  0  0  0  0  0  0  0  0  0
    6.9797  -16.9627   25.2556 C   0  0  0  0  0  0  0  0  0  0  0  0
    6.0935  -16.6027   24.4552 O   0  0  0  0  0  0  0  0  0  0  0  0
    6.7382  -18.0292   26.0948 O   0  0  0  0  0  0  0  0  0  0  0  0
  2  1  1  0
  3  2  1  0
  3  4  2  0
  6  7  1  0
  6  5  1  0
  7  8  1  1
  9 10  1  6
  9  7  1  0
 10  3  1  0
 11  9  1  0
 12 11  2  0
 13 11  1  0
 14 13  1  0
 14 15  1  1
 15 16  1  0
 16 17  2  0
 17 18  1  0
 19 18  2  0
 20 19  1  0
 21 16  1  0
 21 20  2  0
 22 14  1  0
 22 24  1  0
 23 22  2  0
M  END
$$$$
