GIF.pdb
     RDKit          3D

 24 24  0  0  1  0  0  0  0  0999 V2000
   12.2100  -16.8999   19.1907 N   0  0  0  0  0  0  0  0  0  0  0  0
   11.2342  -17.4869   20.0677 C   0  0  0  0  0  0  0  0  0  0  0  0
   10.7887  -16.5019   21.1167 C   0  0  0  0  0  0  0  0  0  0  0  0
   11.5778  -16.1132   22.0045 O   0  0  0  0  0  0  0  0  0  0  0  0
    7.1302  -12.5632   19.8961 C   0  0  0  0  0  0  0  0  0  0  0  0
    8.2028  -13.3880   20.5074 C   0  0  0  0  0  0  0  0  0  0  0  0
    7.8125  -14.2789   21.6345 C   0  0  2  0  0  0  0  0  0  0  0  0
    7.3280  -13.3366   22.7520 C   0  0  0  0  0  0  0  0  0  0  0  0
    8.9067  -15.1441   22.1069 C   0  0  2  0  0  0  0  0  0  0  0  0
    9.4468  -15.9990   21.1050 N   0  0  0  0  0  0  0  0  0  0  0  0
    8.6244  -15.9107   23.3246 C   0  0  0  0  0  0  0  0  0  0  0  0
    8.0603  -17.0402   23.3282 O   0  0  0  0  0  0  0  0  0  0  0  0
    8.9913  -15.3796   24.5884 N   0  0  0  0  0  0  0  0  0  0  0  0
    8.8617  -16.1566   25.8058 C   0  0  1  0  0  0  0  0  0  0  0  0
    8.5707  -15.3442   27.0220 C   0  0  0  0  0  0  0  0  0  0  0  0
    7.7193  -14.1686   26.8060 C   0  0  0  0  0  0  0  0  0  0  0  0
    6.3504  -14.2694   26.6161 C   0  0  0  0  0  0  0  0  0  0  0  0
    5.5582  -13.1555   26.4207 C   0  0  0  0  0  0  0  0  0  0  0  0
    6.0991  -11.8973   26.4068 C   0  0  0  0  0  0  0  0  0  0  0  0
    7.4600  -11.7724   26.5938 C   0  0  0  0  0  0  0  0  0  0  0  0
    8.2530  -12.9021   26.7906 C   0  0  0  0  0  0  0  0  0  0  0  0
    7.8692  -17.2587   25.6162 C   0  0  0  0  0  0  0  0  0  0  0  0
    7.7709  -18.1839   26.4469 O   0  0  0  0  0  0  0  0  0  0  0  0
    7.0487  -17.2563   24.5087 O   0  0  0  0  0  0  0  0  0  0  0  0
  2  1  1  0
  3  2  1  0
  3  4  2  0
  6  7  1  0
  6  5  1  0
  7  8  1  1
  9 10  1  6
  9  7  1  0
 10  3  1  0
 11  9  1  0
 12 11  2  0
 13 11  1  0
 14 13  1  0
 14 15  1  1
 15 16  1  0
 16 17  2  0
 17 18  1  0
 19 18  2  0
 20 19  1  0
 21 16  1  0
 21 20  2  0
 22 14  1  0
 22 24  1  0
 23 22  2  0
M  END
$$$$
