GIF.pdb
     RDKit          3D

 24 24  0  0  1  0  0  0  0  0999 V2000
    4.6606  -18.6734   20.6336 N   0  0  0  0  0  0  0  0  0  0  0  0
    4.7009  -17.5450   21.5228 C   0  0  0  0  0  0  0  0  0  0  0  0
    6.1030  -17.0099   21.6536 C   0  0  0  0  0  0  0  0  0  0  0  0
    7.0876  -17.7779   21.6003 O   0  0  0  0  0  0  0  0  0  0  0  0
    7.4188  -12.5298   19.1704 C   0  0  0  0  0  0  0  0  0  0  0  0
    7.3562  -13.8003   19.9363 C   0  0  0  0  0  0  0  0  0  0  0  0
    7.8281  -13.7638   21.3478 C   0  0  2  0  0  0  0  0  0  0  0  0
    9.3306  -13.4362   21.2686 C   0  0  0  0  0  0  0  0  0  0  0  0
    7.5967  -15.0214   22.0784 C   0  0  2  0  0  0  0  0  0  0  0  0
    6.3206  -15.6060   21.8415 N   0  0  0  0  0  0  0  0  0  0  0  0
    7.8699  -14.9744   23.5183 C   0  0  0  0  0  0  0  0  0  0  0  0
    7.5203  -14.0208   24.2684 O   0  0  0  0  0  0  0  0  0  0  0  0
    8.5676  -16.0452   24.1351 N   0  0  0  0  0  0  0  0  0  0  0  0
    8.8687  -16.0391   25.5535 C   0  0  1  0  0  0  0  0  0  0  0  0
    7.7011  -15.7222   26.4253 C   0  0  0  0  0  0  0  0  0  0  0  0
    7.4937  -14.2971   26.7078 C   0  0  0  0  0  0  0  0  0  0  0  0
    8.5413  -13.4399   27.0041 C   0  0  0  0  0  0  0  0  0  0  0  0
    8.3347  -12.0991   27.2615 C   0  0  0  0  0  0  0  0  0  0  0  0
    7.0761  -11.5599   27.2337 C   0  0  0  0  0  0  0  0  0  0  0  0
    6.0175  -12.3943   26.9408 C   0  0  0  0  0  0  0  0  0  0  0  0
    6.2344  -13.7471   26.6820 C   0  0  0  0  0  0  0  0  0  0  0  0
    9.5341  -17.3181   25.9494 C   0  0  0  0  0  0  0  0  0  0  0  0
   10.0495  -17.4512   27.0774 O   0  0  0  0  0  0  0  0  0  0  0  0
    9.5811  -18.3684   25.0580 O   0  0  0  0  0  0  0  0  0  0  0  0
  2  1  1  0
  3  2  1  0
  3  4  2  0
  6  7  1  0
  6  5  1  0
  7  8  1  6
  9 10  1  1
  9  7  1  0
 10  3  1  0
 11  9  1  0
 12 11  2  0
 13 11  1  0
 14 13  1  0
 14 15  1  1
 15 16  1  0
 16 17  2  0
 17 18  1  0
 19 18  2  0
 20 19  1  0
 21 16  1  0
 21 20  2  0
 22 14  1  0
 22 24  1  0
 23 22  2  0
M  END
$$$$
