GIF.pdb
     RDKit          3D

 24 24  0  0  1  0  0  0  0  0999 V2000
    4.6973  -18.8288   21.1529 N   0  0  0  0  0  0  0  0  0  0  0  0
    4.9737  -17.8352   22.1539 C   0  0  0  0  0  0  0  0  0  0  0  0
    6.3358  -17.2256   21.9484 C   0  0  0  0  0  0  0  0  0  0  0  0
    7.2972  -17.9248   21.5627 O   0  0  0  0  0  0  0  0  0  0  0  0
    7.0530  -12.6895   19.2695 C   0  0  0  0  0  0  0  0  0  0  0  0
    7.2526  -13.9677   19.9981 C   0  0  0  0  0  0  0  0  0  0  0  0
    7.7531  -13.8783   21.3973 C   0  0  2  0  0  0  0  0  0  0  0  0
    9.1559  -13.2521   21.2909 C   0  0  0  0  0  0  0  0  0  0  0  0
    7.8029  -15.1777   22.0888 C   0  0  2  0  0  0  0  0  0  0  0  0
    6.5417  -15.8291   22.1954 N   0  0  0  0  0  0  0  0  0  0  0  0
    8.4801  -15.1751   23.3894 C   0  0  0  0  0  0  0  0  0  0  0  0
    9.1883  -14.2183   23.8103 O   0  0  0  0  0  0  0  0  0  0  0  0
    8.3548  -16.2984   24.2474 N   0  0  0  0  0  0  0  0  0  0  0  0
    8.6932  -16.2208   25.6552 C   0  0  1  0  0  0  0  0  0  0  0  0
    7.5652  -15.7955   26.5330 C   0  0  0  0  0  0  0  0  0  0  0  0
    7.2910  -14.3540   26.5533 C   0  0  0  0  0  0  0  0  0  0  0  0
    6.0385  -13.8334   26.2696 C   0  0  0  0  0  0  0  0  0  0  0  0
    5.7906  -12.4754   26.2986 C   0  0  0  0  0  0  0  0  0  0  0  0
    6.7811  -11.5828   26.6114 C   0  0  0  0  0  0  0  0  0  0  0  0
    8.0362  -12.0780   26.8976 C   0  0  0  0  0  0  0  0  0  0  0  0
    8.2785  -13.4507   26.8663 C   0  0  0  0  0  0  0  0  0  0  0  0
    9.3083  -17.5041   26.1139 C   0  0  0  0  0  0  0  0  0  0  0  0
    9.8658  -17.5871   27.2265 O   0  0  0  0  0  0  0  0  0  0  0  0
    9.2609  -18.6144   25.2984 O   0  0  0  0  0  0  0  0  0  0  0  0
  2  1  1  0
  3  2  1  0
  3  4  2  0
  6  7  1  0
  6  5  1  0
  7  8  1  6
  9 10  1  1
  9  7  1  0
 10  3  1  0
 11  9  1  0
 12 11  2  0
 13 11  1  0
 14 13  1  0
 14 15  1  1
 15 16  1  0
 16 17  2  0
 17 18  1  0
 19 18  2  0
 20 19  1  0
 21 16  1  0
 21 20  2  0
 22 14  1  0
 22 24  1  0
 23 22  2  0
M  END
$$$$
