GIF.pdb
     RDKit          3D

 24 24  0  0  1  0  0  0  0  0999 V2000
    4.1554  -18.4500   20.6426 N   0  0  0  0  0  0  0  0  0  0  0  0
    4.3438  -17.1782   21.2850 C   0  0  0  0  0  0  0  0  0  0  0  0
    5.8086  -16.8632   21.4406 C   0  0  0  0  0  0  0  0  0  0  0  0
    6.6761  -17.7384   21.2322 O   0  0  0  0  0  0  0  0  0  0  0  0
    7.7177  -12.8233   19.0028 C   0  0  0  0  0  0  0  0  0  0  0  0
    7.4215  -14.0037   19.8533 C   0  0  0  0  0  0  0  0  0  0  0  0
    8.0094  -14.0173   21.2210 C   0  0  2  0  0  0  0  0  0  0  0  0
    9.5348  -14.0273   21.0107 C   0  0  0  0  0  0  0  0  0  0  0  0
    7.5782  -15.1659   22.0355 C   0  0  2  0  0  0  0  0  0  0  0  0
    6.2221  -15.5480   21.8316 N   0  0  0  0  0  0  0  0  0  0  0  0
    7.8627  -15.0645   23.4704 C   0  0  0  0  0  0  0  0  0  0  0  0
    7.5937  -14.0480   24.1693 O   0  0  0  0  0  0  0  0  0  0  0  0
    8.4774  -16.1530   24.1422 N   0  0  0  0  0  0  0  0  0  0  0  0
    8.7542  -16.1094   25.5648 C   0  0  1  0  0  0  0  0  0  0  0  0
    7.5609  -15.8219   26.4117 C   0  0  0  0  0  0  0  0  0  0  0  0
    7.2897  -14.4006   26.6572 C   0  0  0  0  0  0  0  0  0  0  0  0
    8.2761  -13.5175   27.0659 C   0  0  0  0  0  0  0  0  0  0  0  0
    8.0107  -12.1807   27.2872 C   0  0  0  0  0  0  0  0  0  0  0  0
    6.7518  -11.6714   27.1097 C   0  0  0  0  0  0  0  0  0  0  0  0
    5.7535  -12.5320   26.7029 C   0  0  0  0  0  0  0  0  0  0  0  0
    6.0297  -13.8806   26.4816 C   0  0  0  0  0  0  0  0  0  0  0  0
    9.4613  -17.3545   25.9955 C   0  0  0  0  0  0  0  0  0  0  0  0
    9.9014  -17.4739   27.1564 O   0  0  0  0  0  0  0  0  0  0  0  0
    9.6317  -18.3882   25.0997 O   0  0  0  0  0  0  0  0  0  0  0  0
  2  1  1  0
  3  2  1  0
  3  4  2  0
  6  7  1  0
  6  5  1  0
  7  8  1  6
  9 10  1  1
  9  7  1  0
 10  3  1  0
 11  9  1  0
 12 11  2  0
 13 11  1  0
 14 13  1  0
 14 15  1  1
 15 16  1  0
 16 17  2  0
 17 18  1  0
 19 18  2  0
 20 19  1  0
 21 16  1  0
 21 20  2  0
 22 14  1  0
 22 24  1  0
 23 22  2  0
M  END
$$$$
