GIF.pdb
     RDKit          3D

 24 24  0  0  1  0  0  0  0  0999 V2000
    7.9161  -19.1068   18.4874 N   0  0  0  0  0  0  0  0  0  0  0  0
    7.3561  -18.5939   19.7077 C   0  0  0  0  0  0  0  0  0  0  0  0
    8.3062  -17.6358   20.3774 C   0  0  0  0  0  0  0  0  0  0  0  0
    9.5321  -17.8758   20.4189 O   0  0  0  0  0  0  0  0  0  0  0  0
    7.2342  -12.1087   20.6969 C   0  0  0  0  0  0  0  0  0  0  0  0
    7.3111  -13.4751   21.2729 C   0  0  0  0  0  0  0  0  0  0  0  0
    8.6325  -14.1587   21.2196 C   0  0  2  0  0  0  0  0  0  0  0  0
    9.0449  -14.1370   19.7361 C   0  0  0  0  0  0  0  0  0  0  0  0
    8.6045  -15.5351   21.7427 C   0  0  2  0  0  0  0  0  0  0  0  0
    7.8086  -16.4330   20.9767 N   0  0  0  0  0  0  0  0  0  0  0  0
    8.2790  -15.6627   23.1667 C   0  0  0  0  0  0  0  0  0  0  0  0
    7.1599  -16.0568   23.5985 O   0  0  0  0  0  0  0  0  0  0  0  0
    9.2548  -15.3295   24.1418 N   0  0  0  0  0  0  0  0  0  0  0  0
    9.1119  -15.7306   25.5278 C   0  0  1  0  0  0  0  0  0  0  0  0
    7.7515  -15.5011   26.0940 C   0  0  0  0  0  0  0  0  0  0  0  0
    7.3553  -14.0949   26.2324 C   0  0  0  0  0  0  0  0  0  0  0  0
    8.2467  -13.1084   26.6226 C   0  0  0  0  0  0  0  0  0  0  0  0
    7.8642  -11.7871   26.7427 C   0  0  0  0  0  0  0  0  0  0  0  0
    6.5782  -11.3970   26.4787 C   0  0  0  0  0  0  0  0  0  0  0  0
    5.6730  -12.3619   26.0884 C   0  0  0  0  0  0  0  0  0  0  0  0
    6.0672  -13.6939   25.9694 C   0  0  0  0  0  0  0  0  0  0  0  0
    9.5643  -17.1441   25.7095 C   0  0  0  0  0  0  0  0  0  0  0  0
    9.8663  -17.8526   24.7284 O   0  0  0  0  0  0  0  0  0  0  0  0
    9.6504  -17.6763   26.9781 O   0  0  0  0  0  0  0  0  0  0  0  0
  2  1  1  0
  3  2  1  0
  3  4  2  0
  6  7  1  0
  6  5  1  0
  7  8  1  6
  9 10  1  6
  9  7  1  0
 10  3  1  0
 11  9  1  0
 12 11  2  0
 13 11  1  0
 14 13  1  0
 14 15  1  6
 15 16  1  0
 16 17  2  0
 17 18  1  0
 19 18  2  0
 20 19  1  0
 21 16  1  0
 21 20  2  0
 22 14  1  0
 22 24  1  0
 23 22  2  0
M  END
$$$$
