GIF.pdb
     RDKit          3D

 24 24  0  0  1  0  0  0  0  0999 V2000
   12.2445  -17.3783   19.2351 N   0  0  0  0  0  0  0  0  0  0  0  0
   10.8866  -17.5569   19.6710 C   0  0  0  0  0  0  0  0  0  0  0  0
   10.5288  -16.5634   20.7452 C   0  0  0  0  0  0  0  0  0  0  0  0
   11.3806  -16.1911   21.5806 O   0  0  0  0  0  0  0  0  0  0  0  0
    6.9735  -12.8522   19.4651 C   0  0  0  0  0  0  0  0  0  0  0  0
    8.0324  -13.2908   20.4090 C   0  0  0  0  0  0  0  0  0  0  0  0
    7.6422  -14.2776   21.4531 C   0  0  2  0  0  0  0  0  0  0  0  0
    7.1457  -13.4380   22.6446 C   0  0  0  0  0  0  0  0  0  0  0  0
    8.7397  -15.1735   21.8556 C   0  0  2  0  0  0  0  0  0  0  0  0
    9.1995  -16.0333   20.8185 N   0  0  0  0  0  0  0  0  0  0  0  0
    8.5088  -15.9427   23.0825 C   0  0  0  0  0  0  0  0  0  0  0  0
    8.0649  -17.1246   23.0970 O   0  0  0  0  0  0  0  0  0  0  0  0
    8.7879  -15.3531   24.3428 N   0  0  0  0  0  0  0  0  0  0  0  0
    8.7207  -16.1195   25.5718 C   0  0  1  0  0  0  0  0  0  0  0  0
    8.7434  -15.2910   26.8115 C   0  0  0  0  0  0  0  0  0  0  0  0
    7.9462  -14.0598   26.7616 C   0  0  0  0  0  0  0  0  0  0  0  0
    6.5633  -14.0680   26.8483 C   0  0  0  0  0  0  0  0  0  0  0  0
    5.8240  -12.9026   26.8071 C   0  0  0  0  0  0  0  0  0  0  0  0
    6.4339  -11.6831   26.6781 C   0  0  0  0  0  0  0  0  0  0  0  0
    7.8101  -11.6503   26.5901 C   0  0  0  0  0  0  0  0  0  0  0  0
    8.5494  -12.8316   26.6325 C   0  0  0  0  0  0  0  0  0  0  0  0
    7.5515  -17.0510   25.5406 C   0  0  0  0  0  0  0  0  0  0  0  0
    7.4653  -18.0001   26.3453 O   0  0  0  0  0  0  0  0  0  0  0  0
    6.5518  -16.8620   24.6106 O   0  0  0  0  0  0  0  0  0  0  0  0
  2  1  1  0
  3  2  1  0
  3  4  2  0
  6  7  1  0
  6  5  1  0
  7  8  1  1
  9 10  1  6
  9  7  1  0
 10  3  1  0
 11  9  1  0
 12 11  2  0
 13 11  1  0
 14 13  1  0
 14 15  1  1
 15 16  1  0
 16 17  2  0
 17 18  1  0
 19 18  2  0
 20 19  1  0
 21 16  1  0
 21 20  2  0
 22 14  1  0
 22 24  1  0
 23 22  2  0
M  END
$$$$
