GIF.pdb
     RDKit          3D

 24 24  0  0  1  0  0  0  0  0999 V2000
    4.5241  -18.9514   21.0743 N   0  0  0  0  0  0  0  0  0  0  0  0
    4.7374  -17.7466   21.8285 C   0  0  0  0  0  0  0  0  0  0  0  0
    6.1638  -17.2780   21.7063 C   0  0  0  0  0  0  0  0  0  0  0  0
    7.0611  -18.0566   21.3179 O   0  0  0  0  0  0  0  0  0  0  0  0
    7.4249  -12.5682   19.4457 C   0  0  0  0  0  0  0  0  0  0  0  0
    7.3637  -13.9115   20.0754 C   0  0  0  0  0  0  0  0  0  0  0  0
    7.9245  -14.0417   21.4483 C   0  0  2  0  0  0  0  0  0  0  0  0
    9.3920  -13.5891   21.3355 C   0  0  0  0  0  0  0  0  0  0  0  0
    7.8302  -15.4057   21.9955 C   0  0  2  0  0  0  0  0  0  0  0  0
    6.5059  -15.9263   22.0368 N   0  0  0  0  0  0  0  0  0  0  0  0
    8.4944  -15.6154   23.2859 C   0  0  0  0  0  0  0  0  0  0  0  0
    9.6864  -15.2752   23.5255 O   0  0  0  0  0  0  0  0  0  0  0  0
    7.7852  -16.2362   24.3469 N   0  0  0  0  0  0  0  0  0  0  0  0
    8.3417  -16.3257   25.6829 C   0  0  1  0  0  0  0  0  0  0  0  0
    7.4725  -15.7474   26.7477 C   0  0  0  0  0  0  0  0  0  0  0  0
    7.2396  -14.3014   26.6552 C   0  0  0  0  0  0  0  0  0  0  0  0
    6.0045  -13.7693   26.3210 C   0  0  0  0  0  0  0  0  0  0  0  0
    5.7954  -12.4067   26.2437 C   0  0  0  0  0  0  0  0  0  0  0  0
    6.8087  -11.5207   26.4965 C   0  0  0  0  0  0  0  0  0  0  0  0
    8.0472  -12.0275   26.8313 C   0  0  0  0  0  0  0  0  0  0  0  0
    8.2502  -13.4048   26.9072 C   0  0  0  0  0  0  0  0  0  0  0  0
    8.7402  -17.7343   25.9870 C   0  0  0  0  0  0  0  0  0  0  0  0
    8.4307  -18.6687   25.2209 O   0  0  0  0  0  0  0  0  0  0  0  0
    9.4602  -18.0092   27.1298 O   0  0  0  0  0  0  0  0  0  0  0  0
  2  1  1  0
  3  2  1  0
  3  4  2  0
  6  7  1  0
  6  5  1  0
  7  8  1  6
  9 10  1  1
  9  7  1  0
 10  3  1  0
 11  9  1  0
 12 11  2  0
 13 11  1  0
 14 13  1  0
 14 15  1  1
 15 16  1  0
 16 17  2  0
 17 18  1  0
 19 18  2  0
 20 19  1  0
 21 16  1  0
 21 20  2  0
 22 14  1  0
 22 24  1  0
 23 22  2  0
M  END
$$$$
