GIF.pdb
     RDKit          3D

 24 24  0  0  1  0  0  0  0  0999 V2000
    7.2931  -12.9737   19.2397 N   0  0  0  0  0  0  0  0  0  0  0  0
    8.0391  -14.1234   19.6722 C   0  0  0  0  0  0  0  0  0  0  0  0
    7.4625  -14.6959   20.9407 C   0  0  0  0  0  0  0  0  0  0  0  0
    6.5483  -14.1020   21.5519 O   0  0  0  0  0  0  0  0  0  0  0  0
    5.5375  -20.0126   22.8464 C   0  0  0  0  0  0  0  0  0  0  0  0
    6.2140  -18.7476   23.2296 C   0  0  0  0  0  0  0  0  0  0  0  0
    6.9923  -18.0484   22.1705 C   0  0  2  0  0  0  0  0  0  0  0  0
    8.2539  -18.9051   21.9568 C   0  0  0  0  0  0  0  0  0  0  0  0
    7.3450  -16.6615   22.5182 C   0  0  2  0  0  0  0  0  0  0  0  0
    7.9610  -15.9348   21.4604 N   0  0  0  0  0  0  0  0  0  0  0  0
    8.1131  -16.4969   23.7564 C   0  0  0  0  0  0  0  0  0  0  0  0
    9.3700  -16.3832   23.7931 O   0  0  0  0  0  0  0  0  0  0  0  0
    7.4353  -16.4620   25.0027 N   0  0  0  0  0  0  0  0  0  0  0  0
    8.1381  -16.1965   26.2428 C   0  0  1  0  0  0  0  0  0  0  0  0
    7.3816  -15.3439   27.2043 C   0  0  0  0  0  0  0  0  0  0  0  0
    7.2025  -13.9445   26.8002 C   0  0  0  0  0  0  0  0  0  0  0  0
    8.2340  -13.0206   26.8500 C   0  0  0  0  0  0  0  0  0  0  0  0
    8.0554  -11.7079   26.4605 C   0  0  0  0  0  0  0  0  0  0  0  0
    6.8420  -11.2644   26.0061 C   0  0  0  0  0  0  0  0  0  0  0  0
    5.8002  -12.1666   25.9478 C   0  0  0  0  0  0  0  0  0  0  0  0
    5.9886  -13.4904   26.3428 C   0  0  0  0  0  0  0  0  0  0  0  0
    8.5945  -17.4765   26.8664 C   0  0  0  0  0  0  0  0  0  0  0  0
    9.3997  -17.4753   27.8189 O   0  0  0  0  0  0  0  0  0  0  0  0
    8.1209  -18.6781   26.3848 O   0  0  0  0  0  0  0  0  0  0  0  0
  2  1  1  0
  3  2  1  0
  3  4  2  0
  6  7  1  0
  6  5  1  0
  7  8  1  1
  9 10  1  6
  9  7  1  0
 10  3  1  0
 11  9  1  0
 12 11  2  0
 13 11  1  0
 14 13  1  0
 14 15  1  1
 15 16  1  0
 16 17  2  0
 17 18  1  0
 19 18  2  0
 20 19  1  0
 21 16  1  0
 21 20  2  0
 22 14  1  0
 22 24  1  0
 23 22  2  0
M  END
$$$$
