GIF.pdb
     RDKit          3D

 24 24  0  0  1  0  0  0  0  0999 V2000
    5.3235  -19.2057   20.5696 N   0  0  0  0  0  0  0  0  0  0  0  0
    5.2749  -18.0428   21.4129 C   0  0  0  0  0  0  0  0  0  0  0  0
    6.6087  -17.3436   21.4465 C   0  0  0  0  0  0  0  0  0  0  0  0
    7.6535  -17.9440   21.1147 O   0  0  0  0  0  0  0  0  0  0  0  0
    7.0604  -12.2324   19.7075 C   0  0  0  0  0  0  0  0  0  0  0  0
    7.3112  -13.6275   20.1495 C   0  0  0  0  0  0  0  0  0  0  0  0
    7.7745  -13.8207   21.5510 C   0  0  2  0  0  0  0  0  0  0  0  0
    9.1292  -13.0939   21.6381 C   0  0  0  0  0  0  0  0  0  0  0  0
    7.9054  -15.2357   21.9378 C   0  0  2  0  0  0  0  0  0  0  0  0
    6.6911  -15.9747   21.8622 N   0  0  0  0  0  0  0  0  0  0  0  0
    8.5645  -15.4799   23.2247 C   0  0  0  0  0  0  0  0  0  0  0  0
    9.7656  -15.1757   23.4673 O   0  0  0  0  0  0  0  0  0  0  0  0
    7.8393  -16.0943   24.2786 N   0  0  0  0  0  0  0  0  0  0  0  0
    8.4024  -16.2351   25.6073 C   0  0  1  0  0  0  0  0  0  0  0  0
    7.5371  -15.7013   26.6982 C   0  0  0  0  0  0  0  0  0  0  0  0
    7.3668  -14.2437   26.7116 C   0  0  0  0  0  0  0  0  0  0  0  0
    8.4223  -13.3761   26.9422 C   0  0  0  0  0  0  0  0  0  0  0  0
    8.2514  -12.0059   26.9456 C   0  0  0  0  0  0  0  0  0  0  0  0
    7.0219  -11.4466   26.7194 C   0  0  0  0  0  0  0  0  0  0  0  0
    5.9561  -12.2909   26.4873 C   0  0  0  0  0  0  0  0  0  0  0  0
    6.1370  -13.6734   26.4854 C   0  0  0  0  0  0  0  0  0  0  0  0
    8.8053  -17.6538   25.8538 C   0  0  0  0  0  0  0  0  0  0  0  0
    8.5069  -18.5555   25.0454 O   0  0  0  0  0  0  0  0  0  0  0  0
    9.5171  -17.9744   26.9898 O   0  0  0  0  0  0  0  0  0  0  0  0
  2  1  1  0
  3  2  1  0
  3  4  2  0
  6  7  1  0
  6  5  1  0
  7  8  1  6
  9 10  1  1
  9  7  1  0
 10  3  1  0
 11  9  1  0
 12 11  2  0
 13 11  1  0
 14 13  1  0
 14 15  1  1
 15 16  1  0
 16 17  2  0
 17 18  1  0
 19 18  2  0
 20 19  1  0
 21 16  1  0
 21 20  2  0
 22 14  1  0
 22 24  1  0
 23 22  2  0
M  END
$$$$
