GIF.pdb
     RDKit          3D

 24 24  0  0  1  0  0  0  0  0999 V2000
    8.4077  -16.1372   19.0137 N   0  0  0  0  0  0  0  0  0  0  0  0
    7.9551  -16.7486   20.2332 C   0  0  0  0  0  0  0  0  0  0  0  0
    8.5807  -16.0877   21.4336 C   0  0  0  0  0  0  0  0  0  0  0  0
    9.7991  -15.8093   21.4472 O   0  0  0  0  0  0  0  0  0  0  0  0
    6.8792  -12.8589   26.4561 C   0  0  0  0  0  0  0  0  0  0  0  0
    7.8409  -13.6697   25.6672 C   0  0  0  0  0  0  0  0  0  0  0  0
    7.2722  -14.5814   24.6368 C   0  0  2  0  0  0  0  0  0  0  0  0
    6.4734  -15.6384   25.4217 C   0  0  0  0  0  0  0  0  0  0  0  0
    8.2920  -15.2131   23.7826 C   0  0  2  0  0  0  0  0  0  0  0  0
    7.7782  -15.7706   22.5777 N   0  0  0  0  0  0  0  0  0  0  0  0
    9.1656  -16.1813   24.4532 C   0  0  0  0  0  0  0  0  0  0  0  0
    8.9599  -17.4270   24.4579 O   0  0  0  0  0  0  0  0  0  0  0  0
   10.3155  -15.7245   25.1481 N   0  0  0  0  0  0  0  0  0  0  0  0
   11.2581  -16.6488   25.7478 C   0  0  1  0  0  0  0  0  0  0  0  0
   12.2569  -16.0053   26.6488 C   0  0  0  0  0  0  0  0  0  0  0  0
   11.6952  -15.2244   27.7572 C   0  0  0  0  0  0  0  0  0  0  0  0
   11.6063  -15.7248   29.0463 C   0  0  0  0  0  0  0  0  0  0  0  0
   11.0822  -14.9781   30.0828 C   0  0  0  0  0  0  0  0  0  0  0  0
   10.6261  -13.7035   29.8754 C   0  0  0  0  0  0  0  0  0  0  0  0
   10.7047  -13.1842   28.6000 C   0  0  0  0  0  0  0  0  0  0  0  0
   11.2353  -13.9446   27.5587 C   0  0  0  0  0  0  0  0  0  0  0  0
   10.5314  -17.7674   26.4233 C   0  0  0  0  0  0  0  0  0  0  0  0
   11.1270  -18.8117   26.7555 O   0  0  0  0  0  0  0  0  0  0  0  0
    9.1834  -17.6472   26.6848 O   0  0  0  0  0  0  0  0  0  0  0  0
  2  1  1  0
  3  2  1  0
  3  4  2  0
  6  7  1  0
  6  5  1  0
  7  8  1  1
  9 10  1  6
  9  7  1  0
 10  3  1  0
 11  9  1  0
 12 11  2  0
 13 11  1  0
 14 13  1  0
 14 15  1  1
 15 16  1  0
 16 17  2  0
 17 18  1  0
 19 18  2  0
 20 19  1  0
 21 16  1  0
 21 20  2  0
 22 14  1  0
 22 24  1  0
 23 22  2  0
M  END
$$$$
