GIF.pdb
     RDKit          3D

 24 24  0  0  1  0  0  0  0  0999 V2000
    4.7656  -19.2612   21.9971 N   0  0  0  0  0  0  0  0  0  0  0  0
    4.9328  -17.8434   22.1632 C   0  0  0  0  0  0  0  0  0  0  0  0
    6.3738  -17.4442   21.9814 C   0  0  0  0  0  0  0  0  0  0  0  0
    7.2461  -18.3005   21.7206 O   0  0  0  0  0  0  0  0  0  0  0  0
    8.0093  -12.0614   20.5459 C   0  0  0  0  0  0  0  0  0  0  0  0
    7.7712  -13.2144   21.4507 C   0  0  0  0  0  0  0  0  0  0  0  0
    8.2981  -14.5368   21.0152 C   0  0  2  0  0  0  0  0  0  0  0  0
    7.5616  -14.8583   19.7016 C   0  0  0  0  0  0  0  0  0  0  0  0
    8.1011  -15.6053   22.0094 C   0  0  2  0  0  0  0  0  0  0  0  0
    6.7590  -16.0696   22.1069 N   0  0  0  0  0  0  0  0  0  0  0  0
    8.6374  -15.3303   23.3462 C   0  0  0  0  0  0  0  0  0  0  0  0
    9.0826  -14.2050   23.7062 O   0  0  0  0  0  0  0  0  0  0  0  0
    8.6747  -16.3677   24.3138 N   0  0  0  0  0  0  0  0  0  0  0  0
    8.9008  -16.0887   25.7187 C   0  0  1  0  0  0  0  0  0  0  0  0
    7.6684  -15.7279   26.4768 C   0  0  0  0  0  0  0  0  0  0  0  0
    7.3025  -14.3071   26.4458 C   0  0  0  0  0  0  0  0  0  0  0  0
    8.2054  -13.3021   26.7537 C   0  0  0  0  0  0  0  0  0  0  0  0
    7.8516  -11.9680   26.7144 C   0  0  0  0  0  0  0  0  0  0  0  0
    6.5841  -11.5830   26.3668 C   0  0  0  0  0  0  0  0  0  0  0  0
    5.6680  -12.5663   26.0561 C   0  0  0  0  0  0  0  0  0  0  0  0
    6.0331  -13.9112   26.0980 C   0  0  0  0  0  0  0  0  0  0  0  0
    9.6443  -17.2164   26.3598 C   0  0  0  0  0  0  0  0  0  0  0  0
    9.8029  -18.3012   25.7649 O   0  0  0  0  0  0  0  0  0  0  0  0
   10.1638  -17.0596   27.6269 O   0  0  0  0  0  0  0  0  0  0  0  0
  2  1  1  0
  3  2  1  0
  3  4  2  0
  6  7  1  0
  6  5  1  0
  7  8  1  6
  9 10  1  1
  9  7  1  0
 10  3  1  0
 11  9  1  0
 12 11  2  0
 13 11  1  0
 14 13  1  0
 14 15  1  1
 15 16  1  0
 16 17  2  0
 17 18  1  0
 19 18  2  0
 20 19  1  0
 21 16  1  0
 21 20  2  0
 22 14  1  0
 22 24  1  0
 23 22  2  0
M  END
$$$$
