DKV.pdb
     RDKit          3D

 25 24  0  0  1  0  0  0  0  0999 V2000
    7.7503  -19.7723   23.0906 N   0  0  0  0  0  0  0  0  0  0  0  0
    7.0531  -18.6438   23.6327 C   0  0  1  0  0  0  0  0  0  0  0  0
    6.8803  -18.7227   25.1271 C   0  0  0  0  0  0  0  0  0  0  0  0
    6.2860  -20.0362   25.4901 C   0  0  0  0  0  0  0  0  0  0  0  0
    6.5348  -20.6057   26.5714 O   0  0  0  0  0  0  0  0  0  0  0  0
    7.7670  -17.3966   23.2731 C   0  0  0  0  0  0  0  0  0  0  0  0
    9.0219  -17.3487   23.3705 O   0  0  0  0  0  0  0  0  0  0  0  0
    5.4090  -20.6749   24.5847 O   0  0  0  0  0  0  0  0  0  0  0  0
    7.1024  -16.2271   22.8132 N   0  0  0  0  0  0  0  0  0  0  0  0
    7.8878  -15.0331   22.5403 C   0  0  1  0  0  0  0  0  0  0  0  0
    7.1042  -14.2557   21.5033 C   0  0  0  0  0  0  0  0  0  0  0  0
    7.9372  -13.5684   20.4818 C   0  0  0  0  0  0  0  0  0  0  0  0
    7.5907  -13.9777   19.0664 C   0  0  0  0  0  0  0  0  0  0  0  0
    8.5585  -13.3422   18.0933 C   0  0  0  0  0  0  0  0  0  0  0  0
    8.2457  -13.7123   16.7194 N   0  0  0  0  0  0  0  0  0  0  0  0
    8.0403  -14.2302   23.7607 C   0  0  0  0  0  0  0  0  0  0  0  0
    7.5828  -13.0539   23.7955 O   0  0  0  0  0  0  0  0  0  0  0  0
    6.7640  -12.6813   25.4675 C   0  0  0  0  0  0  0  0  0  0  0  0
    7.4822  -13.4724   26.5083 C   0  0  2  0  0  0  0  0  0  0  0  0
    7.4908  -12.6873   27.8144 C   0  0  0  0  0  0  0  0  0  0  0  0
    8.8500  -13.9460   26.1201 C   0  0  2  0  0  0  0  0  0  0  0  0
    8.6844  -14.7278   24.9083 N   0  0  0  0  0  0  0  0  0  0  0  0
    9.5848  -14.6922   27.1143 C   0  0  0  0  0  0  0  0  0  0  0  0
   10.2432  -14.1451   28.2166 O   0  0  0  0  0  0  0  0  0  0  0  0
    9.6593  -15.9430   27.0109 O   0  0  0  0  0  0  0  0  0  0  0  0
  2  1  1  1
  2  3  1  0
  3  4  1  0
  4  8  1  0
  5  4  2  0
  6  9  1  0
  6  2  1  0
  7  6  2  0
 10  9  1  0
 10 11  1  6
 11 12  1  0
 12 13  1  0
 13 14  1  0
 14 15  1  0
 16 10  1  0
 17 16  2  0
 19 18  1  6
 19 20  1  0
 19 21  1  0
 21 22  1  6
 21 23  1  0
 22 16  1  0
 23 24  1  0
 25 23  2  0
M  END
$$$$
