DKV.pdb
     RDKit          3D

 25 24  0  0  1  0  0  0  0  0999 V2000
    9.9128  -18.4447   21.1512 N   0  0  0  0  0  0  0  0  0  0  0  0
    8.9869  -17.9109   22.1057 C   0  0  1  0  0  0  0  0  0  0  0  0
    9.0995  -18.5607   23.4601 C   0  0  0  0  0  0  0  0  0  0  0  0
   10.1521  -19.6099   23.4220 C   0  0  0  0  0  0  0  0  0  0  0  0
   10.3420  -20.3998   24.3681 O   0  0  0  0  0  0  0  0  0  0  0  0
    9.1868  -16.4483   22.2304 C   0  0  0  0  0  0  0  0  0  0  0  0
   10.3474  -15.9927   22.4094 O   0  0  0  0  0  0  0  0  0  0  0  0
   10.9766  -19.7243   22.2800 O   0  0  0  0  0  0  0  0  0  0  0  0
    8.1212  -15.5104   22.1562 N   0  0  0  0  0  0  0  0  0  0  0  0
    8.4111  -14.0989   22.3579 C   0  0  1  0  0  0  0  0  0  0  0  0
    7.1850  -13.3553   21.8706 C   0  0  0  0  0  0  0  0  0  0  0  0
    6.8968  -13.5152   20.4211 C   0  0  0  0  0  0  0  0  0  0  0  0
    8.0740  -13.1505   19.5424 C   0  0  0  0  0  0  0  0  0  0  0  0
    7.6738  -13.2236   18.0858 C   0  0  0  0  0  0  0  0  0  0  0  0
    8.7673  -12.8109   17.2161 N   0  0  0  0  0  0  0  0  0  0  0  0
    8.6344  -13.8203   23.7827 C   0  0  0  0  0  0  0  0  0  0  0  0
    9.1606  -12.7264   24.1301 O   0  0  0  0  0  0  0  0  0  0  0  0
    5.9896  -13.8334   26.6158 C   0  0  0  0  0  0  0  0  0  0  0  0
    7.4027  -13.3689   26.5041 C   0  0  2  0  0  0  0  0  0  0  0  0
    7.4722  -12.2171   25.5086 C   0  0  0  0  0  0  0  0  0  0  0  0
    8.4059  -14.4412   26.2045 C   0  0  2  0  0  0  0  0  0  0  0  0
    8.2793  -14.7371   24.7891 N   0  0  0  0  0  0  0  0  0  0  0  0
    8.3182  -15.6497   26.9901 C   0  0  0  0  0  0  0  0  0  0  0  0
    8.6415  -15.7631   28.3430 O   0  0  0  0  0  0  0  0  0  0  0  0
    7.9207  -16.7093   26.4424 O   0  0  0  0  0  0  0  0  0  0  0  0
  2  1  1  6
  2  3  1  0
  3  4  1  0
  4  8  1  0
  5  4  2  0
  6  9  1  0
  6  2  1  0
  7  6  2  0
 10  9  1  0
 10 11  1  1
 11 12  1  0
 12 13  1  0
 13 14  1  0
 14 15  1  0
 16 10  1  0
 17 16  2  0
 19 18  1  6
 19 20  1  0
 19 21  1  0
 21 22  1  6
 21 23  1  0
 22 16  1  0
 23 24  1  0
 25 23  2  0
M  END
$$$$
