DKV.pdb
     RDKit          3D

 25 24  0  0  1  0  0  0  0  0999 V2000
    9.0220  -14.6861   18.6248 N   0  0  0  0  0  0  0  0  0  0  0  0
    9.8342  -15.0390   19.7513 C   0  0  1  0  0  0  0  0  0  0  0  0
   10.9268  -14.0384   20.0240 C   0  0  0  0  0  0  0  0  0  0  0  0
   11.9707  -14.1429   18.9706 C   0  0  0  0  0  0  0  0  0  0  0  0
   12.6047  -15.1963   18.7610 O   0  0  0  0  0  0  0  0  0  0  0  0
    8.9810  -15.1932   20.9525 C   0  0  0  0  0  0  0  0  0  0  0  0
    7.9133  -14.5314   21.0457 O   0  0  0  0  0  0  0  0  0  0  0  0
   12.2676  -13.0144   18.1737 O   0  0  0  0  0  0  0  0  0  0  0  0
    9.3048  -16.0652   22.0275 N   0  0  0  0  0  0  0  0  0  0  0  0
    8.3576  -16.2147   23.1218 C   0  0  1  0  0  0  0  0  0  0  0  0
    8.4298  -17.6714   23.5298 C   0  0  0  0  0  0  0  0  0  0  0  0
    7.5986  -18.0280   24.7095 C   0  0  0  0  0  0  0  0  0  0  0  0
    7.6494  -19.5038   25.0418 C   0  0  0  0  0  0  0  0  0  0  0  0
    6.7413  -19.8010   26.2140 C   0  0  0  0  0  0  0  0  0  0  0  0
    6.7102  -21.2271   26.5100 N   0  0  0  0  0  0  0  0  0  0  0  0
    8.7402  -15.3571   24.2512 C   0  0  0  0  0  0  0  0  0  0  0  0
    9.9575  -15.2485   24.5686 O   0  0  0  0  0  0  0  0  0  0  0  0
    7.2580  -11.6415   27.1698 C   0  0  0  0  0  0  0  0  0  0  0  0
    7.0346  -12.7441   26.1904 C   0  0  2  0  0  0  0  0  0  0  0  0
    5.7006  -13.4165   26.4916 C   0  0  0  0  0  0  0  0  0  0  0  0
    8.1559  -13.7315   26.0731 C   0  0  2  0  0  0  0  0  0  0  0  0
    7.7903  -14.6416   25.0030 N   0  0  0  0  0  0  0  0  0  0  0  0
    8.5054  -14.4615   27.2690 C   0  0  0  0  0  0  0  0  0  0  0  0
    8.3250  -15.8314   27.4651 O   0  0  0  0  0  0  0  0  0  0  0  0
    9.0181  -13.8436   28.2365 O   0  0  0  0  0  0  0  0  0  0  0  0
  2  1  1  6
  2  3  1  0
  3  4  1  0
  4  8  1  0
  5  4  2  0
  6  9  1  0
  6  2  1  0
  7  6  2  0
 10  9  1  0
 10 11  1  1
 11 12  1  0
 12 13  1  0
 13 14  1  0
 14 15  1  0
 16 10  1  0
 17 16  2  0
 19 18  1  1
 19 20  1  0
 19 21  1  0
 21 22  1  6
 21 23  1  0
 22 16  1  0
 23 24  1  0
 25 23  2  0
M  END
$$$$
