DKV.pdb
     RDKit          3D

 25 24  0  0  1  0  0  0  0  0999 V2000
    9.6244  -16.9519   19.8169 N   0  0  0  0  0  0  0  0  0  0  0  0
    8.4299  -16.1607   19.8376 C   0  0  1  0  0  0  0  0  0  0  0  0
    7.4174  -16.5989   18.8118 C   0  0  0  0  0  0  0  0  0  0  0  0
    8.0328  -16.5625   17.4589 C   0  0  0  0  0  0  0  0  0  0  0  0
    7.7848  -15.6582   16.6367 O   0  0  0  0  0  0  0  0  0  0  0  0
    7.8272  -16.2026   21.1902 C   0  0  0  0  0  0  0  0  0  0  0  0
    6.7516  -15.5853   21.4108 O   0  0  0  0  0  0  0  0  0  0  0  0
    8.9298  -17.5855   17.0770 O   0  0  0  0  0  0  0  0  0  0  0  0
    8.4051  -16.9161   22.2754 N   0  0  0  0  0  0  0  0  0  0  0  0
    7.7804  -16.8294   23.5866 C   0  0  1  0  0  0  0  0  0  0  0  0
    8.1593  -18.1070   24.3061 C   0  0  0  0  0  0  0  0  0  0  0  0
    7.6991  -18.1850   25.7175 C   0  0  0  0  0  0  0  0  0  0  0  0
    8.1868  -19.4290   26.4284 C   0  0  0  0  0  0  0  0  0  0  0  0
    7.7446  -19.4046   27.8745 C   0  0  0  0  0  0  0  0  0  0  0  0
    8.1621  -20.6117   28.5751 N   0  0  0  0  0  0  0  0  0  0  0  0
    8.2941  -15.6668   24.3229 C   0  0  0  0  0  0  0  0  0  0  0  0
    9.5208  -15.3762   24.2538 O   0  0  0  0  0  0  0  0  0  0  0  0
    7.1417  -11.2686   26.1215 C   0  0  0  0  0  0  0  0  0  0  0  0
    6.8160  -12.6431   25.6425 C   0  0  2  0  0  0  0  0  0  0  0  0
    5.5378  -13.1188   26.3226 C   0  0  0  0  0  0  0  0  0  0  0  0
    7.9281  -13.6409   25.7597 C   0  0  2  0  0  0  0  0  0  0  0  0
    7.4609  -14.8532   25.1124 N   0  0  0  0  0  0  0  0  0  0  0  0
    8.4081  -13.9241   27.0919 C   0  0  0  0  0  0  0  0  0  0  0  0
    9.2866  -13.1247   27.8247 O   0  0  0  0  0  0  0  0  0  0  0  0
    8.0233  -14.9708   27.6724 O   0  0  0  0  0  0  0  0  0  0  0  0
  2  1  1  1
  2  3  1  0
  3  4  1  0
  4  8  1  0
  5  4  2  0
  6  9  1  0
  6  2  1  0
  7  6  2  0
 10  9  1  0
 10 11  1  1
 11 12  1  0
 12 13  1  0
 13 14  1  0
 14 15  1  0
 16 10  1  0
 17 16  2  0
 19 18  1  1
 19 20  1  0
 19 21  1  0
 21 22  1  1
 21 23  1  0
 22 16  1  0
 23 24  1  0
 25 23  2  0
M  END
$$$$
