DKV.pdb
     RDKit          3D

 25 24  0  0  1  0  0  0  0  0999 V2000
    8.9135  -17.1556   20.2112 N   0  0  0  0  0  0  0  0  0  0  0  0
    8.2129  -15.9144   20.3593 C   0  0  1  0  0  0  0  0  0  0  0  0
    7.1321  -15.7233   19.3275 C   0  0  0  0  0  0  0  0  0  0  0  0
    7.7275  -15.7862   17.9666 C   0  0  0  0  0  0  0  0  0  0  0  0
    8.8174  -16.3484   17.7399 O   0  0  0  0  0  0  0  0  0  0  0  0
    7.6319  -15.8288   21.7193 C   0  0  0  0  0  0  0  0  0  0  0  0
    6.8499  -14.8829   22.0027 O   0  0  0  0  0  0  0  0  0  0  0  0
    7.0459  -15.1880   16.8829 O   0  0  0  0  0  0  0  0  0  0  0  0
    7.9113  -16.7743   22.7434 N   0  0  0  0  0  0  0  0  0  0  0  0
    7.3334  -16.5730   24.0634 C   0  0  1  0  0  0  0  0  0  0  0  0
    7.4213  -17.9159   24.7581 C   0  0  0  0  0  0  0  0  0  0  0  0
    6.4673  -18.9391   24.2553 C   0  0  0  0  0  0  0  0  0  0  0  0
    6.6352  -20.2835   24.9301 C   0  0  0  0  0  0  0  0  0  0  0  0
    5.6145  -21.2619   24.3934 C   0  0  0  0  0  0  0  0  0  0  0  0
    5.8142  -22.5928   24.9515 N   0  0  0  0  0  0  0  0  0  0  0  0
    8.1017  -15.5692   24.8114 C   0  0  0  0  0  0  0  0  0  0  0  0
    9.3619  -15.5617   24.7331 O   0  0  0  0  0  0  0  0  0  0  0  0
    6.1372  -12.4234   27.1746 C   0  0  0  0  0  0  0  0  0  0  0  0
    7.3630  -12.3505   26.3277 C   0  0  2  0  0  0  0  0  0  0  0  0
    6.9702  -11.9307   24.9163 C   0  0  0  0  0  0  0  0  0  0  0  0
    8.2206  -13.5795   26.3378 C   0  0  2  0  0  0  0  0  0  0  0  0
    7.4796  -14.6022   25.6221 N   0  0  0  0  0  0  0  0  0  0  0  0
    8.6445  -14.0644   27.6303 C   0  0  0  0  0  0  0  0  0  0  0  0
    9.5482  -13.4249   28.4801 O   0  0  0  0  0  0  0  0  0  0  0  0
    8.1810  -15.1515   28.0593 O   0  0  0  0  0  0  0  0  0  0  0  0
  2  1  1  6
  2  3  1  0
  3  4  1  0
  4  8  1  0
  5  4  2  0
  6  9  1  0
  6  2  1  0
  7  6  2  0
 10  9  1  0
 10 11  1  1
 11 12  1  0
 12 13  1  0
 13 14  1  0
 14 15  1  0
 16 10  1  0
 17 16  2  0
 19 18  1  1
 19 20  1  0
 19 21  1  0
 21 22  1  1
 21 23  1  0
 22 16  1  0
 23 24  1  0
 25 23  2  0
M  END
$$$$
