DKV.pdb
     RDKit          3D

 25 24  0  0  1  0  0  0  0  0999 V2000
   10.4437  -18.1009   20.9505 N   0  0  0  0  0  0  0  0  0  0  0  0
   11.0270  -16.9138   21.5017 C   0  0  1  0  0  0  0  0  0  0  0  0
   10.9646  -15.7380   20.5621 C   0  0  0  0  0  0  0  0  0  0  0  0
   11.8759  -15.9727   19.4110 C   0  0  0  0  0  0  0  0  0  0  0  0
   12.7833  -16.8277   19.4413 O   0  0  0  0  0  0  0  0  0  0  0  0
   10.3562  -16.5748   22.7783 C   0  0  0  0  0  0  0  0  0  0  0  0
   10.3634  -15.3833   23.1869 O   0  0  0  0  0  0  0  0  0  0  0  0
   11.7214  -15.2033   18.2358 O   0  0  0  0  0  0  0  0  0  0  0  0
    9.6895  -17.5376   23.5841 N   0  0  0  0  0  0  0  0  0  0  0  0
    8.9736  -17.0891   24.7686 C   0  0  1  0  0  0  0  0  0  0  0  0
    8.0188  -18.2111   25.1194 C   0  0  0  0  0  0  0  0  0  0  0  0
    6.9078  -18.4070   24.1514 C   0  0  0  0  0  0  0  0  0  0  0  0
    6.6765  -19.8624   23.8063 C   0  0  0  0  0  0  0  0  0  0  0  0
    5.5958  -19.9786   22.7547 C   0  0  0  0  0  0  0  0  0  0  0  0
    5.3184  -21.3724   22.4340 N   0  0  0  0  0  0  0  0  0  0  0  0
    9.9097  -16.8609   25.8773 C   0  0  0  0  0  0  0  0  0  0  0  0
   10.9746  -17.5359   25.9443 O   0  0  0  0  0  0  0  0  0  0  0  0
    9.0475  -13.9271   28.9868 C   0  0  0  0  0  0  0  0  0  0  0  0
   10.3773  -14.2269   28.3811 C   0  0  2  0  0  0  0  0  0  0  0  0
   10.6358  -13.2532   27.2377 C   0  0  0  0  0  0  0  0  0  0  0  0
   10.5860  -15.6534   27.9720 C   0  0  2  0  0  0  0  0  0  0  0  0
    9.6628  -15.9060   26.8806 N   0  0  0  0  0  0  0  0  0  0  0  0
   10.4433  -16.6523   29.0049 C   0  0  0  0  0  0  0  0  0  0  0  0
   11.3625  -16.9013   30.0251 O   0  0  0  0  0  0  0  0  0  0  0  0
    9.4168  -17.3781   29.0182 O   0  0  0  0  0  0  0  0  0  0  0  0
  2  1  1  6
  2  3  1  0
  3  4  1  0
  4  8  1  0
  5  4  2  0
  6  9  1  0
  6  2  1  0
  7  6  2  0
 10  9  1  0
 10 11  1  1
 11 12  1  0
 12 13  1  0
 13 14  1  0
 14 15  1  0
 16 10  1  0
 17 16  2  0
 19 18  1  6
 19 20  1  0
 19 21  1  0
 21 22  1  6
 21 23  1  0
 22 16  1  0
 23 24  1  0
 25 23  2  0
M  END
$$$$
