DKV.pdb
     RDKit          3D

 25 24  0  0  1  0  0  0  0  0999 V2000
   11.0531  -17.2486   19.6584 N   0  0  0  0  0  0  0  0  0  0  0  0
   11.2600  -17.8568   20.9393 C   0  0  1  0  0  0  0  0  0  0  0  0
   12.7148  -17.9422   21.3207 C   0  0  0  0  0  0  0  0  0  0  0  0
   13.4943  -16.9514   20.5325 C   0  0  0  0  0  0  0  0  0  0  0  0
   12.9628  -16.2030   19.6882 O   0  0  0  0  0  0  0  0  0  0  0  0
   10.5110  -17.1070   21.9743 C   0  0  0  0  0  0  0  0  0  0  0  0
   10.3461  -15.8649   21.8447 O   0  0  0  0  0  0  0  0  0  0  0  0
   14.8889  -16.8464   20.7350 O   0  0  0  0  0  0  0  0  0  0  0  0
    9.9548  -17.7227   23.1285 N   0  0  0  0  0  0  0  0  0  0  0  0
    9.1398  -16.9220   24.0294 C   0  0  1  0  0  0  0  0  0  0  0  0
    7.8974  -17.7452   24.2984 C   0  0  0  0  0  0  0  0  0  0  0  0
    8.1488  -19.1919   24.5301 C   0  0  0  0  0  0  0  0  0  0  0  0
    6.8761  -19.9872   24.7263 C   0  0  0  0  0  0  0  0  0  0  0  0
    7.2109  -21.4192   25.0788 C   0  0  0  0  0  0  0  0  0  0  0  0
    6.0040  -22.2074   25.2900 N   0  0  0  0  0  0  0  0  0  0  0  0
    9.8590  -16.6726   25.2856 C   0  0  0  0  0  0  0  0  0  0  0  0
   10.7964  -17.4441   25.6323 O   0  0  0  0  0  0  0  0  0  0  0  0
   10.6086  -13.4432   28.9966 C   0  0  0  0  0  0  0  0  0  0  0  0
    9.9385  -13.9248   27.7541 C   0  0  2  0  0  0  0  0  0  0  0  0
    8.4461  -13.6299   27.8455 C   0  0  0  0  0  0  0  0  0  0  0  0
   10.2152  -15.3522   27.3910 C   0  0  2  0  0  0  0  0  0  0  0  0
    9.5400  -15.5924   26.1287 N   0  0  0  0  0  0  0  0  0  0  0  0
    9.8490  -16.3525   28.3660 C   0  0  0  0  0  0  0  0  0  0  0  0
   10.6202  -16.7354   29.4644 O   0  0  0  0  0  0  0  0  0  0  0  0
    8.7492  -16.9501   28.2476 O   0  0  0  0  0  0  0  0  0  0  0  0
  2  1  1  6
  2  3  1  0
  3  4  1  0
  4  8  1  0
  5  4  2  0
  6  9  1  0
  6  2  1  0
  7  6  2  0
 10  9  1  0
 10 11  1  1
 11 12  1  0
 12 13  1  0
 13 14  1  0
 14 15  1  0
 16 10  1  0
 17 16  2  0
 19 18  1  1
 19 20  1  0
 19 21  1  0
 21 22  1  6
 21 23  1  0
 22 16  1  0
 23 24  1  0
 25 23  2  0
M  END
$$$$
