DKV.pdb
     RDKit          3D

 25 24  0  0  1  0  0  0  0  0999 V2000
    9.1303  -17.8740   20.2330 N   0  0  0  0  0  0  0  0  0  0  0  0
    8.0884  -16.8903   20.2369 C   0  0  1  0  0  0  0  0  0  0  0  0
    6.9824  -17.2024   19.2629 C   0  0  0  0  0  0  0  0  0  0  0  0
    7.5373  -17.2681   17.8851 C   0  0  0  0  0  0  0  0  0  0  0  0
    8.6518  -17.7698   17.6374 O   0  0  0  0  0  0  0  0  0  0  0  0
    7.5333  -16.7570   21.6038 C   0  0  0  0  0  0  0  0  0  0  0  0
    6.5447  -16.0020   21.8023 O   0  0  0  0  0  0  0  0  0  0  0  0
    6.7865  -16.7431   16.8092 O   0  0  0  0  0  0  0  0  0  0  0  0
    8.0629  -17.4486   22.7272 N   0  0  0  0  0  0  0  0  0  0  0  0
    7.4731  -17.2181   24.0372 C   0  0  1  0  0  0  0  0  0  0  0  0
    7.8514  -18.4224   24.8742 C   0  0  0  0  0  0  0  0  0  0  0  0
    7.3914  -18.3664   26.2867 C   0  0  0  0  0  0  0  0  0  0  0  0
    7.7402  -19.6137   27.0699 C   0  0  0  0  0  0  0  0  0  0  0  0
    7.3008  -19.4599   28.5088 C   0  0  0  0  0  0  0  0  0  0  0  0
    7.6320  -20.6431   29.2916 N   0  0  0  0  0  0  0  0  0  0  0  0
    8.0226  -15.9958   24.6386 C   0  0  0  0  0  0  0  0  0  0  0  0
    9.2574  -15.7517   24.5393 O   0  0  0  0  0  0  0  0  0  0  0  0
    5.9430  -12.4429   25.0102 C   0  0  0  0  0  0  0  0  0  0  0  0
    6.5928  -12.9841   26.2390 C   0  0  2  0  0  0  0  0  0  0  0  0
    6.9533  -11.8275   27.1636 C   0  0  0  0  0  0  0  0  0  0  0  0
    7.7525  -13.9019   25.9971 C   0  0  2  0  0  0  0  0  0  0  0  0
    7.2154  -15.0737   25.3296 N   0  0  0  0  0  0  0  0  0  0  0  0
    8.5309  -14.2824   27.1523 C   0  0  0  0  0  0  0  0  0  0  0  0
    8.3636  -15.4531   27.8935 O   0  0  0  0  0  0  0  0  0  0  0  0
    9.4458  -13.5191   27.5535 O   0  0  0  0  0  0  0  0  0  0  0  0
  2  1  1  1
  2  3  1  0
  3  4  1  0
  4  8  1  0
  5  4  2  0
  6  9  1  0
  6  2  1  0
  7  6  2  0
 10  9  1  0
 10 11  1  1
 11 12  1  0
 12 13  1  0
 13 14  1  0
 14 15  1  0
 16 10  1  0
 17 16  2  0
 19 18  1  6
 19 20  1  0
 19 21  1  0
 21 22  1  1
 21 23  1  0
 22 16  1  0
 23 24  1  0
 25 23  2  0
M  END
$$$$
