DKV.pdb
     RDKit          3D

 25 24  0  0  1  0  0  0  0  0999 V2000
    6.1655  -18.0290   23.1871 N   0  0  0  0  0  0  0  0  0  0  0  0
    7.5384  -18.4040   23.0204 C   0  0  1  0  0  0  0  0  0  0  0  0
    7.7619  -19.3009   21.8309 C   0  0  0  0  0  0  0  0  0  0  0  0
    7.0726  -20.5997   22.0513 C   0  0  0  0  0  0  0  0  0  0  0  0
    6.0070  -20.6895   22.6930 O   0  0  0  0  0  0  0  0  0  0  0  0
    8.3764  -17.1884   22.8993 C   0  0  0  0  0  0  0  0  0  0  0  0
    9.6315  -17.2949   22.9110 O   0  0  0  0  0  0  0  0  0  0  0  0
    7.6365  -21.7828   21.5231 O   0  0  0  0  0  0  0  0  0  0  0  0
    7.8331  -15.8816   22.7660 N   0  0  0  0  0  0  0  0  0  0  0  0
    8.7410  -14.7527   22.6304 C   0  0  1  0  0  0  0  0  0  0  0  0
    8.1104  -13.8418   21.5979 C   0  0  0  0  0  0  0  0  0  0  0  0
    8.3001  -14.2750   20.1886 C   0  0  0  0  0  0  0  0  0  0  0  0
    7.9574  -13.1922   19.1880 C   0  0  0  0  0  0  0  0  0  0  0  0
    8.1349  -13.7150   17.7800 C   0  0  0  0  0  0  0  0  0  0  0  0
    7.6976  -12.7358   16.7939 N   0  0  0  0  0  0  0  0  0  0  0  0
    8.8735  -14.0451   23.9107 C   0  0  0  0  0  0  0  0  0  0  0  0
    9.6174  -13.0278   23.9879 O   0  0  0  0  0  0  0  0  0  0  0  0
    6.0012  -13.7170   26.8406 C   0  0  0  0  0  0  0  0  0  0  0  0
    7.3219  -13.0317   26.7358 C   0  0  2  0  0  0  0  0  0  0  0  0
    7.1954  -11.8470   25.7855 C   0  0  0  0  0  0  0  0  0  0  0  0
    8.4770  -13.9204   26.3867 C   0  0  2  0  0  0  0  0  0  0  0  0
    8.1940  -14.4620   25.0699 N   0  0  0  0  0  0  0  0  0  0  0  0
    8.7870  -14.9782   27.3195 C   0  0  0  0  0  0  0  0  0  0  0  0
    8.7326  -16.3451   27.0434 O   0  0  0  0  0  0  0  0  0  0  0  0
    9.1397  -14.6802   28.4890 O   0  0  0  0  0  0  0  0  0  0  0  0
  2  1  1  6
  2  3  1  0
  3  4  1  0
  4  8  1  0
  5  4  2  0
  6  9  1  0
  6  2  1  0
  7  6  2  0
 10  9  1  0
 10 11  1  6
 11 12  1  0
 12 13  1  0
 13 14  1  0
 14 15  1  0
 16 10  1  0
 17 16  2  0
 19 18  1  6
 19 20  1  0
 19 21  1  0
 21 22  1  6
 21 23  1  0
 22 16  1  0
 23 24  1  0
 25 23  2  0
M  END
$$$$
