DKV.pdb
     RDKit          3D

 25 24  0  0  1  0  0  0  0  0999 V2000
   11.1911  -18.0791   21.1622 N   0  0  0  0  0  0  0  0  0  0  0  0
   11.8826  -17.0959   21.9422 C   0  0  1  0  0  0  0  0  0  0  0  0
   13.0050  -16.4314   21.1886 C   0  0  0  0  0  0  0  0  0  0  0  0
   14.0655  -17.4308   20.8934 C   0  0  0  0  0  0  0  0  0  0  0  0
   14.0597  -18.1241   19.8568 O   0  0  0  0  0  0  0  0  0  0  0  0
   10.9230  -16.0740   22.4211 C   0  0  0  0  0  0  0  0  0  0  0  0
   11.3524  -15.0411   23.0003 O   0  0  0  0  0  0  0  0  0  0  0  0
   15.1215  -17.6142   21.8143 O   0  0  0  0  0  0  0  0  0  0  0  0
    9.5158  -16.1946   22.2591 N   0  0  0  0  0  0  0  0  0  0  0  0
    8.6561  -15.1361   22.7664 C   0  0  1  0  0  0  0  0  0  0  0  0
    7.3714  -15.2353   21.9706 C   0  0  0  0  0  0  0  0  0  0  0  0
    7.1610  -14.1370   20.9911 C   0  0  0  0  0  0  0  0  0  0  0  0
    8.0159  -14.2819   19.7506 C   0  0  0  0  0  0  0  0  0  0  0  0
    7.8995  -13.0403   18.8950 C   0  0  0  0  0  0  0  0  0  0  0  0
    8.8087  -13.0951   17.7580 N   0  0  0  0  0  0  0  0  0  0  0  0
    8.3795  -15.3410   24.1944 C   0  0  0  0  0  0  0  0  0  0  0  0
    8.6372  -16.4566   24.7266 O   0  0  0  0  0  0  0  0  0  0  0  0
    5.4522  -13.0692   26.3742 C   0  0  0  0  0  0  0  0  0  0  0  0
    6.8450  -13.2681   26.8696 C   0  0  2  0  0  0  0  0  0  0  0  0
    7.6686  -12.0249   26.5560 C   0  0  0  0  0  0  0  0  0  0  0  0
    7.5145  -14.5262   26.4060 C   0  0  2  0  0  0  0  0  0  0  0  0
    7.8318  -14.3285   25.0033 N   0  0  0  0  0  0  0  0  0  0  0  0
    6.7853  -15.7578   26.5973 C   0  0  0  0  0  0  0  0  0  0  0  0
    6.7433  -16.5006   27.7781 O   0  0  0  0  0  0  0  0  0  0  0  0
    6.1204  -16.2314   25.6411 O   0  0  0  0  0  0  0  0  0  0  0  0
  2  1  1  6
  2  3  1  0
  3  4  1  0
  4  8  1  0
  5  4  2  0
  6  9  1  0
  6  2  1  0
  7  6  2  0
 10  9  1  0
 10 11  1  6
 11 12  1  0
 12 13  1  0
 13 14  1  0
 14 15  1  0
 16 10  1  0
 17 16  2  0
 19 18  1  6
 19 20  1  0
 19 21  1  0
 21 22  1  6
 21 23  1  0
 22 16  1  0
 23 24  1  0
 25 23  2  0
M  END
$$$$
