DKV.pdb
     RDKit          3D

 25 24  0  0  1  0  0  0  0  0999 V2000
    9.5876  -17.7420   20.5251 N   0  0  0  0  0  0  0  0  0  0  0  0
    8.9441  -16.4621   20.4898 C   0  0  1  0  0  0  0  0  0  0  0  0
    7.9914  -16.3155   19.3322 C   0  0  0  0  0  0  0  0  0  0  0  0
    8.6999  -16.6269   18.0628 C   0  0  0  0  0  0  0  0  0  0  0  0
    9.0555  -17.7841   17.7631 O   0  0  0  0  0  0  0  0  0  0  0  0
    8.2272  -16.2290   21.7651 C   0  0  0  0  0  0  0  0  0  0  0  0
    7.6172  -15.1418   21.9454 O   0  0  0  0  0  0  0  0  0  0  0  0
    8.9905  -15.5825   17.1563 O   0  0  0  0  0  0  0  0  0  0  0  0
    8.1863  -17.1833   22.8179 N   0  0  0  0  0  0  0  0  0  0  0  0
    7.4643  -16.8546   24.0376 C   0  0  1  0  0  0  0  0  0  0  0  0
    7.2224  -18.1749   24.7388 C   0  0  0  0  0  0  0  0  0  0  0  0
    6.5345  -19.2008   23.9116 C   0  0  0  0  0  0  0  0  0  0  0  0
    6.4314  -20.5432   24.6030 C   0  0  0  0  0  0  0  0  0  0  0  0
    5.6478  -21.5088   23.7422 C   0  0  0  0  0  0  0  0  0  0  0  0
    5.6377  -22.8452   24.3223 N   0  0  0  0  0  0  0  0  0  0  0  0
    8.2736  -15.9738   24.8903 C   0  0  0  0  0  0  0  0  0  0  0  0
    9.5329  -16.0072   24.8053 O   0  0  0  0  0  0  0  0  0  0  0  0
    6.4735  -12.9097   27.4833 C   0  0  0  0  0  0  0  0  0  0  0  0
    7.7546  -12.9023   26.7193 C   0  0  2  0  0  0  0  0  0  0  0  0
    7.5043  -12.3271   25.3305 C   0  0  0  0  0  0  0  0  0  0  0  0
    8.4766  -14.2147   26.6700 C   0  0  2  0  0  0  0  0  0  0  0  0
    7.6921  -15.0819   25.8099 N   0  0  0  0  0  0  0  0  0  0  0  0
    8.7449  -14.8558   27.9358 C   0  0  0  0  0  0  0  0  0  0  0  0
    9.6342  -14.3933   28.9069 O   0  0  0  0  0  0  0  0  0  0  0  0
    8.1449  -15.9230   28.2218 O   0  0  0  0  0  0  0  0  0  0  0  0
  2  1  1  1
  2  3  1  0
  3  4  1  0
  4  8  1  0
  5  4  2  0
  6  9  1  0
  6  2  1  0
  7  6  2  0
 10  9  1  0
 10 11  1  1
 11 12  1  0
 12 13  1  0
 13 14  1  0
 14 15  1  0
 16 10  1  0
 17 16  2  0
 19 18  1  6
 19 20  1  0
 19 21  1  0
 21 22  1  6
 21 23  1  0
 22 16  1  0
 23 24  1  0
 25 23  2  0
M  END
$$$$
