DKV.pdb
     RDKit          3D

 25 24  0  0  1  0  0  0  0  0999 V2000
    8.7150  -13.9927   18.3937 N   0  0  0  0  0  0  0  0  0  0  0  0
    9.4709  -14.5473   19.4774 C   0  0  1  0  0  0  0  0  0  0  0  0
   10.6952  -13.7371   19.8147 C   0  0  0  0  0  0  0  0  0  0  0  0
   11.8485  -14.2212   19.0110 C   0  0  0  0  0  0  0  0  0  0  0  0
   11.7678  -15.2106   18.2560 O   0  0  0  0  0  0  0  0  0  0  0  0
    8.6067  -14.6762   20.6737 C   0  0  0  0  0  0  0  0  0  0  0  0
    7.9047  -13.6971   21.0417 O   0  0  0  0  0  0  0  0  0  0  0  0
   13.0875  -13.5475   19.0997 O   0  0  0  0  0  0  0  0  0  0  0  0
    8.5216  -15.8673   21.4448 N   0  0  0  0  0  0  0  0  0  0  0  0
    7.6234  -15.9021   22.5889 C   0  0  1  0  0  0  0  0  0  0  0  0
    7.2943  -17.3642   22.8069 C   0  0  0  0  0  0  0  0  0  0  0  0
    6.1592  -17.8735   21.9932 C   0  0  0  0  0  0  0  0  0  0  0  0
    6.5762  -18.9380   21.0013 C   0  0  0  0  0  0  0  0  0  0  0  0
    5.4121  -19.2912   20.1028 C   0  0  0  0  0  0  0  0  0  0  0  0
    5.7827  -20.3168   19.1367 N   0  0  0  0  0  0  0  0  0  0  0  0
    8.2878  -15.3538   23.7786 C   0  0  0  0  0  0  0  0  0  0  0  0
    9.5311  -15.5144   23.9292 O   0  0  0  0  0  0  0  0  0  0  0  0
    7.9990  -11.9651   27.3433 C   0  0  0  0  0  0  0  0  0  0  0  0
    7.4488  -12.7980   26.2350 C   0  0  2  0  0  0  0  0  0  0  0  0
    5.9831  -13.1030   26.5201 C   0  0  0  0  0  0  0  0  0  0  0  0
    8.2347  -14.0328   25.9129 C   0  0  2  0  0  0  0  0  0  0  0  0
    7.5833  -14.6466   24.7700 N   0  0  0  0  0  0  0  0  0  0  0  0
    8.4053  -14.9903   26.9802 C   0  0  0  0  0  0  0  0  0  0  0  0
    9.3527  -14.9063   28.0016 O   0  0  0  0  0  0  0  0  0  0  0  0
    7.6547  -15.9978   27.0256 O   0  0  0  0  0  0  0  0  0  0  0  0
  2  1  1  6
  2  3  1  0
  3  4  1  0
  4  8  1  0
  5  4  2  0
  6  9  1  0
  6  2  1  0
  7  6  2  0
 10  9  1  0
 10 11  1  1
 11 12  1  0
 12 13  1  0
 13 14  1  0
 14 15  1  0
 16 10  1  0
 17 16  2  0
 19 18  1  1
 19 20  1  0
 19 21  1  0
 21 22  1  6
 21 23  1  0
 22 16  1  0
 23 24  1  0
 25 23  2  0
M  END
$$$$
