DKV.pdb
     RDKit          3D

 25 24  0  0  1  0  0  0  0  0999 V2000
    9.8931  -18.0657   19.9063 N   0  0  0  0  0  0  0  0  0  0  0  0
   10.5166  -17.2223   20.8826 C   0  0  1  0  0  0  0  0  0  0  0  0
   11.3054  -16.0958   20.2677 C   0  0  0  0  0  0  0  0  0  0  0  0
   12.5516  -16.6347   19.6617 C   0  0  0  0  0  0  0  0  0  0  0  0
   13.1331  -17.6408   20.1141 O   0  0  0  0  0  0  0  0  0  0  0  0
    9.4888  -16.6760   21.7991 C   0  0  0  0  0  0  0  0  0  0  0  0
    8.8679  -15.6268   21.4821 O   0  0  0  0  0  0  0  0  0  0  0  0
   13.1096  -15.9906   18.5345 O   0  0  0  0  0  0  0  0  0  0  0  0
    9.1554  -17.2823   23.0409 N   0  0  0  0  0  0  0  0  0  0  0  0
    8.0125  -16.7769   23.7861 C   0  0  1  0  0  0  0  0  0  0  0  0
    7.4101  -17.9815   24.4787 C   0  0  0  0  0  0  0  0  0  0  0  0
    6.6802  -18.9141   23.5802 C   0  0  0  0  0  0  0  0  0  0  0  0
    6.0576  -20.0787   24.3198 C   0  0  0  0  0  0  0  0  0  0  0  0
    5.4506  -21.0517   23.3339 C   0  0  0  0  0  0  0  0  0  0  0  0
    4.8351  -22.1815   24.0175 N   0  0  0  0  0  0  0  0  0  0  0  0
    8.4470  -15.7894   24.7829 C   0  0  0  0  0  0  0  0  0  0  0  0
    9.5854  -15.9010   25.3175 O   0  0  0  0  0  0  0  0  0  0  0  0
    7.3551  -11.3494   26.7730 C   0  0  0  0  0  0  0  0  0  0  0  0
    6.9988  -12.6317   26.0994 C   0  0  2  0  0  0  0  0  0  0  0  0
    5.7140  -13.1768   26.7116 C   0  0  0  0  0  0  0  0  0  0  0  0
    8.0904  -13.6578   26.0604 C   0  0  2  0  0  0  0  0  0  0  0  0
    7.6332  -14.7090   25.1699 N   0  0  0  0  0  0  0  0  0  0  0  0
    8.5102  -14.2072   27.3281 C   0  0  0  0  0  0  0  0  0  0  0  0
    9.4762  -13.6559   28.1712 O   0  0  0  0  0  0  0  0  0  0  0  0
    7.9827  -15.2717   27.7397 O   0  0  0  0  0  0  0  0  0  0  0  0
  2  1  1  6
  2  3  1  0
  3  4  1  0
  4  8  1  0
  5  4  2  0
  6  9  1  0
  6  2  1  0
  7  6  2  0
 10  9  1  0
 10 11  1  1
 11 12  1  0
 12 13  1  0
 13 14  1  0
 14 15  1  0
 16 10  1  0
 17 16  2  0
 19 18  1  1
 19 20  1  0
 19 21  1  0
 21 22  1  6
 21 23  1  0
 22 16  1  0
 23 24  1  0
 25 23  2  0
M  END
$$$$
