DKV.pdb
     RDKit          3D

 25 24  0  0  1  0  0  0  0  0999 V2000
   12.7455  -16.7076   20.1108 N   0  0  0  0  0  0  0  0  0  0  0  0
   12.3709  -17.4591   21.2719 C   0  0  1  0  0  0  0  0  0  0  0  0
   13.5326  -18.1787   21.9058 C   0  0  0  0  0  0  0  0  0  0  0  0
   13.7302  -19.4909   21.2353 C   0  0  0  0  0  0  0  0  0  0  0  0
   12.9161  -19.9472   20.4080 O   0  0  0  0  0  0  0  0  0  0  0  0
   11.7330  -16.5614   22.2627 C   0  0  0  0  0  0  0  0  0  0  0  0
   12.3356  -15.5203   22.6366 O   0  0  0  0  0  0  0  0  0  0  0  0
   14.8753  -20.2605   21.5405 O   0  0  0  0  0  0  0  0  0  0  0  0
   10.4522  -16.8125   22.8259 N   0  0  0  0  0  0  0  0  0  0  0  0
    9.8490  -15.8013   23.6806 C   0  0  1  0  0  0  0  0  0  0  0  0
    8.3573  -15.8949   23.4357 C   0  0  0  0  0  0  0  0  0  0  0  0
    7.7753  -14.7424   22.6989 C   0  0  0  0  0  0  0  0  0  0  0  0
    7.8822  -14.8889   21.1963 C   0  0  0  0  0  0  0  0  0  0  0  0
    7.4000  -13.6259   20.5185 C   0  0  0  0  0  0  0  0  0  0  0  0
    7.5740  -13.7020   19.0740 N   0  0  0  0  0  0  0  0  0  0  0  0
   10.1449  -16.0807   25.0919 C   0  0  0  0  0  0  0  0  0  0  0  0
   10.5702  -17.2214   25.4269 O   0  0  0  0  0  0  0  0  0  0  0  0
   10.5117  -12.8575   27.6446 C   0  0  0  0  0  0  0  0  0  0  0  0
    9.9467  -14.1053   28.2351 C   0  0  2  0  0  0  0  0  0  0  0  0
   10.3339  -14.1806   29.7072 C   0  0  0  0  0  0  0  0  0  0  0  0
   10.2735  -15.3671   27.4956 C   0  0  2  0  0  0  0  0  0  0  0  0
    9.9710  -15.1134   26.0987 N   0  0  0  0  0  0  0  0  0  0  0  0
    9.6216  -16.5729   27.9498 C   0  0  0  0  0  0  0  0  0  0  0  0
   10.1202  -17.4510   28.9132 O   0  0  0  0  0  0  0  0  0  0  0  0
    8.5090  -16.8907   27.4581 O   0  0  0  0  0  0  0  0  0  0  0  0
  2  1  1  6
  2  3  1  0
  3  4  1  0
  4  8  1  0
  5  4  2  0
  6  9  1  0
  6  2  1  0
  7  6  2  0
 10  9  1  0
 10 11  1  1
 11 12  1  0
 12 13  1  0
 13 14  1  0
 14 15  1  0
 16 10  1  0
 17 16  2  0
 19 18  1  6
 19 20  1  0
 19 21  1  0
 21 22  1  6
 21 23  1  0
 22 16  1  0
 23 24  1  0
 25 23  2  0
M  END
$$$$
