NPG.pdb
     RDKit          3D

 20 20  0  0  1  0  0  0  0  0999 V2000
   16.5979  -19.8458    4.5061 N   0  0  0  0  0  0  0  0  0  0  0  0
   17.4388  -18.8574    3.9106 C   0  0  0  0  0  0  0  0  0  0  0  0
   17.6608  -18.9891    2.6698 O   0  0  0  0  0  0  0  0  0  0  0  0
   18.0066  -17.7507    4.7203 C   0  0  0  0  0  0  0  0  0  0  0  0
   17.6112  -17.9704    6.1674 C   0  0  2  0  0  0  0  0  0  0  0  0
   16.2190  -17.9208    6.2740 N   0  0  0  0  0  0  0  0  0  0  0  0
   18.3432  -17.0073    7.0258 C   0  0  0  0  0  0  0  0  0  0  0  0
   17.7512  -15.9081    7.2805 O   0  0  0  0  0  0  0  0  0  0  0  0
   19.6371  -17.2502    7.5599 N   0  0  0  0  0  0  0  0  0  0  0  0
   20.3321  -18.5135    7.4226 C   0  0  0  0  0  0  0  0  0  0  0  0
   21.5663  -18.4163    8.2826 C   0  0  0  0  0  0  0  0  0  0  0  0
   21.7490  -16.9645    8.5401 C   0  0  0  0  0  0  0  0  0  0  0  0
   20.4193  -16.3053    8.2885 C   0  0  1  0  0  0  0  0  0  0  0  0
   20.5952  -15.0180    7.5637 C   0  0  0  0  0  0  0  0  0  0  0  0
   20.5624  -15.0153    6.3099 O   0  0  0  0  0  0  0  0  0  0  0  0
   20.7996  -13.7845    8.2252 N   0  0  0  0  0  0  0  0  0  0  0  0
   21.0629  -12.5412    7.5300 C   0  0  0  0  0  0  0  0  0  0  0  0
   19.9255  -12.1280    6.6918 C   0  0  0  0  0  0  0  0  0  0  0  0
   20.0326  -11.0460    6.0565 O   0  0  0  0  0  0  0  0  0  0  0  0
   18.7560  -12.8411    6.5552 O   0  0  0  0  0  0  0  0  0  0  0  0
  2  1  1  0
  3  2  2  0
  4  2  1  0
  5  4  1  0
  5  6  1  6
  7  5  1  0
  7  8  2  0
  9  7  1  0
 10  9  1  0
 11 12  1  0
 11 10  1  0
 12 13  1  0
 13  9  1  0
 13 14  1  6
 14 15  2  0
 14 16  1  0
 16 17  1  0
 17 18  1  0
 18 20  1  0
 19 18  2  0
M  END
$$$$
