NPG.pdb
     RDKit          3D

 20 20  0  0  1  0  0  0  0  0999 V2000
   21.7593  -17.8968  -14.6783 N   0  0  0  0  0  0  0  0  0  0  0  0
   20.9371  -19.0612  -14.5956 C   0  0  0  0  0  0  0  0  0  0  0  0
   20.3416  -19.3996  -15.6619 O   0  0  0  0  0  0  0  0  0  0  0  0
   20.8054  -19.8130  -13.3226 C   0  0  0  0  0  0  0  0  0  0  0  0
   21.9210  -20.8376  -13.2591 C   0  0  2  0  0  0  0  0  0  0  0  0
   21.7823  -21.7317  -14.3237 N   0  0  0  0  0  0  0  0  0  0  0  0
   21.9376  -21.4594  -11.9125 C   0  0  0  0  0  0  0  0  0  0  0  0
   21.0497  -22.3442  -11.6835 O   0  0  0  0  0  0  0  0  0  0  0  0
   22.8723  -21.1210  -10.8975 N   0  0  0  0  0  0  0  0  0  0  0  0
   23.9284  -20.1467  -11.0790 C   0  0  0  0  0  0  0  0  0  0  0  0
   24.7979  -20.2271   -9.8503 C   0  0  0  0  0  0  0  0  0  0  0  0
   23.9745  -20.9338   -8.8353 C   0  0  0  0  0  0  0  0  0  0  0  0
   22.9014  -21.6778   -9.5843 C   0  0  1  0  0  0  0  0  0  0  0  0
   21.5945  -21.5716   -8.8814 C   0  0  0  0  0  0  0  0  0  0  0  0
   20.7835  -20.6823   -9.2340 O   0  0  0  0  0  0  0  0  0  0  0  0
   21.2174  -22.4328   -7.8244 N   0  0  0  0  0  0  0  0  0  0  0  0
   19.9239  -22.3780   -7.1745 C   0  0  0  0  0  0  0  0  0  0  0  0
   19.1193  -23.5800   -7.4483 C   0  0  0  0  0  0  0  0  0  0  0  0
   19.1680  -24.5174   -6.6089 O   0  0  0  0  0  0  0  0  0  0  0  0
   18.3195  -23.7491   -8.5558 O   0  0  0  0  0  0  0  0  0  0  0  0
  2  1  1  0
  3  2  2  0
  4  2  1  0
  5  4  1  0
  5  6  1  6
  7  5  1  0
  7  8  2  0
  9  7  1  0
 10  9  1  0
 11 12  1  0
 11 10  1  0
 12 13  1  0
 13  9  1  0
 13 14  1  1
 14 15  2  0
 14 16  1  0
 16 17  1  0
 17 18  1  0
 18 20  1  0
 19 18  2  0
M  END
$$$$
