NPG.pdb
     RDKit          3D

 20 20  0  0  1  0  0  0  0  0999 V2000
   21.8037  -18.5380  -18.1930 N   0  0  0  0  0  0  0  0  0  0  0  0
   23.1190  -18.6030  -17.6413 C   0  0  0  0  0  0  0  0  0  0  0  0
   24.0403  -18.0763  -18.3341 O   0  0  0  0  0  0  0  0  0  0  0  0
   23.3652  -19.2550  -16.3309 C   0  0  0  0  0  0  0  0  0  0  0  0
   24.4569  -20.2909  -16.5140 C   0  0  2  0  0  0  0  0  0  0  0  0
   23.9671  -21.3381  -17.2986 N   0  0  0  0  0  0  0  0  0  0  0  0
   24.9791  -20.6911  -15.1846 C   0  0  0  0  0  0  0  0  0  0  0  0
   24.1957  -21.3745  -14.4478 O   0  0  0  0  0  0  0  0  0  0  0  0
   26.2758  -20.3550  -14.7114 N   0  0  0  0  0  0  0  0  0  0  0  0
   27.2798  -19.7065  -15.5294 C   0  0  0  0  0  0  0  0  0  0  0  0
   28.5525  -19.7063  -14.7216 C   0  0  0  0  0  0  0  0  0  0  0  0
   28.1265  -19.9689  -13.3226 C   0  0  0  0  0  0  0  0  0  0  0  0
   26.7618  -20.6003  -13.3926 C   0  0  1  0  0  0  0  0  0  0  0  0
   25.8698  -20.0519  -12.3357 C   0  0  0  0  0  0  0  0  0  0  0  0
   25.3384  -18.9292  -12.5090 O   0  0  0  0  0  0  0  0  0  0  0  0
   25.5886  -20.7410  -11.1328 N   0  0  0  0  0  0  0  0  0  0  0  0
   24.7698  -20.1910  -10.0718 C   0  0  0  0  0  0  0  0  0  0  0  0
   24.7580  -21.0564   -8.8811 C   0  0  0  0  0  0  0  0  0  0  0  0
   25.3615  -22.1591   -8.9561 O   0  0  0  0  0  0  0  0  0  0  0  0
   24.1342  -20.7438   -7.6944 O   0  0  0  0  0  0  0  0  0  0  0  0
  2  1  1  0
  3  2  2  0
  4  2  1  0
  5  4  1  0
  5  6  1  1
  7  5  1  0
  7  8  2  0
  9  7  1  0
 10  9  1  0
 11 12  1  0
 11 10  1  0
 12 13  1  0
 13  9  1  0
 13 14  1  1
 14 15  2  0
 14 16  1  0
 16 17  1  0
 17 18  1  0
 18 20  1  0
 19 18  2  0
M  END
$$$$
