NPG.pdb
     RDKit          3D

 20 20  0  0  1  0  0  0  0  0999 V2000
   23.4625  -21.6416   -8.8874 N   0  0  0  0  0  0  0  0  0  0  0  0
   22.7149  -20.9017   -9.8529 C   0  0  0  0  0  0  0  0  0  0  0  0
   21.4543  -20.9346   -9.7258 O   0  0  0  0  0  0  0  0  0  0  0  0
   23.3991  -20.1468  -10.9321 C   0  0  0  0  0  0  0  0  0  0  0  0
   24.8753  -20.4899  -10.8887 C   0  0  2  0  0  0  0  0  0  0  0  0
   25.3603  -20.2621   -9.5984 N   0  0  0  0  0  0  0  0  0  0  0  0
   25.5803  -19.7530  -11.9658 C   0  0  0  0  0  0  0  0  0  0  0  0
   25.2069  -18.5524  -12.1723 O   0  0  0  0  0  0  0  0  0  0  0  0
   26.6223  -20.3113  -12.7537 N   0  0  0  0  0  0  0  0  0  0  0  0
   27.1296  -21.6552  -12.5679 C   0  0  0  0  0  0  0  0  0  0  0  0
   28.3381  -21.7814  -13.4601 C   0  0  0  0  0  0  0  0  0  0  0  0
   28.2259  -20.6611  -14.4296 C   0  0  0  0  0  0  0  0  0  0  0  0
   27.3001  -19.6444  -13.8173 C   0  0  1  0  0  0  0  0  0  0  0  0
   26.3707  -19.0913  -14.8390 C   0  0  0  0  0  0  0  0  0  0  0  0
   25.1915  -19.5160  -14.8836 O   0  0  0  0  0  0  0  0  0  0  0  0
   26.7552  -18.1001  -15.7721 N   0  0  0  0  0  0  0  0  0  0  0  0
   25.9758  -16.9076  -16.0348 C   0  0  0  0  0  0  0  0  0  0  0  0
   24.7676  -17.2024  -16.8225 C   0  0  0  0  0  0  0  0  0  0  0  0
   24.8996  -17.3218  -18.0692 O   0  0  0  0  0  0  0  0  0  0  0  0
   23.5070  -17.3561  -16.2914 O   0  0  0  0  0  0  0  0  0  0  0  0
  2  1  1  0
  3  2  2  0
  4  2  1  0
  5  4  1  0
  5  6  1  1
  7  5  1  0
  7  8  2  0
  9  7  1  0
 10  9  1  0
 11 12  1  0
 11 10  1  0
 12 13  1  0
 13  9  1  0
 13 14  1  6
 14 15  2  0
 14 16  1  0
 16 17  1  0
 17 18  1  0
 18 20  1  0
 19 18  2  0
M  END
$$$$
