NPG.pdb
     RDKit          3D

 20 20  0  0  1  0  0  0  0  0999 V2000
   19.6979  -12.9727  -19.1318 N   0  0  0  0  0  0  0  0  0  0  0  0
   19.3598  -11.5947  -18.9725 C   0  0  0  0  0  0  0  0  0  0  0  0
   18.7619  -11.0513  -19.9490 O   0  0  0  0  0  0  0  0  0  0  0  0
   19.7003  -10.8650  -17.7257 C   0  0  0  0  0  0  0  0  0  0  0  0
   20.4610  -11.8096  -16.8159 C   0  0  2  0  0  0  0  0  0  0  0  0
   19.5888  -12.7957  -16.3480 N   0  0  0  0  0  0  0  0  0  0  0  0
   21.1483  -11.0249  -15.7613 C   0  0  0  0  0  0  0  0  0  0  0  0
   20.4447  -10.6864  -14.7544 O   0  0  0  0  0  0  0  0  0  0  0  0
   22.5160  -10.6457  -15.8238 N   0  0  0  0  0  0  0  0  0  0  0  0
   23.4294  -11.1208  -16.8425 C   0  0  0  0  0  0  0  0  0  0  0  0
   24.8015  -10.6434  -16.4406 C   0  0  0  0  0  0  0  0  0  0  0  0
   24.5637   -9.5652  -15.4463 C   0  0  0  0  0  0  0  0  0  0  0  0
   23.1690   -9.7610  -14.9148 C   0  0  1  0  0  0  0  0  0  0  0  0
   22.4684   -8.4562  -14.7728 C   0  0  0  0  0  0  0  0  0  0  0  0
   21.9233   -7.9447  -15.7798 O   0  0  0  0  0  0  0  0  0  0  0  0
   22.3859   -7.7570  -13.5460 N   0  0  0  0  0  0  0  0  0  0  0  0
   21.6466   -6.5222  -13.3804 C   0  0  0  0  0  0  0  0  0  0  0  0
   22.3933   -5.3611  -13.8914 C   0  0  0  0  0  0  0  0  0  0  0  0
   22.4318   -4.3297  -13.1700 O   0  0  0  0  0  0  0  0  0  0  0  0
   23.0507   -5.3255  -15.1004 O   0  0  0  0  0  0  0  0  0  0  0  0
  2  1  1  0
  3  2  2  0
  4  2  1  0
  5  4  1  0
  5  6  1  1
  7  5  1  0
  7  8  2  0
  9  7  1  0
 10  9  1  0
 11 12  1  0
 11 10  1  0
 12 13  1  0
 13  9  1  0
 13 14  1  6
 14 15  2  0
 14 16  1  0
 16 17  1  0
 17 18  1  0
 18 20  1  0
 19 18  2  0
M  END
$$$$
