NPG.pdb
     RDKit          3D

 20 20  0  0  1  0  0  0  0  0999 V2000
   26.3976  -34.7160   -7.3316 N   0  0  0  0  0  0  0  0  0  0  0  0
   27.7058  -34.2115   -7.0616 C   0  0  0  0  0  0  0  0  0  0  0  0
   28.1429  -33.3368   -7.8678 O   0  0  0  0  0  0  0  0  0  0  0  0
   28.4865  -34.7002   -5.8978 C   0  0  0  0  0  0  0  0  0  0  0  0
   29.4509  -35.7633   -6.3860 C   0  0  2  0  0  0  0  0  0  0  0  0
   28.7242  -36.8689   -6.8349 N   0  0  0  0  0  0  0  0  0  0  0  0
   30.4416  -36.0513   -5.3203 C   0  0  0  0  0  0  0  0  0  0  0  0
   29.9879  -36.5626   -4.2450 O   0  0  0  0  0  0  0  0  0  0  0  0
   31.8325  -35.7892   -5.4429 N   0  0  0  0  0  0  0  0  0  0  0  0
   32.4432  -35.2731   -6.6505 C   0  0  0  0  0  0  0  0  0  0  0  0
   33.9334  -35.3226   -6.4290 C   0  0  0  0  0  0  0  0  0  0  0  0
   34.1049  -35.4641   -4.9600 C   0  0  0  0  0  0  0  0  0  0  0  0
   32.8032  -35.9898   -4.4167 C   0  0  1  0  0  0  0  0  0  0  0  0
   32.4477  -35.3090   -3.1425 C   0  0  0  0  0  0  0  0  0  0  0  0
   31.7909  -34.2414   -3.1848 O   0  0  0  0  0  0  0  0  0  0  0  0
   32.8174  -35.8113   -1.8729 N   0  0  0  0  0  0  0  0  0  0  0  0
   32.4632  -35.1647   -0.6259 C   0  0  0  0  0  0  0  0  0  0  0  0
   33.0066  -35.8816    0.5393 C   0  0  0  0  0  0  0  0  0  0  0  0
   32.3999  -36.9168    0.9215 O   0  0  0  0  0  0  0  0  0  0  0  0
   34.1293  -35.4991    1.2380 O   0  0  0  0  0  0  0  0  0  0  0  0
  2  1  1  0
  3  2  2  0
  4  2  1  0
  5  4  1  0
  5  6  1  1
  7  5  1  0
  7  8  2  0
  9  7  1  0
 10  9  1  0
 11 12  1  0
 11 10  1  0
 12 13  1  0
 13  9  1  0
 13 14  1  1
 14 15  2  0
 14 16  1  0
 16 17  1  0
 17 18  1  0
 18 20  1  0
 19 18  2  0
M  END
$$$$
