NPG.pdb
     RDKit          3D

 20 20  0  0  1  0  0  0  0  0999 V2000
   19.0640  -12.5767  -16.8711 N   0  0  0  0  0  0  0  0  0  0  0  0
   18.8228  -11.7542  -15.7292 C   0  0  0  0  0  0  0  0  0  0  0  0
   17.8393  -12.0854  -15.0018 O   0  0  0  0  0  0  0  0  0  0  0  0
   19.6888  -10.5854  -15.4345 C   0  0  0  0  0  0  0  0  0  0  0  0
   20.7860  -10.5323  -16.4795 C   0  0  2  0  0  0  0  0  0  0  0  0
   21.6217  -11.6409  -16.3223 N   0  0  0  0  0  0  0  0  0  0  0  0
   21.4659   -9.2160  -16.4081 C   0  0  0  0  0  0  0  0  0  0  0  0
   22.3970   -9.1026  -15.5457 O   0  0  0  0  0  0  0  0  0  0  0  0
   21.1334   -8.1093  -17.2346 N   0  0  0  0  0  0  0  0  0  0  0  0
   20.1716   -8.1816  -18.3150 C   0  0  0  0  0  0  0  0  0  0  0  0
   20.2563   -6.8679  -19.0494 C   0  0  0  0  0  0  0  0  0  0  0  0
   20.9496   -5.9431  -18.1158 C   0  0  0  0  0  0  0  0  0  0  0  0
   21.6848   -6.7985  -17.1191 C   0  0  1  0  0  0  0  0  0  0  0  0
   21.5613   -6.2375  -15.7467 C   0  0  0  0  0  0  0  0  0  0  0  0
   20.5245   -6.4752  -15.0823 O   0  0  0  0  0  0  0  0  0  0  0  0
   22.5655   -5.4412  -15.1480 N   0  0  0  0  0  0  0  0  0  0  0  0
   22.4975   -4.9675  -13.7807 C   0  0  0  0  0  0  0  0  0  0  0  0
   21.6912   -3.7417  -13.6624 C   0  0  0  0  0  0  0  0  0  0  0  0
   22.1205   -2.7045  -14.2330 O   0  0  0  0  0  0  0  0  0  0  0  0
   20.5031   -3.6516  -12.9728 O   0  0  0  0  0  0  0  0  0  0  0  0
  2  1  1  0
  3  2  2  0
  4  2  1  0
  5  4  1  0
  5  6  1  1
  7  5  1  0
  7  8  2  0
  9  7  1  0
 10  9  1  0
 11 12  1  0
 11 10  1  0
 12 13  1  0
 13  9  1  0
 13 14  1  1
 14 15  2  0
 14 16  1  0
 16 17  1  0
 17 18  1  0
 18 20  1  0
 19 18  2  0
M  END
$$$$
