NPG.pdb
     RDKit          3D

 20 20  0  0  1  0  0  0  0  0999 V2000
   19.2479  -12.8395  -19.2790 N   0  0  0  0  0  0  0  0  0  0  0  0
   18.2819  -12.0376  -18.5987 C   0  0  0  0  0  0  0  0  0  0  0  0
   17.0711  -12.2337  -18.9177 O   0  0  0  0  0  0  0  0  0  0  0  0
   18.6987  -11.0403  -17.5817 C   0  0  0  0  0  0  0  0  0  0  0  0
   19.2667  -11.7863  -16.3903 C   0  0  2  0  0  0  0  0  0  0  0  0
   18.2322  -12.4615  -15.7376 N   0  0  0  0  0  0  0  0  0  0  0  0
   20.0354  -10.8420  -15.5433 C   0  0  0  0  0  0  0  0  0  0  0  0
   19.3606   -9.9613  -14.9167 O   0  0  0  0  0  0  0  0  0  0  0  0
   21.4489  -10.8759  -15.4049 N   0  0  0  0  0  0  0  0  0  0  0  0
   22.2857  -11.8883  -16.0152 C   0  0  0  0  0  0  0  0  0  0  0  0
   23.6755  -11.6771  -15.4710 C   0  0  0  0  0  0  0  0  0  0  0  0
   23.6681  -10.3033  -14.9050 C   0  0  0  0  0  0  0  0  0  0  0  0
   22.2279   -9.9375  -14.6645 C   0  0  1  0  0  0  0  0  0  0  0  0
   21.9664   -8.5276  -15.0609 C   0  0  0  0  0  0  0  0  0  0  0  0
   21.6179   -8.2808  -16.2401 O   0  0  0  0  0  0  0  0  0  0  0  0
   22.0926   -7.4406  -14.1645 N   0  0  0  0  0  0  0  0  0  0  0  0
   21.8059   -6.0685  -14.5302 C   0  0  0  0  0  0  0  0  0  0  0  0
   21.9987   -5.1459  -13.3994 C   0  0  0  0  0  0  0  0  0  0  0  0
   21.9422   -3.9109  -13.6387 O   0  0  0  0  0  0  0  0  0  0  0  0
   22.2357   -5.5396  -12.1017 O   0  0  0  0  0  0  0  0  0  0  0  0
  2  1  1  0
  3  2  2  0
  4  2  1  0
  5  4  1  0
  5  6  1  1
  7  5  1  0
  7  8  2  0
  9  7  1  0
 10  9  1  0
 11 12  1  0
 11 10  1  0
 12 13  1  0
 13  9  1  0
 13 14  1  6
 14 15  2  0
 14 16  1  0
 16 17  1  0
 17 18  1  0
 18 20  1  0
 19 18  2  0
M  END
$$$$
