NPG.pdb
     RDKit          3D

 20 20  0  0  1  0  0  0  0  0999 V2000
   28.7254  -19.9089  -15.7047 N   0  0  0  0  0  0  0  0  0  0  0  0
   27.4415  -19.6283  -16.2629 C   0  0  0  0  0  0  0  0  0  0  0  0
   27.4380  -19.1140  -17.4212 O   0  0  0  0  0  0  0  0  0  0  0  0
   26.1994  -19.9314  -15.5093 C   0  0  0  0  0  0  0  0  0  0  0  0
   26.4168  -21.2153  -14.7328 C   0  0  2  0  0  0  0  0  0  0  0  0
   26.6371  -22.2619  -15.6318 N   0  0  0  0  0  0  0  0  0  0  0  0
   25.2849  -21.4177  -13.7959 C   0  0  0  0  0  0  0  0  0  0  0  0
   24.2004  -21.8572  -14.3003 O   0  0  0  0  0  0  0  0  0  0  0  0
   25.3554  -21.1503  -12.4023 N   0  0  0  0  0  0  0  0  0  0  0  0
   26.5736  -20.7525  -11.7275 C   0  0  0  0  0  0  0  0  0  0  0  0
   26.2646  -20.7584  -10.2521 C   0  0  0  0  0  0  0  0  0  0  0  0
   24.7815  -20.7460  -10.1640 C   0  0  0  0  0  0  0  0  0  0  0  0
   24.2610  -21.2311  -11.4906 C   0  0  1  0  0  0  0  0  0  0  0  0
   23.0859  -20.4281  -11.9240 C   0  0  0  0  0  0  0  0  0  0  0  0
   23.2749  -19.3815  -12.5888 O   0  0  0  0  0  0  0  0  0  0  0  0
   21.7527  -20.7903  -11.6205 N   0  0  0  0  0  0  0  0  0  0  0  0
   20.5979  -20.0810  -12.1324 C   0  0  0  0  0  0  0  0  0  0  0  0
   20.0028  -20.7637  -13.2929 C   0  0  0  0  0  0  0  0  0  0  0  0
   20.5086  -20.5385  -14.4239 O   0  0  0  0  0  0  0  0  0  0  0  0
   18.9342  -21.6291  -13.2268 O   0  0  0  0  0  0  0  0  0  0  0  0
  2  1  1  0
  3  2  2  0
  4  2  1  0
  5  4  1  0
  5  6  1  6
  7  5  1  0
  7  8  2  0
  9  7  1  0
 10  9  1  0
 11 12  1  0
 11 10  1  0
 12 13  1  0
 13  9  1  0
 13 14  1  6
 14 15  2  0
 14 16  1  0
 16 17  1  0
 17 18  1  0
 18 20  1  0
 19 18  2  0
M  END
$$$$
