NPG.pdb
     RDKit          3D

 20 20  0  0  1  0  0  0  0  0999 V2000
   21.9240  -21.5661   -9.9984 N   0  0  0  0  0  0  0  0  0  0  0  0
   21.6749  -21.2008  -11.3560 C   0  0  0  0  0  0  0  0  0  0  0  0
   20.5314  -21.5008  -11.8128 O   0  0  0  0  0  0  0  0  0  0  0  0
   22.7120  -20.5107  -12.1628 C   0  0  0  0  0  0  0  0  0  0  0  0
   23.9802  -20.4295  -11.3360 C   0  0  2  0  0  0  0  0  0  0  0  0
   23.6869  -19.8370  -10.1051 N   0  0  0  0  0  0  0  0  0  0  0  0
   25.0363  -19.7507  -12.1260 C   0  0  0  0  0  0  0  0  0  0  0  0
   24.8349  -18.5250  -12.4100 O   0  0  0  0  0  0  0  0  0  0  0  0
   26.2266  -20.3890  -12.5666 N   0  0  0  0  0  0  0  0  0  0  0  0
   26.6380  -21.7041  -12.1206 C   0  0  0  0  0  0  0  0  0  0  0  0
   28.0262  -21.9238  -12.6656 C   0  0  0  0  0  0  0  0  0  0  0  0
   28.1859  -20.9148  -13.7444 C   0  0  0  0  0  0  0  0  0  0  0  0
   27.1632  -19.8395  -13.4919 C   0  0  1  0  0  0  0  0  0  0  0  0
   26.5301  -19.4013  -14.7650 C   0  0  0  0  0  0  0  0  0  0  0  0
   25.8713  -20.2318  -15.4353 O   0  0  0  0  0  0  0  0  0  0  0  0
   26.6354  -18.0811  -15.2619 N   0  0  0  0  0  0  0  0  0  0  0  0
   27.4082  -17.7306  -16.4359 C   0  0  0  0  0  0  0  0  0  0  0  0
   26.9209  -18.4206  -17.6416 C   0  0  0  0  0  0  0  0  0  0  0  0
   26.0515  -17.8331  -18.3378 O   0  0  0  0  0  0  0  0  0  0  0  0
   27.3493  -19.6604  -18.0590 O   0  0  0  0  0  0  0  0  0  0  0  0
  2  1  1  0
  3  2  2  0
  4  2  1  0
  5  4  1  0
  5  6  1  1
  7  5  1  0
  7  8  2  0
  9  7  1  0
 10  9  1  0
 11 12  1  0
 11 10  1  0
 12 13  1  0
 13  9  1  0
 13 14  1  6
 14 15  2  0
 14 16  1  0
 16 17  1  0
 17 18  1  0
 18 20  1  0
 19 18  2  0
M  END
$$$$
