NPG.pdb
     RDKit          3D

 20 20  0  0  1  0  0  0  0  0999 V2000
   15.2086  -21.6230   -0.0498 N   0  0  0  0  0  0  0  0  0  0  0  0
   15.6685  -21.7022    1.2996 C   0  0  0  0  0  0  0  0  0  0  0  0
   15.8746  -22.8687    1.7504 O   0  0  0  0  0  0  0  0  0  0  0  0
   15.8845  -20.4745    2.1051 C   0  0  0  0  0  0  0  0  0  0  0  0
   14.8426  -20.4398    3.2059 C   0  0  2  0  0  0  0  0  0  0  0  0
   13.5705  -20.3896    2.6305 N   0  0  0  0  0  0  0  0  0  0  0  0
   15.1554  -19.3311    4.1404 C   0  0  0  0  0  0  0  0  0  0  0  0
   14.7621  -18.1690    3.7962 O   0  0  0  0  0  0  0  0  0  0  0  0
   15.8539  -19.5037    5.3654 N   0  0  0  0  0  0  0  0  0  0  0  0
   16.2869  -20.7938    5.8614 C   0  0  0  0  0  0  0  0  0  0  0  0
   16.8068  -20.5610    7.2570 C   0  0  0  0  0  0  0  0  0  0  0  0
   17.0429  -19.0968    7.3461 C   0  0  0  0  0  0  0  0  0  0  0  0
   16.2222  -18.4549    6.2597 C   0  0  1  0  0  0  0  0  0  0  0  0
   16.9859  -17.3665    5.5921 C   0  0  0  0  0  0  0  0  0  0  0  0
   17.7277  -17.6496    4.6212 O   0  0  0  0  0  0  0  0  0  0  0  0
   16.9162  -16.0145    6.0023 N   0  0  0  0  0  0  0  0  0  0  0  0
   17.6551  -14.9473    5.3592 C   0  0  0  0  0  0  0  0  0  0  0  0
   17.4878  -13.6630    6.0589 C   0  0  0  0  0  0  0  0  0  0  0  0
   16.6857  -13.6281    7.0289 O   0  0  0  0  0  0  0  0  0  0  0  0
   18.1464  -12.5007    5.7265 O   0  0  0  0  0  0  0  0  0  0  0  0
  2  1  1  0
  3  2  2  0
  4  2  1  0
  5  4  1  0
  5  6  1  6
  7  5  1  0
  7  8  2  0
  9  7  1  0
 10  9  1  0
 11 12  1  0
 11 10  1  0
 12 13  1  0
 13  9  1  0
 13 14  1  6
 14 15  2  0
 14 16  1  0
 16 17  1  0
 17 18  1  0
 18 20  1  0
 19 18  2  0
M  END
$$$$
