NPG.pdb
     RDKit          3D

 20 20  0  0  1  0  0  0  0  0999 V2000
   25.4071  -20.3214   -8.4681 N   0  0  0  0  0  0  0  0  0  0  0  0
   24.3591  -20.8999   -9.2464 C   0  0  0  0  0  0  0  0  0  0  0  0
   23.6473  -21.7709   -8.6626 O   0  0  0  0  0  0  0  0  0  0  0  0
   24.1379  -20.4870  -10.6548 C   0  0  0  0  0  0  0  0  0  0  0  0
   25.3986  -20.7885  -11.4412 C   0  0  2  0  0  0  0  0  0  0  0  0
   26.4952  -20.2302  -10.7795 N   0  0  0  0  0  0  0  0  0  0  0  0
   25.2171  -20.3446  -12.8448 C   0  0  0  0  0  0  0  0  0  0  0  0
   24.4965  -19.3094  -13.0254 O   0  0  0  0  0  0  0  0  0  0  0  0
   25.7945  -21.0041  -13.9629 N   0  0  0  0  0  0  0  0  0  0  0  0
   26.6216  -22.1877  -13.8506 C   0  0  0  0  0  0  0  0  0  0  0  0
   27.1806  -22.4488  -15.2260 C   0  0  0  0  0  0  0  0  0  0  0  0
   26.3230  -21.6637  -16.1511 C   0  0  0  0  0  0  0  0  0  0  0  0
   25.6430  -20.6054  -15.3243 C   0  0  1  0  0  0  0  0  0  0  0  0
   24.2191  -20.4521  -15.7276 C   0  0  0  0  0  0  0  0  0  0  0  0
   23.3701  -21.2627  -15.2859 O   0  0  0  0  0  0  0  0  0  0  0  0
   23.7710  -19.4270  -16.5932 N   0  0  0  0  0  0  0  0  0  0  0  0
   22.4260  -19.3667  -17.1279 C   0  0  0  0  0  0  0  0  0  0  0  0
   21.4899  -18.7237  -16.1914 C   0  0  0  0  0  0  0  0  0  0  0  0
   20.3548  -18.4015  -16.6312 O   0  0  0  0  0  0  0  0  0  0  0  0
   21.7693  -18.4511  -14.8713 O   0  0  0  0  0  0  0  0  0  0  0  0
  2  1  1  0
  3  2  2  0
  4  2  1  0
  5  4  1  0
  5  6  1  1
  7  5  1  0
  7  8  2  0
  9  7  1  0
 10  9  1  0
 11 12  1  0
 11 10  1  0
 12 13  1  0
 13  9  1  0
 13 14  1  6
 14 15  2  0
 14 16  1  0
 16 17  1  0
 17 18  1  0
 18 20  1  0
 19 18  2  0
M  END
$$$$
