NPG.pdb
     RDKit          3D

 20 20  0  0  1  0  0  0  0  0999 V2000
   24.7324  -14.6470  -19.6346 N   0  0  0  0  0  0  0  0  0  0  0  0
   23.6708  -13.7282  -19.8944 C   0  0  0  0  0  0  0  0  0  0  0  0
   22.9721  -13.9614  -20.9258 O   0  0  0  0  0  0  0  0  0  0  0  0
   23.4219  -12.5757  -18.9930 C   0  0  0  0  0  0  0  0  0  0  0  0
   23.6993  -13.0180  -17.5696 C   0  0  2  0  0  0  0  0  0  0  0  0
   22.8420  -14.0716  -17.2426 N   0  0  0  0  0  0  0  0  0  0  0  0
   23.6240  -11.8420  -16.6688 C   0  0  0  0  0  0  0  0  0  0  0  0
   22.4588  -11.4810  -16.3006 O   0  0  0  0  0  0  0  0  0  0  0  0
   24.7607  -11.1222  -16.2127 N   0  0  0  0  0  0  0  0  0  0  0  0
   26.1239  -11.5356  -16.4744 C   0  0  0  0  0  0  0  0  0  0  0  0
   27.0089  -10.6217  -15.6657 C   0  0  0  0  0  0  0  0  0  0  0  0
   26.1507   -9.4623  -15.3097 C   0  0  0  0  0  0  0  0  0  0  0  0
   24.7225   -9.9159  -15.4519 C   0  0  1  0  0  0  0  0  0  0  0  0
   23.8914   -8.8575  -16.0864 C   0  0  0  0  0  0  0  0  0  0  0  0
   23.8321   -8.7977  -17.3377 O   0  0  0  0  0  0  0  0  0  0  0  0
   23.1573   -7.9057  -15.3406 N   0  0  0  0  0  0  0  0  0  0  0  0
   22.2679   -6.9343  -15.9440 C   0  0  0  0  0  0  0  0  0  0  0  0
   20.8655   -7.1568  -15.5561 C   0  0  0  0  0  0  0  0  0  0  0  0
   20.4354   -6.5403  -14.5458 O   0  0  0  0  0  0  0  0  0  0  0  0
   19.9940   -7.9902  -16.2202 O   0  0  0  0  0  0  0  0  0  0  0  0
  2  1  1  0
  3  2  2  0
  4  2  1  0
  5  4  1  0
  5  6  1  1
  7  5  1  0
  7  8  2  0
  9  7  1  0
 10  9  1  0
 11 12  1  0
 11 10  1  0
 12 13  1  0
 13  9  1  0
 13 14  1  6
 14 15  2  0
 14 16  1  0
 16 17  1  0
 17 18  1  0
 18 20  1  0
 19 18  2  0
M  END
$$$$
