STK.pdb
     RDKit          3D

 23 22  0  0  1  0  0  0  0  0999 V2000
    7.1497  -19.4156   17.7861 O   0  0  0  0  0  0  0  0  0  0  0  0
    6.5236  -18.4865   16.9662 C   0  0  0  0  0  0  0  0  0  0  0  0
    7.5590  -17.5476   16.3373 C   0  0  2  0  0  0  0  0  0  0  0  0
    8.4664  -18.3227   15.5146 N   0  0  0  0  0  0  0  0  0  0  0  0
    8.3040  -16.8163   17.3946 C   0  0  0  0  0  0  0  0  0  0  0  0
    9.4713  -17.1491   17.7220 O   0  0  0  0  0  0  0  0  0  0  0  0
    8.2198  -12.8389   20.4541 C   0  0  0  0  0  0  0  0  0  0  0  0
    7.6196  -13.6611   19.3597 C   0  0  1  0  0  0  0  0  0  0  0  0
    7.4418  -12.9851   18.1819 O   0  0  0  0  0  0  0  0  0  0  0  0
    8.4347  -14.9368   19.0965 C   0  0  2  0  0  0  0  0  0  0  0  0
    7.7357  -15.7127   18.0818 N   0  0  0  0  0  0  0  0  0  0  0  0
    8.6674  -15.7208   20.3188 C   0  0  0  0  0  0  0  0  0  0  0  0
    7.6983  -16.3263   20.8404 O   0  0  0  0  0  0  0  0  0  0  0  0
    9.9364  -15.8204   20.9281 N   0  0  0  0  0  0  0  0  0  0  0  0
   10.2075  -16.6051   22.1273 C   0  0  1  0  0  0  0  0  0  0  0  0
   11.2476  -17.6309   21.9127 C   0  0  0  0  0  0  0  0  0  0  0  0
   11.5587  -18.5550   23.0257 C   0  0  0  0  0  0  0  0  0  0  0  0
   12.6663  -19.5401   22.8011 C   0  0  0  0  0  0  0  0  0  0  0  0
   12.7876  -20.5016   23.9568 C   0  0  0  0  0  0  0  0  0  0  0  0
   13.7034  -21.5777   23.6853 N   0  0  0  0  0  0  0  0  0  0  0  0
   10.4035  -15.7832   23.3106 C   0  0  0  0  0  0  0  0  0  0  0  0
   10.0983  -16.2439   24.4432 O   0  0  0  0  0  0  0  0  0  0  0  0
   10.9219  -14.4809   23.2618 O   0  0  0  0  0  0  0  0  0  0  0  0
  2  1  1  0
  3  4  1  1
  3  2  1  0
  5  6  2  0
  5  3  1  0
  8  7  1  1
  8 10  1  0
  9  8  1  0
 10 11  1  6
 10 12  1  0
 11  5  1  0
 12 14  1  0
 13 12  2  0
 14 15  1  0
 15 21  1  0
 15 16  1  6
 16 17  1  0
 18 17  1  0
 19 18  1  0
 20 19  1  0
 21 22  2  0
 21 23  1  0
M  END
$$$$
