STK.pdb
     RDKit          3D

 23 22  0  0  1  0  0  0  0  0999 V2000
   12.0251  -13.3579   18.3398 O   0  0  0  0  0  0  0  0  0  0  0  0
   10.8636  -13.0724   19.0445 C   0  0  0  0  0  0  0  0  0  0  0  0
    9.6898  -13.8870   18.4896 C   0  0  2  0  0  0  0  0  0  0  0  0
    8.9650  -13.0817   17.5267 N   0  0  0  0  0  0  0  0  0  0  0  0
    8.7932  -14.3199   19.5925 C   0  0  0  0  0  0  0  0  0  0  0  0
    7.5462  -14.1804   19.5152 O   0  0  0  0  0  0  0  0  0  0  0  0
    6.8177  -16.0994   20.0000 C   0  0  0  0  0  0  0  0  0  0  0  0
    7.6406  -16.6353   21.1268 C   0  0  1  0  0  0  0  0  0  0  0  0
    8.4663  -17.6705   20.7770 O   0  0  0  0  0  0  0  0  0  0  0  0
    8.4678  -15.5296   21.8009 C   0  0  2  0  0  0  0  0  0  0  0  0
    9.2999  -14.9085   20.7800 N   0  0  0  0  0  0  0  0  0  0  0  0
    9.2692  -16.0308   22.9275 C   0  0  0  0  0  0  0  0  0  0  0  0
   10.3395  -16.6407   22.6820 O   0  0  0  0  0  0  0  0  0  0  0  0
    8.8838  -15.8526   24.2733 N   0  0  0  0  0  0  0  0  0  0  0  0
    9.8015  -15.9361   25.4038 C   0  0  1  0  0  0  0  0  0  0  0  0
    9.2472  -15.3326   26.6321 C   0  0  0  0  0  0  0  0  0  0  0  0
   10.0705  -15.3670   27.8612 C   0  0  0  0  0  0  0  0  0  0  0  0
    9.4803  -14.7459   29.0915 C   0  0  0  0  0  0  0  0  0  0  0  0
   10.4425  -14.8058   30.2514 C   0  0  0  0  0  0  0  0  0  0  0  0
    9.9374  -14.1390   31.4221 N   0  0  0  0  0  0  0  0  0  0  0  0
   10.3613  -17.2661   25.5827 C   0  0  0  0  0  0  0  0  0  0  0  0
   11.5400  -17.3904   26.0111 O   0  0  0  0  0  0  0  0  0  0  0  0
    9.6506  -18.4414   25.2989 O   0  0  0  0  0  0  0  0  0  0  0  0
  2  1  1  0
  3  4  1  6
  3  2  1  0
  5  6  2  0
  5  3  1  0
  8  7  1  6
  8 10  1  0
  9  8  1  0
 10 11  1  6
 10 12  1  0
 11  5  1  0
 12 14  1  0
 13 12  2  0
 14 15  1  0
 15 21  1  0
 15 16  1  1
 16 17  1  0
 18 17  1  0
 19 18  1  0
 20 19  1  0
 21 22  2  0
 21 23  1  0
M  END
$$$$
