STK.pdb
     RDKit          3D

 23 22  0  0  1  0  0  0  0  0999 V2000
    8.5941  -11.2181   19.1458 O   0  0  0  0  0  0  0  0  0  0  0  0
    8.5700  -12.4795   19.7251 C   0  0  0  0  0  0  0  0  0  0  0  0
    8.5295  -13.5628   18.6416 C   0  0  2  0  0  0  0  0  0  0  0  0
    7.2241  -13.5569   18.0116 N   0  0  0  0  0  0  0  0  0  0  0  0
    8.8217  -14.8952   19.2309 C   0  0  0  0  0  0  0  0  0  0  0  0
    7.8984  -15.6651   19.5982 O   0  0  0  0  0  0  0  0  0  0  0  0
   11.7175  -18.7678   19.6167 C   0  0  0  0  0  0  0  0  0  0  0  0
   11.2237  -17.4926   19.0133 C   0  0  1  0  0  0  0  0  0  0  0  0
   10.4194  -17.6637   17.9179 O   0  0  0  0  0  0  0  0  0  0  0  0
   10.4961  -16.6200   20.0479 C   0  0  2  0  0  0  0  0  0  0  0  0
   10.1511  -15.3594   19.4060 N   0  0  0  0  0  0  0  0  0  0  0  0
   11.2889  -16.4117   21.2688 C   0  0  0  0  0  0  0  0  0  0  0  0
   12.2949  -15.6615   21.2139 O   0  0  0  0  0  0  0  0  0  0  0  0
   10.9636  -17.0204   22.4997 N   0  0  0  0  0  0  0  0  0  0  0  0
   11.8177  -16.9816   23.6813 C   0  0  1  0  0  0  0  0  0  0  0  0
   11.2723  -17.7710   24.8036 C   0  0  0  0  0  0  0  0  0  0  0  0
   12.1213  -17.9650   25.9999 C   0  0  0  0  0  0  0  0  0  0  0  0
   11.5543  -18.8027   27.1064 C   0  0  0  0  0  0  0  0  0  0  0  0
   12.4567  -18.7981   28.3150 C   0  0  0  0  0  0  0  0  0  0  0  0
   11.9424  -19.6040   29.3904 N   0  0  0  0  0  0  0  0  0  0  0  0
   13.2155  -17.2448   23.3795 C   0  0  0  0  0  0  0  0  0  0  0  0
   14.0954  -16.4212   23.7481 O   0  0  0  0  0  0  0  0  0  0  0  0
   13.6485  -18.3849   22.6869 O   0  0  0  0  0  0  0  0  0  0  0  0
  2  1  1  0
  3  4  1  1
  3  2  1  0
  5  6  2  0
  5  3  1  0
  8  7  1  1
  8 10  1  0
  9  8  1  0
 10 11  1  6
 10 12  1  0
 11  5  1  0
 12 14  1  0
 13 12  2  0
 14 15  1  0
 15 21  1  0
 15 16  1  1
 16 17  1  0
 18 17  1  0
 19 18  1  0
 20 19  1  0
 21 22  2  0
 21 23  1  0
M  END
$$$$
