STK.pdb
     RDKit          3D

 23 22  0  0  1  0  0  0  0  0999 V2000
   10.4817  -18.6103   19.0990 O   0  0  0  0  0  0  0  0  0  0  0  0
   11.3711  -17.8811   18.3215 C   0  0  0  0  0  0  0  0  0  0  0  0
   10.7663  -16.5218   17.9531 C   0  0  2  0  0  0  0  0  0  0  0  0
   11.6588  -15.8358   17.0400 N   0  0  0  0  0  0  0  0  0  0  0  0
   10.5393  -15.7081   19.1755 C   0  0  0  0  0  0  0  0  0  0  0  0
   11.4801  -15.0879   19.7329 O   0  0  0  0  0  0  0  0  0  0  0  0
    7.3630  -13.3365   19.5927 C   0  0  0  0  0  0  0  0  0  0  0  0
    7.5163  -14.2423   20.7717 C   0  0  1  0  0  0  0  0  0  0  0  0
    6.6605  -15.3116   20.7739 O   0  0  0  0  0  0  0  0  0  0  0  0
    8.9609  -14.7459   20.9158 C   0  0  2  0  0  0  0  0  0  0  0  0
    9.2555  -15.5931   19.7688 N   0  0  0  0  0  0  0  0  0  0  0  0
    9.1898  -15.4493   22.1868 C   0  0  0  0  0  0  0  0  0  0  0  0
    9.3319  -16.6972   22.1684 O   0  0  0  0  0  0  0  0  0  0  0  0
    9.2572  -14.7776   23.4261 N   0  0  0  0  0  0  0  0  0  0  0  0
    9.3643  -15.4508   24.7155 C   0  0  1  0  0  0  0  0  0  0  0  0
    9.6447  -14.5162   25.8236 C   0  0  0  0  0  0  0  0  0  0  0  0
    9.8218  -15.0752   27.1822 C   0  0  0  0  0  0  0  0  0  0  0  0
   10.1241  -14.1028   28.2826 C   0  0  0  0  0  0  0  0  0  0  0  0
   10.2658  -14.8041   29.6103 C   0  0  0  0  0  0  0  0  0  0  0  0
   10.4257  -13.8846   30.7055 N   0  0  0  0  0  0  0  0  0  0  0  0
    8.2697  -16.3747   24.9656 C   0  0  0  0  0  0  0  0  0  0  0  0
    7.0989  -16.0556   24.6254 O   0  0  0  0  0  0  0  0  0  0  0  0
    8.4462  -17.6246   25.5767 O   0  0  0  0  0  0  0  0  0  0  0  0
  2  1  1  0
  3  4  1  6
  3  2  1  0
  5  6  2  0
  5  3  1  0
  8  7  1  6
  8 10  1  0
  9  8  1  0
 10 11  1  6
 10 12  1  0
 11  5  1  0
 12 14  1  0
 13 12  2  0
 14 15  1  0
 15 21  1  0
 15 16  1  1
 16 17  1  0
 18 17  1  0
 19 18  1  0
 20 19  1  0
 21 22  2  0
 21 23  1  0
M  END
$$$$
