STK.pdb
     RDKit          3D

 23 22  0  0  1  0  0  0  0  0999 V2000
    6.1315  -18.4980   18.7390 O   0  0  0  0  0  0  0  0  0  0  0  0
    7.1705  -18.9009   19.5669 C   0  0  0  0  0  0  0  0  0  0  0  0
    8.5223  -18.6067   18.9071 C   0  0  2  0  0  0  0  0  0  0  0  0
    8.6826  -19.4631   17.7487 N   0  0  0  0  0  0  0  0  0  0  0  0
    9.6284  -18.8216   19.8757 C   0  0  0  0  0  0  0  0  0  0  0  0
    9.7801  -19.9232   20.4621 O   0  0  0  0  0  0  0  0  0  0  0  0
   13.1112  -18.9808   19.2267 C   0  0  0  0  0  0  0  0  0  0  0  0
   12.9809  -17.8489   20.1941 C   0  0  1  0  0  0  0  0  0  0  0  0
   13.0089  -16.6083   19.6146 O   0  0  0  0  0  0  0  0  0  0  0  0
   11.7143  -17.9808   21.0540 C   0  0  2  0  0  0  0  0  0  0  0  0
   10.5617  -17.7980   20.1831 N   0  0  0  0  0  0  0  0  0  0  0  0
   11.6985  -17.0406   22.1846 C   0  0  0  0  0  0  0  0  0  0  0  0
   11.1964  -15.9018   22.0149 O   0  0  0  0  0  0  0  0  0  0  0  0
   12.2241  -17.3677   23.4528 N   0  0  0  0  0  0  0  0  0  0  0  0
   12.2804  -16.4410   24.5776 C   0  0  1  0  0  0  0  0  0  0  0  0
   11.9310  -17.0822   25.8609 C   0  0  0  0  0  0  0  0  0  0  0  0
   12.0788  -16.2898   27.1018 C   0  0  0  0  0  0  0  0  0  0  0  0
   11.7744  -16.9874   28.3934 C   0  0  0  0  0  0  0  0  0  0  0  0
   11.8566  -16.0375   29.5622 C   0  0  0  0  0  0  0  0  0  0  0  0
   11.5560  -16.6776   30.8153 N   0  0  0  0  0  0  0  0  0  0  0  0
   13.5051  -15.6577   24.6063 C   0  0  0  0  0  0  0  0  0  0  0  0
   14.5726  -16.1592   24.1623 O   0  0  0  0  0  0  0  0  0  0  0  0
   13.5672  -14.3506   25.1110 O   0  0  0  0  0  0  0  0  0  0  0  0
  2  1  1  0
  3  4  1  6
  3  2  1  0
  5  6  2  0
  5  3  1  0
  8  7  1  6
  8 10  1  0
  9  8  1  0
 10 11  1  6
 10 12  1  0
 11  5  1  0
 12 14  1  0
 13 12  2  0
 14 15  1  0
 15 21  1  0
 15 16  1  1
 16 17  1  0
 18 17  1  0
 19 18  1  0
 20 19  1  0
 21 22  2  0
 21 23  1  0
M  END
$$$$
