STK.pdb
     RDKit          3D

 23 22  0  0  1  0  0  0  0  0999 V2000
    9.1961  -21.1652   15.9400 O   0  0  0  0  0  0  0  0  0  0  0  0
    8.0551  -20.4632   15.5757 C   0  0  0  0  0  0  0  0  0  0  0  0
    8.3387  -18.9570   15.5593 C   0  0  2  0  0  0  0  0  0  0  0  0
    9.3696  -18.6777   14.5794 N   0  0  0  0  0  0  0  0  0  0  0  0
    8.7574  -18.4946   16.9078 C   0  0  0  0  0  0  0  0  0  0  0  0
    9.8121  -17.8310   17.0739 O   0  0  0  0  0  0  0  0  0  0  0  0
    6.7753  -16.3498   19.3357 C   0  0  0  0  0  0  0  0  0  0  0  0
    7.0840  -17.6497   20.0058 C   0  0  1  0  0  0  0  0  0  0  0  0
    6.0465  -18.5437   20.0031 O   0  0  0  0  0  0  0  0  0  0  0  0
    8.3315  -18.3155   19.4043 C   0  0  2  0  0  0  0  0  0  0  0  0
    7.9899  -18.7790   18.0669 N   0  0  0  0  0  0  0  0  0  0  0  0
    8.8503  -19.4058   20.2438 C   0  0  0  0  0  0  0  0  0  0  0  0
    8.4562  -20.5776   20.0218 O   0  0  0  0  0  0  0  0  0  0  0  0
    9.7740  -19.1876   21.2882 N   0  0  0  0  0  0  0  0  0  0  0  0
   10.2879  -20.2399   22.1574 C   0  0  1  0  0  0  0  0  0  0  0  0
   11.7122  -20.0514   22.4981 C   0  0  0  0  0  0  0  0  0  0  0  0
   12.3818  -21.0939   23.3069 C   0  0  0  0  0  0  0  0  0  0  0  0
   13.8251  -20.8689   23.6444 C   0  0  0  0  0  0  0  0  0  0  0  0
   14.3833  -22.0121   24.4546 C   0  0  0  0  0  0  0  0  0  0  0  0
   15.7797  -21.8429   24.7581 N   0  0  0  0  0  0  0  0  0  0  0  0
    9.4238  -20.5075   23.2959 C   0  0  0  0  0  0  0  0  0  0  0  0
    9.5188  -21.6087   23.9013 O   0  0  0  0  0  0  0  0  0  0  0  0
    8.4714  -19.5921   23.7670 O   0  0  0  0  0  0  0  0  0  0  0  0
  2  1  1  0
  3  4  1  6
  3  2  1  0
  5  6  2  0
  5  3  1  0
  8  7  1  6
  8 10  1  0
  9  8  1  0
 10 11  1  6
 10 12  1  0
 11  5  1  0
 12 14  1  0
 13 12  2  0
 14 15  1  0
 15 21  1  0
 15 16  1  1
 16 17  1  0
 18 17  1  0
 19 18  1  0
 20 19  1  0
 21 22  2  0
 21 23  1  0
M  END
$$$$
