STK.pdb
     RDKit          3D

 23 22  0  0  1  0  0  0  0  0999 V2000
    1.0598  -19.9290   23.3610 O   0  0  0  0  0  0  0  0  0  0  0  0
    0.7335  -20.1026   22.0228 C   0  0  0  0  0  0  0  0  0  0  0  0
    1.6620  -19.2666   21.1351 C   0  0  2  0  0  0  0  0  0  0  0  0
    1.2723  -19.4336   19.7490 N   0  0  0  0  0  0  0  0  0  0  0  0
    3.0762  -19.6759   21.3356 C   0  0  0  0  0  0  0  0  0  0  0  0
    3.6173  -20.5416   20.6019 O   0  0  0  0  0  0  0  0  0  0  0  0
    5.5189  -19.6998   20.0625 C   0  0  0  0  0  0  0  0  0  0  0  0
    6.0340  -18.9796   21.2667 C   0  0  1  0  0  0  0  0  0  0  0  0
    6.0043  -17.6144   21.1604 O   0  0  0  0  0  0  0  0  0  0  0  0
    5.2933  -19.4072   22.5432 C   0  0  2  0  0  0  0  0  0  0  0  0
    3.8794  -19.1114   22.3601 N   0  0  0  0  0  0  0  0  0  0  0  0
    5.8330  -18.7656   23.7514 C   0  0  0  0  0  0  0  0  0  0  0  0
    5.3977  -17.6337   24.0788 O   0  0  0  0  0  0  0  0  0  0  0  0
    6.8198  -19.3717   24.5579 N   0  0  0  0  0  0  0  0  0  0  0  0
    7.3732  -18.7674   25.7645 C   0  0  1  0  0  0  0  0  0  0  0  0
    8.0135  -19.7568   26.6540 C   0  0  0  0  0  0  0  0  0  0  0  0
    8.6042  -19.2773   27.9231 C   0  0  0  0  0  0  0  0  0  0  0  0
    9.3177  -20.2914   28.7659 C   0  0  0  0  0  0  0  0  0  0  0  0
    9.9267  -19.6555   29.9905 C   0  0  0  0  0  0  0  0  0  0  0  0
   10.6478  -20.6002   30.8018 N   0  0  0  0  0  0  0  0  0  0  0  0
    8.1800  -17.5893   25.4899 C   0  0  0  0  0  0  0  0  0  0  0  0
    8.0697  -16.5756   26.2306 O   0  0  0  0  0  0  0  0  0  0  0  0
    9.0909  -17.5152   24.4261 O   0  0  0  0  0  0  0  0  0  0  0  0
  2  1  1  0
  3  4  1  6
  3  2  1  0
  5  6  2  0
  5  3  1  0
  8  7  1  6
  8 10  1  0
  9  8  1  0
 10 11  1  6
 10 12  1  0
 11  5  1  0
 12 14  1  0
 13 12  2  0
 14 15  1  0
 15 21  1  0
 15 16  1  6
 16 17  1  0
 18 17  1  0
 19 18  1  0
 20 19  1  0
 21 22  2  0
 21 23  1  0
M  END
$$$$
