STK.pdb
     RDKit          3D

 23 22  0  0  1  0  0  0  0  0999 V2000
    6.8595  -18.6097   15.5159 O   0  0  0  0  0  0  0  0  0  0  0  0
    7.7821  -18.0632   16.3976 C   0  0  0  0  0  0  0  0  0  0  0  0
    7.8995  -16.5511   16.1765 C   0  0  2  0  0  0  0  0  0  0  0  0
    8.5531  -16.3054   14.9064 N   0  0  0  0  0  0  0  0  0  0  0  0
    8.6597  -15.9232   17.2881 C   0  0  0  0  0  0  0  0  0  0  0  0
    9.9054  -15.7669   17.2226 O   0  0  0  0  0  0  0  0  0  0  0  0
    7.4935  -12.7299   19.2908 C   0  0  0  0  0  0  0  0  0  0  0  0
    7.8004  -13.8398   20.2436 C   0  0  1  0  0  0  0  0  0  0  0  0
    6.6935  -14.4566   20.7632 O   0  0  0  0  0  0  0  0  0  0  0  0
    8.7199  -14.8944   19.6084 C   0  0  2  0  0  0  0  0  0  0  0  0
    8.0185  -15.4722   18.4707 N   0  0  0  0  0  0  0  0  0  0  0  0
    9.1452  -15.9246   20.5678 C   0  0  0  0  0  0  0  0  0  0  0  0
    8.5045  -17.0039   20.6172 O   0  0  0  0  0  0  0  0  0  0  0  0
   10.2452  -15.7489   21.4343 N   0  0  0  0  0  0  0  0  0  0  0  0
   10.6413  -16.7104   22.4570 C   0  0  1  0  0  0  0  0  0  0  0  0
   12.0437  -17.1490   22.3127 C   0  0  0  0  0  0  0  0  0  0  0  0
   12.3900  -18.0193   21.1673 C   0  0  0  0  0  0  0  0  0  0  0  0
   13.8294  -18.4137   21.0248 C   0  0  0  0  0  0  0  0  0  0  0  0
   14.0573  -19.2107   19.7647 C   0  0  0  0  0  0  0  0  0  0  0  0
   15.4316  -19.6050   19.6024 N   0  0  0  0  0  0  0  0  0  0  0  0
   10.2730  -16.2933   23.8004 C   0  0  0  0  0  0  0  0  0  0  0  0
   10.5109  -17.0572   24.7741 O   0  0  0  0  0  0  0  0  0  0  0  0
    9.6549  -15.0656   24.0793 O   0  0  0  0  0  0  0  0  0  0  0  0
  2  1  1  0
  3  4  1  6
  3  2  1  0
  5  6  2  0
  5  3  1  0
  8  7  1  6
  8 10  1  0
  9  8  1  0
 10 11  1  6
 10 12  1  0
 11  5  1  0
 12 14  1  0
 13 12  2  0
 14 15  1  0
 15 21  1  0
 15 16  1  1
 16 17  1  0
 18 17  1  0
 19 18  1  0
 20 19  1  0
 21 22  2  0
 21 23  1  0
M  END
$$$$
