STK.pdb
     RDKit          3D

 23 22  0  0  1  0  0  0  0  0999 V2000
   11.6413  -17.6425   15.7099 O   0  0  0  0  0  0  0  0  0  0  0  0
   10.4146  -17.5250   16.3491 C   0  0  0  0  0  0  0  0  0  0  0  0
    9.8553  -16.1090   16.1726 C   0  0  2  0  0  0  0  0  0  0  0  0
   10.3879  -15.5358   14.9525 N   0  0  0  0  0  0  0  0  0  0  0  0
   10.2042  -15.2650   17.3447 C   0  0  0  0  0  0  0  0  0  0  0  0
   11.2611  -14.5849   17.3701 O   0  0  0  0  0  0  0  0  0  0  0  0
    7.6872  -12.9385   19.2185 C   0  0  0  0  0  0  0  0  0  0  0  0
    8.3541  -13.8300   20.2158 C   0  0  1  0  0  0  0  0  0  0  0  0
    7.5669  -14.8554   20.6679 O   0  0  0  0  0  0  0  0  0  0  0  0
    9.6729  -14.4019   19.6726 C   0  0  2  0  0  0  0  0  0  0  0  0
    9.3644  -15.1872   18.4858 N   0  0  0  0  0  0  0  0  0  0  0  0
   10.4016  -15.1925   20.6758 C   0  0  0  0  0  0  0  0  0  0  0  0
   10.5001  -16.4337   20.5101 O   0  0  0  0  0  0  0  0  0  0  0  0
   10.9953  -14.6116   21.8167 N   0  0  0  0  0  0  0  0  0  0  0  0
   11.6807  -15.3703   22.8569 C   0  0  1  0  0  0  0  0  0  0  0  0
   10.8350  -16.4327   23.4368 C   0  0  0  0  0  0  0  0  0  0  0  0
   11.4428  -17.3471   24.4286 C   0  0  0  0  0  0  0  0  0  0  0  0
   10.6128  -18.5129   24.8757 C   0  0  0  0  0  0  0  0  0  0  0  0
   11.3669  -19.3804   25.8522 C   0  0  0  0  0  0  0  0  0  0  0  0
   10.6266  -20.5540   26.2332 N   0  0  0  0  0  0  0  0  0  0  0  0
   13.0101  -15.8048   22.4592 C   0  0  0  0  0  0  0  0  0  0  0  0
   13.9413  -15.8085   23.3085 O   0  0  0  0  0  0  0  0  0  0  0  0
   13.3212  -16.2271   21.1585 O   0  0  0  0  0  0  0  0  0  0  0  0
  2  1  1  0
  3  4  1  6
  3  2  1  0
  5  6  2  0
  5  3  1  0
  8  7  1  6
  8 10  1  0
  9  8  1  0
 10 11  1  6
 10 12  1  0
 11  5  1  0
 12 14  1  0
 13 12  2  0
 14 15  1  0
 15 21  1  0
 15 16  1  6
 16 17  1  0
 18 17  1  0
 19 18  1  0
 20 19  1  0
 21 22  2  0
 21 23  1  0
M  END
$$$$
