STK.pdb
     RDKit          3D

 23 22  0  0  1  0  0  0  0  0999 V2000
    5.7994  -20.6300   17.7747 O   0  0  0  0  0  0  0  0  0  0  0  0
    7.1538  -20.9347   17.7751 C   0  0  0  0  0  0  0  0  0  0  0  0
    7.8101  -20.4468   16.4788 C   0  0  2  0  0  0  0  0  0  0  0  0
    7.2957  -21.2190   15.3653 N   0  0  0  0  0  0  0  0  0  0  0  0
    9.2879  -20.5740   16.5674 C   0  0  0  0  0  0  0  0  0  0  0  0
    9.9409  -21.2265   15.7140 O   0  0  0  0  0  0  0  0  0  0  0  0
   11.6429  -20.3825   15.2469 C   0  0  0  0  0  0  0  0  0  0  0  0
   12.0707  -19.5255   16.3943 C   0  0  1  0  0  0  0  0  0  0  0  0
   11.7859  -18.1950   16.2388 O   0  0  0  0  0  0  0  0  0  0  0  0
   11.4796  -20.0208   17.7233 C   0  0  2  0  0  0  0  0  0  0  0  0
   10.0286  -19.9675   17.6147 N   0  0  0  0  0  0  0  0  0  0  0  0
   11.9688  -19.2549   18.8795 C   0  0  0  0  0  0  0  0  0  0  0  0
   11.1972  -18.4271   19.4246 O   0  0  0  0  0  0  0  0  0  0  0  0
   13.2703  -19.4141   19.4013 N   0  0  0  0  0  0  0  0  0  0  0  0
   13.5762  -19.4869   20.8255 C   0  0  1  0  0  0  0  0  0  0  0  0
   12.7846  -20.5183   21.5254 C   0  0  0  0  0  0  0  0  0  0  0  0
   12.9493  -20.6522   22.9897 C   0  0  0  0  0  0  0  0  0  0  0  0
   12.0126  -21.5859   23.6959 C   0  0  0  0  0  0  0  0  0  0  0  0
   12.2644  -21.5942   25.1830 C   0  0  0  0  0  0  0  0  0  0  0  0
   11.3658  -22.4680   25.8897 N   0  0  0  0  0  0  0  0  0  0  0  0
   15.0039  -19.5322   21.0973 C   0  0  0  0  0  0  0  0  0  0  0  0
   15.6484  -20.5875   20.8540 O   0  0  0  0  0  0  0  0  0  0  0  0
   15.7182  -18.4472   21.6261 O   0  0  0  0  0  0  0  0  0  0  0  0
  2  1  1  0
  3  4  1  6
  3  2  1  0
  5  6  2  0
  5  3  1  0
  8  7  1  6
  8 10  1  0
  9  8  1  0
 10 11  1  6
 10 12  1  0
 11  5  1  0
 12 14  1  0
 13 12  2  0
 14 15  1  0
 15 21  1  0
 15 16  1  6
 16 17  1  0
 18 17  1  0
 19 18  1  0
 20 19  1  0
 21 22  2  0
 21 23  1  0
M  END
$$$$
