STK.pdb
     RDKit          3D

 23 22  0  0  1  0  0  0  0  0999 V2000
    6.0582  -19.1255   21.1570 O   0  0  0  0  0  0  0  0  0  0  0  0
    5.1618  -18.1227   20.8132 C   0  0  0  0  0  0  0  0  0  0  0  0
    5.5114  -17.5440   19.4377 C   0  0  2  0  0  0  0  0  0  0  0  0
    5.3762  -18.5831   18.4362 N   0  0  0  0  0  0  0  0  0  0  0  0
    6.8926  -16.9964   19.4425 C   0  0  0  0  0  0  0  0  0  0  0  0
    7.8580  -17.6514   18.9740 O   0  0  0  0  0  0  0  0  0  0  0  0
    7.6395  -13.3060   18.5887 C   0  0  0  0  0  0  0  0  0  0  0  0
    8.4079  -13.6303   19.8291 C   0  0  1  0  0  0  0  0  0  0  0  0
    7.9119  -13.0490   20.9656 O   0  0  0  0  0  0  0  0  0  0  0  0
    8.5257  -15.1474   20.0428 C   0  0  2  0  0  0  0  0  0  0  0  0
    7.1861  -15.7139   19.9739 N   0  0  0  0  0  0  0  0  0  0  0  0
    9.1987  -15.4896   21.3048 C   0  0  0  0  0  0  0  0  0  0  0  0
    8.4949  -15.7682   22.3072 O   0  0  0  0  0  0  0  0  0  0  0  0
   10.6037  -15.5184   21.4337 N   0  0  0  0  0  0  0  0  0  0  0  0
   11.3042  -15.8768   22.6617 C   0  0  1  0  0  0  0  0  0  0  0  0
   10.8438  -17.1617   23.2249 C   0  0  0  0  0  0  0  0  0  0  0  0
   11.5264  -17.6816   24.4304 C   0  0  0  0  0  0  0  0  0  0  0  0
   11.0164  -18.9730   24.9959 C   0  0  0  0  0  0  0  0  0  0  0  0
   11.7340  -19.3339   26.2725 C   0  0  0  0  0  0  0  0  0  0  0  0
   11.1208  -20.4419   26.9557 N   0  0  0  0  0  0  0  0  0  0  0  0
   12.7482  -15.7485   22.5489 C   0  0  0  0  0  0  0  0  0  0  0  0
   13.2812  -15.7223   21.4072 O   0  0  0  0  0  0  0  0  0  0  0  0
   13.5982  -15.6515   23.6603 O   0  0  0  0  0  0  0  0  0  0  0  0
  2  1  1  0
  3  4  1  6
  3  2  1  0
  5  6  2  0
  5  3  1  0
  8  7  1  6
  8 10  1  0
  9  8  1  0
 10 11  1  1
 10 12  1  0
 11  5  1  0
 12 14  1  0
 13 12  2  0
 14 15  1  0
 15 21  1  0
 15 16  1  6
 16 17  1  0
 18 17  1  0
 19 18  1  0
 20 19  1  0
 21 22  2  0
 21 23  1  0
M  END
$$$$
