STK.pdb
     RDKit          3D

 23 22  0  0  1  0  0  0  0  0999 V2000
    7.9806  -17.5028   14.0604 O   0  0  0  0  0  0  0  0  0  0  0  0
    8.6230  -16.8885   15.1268 C   0  0  0  0  0  0  0  0  0  0  0  0
    8.0972  -15.4612   15.3152 C   0  0  2  0  0  0  0  0  0  0  0  0
    8.2207  -14.7398   14.0641 N   0  0  0  0  0  0  0  0  0  0  0  0
    8.8489  -14.7712   16.3953 C   0  0  0  0  0  0  0  0  0  0  0  0
    9.8443  -14.0470   16.1401 O   0  0  0  0  0  0  0  0  0  0  0  0
    7.3699  -12.4784   19.0639 C   0  0  0  0  0  0  0  0  0  0  0  0
    8.0930  -13.5873   19.7576 C   0  0  1  0  0  0  0  0  0  0  0  0
    7.2757  -14.5701   20.2493 O   0  0  0  0  0  0  0  0  0  0  0  0
    9.1627  -14.2197   18.8536 C   0  0  2  0  0  0  0  0  0  0  0  0
    8.4804  -14.8965   17.7597 N   0  0  0  0  0  0  0  0  0  0  0  0
   10.0555  -15.1299   19.5864 C   0  0  0  0  0  0  0  0  0  0  0  0
    9.8100  -16.3617   19.5656 O   0  0  0  0  0  0  0  0  0  0  0  0
   11.1776  -14.6744   20.3109 N   0  0  0  0  0  0  0  0  0  0  0  0
   12.1333  -15.5537   20.9748 C   0  0  1  0  0  0  0  0  0  0  0  0
   13.5217  -15.0604   20.8791 C   0  0  0  0  0  0  0  0  0  0  0  0
   14.1448  -14.9809   19.5393 C   0  0  0  0  0  0  0  0  0  0  0  0
   15.5089  -14.3638   19.4603 C   0  0  0  0  0  0  0  0  0  0  0  0
   16.0208  -14.3452   18.0417 C   0  0  0  0  0  0  0  0  0  0  0  0
   17.2344  -13.5847   17.9032 N   0  0  0  0  0  0  0  0  0  0  0  0
   11.7175  -15.9342   22.3152 C   0  0  0  0  0  0  0  0  0  0  0  0
   12.3783  -16.8019   22.9466 O   0  0  0  0  0  0  0  0  0  0  0  0
   10.6004  -15.3803   22.9574 O   0  0  0  0  0  0  0  0  0  0  0  0
  2  1  1  0
  3  4  1  6
  3  2  1  0
  5  6  2  0
  5  3  1  0
  8  7  1  6
  8 10  1  0
  9  8  1  0
 10 11  1  6
 10 12  1  0
 11  5  1  0
 12 14  1  0
 13 12  2  0
 14 15  1  0
 15 21  1  0
 15 16  1  1
 16 17  1  0
 18 17  1  0
 19 18  1  0
 20 19  1  0
 21 22  2  0
 21 23  1  0
M  END
$$$$
