MII.pdb
     RDKit          3D

 25 24  0  0  1  0  0  0  0  0999 V2000
    7.4863  -11.4434   27.4851 C   0  0  0  0  0  0  0  0  0  0  0  0
    5.6983  -11.6562   27.3790 S   0  0  0  0  0  0  0  0  0  0  0  0
    5.2774  -13.3543   26.8458 C   0  0  0  0  0  0  0  0  0  0  0  0
    6.5301  -14.0430   26.2896 C   0  0  0  0  0  0  0  0  0  0  0  0
    6.0280  -15.1538   25.3658 C   0  0  2  0  0  0  0  0  0  0  0  0
    5.4856  -16.1771   26.2045 N   0  0  0  0  0  0  0  0  0  0  0  0
    7.1276  -15.6351   24.4921 C   0  0  0  0  0  0  0  0  0  0  0  0
    7.6272  -16.7543   24.7651 O   0  0  0  0  0  0  0  0  0  0  0  0
    7.6720  -13.0700   20.1355 C   0  0  0  0  0  0  0  0  0  0  0  0
    7.6380  -14.5267   20.6678 C   0  0  0  0  0  0  0  0  0  0  0  0
    8.9598  -14.7422   21.3464 C   0  0  2  0  0  0  0  0  0  0  0  0
    9.8190  -15.5153   20.3691 C   0  0  0  0  0  0  0  0  0  0  0  0
    8.8206  -15.4086   22.6625 C   0  0  2  0  0  0  0  0  0  0  0  0
    7.6453  -14.9292   23.3872 N   0  0  0  0  0  0  0  0  0  0  0  0
   10.0213  -15.2340   23.5219 C   0  0  0  0  0  0  0  0  0  0  0  0
   10.7639  -14.2331   23.4473 O   0  0  0  0  0  0  0  0  0  0  0  0
    9.8829  -15.7372   28.7931 C   0  0  0  0  0  0  0  0  0  0  0  0
   10.3090  -16.2965   27.4598 C   0  0  0  0  0  0  0  0  0  0  0  0
   11.1045  -15.2974   26.6481 C   0  0  2  0  0  0  0  0  0  0  0  0
   10.3847  -14.0084   26.4130 C   0  0  0  0  0  0  0  0  0  0  0  0
   11.4881  -15.9926   25.3528 C   0  0  2  0  0  0  0  0  0  0  0  0
   10.3846  -16.2270   24.4921 N   0  0  0  0  0  0  0  0  0  0  0  0
   12.2746  -17.2298   25.6420 C   0  0  0  0  0  0  0  0  0  0  0  0
   13.5197  -17.2314   26.2235 O   0  0  0  0  0  0  0  0  0  0  0  0
   11.7542  -18.3284   25.3295 O   0  0  0  0  0  0  0  0  0  0  0  0
  1  2  1  0
  3  2  1  0
  3  4  1  0
  5  4  1  0
  5  6  1  1
  7  5  1  0
  8  7  2  0
 10  9  1  0
 11 13  1  0
 11 10  1  0
 11 12  1  6
 13 14  1  1
 14  7  1  0
 15 22  1  0
 15 13  1  0
 16 15  2  0
 18 19  1  0
 18 17  1  0
 19 20  1  6
 21 22  1  1
 21 19  1  0
 23 21  1  0
 23 24  1  0
 25 23  2  0
M  END
$$$$
