MII.pdb
     RDKit          3D

 25 24  0  0  1  0  0  0  0  0999 V2000
    6.9691  -20.7450   21.9975 C   0  0  0  0  0  0  0  0  0  0  0  0
    7.5783  -20.2710   20.3673 S   0  0  0  0  0  0  0  0  0  0  0  0
    7.5726  -18.4521   20.1762 C   0  0  0  0  0  0  0  0  0  0  0  0
    8.4297  -17.8174   21.2786 C   0  0  0  0  0  0  0  0  0  0  0  0
    8.2093  -16.3077   21.1702 C   0  0  2  0  0  0  0  0  0  0  0  0
    8.9190  -15.8673   20.0096 N   0  0  0  0  0  0  0  0  0  0  0  0
    8.6486  -15.6311   22.4165 C   0  0  0  0  0  0  0  0  0  0  0  0
    9.8309  -15.2100   22.4528 O   0  0  0  0  0  0  0  0  0  0  0  0
    5.5242  -12.2544   25.3860 C   0  0  0  0  0  0  0  0  0  0  0  0
    6.6585  -12.8932   24.5423 C   0  0  0  0  0  0  0  0  0  0  0  0
    7.2534  -13.9662   25.4075 C   0  0  2  0  0  0  0  0  0  0  0  0
    7.7052  -13.2844   26.6811 C   0  0  0  0  0  0  0  0  0  0  0  0
    8.3358  -14.7123   24.7236 C   0  0  2  0  0  0  0  0  0  0  0  0
    7.8377  -15.4302   23.5519 N   0  0  0  0  0  0  0  0  0  0  0  0
    9.0231  -15.6759   25.6235 C   0  0  0  0  0  0  0  0  0  0  0  0
    8.6318  -16.8515   25.7774 O   0  0  0  0  0  0  0  0  0  0  0  0
   10.6046  -13.4593   29.9227 C   0  0  0  0  0  0  0  0  0  0  0  0
   10.6552  -14.1333   28.5755 C   0  0  0  0  0  0  0  0  0  0  0  0
   10.9172  -15.6193   28.6887 C   0  0  2  0  0  0  0  0  0  0  0  0
   12.2418  -15.9490   29.2985 C   0  0  0  0  0  0  0  0  0  0  0  0
   10.7605  -16.1987   27.2930 C   0  0  2  0  0  0  0  0  0  0  0  0
   10.1876  -15.2887   26.3673 N   0  0  0  0  0  0  0  0  0  0  0  0
   10.0350  -17.5038   27.3522 C   0  0  0  0  0  0  0  0  0  0  0  0
    8.6885  -17.6249   27.5982 O   0  0  0  0  0  0  0  0  0  0  0  0
   10.7092  -18.5456   27.1639 O   0  0  0  0  0  0  0  0  0  0  0  0
  1  2  1  0
  3  2  1  0
  3  4  1  0
  5  4  1  0
  5  6  1  6
  7  5  1  0
  8  7  2  0
 10  9  1  0
 11 13  1  0
 11 10  1  0
 11 12  1  1
 13 14  1  6
 14  7  1  0
 15 22  1  0
 15 13  1  0
 16 15  2  0
 18 19  1  0
 18 17  1  0
 19 20  1  6
 21 22  1  6
 21 19  1  0
 23 21  1  0
 23 24  1  0
 25 23  2  0
M  END
$$$$
