MII.pdb
     RDKit          3D

 25 24  0  0  1  0  0  0  0  0999 V2000
    6.4222  -20.9516   26.8991 C   0  0  0  0  0  0  0  0  0  0  0  0
    5.8481  -21.6066   25.3196 S   0  0  0  0  0  0  0  0  0  0  0  0
    5.6852  -20.2689   24.0831 C   0  0  0  0  0  0  0  0  0  0  0  0
    6.8821  -19.3164   24.1966 C   0  0  0  0  0  0  0  0  0  0  0  0
    6.5569  -18.1191   23.3021 C   0  0  2  0  0  0  0  0  0  0  0  0
    6.8695  -18.5060   21.9615 N   0  0  0  0  0  0  0  0  0  0  0  0
    7.3046  -16.9188   23.7542 C   0  0  0  0  0  0  0  0  0  0  0  0
    8.4768  -16.7799   23.3259 O   0  0  0  0  0  0  0  0  0  0  0  0
    6.6929  -11.5018   26.6278 C   0  0  0  0  0  0  0  0  0  0  0  0
    7.6859  -12.5921   26.1461 C   0  0  0  0  0  0  0  0  0  0  0  0
    6.8356  -13.7154   25.6276 C   0  0  2  0  0  0  0  0  0  0  0  0
    5.8952  -14.0918   26.7523 C   0  0  0  0  0  0  0  0  0  0  0  0
    7.6417  -14.8544   25.1287 C   0  0  2  0  0  0  0  0  0  0  0  0
    6.7946  -15.9329   24.6230 N   0  0  0  0  0  0  0  0  0  0  0  0
    8.5563  -15.4046   26.1637 C   0  0  0  0  0  0  0  0  0  0  0  0
    8.1929  -16.2574   27.0001 O   0  0  0  0  0  0  0  0  0  0  0  0
   13.4255  -16.2998   24.3792 C   0  0  0  0  0  0  0  0  0  0  0  0
   12.0944  -16.2136   25.0811 C   0  0  0  0  0  0  0  0  0  0  0  0
   12.2332  -15.7554   26.5166 C   0  0  2  0  0  0  0  0  0  0  0  0
   13.1306  -16.6239   27.3383 C   0  0  0  0  0  0  0  0  0  0  0  0
   10.8273  -15.6700   27.0864 C   0  0  2  0  0  0  0  0  0  0  0  0
    9.9218  -14.9709   26.2471 N   0  0  0  0  0  0  0  0  0  0  0  0
   10.8648  -15.1315   28.4797 C   0  0  0  0  0  0  0  0  0  0  0  0
   10.3946  -13.8909   28.8378 O   0  0  0  0  0  0  0  0  0  0  0  0
   11.3588  -15.8680   29.3679 O   0  0  0  0  0  0  0  0  0  0  0  0
  1  2  1  0
  3  2  1  0
  3  4  1  0
  5  4  1  0
  5  6  1  6
  7  5  1  0
  8  7  2  0
 10  9  1  0
 11 13  1  0
 11 10  1  0
 11 12  1  1
 13 14  1  1
 14  7  1  0
 15 22  1  0
 15 13  1  0
 16 15  2  0
 18 19  1  0
 18 17  1  0
 19 20  1  1
 21 22  1  6
 21 19  1  0
 23 21  1  0
 23 24  1  0
 25 23  2  0
M  END
$$$$
