MII.pdb
     RDKit          3D

 25 24  0  0  1  0  0  0  0  0999 V2000
    7.9473  -20.8915   24.5912 C   0  0  0  0  0  0  0  0  0  0  0  0
    9.5953  -21.3970   24.0603 S   0  0  0  0  0  0  0  0  0  0  0  0
   10.3077  -20.1737   22.9023 C   0  0  0  0  0  0  0  0  0  0  0  0
    9.3065  -19.8899   21.7753 C   0  0  0  0  0  0  0  0  0  0  0  0
    9.9663  -18.8434   20.8760 C   0  0  2  0  0  0  0  0  0  0  0  0
   11.3246  -19.2510   20.6929 N   0  0  0  0  0  0  0  0  0  0  0  0
    9.8369  -17.4917   21.4762 C   0  0  0  0  0  0  0  0  0  0  0  0
   10.8141  -17.0638   22.1386 O   0  0  0  0  0  0  0  0  0  0  0  0
    7.2528  -12.1106   20.5588 C   0  0  0  0  0  0  0  0  0  0  0  0
    8.1469  -12.9550   21.5046 C   0  0  0  0  0  0  0  0  0  0  0  0
    7.8539  -14.3884   21.1681 C   0  0  2  0  0  0  0  0  0  0  0  0
    6.3620  -14.5713   21.3468 C   0  0  0  0  0  0  0  0  0  0  0  0
    8.6631  -15.3367   21.9692 C   0  0  2  0  0  0  0  0  0  0  0  0
    8.7035  -16.6624   21.3550 N   0  0  0  0  0  0  0  0  0  0  0  0
    8.1734  -15.4676   23.3669 C   0  0  0  0  0  0  0  0  0  0  0  0
    7.4419  -16.4083   23.7398 O   0  0  0  0  0  0  0  0  0  0  0  0
    5.7452  -12.0306   26.9632 C   0  0  0  0  0  0  0  0  0  0  0  0
    6.3104  -13.1421   26.1164 C   0  0  0  0  0  0  0  0  0  0  0  0
    7.7624  -13.4234   26.4363 C   0  0  2  0  0  0  0  0  0  0  0  0
    8.6803  -12.2936   26.0957 C   0  0  0  0  0  0  0  0  0  0  0  0
    8.1291  -14.7076   25.7121 C   0  0  2  0  0  0  0  0  0  0  0  0
    8.5273  -14.5002   24.3661 N   0  0  0  0  0  0  0  0  0  0  0  0
    7.0294  -15.7104   25.8466 C   0  0  0  0  0  0  0  0  0  0  0  0
    6.8013  -16.4545   26.9791 O   0  0  0  0  0  0  0  0  0  0  0  0
    6.2751  -15.8730   24.8567 O   0  0  0  0  0  0  0  0  0  0  0  0
  1  2  1  0
  3  2  1  0
  3  4  1  0
  5  4  1  0
  5  6  1  1
  7  5  1  0
  8  7  2  0
 10  9  1  0
 11 13  1  0
 11 10  1  0
 11 12  1  1
 13 14  1  6
 14  7  1  0
 15 22  1  0
 15 13  1  0
 16 15  2  0
 18 19  1  0
 18 17  1  0
 19 20  1  6
 21 22  1  6
 21 19  1  0
 23 21  1  0
 23 24  1  0
 25 23  2  0
M  END
$$$$
