MII.pdb
     RDKit          3D

 25 24  0  0  1  0  0  0  0  0999 V2000
    8.5427  -20.3265   28.2197 C   0  0  0  0  0  0  0  0  0  0  0  0
    6.8615  -20.8925   27.8933 S   0  0  0  0  0  0  0  0  0  0  0  0
    6.2627  -20.2552   26.2869 C   0  0  0  0  0  0  0  0  0  0  0  0
    7.1968  -19.1420   25.7959 C   0  0  0  0  0  0  0  0  0  0  0  0
    6.6079  -18.6471   24.4739 C   0  0  2  0  0  0  0  0  0  0  0  0
    6.6899  -19.7355   23.5501 N   0  0  0  0  0  0  0  0  0  0  0  0
    7.3251  -17.4321   24.0120 C   0  0  0  0  0  0  0  0  0  0  0  0
    8.2326  -17.5929   23.1591 O   0  0  0  0  0  0  0  0  0  0  0  0
    6.7301  -11.8987   25.6349 C   0  0  0  0  0  0  0  0  0  0  0  0
    6.5447  -13.4228   25.4129 C   0  0  0  0  0  0  0  0  0  0  0  0
    7.1761  -13.7194   24.0835 C   0  0  2  0  0  0  0  0  0  0  0  0
    6.0607  -13.6691   23.0616 C   0  0  0  0  0  0  0  0  0  0  0  0
    7.9190  -15.0016   24.0810 C   0  0  2  0  0  0  0  0  0  0  0  0
    7.0604  -16.1221   24.4600 N   0  0  0  0  0  0  0  0  0  0  0  0
    9.1045  -14.9776   24.9780 C   0  0  0  0  0  0  0  0  0  0  0  0
   10.0306  -14.1502   24.8494 O   0  0  0  0  0  0  0  0  0  0  0  0
   10.7000  -13.5006   29.6618 C   0  0  0  0  0  0  0  0  0  0  0  0
   10.9431  -14.9092   29.1834 C   0  0  0  0  0  0  0  0  0  0  0  0
    9.7691  -15.4588   28.4026 C   0  0  2  0  0  0  0  0  0  0  0  0
    9.1277  -16.6475   29.0434 C   0  0  0  0  0  0  0  0  0  0  0  0
   10.2766  -15.7576   27.0021 C   0  0  2  0  0  0  0  0  0  0  0  0
    9.2372  -15.9220   26.0504 N   0  0  0  0  0  0  0  0  0  0  0  0
   11.2282  -16.9094   27.0306 C   0  0  0  0  0  0  0  0  0  0  0  0
   11.0133  -18.1010   26.3810 O   0  0  0  0  0  0  0  0  0  0  0  0
   12.2850  -16.7661   27.6925 O   0  0  0  0  0  0  0  0  0  0  0  0
  1  2  1  0
  3  2  1  0
  3  4  1  0
  5  4  1  0
  5  6  1  6
  7  5  1  0
  8  7  2  0
 10  9  1  0
 11 13  1  0
 11 10  1  0
 11 12  1  6
 13 14  1  1
 14  7  1  0
 15 22  1  0
 15 13  1  0
 16 15  2  0
 18 19  1  0
 18 17  1  0
 19 20  1  1
 21 22  1  6
 21 19  1  0
 23 21  1  0
 23 24  1  0
 25 23  2  0
M  END
$$$$
