MII.pdb
     RDKit          3D

 25 24  0  0  1  0  0  0  0  0999 V2000
    7.9937  -12.3703   19.8655 C   0  0  0  0  0  0  0  0  0  0  0  0
    8.1379  -13.3811   18.3785 S   0  0  0  0  0  0  0  0  0  0  0  0
    7.7489  -15.1306   18.7430 C   0  0  0  0  0  0  0  0  0  0  0  0
    7.0912  -15.2332   20.1249 C   0  0  0  0  0  0  0  0  0  0  0  0
    6.9035  -16.7269   20.3950 C   0  0  2  0  0  0  0  0  0  0  0  0
    5.8431  -17.1720   19.5452 N   0  0  0  0  0  0  0  0  0  0  0  0
    6.6358  -16.9612   21.8363 C   0  0  0  0  0  0  0  0  0  0  0  0
    5.5002  -16.6420   22.2667 O   0  0  0  0  0  0  0  0  0  0  0  0
    6.8337  -21.2412   24.8415 C   0  0  0  0  0  0  0  0  0  0  0  0
    6.4709  -19.8762   24.2000 C   0  0  0  0  0  0  0  0  0  0  0  0
    7.4619  -18.8922   24.7509 C   0  0  2  0  0  0  0  0  0  0  0  0
    7.3150  -18.9376   26.2566 C   0  0  0  0  0  0  0  0  0  0  0  0
    7.2894  -17.5342   24.1835 C   0  0  2  0  0  0  0  0  0  0  0  0
    7.5596  -17.5124   22.7472 N   0  0  0  0  0  0  0  0  0  0  0  0
    8.1496  -16.5218   24.8513 C   0  0  0  0  0  0  0  0  0  0  0  0
    9.3787  -16.4414   24.6474 O   0  0  0  0  0  0  0  0  0  0  0  0
    6.0355  -11.7170   26.0858 C   0  0  0  0  0  0  0  0  0  0  0  0
    6.8650  -12.9243   25.7300 C   0  0  0  0  0  0  0  0  0  0  0  0
    7.7238  -13.3892   26.8859 C   0  0  2  0  0  0  0  0  0  0  0  0
    8.6641  -12.3429   27.3921 C   0  0  0  0  0  0  0  0  0  0  0  0
    8.4461  -14.6414   26.4182 C   0  0  2  0  0  0  0  0  0  0  0  0
    7.5932  -15.5760   25.7761 N   0  0  0  0  0  0  0  0  0  0  0  0
    9.2253  -15.2408   27.5436 C   0  0  0  0  0  0  0  0  0  0  0  0
   10.5293  -14.9189   27.8335 O   0  0  0  0  0  0  0  0  0  0  0  0
    8.6405  -16.0893   28.2601 O   0  0  0  0  0  0  0  0  0  0  0  0
  1  2  1  0
  3  2  1  0
  3  4  1  0
  5  4  1  0
  5  6  1  6
  7  5  1  0
  8  7  2  0
 10  9  1  0
 11 13  1  0
 11 10  1  0
 11 12  1  1
 13 14  1  6
 14  7  1  0
 15 22  1  0
 15 13  1  0
 16 15  2  0
 18 19  1  0
 18 17  1  0
 19 20  1  6
 21 22  1  1
 21 19  1  0
 23 21  1  0
 23 24  1  0
 25 23  2  0
M  END
$$$$
