MII.pdb
     RDKit          3D

 25 24  0  0  1  0  0  0  0  0999 V2000
    5.1562  -12.0061   26.6991 C   0  0  0  0  0  0  0  0  0  0  0  0
    3.9357  -13.2114   27.2569 S   0  0  0  0  0  0  0  0  0  0  0  0
    4.0282  -14.7394   26.2560 C   0  0  0  0  0  0  0  0  0  0  0  0
    5.4978  -15.1117   26.0224 C   0  0  0  0  0  0  0  0  0  0  0  0
    5.4896  -16.2445   24.9947 C   0  0  2  0  0  0  0  0  0  0  0  0
    5.1938  -17.4485   25.7069 N   0  0  0  0  0  0  0  0  0  0  0  0
    6.7855  -16.2953   24.2721 C   0  0  0  0  0  0  0  0  0  0  0  0
    7.4880  -17.3243   24.4288 O   0  0  0  0  0  0  0  0  0  0  0  0
    8.5668  -12.1751   20.7583 C   0  0  0  0  0  0  0  0  0  0  0  0
    8.6263  -13.0777   22.0187 C   0  0  0  0  0  0  0  0  0  0  0  0
    8.5530  -14.4888   21.5116 C   0  0  2  0  0  0  0  0  0  0  0  0
    7.3750  -14.5396   20.5626 C   0  0  0  0  0  0  0  0  0  0  0  0
    8.4689  -15.4826   22.6076 C   0  0  2  0  0  0  0  0  0  0  0  0
    7.2778  -15.2780   23.4297 N   0  0  0  0  0  0  0  0  0  0  0  0
    9.6688  -15.4688   23.4855 C   0  0  0  0  0  0  0  0  0  0  0  0
   10.8323  -15.4111   23.0362 O   0  0  0  0  0  0  0  0  0  0  0  0
   10.2176  -12.3964   27.7230 C   0  0  0  0  0  0  0  0  0  0  0  0
   10.3668  -13.3322   26.5507 C   0  0  0  0  0  0  0  0  0  0  0  0
   10.6127  -14.7603   26.9864 C   0  0  2  0  0  0  0  0  0  0  0  0
   11.8129  -14.9206   27.8633 C   0  0  0  0  0  0  0  0  0  0  0  0
   10.7038  -15.5945   25.7198 C   0  0  2  0  0  0  0  0  0  0  0  0
    9.5384  -15.5220   24.9136 N   0  0  0  0  0  0  0  0  0  0  0  0
   11.0972  -16.9976   26.0507 C   0  0  0  0  0  0  0  0  0  0  0  0
   12.3847  -17.3907   26.3267 O   0  0  0  0  0  0  0  0  0  0  0  0
   10.1857  -17.8600   26.0745 O   0  0  0  0  0  0  0  0  0  0  0  0
  1  2  1  0
  3  2  1  0
  3  4  1  0
  5  4  1  0
  5  6  1  1
  7  5  1  0
  8  7  2  0
 10  9  1  0
 11 13  1  0
 11 10  1  0
 11 12  1  6
 13 14  1  1
 14  7  1  0
 15 22  1  0
 15 13  1  0
 16 15  2  0
 18 19  1  0
 18 17  1  0
 19 20  1  6
 21 22  1  1
 21 19  1  0
 23 21  1  0
 23 24  1  0
 25 23  2  0
M  END
$$$$
