MII.pdb
     RDKit          3D

 25 24  0  0  1  0  0  0  0  0999 V2000
    6.8695  -18.1840   28.1627 C   0  0  0  0  0  0  0  0  0  0  0  0
    6.7836  -19.3079   26.7544 S   0  0  0  0  0  0  0  0  0  0  0  0
    6.3870  -18.3958   25.2196 C   0  0  0  0  0  0  0  0  0  0  0  0
    6.2556  -19.3846   24.0543 C   0  0  0  0  0  0  0  0  0  0  0  0
    5.9007  -18.5462   22.8253 C   0  0  2  0  0  0  0  0  0  0  0  0
    5.6988  -19.4599   21.7441 N   0  0  0  0  0  0  0  0  0  0  0  0
    6.9659  -17.5476   22.5564 C   0  0  0  0  0  0  0  0  0  0  0  0
    8.0859  -17.9880   22.1983 O   0  0  0  0  0  0  0  0  0  0  0  0
    6.3252  -13.0227   19.6911 C   0  0  0  0  0  0  0  0  0  0  0  0
    6.9943  -14.3215   20.2127 C   0  0  0  0  0  0  0  0  0  0  0  0
    7.3943  -14.0314   21.6303 C   0  0  2  0  0  0  0  0  0  0  0  0
    8.4060  -12.9074   21.5656 C   0  0  0  0  0  0  0  0  0  0  0  0
    7.8951  -15.2339   22.3367 C   0  0  2  0  0  0  0  0  0  0  0  0
    6.8087  -16.1517   22.6739 N   0  0  0  0  0  0  0  0  0  0  0  0
    8.6451  -14.8984   23.5759 C   0  0  0  0  0  0  0  0  0  0  0  0
    9.7399  -14.2984   23.5598 O   0  0  0  0  0  0  0  0  0  0  0  0
    5.8188  -12.4927   26.8933 C   0  0  0  0  0  0  0  0  0  0  0  0
    6.8738  -13.2109   26.0913 C   0  0  0  0  0  0  0  0  0  0  0  0
    7.8025  -14.0245   26.9662 C   0  0  2  0  0  0  0  0  0  0  0  0
    8.5151  -13.2130   28.0000 C   0  0  0  0  0  0  0  0  0  0  0  0
    8.7601  -14.7473   26.0342 C   0  0  2  0  0  0  0  0  0  0  0  0
    8.1328  -15.2564   24.8677 N   0  0  0  0  0  0  0  0  0  0  0  0
    9.5273  -15.7872   26.7844 C   0  0  0  0  0  0  0  0  0  0  0  0
    9.4569  -17.1341   26.5216 O   0  0  0  0  0  0  0  0  0  0  0  0
   10.2786  -15.3923   27.7090 O   0  0  0  0  0  0  0  0  0  0  0  0
  1  2  1  0
  3  2  1  0
  3  4  1  0
  5  4  1  0
  5  6  1  6
  7  5  1  0
  8  7  2  0
 10  9  1  0
 11 13  1  0
 11 10  1  0
 11 12  1  6
 13 14  1  1
 14  7  1  0
 15 22  1  0
 15 13  1  0
 16 15  2  0
 18 19  1  0
 18 17  1  0
 19 20  1  1
 21 22  1  6
 21 19  1  0
 23 21  1  0
 23 24  1  0
 25 23  2  0
M  END
$$$$
