MII.pdb
     RDKit          3D

 25 24  0  0  1  0  0  0  0  0999 V2000
    6.4730  -19.0255   27.9813 C   0  0  0  0  0  0  0  0  0  0  0  0
    6.6606  -20.6396   27.1984 S   0  0  0  0  0  0  0  0  0  0  0  0
    6.4827  -20.5049   25.3831 C   0  0  0  0  0  0  0  0  0  0  0  0
    6.4868  -19.0262   24.9752 C   0  0  0  0  0  0  0  0  0  0  0  0
    6.3343  -19.0060   23.4535 C   0  0  2  0  0  0  0  0  0  0  0  0
    6.5840  -20.3368   22.9940 N   0  0  0  0  0  0  0  0  0  0  0  0
    7.2480  -17.9997   22.8564 C   0  0  0  0  0  0  0  0  0  0  0  0
    8.4134  -18.3772   22.5809 O   0  0  0  0  0  0  0  0  0  0  0  0
    7.4932  -12.4084   20.3828 C   0  0  0  0  0  0  0  0  0  0  0  0
    8.2906  -13.7052   20.6813 C   0  0  0  0  0  0  0  0  0  0  0  0
    7.2848  -14.6889   21.2052 C   0  0  2  0  0  0  0  0  0  0  0  0
    6.2010  -13.8730   21.8765 C   0  0  0  0  0  0  0  0  0  0  0  0
    7.8941  -15.7042   22.0963 C   0  0  2  0  0  0  0  0  0  0  0  0
    6.9012  -16.6618   22.5795 N   0  0  0  0  0  0  0  0  0  0  0  0
    8.5877  -15.0983   23.2635 C   0  0  0  0  0  0  0  0  0  0  0  0
    9.5245  -14.2819   23.1419 O   0  0  0  0  0  0  0  0  0  0  0  0
    6.1269  -12.1805   26.1820 C   0  0  0  0  0  0  0  0  0  0  0  0
    7.1182  -13.0940   25.5076 C   0  0  0  0  0  0  0  0  0  0  0  0
    7.9233  -13.8998   26.5037 C   0  0  2  0  0  0  0  0  0  0  0  0
    8.6634  -13.0598   27.4946 C   0  0  0  0  0  0  0  0  0  0  0  0
    8.8479  -14.7953   25.6966 C   0  0  2  0  0  0  0  0  0  0  0  0
    8.2026  -15.4320   24.6050 N   0  0  0  0  0  0  0  0  0  0  0  0
    9.5546  -15.7561   26.5968 C   0  0  0  0  0  0  0  0  0  0  0  0
   10.6137  -15.4172   27.4040 O   0  0  0  0  0  0  0  0  0  0  0  0
    9.1452  -16.9426   26.6065 O   0  0  0  0  0  0  0  0  0  0  0  0
  1  2  1  0
  3  2  1  0
  3  4  1  0
  5  4  1  0
  5  6  1  6
  7  5  1  0
  8  7  2  0
 10  9  1  0
 11 13  1  0
 11 10  1  0
 11 12  1  1
 13 14  1  1
 14  7  1  0
 15 22  1  0
 15 13  1  0
 16 15  2  0
 18 19  1  0
 18 17  1  0
 19 20  1  1
 21 22  1  6
 21 19  1  0
 23 21  1  0
 23 24  1  0
 25 23  2  0
M  END
$$$$
