MII.pdb
     RDKit          3D

 25 24  0  0  1  0  0  0  0  0999 V2000
    5.2616  -20.4037   23.9129 C   0  0  0  0  0  0  0  0  0  0  0  0
    5.3715  -20.3362   22.1138 S   0  0  0  0  0  0  0  0  0  0  0  0
    5.8515  -18.6620   21.5554 C   0  0  0  0  0  0  0  0  0  0  0  0
    6.9033  -18.0842   22.5107 C   0  0  0  0  0  0  0  0  0  0  0  0
    7.0802  -16.6189   22.1098 C   0  0  2  0  0  0  0  0  0  0  0  0
    7.6881  -16.6135   20.8156 N   0  0  0  0  0  0  0  0  0  0  0  0
    7.8766  -15.8962   23.1334 C   0  0  0  0  0  0  0  0  0  0  0  0
    9.1236  -15.8872   22.9868 O   0  0  0  0  0  0  0  0  0  0  0  0
    6.0768  -11.7416   26.3117 C   0  0  0  0  0  0  0  0  0  0  0  0
    6.9497  -12.5764   25.3380 C   0  0  0  0  0  0  0  0  0  0  0  0
    7.4904  -13.7157   26.1525 C   0  0  2  0  0  0  0  0  0  0  0  0
    8.3711  -13.0977   27.2171 C   0  0  0  0  0  0  0  0  0  0  0  0
    8.1900  -14.7250   25.3231 C   0  0  2  0  0  0  0  0  0  0  0  0
    7.3349  -15.2251   24.2484 N   0  0  0  0  0  0  0  0  0  0  0  0
    8.6851  -15.8775   26.1213 C   0  0  0  0  0  0  0  0  0  0  0  0
    7.9212  -16.6443   26.7438 O   0  0  0  0  0  0  0  0  0  0  0  0
   12.5336  -18.8241   24.0444 C   0  0  0  0  0  0  0  0  0  0  0  0
   11.4043  -18.1738   24.8020 C   0  0  0  0  0  0  0  0  0  0  0  0
   11.7311  -17.9880   26.2678 C   0  0  2  0  0  0  0  0  0  0  0  0
   12.1168  -19.2554   26.9606 C   0  0  0  0  0  0  0  0  0  0  0  0
   10.5224  -17.3232   26.9045 C   0  0  2  0  0  0  0  0  0  0  0  0
   10.0885  -16.1634   26.2119 N   0  0  0  0  0  0  0  0  0  0  0  0
   10.7725  -17.0754   28.3568 C   0  0  0  0  0  0  0  0  0  0  0  0
   10.9016  -15.8254   28.9127 O   0  0  0  0  0  0  0  0  0  0  0  0
   10.8683  -18.0797   29.1034 O   0  0  0  0  0  0  0  0  0  0  0  0
  1  2  1  0
  3  2  1  0
  3  4  1  0
  5  4  1  0
  5  6  1  6
  7  5  1  0
  8  7  2  0
 10  9  1  0
 11 13  1  0
 11 10  1  0
 11 12  1  1
 13 14  1  6
 14  7  1  0
 15 22  1  0
 15 13  1  0
 16 15  2  0
 18 19  1  0
 18 17  1  0
 19 20  1  1
 21 22  1  6
 21 19  1  0
 23 21  1  0
 23 24  1  0
 25 23  2  0
M  END
$$$$
