MII.pdb
     RDKit          3D

 25 24  0  0  1  0  0  0  0  0999 V2000
    7.9700  -19.3925   27.8981 C   0  0  0  0  0  0  0  0  0  0  0  0
    6.3284  -20.0360   27.5179 S   0  0  0  0  0  0  0  0  0  0  0  0
    5.9910  -19.9336   25.7233 C   0  0  0  0  0  0  0  0  0  0  0  0
    7.0324  -19.0263   25.0561 C   0  0  0  0  0  0  0  0  0  0  0  0
    6.6707  -18.9874   23.5705 C   0  0  2  0  0  0  0  0  0  0  0  0
    6.8610  -20.3104   23.0625 N   0  0  0  0  0  0  0  0  0  0  0  0
    7.4881  -17.9672   22.8667 C   0  0  0  0  0  0  0  0  0  0  0  0
    8.6673  -18.2825   22.5723 O   0  0  0  0  0  0  0  0  0  0  0  0
    7.2486  -12.6388   19.8464 C   0  0  0  0  0  0  0  0  0  0  0  0
    8.1641  -13.7738   20.3758 C   0  0  0  0  0  0  0  0  0  0  0  0
    7.2426  -14.7808   21.0007 C   0  0  2  0  0  0  0  0  0  0  0  0
    6.1267  -13.9912   21.6504 C   0  0  0  0  0  0  0  0  0  0  0  0
    7.9448  -15.6881   21.9386 C   0  0  2  0  0  0  0  0  0  0  0  0
    7.0363  -16.6808   22.5092 N   0  0  0  0  0  0  0  0  0  0  0  0
    8.6174  -14.9576   23.0453 C   0  0  0  0  0  0  0  0  0  0  0  0
    9.2600  -13.9025   22.8642 O   0  0  0  0  0  0  0  0  0  0  0  0
    7.3522  -11.4539   27.0680 C   0  0  0  0  0  0  0  0  0  0  0  0
    8.3195  -12.5657   26.7514 C   0  0  0  0  0  0  0  0  0  0  0  0
    7.7905  -13.4972   25.6826 C   0  0  2  0  0  0  0  0  0  0  0  0
    6.4518  -14.0795   26.0049 C   0  0  0  0  0  0  0  0  0  0  0  0
    8.8510  -14.5638   25.4680 C   0  0  2  0  0  0  0  0  0  0  0  0
    8.5553  -15.4430   24.3943 N   0  0  0  0  0  0  0  0  0  0  0  0
    9.1308  -15.2812   26.7486 C   0  0  0  0  0  0  0  0  0  0  0  0
    9.7554  -14.7088   27.8304 O   0  0  0  0  0  0  0  0  0  0  0  0
    8.7676  -16.4801   26.8274 O   0  0  0  0  0  0  0  0  0  0  0  0
  1  2  1  0
  3  2  1  0
  3  4  1  0
  5  4  1  0
  5  6  1  6
  7  5  1  0
  8  7  2  0
 10  9  1  0
 11 13  1  0
 11 10  1  0
 11 12  1  1
 13 14  1  1
 14  7  1  0
 15 22  1  0
 15 13  1  0
 16 15  2  0
 18 19  1  0
 18 17  1  0
 19 20  1  1
 21 22  1  6
 21 19  1  0
 23 21  1  0
 23 24  1  0
 25 23  2  0
M  END
$$$$
