MII.pdb
     RDKit          3D

 25 24  0  0  1  0  0  0  0  0999 V2000
    5.9323  -21.0936   24.3163 C   0  0  0  0  0  0  0  0  0  0  0  0
    5.8390  -21.0319   22.5160 S   0  0  0  0  0  0  0  0  0  0  0  0
    5.8644  -19.3017   21.9239 C   0  0  0  0  0  0  0  0  0  0  0  0
    6.8412  -18.4817   22.7762 C   0  0  0  0  0  0  0  0  0  0  0  0
    6.7778  -17.0522   22.2361 C   0  0  2  0  0  0  0  0  0  0  0  0
    7.2853  -17.0908   20.8998 N   0  0  0  0  0  0  0  0  0  0  0  0
    7.5331  -16.1314   23.1225 C   0  0  0  0  0  0  0  0  0  0  0  0
    8.7405  -15.9300   22.8428 O   0  0  0  0  0  0  0  0  0  0  0  0
    5.4941  -11.9541   26.1931 C   0  0  0  0  0  0  0  0  0  0  0  0
    6.3598  -12.7640   25.1925 C   0  0  0  0  0  0  0  0  0  0  0  0
    7.0676  -13.8016   26.0150 C   0  0  2  0  0  0  0  0  0  0  0  0
    7.9111  -13.0461   27.0193 C   0  0  0  0  0  0  0  0  0  0  0  0
    7.8485  -14.7487   25.1849 C   0  0  2  0  0  0  0  0  0  0  0  0
    6.9938  -15.4732   24.2463 N   0  0  0  0  0  0  0  0  0  0  0  0
    8.6096  -15.7312   26.0011 C   0  0  0  0  0  0  0  0  0  0  0  0
    8.1419  -16.8415   26.3290 O   0  0  0  0  0  0  0  0  0  0  0  0
   11.0511  -13.9391   28.8411 C   0  0  0  0  0  0  0  0  0  0  0  0
   11.6545  -15.3098   29.0114 C   0  0  0  0  0  0  0  0  0  0  0  0
   12.0025  -15.9504   27.6854 C   0  0  2  0  0  0  0  0  0  0  0  0
   12.7409  -15.0411   26.7565 C   0  0  0  0  0  0  0  0  0  0  0  0
   10.7001  -16.4564   27.0888 C   0  0  2  0  0  0  0  0  0  0  0  0
    9.9394  -15.4400   26.4551 N   0  0  0  0  0  0  0  0  0  0  0  0
    9.9205  -17.2142   28.1140 C   0  0  0  0  0  0  0  0  0  0  0  0
    8.8091  -16.7213   28.7544 O   0  0  0  0  0  0  0  0  0  0  0  0
   10.3163  -18.3709   28.3983 O   0  0  0  0  0  0  0  0  0  0  0  0
  1  2  1  0
  3  2  1  0
  3  4  1  0
  5  4  1  0
  5  6  1  6
  7  5  1  0
  8  7  2  0
 10  9  1  0
 11 13  1  0
 11 10  1  0
 11 12  1  1
 13 14  1  6
 14  7  1  0
 15 22  1  0
 15 13  1  0
 16 15  2  0
 18 19  1  0
 18 17  1  0
 19 20  1  6
 21 22  1  1
 21 19  1  0
 23 21  1  0
 23 24  1  0
 25 23  2  0
M  END
$$$$
