MII.pdb
     RDKit          3D

 25 24  0  0  1  0  0  0  0  0999 V2000
    5.0456  -21.5961   20.1224 C   0  0  0  0  0  0  0  0  0  0  0  0
    5.9359  -22.3099   18.7255 S   0  0  0  0  0  0  0  0  0  0  0  0
    6.7117  -20.9995   17.7125 C   0  0  0  0  0  0  0  0  0  0  0  0
    7.3449  -19.9474   18.6317 C   0  0  0  0  0  0  0  0  0  0  0  0
    7.7809  -18.7976   17.7222 C   0  0  2  0  0  0  0  0  0  0  0  0
    8.6043  -19.3661   16.7007 N   0  0  0  0  0  0  0  0  0  0  0  0
    8.4706  -17.7471   18.5127 C   0  0  0  0  0  0  0  0  0  0  0  0
    9.7261  -17.7689   18.5209 O   0  0  0  0  0  0  0  0  0  0  0  0
    7.5751  -12.1386   20.8193 C   0  0  0  0  0  0  0  0  0  0  0  0
    8.5377  -13.3543   20.7729 C   0  0  0  0  0  0  0  0  0  0  0  0
    7.7797  -14.4463   20.0753 C   0  0  2  0  0  0  0  0  0  0  0  0
    6.4980  -14.6409   20.8566 C   0  0  0  0  0  0  0  0  0  0  0  0
    8.5756  -15.6880   19.9317 C   0  0  2  0  0  0  0  0  0  0  0  0
    7.8199  -16.7358   19.2481 N   0  0  0  0  0  0  0  0  0  0  0  0
    9.0561  -16.2134   21.2369 C   0  0  0  0  0  0  0  0  0  0  0  0
    8.2904  -16.7208   22.0826 O   0  0  0  0  0  0  0  0  0  0  0  0
   12.6852  -19.7504   21.2437 C   0  0  0  0  0  0  0  0  0  0  0  0
   11.5883  -18.7811   21.6034 C   0  0  0  0  0  0  0  0  0  0  0  0
   12.0558  -17.7253   22.5814 C   0  0  2  0  0  0  0  0  0  0  0  0
   12.5686  -18.2865   23.8687 C   0  0  0  0  0  0  0  0  0  0  0  0
   10.8902  -16.7727   22.7870 C   0  0  2  0  0  0  0  0  0  0  0  0
   10.4468  -16.1592   21.5869 N   0  0  0  0  0  0  0  0  0  0  0  0
   11.2110  -15.7858   23.8621 C   0  0  0  0  0  0  0  0  0  0  0  0
   11.5577  -14.4772   23.6265 O   0  0  0  0  0  0  0  0  0  0  0  0
   11.1567  -16.1903   25.0490 O   0  0  0  0  0  0  0  0  0  0  0  0
  1  2  1  0
  3  2  1  0
  3  4  1  0
  5  4  1  0
  5  6  1  6
  7  5  1  0
  8  7  2  0
 10  9  1  0
 11 13  1  0
 11 10  1  0
 11 12  1  1
 13 14  1  1
 14  7  1  0
 15 22  1  0
 15 13  1  0
 16 15  2  0
 18 19  1  0
 18 17  1  0
 19 20  1  1
 21 22  1  6
 21 19  1  0
 23 21  1  0
 23 24  1  0
 25 23  2  0
M  END
$$$$
