MII.pdb
     RDKit          3D

 25 24  0  0  1  0  0  0  0  0999 V2000
   10.8065  -22.6326   21.5632 C   0  0  0  0  0  0  0  0  0  0  0  0
   11.9345  -21.3638   20.9540 S   0  0  0  0  0  0  0  0  0  0  0  0
   11.5191  -19.7307   21.6651 C   0  0  0  0  0  0  0  0  0  0  0  0
   12.5288  -18.6854   21.1744 C   0  0  0  0  0  0  0  0  0  0  0  0
   11.7225  -17.6598   20.3759 C   0  0  2  0  0  0  0  0  0  0  0  0
   12.6013  -17.1228   19.3840 N   0  0  0  0  0  0  0  0  0  0  0  0
   11.1610  -16.6262   21.2816 C   0  0  0  0  0  0  0  0  0  0  0  0
   11.9787  -15.8848   21.8804 O   0  0  0  0  0  0  0  0  0  0  0  0
    6.7693  -13.4413   20.4896 C   0  0  0  0  0  0  0  0  0  0  0  0
    8.1950  -13.9506   20.8281 C   0  0  0  0  0  0  0  0  0  0  0  0
    8.0400  -14.8103   22.0490 C   0  0  2  0  0  0  0  0  0  0  0  0
    7.4103  -13.9336   23.1099 C   0  0  0  0  0  0  0  0  0  0  0  0
    9.3186  -15.4253   22.4767 C   0  0  2  0  0  0  0  0  0  0  0  0
    9.7859  -16.4208   21.5139 N   0  0  0  0  0  0  0  0  0  0  0  0
    9.2281  -16.0581   23.8191 C   0  0  0  0  0  0  0  0  0  0  0  0
    8.7431  -17.1947   23.9973 O   0  0  0  0  0  0  0  0  0  0  0  0
    9.8032  -13.2012   28.7564 C   0  0  0  0  0  0  0  0  0  0  0  0
    9.3583  -14.0702   27.6080 C   0  0  0  0  0  0  0  0  0  0  0  0
   10.3039  -15.2265   27.3657 C   0  0  2  0  0  0  0  0  0  0  0  0
   11.7087  -14.8015   27.0807 C   0  0  0  0  0  0  0  0  0  0  0  0
    9.7068  -16.0508   26.2378 C   0  0  2  0  0  0  0  0  0  0  0  0
    9.7035  -15.3768   24.9892 N   0  0  0  0  0  0  0  0  0  0  0  0
    8.3580  -16.5622   26.6276 C   0  0  0  0  0  0  0  0  0  0  0  0
    7.1868  -16.1890   26.0133 O   0  0  0  0  0  0  0  0  0  0  0  0
    8.3060  -17.3825   27.5762 O   0  0  0  0  0  0  0  0  0  0  0  0
  1  2  1  0
  3  2  1  0
  3  4  1  0
  5  4  1  0
  5  6  1  6
  7  5  1  0
  8  7  2  0
 10  9  1  0
 11 13  1  0
 11 10  1  0
 11 12  1  1
 13 14  1  6
 14  7  1  0
 15 22  1  0
 15 13  1  0
 16 15  2  0
 18 19  1  0
 18 17  1  0
 19 20  1  6
 21 22  1  6
 21 19  1  0
 23 21  1  0
 23 24  1  0
 25 23  2  0
M  END
$$$$
