DIE.pdb
     RDKit          3D

 26 25  0  0  1  0  0  0  0  0999 V2000
    8.5105  -15.0609   20.4060 N   0  0  0  0  0  0  0  0  0  0  0  0
    7.6925  -15.4189   21.5159 C   0  0  1  0  0  0  0  0  0  0  0  0
    7.3737  -16.9028   21.4619 C   0  0  0  0  0  0  0  0  0  0  0  0
    7.7271  -17.5171   20.1876 C   0  0  0  0  0  0  0  0  0  0  0  0
    8.1199  -18.6975   20.1123 O   0  0  0  0  0  0  0  0  0  0  0  0
    8.3028  -15.1814   22.8432 C   0  0  0  0  0  0  0  0  0  0  0  0
    9.5522  -15.4078   22.9286 O   0  0  0  0  0  0  0  0  0  0  0  0
    7.6253  -16.7742   19.0262 O   0  0  0  0  0  0  0  0  0  0  0  0
    6.3182  -11.4984   26.3264 C   0  0  0  0  0  0  0  0  0  0  0  0
    7.2875  -12.3283   25.4776 C   0  0  0  0  0  0  0  0  0  0  0  0
    7.6081  -13.6101   26.1733 C   0  0  2  0  0  0  0  0  0  0  0  0
    8.3476  -13.3126   27.4513 C   0  0  0  0  0  0  0  0  0  0  0  0
    8.3100  -14.5721   25.2811 C   0  0  2  0  0  0  0  0  0  0  0  0
    7.6181  -14.7309   24.0016 N   0  0  0  0  0  0  0  0  0  0  0  0
    8.5020  -15.9321   25.8749 C   0  0  0  0  0  0  0  0  0  0  0  0
    7.5718  -16.7471   26.0478 O   0  0  0  0  0  0  0  0  0  0  0  0
    9.7930  -16.3622   26.2768 N   0  0  0  0  0  0  0  0  0  0  0  0
   10.0804  -17.7229   26.7499 C   0  0  1  0  0  0  0  0  0  0  0  0
   11.0161  -18.4196   25.8137 C   0  0  0  0  0  0  0  0  0  0  0  0
   12.4459  -18.0312   26.0877 C   0  0  0  0  0  0  0  0  0  0  0  0
   13.3354  -18.5665   24.9865 C   0  0  0  0  0  0  0  0  0  0  0  0
   13.3798  -18.0340   23.8565 O   0  0  0  0  0  0  0  0  0  0  0  0
   10.5346  -17.6154   28.1447 C   0  0  0  0  0  0  0  0  0  0  0  0
   10.6384  -18.7499   28.9803 O   0  0  0  0  0  0  0  0  0  0  0  0
   14.1127  -19.6683   25.2427 O   0  0  0  0  0  0  0  0  0  0  0  0
   10.8558  -16.5356   28.6846 O   0  0  0  0  0  0  0  0  0  0  0  0
  2  1  1  6
  2  3  1  0
  3  4  1  0
  4  8  1  0
  5  4  2  0
  6  7  2  0
  6  2  1  0
  9 10  1  0
 10 11  1  0
 11 13  1  0
 11 12  1  1
 13 14  1  6
 14  6  1  0
 15 13  1  0
 16 15  2  0
 17 15  1  0
 18 17  1  0
 18 19  1  6
 20 19  1  0
 20 21  1  0
 21 22  2  0
 23 24  1  0
 23 18  1  0
 25 21  1  0
 26 23  2  0
M  END
$$$$
