DIE.pdb
     RDKit          3D

 26 25  0  0  1  0  0  0  0  0999 V2000
    8.5407  -15.0205   20.3736 N   0  0  0  0  0  0  0  0  0  0  0  0
    7.8909  -15.6672   21.4640 C   0  0  1  0  0  0  0  0  0  0  0  0
    8.0113  -17.1736   21.3137 C   0  0  0  0  0  0  0  0  0  0  0  0
    7.4023  -17.6761   20.0879 C   0  0  0  0  0  0  0  0  0  0  0  0
    6.1712  -17.8395   19.9834 O   0  0  0  0  0  0  0  0  0  0  0  0
    8.4432  -15.3455   22.7990 C   0  0  0  0  0  0  0  0  0  0  0  0
    9.7120  -15.2822   22.8747 O   0  0  0  0  0  0  0  0  0  0  0  0
    8.2083  -17.9815   19.0071 O   0  0  0  0  0  0  0  0  0  0  0  0
    6.0161  -11.8196   26.0616 C   0  0  0  0  0  0  0  0  0  0  0  0
    7.0625  -12.6125   25.2708 C   0  0  0  0  0  0  0  0  0  0  0  0
    7.4786  -13.8215   26.0422 C   0  0  2  0  0  0  0  0  0  0  0  0
    8.1078  -13.3921   27.3415 C   0  0  0  0  0  0  0  0  0  0  0  0
    8.3294  -14.7367   25.2343 C   0  0  2  0  0  0  0  0  0  0  0  0
    7.6845  -15.1075   23.9743 N   0  0  0  0  0  0  0  0  0  0  0  0
    8.7202  -15.9959   25.9419 C   0  0  0  0  0  0  0  0  0  0  0  0
    7.9003  -16.8607   26.3149 O   0  0  0  0  0  0  0  0  0  0  0  0
   10.0845  -16.2645   26.2247 N   0  0  0  0  0  0  0  0  0  0  0  0
   10.5417  -17.4710   26.9271 C   0  0  1  0  0  0  0  0  0  0  0  0
   11.8568  -17.9308   26.3829 C   0  0  0  0  0  0  0  0  0  0  0  0
   11.7478  -18.2744   24.9198 C   0  0  0  0  0  0  0  0  0  0  0  0
   13.0939  -18.7391   24.4076 C   0  0  0  0  0  0  0  0  0  0  0  0
   14.1099  -18.7479   25.1357 O   0  0  0  0  0  0  0  0  0  0  0  0
   10.5141  -17.1765   28.3679 C   0  0  0  0  0  0  0  0  0  0  0  0
   10.6167  -18.2003   29.3360 O   0  0  0  0  0  0  0  0  0  0  0  0
   13.1948  -19.1615   23.1057 O   0  0  0  0  0  0  0  0  0  0  0  0
   10.3999  -16.0233   28.8344 O   0  0  0  0  0  0  0  0  0  0  0  0
  2  1  1  6
  2  3  1  0
  3  4  1  0
  4  8  1  0
  5  4  2  0
  6  7  2  0
  6  2  1  0
  9 10  1  0
 10 11  1  0
 11 13  1  0
 11 12  1  1
 13 14  1  6
 14  6  1  0
 15 13  1  0
 16 15  2  0
 17 15  1  0
 18 17  1  0
 18 19  1  6
 20 19  1  0
 20 21  1  0
 21 22  2  0
 23 24  1  0
 23 18  1  0
 25 21  1  0
 26 23  2  0
M  END
$$$$
