DIE.pdb
     RDKit          3D

 26 25  0  0  1  0  0  0  0  0999 V2000
   10.0541  -15.4905   14.0326 N   0  0  0  0  0  0  0  0  0  0  0  0
    9.8298  -16.2596   15.2106 C   0  0  1  0  0  0  0  0  0  0  0  0
   10.7218  -17.4886   15.1994 C   0  0  0  0  0  0  0  0  0  0  0  0
   10.4310  -18.3958   14.0955 C   0  0  0  0  0  0  0  0  0  0  0  0
    9.3106  -18.9229   13.9542 O   0  0  0  0  0  0  0  0  0  0  0  0
   10.1212  -15.5563   16.4798 C   0  0  0  0  0  0  0  0  0  0  0  0
   11.2694  -15.0138   16.5634 O   0  0  0  0  0  0  0  0  0  0  0  0
   11.4224  -18.6831   13.1759 O   0  0  0  0  0  0  0  0  0  0  0  0
    6.3051  -12.6835   18.8810 C   0  0  0  0  0  0  0  0  0  0  0  0
    7.6522  -13.1431   18.3126 C   0  0  0  0  0  0  0  0  0  0  0  0
    8.3849  -13.9569   19.3279 C   0  0  2  0  0  0  0  0  0  0  0  0
    8.6852  -13.1015   20.5306 C   0  0  0  0  0  0  0  0  0  0  0  0
    9.5818  -14.6273   18.7515 C   0  0  2  0  0  0  0  0  0  0  0  0
    9.2393  -15.4426   17.5857 N   0  0  0  0  0  0  0  0  0  0  0  0
   10.3257  -15.4932   19.7189 C   0  0  0  0  0  0  0  0  0  0  0  0
    9.9156  -16.6082   20.1035 O   0  0  0  0  0  0  0  0  0  0  0  0
   11.5686  -15.0657   20.2534 N   0  0  0  0  0  0  0  0  0  0  0  0
   12.3537  -15.8597   21.2080 C   0  0  1  0  0  0  0  0  0  0  0  0
   13.7714  -15.3848   21.2478 C   0  0  0  0  0  0  0  0  0  0  0  0
   14.3999  -15.4393   19.8794 C   0  0  0  0  0  0  0  0  0  0  0  0
   15.8515  -15.0215   19.9725 C   0  0  0  0  0  0  0  0  0  0  0  0
   16.1955  -13.8200   19.9473 O   0  0  0  0  0  0  0  0  0  0  0  0
   11.6359  -15.8373   22.4916 C   0  0  0  0  0  0  0  0  0  0  0  0
   11.9103  -16.7761   23.5111 O   0  0  0  0  0  0  0  0  0  0  0  0
   16.8124  -15.9947   20.0877 O   0  0  0  0  0  0  0  0  0  0  0  0
   10.7480  -15.0042   22.7713 O   0  0  0  0  0  0  0  0  0  0  0  0
  2  1  1  6
  2  3  1  0
  3  4  1  0
  4  8  1  0
  5  4  2  0
  6  7  2  0
  6  2  1  0
  9 10  1  0
 10 11  1  0
 11 13  1  0
 11 12  1  1
 13 14  1  6
 14  6  1  0
 15 13  1  0
 16 15  2  0
 17 15  1  0
 18 17  1  0
 18 19  1  1
 20 19  1  0
 20 21  1  0
 21 22  2  0
 23 24  1  0
 23 18  1  0
 25 21  1  0
 26 23  2  0
M  END
$$$$
