DIE.pdb
     RDKit          3D

 26 25  0  0  1  0  0  0  0  0999 V2000
    6.6032  -15.0068   20.2581 N   0  0  0  0  0  0  0  0  0  0  0  0
    6.6475  -15.7780   21.4551 C   0  0  1  0  0  0  0  0  0  0  0  0
    7.1974  -17.1614   21.1550 C   0  0  0  0  0  0  0  0  0  0  0  0
    6.4017  -17.8927   20.1762 C   0  0  0  0  0  0  0  0  0  0  0  0
    5.2563  -18.3086   20.4374 O   0  0  0  0  0  0  0  0  0  0  0  0
    7.5061  -15.2214   22.5245 C   0  0  0  0  0  0  0  0  0  0  0  0
    8.6849  -14.8923   22.1756 O   0  0  0  0  0  0  0  0  0  0  0  0
    6.9274  -18.1347   18.9207 O   0  0  0  0  0  0  0  0  0  0  0  0
    5.7421  -11.8928   26.4091 C   0  0  0  0  0  0  0  0  0  0  0  0
    6.6679  -12.5060   25.3528 C   0  0  0  0  0  0  0  0  0  0  0  0
    7.3643  -13.7014   25.9148 C   0  0  2  0  0  0  0  0  0  0  0  0
    8.2580  -13.2711   27.0482 C   0  0  0  0  0  0  0  0  0  0  0  0
    8.0620  -14.4898   24.8633 C   0  0  2  0  0  0  0  0  0  0  0  0
    7.1252  -15.0306   23.8780 N   0  0  0  0  0  0  0  0  0  0  0  0
    8.8844  -15.6234   25.3904 C   0  0  0  0  0  0  0  0  0  0  0  0
    8.3941  -16.6632   25.8777 O   0  0  0  0  0  0  0  0  0  0  0  0
   10.3013  -15.5576   25.3540 N   0  0  0  0  0  0  0  0  0  0  0  0
   11.1702  -16.7202   25.5808 C   0  0  1  0  0  0  0  0  0  0  0  0
   12.5055  -16.5129   24.9396 C   0  0  0  0  0  0  0  0  0  0  0  0
   13.4597  -17.6207   25.3041 C   0  0  0  0  0  0  0  0  0  0  0  0
   14.8033  -17.3645   24.6565 C   0  0  0  0  0  0  0  0  0  0  0  0
   15.0073  -16.3665   23.9320 O   0  0  0  0  0  0  0  0  0  0  0  0
   11.1896  -16.9772   27.0289 C   0  0  0  0  0  0  0  0  0  0  0  0
   10.8731  -15.9679   27.9654 O   0  0  0  0  0  0  0  0  0  0  0  0
   15.8224  -18.2575   24.8750 O   0  0  0  0  0  0  0  0  0  0  0  0
   11.4813  -18.0840   27.5294 O   0  0  0  0  0  0  0  0  0  0  0  0
  2  1  1  6
  2  3  1  0
  3  4  1  0
  4  8  1  0
  5  4  2  0
  6  7  2  0
  6  2  1  0
  9 10  1  0
 10 11  1  0
 11 13  1  0
 11 12  1  1
 13 14  1  6
 14  6  1  0
 15 13  1  0
 16 15  2  0
 17 15  1  0
 18 17  1  0
 18 19  1  1
 20 19  1  0
 20 21  1  0
 21 22  2  0
 23 24  1  0
 23 18  1  0
 25 21  1  0
 26 23  2  0
M  END
$$$$
