DIE.pdb
     RDKit          3D

 26 25  0  0  1  0  0  0  0  0999 V2000
    7.8476  -14.6598   20.2556 N   0  0  0  0  0  0  0  0  0  0  0  0
    7.2529  -15.2315   21.4171 C   0  0  1  0  0  0  0  0  0  0  0  0
    7.3422  -16.7460   21.3476 C   0  0  0  0  0  0  0  0  0  0  0  0
    6.6368  -17.3080   20.2018 C   0  0  0  0  0  0  0  0  0  0  0  0
    7.2367  -17.9085   19.2892 O   0  0  0  0  0  0  0  0  0  0  0  0
    7.8866  -14.8444   22.6974 C   0  0  0  0  0  0  0  0  0  0  0  0
    9.1580  -14.8936   22.7251 O   0  0  0  0  0  0  0  0  0  0  0  0
    5.2633  -17.1744   20.1199 O   0  0  0  0  0  0  0  0  0  0  0  0
    5.7131  -11.1961   26.0260 C   0  0  0  0  0  0  0  0  0  0  0  0
    6.7870  -11.9570   25.2407 C   0  0  0  0  0  0  0  0  0  0  0  0
    7.1784  -13.1955   25.9776 C   0  0  2  0  0  0  0  0  0  0  0  0
    7.9121  -12.8158   27.2370 C   0  0  0  0  0  0  0  0  0  0  0  0
    7.9212  -14.1515   25.1126 C   0  0  2  0  0  0  0  0  0  0  0  0
    7.2017  -14.4319   23.8697 N   0  0  0  0  0  0  0  0  0  0  0  0
    8.2346  -15.4585   25.7704 C   0  0  0  0  0  0  0  0  0  0  0  0
    7.3771  -16.3345   26.0080 O   0  0  0  0  0  0  0  0  0  0  0  0
    9.5642  -15.7626   26.1616 N   0  0  0  0  0  0  0  0  0  0  0  0
    9.9645  -17.0595   26.7235 C   0  0  1  0  0  0  0  0  0  0  0  0
   10.9213  -17.7569   25.8095 C   0  0  0  0  0  0  0  0  0  0  0  0
   12.1765  -16.9457   25.6174 C   0  0  0  0  0  0  0  0  0  0  0  0
   13.0947  -17.6567   24.6471 C   0  0  0  0  0  0  0  0  0  0  0  0
   12.7784  -18.7419   24.1135 O   0  0  0  0  0  0  0  0  0  0  0  0
   10.4498  -16.8142   28.0901 C   0  0  0  0  0  0  0  0  0  0  0  0
   10.7422  -17.8761   28.9750 O   0  0  0  0  0  0  0  0  0  0  0  0
   14.3079  -17.0883   24.3491 O   0  0  0  0  0  0  0  0  0  0  0  0
   10.6360  -15.6725   28.5618 O   0  0  0  0  0  0  0  0  0  0  0  0
  2  1  1  6
  2  3  1  0
  3  4  1  0
  4  8  1  0
  5  4  2  0
  6  7  2  0
  6  2  1  0
  9 10  1  0
 10 11  1  0
 11 13  1  0
 11 12  1  1
 13 14  1  6
 14  6  1  0
 15 13  1  0
 16 15  2  0
 17 15  1  0
 18 17  1  0
 18 19  1  6
 20 19  1  0
 20 21  1  0
 21 22  2  0
 23 24  1  0
 23 18  1  0
 25 21  1  0
 26 23  2  0
M  END
$$$$
