DIE.pdb
     RDKit          3D

 26 25  0  0  1  0  0  0  0  0999 V2000
    7.6377  -16.8390   21.7239 N   0  0  0  0  0  0  0  0  0  0  0  0
    8.9794  -16.4010   21.9172 C   0  0  1  0  0  0  0  0  0  0  0  0
    9.4466  -15.6232   20.6994 C   0  0  0  0  0  0  0  0  0  0  0  0
    9.2944  -16.3660   19.4540 C   0  0  0  0  0  0  0  0  0  0  0  0
   10.2771  -16.7990   18.8213 O   0  0  0  0  0  0  0  0  0  0  0  0
    9.1818  -15.5031   23.0763 C   0  0  0  0  0  0  0  0  0  0  0  0
   10.3737  -15.0982   23.2639 O   0  0  0  0  0  0  0  0  0  0  0  0
    8.0264  -16.6002   18.9556 O   0  0  0  0  0  0  0  0  0  0  0  0
    6.6704  -11.2979   26.7591 C   0  0  0  0  0  0  0  0  0  0  0  0
    7.7892  -12.3205   26.5322 C   0  0  0  0  0  0  0  0  0  0  0  0
    7.4366  -13.2206   25.3940 C   0  0  2  0  0  0  0  0  0  0  0  0
    6.0699  -13.8086   25.6279 C   0  0  0  0  0  0  0  0  0  0  0  0
    8.4929  -14.2358   25.1340 C   0  0  2  0  0  0  0  0  0  0  0  0
    8.1726  -15.0685   23.9742 N   0  0  0  0  0  0  0  0  0  0  0  0
    8.7710  -15.1424   26.2915 C   0  0  0  0  0  0  0  0  0  0  0  0
    9.1644  -14.7382   27.4055 O   0  0  0  0  0  0  0  0  0  0  0  0
    8.5909  -16.5440   26.1627 N   0  0  0  0  0  0  0  0  0  0  0  0
    8.6890  -17.4784   27.2919 C   0  0  1  0  0  0  0  0  0  0  0  0
    7.9940  -18.7640   26.9738 C   0  0  0  0  0  0  0  0  0  0  0  0
    8.2360  -19.7915   28.0491 C   0  0  0  0  0  0  0  0  0  0  0  0
    7.6096  -21.1075   27.6413 C   0  0  0  0  0  0  0  0  0  0  0  0
    7.3521  -22.0024   28.4752 O   0  0  0  0  0  0  0  0  0  0  0  0
   10.1124  -17.5917   27.6449 C   0  0  0  0  0  0  0  0  0  0  0  0
   11.1220  -17.6118   26.6569 O   0  0  0  0  0  0  0  0  0  0  0  0
    7.3187  -21.3177   26.3166 O   0  0  0  0  0  0  0  0  0  0  0  0
   10.5272  -17.6770   28.8202 O   0  0  0  0  0  0  0  0  0  0  0  0
  2  1  1  6
  2  3  1  0
  3  4  1  0
  4  8  1  0
  5  4  2  0
  6  7  2  0
  6  2  1  0
  9 10  1  0
 10 11  1  0
 11 13  1  0
 11 12  1  1
 13 14  1  6
 14  6  1  0
 15 13  1  0
 16 15  2  0
 17 15  1  0
 18 17  1  0
 18 19  1  6
 20 19  1  0
 20 21  1  0
 21 22  2  0
 23 24  1  0
 23 18  1  0
 25 21  1  0
 26 23  2  0
M  END
$$$$
