DIE.pdb
     RDKit          3D

 26 25  0  0  1  0  0  0  0  0999 V2000
    8.4742  -15.1420   20.5119 N   0  0  0  0  0  0  0  0  0  0  0  0
    7.8044  -15.6488   21.6625 C   0  0  1  0  0  0  0  0  0  0  0  0
    7.8308  -17.1672   21.6452 C   0  0  0  0  0  0  0  0  0  0  0  0
    7.1369  -17.7378   20.4968 C   0  0  0  0  0  0  0  0  0  0  0  0
    6.8488  -17.0542   19.4953 O   0  0  0  0  0  0  0  0  0  0  0  0
    8.3969  -15.2457   22.9575 C   0  0  0  0  0  0  0  0  0  0  0  0
    9.6673  -15.1784   22.9902 O   0  0  0  0  0  0  0  0  0  0  0  0
    6.7861  -19.0749   20.5132 O   0  0  0  0  0  0  0  0  0  0  0  0
    5.9243  -11.6151   26.0566 C   0  0  0  0  0  0  0  0  0  0  0  0
    6.9808  -12.4087   25.2801 C   0  0  0  0  0  0  0  0  0  0  0  0
    7.5080  -13.5214   26.1250 C   0  0  2  0  0  0  0  0  0  0  0  0
    8.1927  -12.9463   27.3369 C   0  0  0  0  0  0  0  0  0  0  0  0
    8.3547  -14.4646   25.3455 C   0  0  2  0  0  0  0  0  0  0  0  0
    7.6743  -14.9355   24.1387 N   0  0  0  0  0  0  0  0  0  0  0  0
    8.8091  -15.6631   26.1176 C   0  0  0  0  0  0  0  0  0  0  0  0
    8.0295  -16.5209   26.5820 O   0  0  0  0  0  0  0  0  0  0  0  0
   10.1908  -15.8780   26.3586 N   0  0  0  0  0  0  0  0  0  0  0  0
   10.7189  -17.0816   27.0147 C   0  0  1  0  0  0  0  0  0  0  0  0
   12.0743  -17.4209   26.4808 C   0  0  0  0  0  0  0  0  0  0  0  0
   11.9855  -18.4721   25.4050 C   0  0  0  0  0  0  0  0  0  0  0  0
   13.0730  -18.2387   24.3787 C   0  0  0  0  0  0  0  0  0  0  0  0
   13.9282  -17.3376   24.5165 O   0  0  0  0  0  0  0  0  0  0  0  0
   10.6412  -16.8594   28.4666 C   0  0  0  0  0  0  0  0  0  0  0  0
   10.5915  -17.9361   29.3799 O   0  0  0  0  0  0  0  0  0  0  0  0
   13.1155  -19.0431   23.2674 O   0  0  0  0  0  0  0  0  0  0  0  0
   10.6137  -15.7257   28.9907 O   0  0  0  0  0  0  0  0  0  0  0  0
  2  1  1  6
  2  3  1  0
  3  4  1  0
  4  8  1  0
  5  4  2  0
  6  7  2  0
  6  2  1  0
  9 10  1  0
 10 11  1  0
 11 13  1  0
 11 12  1  1
 13 14  1  6
 14  6  1  0
 15 13  1  0
 16 15  2  0
 17 15  1  0
 18 17  1  0
 18 19  1  6
 20 19  1  0
 20 21  1  0
 21 22  2  0
 23 24  1  0
 23 18  1  0
 25 21  1  0
 26 23  2  0
M  END
$$$$
