DIE.pdb
     RDKit          3D

 26 25  0  0  1  0  0  0  0  0999 V2000
    6.6220  -15.5807   21.0137 N   0  0  0  0  0  0  0  0  0  0  0  0
    7.9210  -16.0505   21.3621 C   0  0  1  0  0  0  0  0  0  0  0  0
    8.9124  -15.6737   20.2752 C   0  0  0  0  0  0  0  0  0  0  0  0
    8.5922  -16.2629   18.9804 C   0  0  0  0  0  0  0  0  0  0  0  0
    7.5379  -16.8995   18.7894 O   0  0  0  0  0  0  0  0  0  0  0  0
    8.4675  -15.4975   22.6215 C   0  0  0  0  0  0  0  0  0  0  0  0
    9.7008  -15.1844   22.6016 O   0  0  0  0  0  0  0  0  0  0  0  0
    9.4794  -16.1145   17.9307 O   0  0  0  0  0  0  0  0  0  0  0  0
    6.0326  -11.8788   25.5207 C   0  0  0  0  0  0  0  0  0  0  0  0
    7.1301  -12.7066   24.8433 C   0  0  0  0  0  0  0  0  0  0  0  0
    7.5782  -13.8034   25.7522 C   0  0  2  0  0  0  0  0  0  0  0  0
    8.2582  -13.2068   26.9565 C   0  0  0  0  0  0  0  0  0  0  0  0
    8.3972  -14.8219   25.0409 C   0  0  2  0  0  0  0  0  0  0  0  0
    7.7391  -15.2939   23.8222 N   0  0  0  0  0  0  0  0  0  0  0  0
    8.7464  -16.0172   25.8705 C   0  0  0  0  0  0  0  0  0  0  0  0
    7.8983  -16.8118   26.3271 O   0  0  0  0  0  0  0  0  0  0  0  0
   10.1015  -16.3033   26.1793 N   0  0  0  0  0  0  0  0  0  0  0  0
   10.5204  -17.4604   26.9816 C   0  0  1  0  0  0  0  0  0  0  0  0
   11.8518  -17.9648   26.5236 C   0  0  0  0  0  0  0  0  0  0  0  0
   11.7929  -18.4262   25.0903 C   0  0  0  0  0  0  0  0  0  0  0  0
   13.1817  -18.8046   24.6232 C   0  0  0  0  0  0  0  0  0  0  0  0
   14.1784  -18.7101   25.3716 O   0  0  0  0  0  0  0  0  0  0  0  0
   10.4387  -17.0657   28.3962 C   0  0  0  0  0  0  0  0  0  0  0  0
   10.4220  -18.0244   29.4337 O   0  0  0  0  0  0  0  0  0  0  0  0
   13.3443  -19.2637   23.3400 O   0  0  0  0  0  0  0  0  0  0  0  0
   10.3789  -15.8780   28.7789 O   0  0  0  0  0  0  0  0  0  0  0  0
  2  1  1  6
  2  3  1  0
  3  4  1  0
  4  8  1  0
  5  4  2  0
  6  7  2  0
  6  2  1  0
  9 10  1  0
 10 11  1  0
 11 13  1  0
 11 12  1  1
 13 14  1  6
 14  6  1  0
 15 13  1  0
 16 15  2  0
 17 15  1  0
 18 17  1  0
 18 19  1  6
 20 19  1  0
 20 21  1  0
 21 22  2  0
 23 24  1  0
 23 18  1  0
 25 21  1  0
 26 23  2  0
M  END
$$$$
