DIE.pdb
     RDKit          3D

 26 25  0  0  1  0  0  0  0  0999 V2000
    9.7175  -17.6997   16.3922 N   0  0  0  0  0  0  0  0  0  0  0  0
    8.7610  -17.7701   17.4457 C   0  0  1  0  0  0  0  0  0  0  0  0
    8.6238  -19.2063   17.9199 C   0  0  0  0  0  0  0  0  0  0  0  0
    7.9927  -20.0758   16.9341 C   0  0  0  0  0  0  0  0  0  0  0  0
    7.7296  -19.6819   15.7814 O   0  0  0  0  0  0  0  0  0  0  0  0
    9.0970  -16.9745   18.6476 C   0  0  0  0  0  0  0  0  0  0  0  0
   10.3169  -17.0023   19.0091 O   0  0  0  0  0  0  0  0  0  0  0  0
    7.6749  -21.3754   17.2821 O   0  0  0  0  0  0  0  0  0  0  0  0
    6.6088  -12.2253   19.8894 C   0  0  0  0  0  0  0  0  0  0  0  0
    7.6902  -13.2857   19.6551 C   0  0  0  0  0  0  0  0  0  0  0  0
    7.7241  -14.2436   20.8002 C   0  0  2  0  0  0  0  0  0  0  0  0
    8.0310  -13.4930   22.0694 C   0  0  0  0  0  0  0  0  0  0  0  0
    8.6351  -15.3918   20.5441 C   0  0  2  0  0  0  0  0  0  0  0  0
    8.1848  -16.2006   19.4109 N   0  0  0  0  0  0  0  0  0  0  0  0
    8.8202  -16.3020   21.7172 C   0  0  0  0  0  0  0  0  0  0  0  0
    7.9555  -17.1166   22.1018 O   0  0  0  0  0  0  0  0  0  0  0  0
   10.0276  -16.2736   22.4621 N   0  0  0  0  0  0  0  0  0  0  0  0
   10.3176  -17.1978   23.5665 C   0  0  1  0  0  0  0  0  0  0  0  0
   11.6572  -17.8366   23.3809 C   0  0  0  0  0  0  0  0  0  0  0  0
   12.7584  -16.8090   23.4238 C   0  0  0  0  0  0  0  0  0  0  0  0
   14.0911  -17.4854   23.1853 C   0  0  0  0  0  0  0  0  0  0  0  0
   14.5240  -18.3775   23.9464 O   0  0  0  0  0  0  0  0  0  0  0  0
   10.1331  -16.4531   24.8214 C   0  0  0  0  0  0  0  0  0  0  0  0
   10.1104  -17.1054   26.0743 O   0  0  0  0  0  0  0  0  0  0  0  0
   14.8405  -17.1035   22.1008 O   0  0  0  0  0  0  0  0  0  0  0  0
    9.9854  -15.2137   24.8729 O   0  0  0  0  0  0  0  0  0  0  0  0
  2  1  1  6
  2  3  1  0
  3  4  1  0
  4  8  1  0
  5  4  2  0
  6  7  2  0
  6  2  1  0
  9 10  1  0
 10 11  1  0
 11 13  1  0
 11 12  1  1
 13 14  1  6
 14  6  1  0
 15 13  1  0
 16 15  2  0
 17 15  1  0
 18 17  1  0
 18 19  1  6
 20 19  1  0
 20 21  1  0
 21 22  2  0
 23 24  1  0
 23 18  1  0
 25 21  1  0
 26 23  2  0
M  END
$$$$
