DIE.pdb
     RDKit          3D

 26 25  0  0  1  0  0  0  0  0999 V2000
    8.5564  -15.4104   20.5408 N   0  0  0  0  0  0  0  0  0  0  0  0
    8.0722  -16.0450   21.7207 C   0  0  1  0  0  0  0  0  0  0  0  0
    8.4695  -17.5108   21.7157 C   0  0  0  0  0  0  0  0  0  0  0  0
    7.8559  -18.2655   20.6294 C   0  0  0  0  0  0  0  0  0  0  0  0
    6.6457  -18.1552   20.3528 O   0  0  0  0  0  0  0  0  0  0  0  0
    8.5931  -15.4862   22.9884 C   0  0  0  0  0  0  0  0  0  0  0  0
    9.8524  -15.3107   23.0422 O   0  0  0  0  0  0  0  0  0  0  0  0
    8.6335  -19.1295   19.8812 O   0  0  0  0  0  0  0  0  0  0  0  0
    6.0639  -11.6355   25.7015 C   0  0  0  0  0  0  0  0  0  0  0  0
    7.1477  -12.5045   25.0540 C   0  0  0  0  0  0  0  0  0  0  0  0
    7.5650  -13.5870   25.9942 C   0  0  2  0  0  0  0  0  0  0  0  0
    8.1750  -12.9705   27.2256 C   0  0  0  0  0  0  0  0  0  0  0  0
    8.4330  -14.5993   25.3341 C   0  0  2  0  0  0  0  0  0  0  0  0
    7.8145  -15.1386   24.1227 N   0  0  0  0  0  0  0  0  0  0  0  0
    8.8105  -15.7505   26.2124 C   0  0  0  0  0  0  0  0  0  0  0  0
    7.9910  -16.5903   26.6394 O   0  0  0  0  0  0  0  0  0  0  0  0
   10.1608  -15.9383   26.6059 N   0  0  0  0  0  0  0  0  0  0  0  0
   10.6119  -17.0646   27.4340 C   0  0  1  0  0  0  0  0  0  0  0  0
   11.9866  -17.4961   27.0328 C   0  0  0  0  0  0  0  0  0  0  0  0
   12.0081  -17.9794   25.6057 C   0  0  0  0  0  0  0  0  0  0  0  0
   13.4000  -18.4593   25.2551 C   0  0  0  0  0  0  0  0  0  0  0  0
   14.2649  -18.6728   26.1318 O   0  0  0  0  0  0  0  0  0  0  0  0
   10.4523  -16.6659   28.8408 C   0  0  0  0  0  0  0  0  0  0  0  0
   10.4259  -17.6192   29.8832 O   0  0  0  0  0  0  0  0  0  0  0  0
   13.7146  -18.6637   23.9349 O   0  0  0  0  0  0  0  0  0  0  0  0
   10.3305  -15.4794   29.2123 O   0  0  0  0  0  0  0  0  0  0  0  0
  2  1  1  6
  2  3  1  0
  3  4  1  0
  4  8  1  0
  5  4  2  0
  6  7  2  0
  6  2  1  0
  9 10  1  0
 10 11  1  0
 11 13  1  0
 11 12  1  1
 13 14  1  6
 14  6  1  0
 15 13  1  0
 16 15  2  0
 17 15  1  0
 18 17  1  0
 18 19  1  6
 20 19  1  0
 20 21  1  0
 21 22  2  0
 23 24  1  0
 23 18  1  0
 25 21  1  0
 26 23  2  0
M  END
$$$$
