EKW.pdb
     RDKit          3D

 33 34  0  0  1  0  0  0  0  0999 V2000
    9.1037  -19.1260   20.8233 N   0  0  0  0  0  0  0  0  0  0  0  0
   10.3371  -18.4178   20.4707 C   0  0  1  0  0  0  0  0  0  0  0  0
   10.4637  -18.4814   18.9854 C   0  0  0  0  0  0  0  0  0  0  0  0
   11.6908  -17.7502   18.5288 C   0  0  0  0  0  0  0  0  0  0  0  0
   11.7678  -17.6618   17.0737 C   0  0  0  0  0  0  0  0  0  0  0  0
   11.0933  -18.3415   16.3012 O   0  0  0  0  0  0  0  0  0  0  0  0
   10.2127  -17.0155   20.9488 C   0  0  0  0  0  0  0  0  0  0  0  0
   11.1473  -16.2125   20.7631 O   0  0  0  0  0  0  0  0  0  0  0  0
   12.6638  -16.7467   16.4788 O   0  0  0  0  0  0  0  0  0  0  0  0
    9.0340  -16.6243   21.6042 N   0  0  0  0  0  0  0  0  0  0  0  0
    8.8735  -15.2790   22.1015 C   0  0  1  0  0  0  0  0  0  0  0  0
    7.4889  -14.7707   21.7526 C   0  0  0  0  0  0  0  0  0  0  0  0
    7.4836  -13.5214   20.9443 C   0  0  0  0  0  0  0  0  0  0  0  0
    7.7412  -13.8983   19.4951 C   0  0  0  0  0  0  0  0  0  0  0  0
    7.7290  -12.6337   18.6708 C   0  0  0  0  0  0  0  0  0  0  0  0
    7.9117  -12.9056   17.2594 N   0  0  0  0  0  0  0  0  0  0  0  0
    9.1609  -15.2951   23.5442 C   0  0  0  0  0  0  0  0  0  0  0  0
    8.9370  -14.2682   24.2216 O   0  0  0  0  0  0  0  0  0  0  0  0
    9.6837  -16.4165   24.2333 N   0  0  0  0  0  0  0  0  0  0  0  0
   10.0605  -16.3018   25.6030 C   0  0  1  0  0  0  0  0  0  0  0  0
    8.9238  -16.6107   26.5510 C   0  0  0  0  0  0  0  0  0  0  0  0
    7.8215  -15.6602   26.3040 C   0  0  0  0  0  0  0  0  0  0  0  0
    6.5977  -15.9039   25.6943 C   0  0  0  0  0  0  0  0  0  0  0  0
    5.8764  -14.7764   25.6571 N   0  0  0  0  0  0  0  0  0  0  0  0
    6.5682  -13.7805   26.2197 C   0  0  0  0  0  0  0  0  0  0  0  0
    6.2623  -12.4407   26.4259 C   0  0  0  0  0  0  0  0  0  0  0  0
    7.2159  -11.6706   27.0518 C   0  0  0  0  0  0  0  0  0  0  0  0
    8.4269  -12.1762   27.4661 C   0  0  0  0  0  0  0  0  0  0  0  0
    8.7175  -13.5040   27.2560 C   0  0  0  0  0  0  0  0  0  0  0  0
    7.7880  -14.3213   26.6288 C   0  0  0  0  0  0  0  0  0  0  0  0
   11.2198  -17.1766   25.8510 C   0  0  0  0  0  0  0  0  0  0  0  0
   11.6616  -17.3042   27.0064 O   0  0  0  0  0  0  0  0  0  0  0  0
   11.8131  -17.8499   24.8149 O   0  0  0  0  0  0  0  0  0  0  0  0
  2  1  1  6
  2  3  1  0
  3  4  1  0
  5  4  1  0
  5  6  2  0
  7  8  2  0
  7  2  1  0
  9  5  1  0
 10  7  1  0
 11 12  1  1
 11 10  1  0
 13 12  1  0
 14 13  1  0
 15 14  1  0
 16 15  1  0
 17 11  1  0
 18 17  2  0
 19 17  1  0
 20 21  1  1
 20 19  1  0
 21 22  1  0
 22 30  1  0
 23 22  2  0
 23 24  1  0
 24 25  1  0
 25 26  2  0
 26 27  1  0
 28 27  2  0
 29 28  1  0
 30 29  2  0
 30 25  1  0
 31 33  1  0
 31 20  1  0
 32 31  2  0
M  END
$$$$
