EKW.pdb
     RDKit          3D

 33 34  0  0  1  0  0  0  0  0999 V2000
    9.4558  -15.4190   18.6642 N   0  0  0  0  0  0  0  0  0  0  0  0
    8.8351  -14.4040   19.5196 C   0  0  1  0  0  0  0  0  0  0  0  0
    7.6528  -13.8764   18.7780 C   0  0  0  0  0  0  0  0  0  0  0  0
    8.0901  -13.1001   17.5718 C   0  0  0  0  0  0  0  0  0  0  0  0
    7.9855  -13.8855   16.3457 C   0  0  0  0  0  0  0  0  0  0  0  0
    6.9521  -14.0134   15.6904 O   0  0  0  0  0  0  0  0  0  0  0  0
    8.4335  -15.0606   20.7917 C   0  0  0  0  0  0  0  0  0  0  0  0
    7.9655  -14.3755   21.7214 O   0  0  0  0  0  0  0  0  0  0  0  0
    9.1252  -14.5555   15.8495 O   0  0  0  0  0  0  0  0  0  0  0  0
    8.5919  -16.4501   20.9174 N   0  0  0  0  0  0  0  0  0  0  0  0
    8.1155  -17.1480   22.0873 C   0  0  1  0  0  0  0  0  0  0  0  0
    7.8962  -18.6098   21.7522 C   0  0  0  0  0  0  0  0  0  0  0  0
    7.5709  -19.4627   22.9274 C   0  0  0  0  0  0  0  0  0  0  0  0
    7.2748  -20.8649   22.4227 C   0  0  0  0  0  0  0  0  0  0  0  0
    6.9092  -21.7243   23.6088 C   0  0  0  0  0  0  0  0  0  0  0  0
    6.5982  -23.0841   23.2168 N   0  0  0  0  0  0  0  0  0  0  0  0
    9.0824  -16.9198   23.1724 C   0  0  0  0  0  0  0  0  0  0  0  0
   10.2826  -17.2203   22.9924 O   0  0  0  0  0  0  0  0  0  0  0  0
    8.7408  -16.3713   24.4326 N   0  0  0  0  0  0  0  0  0  0  0  0
    9.7473  -16.1712   25.4216 C   0  0  1  0  0  0  0  0  0  0  0  0
    9.5766  -14.8725   26.1768 C   0  0  0  0  0  0  0  0  0  0  0  0
    8.1354  -14.6102   26.3602 C   0  0  0  0  0  0  0  0  0  0  0  0
    7.0948  -15.5287   26.4093 C   0  0  0  0  0  0  0  0  0  0  0  0
    5.9318  -14.8883   26.5841 N   0  0  0  0  0  0  0  0  0  0  0  0
    6.1493  -13.5713   26.6553 C   0  0  0  0  0  0  0  0  0  0  0  0
    5.2849  -12.4976   26.8316 C   0  0  0  0  0  0  0  0  0  0  0  0
    5.8462  -11.2414   26.8634 C   0  0  0  0  0  0  0  0  0  0  0  0
    7.1989  -11.0266   26.7292 C   0  0  0  0  0  0  0  0  0  0  0  0
    8.0438  -12.0979   26.5553 C   0  0  0  0  0  0  0  0  0  0  0  0
    7.5253  -13.3845   26.5165 C   0  0  0  0  0  0  0  0  0  0  0  0
    9.7515  -17.3273   26.3349 C   0  0  0  0  0  0  0  0  0  0  0  0
    8.8449  -18.1755   26.2623 O   0  0  0  0  0  0  0  0  0  0  0  0
   10.7494  -17.4723   27.2634 O   0  0  0  0  0  0  0  0  0  0  0  0
  2  1  1  6
  2  3  1  0
  3  4  1  0
  5  4  1  0
  5  6  2  0
  7  8  2  0
  7  2  1  0
  9  5  1  0
 10  7  1  0
 11 12  1  6
 11 10  1  0
 13 12  1  0
 14 13  1  0
 15 14  1  0
 16 15  1  0
 17 11  1  0
 18 17  2  0
 19 17  1  0
 20 21  1  1
 20 19  1  0
 21 22  1  0
 22 30  1  0
 23 22  2  0
 23 24  1  0
 24 25  1  0
 25 26  2  0
 26 27  1  0
 28 27  2  0
 29 28  1  0
 30 29  2  0
 30 25  1  0
 31 33  1  0
 31 20  1  0
 32 31  2  0
M  END
$$$$
