EKW.pdb
     RDKit          3D

 33 34  0  0  1  0  0  0  0  0999 V2000
   11.4808  -17.8336   18.6817 N   0  0  0  0  0  0  0  0  0  0  0  0
   10.2297  -17.9406   19.4369 C   0  0  1  0  0  0  0  0  0  0  0  0
   10.3121  -19.1979   20.2361 C   0  0  0  0  0  0  0  0  0  0  0  0
   11.5770  -19.9400   19.9230 C   0  0  0  0  0  0  0  0  0  0  0  0
   11.3432  -21.0717   19.0311 C   0  0  0  0  0  0  0  0  0  0  0  0
   10.5406  -21.9768   19.2552 O   0  0  0  0  0  0  0  0  0  0  0  0
   10.1189  -16.7435   20.3117 C   0  0  0  0  0  0  0  0  0  0  0  0
   11.1502  -16.1537   20.6879 O   0  0  0  0  0  0  0  0  0  0  0  0
   12.0677  -21.1662   17.8226 O   0  0  0  0  0  0  0  0  0  0  0  0
    8.8434  -16.3007   20.6972 N   0  0  0  0  0  0  0  0  0  0  0  0
    8.6802  -15.0955   21.4741 C   0  0  1  0  0  0  0  0  0  0  0  0
    7.4851  -14.3179   20.9599 C   0  0  0  0  0  0  0  0  0  0  0  0
    7.8014  -13.3752   19.8530 C   0  0  0  0  0  0  0  0  0  0  0  0
    8.0630  -14.1930   18.5995 C   0  0  0  0  0  0  0  0  0  0  0  0
    8.4159  -13.2414   17.4820 C   0  0  0  0  0  0  0  0  0  0  0  0
    8.6273  -13.9344   16.2272 N   0  0  0  0  0  0  0  0  0  0  0  0
    8.5799  -15.4827   22.8899 C   0  0  0  0  0  0  0  0  0  0  0  0
    7.7612  -14.8913   23.6269 O   0  0  0  0  0  0  0  0  0  0  0  0
    9.3623  -16.5005   23.4880 N   0  0  0  0  0  0  0  0  0  0  0  0
    9.8201  -16.3546   24.8297 C   0  0  1  0  0  0  0  0  0  0  0  0
    9.7129  -14.9332   25.3340 C   0  0  0  0  0  0  0  0  0  0  0  0
    8.2978  -14.6354   25.6313 C   0  0  0  0  0  0  0  0  0  0  0  0
    7.2139  -15.5034   25.6070 C   0  0  0  0  0  0  0  0  0  0  0  0
    6.0959  -14.8430   25.9340 N   0  0  0  0  0  0  0  0  0  0  0  0
    6.3853  -13.5611   26.1787 C   0  0  0  0  0  0  0  0  0  0  0  0
    5.5879  -12.4860   26.5520 C   0  0  0  0  0  0  0  0  0  0  0  0
    6.2153  -11.2741   26.7302 C   0  0  0  0  0  0  0  0  0  0  0  0
    7.5694  -11.1035   26.5539 C   0  0  0  0  0  0  0  0  0  0  0  0
    8.3477  -12.1757   26.1842 C   0  0  0  0  0  0  0  0  0  0  0  0
    7.7611  -13.4185   25.9925 C   0  0  0  0  0  0  0  0  0  0  0  0
    9.0723  -17.2880   25.6903 C   0  0  0  0  0  0  0  0  0  0  0  0
    8.1366  -17.9537   25.2130 O   0  0  0  0  0  0  0  0  0  0  0  0
    9.4030  -17.4258   27.0133 O   0  0  0  0  0  0  0  0  0  0  0  0
  2  1  1  1
  2  3  1  0
  3  4  1  0
  5  4  1  0
  5  6  2  0
  7  8  2  0
  7  2  1  0
  9  5  1  0
 10  7  1  0
 11 12  1  6
 11 10  1  0
 13 12  1  0
 14 13  1  0
 15 14  1  0
 16 15  1  0
 17 11  1  0
 18 17  2  0
 19 17  1  0
 20 21  1  1
 20 19  1  0
 21 22  1  0
 22 30  1  0
 23 22  2  0
 23 24  1  0
 24 25  1  0
 25 26  2  0
 26 27  1  0
 28 27  2  0
 29 28  1  0
 30 29  2  0
 30 25  1  0
 31 33  1  0
 31 20  1  0
 32 31  2  0
M  END
$$$$
