EKW.pdb
     RDKit          3D

 33 34  0  0  1  0  0  0  0  0999 V2000
    9.2599  -18.4838   20.3704 N   0  0  0  0  0  0  0  0  0  0  0  0
   10.6086  -17.9111   20.3578 C   0  0  1  0  0  0  0  0  0  0  0  0
   11.0686  -17.9171   18.9384 C   0  0  0  0  0  0  0  0  0  0  0  0
    9.9207  -18.1905   18.0130 C   0  0  0  0  0  0  0  0  0  0  0  0
   10.3095  -18.0849   16.6098 C   0  0  0  0  0  0  0  0  0  0  0  0
    9.7989  -17.3064   15.8056 O   0  0  0  0  0  0  0  0  0  0  0  0
   10.5243  -16.5289   20.8989 C   0  0  0  0  0  0  0  0  0  0  0  0
   11.5256  -15.7878   20.8638 O   0  0  0  0  0  0  0  0  0  0  0  0
   11.3358  -18.9151   16.1081 O   0  0  0  0  0  0  0  0  0  0  0  0
    9.3074  -16.0858   21.4416 N   0  0  0  0  0  0  0  0  0  0  0  0
    9.1788  -14.7555   21.9861 C   0  0  1  0  0  0  0  0  0  0  0  0
    7.8215  -14.1873   21.6227 C   0  0  0  0  0  0  0  0  0  0  0  0
    7.4772  -14.3059   20.1799 C   0  0  0  0  0  0  0  0  0  0  0  0
    8.4590  -13.4561   19.3911 C   0  0  0  0  0  0  0  0  0  0  0  0
    8.0006  -13.4201   17.9532 C   0  0  0  0  0  0  0  0  0  0  0  0
    8.7707  -12.4812   17.1628 N   0  0  0  0  0  0  0  0  0  0  0  0
    9.4275  -14.8358   23.4339 C   0  0  0  0  0  0  0  0  0  0  0  0
    9.3668  -13.7931   24.1213 O   0  0  0  0  0  0  0  0  0  0  0  0
    9.7367  -16.0371   24.1171 N   0  0  0  0  0  0  0  0  0  0  0  0
    9.9821  -16.0182   25.5208 C   0  0  1  0  0  0  0  0  0  0  0  0
    8.8160  -16.5446   26.3266 C   0  0  0  0  0  0  0  0  0  0  0  0
    7.6361  -15.6938   26.0746 C   0  0  0  0  0  0  0  0  0  0  0  0
    6.4146  -16.0605   25.5247 C   0  0  0  0  0  0  0  0  0  0  0  0
    5.6077  -14.9938   25.4589 N   0  0  0  0  0  0  0  0  0  0  0  0
    6.2397  -13.9206   25.9445 C   0  0  0  0  0  0  0  0  0  0  0  0
    5.8388  -12.5986   26.0952 C   0  0  0  0  0  0  0  0  0  0  0  0
    6.7511  -11.7272   26.6454 C   0  0  0  0  0  0  0  0  0  0  0  0
    8.0109  -12.1180   27.0380 C   0  0  0  0  0  0  0  0  0  0  0  0
    8.3955  -13.4294   26.8834 C   0  0  0  0  0  0  0  0  0  0  0  0
    7.5107  -14.3461   26.3334 C   0  0  0  0  0  0  0  0  0  0  0  0
   11.2133  -16.7787   25.7975 C   0  0  0  0  0  0  0  0  0  0  0  0
   11.5961  -16.9292   26.9712 O   0  0  0  0  0  0  0  0  0  0  0  0
   11.9381  -17.3208   24.7682 O   0  0  0  0  0  0  0  0  0  0  0  0
  2  1  1  6
  2  3  1  0
  3  4  1  0
  5  4  1  0
  5  6  2  0
  7  8  2  0
  7  2  1  0
  9  5  1  0
 10  7  1  0
 11 12  1  1
 11 10  1  0
 13 12  1  0
 14 13  1  0
 15 14  1  0
 16 15  1  0
 17 11  1  0
 18 17  2  0
 19 17  1  0
 20 21  1  1
 20 19  1  0
 21 22  1  0
 22 30  1  0
 23 22  2  0
 23 24  1  0
 24 25  1  0
 25 26  2  0
 26 27  1  0
 28 27  2  0
 29 28  1  0
 30 29  2  0
 30 25  1  0
 31 33  1  0
 31 20  1  0
 32 31  2  0
M  END
$$$$
