EKW.pdb
     RDKit          3D

 33 34  0  0  1  0  0  0  0  0999 V2000
    9.1167  -18.3427   19.4764 N   0  0  0  0  0  0  0  0  0  0  0  0
   10.1035  -18.5455   20.5403 C   0  0  1  0  0  0  0  0  0  0  0  0
   11.2025  -17.5641   20.3049 C   0  0  0  0  0  0  0  0  0  0  0  0
   12.5397  -18.2087   20.5170 C   0  0  0  0  0  0  0  0  0  0  0  0
   13.6407  -17.2784   20.2852 C   0  0  0  0  0  0  0  0  0  0  0  0
   14.0718  -16.4912   21.1265 O   0  0  0  0  0  0  0  0  0  0  0  0
    9.4280  -18.3069   21.8432 C   0  0  0  0  0  0  0  0  0  0  0  0
    8.9146  -17.1966   22.0805 O   0  0  0  0  0  0  0  0  0  0  0  0
   14.2764  -17.2534   19.0245 O   0  0  0  0  0  0  0  0  0  0  0  0
    9.3831  -19.3478   22.7846 N   0  0  0  0  0  0  0  0  0  0  0  0
    8.7949  -19.1451   24.0868 C   0  0  1  0  0  0  0  0  0  0  0  0
    8.8122  -20.4486   24.8601 C   0  0  0  0  0  0  0  0  0  0  0  0
    7.9738  -20.4395   26.0894 C   0  0  0  0  0  0  0  0  0  0  0  0
    8.1404  -21.7817   26.7817 C   0  0  0  0  0  0  0  0  0  0  0  0
    7.3460  -21.7509   28.0650 C   0  0  0  0  0  0  0  0  0  0  0  0
    7.4277  -23.0070   28.7827 N   0  0  0  0  0  0  0  0  0  0  0  0
    9.5226  -18.0482   24.7437 C   0  0  0  0  0  0  0  0  0  0  0  0
    9.9805  -17.1169   24.0461 O   0  0  0  0  0  0  0  0  0  0  0  0
    9.7445  -17.9720   26.1403 N   0  0  0  0  0  0  0  0  0  0  0  0
    9.3953  -16.7901   26.8561 C   0  0  1  0  0  0  0  0  0  0  0  0
    7.9213  -16.4652   26.7666 C   0  0  0  0  0  0  0  0  0  0  0  0
    7.7255  -15.3970   25.7666 C   0  0  0  0  0  0  0  0  0  0  0  0
    7.7980  -15.4922   24.3829 C   0  0  0  0  0  0  0  0  0  0  0  0
    7.5627  -14.2945   23.8323 N   0  0  0  0  0  0  0  0  0  0  0  0
    7.3337  -13.3942   24.7937 C   0  0  0  0  0  0  0  0  0  0  0  0
    7.0422  -12.0365   24.7413 C   0  0  0  0  0  0  0  0  0  0  0  0
    6.8554  -11.3902   25.9420 C   0  0  0  0  0  0  0  0  0  0  0  0
    6.9468  -12.0325   27.1555 C   0  0  0  0  0  0  0  0  0  0  0  0
    7.2360  -13.3767   27.1937 C   0  0  0  0  0  0  0  0  0  0  0  0
    7.4328  -14.0725   26.0093 C   0  0  0  0  0  0  0  0  0  0  0  0
    9.8289  -16.9379   28.2564 C   0  0  0  0  0  0  0  0  0  0  0  0
    9.7166  -15.9807   29.0424 O   0  0  0  0  0  0  0  0  0  0  0  0
   10.3550  -18.1246   28.6965 O   0  0  0  0  0  0  0  0  0  0  0  0
  2  1  1  6
  2  3  1  0
  3  4  1  0
  5  4  1  0
  5  6  2  0
  7  8  2  0
  7  2  1  0
  9  5  1  0
 10  7  1  0
 11 12  1  1
 11 10  1  0
 13 12  1  0
 14 13  1  0
 15 14  1  0
 16 15  1  0
 17 11  1  0
 18 17  2  0
 19 17  1  0
 20 21  1  1
 20 19  1  0
 21 22  1  0
 22 30  1  0
 23 22  2  0
 23 24  1  0
 24 25  1  0
 25 26  2  0
 26 27  1  0
 28 27  2  0
 29 28  1  0
 30 29  2  0
 30 25  1  0
 31 33  1  0
 31 20  1  0
 32 31  2  0
M  END
$$$$
