EKW.pdb
     RDKit          3D

 33 34  0  0  1  0  0  0  0  0999 V2000
    8.2099  -18.0487   19.8732 N   0  0  0  0  0  0  0  0  0  0  0  0
    9.0846  -18.6874   20.8602 C   0  0  1  0  0  0  0  0  0  0  0  0
   10.4302  -18.0586   20.7179 C   0  0  0  0  0  0  0  0  0  0  0  0
   10.8804  -18.0938   19.2880 C   0  0  0  0  0  0  0  0  0  0  0  0
   12.2439  -17.5971   19.1292 C   0  0  0  0  0  0  0  0  0  0  0  0
   12.5825  -16.7542   18.2994 O   0  0  0  0  0  0  0  0  0  0  0  0
    8.5078  -18.4441   22.2088 C   0  0  0  0  0  0  0  0  0  0  0  0
    7.8754  -17.3937   22.4317 O   0  0  0  0  0  0  0  0  0  0  0  0
   13.2671  -18.0938   19.9662 O   0  0  0  0  0  0  0  0  0  0  0  0
    8.6899  -19.4123   23.2093 N   0  0  0  0  0  0  0  0  0  0  0  0
    8.0258  -19.2945   24.4851 C   0  0  1  0  0  0  0  0  0  0  0  0
    7.8362  -20.6722   25.0878 C   0  0  0  0  0  0  0  0  0  0  0  0
    6.4280  -20.9922   25.4469 C   0  0  0  0  0  0  0  0  0  0  0  0
    5.8424  -21.8470   24.3357 C   0  0  0  0  0  0  0  0  0  0  0  0
    4.8218  -22.7772   24.9458 C   0  0  0  0  0  0  0  0  0  0  0  0
    5.4310  -23.7310   25.8504 N   0  0  0  0  0  0  0  0  0  0  0  0
    8.8160  -18.3775   25.3211 C   0  0  0  0  0  0  0  0  0  0  0  0
   10.0327  -18.2251   25.0762 O   0  0  0  0  0  0  0  0  0  0  0  0
    8.2830  -17.6396   26.4060 N   0  0  0  0  0  0  0  0  0  0  0  0
    9.1221  -16.7663   27.1572 C   0  0  1  0  0  0  0  0  0  0  0  0
    8.3499  -15.6726   27.8597 C   0  0  0  0  0  0  0  0  0  0  0  0
    7.4162  -15.0520   26.8992 C   0  0  0  0  0  0  0  0  0  0  0  0
    6.3945  -15.6588   26.1803 C   0  0  0  0  0  0  0  0  0  0  0  0
    5.7793  -14.7513   25.4114 N   0  0  0  0  0  0  0  0  0  0  0  0
    6.3480  -13.5541   25.5852 C   0  0  0  0  0  0  0  0  0  0  0  0
    6.0774  -12.3100   25.0282 C   0  0  0  0  0  0  0  0  0  0  0  0
    6.8666  -11.2580   25.4341 C   0  0  0  0  0  0  0  0  0  0  0  0
    7.8851  -11.4007   26.3484 C   0  0  0  0  0  0  0  0  0  0  0  0
    8.1429  -12.6374   26.8923 C   0  0  0  0  0  0  0  0  0  0  0  0
    7.3743  -13.7293   26.5146 C   0  0  0  0  0  0  0  0  0  0  0  0
    9.9073  -17.5680   28.1121 C   0  0  0  0  0  0  0  0  0  0  0  0
    9.7021  -18.7908   28.2077 O   0  0  0  0  0  0  0  0  0  0  0  0
   10.8623  -16.9727   28.8946 O   0  0  0  0  0  0  0  0  0  0  0  0
  2  1  1  6
  2  3  1  0
  3  4  1  0
  5  4  1  0
  5  6  2  0
  7  8  2  0
  7  2  1  0
  9  5  1  0
 10  7  1  0
 11 12  1  1
 11 10  1  0
 13 12  1  0
 14 13  1  0
 15 14  1  0
 16 15  1  0
 17 11  1  0
 18 17  2  0
 19 17  1  0
 20 21  1  1
 20 19  1  0
 21 22  1  0
 22 30  1  0
 23 22  2  0
 23 24  1  0
 24 25  1  0
 25 26  2  0
 26 27  1  0
 28 27  2  0
 29 28  1  0
 30 29  2  0
 30 25  1  0
 31 33  1  0
 31 20  1  0
 32 31  2  0
M  END
$$$$
