EKW.pdb
     RDKit          3D

 33 34  0  0  1  0  0  0  0  0999 V2000
   11.3649  -19.2767   18.2537 N   0  0  0  0  0  0  0  0  0  0  0  0
   12.1068  -18.6674   19.3607 C   0  0  1  0  0  0  0  0  0  0  0  0
   12.9212  -17.5605   18.7794 C   0  0  0  0  0  0  0  0  0  0  0  0
   14.1159  -18.1079   18.0571 C   0  0  0  0  0  0  0  0  0  0  0  0
   14.9744  -17.0490   17.5348 C   0  0  0  0  0  0  0  0  0  0  0  0
   14.7401  -16.4082   16.5110 O   0  0  0  0  0  0  0  0  0  0  0  0
   11.1191  -18.1582   20.3486 C   0  0  0  0  0  0  0  0  0  0  0  0
   10.6406  -17.0156   20.2135 O   0  0  0  0  0  0  0  0  0  0  0  0
   16.1595  -16.7108   18.2242 O   0  0  0  0  0  0  0  0  0  0  0  0
   10.7444  -18.9842   21.4206 N   0  0  0  0  0  0  0  0  0  0  0  0
    9.6397  -18.6297   22.2790 C   0  0  1  0  0  0  0  0  0  0  0  0
    8.8969  -19.8840   22.6943 C   0  0  0  0  0  0  0  0  0  0  0  0
    8.2375  -20.6025   21.5704 C   0  0  0  0  0  0  0  0  0  0  0  0
    7.5186  -21.8122   22.1435 C   0  0  0  0  0  0  0  0  0  0  0  0
    7.0130  -22.6479   20.9924 C   0  0  0  0  0  0  0  0  0  0  0  0
    6.3451  -23.8500   21.4486 N   0  0  0  0  0  0  0  0  0  0  0  0
   10.1767  -17.8499   23.4049 C   0  0  0  0  0  0  0  0  0  0  0  0
   11.3863  -17.5333   23.4051 O   0  0  0  0  0  0  0  0  0  0  0  0
    9.4022  -17.4234   24.5112 N   0  0  0  0  0  0  0  0  0  0  0  0
   10.0081  -16.6748   25.5618 C   0  0  1  0  0  0  0  0  0  0  0  0
    9.8351  -15.1823   25.3927 C   0  0  0  0  0  0  0  0  0  0  0  0
    8.4037  -14.8471   25.5276 C   0  0  0  0  0  0  0  0  0  0  0  0
    7.3069  -15.6840   25.3679 C   0  0  0  0  0  0  0  0  0  0  0  0
    6.1767  -14.9951   25.5709 N   0  0  0  0  0  0  0  0  0  0  0  0
    6.4704  -13.7239   25.8622 C   0  0  0  0  0  0  0  0  0  0  0  0
    5.6644  -12.6299   26.1531 C   0  0  0  0  0  0  0  0  0  0  0  0
    6.2994  -11.4376   26.4167 C   0  0  0  0  0  0  0  0  0  0  0  0
    7.6690  -11.3039   26.4004 C   0  0  0  0  0  0  0  0  0  0  0  0
    8.4555  -12.3945   26.1110 C   0  0  0  0  0  0  0  0  0  0  0  0
    7.8618  -13.6187   25.8382 C   0  0  0  0  0  0  0  0  0  0  0  0
    9.4615  -17.1366   26.8497 C   0  0  0  0  0  0  0  0  0  0  0  0
    8.5047  -17.9309   26.8658 O   0  0  0  0  0  0  0  0  0  0  0  0
   10.0024  -16.6954   28.0293 O   0  0  0  0  0  0  0  0  0  0  0  0
  2  1  1  6
  2  3  1  0
  3  4  1  0
  5  4  1  0
  5  6  2  0
  7  8  2  0
  7  2  1  0
  9  5  1  0
 10  7  1  0
 11 12  1  1
 11 10  1  0
 13 12  1  0
 14 13  1  0
 15 14  1  0
 16 15  1  0
 17 11  1  0
 18 17  2  0
 19 17  1  0
 20 21  1  6
 20 19  1  0
 21 22  1  0
 22 30  1  0
 23 22  2  0
 23 24  1  0
 24 25  1  0
 25 26  2  0
 26 27  1  0
 28 27  2  0
 29 28  1  0
 30 29  2  0
 30 25  1  0
 31 33  1  0
 31 20  1  0
 32 31  2  0
M  END
$$$$
