EKW.pdb
     RDKit          3D

 33 34  0  0  1  0  0  0  0  0999 V2000
    9.0234  -12.9738   18.9404 N   0  0  0  0  0  0  0  0  0  0  0  0
    9.0403  -14.4389   18.9464 C   0  0  1  0  0  0  0  0  0  0  0  0
   10.4328  -14.8576   18.6118 C   0  0  0  0  0  0  0  0  0  0  0  0
   11.4278  -14.0535   19.3943 C   0  0  0  0  0  0  0  0  0  0  0  0
   12.7985  -14.4980   19.1603 C   0  0  0  0  0  0  0  0  0  0  0  0
   13.4427  -15.1987   19.9397 O   0  0  0  0  0  0  0  0  0  0  0  0
    8.6439  -14.8961   20.3045 C   0  0  0  0  0  0  0  0  0  0  0  0
    8.3358  -14.0588   21.1745 O   0  0  0  0  0  0  0  0  0  0  0  0
   13.4595  -14.1181   17.9716 O   0  0  0  0  0  0  0  0  0  0  0  0
    8.6251  -16.2732   20.5781 N   0  0  0  0  0  0  0  0  0  0  0  0
    8.0424  -16.7791   21.7976 C   0  0  1  0  0  0  0  0  0  0  0  0
    7.6313  -18.2249   21.6022 C   0  0  0  0  0  0  0  0  0  0  0  0
    6.6747  -18.4408   20.4830 C   0  0  0  0  0  0  0  0  0  0  0  0
    6.4914  -19.9385   20.3040 C   0  0  0  0  0  0  0  0  0  0  0  0
    5.6275  -20.1645   19.0867 C   0  0  0  0  0  0  0  0  0  0  0  0
    5.4941  -21.5723   18.7714 N   0  0  0  0  0  0  0  0  0  0  0  0
    9.0162  -16.5735   22.8810 C   0  0  0  0  0  0  0  0  0  0  0  0
   10.2212  -16.4044   22.5932 O   0  0  0  0  0  0  0  0  0  0  0  0
    8.6762  -16.5528   24.2556 N   0  0  0  0  0  0  0  0  0  0  0  0
    9.6754  -16.2815   25.2350 C   0  0  1  0  0  0  0  0  0  0  0  0
    9.0932  -15.8479   26.5613 C   0  0  0  0  0  0  0  0  0  0  0  0
    7.8035  -15.1709   26.3206 C   0  0  0  0  0  0  0  0  0  0  0  0
    6.5724  -15.7456   26.0326 C   0  0  0  0  0  0  0  0  0  0  0  0
    5.6494  -14.7880   25.8773 N   0  0  0  0  0  0  0  0  0  0  0  0
    6.2122  -13.5879   26.0504 C   0  0  0  0  0  0  0  0  0  0  0  0
    5.6875  -12.3022   25.9978 C   0  0  0  0  0  0  0  0  0  0  0  0
    6.5573  -11.2617   26.2326 C   0  0  0  0  0  0  0  0  0  0  0  0
    7.8915  -11.4544   26.5092 C   0  0  0  0  0  0  0  0  0  0  0  0
    8.3984  -12.7321   26.5583 C   0  0  0  0  0  0  0  0  0  0  0  0
    7.5609  -13.8143   26.3286 C   0  0  0  0  0  0  0  0  0  0  0  0
   10.5276  -17.4738   25.3863 C   0  0  0  0  0  0  0  0  0  0  0  0
   10.2089  -18.5364   24.8243 O   0  0  0  0  0  0  0  0  0  0  0  0
   11.6691  -17.4173   26.1429 O   0  0  0  0  0  0  0  0  0  0  0  0
  2  1  1  1
  2  3  1  0
  3  4  1  0
  5  4  1  0
  5  6  2  0
  7  8  2  0
  7  2  1  0
  9  5  1  0
 10  7  1  0
 11 12  1  6
 11 10  1  0
 13 12  1  0
 14 13  1  0
 15 14  1  0
 16 15  1  0
 17 11  1  0
 18 17  2  0
 19 17  1  0
 20 21  1  1
 20 19  1  0
 21 22  1  0
 22 30  1  0
 23 22  2  0
 23 24  1  0
 24 25  1  0
 25 26  2  0
 26 27  1  0
 28 27  2  0
 29 28  1  0
 30 29  2  0
 30 25  1  0
 31 33  1  0
 31 20  1  0
 32 31  2  0
M  END
$$$$
