EKW.pdb
     RDKit          3D

 33 34  0  0  1  0  0  0  0  0999 V2000
   10.3205  -19.1069   18.4460 N   0  0  0  0  0  0  0  0  0  0  0  0
   10.5349  -17.6639   18.5833 C   0  0  1  0  0  0  0  0  0  0  0  0
    9.8703  -17.0141   17.4162 C   0  0  0  0  0  0  0  0  0  0  0  0
   10.8486  -16.1707   16.6543 C   0  0  0  0  0  0  0  0  0  0  0  0
   11.3259  -16.8386   15.4471 C   0  0  0  0  0  0  0  0  0  0  0  0
   10.9489  -17.9486   15.0738 O   0  0  0  0  0  0  0  0  0  0  0  0
    9.9267  -17.2308   19.8691 C   0  0  0  0  0  0  0  0  0  0  0  0
   10.0525  -16.0501   20.2471 O   0  0  0  0  0  0  0  0  0  0  0  0
   12.2827  -16.1978   14.6298 O   0  0  0  0  0  0  0  0  0  0  0  0
    9.2177  -18.1705   20.6347 N   0  0  0  0  0  0  0  0  0  0  0  0
    8.4168  -17.7563   21.7614 C   0  0  1  0  0  0  0  0  0  0  0  0
    7.3154  -18.7697   22.0011 C   0  0  0  0  0  0  0  0  0  0  0  0
    6.2507  -18.7704   20.9616 C   0  0  0  0  0  0  0  0  0  0  0  0
    5.3637  -19.9811   21.1983 C   0  0  0  0  0  0  0  0  0  0  0  0
    4.3725  -20.0673   20.0629 C   0  0  0  0  0  0  0  0  0  0  0  0
    3.6113  -21.2995   20.1012 N   0  0  0  0  0  0  0  0  0  0  0  0
    9.3178  -17.5668   22.9089 C   0  0  0  0  0  0  0  0  0  0  0  0
   10.3941  -18.2018   22.9498 O   0  0  0  0  0  0  0  0  0  0  0  0
    9.0450  -16.6966   23.9923 N   0  0  0  0  0  0  0  0  0  0  0  0
    9.9404  -16.6309   25.0992 C   0  0  1  0  0  0  0  0  0  0  0  0
    9.8337  -15.3301   25.8626 C   0  0  0  0  0  0  0  0  0  0  0  0
    8.4246  -14.8897   25.8651 C   0  0  0  0  0  0  0  0  0  0  0  0
    7.2816  -15.6684   25.9921 C   0  0  0  0  0  0  0  0  0  0  0  0
    6.1936  -14.8897   25.9403 N   0  0  0  0  0  0  0  0  0  0  0  0
    6.5601  -13.6137   25.7833 C   0  0  0  0  0  0  0  0  0  0  0  0
    5.8190  -12.4430   25.6784 C   0  0  0  0  0  0  0  0  0  0  0  0
    6.5217  -11.2696   25.5247 C   0  0  0  0  0  0  0  0  0  0  0  0
    7.8962  -11.2260   25.4735 C   0  0  0  0  0  0  0  0  0  0  0  0
    8.6181  -12.3920   25.5785 C   0  0  0  0  0  0  0  0  0  0  0  0
    7.9548  -13.6008   25.7348 C   0  0  0  0  0  0  0  0  0  0  0  0
    9.6970  -17.7899   25.9757 C   0  0  0  0  0  0  0  0  0  0  0  0
   10.4640  -18.0162   26.9281 O   0  0  0  0  0  0  0  0  0  0  0  0
    8.6299  -18.6190   25.7466 O   0  0  0  0  0  0  0  0  0  0  0  0
  2  1  1  6
  2  3  1  0
  3  4  1  0
  5  4  1  0
  5  6  2  0
  7  8  2  0
  7  2  1  0
  9  5  1  0
 10  7  1  0
 11 12  1  1
 11 10  1  0
 13 12  1  0
 14 13  1  0
 15 14  1  0
 16 15  1  0
 17 11  1  0
 18 17  2  0
 19 17  1  0
 20 21  1  1
 20 19  1  0
 21 22  1  0
 22 30  1  0
 23 22  2  0
 23 24  1  0
 24 25  1  0
 25 26  2  0
 26 27  1  0
 28 27  2  0
 29 28  1  0
 30 29  2  0
 30 25  1  0
 31 33  1  0
 31 20  1  0
 32 31  2  0
M  END
$$$$
