EKW.pdb
     RDKit          3D

 33 34  0  0  1  0  0  0  0  0999 V2000
   10.4110  -19.8659   20.9811 N   0  0  0  0  0  0  0  0  0  0  0  0
   11.4271  -18.8668   20.6396 C   0  0  1  0  0  0  0  0  0  0  0  0
   11.7183  -19.0247   19.1848 C   0  0  0  0  0  0  0  0  0  0  0  0
   13.0443  -19.6951   18.9820 C   0  0  0  0  0  0  0  0  0  0  0  0
   14.0256  -18.7993   18.3771 C   0  0  0  0  0  0  0  0  0  0  0  0
   15.2238  -18.7937   18.6561 O   0  0  0  0  0  0  0  0  0  0  0  0
   10.8678  -17.5229   20.9421 C   0  0  0  0  0  0  0  0  0  0  0  0
   11.5550  -16.5046   20.7330 O   0  0  0  0  0  0  0  0  0  0  0  0
   13.6079  -17.8654   17.4038 O   0  0  0  0  0  0  0  0  0  0  0  0
    9.5661  -17.4308   21.4607 N   0  0  0  0  0  0  0  0  0  0  0  0
    8.9473  -16.1469   21.6875 C   0  0  1  0  0  0  0  0  0  0  0  0
    7.4533  -16.2556   21.4563 C   0  0  0  0  0  0  0  0  0  0  0  0
    7.0638  -17.2934   20.4635 C   0  0  0  0  0  0  0  0  0  0  0  0
    5.5491  -17.2841   20.3438 C   0  0  0  0  0  0  0  0  0  0  0  0
    5.1501  -18.3393   19.3406 C   0  0  0  0  0  0  0  0  0  0  0  0
    3.7634  -18.7317   19.4903 N   0  0  0  0  0  0  0  0  0  0  0  0
    9.3142  -15.7032   23.0413 C   0  0  0  0  0  0  0  0  0  0  0  0
    9.2407  -14.4877   23.3250 O   0  0  0  0  0  0  0  0  0  0  0  0
    9.7531  -16.5756   24.0669 N   0  0  0  0  0  0  0  0  0  0  0  0
   10.0828  -16.0579   25.3531 C   0  0  1  0  0  0  0  0  0  0  0  0
    9.0303  -16.3631   26.3948 C   0  0  0  0  0  0  0  0  0  0  0  0
    7.7915  -15.6370   26.0520 C   0  0  0  0  0  0  0  0  0  0  0  0
    6.6213  -16.1461   25.5037 C   0  0  0  0  0  0  0  0  0  0  0  0
    5.7308  -15.1599   25.3385 N   0  0  0  0  0  0  0  0  0  0  0  0
    6.2566  -14.0037   25.7555 C   0  0  0  0  0  0  0  0  0  0  0  0
    5.7428  -12.7132   25.7960 C   0  0  0  0  0  0  0  0  0  0  0  0
    6.5629  -11.7291   26.2991 C   0  0  0  0  0  0  0  0  0  0  0  0
    7.8388  -11.9809   26.7490 C   0  0  0  0  0  0  0  0  0  0  0  0
    8.3356  -13.2626   26.7034 C   0  0  0  0  0  0  0  0  0  0  0  0
    7.5467  -14.2895   26.2046 C   0  0  0  0  0  0  0  0  0  0  0  0
   11.4011  -16.5816   25.7517 C   0  0  0  0  0  0  0  0  0  0  0  0
   12.0326  -17.3206   24.9761 O   0  0  0  0  0  0  0  0  0  0  0  0
   11.9341  -16.2580   26.9723 O   0  0  0  0  0  0  0  0  0  0  0  0
  2  1  1  6
  2  3  1  0
  3  4  1  0
  5  4  1  0
  5  6  2  0
  7  8  2  0
  7  2  1  0
  9  5  1  0
 10  7  1  0
 11 12  1  1
 11 10  1  0
 13 12  1  0
 14 13  1  0
 15 14  1  0
 16 15  1  0
 17 11  1  0
 18 17  2  0
 19 17  1  0
 20 21  1  1
 20 19  1  0
 21 22  1  0
 22 30  1  0
 23 22  2  0
 23 24  1  0
 24 25  1  0
 25 26  2  0
 26 27  1  0
 28 27  2  0
 29 28  1  0
 30 29  2  0
 30 25  1  0
 31 33  1  0
 31 20  1  0
 32 31  2  0
M  END
$$$$
