EKW.pdb
     RDKit          3D

 33 34  0  0  1  0  0  0  0  0999 V2000
    9.1833  -18.5408   20.3753 N   0  0  0  0  0  0  0  0  0  0  0  0
   10.4821  -17.9769   19.9982 C   0  0  1  0  0  0  0  0  0  0  0  0
   10.5333  -17.9660   18.5070 C   0  0  0  0  0  0  0  0  0  0  0  0
   10.1453  -19.3057   17.9561 C   0  0  0  0  0  0  0  0  0  0  0  0
   10.3818  -19.3976   16.5185 C   0  0  0  0  0  0  0  0  0  0  0  0
   10.8597  -18.4929   15.8353 O   0  0  0  0  0  0  0  0  0  0  0  0
   10.5642  -16.6018   20.5576 C   0  0  0  0  0  0  0  0  0  0  0  0
   11.5629  -15.8952   20.3205 O   0  0  0  0  0  0  0  0  0  0  0  0
   10.0531  -20.5883   15.8342 O   0  0  0  0  0  0  0  0  0  0  0  0
    9.5047  -16.1262   21.3470 N   0  0  0  0  0  0  0  0  0  0  0  0
    9.5300  -14.7918   21.8961 C   0  0  1  0  0  0  0  0  0  0  0  0
    8.3222  -14.0183   21.4059 C   0  0  0  0  0  0  0  0  0  0  0  0
    7.8597  -14.4073   20.0461 C   0  0  0  0  0  0  0  0  0  0  0  0
    8.1893  -13.2697   19.0944 C   0  0  0  0  0  0  0  0  0  0  0  0
    7.6044  -13.6024   17.7430 C   0  0  0  0  0  0  0  0  0  0  0  0
    7.9495  -12.6107   16.7447 N   0  0  0  0  0  0  0  0  0  0  0  0
    9.6136  -14.9090   23.3602 C   0  0  0  0  0  0  0  0  0  0  0  0
    9.7866  -13.8773   24.0452 O   0  0  0  0  0  0  0  0  0  0  0  0
    9.5089  -16.1346   24.0621 N   0  0  0  0  0  0  0  0  0  0  0  0
    9.8236  -16.1920   25.4508 C   0  0  1  0  0  0  0  0  0  0  0  0
    8.6565  -16.6468   26.2976 C   0  0  0  0  0  0  0  0  0  0  0  0
    7.5223  -15.7260   26.0851 C   0  0  0  0  0  0  0  0  0  0  0  0
    6.2625  -16.0178   25.5784 C   0  0  0  0  0  0  0  0  0  0  0  0
    5.5200  -14.9042   25.5385 N   0  0  0  0  0  0  0  0  0  0  0  0
    6.2322  -13.8714   26.0002 C   0  0  0  0  0  0  0  0  0  0  0  0
    5.9176  -12.5276   26.1624 C   0  0  0  0  0  0  0  0  0  0  0  0
    6.8995  -11.7133   26.6792 C   0  0  0  0  0  0  0  0  0  0  0  0
    8.1461  -12.1798   27.0287 C   0  0  0  0  0  0  0  0  0  0  0  0
    8.4449  -13.5121   26.8632 C   0  0  0  0  0  0  0  0  0  0  0  0
    7.4877  -14.3733   26.3457 C   0  0  0  0  0  0  0  0  0  0  0  0
   10.9949  -17.0665   25.6361 C   0  0  0  0  0  0  0  0  0  0  0  0
   11.4337  -17.2774   26.7805 O   0  0  0  0  0  0  0  0  0  0  0  0
   11.6024  -17.6483   24.5539 O   0  0  0  0  0  0  0  0  0  0  0  0
  2  1  1  6
  2  3  1  0
  3  4  1  0
  5  4  1  0
  5  6  2  0
  7  8  2  0
  7  2  1  0
  9  5  1  0
 10  7  1  0
 11 12  1  1
 11 10  1  0
 13 12  1  0
 14 13  1  0
 15 14  1  0
 16 15  1  0
 17 11  1  0
 18 17  2  0
 19 17  1  0
 20 21  1  1
 20 19  1  0
 21 22  1  0
 22 30  1  0
 23 22  2  0
 23 24  1  0
 24 25  1  0
 25 26  2  0
 26 27  1  0
 28 27  2  0
 29 28  1  0
 30 29  2  0
 30 25  1  0
 31 33  1  0
 31 20  1  0
 32 31  2  0
M  END
$$$$
