EKW.pdb
     RDKit          3D

 33 34  0  0  1  0  0  0  0  0999 V2000
   13.5688  -18.1970   18.1343 N   0  0  0  0  0  0  0  0  0  0  0  0
   13.6782  -18.3569   19.5867 C   0  0  1  0  0  0  0  0  0  0  0  0
   15.1256  -18.2356   19.9282 C   0  0  0  0  0  0  0  0  0  0  0  0
   15.7965  -19.5753   19.8653 C   0  0  0  0  0  0  0  0  0  0  0  0
   17.2175  -19.4935   20.1895 C   0  0  0  0  0  0  0  0  0  0  0  0
   17.9070  -18.4864   20.0351 O   0  0  0  0  0  0  0  0  0  0  0  0
   12.8740  -17.2831   20.2276 C   0  0  0  0  0  0  0  0  0  0  0  0
   13.2190  -16.0923   20.1024 O   0  0  0  0  0  0  0  0  0  0  0  0
   17.8767  -20.6252   20.7175 O   0  0  0  0  0  0  0  0  0  0  0  0
   11.7334  -17.6385   20.9655 N   0  0  0  0  0  0  0  0  0  0  0  0
   10.8907  -16.6292   21.5603 C   0  0  1  0  0  0  0  0  0  0  0  0
    9.5719  -16.5659   20.8160 C   0  0  0  0  0  0  0  0  0  0  0  0
    8.9833  -15.2018   20.7329 C   0  0  0  0  0  0  0  0  0  0  0  0
    8.1025  -15.1445   19.4963 C   0  0  0  0  0  0  0  0  0  0  0  0
    7.6581  -13.7150   19.3010 C   0  0  0  0  0  0  0  0  0  0  0  0
    6.8990  -13.5462   18.0784 N   0  0  0  0  0  0  0  0  0  0  0  0
   10.7572  -16.9405   22.9920 C   0  0  0  0  0  0  0  0  0  0  0  0
   10.5730  -18.1264   23.3431 O   0  0  0  0  0  0  0  0  0  0  0  0
   10.8251  -15.9702   24.0212 N   0  0  0  0  0  0  0  0  0  0  0  0
    9.6883  -15.7197   24.8435 C   0  0  1  0  0  0  0  0  0  0  0  0
    8.5310  -15.1212   24.0763 C   0  0  0  0  0  0  0  0  0  0  0  0
    7.4812  -14.7151   25.0316 C   0  0  0  0  0  0  0  0  0  0  0  0
    6.4269  -15.4741   25.5229 C   0  0  0  0  0  0  0  0  0  0  0  0
    5.6918  -14.7380   26.3660 N   0  0  0  0  0  0  0  0  0  0  0  0
    6.2114  -13.5101   26.4622 C   0  0  0  0  0  0  0  0  0  0  0  0
    5.8254  -12.3956   27.1970 C   0  0  0  0  0  0  0  0  0  0  0  0
    6.5981  -11.2638   27.0691 C   0  0  0  0  0  0  0  0  0  0  0  0
    7.7083  -11.2080   26.2578 C   0  0  0  0  0  0  0  0  0  0  0  0
    8.0797  -12.3180   25.5356 C   0  0  0  0  0  0  0  0  0  0  0  0
    7.3323  -13.4833   25.6313 C   0  0  0  0  0  0  0  0  0  0  0  0
    9.2993  -16.9747   25.5103 C   0  0  0  0  0  0  0  0  0  0  0  0
    9.2015  -18.0222   24.8471 O   0  0  0  0  0  0  0  0  0  0  0  0
    9.0452  -16.9930   26.8570 O   0  0  0  0  0  0  0  0  0  0  0  0
  2  1  1  6
  2  3  1  0
  3  4  1  0
  5  4  1  0
  5  6  2  0
  7  8  2  0
  7  2  1  0
  9  5  1  0
 10  7  1  0
 11 12  1  6
 11 10  1  0
 13 12  1  0
 14 13  1  0
 15 14  1  0
 16 15  1  0
 17 11  1  0
 18 17  2  0
 19 17  1  0
 20 21  1  6
 20 19  1  0
 21 22  1  0
 22 30  1  0
 23 22  2  0
 23 24  1  0
 24 25  1  0
 25 26  2  0
 26 27  1  0
 28 27  2  0
 29 28  1  0
 30 29  2  0
 30 25  1  0
 31 33  1  0
 31 20  1  0
 32 31  2  0
M  END
$$$$
