EKW.pdb
     RDKit          3D

 33 34  0  0  1  0  0  0  0  0999 V2000
    9.0941  -19.1783   18.8878 N   0  0  0  0  0  0  0  0  0  0  0  0
    9.3712  -19.1897   20.3266 C   0  0  1  0  0  0  0  0  0  0  0  0
   10.3654  -20.2759   20.5678 C   0  0  0  0  0  0  0  0  0  0  0  0
   11.6024  -20.0497   19.7508 C   0  0  0  0  0  0  0  0  0  0  0  0
   12.5987  -21.0957   19.9619 C   0  0  0  0  0  0  0  0  0  0  0  0
   13.6942  -21.1325   19.4033 O   0  0  0  0  0  0  0  0  0  0  0  0
    9.9166  -17.8575   20.6986 C   0  0  0  0  0  0  0  0  0  0  0  0
   10.9945  -17.4704   20.2077 O   0  0  0  0  0  0  0  0  0  0  0  0
   12.3211  -22.1497   20.8597 O   0  0  0  0  0  0  0  0  0  0  0  0
    9.1978  -17.0586   21.6024 N   0  0  0  0  0  0  0  0  0  0  0  0
    9.6047  -15.7019   21.8790 C   0  0  1  0  0  0  0  0  0  0  0  0
    8.4526  -14.7586   21.5956 C   0  0  0  0  0  0  0  0  0  0  0  0
    7.9334  -14.8312   20.2030 C   0  0  0  0  0  0  0  0  0  0  0  0
    7.9810  -13.4330   19.6103 C   0  0  0  0  0  0  0  0  0  0  0  0
    7.9111  -13.5564   18.1074 C   0  0  0  0  0  0  0  0  0  0  0  0
    7.8761  -12.2613   17.4588 N   0  0  0  0  0  0  0  0  0  0  0  0
   10.0936  -15.6523   23.2656 C   0  0  0  0  0  0  0  0  0  0  0  0
   10.9966  -14.8409   23.5648 O   0  0  0  0  0  0  0  0  0  0  0  0
    9.6015  -16.4766   24.3068 N   0  0  0  0  0  0  0  0  0  0  0  0
   10.1194  -16.3448   25.6280 C   0  0  1  0  0  0  0  0  0  0  0  0
    9.7184  -15.0446   26.2874 C   0  0  0  0  0  0  0  0  0  0  0  0
    8.2474  -14.9246   26.2562 C   0  0  0  0  0  0  0  0  0  0  0  0
    7.3091  -15.9222   26.0252 C   0  0  0  0  0  0  0  0  0  0  0  0
    6.0749  -15.4051   26.0753 N   0  0  0  0  0  0  0  0  0  0  0  0
    6.1456  -14.0951   26.3320 C   0  0  0  0  0  0  0  0  0  0  0  0
    5.1612  -13.1260   26.4829 C   0  0  0  0  0  0  0  0  0  0  0  0
    5.5821  -11.8435   26.7516 C   0  0  0  0  0  0  0  0  0  0  0  0
    6.9107  -11.5054   26.8710 C   0  0  0  0  0  0  0  0  0  0  0  0
    7.8754  -12.4740   26.7193 C   0  0  0  0  0  0  0  0  0  0  0  0
    7.5008  -13.7822   26.4475 C   0  0  0  0  0  0  0  0  0  0  0  0
    9.6880  -17.5067   26.4248 C   0  0  0  0  0  0  0  0  0  0  0  0
    8.9598  -18.3732   25.9097 O   0  0  0  0  0  0  0  0  0  0  0  0
   10.0856  -17.6369   27.7301 O   0  0  0  0  0  0  0  0  0  0  0  0
  2  1  1  6
  2  3  1  0
  3  4  1  0
  5  4  1  0
  5  6  2  0
  7  8  2  0
  7  2  1  0
  9  5  1  0
 10  7  1  0
 11 12  1  1
 11 10  1  0
 13 12  1  0
 14 13  1  0
 15 14  1  0
 16 15  1  0
 17 11  1  0
 18 17  2  0
 19 17  1  0
 20 21  1  1
 20 19  1  0
 21 22  1  0
 22 30  1  0
 23 22  2  0
 23 24  1  0
 24 25  1  0
 25 26  2  0
 26 27  1  0
 28 27  2  0
 29 28  1  0
 30 29  2  0
 30 25  1  0
 31 33  1  0
 31 20  1  0
 32 31  2  0
M  END
$$$$
