IFV.pdb
     RDKit          3D

 27 27  0  0  1  0  0  0  0  0999 V2000
   26.9438  -19.9571  -20.8093 C   0  0  0  0  0  0  0  0  0  0  0  0
   27.7461  -20.3925  -19.6146 C   0  0  0  0  0  0  0  0  0  0  0  0
   26.9185  -20.7832  -18.4295 C   0  0  2  0  0  0  0  0  0  0  0  0
   25.9815  -19.6836  -17.9854 C   0  0  0  0  0  0  0  0  0  0  0  0
   27.8098  -21.1305  -17.2672 C   0  0  2  0  0  0  0  0  0  0  0  0
   28.6056  -22.2824  -17.6348 N   0  0  0  0  0  0  0  0  0  0  0  0
   27.0804  -21.4167  -16.0349 C   0  0  0  0  0  0  0  0  0  0  0  0
   26.4146  -22.4770  -15.9417 O   0  0  0  0  0  0  0  0  0  0  0  0
   27.0695  -20.5574  -14.9013 N   0  0  0  0  0  0  0  0  0  0  0  0
   26.3003  -20.8631  -13.7206 C   0  0  1  0  0  0  0  0  0  0  0  0
   27.0302  -20.2346  -12.5532 C   0  0  0  0  0  0  0  0  0  0  0  0
   26.3474  -20.4712  -11.2727 C   0  0  0  0  0  0  0  0  0  0  0  0
   26.6586  -21.5926  -10.5378 C   0  0  0  0  0  0  0  0  0  0  0  0
   26.0099  -21.7933   -9.3439 C   0  0  0  0  0  0  0  0  0  0  0  0
   25.0646  -20.8795   -8.8992 C   0  0  0  0  0  0  0  0  0  0  0  0
   24.7639  -19.7526   -9.6559 C   0  0  0  0  0  0  0  0  0  0  0  0
   25.4074  -19.5382  -10.8568 C   0  0  0  0  0  0  0  0  0  0  0  0
   24.9196  -20.3555  -13.8507 C   0  0  0  0  0  0  0  0  0  0  0  0
   24.7367  -19.1845  -14.2732 O   0  0  0  0  0  0  0  0  0  0  0  0
   20.3483  -20.4796  -15.0185 C   0  0  0  0  0  0  0  0  0  0  0  0
   21.7856  -20.9667  -14.9397 C   0  0  1  0  0  0  0  0  0  0  0  0
   22.5274  -20.4044  -16.1071 C   0  0  0  0  0  0  0  0  0  0  0  0
   22.4141  -20.6133  -13.6120 C   0  0  2  0  0  0  0  0  0  0  0  0
   23.7722  -21.1100  -13.5274 N   0  0  0  0  0  0  0  0  0  0  0  0
   21.5896  -21.0021  -12.4684 C   0  0  0  0  0  0  0  0  0  0  0  0
   20.6871  -20.1444  -11.8220 O   0  0  0  0  0  0  0  0  0  0  0  0
   21.6604  -22.1674  -12.0009 O   0  0  0  0  0  0  0  0  0  0  0  0
  1  2  1  0
  3  5  1  0
  3  2  1  0
  3  4  1  1
  5  6  1  6
  7  8  2  0
  7  5  1  0
  9  7  1  0
 10  9  1  0
 10 11  1  1
 11 12  1  0
 12 17  2  0
 12 13  1  0
 13 14  2  0
 14 15  1  0
 16 15  2  0
 17 16  1  0
 18 19  2  0
 18 10  1  0
 21 20  1  1
 22 21  1  0
 23 21  1  0
 23 24  1  1
 24 18  1  0
 25 23  1  0
 26 25  1  0
 27 25  2  0
M  END
$$$$
