IFV.pdb
     RDKit          3D

 27 27  0  0  1  0  0  0  0  0999 V2000
   18.8631  -14.5612  -16.0899 C   0  0  0  0  0  0  0  0  0  0  0  0
   19.4547  -14.2628  -17.4396 C   0  0  0  0  0  0  0  0  0  0  0  0
   19.7662  -12.8160  -17.6663 C   0  0  2  0  0  0  0  0  0  0  0  0
   20.6267  -12.2271  -16.5722 C   0  0  0  0  0  0  0  0  0  0  0  0
   18.4925  -12.0166  -17.7354 C   0  0  2  0  0  0  0  0  0  0  0  0
   17.6900  -12.5361  -18.8223 N   0  0  0  0  0  0  0  0  0  0  0  0
   18.7090  -10.5858  -17.9315 C   0  0  0  0  0  0  0  0  0  0  0  0
   19.5831  -10.1978  -18.7449 O   0  0  0  0  0  0  0  0  0  0  0  0
   17.9810   -9.5721  -17.2490 N   0  0  0  0  0  0  0  0  0  0  0  0
   18.3083   -8.1746  -17.3870 C   0  0  1  0  0  0  0  0  0  0  0  0
   17.0838   -7.4977  -17.9640 C   0  0  0  0  0  0  0  0  0  0  0  0
   16.9973   -7.6462  -19.4242 C   0  0  0  0  0  0  0  0  0  0  0  0
   16.1547   -8.5944  -19.9586 C   0  0  0  0  0  0  0  0  0  0  0  0
   16.0882   -8.7151  -21.3251 C   0  0  0  0  0  0  0  0  0  0  0  0
   16.8577   -7.8944  -22.1380 C   0  0  0  0  0  0  0  0  0  0  0  0
   17.7030   -6.9424  -21.5794 C   0  0  0  0  0  0  0  0  0  0  0  0
   17.7800   -6.8100  -20.2086 C   0  0  0  0  0  0  0  0  0  0  0  0
   18.6995   -7.5985  -16.0847 C   0  0  0  0  0  0  0  0  0  0  0  0
   17.9789   -7.8206  -15.0774 O   0  0  0  0  0  0  0  0  0  0  0  0
   22.6643   -6.1422  -15.3047 C   0  0  0  0  0  0  0  0  0  0  0  0
   21.6748   -6.6661  -14.2774 C   0  0  1  0  0  0  0  0  0  0  0  0
   22.1155   -6.1950  -12.9309 C   0  0  0  0  0  0  0  0  0  0  0  0
   20.2609   -6.2548  -14.6159 C   0  0  2  0  0  0  0  0  0  0  0  0
   19.8480   -6.8022  -15.8918 N   0  0  0  0  0  0  0  0  0  0  0  0
   20.0464   -4.8116  -14.5152 C   0  0  0  0  0  0  0  0  0  0  0  0
   19.7286   -4.1454  -13.3223 O   0  0  0  0  0  0  0  0  0  0  0  0
   20.1422   -4.0823  -15.5352 O   0  0  0  0  0  0  0  0  0  0  0  0
  1  2  1  0
  3  5  1  0
  3  2  1  0
  3  4  1  1
  5  6  1  6
  7  8  2  0
  7  5  1  0
  9  7  1  0
 10  9  1  0
 10 11  1  1
 11 12  1  0
 12 17  2  0
 12 13  1  0
 13 14  2  0
 14 15  1  0
 16 15  2  0
 17 16  1  0
 18 19  2  0
 18 10  1  0
 21 20  1  6
 22 21  1  0
 23 21  1  0
 23 24  1  6
 24 18  1  0
 25 23  1  0
 26 25  1  0
 27 25  2  0
M  END
$$$$
