IFV.pdb
     RDKit          3D

 27 27  0  0  1  0  0  0  0  0999 V2000
   27.0983  -20.3766  -20.3454 C   0  0  0  0  0  0  0  0  0  0  0  0
   27.8700  -20.8775  -19.1562 C   0  0  0  0  0  0  0  0  0  0  0  0
   27.0227  -21.1863  -17.9610 C   0  0  2  0  0  0  0  0  0  0  0  0
   26.1985  -20.0025  -17.5099 C   0  0  0  0  0  0  0  0  0  0  0  0
   27.8902  -21.6139  -16.8075 C   0  0  2  0  0  0  0  0  0  0  0  0
   28.5487  -22.8510  -17.1701 N   0  0  0  0  0  0  0  0  0  0  0  0
   27.1549  -21.8019  -15.5599 C   0  0  0  0  0  0  0  0  0  0  0  0
   26.3372  -22.7493  -15.4602 O   0  0  0  0  0  0  0  0  0  0  0  0
   27.3025  -20.9665  -14.4181 N   0  0  0  0  0  0  0  0  0  0  0  0
   26.4860  -21.1330  -13.2413 C   0  0  1  0  0  0  0  0  0  0  0  0
   27.2496  -20.5103  -12.0925 C   0  0  0  0  0  0  0  0  0  0  0  0
   26.4816  -20.5200  -10.8388 C   0  0  0  0  0  0  0  0  0  0  0  0
   26.3293  -21.7010  -10.1484 C   0  0  0  0  0  0  0  0  0  0  0  0
   25.6094  -21.6870   -8.9788 C   0  0  0  0  0  0  0  0  0  0  0  0
   25.0531  -20.5034   -8.5139 C   0  0  0  0  0  0  0  0  0  0  0  0
   25.2179  -19.3205   -9.2256 C   0  0  0  0  0  0  0  0  0  0  0  0
   25.9383  -19.3196  -10.4017 C   0  0  0  0  0  0  0  0  0  0  0  0
   25.1617  -20.5077  -13.4317 C   0  0  0  0  0  0  0  0  0  0  0  0
   25.1009  -19.3052  -13.7970 O   0  0  0  0  0  0  0  0  0  0  0  0
   20.6030  -20.4577  -14.8686 C   0  0  0  0  0  0  0  0  0  0  0  0
   21.9705  -21.0897  -14.6695 C   0  0  1  0  0  0  0  0  0  0  0  0
   22.7787  -20.8364  -15.8992 C   0  0  0  0  0  0  0  0  0  0  0  0
   22.6329  -20.5822  -13.4099 C   0  0  2  0  0  0  0  0  0  0  0  0
   23.9390  -21.1813  -13.2278 N   0  0  0  0  0  0  0  0  0  0  0  0
   21.7788  -20.6997  -12.2285 C   0  0  0  0  0  0  0  0  0  0  0  0
   21.0288  -19.6424  -11.6924 O   0  0  0  0  0  0  0  0  0  0  0  0
   21.6796  -21.7972  -11.6227 O   0  0  0  0  0  0  0  0  0  0  0  0
  1  2  1  0
  3  5  1  0
  3  2  1  0
  3  4  1  1
  5  6  1  6
  7  8  2  0
  7  5  1  0
  9  7  1  0
 10  9  1  0
 10 11  1  1
 11 12  1  0
 12 17  2  0
 12 13  1  0
 13 14  2  0
 14 15  1  0
 16 15  2  0
 17 16  1  0
 18 19  2  0
 18 10  1  0
 21 20  1  6
 22 21  1  0
 23 21  1  0
 23 24  1  1
 24 18  1  0
 25 23  1  0
 26 25  1  0
 27 25  2  0
M  END
$$$$
