IFV.pdb
     RDKit          3D

 27 27  0  0  1  0  0  0  0  0999 V2000
   25.3014  -20.5516  -19.3539 C   0  0  0  0  0  0  0  0  0  0  0  0
   26.3995  -21.0267  -18.4434 C   0  0  0  0  0  0  0  0  0  0  0  0
   25.9769  -21.2154  -17.0195 C   0  0  2  0  0  0  0  0  0  0  0  0
   25.3689  -19.9673  -16.4221 C   0  0  0  0  0  0  0  0  0  0  0  0
   27.1608  -21.6043  -16.1749 C   0  0  2  0  0  0  0  0  0  0  0  0
   27.6814  -22.8590  -16.6751 N   0  0  0  0  0  0  0  0  0  0  0  0
   26.8482  -21.7391  -14.7548 C   0  0  0  0  0  0  0  0  0  0  0  0
   26.1248  -22.6895  -14.3678 O   0  0  0  0  0  0  0  0  0  0  0  0
   27.3170  -20.8471  -13.7509 N   0  0  0  0  0  0  0  0  0  0  0  0
   26.9024  -20.9627  -12.3747 C   0  0  1  0  0  0  0  0  0  0  0  0
   27.8999  -20.1742  -11.5539 C   0  0  0  0  0  0  0  0  0  0  0  0
   27.5739  -20.1789  -10.1203 C   0  0  0  0  0  0  0  0  0  0  0  0
   28.1633  -21.1102   -9.2959 C   0  0  0  0  0  0  0  0  0  0  0  0
   27.8458  -21.0957   -7.9597 C   0  0  0  0  0  0  0  0  0  0  0  0
   26.9497  -20.1587   -7.4639 C   0  0  0  0  0  0  0  0  0  0  0  0
   26.3645  -19.2259   -8.3126 C   0  0  0  0  0  0  0  0  0  0  0  0
   26.6741  -19.2287   -9.6566 C   0  0  0  0  0  0  0  0  0  0  0  0
   25.5230  -20.4646  -12.2011 C   0  0  0  0  0  0  0  0  0  0  0  0
   25.2280  -19.3203  -12.6333 O   0  0  0  0  0  0  0  0  0  0  0  0
   20.8043  -20.8073  -12.3204 C   0  0  0  0  0  0  0  0  0  0  0  0
   22.2340  -21.2951  -12.4856 C   0  0  1  0  0  0  0  0  0  0  0  0
   22.6828  -20.9478  -13.8667 C   0  0  0  0  0  0  0  0  0  0  0  0
   23.1347  -20.7329  -11.4107 C   0  0  2  0  0  0  0  0  0  0  0  0
   24.4963  -21.1998  -11.5720 N   0  0  0  0  0  0  0  0  0  0  0  0
   22.6129  -20.9434  -10.0608 C   0  0  0  0  0  0  0  0  0  0  0  0
   23.1651  -21.8420   -9.1358 O   0  0  0  0  0  0  0  0  0  0  0  0
   21.6085  -20.3014   -9.6604 O   0  0  0  0  0  0  0  0  0  0  0  0
  1  2  1  0
  3  5  1  0
  3  2  1  0
  3  4  1  1
  5  6  1  6
  7  8  2  0
  7  5  1  0
  9  7  1  0
 10  9  1  0
 10 11  1  1
 11 12  1  0
 12 17  2  0
 12 13  1  0
 13 14  2  0
 14 15  1  0
 16 15  2  0
 17 16  1  0
 18 19  2  0
 18 10  1  0
 21 20  1  1
 22 21  1  0
 23 21  1  0
 23 24  1  1
 24 18  1  0
 25 23  1  0
 26 25  1  0
 27 25  2  0
M  END
$$$$
