IFV.pdb
     RDKit          3D

 27 27  0  0  1  0  0  0  0  0999 V2000
   27.4694  -21.8934  -20.3194 C   0  0  0  0  0  0  0  0  0  0  0  0
   28.1748  -22.2654  -19.0448 C   0  0  0  0  0  0  0  0  0  0  0  0
   27.2745  -22.3671  -17.8528 C   0  0  2  0  0  0  0  0  0  0  0  0
   26.5045  -21.0926  -17.5941 C   0  0  0  0  0  0  0  0  0  0  0  0
   28.0801  -22.6804  -16.6204 C   0  0  2  0  0  0  0  0  0  0  0  0
   28.6400  -24.0068  -16.7702 N   0  0  0  0  0  0  0  0  0  0  0  0
   27.3070  -22.6158  -15.3832 C   0  0  0  0  0  0  0  0  0  0  0  0
   26.4239  -23.4798  -15.1594 O   0  0  0  0  0  0  0  0  0  0  0  0
   27.4871  -21.6177  -14.3859 N   0  0  0  0  0  0  0  0  0  0  0  0
   26.6217  -21.5238  -13.2364 C   0  0  1  0  0  0  0  0  0  0  0  0
   27.3881  -20.7602  -12.1781 C   0  0  0  0  0  0  0  0  0  0  0  0
   26.5932  -20.5387  -10.9612 C   0  0  0  0  0  0  0  0  0  0  0  0
   26.0978  -19.2821  -10.6966 C   0  0  0  0  0  0  0  0  0  0  0  0
   25.3567  -19.0979   -9.5551 C   0  0  0  0  0  0  0  0  0  0  0  0
   25.1194  -20.1619   -8.6958 C   0  0  0  0  0  0  0  0  0  0  0  0
   25.6284  -21.4239   -8.9803 C   0  0  0  0  0  0  0  0  0  0  0  0
   26.3745  -21.6236  -10.1231 C   0  0  0  0  0  0  0  0  0  0  0  0
   25.3520  -20.8583  -13.5914 C   0  0  0  0  0  0  0  0  0  0  0  0
   25.3887  -19.7591  -14.2026 O   0  0  0  0  0  0  0  0  0  0  0  0
   20.8253  -20.6022  -15.0610 C   0  0  0  0  0  0  0  0  0  0  0  0
   22.1480  -21.2948  -14.7779 C   0  0  1  0  0  0  0  0  0  0  0  0
   22.9845  -21.2130  -16.0120 C   0  0  0  0  0  0  0  0  0  0  0  0
   22.8266  -20.7087  -13.5619 C   0  0  2  0  0  0  0  0  0  0  0  0
   24.0785  -21.3828  -13.2856 N   0  0  0  0  0  0  0  0  0  0  0  0
   21.9461  -20.6351  -12.3965 C   0  0  0  0  0  0  0  0  0  0  0  0
   21.2105  -19.4958  -12.0376 O   0  0  0  0  0  0  0  0  0  0  0  0
   21.8087  -21.6303  -11.6401 O   0  0  0  0  0  0  0  0  0  0  0  0
  1  2  1  0
  3  5  1  0
  3  2  1  0
  3  4  1  1
  5  6  1  6
  7  8  2  0
  7  5  1  0
  9  7  1  0
 10  9  1  0
 10 11  1  1
 11 12  1  0
 12 17  2  0
 12 13  1  0
 13 14  2  0
 14 15  1  0
 16 15  2  0
 17 16  1  0
 18 19  2  0
 18 10  1  0
 21 20  1  6
 22 21  1  0
 23 21  1  0
 23 24  1  1
 24 18  1  0
 25 23  1  0
 26 25  1  0
 27 25  2  0
M  END
$$$$
