IFV.pdb
     RDKit          3D

 27 27  0  0  1  0  0  0  0  0999 V2000
   27.7142  -20.8839  -20.9719 C   0  0  0  0  0  0  0  0  0  0  0  0
   28.4070  -21.3089  -19.7070 C   0  0  0  0  0  0  0  0  0  0  0  0
   27.4803  -21.5926  -18.5657 C   0  0  2  0  0  0  0  0  0  0  0  0
   26.5827  -20.4212  -18.2393 C   0  0  0  0  0  0  0  0  0  0  0  0
   28.2695  -21.9306  -17.3292 C   0  0  2  0  0  0  0  0  0  0  0  0
   28.9540  -23.1855  -17.5576 N   0  0  0  0  0  0  0  0  0  0  0  0
   27.4526  -22.0347  -16.1232 C   0  0  0  0  0  0  0  0  0  0  0  0
   26.6944  -23.0240  -15.9728 O   0  0  0  0  0  0  0  0  0  0  0  0
   27.4542  -21.0700  -15.0779 N   0  0  0  0  0  0  0  0  0  0  0  0
   26.6133  -21.2056  -13.9144 C   0  0  1  0  0  0  0  0  0  0  0  0
   27.2838  -20.4284  -12.8023 C   0  0  0  0  0  0  0  0  0  0  0  0
   26.5289  -20.4896  -11.5421 C   0  0  0  0  0  0  0  0  0  0  0  0
   25.6747  -19.4610  -11.2150 C   0  0  0  0  0  0  0  0  0  0  0  0
   24.9783  -19.5393  -10.0338 C   0  0  0  0  0  0  0  0  0  0  0  0
   25.1403  -20.6352   -9.1976 C   0  0  0  0  0  0  0  0  0  0  0  0
   26.0078  -21.6644   -9.5454 C   0  0  0  0  0  0  0  0  0  0  0  0
   26.7138  -21.5992  -10.7285 C   0  0  0  0  0  0  0  0  0  0  0  0
   25.2503  -20.7107  -14.1944 C   0  0  0  0  0  0  0  0  0  0  0  0
   25.1075  -19.5664  -14.6979 O   0  0  0  0  0  0  0  0  0  0  0  0
   20.6020  -21.2349  -15.4203 C   0  0  0  0  0  0  0  0  0  0  0  0
   22.0212  -21.7378  -15.2150 C   0  0  1  0  0  0  0  0  0  0  0  0
   22.7217  -21.6916  -16.5329 C   0  0  0  0  0  0  0  0  0  0  0  0
   22.7326  -20.9527  -14.1378 C   0  0  2  0  0  0  0  0  0  0  0  0
   24.0775  -21.4489  -13.9304 N   0  0  0  0  0  0  0  0  0  0  0  0
   21.9610  -20.8539  -12.8994 C   0  0  0  0  0  0  0  0  0  0  0  0
   21.8315  -21.8954  -11.9685 O   0  0  0  0  0  0  0  0  0  0  0  0
   21.3590  -19.7887  -12.6090 O   0  0  0  0  0  0  0  0  0  0  0  0
  1  2  1  0
  3  5  1  0
  3  2  1  0
  3  4  1  1
  5  6  1  6
  7  8  2  0
  7  5  1  0
  9  7  1  0
 10  9  1  0
 10 11  1  1
 11 12  1  0
 12 17  2  0
 12 13  1  0
 13 14  2  0
 14 15  1  0
 16 15  2  0
 17 16  1  0
 18 19  2  0
 18 10  1  0
 21 20  1  6
 22 21  1  0
 23 21  1  0
 23 24  1  1
 24 18  1  0
 25 23  1  0
 26 25  1  0
 27 25  2  0
M  END
$$$$
