IFV.pdb
     RDKit          3D

 27 27  0  0  1  0  0  0  0  0999 V2000
   23.0661  -20.4585  -14.8406 C   0  0  0  0  0  0  0  0  0  0  0  0
   24.4866  -20.5492  -14.3561 C   0  0  0  0  0  0  0  0  0  0  0  0
   24.6182  -20.8391  -12.8931 C   0  0  2  0  0  0  0  0  0  0  0  0
   23.8871  -19.8347  -12.0323 C   0  0  0  0  0  0  0  0  0  0  0  0
   26.0687  -20.8257  -12.4908 C   0  0  2  0  0  0  0  0  0  0  0  0
   26.7614  -21.8379  -13.2595 N   0  0  0  0  0  0  0  0  0  0  0  0
   26.2837  -21.0649  -11.0664 C   0  0  0  0  0  0  0  0  0  0  0  0
   26.0950  -22.2137  -10.5964 O   0  0  0  0  0  0  0  0  0  0  0  0
   26.7031  -20.0631  -10.1478 N   0  0  0  0  0  0  0  0  0  0  0  0
   26.9112  -20.3496   -8.7500 C   0  0  1  0  0  0  0  0  0  0  0  0
   27.9981  -19.4111   -8.2724 C   0  0  0  0  0  0  0  0  0  0  0  0
   28.2169  -19.4998   -6.8212 C   0  0  0  0  0  0  0  0  0  0  0  0
   27.7813  -18.4783   -6.0081 C   0  0  0  0  0  0  0  0  0  0  0  0
   27.9946  -18.5823   -4.6553 C   0  0  0  0  0  0  0  0  0  0  0  0
   28.6358  -19.6966   -4.1320 C   0  0  0  0  0  0  0  0  0  0  0  0
   29.0687  -20.7182   -4.9696 C   0  0  0  0  0  0  0  0  0  0  0  0
   28.8612  -20.6272   -6.3301 C   0  0  0  0  0  0  0  0  0  0  0  0
   25.6567  -20.1795   -7.9895 C   0  0  0  0  0  0  0  0  0  0  0  0
   24.9619  -19.1480   -8.1806 O   0  0  0  0  0  0  0  0  0  0  0  0
   22.5795  -21.7934   -8.1709 C   0  0  0  0  0  0  0  0  0  0  0  0
   22.9041  -21.9311   -6.6928 C   0  0  1  0  0  0  0  0  0  0  0  0
   23.2863  -23.3513   -6.4352 C   0  0  0  0  0  0  0  0  0  0  0  0
   23.9673  -20.9449   -6.2688 C   0  0  2  0  0  0  0  0  0  0  0  0
   25.1773  -21.1133   -7.0470 N   0  0  0  0  0  0  0  0  0  0  0  0
   24.2084  -20.9500   -4.8263 C   0  0  0  0  0  0  0  0  0  0  0  0
   23.2477  -20.5957   -3.8674 O   0  0  0  0  0  0  0  0  0  0  0  0
   25.3315  -21.2856   -4.3710 O   0  0  0  0  0  0  0  0  0  0  0  0
  1  2  1  0
  3  5  1  0
  3  2  1  0
  3  4  1  1
  5  6  1  6
  7  8  2  0
  7  5  1  0
  9  7  1  0
 10  9  1  0
 10 11  1  1
 11 12  1  0
 12 17  2  0
 12 13  1  0
 13 14  2  0
 14 15  1  0
 16 15  2  0
 17 16  1  0
 18 19  2  0
 18 10  1  0
 21 20  1  6
 22 21  1  0
 23 21  1  0
 23 24  1  6
 24 18  1  0
 25 23  1  0
 26 25  1  0
 27 25  2  0
M  END
$$$$
