IFV.pdb
     RDKit          3D

 27 27  0  0  1  0  0  0  0  0999 V2000
   26.4002  -21.5470  -20.1763 C   0  0  0  0  0  0  0  0  0  0  0  0
   27.2795  -21.7663  -18.9765 C   0  0  0  0  0  0  0  0  0  0  0  0
   26.5308  -21.9537  -17.6935 C   0  0  2  0  0  0  0  0  0  0  0  0
   25.6241  -20.7877  -17.3726 C   0  0  0  0  0  0  0  0  0  0  0  0
   27.4957  -22.1191  -16.5501 C   0  0  2  0  0  0  0  0  0  0  0  0
   28.2399  -23.3430  -16.7588 N   0  0  0  0  0  0  0  0  0  0  0  0
   26.8507  -22.1594  -15.2405 C   0  0  0  0  0  0  0  0  0  0  0  0
   26.0738  -23.1056  -14.9622 O   0  0  0  0  0  0  0  0  0  0  0  0
   27.0445  -21.1775  -14.2298 N   0  0  0  0  0  0  0  0  0  0  0  0
   26.3268  -21.2184  -12.9798 C   0  0  1  0  0  0  0  0  0  0  0  0
   27.1344  -20.4074  -11.9897 C   0  0  0  0  0  0  0  0  0  0  0  0
   26.5167  -20.3755  -10.6558 C   0  0  0  0  0  0  0  0  0  0  0  0
   26.8354  -21.3519   -9.7396 C   0  0  0  0  0  0  0  0  0  0  0  0
   26.2481  -21.3021   -8.4991 C   0  0  0  0  0  0  0  0  0  0  0  0
   25.3553  -20.2857   -8.1882 C   0  0  0  0  0  0  0  0  0  0  0  0
   25.0460  -19.3083   -9.1273 C   0  0  0  0  0  0  0  0  0  0  0  0
   25.6283  -19.3458  -10.3770 C   0  0  0  0  0  0  0  0  0  0  0  0
   24.9581  -20.6891  -13.1458 C   0  0  0  0  0  0  0  0  0  0  0  0
   24.8023  -19.5434  -13.6421 O   0  0  0  0  0  0  0  0  0  0  0  0
   20.2519  -21.0691  -14.0809 C   0  0  0  0  0  0  0  0  0  0  0  0
   21.6608  -21.6221  -13.9461 C   0  0  1  0  0  0  0  0  0  0  0  0
   22.3014  -21.5850  -15.2943 C   0  0  0  0  0  0  0  0  0  0  0  0
   22.4473  -20.8737  -12.8954 C   0  0  2  0  0  0  0  0  0  0  0  0
   23.7934  -21.3957  -12.7788 N   0  0  0  0  0  0  0  0  0  0  0  0
   21.7513  -20.7919  -11.6116 C   0  0  0  0  0  0  0  0  0  0  0  0
   20.7990  -19.8118  -11.2947 O   0  0  0  0  0  0  0  0  0  0  0  0
   21.9892  -21.6306  -10.7053 O   0  0  0  0  0  0  0  0  0  0  0  0
  1  2  1  0
  3  5  1  0
  3  2  1  0
  3  4  1  1
  5  6  1  6
  7  8  2  0
  7  5  1  0
  9  7  1  0
 10  9  1  0
 10 11  1  1
 11 12  1  0
 12 17  2  0
 12 13  1  0
 13 14  2  0
 14 15  1  0
 16 15  2  0
 17 16  1  0
 18 19  2  0
 18 10  1  0
 21 20  1  6
 22 21  1  0
 23 21  1  0
 23 24  1  1
 24 18  1  0
 25 23  1  0
 26 25  1  0
 27 25  2  0
M  END
$$$$
