IFV.pdb
     RDKit          3D

 27 27  0  0  1  0  0  0  0  0999 V2000
   23.6511  -20.5037  -19.1375 C   0  0  0  0  0  0  0  0  0  0  0  0
   25.0568  -21.0154  -18.9862 C   0  0  0  0  0  0  0  0  0  0  0  0
   25.3743  -21.5413  -17.6208 C   0  0  2  0  0  0  0  0  0  0  0  0
   24.5036  -22.7137  -17.2312 C   0  0  0  0  0  0  0  0  0  0  0  0
   25.1830  -20.4595  -16.5916 C   0  0  2  0  0  0  0  0  0  0  0  0
   26.0747  -19.3655  -16.9132 N   0  0  0  0  0  0  0  0  0  0  0  0
   25.4315  -20.9029  -15.2226 C   0  0  0  0  0  0  0  0  0  0  0  0
   24.9825  -22.0112  -14.8399 O   0  0  0  0  0  0  0  0  0  0  0  0
   26.1658  -20.1495  -14.2653 N   0  0  0  0  0  0  0  0  0  0  0  0
   26.2508  -20.5501  -12.8827 C   0  0  1  0  0  0  0  0  0  0  0  0
   27.3445  -19.7131  -12.2554 C   0  0  0  0  0  0  0  0  0  0  0  0
   27.4890  -19.9687  -10.8148 C   0  0  0  0  0  0  0  0  0  0  0  0
   26.7302  -19.2479   -9.9208 C   0  0  0  0  0  0  0  0  0  0  0  0
   26.8800  -19.5039   -8.5798 C   0  0  0  0  0  0  0  0  0  0  0  0
   27.7789  -20.4694   -8.1481 C   0  0  0  0  0  0  0  0  0  0  0  0
   28.5366  -21.1871   -9.0665 C   0  0  0  0  0  0  0  0  0  0  0  0
   28.3967  -20.9407  -10.4164 C   0  0  0  0  0  0  0  0  0  0  0  0
   24.9520  -20.3654  -12.2046 C   0  0  0  0  0  0  0  0  0  0  0  0
   24.2876  -19.3213  -12.4315 O   0  0  0  0  0  0  0  0  0  0  0  0
   20.6885  -21.6724  -10.6323 C   0  0  0  0  0  0  0  0  0  0  0  0
   22.0140  -21.8272  -11.3592 C   0  0  1  0  0  0  0  0  0  0  0  0
   21.8339  -21.3325  -12.7564 C   0  0  0  0  0  0  0  0  0  0  0  0
   23.1309  -21.1264  -10.6216 C   0  0  2  0  0  0  0  0  0  0  0  0
   24.3971  -21.2987  -11.3037 N   0  0  0  0  0  0  0  0  0  0  0  0
   23.1906  -21.4821   -9.2043 C   0  0  0  0  0  0  0  0  0  0  0  0
   24.2236  -22.2341   -8.6253 O   0  0  0  0  0  0  0  0  0  0  0  0
   22.2815  -21.1130   -8.4177 O   0  0  0  0  0  0  0  0  0  0  0  0
  1  2  1  0
  3  5  1  0
  3  2  1  0
  3  4  1  1
  5  6  1  6
  7  8  2  0
  7  5  1  0
  9  7  1  0
 10  9  1  0
 10 11  1  1
 11 12  1  0
 12 17  2  0
 12 13  1  0
 13 14  2  0
 14 15  1  0
 16 15  2  0
 17 16  1  0
 18 19  2  0
 18 10  1  0
 21 20  1  1
 22 21  1  0
 23 21  1  0
 23 24  1  6
 24 18  1  0
 25 23  1  0
 26 25  1  0
 27 25  2  0
M  END
$$$$
