IFV.pdb
     RDKit          3D

 27 27  0  0  1  0  0  0  0  0999 V2000
   27.6813  -19.3650  -16.6267 C   0  0  0  0  0  0  0  0  0  0  0  0
   28.5364  -19.7605  -15.4549 C   0  0  0  0  0  0  0  0  0  0  0  0
   27.7645  -20.0780  -14.2119 C   0  0  2  0  0  0  0  0  0  0  0  0
   26.8877  -18.9320  -13.7621 C   0  0  0  0  0  0  0  0  0  0  0  0
   28.7080  -20.4094  -13.0867 C   0  0  2  0  0  0  0  0  0  0  0  0
   29.4722  -21.5788  -13.4658 N   0  0  0  0  0  0  0  0  0  0  0  0
   28.0369  -20.6586  -11.8139 C   0  0  0  0  0  0  0  0  0  0  0  0
   27.3794  -21.7167  -11.6576 O   0  0  0  0  0  0  0  0  0  0  0  0
   28.0756  -19.7649  -10.7079 N   0  0  0  0  0  0  0  0  0  0  0  0
   27.3675  -20.0382   -9.4820 C   0  0  1  0  0  0  0  0  0  0  0  0
   27.8696  -19.0413   -8.4600 C   0  0  0  0  0  0  0  0  0  0  0  0
   27.7971  -19.5619   -7.0869 C   0  0  0  0  0  0  0  0  0  0  0  0
   28.7224  -20.4899   -6.6660 C   0  0  0  0  0  0  0  0  0  0  0  0
   28.6371  -20.9618   -5.3789 C   0  0  0  0  0  0  0  0  0  0  0  0
   27.6366  -20.5059   -4.5317 C   0  0  0  0  0  0  0  0  0  0  0  0
   26.7110  -19.5682   -4.9753 C   0  0  0  0  0  0  0  0  0  0  0  0
   26.7845  -19.0856   -6.2653 C   0  0  0  0  0  0  0  0  0  0  0  0
   25.9086  -19.9361   -9.6874 C   0  0  0  0  0  0  0  0  0  0  0  0
   25.4286  -18.8624  -10.1346 O   0  0  0  0  0  0  0  0  0  0  0  0
   21.7103  -21.7254  -11.1298 C   0  0  0  0  0  0  0  0  0  0  0  0
   23.1964  -21.8170  -10.8264 C   0  0  1  0  0  0  0  0  0  0  0  0
   23.9431  -21.5053  -12.0812 C   0  0  0  0  0  0  0  0  0  0  0  0
   23.5783  -20.9210   -9.6713 C   0  0  2  0  0  0  0  0  0  0  0  0
   25.0019  -20.9810   -9.4110 N   0  0  0  0  0  0  0  0  0  0  0  0
   22.7672  -21.1527   -8.4765 C   0  0  0  0  0  0  0  0  0  0  0  0
   23.1213  -22.0347   -7.4448 O   0  0  0  0  0  0  0  0  0  0  0  0
   21.6766  -20.5459   -8.3214 O   0  0  0  0  0  0  0  0  0  0  0  0
  1  2  1  0
  3  5  1  0
  3  2  1  0
  3  4  1  1
  5  6  1  6
  7  8  2  0
  7  5  1  0
  9  7  1  0
 10  9  1  0
 10 11  1  1
 11 12  1  0
 12 17  2  0
 12 13  1  0
 13 14  2  0
 14 15  1  0
 16 15  2  0
 17 16  1  0
 18 19  2  0
 18 10  1  0
 21 20  1  6
 22 21  1  0
 23 21  1  0
 23 24  1  1
 24 18  1  0
 25 23  1  0
 26 25  1  0
 27 25  2  0
M  END
$$$$
