IFV.pdb
     RDKit          3D

 27 27  0  0  1  0  0  0  0  0999 V2000
   27.1388  -20.8197  -20.0196 C   0  0  0  0  0  0  0  0  0  0  0  0
   27.7968  -21.3866  -18.7923 C   0  0  0  0  0  0  0  0  0  0  0  0
   26.9108  -21.4303  -17.5861 C   0  0  2  0  0  0  0  0  0  0  0  0
   26.4346  -20.0596  -17.1634 C   0  0  0  0  0  0  0  0  0  0  0  0
   27.6464  -22.0441  -16.4250 C   0  0  2  0  0  0  0  0  0  0  0  0
   28.0044  -23.4006  -16.7816 N   0  0  0  0  0  0  0  0  0  0  0  0
   26.8771  -22.0544  -15.1838 C   0  0  0  0  0  0  0  0  0  0  0  0
   25.8454  -22.7650  -15.1010 O   0  0  0  0  0  0  0  0  0  0  0  0
   27.2219  -21.2971  -14.0301 N   0  0  0  0  0  0  0  0  0  0  0  0
   26.4235  -21.3306  -12.8298 C   0  0  1  0  0  0  0  0  0  0  0  0
   27.2738  -20.7378  -11.7271 C   0  0  0  0  0  0  0  0  0  0  0  0
   26.5488  -20.6400  -10.4518 C   0  0  0  0  0  0  0  0  0  0  0  0
   26.0274  -21.7790   -9.8814 C   0  0  0  0  0  0  0  0  0  0  0  0
   25.3552  -21.6650   -8.6891 C   0  0  0  0  0  0  0  0  0  0  0  0
   25.2113  -20.4247   -8.0831 C   0  0  0  0  0  0  0  0  0  0  0  0
   25.7450  -19.2855   -8.6748 C   0  0  0  0  0  0  0  0  0  0  0  0
   26.4226  -19.3849   -9.8721 C   0  0  0  0  0  0  0  0  0  0  0  0
   25.1625  -20.5858  -13.0202 C   0  0  0  0  0  0  0  0  0  0  0  0
   25.2122  -19.3902  -13.4092 O   0  0  0  0  0  0  0  0  0  0  0  0
   20.7104  -20.0090  -14.5239 C   0  0  0  0  0  0  0  0  0  0  0  0
   22.0415  -20.7180  -14.3382 C   0  0  1  0  0  0  0  0  0  0  0  0
   22.9341  -20.3264  -15.4692 C   0  0  0  0  0  0  0  0  0  0  0  0
   22.6382  -20.4215  -12.9821 C   0  0  2  0  0  0  0  0  0  0  0  0
   23.8837  -21.1358  -12.7910 N   0  0  0  0  0  0  0  0  0  0  0  0
   21.6905  -20.6189  -11.8858 C   0  0  0  0  0  0  0  0  0  0  0  0
   20.9300  -19.5907  -11.3093 O   0  0  0  0  0  0  0  0  0  0  0  0
   21.5135  -21.7641  -11.3973 O   0  0  0  0  0  0  0  0  0  0  0  0
  1  2  1  0
  3  5  1  0
  3  2  1  0
  3  4  1  1
  5  6  1  6
  7  8  2  0
  7  5  1  0
  9  7  1  0
 10  9  1  0
 10 11  1  1
 11 12  1  0
 12 17  2  0
 12 13  1  0
 13 14  2  0
 14 15  1  0
 16 15  2  0
 17 16  1  0
 18 19  2  0
 18 10  1  0
 21 20  1  6
 22 21  1  0
 23 21  1  0
 23 24  1  1
 24 18  1  0
 25 23  1  0
 26 25  1  0
 27 25  2  0
M  END
$$$$
