IFV.pdb
     RDKit          3D

 27 27  0  0  1  0  0  0  0  0999 V2000
   16.2542  -12.7090  -21.0549 C   0  0  0  0  0  0  0  0  0  0  0  0
   17.5899  -12.5952  -20.3741 C   0  0  0  0  0  0  0  0  0  0  0  0
   17.6962  -11.4458  -19.4204 C   0  0  2  0  0  0  0  0  0  0  0  0
   17.5491  -10.1060  -20.1044 C   0  0  0  0  0  0  0  0  0  0  0  0
   19.0329  -11.4688  -18.7284 C   0  0  2  0  0  0  0  0  0  0  0  0
   19.2691  -12.8122  -18.2438 N   0  0  0  0  0  0  0  0  0  0  0  0
   19.1335  -10.5264  -17.6175 C   0  0  0  0  0  0  0  0  0  0  0  0
   18.1832  -10.4258  -16.8032 O   0  0  0  0  0  0  0  0  0  0  0  0
   20.2614   -9.6914  -17.3847 N   0  0  0  0  0  0  0  0  0  0  0  0
   20.2583   -8.6736  -16.3633 C   0  0  1  0  0  0  0  0  0  0  0  0
   21.6193   -8.7184  -15.7029 C   0  0  0  0  0  0  0  0  0  0  0  0
   21.7560   -7.7191  -14.6332 C   0  0  0  0  0  0  0  0  0  0  0  0
   21.3501   -8.0354  -13.3566 C   0  0  0  0  0  0  0  0  0  0  0  0
   21.4883   -7.0875  -12.3722 C   0  0  0  0  0  0  0  0  0  0  0  0
   22.0261   -5.8431  -12.6700 C   0  0  0  0  0  0  0  0  0  0  0  0
   22.4304   -5.5424  -13.9657 C   0  0  0  0  0  0  0  0  0  0  0  0
   22.2976   -6.4845  -14.9643 C   0  0  0  0  0  0  0  0  0  0  0  0
   19.9676   -7.3486  -16.9471 C   0  0  0  0  0  0  0  0  0  0  0  0
   20.5499   -7.0081  -18.0093 O   0  0  0  0  0  0  0  0  0  0  0  0
   17.3010   -5.7002  -18.6527 C   0  0  0  0  0  0  0  0  0  0  0  0
   17.5228   -4.8391  -17.4204 C   0  0  1  0  0  0  0  0  0  0  0  0
   16.4236   -5.1283  -16.4522 C   0  0  0  0  0  0  0  0  0  0  0  0
   18.8993   -5.0579  -16.8371 C   0  0  2  0  0  0  0  0  0  0  0  0
   19.0642   -6.4234  -16.3830 N   0  0  0  0  0  0  0  0  0  0  0  0
   19.2517   -4.0690  -15.8188 C   0  0  0  0  0  0  0  0  0  0  0  0
   19.7503   -2.7894  -16.1049 O   0  0  0  0  0  0  0  0  0  0  0  0
   19.1161   -4.3381  -14.5979 O   0  0  0  0  0  0  0  0  0  0  0  0
  1  2  1  0
  3  5  1  0
  3  2  1  0
  3  4  1  6
  5  6  1  1
  7  8  2  0
  7  5  1  0
  9  7  1  0
 10  9  1  0
 10 11  1  6
 11 12  1  0
 12 17  2  0
 12 13  1  0
 13 14  2  0
 14 15  1  0
 16 15  2  0
 17 16  1  0
 18 19  2  0
 18 10  1  0
 21 20  1  6
 22 21  1  0
 23 21  1  0
 23 24  1  1
 24 18  1  0
 25 23  1  0
 26 25  1  0
 27 25  2  0
M  END
$$$$
