VGK.pdb
     RDKit          3D

 21 20  0  0  1  0  0  0  0  0999 V2000
   22.0975  -13.7284  -14.3950 C   0  0  0  0  0  0  0  0  0  0  0  0
   22.8640  -12.9721  -15.4458 C   0  0  2  0  0  0  0  0  0  0  0  0
   23.5952  -11.7820  -14.8740 C   0  0  0  0  0  0  0  0  0  0  0  0
   21.8507  -12.5430  -16.5129 C   0  0  2  0  0  0  0  0  0  0  0  0
   22.6252  -11.9650  -17.5908 N   0  0  0  0  0  0  0  0  0  0  0  0
   20.9750  -11.5206  -15.8899 C   0  0  0  0  0  0  0  0  0  0  0  0
   20.0834  -11.8141  -15.0706 O   0  0  0  0  0  0  0  0  0  0  0  0
   21.1596  -10.1539  -16.2406 N   0  0  0  0  0  0  0  0  0  0  0  0
   20.3472   -9.0996  -15.6891 C   0  0  0  0  0  0  0  0  0  0  0  0
   21.1962   -7.9301  -15.3753 C   0  0  0  0  0  0  0  0  0  0  0  0
   22.4130   -7.9711  -15.6468 O   0  0  0  0  0  0  0  0  0  0  0  0
   20.6850   -6.7617  -14.7777 N   0  0  0  0  0  0  0  0  0  0  0  0
   21.5744   -5.6361  -14.5985 C   0  0  1  0  0  0  0  0  0  0  0  0
   20.7290   -4.4124  -14.9062 C   0  0  0  0  0  0  0  0  0  0  0  0
   20.2610   -4.3167  -16.3120 C   0  0  0  0  0  0  0  0  0  0  0  0
   19.4944   -3.1001  -16.6822 C   0  0  0  0  0  0  0  0  0  0  0  0
   18.9606   -3.1682  -18.0795 C   0  0  0  0  0  0  0  0  0  0  0  0
   18.1293   -4.2881  -18.3689 N   0  0  0  0  0  0  0  0  0  0  0  0
   22.0246   -5.5424  -13.1853 C   0  0  0  0  0  0  0  0  0  0  0  0
   21.4657   -6.2124  -12.2882 O   0  0  0  0  0  0  0  0  0  0  0  0
   23.0731   -4.7111  -12.8297 O   0  0  0  0  0  0  0  0  0  0  0  0
  2  4  1  0
  2  1  1  1
  3  2  1  0
  4  6  1  0
  4  5  1  6
  6  7  2  0
  8  6  1  0
  8  9  1  0
  9 10  1  0
 10 12  1  0
 10 11  2  0
 12 13  1  0
 13 19  1  0
 13 14  1  1
 14 15  1  0
 15 16  1  0
 16 17  1  0
 17 18  1  0
 19 21  1  0
 20 19  2  0
M  END
$$$$
