VGK.pdb
     RDKit          3D

 21 20  0  0  1  0  0  0  0  0999 V2000
   17.0523  -12.0976  -14.9438 C   0  0  0  0  0  0  0  0  0  0  0  0
   16.3041  -11.7818  -16.2104 C   0  0  2  0  0  0  0  0  0  0  0  0
   16.4130  -12.8896  -17.2297 C   0  0  0  0  0  0  0  0  0  0  0  0
   16.8800  -10.4685  -16.7516 C   0  0  2  0  0  0  0  0  0  0  0  0
   18.1942  -10.7900  -17.2667 N   0  0  0  0  0  0  0  0  0  0  0  0
   16.9812   -9.5359  -15.6026 C   0  0  0  0  0  0  0  0  0  0  0  0
   15.9870   -9.1800  -14.9412 O   0  0  0  0  0  0  0  0  0  0  0  0
   18.2608   -9.0286  -15.2417 N   0  0  0  0  0  0  0  0  0  0  0  0
   18.4727   -8.2470  -14.0501 C   0  0  0  0  0  0  0  0  0  0  0  0
   19.8886   -7.8266  -13.9765 C   0  0  0  0  0  0  0  0  0  0  0  0
   20.7840   -8.6576  -14.2289 O   0  0  0  0  0  0  0  0  0  0  0  0
   20.2726   -6.5165  -13.6306 N   0  0  0  0  0  0  0  0  0  0  0  0
   21.6277   -6.1003  -13.9142 C   0  0  1  0  0  0  0  0  0  0  0  0
   21.7189   -6.0593  -15.4297 C   0  0  0  0  0  0  0  0  0  0  0  0
   23.0253   -5.5970  -15.9625 C   0  0  0  0  0  0  0  0  0  0  0  0
   23.1852   -5.5961  -17.4387 C   0  0  0  0  0  0  0  0  0  0  0  0
   24.5483   -5.1440  -17.8623 C   0  0  0  0  0  0  0  0  0  0  0  0
   24.7482   -5.0185  -19.2670 N   0  0  0  0  0  0  0  0  0  0  0  0
   21.8740   -4.7278  -13.3999 C   0  0  0  0  0  0  0  0  0  0  0  0
   20.9392   -3.9016  -13.3035 O   0  0  0  0  0  0  0  0  0  0  0  0
   23.1442   -4.3328  -13.0158 O   0  0  0  0  0  0  0  0  0  0  0  0
  2  4  1  0
  2  1  1  1
  3  2  1  0
  4  6  1  0
  4  5  1  1
  6  7  2  0
  8  6  1  0
  8  9  1  0
  9 10  1  0
 10 12  1  0
 10 11  2  0
 12 13  1  0
 13 19  1  0
 13 14  1  6
 14 15  1  0
 15 16  1  0
 16 17  1  0
 17 18  1  0
 19 21  1  0
 20 19  2  0
M  END
$$$$
