VGK.pdb
     RDKit          3D

 21 20  0  0  1  0  0  0  0  0999 V2000
   17.8903  -12.1121  -14.6647 C   0  0  0  0  0  0  0  0  0  0  0  0
   17.1029  -11.2980  -15.6551 C   0  0  2  0  0  0  0  0  0  0  0  0
   17.5825  -11.5016  -17.0716 C   0  0  0  0  0  0  0  0  0  0  0  0
   17.2325   -9.8315  -15.2287 C   0  0  2  0  0  0  0  0  0  0  0  0
   18.6468   -9.5255  -15.2721 N   0  0  0  0  0  0  0  0  0  0  0  0
   16.7187   -9.7390  -13.8402 C   0  0  0  0  0  0  0  0  0  0  0  0
   15.5403  -10.0151  -13.5440 O   0  0  0  0  0  0  0  0  0  0  0  0
   17.6037   -9.3195  -12.8080 N   0  0  0  0  0  0  0  0  0  0  0  0
   17.2431   -9.3721  -11.4141 C   0  0  0  0  0  0  0  0  0  0  0  0
   16.6634   -8.0759  -11.0012 C   0  0  0  0  0  0  0  0  0  0  0  0
   16.5873   -7.1503  -11.8340 O   0  0  0  0  0  0  0  0  0  0  0  0
   16.1893   -7.8396   -9.6963 N   0  0  0  0  0  0  0  0  0  0  0  0
   15.6902   -6.5214   -9.3747 C   0  0  1  0  0  0  0  0  0  0  0  0
   14.6422   -6.7478   -8.2990 C   0  0  0  0  0  0  0  0  0  0  0  0
   13.4419   -7.4978   -8.7475 C   0  0  0  0  0  0  0  0  0  0  0  0
   12.4047   -7.7784   -7.7226 C   0  0  0  0  0  0  0  0  0  0  0  0
   11.1910   -8.4324   -8.3067 C   0  0  0  0  0  0  0  0  0  0  0  0
   10.1676   -8.7762   -7.3776 N   0  0  0  0  0  0  0  0  0  0  0  0
   16.7691   -5.6778   -8.7975 C   0  0  0  0  0  0  0  0  0  0  0  0
   17.8178   -6.1943   -8.3511 O   0  0  0  0  0  0  0  0  0  0  0  0
   16.6376   -4.3007   -8.7409 O   0  0  0  0  0  0  0  0  0  0  0  0
  2  4  1  0
  2  1  1  1
  3  2  1  0
  4  6  1  0
  4  5  1  1
  6  7  2  0
  8  6  1  0
  8  9  1  0
  9 10  1  0
 10 12  1  0
 10 11  2  0
 12 13  1  0
 13 19  1  0
 13 14  1  1
 14 15  1  0
 15 16  1  0
 16 17  1  0
 17 18  1  0
 19 21  1  0
 20 19  2  0
M  END
$$$$
