VGK.pdb
     RDKit          3D

 21 20  0  0  1  0  0  0  0  0999 V2000
   21.4943  -14.9287  -15.9661 C   0  0  0  0  0  0  0  0  0  0  0  0
   22.1454  -15.9957  -16.8036 C   0  0  2  0  0  0  0  0  0  0  0  0
   21.4814  -17.3403  -16.6332 C   0  0  0  0  0  0  0  0  0  0  0  0
   23.6206  -16.0468  -16.3907 C   0  0  2  0  0  0  0  0  0  0  0  0
   23.6431  -16.6024  -15.0541 N   0  0  0  0  0  0  0  0  0  0  0  0
   24.1158  -14.6485  -16.3854 C   0  0  0  0  0  0  0  0  0  0  0  0
   24.3899  -14.0328  -17.4334 O   0  0  0  0  0  0  0  0  0  0  0  0
   24.2843  -13.9853  -15.1378 N   0  0  0  0  0  0  0  0  0  0  0  0
   24.7958  -12.6419  -15.0412 C   0  0  0  0  0  0  0  0  0  0  0  0
   23.6765  -11.6972  -14.8371 C   0  0  0  0  0  0  0  0  0  0  0  0
   22.7272  -12.0288  -14.0990 O   0  0  0  0  0  0  0  0  0  0  0  0
   23.6362  -10.4279  -15.4460 N   0  0  0  0  0  0  0  0  0  0  0  0
   22.4951   -9.5783  -15.1887 C   0  0  1  0  0  0  0  0  0  0  0  0
   23.0087   -8.1611  -15.3740 C   0  0  0  0  0  0  0  0  0  0  0  0
   22.3170   -7.1360  -14.5524 C   0  0  0  0  0  0  0  0  0  0  0  0
   21.9528   -5.8665  -15.2310 C   0  0  0  0  0  0  0  0  0  0  0  0
   21.1875   -4.9425  -14.3351 C   0  0  0  0  0  0  0  0  0  0  0  0
   20.6824   -3.7623  -14.9521 N   0  0  0  0  0  0  0  0  0  0  0  0
   21.4259   -9.8167  -16.1929 C   0  0  0  0  0  0  0  0  0  0  0  0
   21.7070  -10.1981  -17.3511 O   0  0  0  0  0  0  0  0  0  0  0  0
   20.0939   -9.6219  -15.8690 O   0  0  0  0  0  0  0  0  0  0  0  0
  2  4  1  0
  2  1  1  1
  3  2  1  0
  4  6  1  0
  4  5  1  1
  6  7  2  0
  8  6  1  0
  8  9  1  0
  9 10  1  0
 10 12  1  0
 10 11  2  0
 12 13  1  0
 13 19  1  0
 13 14  1  6
 14 15  1  0
 15 16  1  0
 16 17  1  0
 17 18  1  0
 19 21  1  0
 20 19  2  0
M  END
$$$$
