VGK.pdb
     RDKit          3D

 21 20  0  0  1  0  0  0  0  0999 V2000
   25.3785  -21.0598  -15.1603 C   0  0  0  0  0  0  0  0  0  0  0  0
   25.0507  -22.4484  -15.6379 C   0  0  2  0  0  0  0  0  0  0  0  0
   23.9520  -22.4523  -16.6727 C   0  0  0  0  0  0  0  0  0  0  0  0
   24.6535  -23.2620  -14.4011 C   0  0  2  0  0  0  0  0  0  0  0  0
   24.5089  -24.6302  -14.8515 N   0  0  0  0  0  0  0  0  0  0  0  0
   23.3533  -22.7249  -13.9307 C   0  0  0  0  0  0  0  0  0  0  0  0
   23.2711  -21.8647  -13.0330 O   0  0  0  0  0  0  0  0  0  0  0  0
   22.1553  -23.2094  -14.5263 N   0  0  0  0  0  0  0  0  0  0  0  0
   20.8633  -22.6454  -14.2292 C   0  0  0  0  0  0  0  0  0  0  0  0
   20.0909  -23.5866  -13.3899 C   0  0  0  0  0  0  0  0  0  0  0  0
   19.9741  -24.7734  -13.7560 O   0  0  0  0  0  0  0  0  0  0  0  0
   19.4761  -23.1969  -12.1843 N   0  0  0  0  0  0  0  0  0  0  0  0
   18.6728  -24.1688  -11.4771 C   0  0  1  0  0  0  0  0  0  0  0  0
   18.9947  -23.9533  -10.0085 C   0  0  0  0  0  0  0  0  0  0  0  0
   18.2508  -24.8334   -9.0725 C   0  0  0  0  0  0  0  0  0  0  0  0
   18.5401  -24.6703   -7.6253 C   0  0  0  0  0  0  0  0  0  0  0  0
   17.6592  -25.5268   -6.7696 C   0  0  0  0  0  0  0  0  0  0  0  0
   17.9497  -25.5117   -5.3752 N   0  0  0  0  0  0  0  0  0  0  0  0
   17.2251  -23.8986  -11.6767 C   0  0  0  0  0  0  0  0  0  0  0  0
   16.3748  -24.8007  -11.5067 O   0  0  0  0  0  0  0  0  0  0  0  0
   16.7849  -22.6417  -12.0554 O   0  0  0  0  0  0  0  0  0  0  0  0
  2  4  1  0
  2  1  1  1
  3  2  1  0
  4  6  1  0
  4  5  1  6
  6  7  2  0
  8  6  1  0
  8  9  1  0
  9 10  1  0
 10 12  1  0
 10 11  2  0
 12 13  1  0
 13 19  1  0
 13 14  1  1
 14 15  1  0
 15 16  1  0
 16 17  1  0
 17 18  1  0
 19 21  1  0
 20 19  2  0
M  END
$$$$
