VGK.pdb
     RDKit          3D

 21 20  0  0  1  0  0  0  0  0999 V2000
   25.2708  -22.7595  -17.1709 C   0  0  0  0  0  0  0  0  0  0  0  0
   25.8709  -21.4487  -17.6018 C   0  0  2  0  0  0  0  0  0  0  0  0
   26.6617  -21.5755  -18.8811 C   0  0  0  0  0  0  0  0  0  0  0  0
   26.7540  -20.9628  -16.4471 C   0  0  2  0  0  0  0  0  0  0  0  0
   27.8426  -21.9120  -16.3489 N   0  0  0  0  0  0  0  0  0  0  0  0
   25.9184  -20.9951  -15.2219 C   0  0  0  0  0  0  0  0  0  0  0  0
   26.0230  -21.8939  -14.3652 O   0  0  0  0  0  0  0  0  0  0  0  0
   24.9618  -19.9619  -15.0167 N   0  0  0  0  0  0  0  0  0  0  0  0
   24.1989  -19.8475  -13.8000 C   0  0  0  0  0  0  0  0  0  0  0  0
   22.9871  -20.6901  -13.8919 C   0  0  0  0  0  0  0  0  0  0  0  0
   22.6800  -21.1969  -14.9896 O   0  0  0  0  0  0  0  0  0  0  0  0
   22.1575  -20.9471  -12.7832 N   0  0  0  0  0  0  0  0  0  0  0  0
   21.0144  -21.8130  -12.9664 C   0  0  1  0  0  0  0  0  0  0  0  0
   20.6084  -22.2325  -11.5643 C   0  0  0  0  0  0  0  0  0  0  0  0
   19.4579  -23.1690  -11.5034 C   0  0  0  0  0  0  0  0  0  0  0  0
   19.0649  -23.6620  -10.1591 C   0  0  0  0  0  0  0  0  0  0  0  0
   17.9104  -24.6137  -10.2180 C   0  0  0  0  0  0  0  0  0  0  0  0
   17.4979  -25.1618   -8.9697 N   0  0  0  0  0  0  0  0  0  0  0  0
   19.8810  -21.0655  -13.5708 C   0  0  0  0  0  0  0  0  0  0  0  0
   19.7477  -19.8363  -13.3782 O   0  0  0  0  0  0  0  0  0  0  0  0
   18.9466  -21.7132  -14.3611 O   0  0  0  0  0  0  0  0  0  0  0  0
  2  4  1  0
  2  1  1  1
  3  2  1  0
  4  6  1  0
  4  5  1  1
  6  7  2  0
  8  6  1  0
  8  9  1  0
  9 10  1  0
 10 12  1  0
 10 11  2  0
 12 13  1  0
 13 19  1  0
 13 14  1  1
 14 15  1  0
 15 16  1  0
 16 17  1  0
 17 18  1  0
 19 21  1  0
 20 19  2  0
M  END
$$$$
