VGK.pdb
     RDKit          3D

 21 20  0  0  1  0  0  0  0  0999 V2000
   19.2641  -21.1265  -14.4937 C   0  0  0  0  0  0  0  0  0  0  0  0
   20.3230  -20.2141  -15.0505 C   0  0  2  0  0  0  0  0  0  0  0  0
   20.7415  -20.6090  -16.4458 C   0  0  0  0  0  0  0  0  0  0  0  0
   21.5077  -20.2628  -14.0791 C   0  0  2  0  0  0  0  0  0  0  0  0
   22.0533  -21.5999  -14.1799 N   0  0  0  0  0  0  0  0  0  0  0  0
   20.9623  -20.0202  -12.7211 C   0  0  0  0  0  0  0  0  0  0  0  0
   20.3921  -18.9569  -12.4101 O   0  0  0  0  0  0  0  0  0  0  0  0
   21.0949  -21.0392  -11.7367 N   0  0  0  0  0  0  0  0  0  0  0  0
   20.4539  -20.9559  -10.4492 C   0  0  0  0  0  0  0  0  0  0  0  0
   19.6725  -22.1869  -10.2022 C   0  0  0  0  0  0  0  0  0  0  0  0
   19.4230  -22.9510  -11.1562 O   0  0  0  0  0  0  0  0  0  0  0  0
   19.1939  -22.5367   -8.9247 N   0  0  0  0  0  0  0  0  0  0  0  0
   18.4684  -23.7786   -8.7791 C   0  0  1  0  0  0  0  0  0  0  0  0
   18.4996  -24.0816   -7.2911 C   0  0  0  0  0  0  0  0  0  0  0  0
   18.0003  -25.4297   -6.9199 C   0  0  0  0  0  0  0  0  0  0  0  0
   18.0257  -25.7804   -5.4773 C   0  0  0  0  0  0  0  0  0  0  0  0
   17.4352  -27.1302   -5.2102 C   0  0  0  0  0  0  0  0  0  0  0  0
   17.5301  -27.5904   -3.8655 N   0  0  0  0  0  0  0  0  0  0  0  0
   17.0491  -23.6084   -9.1857 C   0  0  0  0  0  0  0  0  0  0  0  0
   16.4632  -22.5140   -9.0274 O   0  0  0  0  0  0  0  0  0  0  0  0
   16.3430  -24.6577   -9.7490 O   0  0  0  0  0  0  0  0  0  0  0  0
  2  4  1  0
  2  1  1  1
  3  2  1  0
  4  6  1  0
  4  5  1  1
  6  7  2  0
  8  6  1  0
  8  9  1  0
  9 10  1  0
 10 12  1  0
 10 11  2  0
 12 13  1  0
 13 19  1  0
 13 14  1  1
 14 15  1  0
 15 16  1  0
 16 17  1  0
 17 18  1  0
 19 21  1  0
 20 19  2  0
M  END
$$$$
