VGK.pdb
     RDKit          3D

 21 20  0  0  1  0  0  0  0  0999 V2000
   28.2114  -20.4862   -8.2962 C   0  0  0  0  0  0  0  0  0  0  0  0
   26.9939  -19.6435   -8.0290 C   0  0  2  0  0  0  0  0  0  0  0  0
   26.6090  -19.6423   -6.5696 C   0  0  0  0  0  0  0  0  0  0  0  0
   25.8652  -20.2032   -8.9020 C   0  0  2  0  0  0  0  0  0  0  0  0
   25.8060  -21.6216   -8.6189 N   0  0  0  0  0  0  0  0  0  0  0  0
   26.2539  -19.9663  -10.3138 C   0  0  0  0  0  0  0  0  0  0  0  0
   25.9835  -18.9077  -10.9128 O   0  0  0  0  0  0  0  0  0  0  0  0
   26.9620  -20.9853  -11.0104 N   0  0  0  0  0  0  0  0  0  0  0  0
   26.3214  -22.1883  -11.4774 C   0  0  0  0  0  0  0  0  0  0  0  0
   25.5298  -21.8912  -12.6907 C   0  0  0  0  0  0  0  0  0  0  0  0
   25.8022  -22.4823  -13.7549 O   0  0  0  0  0  0  0  0  0  0  0  0
   24.4722  -20.9612  -12.6961 N   0  0  0  0  0  0  0  0  0  0  0  0
   23.5473  -20.9789  -13.8070 C   0  0  1  0  0  0  0  0  0  0  0  0
   22.1762  -20.7884  -13.1821 C   0  0  0  0  0  0  0  0  0  0  0  0
   21.5846  -22.0162  -12.5932 C   0  0  0  0  0  0  0  0  0  0  0  0
   20.4375  -21.8311  -11.6687 C   0  0  0  0  0  0  0  0  0  0  0  0
   19.8711  -23.1347  -11.1978 C   0  0  0  0  0  0  0  0  0  0  0  0
   18.7028  -23.0436  -10.3881 N   0  0  0  0  0  0  0  0  0  0  0  0
   23.8013  -19.8340  -14.7200 C   0  0  0  0  0  0  0  0  0  0  0  0
   23.8409  -18.6619  -14.2836 O   0  0  0  0  0  0  0  0  0  0  0  0
   23.9999  -20.0392  -16.0748 O   0  0  0  0  0  0  0  0  0  0  0  0
  2  4  1  0
  2  1  1  1
  3  2  1  0
  4  6  1  0
  4  5  1  6
  6  7  2  0
  8  6  1  0
  8  9  1  0
  9 10  1  0
 10 12  1  0
 10 11  2  0
 12 13  1  0
 13 19  1  0
 13 14  1  1
 14 15  1  0
 15 16  1  0
 16 17  1  0
 17 18  1  0
 19 21  1  0
 20 19  2  0
M  END
$$$$
