VGK.pdb
     RDKit          3D

 21 20  0  0  1  0  0  0  0  0999 V2000
   32.4425  -12.8618  -17.8731 C   0  0  0  0  0  0  0  0  0  0  0  0
   32.1261  -11.6889  -18.7609 C   0  0  2  0  0  0  0  0  0  0  0  0
   31.9403  -10.4127  -17.9770 C   0  0  0  0  0  0  0  0  0  0  0  0
   30.8584  -12.0519  -19.5425 C   0  0  2  0  0  0  0  0  0  0  0  0
   30.7053  -11.0282  -20.5545 N   0  0  0  0  0  0  0  0  0  0  0  0
   29.7310  -12.0096  -18.5794 C   0  0  0  0  0  0  0  0  0  0  0  0
   29.5665  -12.8814  -17.7044 O   0  0  0  0  0  0  0  0  0  0  0  0
   28.8027  -10.9340  -18.6571 N   0  0  0  0  0  0  0  0  0  0  0  0
   27.7223  -10.7780  -17.7167 C   0  0  0  0  0  0  0  0  0  0  0  0
   26.9815   -9.5328  -18.0127 C   0  0  0  0  0  0  0  0  0  0  0  0
   27.4918   -8.6877  -18.7752 O   0  0  0  0  0  0  0  0  0  0  0  0
   25.7132   -9.2579  -17.4655 N   0  0  0  0  0  0  0  0  0  0  0  0
   25.0348   -8.0494  -17.8768 C   0  0  1  0  0  0  0  0  0  0  0  0
   23.5663   -8.4289  -17.9567 C   0  0  0  0  0  0  0  0  0  0  0  0
   22.6714   -7.3530  -18.4523 C   0  0  0  0  0  0  0  0  0  0  0  0
   21.2175   -7.6526  -18.4866 C   0  0  0  0  0  0  0  0  0  0  0  0
   20.4367   -6.5979  -19.2077 C   0  0  0  0  0  0  0  0  0  0  0  0
   19.0292   -6.8067  -19.2709 N   0  0  0  0  0  0  0  0  0  0  0  0
   25.1817   -6.9882  -16.8468 C   0  0  0  0  0  0  0  0  0  0  0  0
   25.3285   -7.2821  -15.6393 O   0  0  0  0  0  0  0  0  0  0  0  0
   25.1594   -5.6498  -17.2007 O   0  0  0  0  0  0  0  0  0  0  0  0
  2  4  1  0
  2  1  1  1
  3  2  1  0
  4  6  1  0
  4  5  1  6
  6  7  2  0
  8  6  1  0
  8  9  1  0
  9 10  1  0
 10 12  1  0
 10 11  2  0
 12 13  1  0
 13 19  1  0
 13 14  1  1
 14 15  1  0
 15 16  1  0
 16 17  1  0
 17 18  1  0
 19 21  1  0
 20 19  2  0
M  END
$$$$
