VGK.pdb
     RDKit          3D

 21 20  0  0  1  0  0  0  0  0999 V2000
   28.0066  -19.4415  -13.1103 C   0  0  0  0  0  0  0  0  0  0  0  0
   27.7809  -20.2884  -11.8874 C   0  0  2  0  0  0  0  0  0  0  0  0
   29.0533  -20.9364  -11.3983 C   0  0  0  0  0  0  0  0  0  0  0  0
   26.7293  -21.3390  -12.2617 C   0  0  2  0  0  0  0  0  0  0  0  0
   26.8583  -21.5435  -13.6889 N   0  0  0  0  0  0  0  0  0  0  0  0
   25.4042  -20.7590  -11.9329 C   0  0  0  0  0  0  0  0  0  0  0  0
   24.9137  -20.8190  -10.7891 O   0  0  0  0  0  0  0  0  0  0  0  0
   24.6654  -20.1100  -12.9614 N   0  0  0  0  0  0  0  0  0  0  0  0
   23.4176  -19.4363  -12.7071 C   0  0  0  0  0  0  0  0  0  0  0  0
   22.3485  -20.0428  -13.5294 C   0  0  0  0  0  0  0  0  0  0  0  0
   22.2751  -19.7548  -14.7409 O   0  0  0  0  0  0  0  0  0  0  0  0
   21.4012  -20.9396  -12.9984 N   0  0  0  0  0  0  0  0  0  0  0  0
   20.3920  -21.4765  -13.8833 C   0  0  1  0  0  0  0  0  0  0  0  0
   20.0013  -22.8111  -13.2726 C   0  0  0  0  0  0  0  0  0  0  0  0
   18.9303  -23.5385  -13.9993 C   0  0  0  0  0  0  0  0  0  0  0  0
   18.5157  -24.8518  -13.4440 C   0  0  0  0  0  0  0  0  0  0  0  0
   17.4205  -25.4867  -14.2437 C   0  0  0  0  0  0  0  0  0  0  0  0
   16.8909  -26.6976  -13.7128 N   0  0  0  0  0  0  0  0  0  0  0  0
   19.1881  -20.6052  -13.8968 C   0  0  0  0  0  0  0  0  0  0  0  0
   18.8321  -19.9869  -12.8688 O   0  0  0  0  0  0  0  0  0  0  0  0
   18.4331  -20.4583  -15.0481 O   0  0  0  0  0  0  0  0  0  0  0  0
  2  4  1  0
  2  1  1  6
  3  2  1  0
  4  6  1  0
  4  5  1  6
  6  7  2  0
  8  6  1  0
  8  9  1  0
  9 10  1  0
 10 12  1  0
 10 11  2  0
 12 13  1  0
 13 19  1  0
 13 14  1  1
 14 15  1  0
 15 16  1  0
 16 17  1  0
 17 18  1  0
 19 21  1  0
 20 19  2  0
M  END
$$$$
