VGK.pdb
     RDKit          3D

 21 20  0  0  1  0  0  0  0  0999 V2000
   22.4247  -15.2432  -16.2215 C   0  0  0  0  0  0  0  0  0  0  0  0
   22.6106  -16.0724  -17.4631 C   0  0  2  0  0  0  0  0  0  0  0  0
   21.2954  -16.5168  -18.0555 C   0  0  0  0  0  0  0  0  0  0  0  0
   23.4784  -17.2733  -17.0703 C   0  0  2  0  0  0  0  0  0  0  0  0
   22.7191  -18.0096  -16.0818 N   0  0  0  0  0  0  0  0  0  0  0  0
   24.7239  -16.7294  -16.4759 C   0  0  0  0  0  0  0  0  0  0  0  0
   25.6193  -16.2042  -17.1651 O   0  0  0  0  0  0  0  0  0  0  0  0
   24.9033  -16.8100  -15.0666 N   0  0  0  0  0  0  0  0  0  0  0  0
   26.1211  -16.3938  -14.4190 C   0  0  0  0  0  0  0  0  0  0  0  0
   26.8473  -17.5798  -13.9161 C   0  0  0  0  0  0  0  0  0  0  0  0
   27.2535  -17.5898  -12.7367 O   0  0  0  0  0  0  0  0  0  0  0  0
   27.1020  -18.7086  -14.7189 N   0  0  0  0  0  0  0  0  0  0  0  0
   27.0176  -20.0174  -14.1107 C   0  0  1  0  0  0  0  0  0  0  0  0
   25.5579  -20.1794  -13.7236 C   0  0  0  0  0  0  0  0  0  0  0  0
   25.3309  -20.8419  -12.4145 C   0  0  0  0  0  0  0  0  0  0  0  0
   25.6040  -20.0352  -11.1982 C   0  0  0  0  0  0  0  0  0  0  0  0
   25.4105  -20.8220   -9.9391 C   0  0  0  0  0  0  0  0  0  0  0  0
   25.7427  -20.1449   -8.7308 N   0  0  0  0  0  0  0  0  0  0  0  0
   27.3538  -21.0773  -15.0968 C   0  0  0  0  0  0  0  0  0  0  0  0
   26.7867  -21.1196  -16.2115 O   0  0  0  0  0  0  0  0  0  0  0  0
   28.3027  -22.0421  -14.8037 O   0  0  0  0  0  0  0  0  0  0  0  0
  2  4  1  0
  2  1  1  1
  3  2  1  0
  4  6  1  0
  4  5  1  1
  6  7  2  0
  8  6  1  0
  8  9  1  0
  9 10  1  0
 10 12  1  0
 10 11  2  0
 12 13  1  0
 13 19  1  0
 13 14  1  6
 14 15  1  0
 15 16  1  0
 16 17  1  0
 17 18  1  0
 19 21  1  0
 20 19  2  0
M  END
$$$$
