VGK.pdb
     RDKit          3D

 21 20  0  0  1  0  0  0  0  0999 V2000
   27.4001  -18.2552   -6.5173 C   0  0  0  0  0  0  0  0  0  0  0  0
   27.4718  -19.2670   -5.4060 C   0  0  2  0  0  0  0  0  0  0  0  0
   28.4386  -18.8574   -4.3219 C   0  0  0  0  0  0  0  0  0  0  0  0
   27.8816  -20.5994   -6.0434 C   0  0  2  0  0  0  0  0  0  0  0  0
   29.2039  -20.3897   -6.5939 N   0  0  0  0  0  0  0  0  0  0  0  0
   26.9032  -20.8805   -7.1223 C   0  0  0  0  0  0  0  0  0  0  0  0
   25.7112  -21.1575   -6.8880 O   0  0  0  0  0  0  0  0  0  0  0  0
   27.3415  -20.8322   -8.4752 N   0  0  0  0  0  0  0  0  0  0  0  0
   26.6842  -21.5670   -9.5258 C   0  0  0  0  0  0  0  0  0  0  0  0
   25.5704  -20.7629  -10.0732 C   0  0  0  0  0  0  0  0  0  0  0  0
   25.0929  -19.8375   -9.3864 O   0  0  0  0  0  0  0  0  0  0  0  0
   25.0207  -20.9994  -11.3481 N   0  0  0  0  0  0  0  0  0  0  0  0
   23.9495  -20.1424  -11.8042 C   0  0  1  0  0  0  0  0  0  0  0  0
   23.8144  -20.4355  -13.2883 C   0  0  0  0  0  0  0  0  0  0  0  0
   23.8631  -19.2390  -14.1661 C   0  0  0  0  0  0  0  0  0  0  0  0
   24.6969  -19.3390  -15.3906 C   0  0  0  0  0  0  0  0  0  0  0  0
   24.6448  -18.0915  -16.2171 C   0  0  0  0  0  0  0  0  0  0  0  0
   25.4723  -18.0841  -17.3763 N   0  0  0  0  0  0  0  0  0  0  0  0
   22.6688  -20.5058  -11.1437 C   0  0  0  0  0  0  0  0  0  0  0  0
   22.5135  -21.6322  -10.6211 O   0  0  0  0  0  0  0  0  0  0  0  0
   21.6182  -19.6054  -11.0918 O   0  0  0  0  0  0  0  0  0  0  0  0
  2  4  1  0
  2  1  1  6
  3  2  1  0
  4  6  1  0
  4  5  1  6
  6  7  2  0
  8  6  1  0
  8  9  1  0
  9 10  1  0
 10 12  1  0
 10 11  2  0
 12 13  1  0
 13 19  1  0
 13 14  1  6
 14 15  1  0
 15 16  1  0
 16 17  1  0
 17 18  1  0
 19 21  1  0
 20 19  2  0
M  END
$$$$
