VGK.pdb
     RDKit          3D

 21 20  0  0  1  0  0  0  0  0999 V2000
   16.4642  -22.1607    3.0986 C   0  0  0  0  0  0  0  0  0  0  0  0
   16.8343  -20.8270    3.6885 C   0  0  2  0  0  0  0  0  0  0  0  0
   17.3527  -20.9508    5.1005 C   0  0  0  0  0  0  0  0  0  0  0  0
   15.5775  -19.9512    3.6315 C   0  0  2  0  0  0  0  0  0  0  0  0
   15.2098  -19.8694    2.2338 N   0  0  0  0  0  0  0  0  0  0  0  0
   15.9586  -18.6156    4.1523 C   0  0  0  0  0  0  0  0  0  0  0  0
   16.3015  -17.6797    3.4046 O   0  0  0  0  0  0  0  0  0  0  0  0
   15.9316  -18.3943    5.5577 N   0  0  0  0  0  0  0  0  0  0  0  0
   16.0947  -17.0846    6.1356 C   0  0  0  0  0  0  0  0  0  0  0  0
   17.3937  -17.0096    6.8383 C   0  0  0  0  0  0  0  0  0  0  0  0
   18.1486  -18.0027    6.8297 O   0  0  0  0  0  0  0  0  0  0  0  0
   17.8188  -15.8547    7.5231 N   0  0  0  0  0  0  0  0  0  0  0  0
   19.0590  -15.9123    8.2638 C   0  0  1  0  0  0  0  0  0  0  0  0
   19.3217  -14.4831    8.7054 C   0  0  0  0  0  0  0  0  0  0  0  0
   20.0699  -13.6563    7.7252 C   0  0  0  0  0  0  0  0  0  0  0  0
   20.2919  -12.2318    8.0804 C   0  0  0  0  0  0  0  0  0  0  0  0
   21.0140  -11.4834    7.0031 C   0  0  0  0  0  0  0  0  0  0  0  0
   21.2246  -10.0964    7.2498 N   0  0  0  0  0  0  0  0  0  0  0  0
   18.9049  -16.7506    9.4813 C   0  0  0  0  0  0  0  0  0  0  0  0
   19.9037  -17.1058   10.1462 O   0  0  0  0  0  0  0  0  0  0  0  0
   17.6519  -17.1573    9.9072 O   0  0  0  0  0  0  0  0  0  0  0  0
  2  4  1  0
  2  1  1  1
  3  2  1  0
  4  6  1  0
  4  5  1  6
  6  7  2  0
  8  6  1  0
  8  9  1  0
  9 10  1  0
 10 12  1  0
 10 11  2  0
 12 13  1  0
 13 19  1  0
 13 14  1  1
 14 15  1  0
 15 16  1  0
 16 17  1  0
 17 18  1  0
 19 21  1  0
 20 19  2  0
M  END
$$$$
