VGK.pdb
     RDKit          3D

 21 20  0  0  1  0  0  0  0  0999 V2000
   30.1382  -20.3697   -5.2546 C   0  0  0  0  0  0  0  0  0  0  0  0
   28.8060  -19.7877   -4.8667 C   0  0  2  0  0  0  0  0  0  0  0  0
   27.8011  -20.8534   -4.5028 C   0  0  0  0  0  0  0  0  0  0  0  0
   28.3233  -18.9500   -6.0561 C   0  0  2  0  0  0  0  0  0  0  0  0
   27.0938  -18.3174   -5.6273 N   0  0  0  0  0  0  0  0  0  0  0  0
   28.0661  -19.8931   -7.1718 C   0  0  0  0  0  0  0  0  0  0  0  0
   28.9147  -20.7203   -7.5567 O   0  0  0  0  0  0  0  0  0  0  0  0
   26.8037  -19.8521   -7.8271 N   0  0  0  0  0  0  0  0  0  0  0  0
   26.4568  -20.7601   -8.8906 C   0  0  0  0  0  0  0  0  0  0  0  0
   25.1406  -20.3878   -9.4527 C   0  0  0  0  0  0  0  0  0  0  0  0
   24.2233  -20.0460   -8.6795 O   0  0  0  0  0  0  0  0  0  0  0  0
   24.8762  -20.4027  -10.8359 N   0  0  0  0  0  0  0  0  0  0  0  0
   23.5677  -19.9883  -11.2899 C   0  0  1  0  0  0  0  0  0  0  0  0
   23.7341  -19.7120  -12.7740 C   0  0  0  0  0  0  0  0  0  0  0  0
   22.5203  -19.1881  -13.4496 C   0  0  0  0  0  0  0  0  0  0  0  0
   22.5582  -19.1110  -14.9319 C   0  0  0  0  0  0  0  0  0  0  0  0
   21.3045  -18.5242  -15.5027 C   0  0  0  0  0  0  0  0  0  0  0  0
   21.2717  -18.3989  -16.9212 N   0  0  0  0  0  0  0  0  0  0  0  0
   22.5839  -21.0912  -11.1333 C   0  0  0  0  0  0  0  0  0  0  0  0
   21.3923  -20.8506  -10.8365 O   0  0  0  0  0  0  0  0  0  0  0  0
   22.9644  -22.4103  -11.3125 O   0  0  0  0  0  0  0  0  0  0  0  0
  2  4  1  0
  2  1  1  6
  3  2  1  0
  4  6  1  0
  4  5  1  1
  6  7  2  0
  8  6  1  0
  8  9  1  0
  9 10  1  0
 10 12  1  0
 10 11  2  0
 12 13  1  0
 13 19  1  0
 13 14  1  6
 14 15  1  0
 15 16  1  0
 16 17  1  0
 17 18  1  0
 19 21  1  0
 20 19  2  0
M  END
$$$$
