VGK.pdb
     RDKit          3D

 21 20  0  0  1  0  0  0  0  0999 V2000
   19.7648  -18.5261  -12.2154 C   0  0  0  0  0  0  0  0  0  0  0  0
   20.2586  -19.4866  -13.2630 C   0  0  2  0  0  0  0  0  0  0  0  0
   19.4246  -20.7430  -13.3248 C   0  0  0  0  0  0  0  0  0  0  0  0
   21.7190  -19.8040  -12.9224 C   0  0  2  0  0  0  0  0  0  0  0  0
   22.2812  -20.4198  -14.1058 N   0  0  0  0  0  0  0  0  0  0  0  0
   21.6995  -20.7634  -11.7912 C   0  0  0  0  0  0  0  0  0  0  0  0
   21.6339  -21.9959  -11.9615 O   0  0  0  0  0  0  0  0  0  0  0  0
   21.7579  -20.2580  -10.4623 N   0  0  0  0  0  0  0  0  0  0  0  0
   21.8904  -21.1190   -9.3148 C   0  0  0  0  0  0  0  0  0  0  0  0
   20.5494  -21.5003   -8.8217 C   0  0  0  0  0  0  0  0  0  0  0  0
   19.6115  -20.6831   -8.9154 O   0  0  0  0  0  0  0  0  0  0  0  0
   20.2835  -22.7577   -8.2458 N   0  0  0  0  0  0  0  0  0  0  0  0
   18.9176  -23.0790   -7.8976 C   0  0  1  0  0  0  0  0  0  0  0  0
   18.5499  -24.2544   -8.7864 C   0  0  0  0  0  0  0  0  0  0  0  0
   18.4614  -23.9365  -10.2339 C   0  0  0  0  0  0  0  0  0  0  0  0
   18.1324  -25.0593  -11.1482 C   0  0  0  0  0  0  0  0  0  0  0  0
   18.1232  -24.6380  -12.5850 C   0  0  0  0  0  0  0  0  0  0  0  0
   17.7810  -25.6532  -13.5238 N   0  0  0  0  0  0  0  0  0  0  0  0
   18.8273  -23.5243   -6.4826 C   0  0  0  0  0  0  0  0  0  0  0  0
   19.8607  -23.7369   -5.8098 O   0  0  0  0  0  0  0  0  0  0  0  0
   17.5967  -23.7140   -5.8771 O   0  0  0  0  0  0  0  0  0  0  0  0
  2  4  1  0
  2  1  1  1
  3  2  1  0
  4  6  1  0
  4  5  1  6
  6  7  2  0
  8  6  1  0
  8  9  1  0
  9 10  1  0
 10 12  1  0
 10 11  2  0
 12 13  1  0
 13 19  1  0
 13 14  1  6
 14 15  1  0
 15 16  1  0
 16 17  1  0
 17 18  1  0
 19 21  1  0
 20 19  2  0
M  END
$$$$
