DCL.pdb
     RDKit          3D

 23 22  0  0  1  0  0  0  0  0999 V2000
   17.9985  -10.1817  -16.6093 N   0  0  0  0  0  0  0  0  0  0  0  0
   18.5382   -8.9109  -17.1673 C   0  0  1  0  0  0  0  0  0  0  0  0
   17.3462   -8.0696  -17.4784 C   0  0  0  0  0  0  0  0  0  0  0  0
   16.7778   -8.3861  -18.7770 C   0  0  0  0  0  0  0  0  0  0  0  0
   17.4810   -8.7600  -19.7309 O   0  0  0  0  0  0  0  0  0  0  0  0
   19.3347   -8.3090  -16.0387 C   0  0  0  0  0  0  0  0  0  0  0  0
   18.7886   -8.0689  -14.9519 O   0  0  0  0  0  0  0  0  0  0  0  0
   15.4036   -8.2871  -19.0262 O   0  0  0  0  0  0  0  0  0  0  0  0
   20.7189   -8.0000  -16.1786 N   0  0  0  0  0  0  0  0  0  0  0  0
   21.5247   -7.4636  -15.1018 C   0  0  1  0  0  0  0  0  0  0  0  0
   22.9252   -8.0414  -15.1049 C   0  0  0  0  0  0  0  0  0  0  0  0
   22.8092   -9.7472  -14.5299 S   0  0  0  0  0  0  0  0  0  0  0  0
   21.6904   -5.9929  -15.3963 C   0  0  0  0  0  0  0  0  0  0  0  0
   22.2885   -5.2915  -14.5283 O   0  0  0  0  0  0  0  0  0  0  0  0
   19.5035   -3.4641  -19.3271 C   0  0  0  0  0  0  0  0  0  0  0  0
   20.8554   -4.0619  -19.2778 C   0  0  1  0  0  0  0  0  0  0  0  0
   21.5699   -3.9222  -20.6394 C   0  0  0  0  0  0  0  0  0  0  0  0
   21.7733   -3.7194  -18.1943 C   0  0  0  0  0  0  0  0  0  0  0  0
   21.4446   -3.9418  -16.7708 C   0  0  2  0  0  0  0  0  0  0  0  0
   21.2238   -5.3951  -16.5535 N   0  0  0  0  0  0  0  0  0  0  0  0
   20.2158   -3.3068  -16.2753 C   0  0  0  0  0  0  0  0  0  0  0  0
   19.0800   -3.9875  -15.8530 O   0  0  0  0  0  0  0  0  0  0  0  0
   20.1650   -2.0237  -16.2263 O   0  0  0  0  0  0  0  0  0  0  0  0
  2  1  1  1
  2  3  1  0
  3  4  1  0
  4  8  1  0
  5  4  2  0
  6  2  1  0
  7  6  2  0
  9  6  1  0
 10 13  1  0
 10  9  1  0
 10 11  1  6
 12 11  1  0
 13 20  1  0
 14 13  2  0
 16 15  1  6
 16 17  1  0
 18 16  1  0
 19 18  1  6
 20 19  1  0
 21 19  1  0
 21 22  1  0
 23 21  2  0
M  END
$$$$
