DCL.pdb
     RDKit          3D

 23 22  0  0  1  0  0  0  0  0999 V2000
   18.2822  -11.6847  -16.8293 N   0  0  0  0  0  0  0  0  0  0  0  0
   19.1110  -10.6346  -17.4835 C   0  0  1  0  0  0  0  0  0  0  0  0
   18.1427   -9.6387  -18.0279 C   0  0  0  0  0  0  0  0  0  0  0  0
   17.4885  -10.1155  -19.2339 C   0  0  0  0  0  0  0  0  0  0  0  0
   18.0606  -10.8677  -20.0407 O   0  0  0  0  0  0  0  0  0  0  0  0
   19.9177  -10.0342  -16.3615 C   0  0  0  0  0  0  0  0  0  0  0  0
   19.3915   -9.8313  -15.2574 O   0  0  0  0  0  0  0  0  0  0  0  0
   16.1747   -9.7529  -19.5546 O   0  0  0  0  0  0  0  0  0  0  0  0
   21.2894   -9.6846  -16.5271 N   0  0  0  0  0  0  0  0  0  0  0  0
   22.1058   -9.1478  -15.4585 C   0  0  1  0  0  0  0  0  0  0  0  0
   23.5792   -9.4184  -15.6854 C   0  0  0  0  0  0  0  0  0  0  0  0
   23.9548  -11.0235  -14.9531 S   0  0  0  0  0  0  0  0  0  0  0  0
   21.9519   -7.6483  -15.5277 C   0  0  0  0  0  0  0  0  0  0  0  0
   22.0783   -7.1043  -16.6640 O   0  0  0  0  0  0  0  0  0  0  0  0
   17.6362   -5.0567  -15.2901 C   0  0  0  0  0  0  0  0  0  0  0  0
   19.0826   -5.2500  -15.5313 C   0  0  1  0  0  0  0  0  0  0  0  0
   19.5514   -4.4325  -16.7544 C   0  0  0  0  0  0  0  0  0  0  0  0
   20.0382   -5.1035  -14.4363 C   0  0  0  0  0  0  0  0  0  0  0  0
   21.4777   -5.4008  -14.5894 C   0  0  2  0  0  0  0  0  0  0  0  0
   21.6836   -6.8627  -14.4210 N   0  0  0  0  0  0  0  0  0  0  0  0
   22.3813   -4.7881  -13.6062 C   0  0  0  0  0  0  0  0  0  0  0  0
   23.0171   -5.4681  -12.5741 O   0  0  0  0  0  0  0  0  0  0  0  0
   22.6099   -3.5261  -13.6858 O   0  0  0  0  0  0  0  0  0  0  0  0
  2  1  1  1
  2  3  1  0
  3  4  1  0
  4  8  1  0
  5  4  2  0
  6  2  1  0
  7  6  2  0
  9  6  1  0
 10 13  1  0
 10  9  1  0
 10 11  1  6
 12 11  1  0
 13 20  1  0
 14 13  2  0
 16 15  1  1
 16 17  1  0
 18 16  1  0
 19 18  1  1
 20 19  1  0
 21 19  1  0
 21 22  1  0
 23 21  2  0
M  END
$$$$
