DCL.pdb
     RDKit          3D

 23 22  0  0  1  0  0  0  0  0999 V2000
   19.1045  -11.7547  -18.3881 N   0  0  0  0  0  0  0  0  0  0  0  0
   20.1091  -11.3925  -17.3502 C   0  0  1  0  0  0  0  0  0  0  0  0
   21.3994  -11.2253  -18.0801 C   0  0  0  0  0  0  0  0  0  0  0  0
   21.9746  -12.5001  -18.4723 C   0  0  0  0  0  0  0  0  0  0  0  0
   22.1995  -13.4030  -17.6489 O   0  0  0  0  0  0  0  0  0  0  0  0
   19.6313  -10.0719  -16.8043 C   0  0  0  0  0  0  0  0  0  0  0  0
   19.1753   -9.2110  -17.5711 O   0  0  0  0  0  0  0  0  0  0  0  0
   22.3081  -12.7822  -19.8025 O   0  0  0  0  0  0  0  0  0  0  0  0
   19.6860   -9.7715  -15.4121 N   0  0  0  0  0  0  0  0  0  0  0  0
   19.2204   -8.5202  -14.8518 C   0  0  1  0  0  0  0  0  0  0  0  0
   18.6337   -8.7070  -13.4675 C   0  0  0  0  0  0  0  0  0  0  0  0
   17.1842   -9.7679  -13.6315 S   0  0  0  0  0  0  0  0  0  0  0  0
   20.4488   -7.6647  -14.6614 C   0  0  0  0  0  0  0  0  0  0  0  0
   21.4260   -8.1824  -14.0448 O   0  0  0  0  0  0  0  0  0  0  0  0
   24.9280   -5.1917  -16.1173 C   0  0  0  0  0  0  0  0  0  0  0  0
   23.6259   -4.7482  -16.6608 C   0  0  1  0  0  0  0  0  0  0  0  0
   23.7322   -4.4505  -18.1721 C   0  0  0  0  0  0  0  0  0  0  0  0
   22.4134   -5.5151  -16.3866 C   0  0  0  0  0  0  0  0  0  0  0  0
   21.8420   -5.6448  -15.0299 C   0  0  2  0  0  0  0  0  0  0  0  0
   20.5456   -6.3648  -15.1249 N   0  0  0  0  0  0  0  0  0  0  0  0
   21.5153   -4.3927  -14.3342 C   0  0  0  0  0  0  0  0  0  0  0  0
   20.2405   -3.8498  -14.2244 O   0  0  0  0  0  0  0  0  0  0  0  0
   22.4685   -3.7302  -13.7832 O   0  0  0  0  0  0  0  0  0  0  0  0
  2  1  1  6
  2  3  1  0
  3  4  1  0
  4  8  1  0
  5  4  2  0
  6  2  1  0
  7  6  2  0
  9  6  1  0
 10 13  1  0
 10  9  1  0
 10 11  1  1
 12 11  1  0
 13 20  1  0
 14 13  2  0
 16 15  1  6
 16 17  1  0
 18 16  1  0
 19 18  1  6
 20 19  1  0
 21 19  1  0
 21 22  1  0
 23 21  2  0
M  END
$$$$
