DCL.pdb
     RDKit          3D

 23 22  0  0  1  0  0  0  0  0999 V2000
   20.8945  -11.9981  -17.9015 N   0  0  0  0  0  0  0  0  0  0  0  0
   21.5681  -10.6717  -17.8347 C   0  0  1  0  0  0  0  0  0  0  0  0
   21.6193  -10.1751  -19.2405 C   0  0  0  0  0  0  0  0  0  0  0  0
   22.6379  -10.8534  -20.0229 C   0  0  0  0  0  0  0  0  0  0  0  0
   22.3496  -11.6185  -20.9586 O   0  0  0  0  0  0  0  0  0  0  0  0
   20.6458   -9.8192  -17.0023 C   0  0  0  0  0  0  0  0  0  0  0  0
   19.4193   -9.8834  -17.1710 O   0  0  0  0  0  0  0  0  0  0  0  0
   24.0034  -10.6824  -19.7653 O   0  0  0  0  0  0  0  0  0  0  0  0
   21.1423   -8.9251  -16.0096 N   0  0  0  0  0  0  0  0  0  0  0  0
   20.2866   -8.0761  -15.2074 C   0  0  1  0  0  0  0  0  0  0  0  0
   20.7654   -7.9891  -13.7726 C   0  0  0  0  0  0  0  0  0  0  0  0
   19.3228   -7.6690  -12.7381 S   0  0  0  0  0  0  0  0  0  0  0  0
   20.4327   -6.6838  -15.7705 C   0  0  0  0  0  0  0  0  0  0  0  0
   21.6055   -6.2154  -15.8618 O   0  0  0  0  0  0  0  0  0  0  0  0
   18.0387   -4.7134  -20.2553 C   0  0  0  0  0  0  0  0  0  0  0  0
   19.0044   -4.8735  -19.1466 C   0  0  1  0  0  0  0  0  0  0  0  0
   20.4326   -4.5031  -19.6019 C   0  0  0  0  0  0  0  0  0  0  0  0
   18.7286   -4.2849  -17.8385 C   0  0  0  0  0  0  0  0  0  0  0  0
   19.5847   -4.5277  -16.6587 C   0  0  2  0  0  0  0  0  0  0  0  0
   19.3574   -5.9166  -16.1818 N   0  0  0  0  0  0  0  0  0  0  0  0
   19.3284   -3.6893  -15.4796 C   0  0  0  0  0  0  0  0  0  0  0  0
   18.7774   -4.1385  -14.2853 O   0  0  0  0  0  0  0  0  0  0  0  0
   19.6241   -2.4402  -15.5391 O   0  0  0  0  0  0  0  0  0  0  0  0
  2  1  1  6
  2  3  1  0
  3  4  1  0
  4  8  1  0
  5  4  2  0
  6  2  1  0
  7  6  2  0
  9  6  1  0
 10 13  1  0
 10  9  1  0
 10 11  1  1
 12 11  1  0
 13 20  1  0
 14 13  2  0
 16 15  1  6
 16 17  1  0
 18 16  1  0
 19 18  1  6
 20 19  1  0
 21 19  1  0
 21 22  1  0
 23 21  2  0
M  END
$$$$
