DCL.pdb
     RDKit          3D

 23 22  0  0  1  0  0  0  0  0999 V2000
   31.9476  -34.1083  -16.6703 N   0  0  0  0  0  0  0  0  0  0  0  0
   32.0121  -32.6545  -16.9863 C   0  0  1  0  0  0  0  0  0  0  0  0
   32.9124  -32.5395  -18.1703 C   0  0  0  0  0  0  0  0  0  0  0  0
   34.3049  -32.7612  -17.8215 C   0  0  0  0  0  0  0  0  0  0  0  0
   34.9792  -33.6652  -18.3431 O   0  0  0  0  0  0  0  0  0  0  0  0
   30.5989  -32.2832  -17.3542 C   0  0  0  0  0  0  0  0  0  0  0  0
   29.9016  -33.0686  -18.0129 O   0  0  0  0  0  0  0  0  0  0  0  0
   34.9654  -31.9670  -16.8764 O   0  0  0  0  0  0  0  0  0  0  0  0
   30.0246  -31.0383  -16.9648 N   0  0  0  0  0  0  0  0  0  0  0  0
   28.6541  -30.6718  -17.2544 C   0  0  1  0  0  0  0  0  0  0  0  0
   27.6772  -31.3722  -16.3322 C   0  0  0  0  0  0  0  0  0  0  0  0
   28.2784  -31.1617  -14.6446 S   0  0  0  0  0  0  0  0  0  0  0  0
   28.5371  -29.2024  -16.9313 C   0  0  0  0  0  0  0  0  0  0  0  0
   29.2231  -28.7658  -15.9608 O   0  0  0  0  0  0  0  0  0  0  0  0
   28.0127  -25.2335  -20.7731 C   0  0  0  0  0  0  0  0  0  0  0  0
   28.3468  -26.0158  -19.5632 C   0  0  1  0  0  0  0  0  0  0  0  0
   29.7541  -25.6516  -19.0427 C   0  0  0  0  0  0  0  0  0  0  0  0
   27.4050  -26.0876  -18.4490 C   0  0  0  0  0  0  0  0  0  0  0  0
   27.6579  -26.9032  -17.2428 C   0  0  2  0  0  0  0  0  0  0  0  0
   27.7264  -28.3335  -17.6397 N   0  0  0  0  0  0  0  0  0  0  0  0
   26.6273  -26.8625  -16.1965 C   0  0  0  0  0  0  0  0  0  0  0  0
   26.4190  -25.8025  -15.3221 O   0  0  0  0  0  0  0  0  0  0  0  0
   25.8521  -27.8782  -16.0591 O   0  0  0  0  0  0  0  0  0  0  0  0
  2  1  1  6
  2  3  1  0
  3  4  1  0
  4  8  1  0
  5  4  2  0
  6  2  1  0
  7  6  2  0
  9  6  1  0
 10 13  1  0
 10  9  1  0
 10 11  1  1
 12 11  1  0
 13 20  1  0
 14 13  2  0
 16 15  1  6
 16 17  1  0
 18 16  1  0
 19 18  1  6
 20 19  1  0
 21 19  1  0
 21 22  1  0
 23 21  2  0
M  END
$$$$
