DCL.pdb
     RDKit          3D

 23 22  0  0  1  0  0  0  0  0999 V2000
   25.4358  -20.4712  -20.3501 N   0  0  0  0  0  0  0  0  0  0  0  0
   24.4559  -20.3926  -19.2316 C   0  0  1  0  0  0  0  0  0  0  0  0
   23.6984  -21.6772  -19.2691 C   0  0  0  0  0  0  0  0  0  0  0  0
   22.5966  -21.6345  -20.2145 C   0  0  0  0  0  0  0  0  0  0  0  0
   21.9094  -20.6126  -20.3801 O   0  0  0  0  0  0  0  0  0  0  0  0
   25.3042  -20.3109  -17.9890 C   0  0  0  0  0  0  0  0  0  0  0  0
   26.2403  -21.1065  -17.8224 O   0  0  0  0  0  0  0  0  0  0  0  0
   22.2472  -22.7447  -20.9928 O   0  0  0  0  0  0  0  0  0  0  0  0
   25.0644  -19.3337  -16.9796 N   0  0  0  0  0  0  0  0  0  0  0  0
   25.8761  -19.2094  -15.7870 C   0  0  1  0  0  0  0  0  0  0  0  0
   25.9405  -17.7774  -15.2965 C   0  0  0  0  0  0  0  0  0  0  0  0
   27.0407  -17.7427  -13.8675 S   0  0  0  0  0  0  0  0  0  0  0  0
   25.1534  -19.9774  -14.7076 C   0  0  0  0  0  0  0  0  0  0  0  0
   23.8932  -19.8643  -14.6603 O   0  0  0  0  0  0  0  0  0  0  0  0
   26.5439  -21.1036   -8.9099 C   0  0  0  0  0  0  0  0  0  0  0  0
   25.5937  -21.3060  -10.0252 C   0  0  1  0  0  0  0  0  0  0  0  0
   24.2394  -20.6279   -9.7252 C   0  0  0  0  0  0  0  0  0  0  0  0
   26.0001  -21.0241  -11.3996 C   0  0  0  0  0  0  0  0  0  0  0  0
   25.0928  -21.2048  -12.5521 C   0  0  2  0  0  0  0  0  0  0  0  0
   25.8015  -20.7827  -13.7881 N   0  0  0  0  0  0  0  0  0  0  0  0
   23.8595  -20.4063  -12.5464 C   0  0  0  0  0  0  0  0  0  0  0  0
   23.8054  -19.0206  -12.6400 O   0  0  0  0  0  0  0  0  0  0  0  0
   22.7337  -21.0169  -12.4416 O   0  0  0  0  0  0  0  0  0  0  0  0
  2  1  1  6
  2  3  1  0
  3  4  1  0
  4  8  1  0
  5  4  2  0
  6  2  1  0
  7  6  2  0
  9  6  1  0
 10 13  1  0
 10  9  1  0
 10 11  1  1
 12 11  1  0
 13 20  1  0
 14 13  2  0
 16 15  1  1
 16 17  1  0
 18 16  1  0
 19 18  1  1
 20 19  1  0
 21 19  1  0
 21 22  1  0
 23 21  2  0
M  END
$$$$
