DCL.pdb
     RDKit          3D

 23 22  0  0  1  0  0  0  0  0999 V2000
   28.5129  -22.4809  -18.1270 N   0  0  0  0  0  0  0  0  0  0  0  0
   28.9154  -22.9887  -16.7862 C   0  0  1  0  0  0  0  0  0  0  0  0
   30.3989  -23.1362  -16.8404 C   0  0  0  0  0  0  0  0  0  0  0  0
   30.8011  -24.4052  -17.4216 C   0  0  0  0  0  0  0  0  0  0  0  0
   29.9735  -25.2167  -17.8697 O   0  0  0  0  0  0  0  0  0  0  0  0
   28.5242  -21.8907  -15.8315 C   0  0  0  0  0  0  0  0  0  0  0  0
   29.3956  -21.2857  -15.1898 O   0  0  0  0  0  0  0  0  0  0  0  0
   32.1458  -24.7849  -17.5090 O   0  0  0  0  0  0  0  0  0  0  0  0
   27.1631  -21.5158  -15.6360 N   0  0  0  0  0  0  0  0  0  0  0  0
   26.7619  -20.3625  -14.8580 C   0  0  1  0  0  0  0  0  0  0  0  0
   25.6280  -19.6049  -15.5181 C   0  0  0  0  0  0  0  0  0  0  0  0
   26.3475  -18.5627  -16.8026 S   0  0  0  0  0  0  0  0  0  0  0  0
   26.1936  -20.9045  -13.5694 C   0  0  0  0  0  0  0  0  0  0  0  0
   25.5501  -21.9931  -13.6322 O   0  0  0  0  0  0  0  0  0  0  0  0
   26.0239  -21.7516   -7.9361 C   0  0  0  0  0  0  0  0  0  0  0  0
   25.8142  -20.4412   -8.5891 C   0  0  1  0  0  0  0  0  0  0  0  0
   26.2426  -19.2865   -7.6578 C   0  0  0  0  0  0  0  0  0  0  0  0
   26.3129  -20.2037   -9.9413 C   0  0  0  0  0  0  0  0  0  0  0  0
   25.7382  -20.8664  -11.1306 C   0  0  2  0  0  0  0  0  0  0  0  0
   26.3458  -20.2710  -12.3490 N   0  0  0  0  0  0  0  0  0  0  0  0
   24.2908  -20.7128  -11.3309 C   0  0  0  0  0  0  0  0  0  0  0  0
   23.6917  -19.7159  -12.0919 O   0  0  0  0  0  0  0  0  0  0  0  0
   23.5003  -21.5511  -10.7621 O   0  0  0  0  0  0  0  0  0  0  0  0
  2  1  1  6
  2  3  1  0
  3  4  1  0
  4  8  1  0
  5  4  2  0
  6  2  1  0
  7  6  2  0
  9  6  1  0
 10 13  1  0
 10  9  1  0
 10 11  1  6
 12 11  1  0
 13 20  1  0
 14 13  2  0
 16 15  1  1
 16 17  1  0
 18 16  1  0
 19 18  1  1
 20 19  1  0
 21 19  1  0
 21 22  1  0
 23 21  2  0
M  END
$$$$
