DCL.pdb
     RDKit          3D

 23 22  0  0  1  0  0  0  0  0999 V2000
   17.8228  -14.6947  -18.6457 N   0  0  0  0  0  0  0  0  0  0  0  0
   17.5435  -14.0564  -17.3297 C   0  0  1  0  0  0  0  0  0  0  0  0
   18.4383  -14.7413  -16.3521 C   0  0  0  0  0  0  0  0  0  0  0  0
   17.9220  -16.0397  -15.9553 C   0  0  0  0  0  0  0  0  0  0  0  0
   16.7579  -16.3919  -16.2098 O   0  0  0  0  0  0  0  0  0  0  0  0
   17.9546  -12.6182  -17.5106 C   0  0  0  0  0  0  0  0  0  0  0  0
   18.9017  -12.3320  -18.2578 O   0  0  0  0  0  0  0  0  0  0  0  0
   18.7091  -16.9677  -15.2628 O   0  0  0  0  0  0  0  0  0  0  0  0
   17.2814  -11.5553  -16.8410 N   0  0  0  0  0  0  0  0  0  0  0  0
   17.5984  -10.1583  -17.0515 C   0  0  1  0  0  0  0  0  0  0  0  0
   16.3881   -9.2696  -16.8488 C   0  0  0  0  0  0  0  0  0  0  0  0
   16.9395   -7.5591  -17.0031 S   0  0  0  0  0  0  0  0  0  0  0  0
   18.5684   -9.7805  -15.9590 C   0  0  0  0  0  0  0  0  0  0  0  0
   18.3331  -10.2230  -14.7963 O   0  0  0  0  0  0  0  0  0  0  0  0
   22.4708  -10.2019  -12.8757 C   0  0  0  0  0  0  0  0  0  0  0  0
   22.8511   -9.7223  -14.2222 C   0  0  1  0  0  0  0  0  0  0  0  0
   24.0419  -10.5317  -14.7796 C   0  0  0  0  0  0  0  0  0  0  0  0
   21.8350   -9.5511  -15.2574 C   0  0  0  0  0  0  0  0  0  0  0  0
   20.6256   -8.7253  -15.0585 C   0  0  2  0  0  0  0  0  0  0  0  0
   19.6805   -8.9865  -16.1750 N   0  0  0  0  0  0  0  0  0  0  0  0
   20.8171   -7.2687  -15.0741 C   0  0  0  0  0  0  0  0  0  0  0  0
   21.0482   -6.4820  -13.9518 O   0  0  0  0  0  0  0  0  0  0  0  0
   20.7644   -6.6550  -16.2018 O   0  0  0  0  0  0  0  0  0  0  0  0
  2  1  1  6
  2  3  1  0
  3  4  1  0
  4  8  1  0
  5  4  2  0
  6  2  1  0
  7  6  2  0
  9  6  1  0
 10 13  1  0
 10  9  1  0
 10 11  1  1
 12 11  1  0
 13 20  1  0
 14 13  2  0
 16 15  1  1
 16 17  1  0
 18 16  1  0
 19 18  1  6
 20 19  1  0
 21 19  1  0
 21 22  1  0
 23 21  2  0
M  END
$$$$
