TVY.pdb
     RDKit          3D

 27 27  0  0  1  0  0  0  0  0999 V2000
    9.7199  -20.3752   17.7608 C   0  0  0  0  0  0  0  0  0  0  0  0
   10.0701  -19.4112   18.8952 C   0  0  1  0  0  0  0  0  0  0  0  0
   11.4614  -19.3127   18.8981 O   0  0  0  0  0  0  0  0  0  0  0  0
    9.5227  -18.0424   18.5940 C   0  0  2  0  0  0  0  0  0  0  0  0
   10.2095  -17.5180   17.4294 N   0  0  0  0  0  0  0  0  0  0  0  0
    9.6573  -17.1123   19.7432 C   0  0  0  0  0  0  0  0  0  0  0  0
   10.7695  -16.5877   20.0068 O   0  0  0  0  0  0  0  0  0  0  0  0
    7.6707  -14.6286   23.5959 C   0  0  0  0  0  0  0  0  0  0  0  0
    7.4925  -15.2980   22.2387 C   0  0  1  0  0  0  0  0  0  0  0  0
    7.0173  -14.3301   21.2088 C   0  0  0  0  0  0  0  0  0  0  0  0
    8.7461  -16.0432   21.8335 C   0  0  2  0  0  0  0  0  0  0  0  0
    8.5715  -16.7645   20.5946 N   0  0  0  0  0  0  0  0  0  0  0  0
    9.2059  -16.8753   22.9458 C   0  0  0  0  0  0  0  0  0  0  0  0
    8.8082  -18.0433   23.1824 O   0  0  0  0  0  0  0  0  0  0  0  0
    8.9353  -13.3962   29.6122 O   0  0  0  0  0  0  0  0  0  0  0  0
    9.6163  -14.1146   28.6441 C   0  0  0  0  0  0  0  0  0  0  0  0
    9.6829  -13.6948   27.3310 C   0  0  0  0  0  0  0  0  0  0  0  0
   10.3566  -14.4058   26.3743 C   0  0  0  0  0  0  0  0  0  0  0  0
   11.0085  -15.5934   26.6905 C   0  0  0  0  0  0  0  0  0  0  0  0
   11.7178  -16.3530   25.6638 C   0  0  0  0  0  0  0  0  0  0  0  0
   10.8450  -17.2228   24.7944 C   0  0  2  0  0  0  0  0  0  0  0  0
   10.1765  -16.3260   23.8291 N   0  0  0  0  0  0  0  0  0  0  0  0
    9.8226  -17.8660   25.6518 C   0  0  0  0  0  0  0  0  0  0  0  0
   10.1489  -18.7580   26.4979 O   0  0  0  0  0  0  0  0  0  0  0  0
   10.9346  -16.0024   28.0048 C   0  0  0  0  0  0  0  0  0  0  0  0
   10.2539  -15.2823   28.9677 C   0  0  0  0  0  0  0  0  0  0  0  0
    8.4785  -17.5475   25.5926 O   0  0  0  0  0  0  0  0  0  0  0  0
  2  1  1  6
  2  4  1  0
  3  2  1  0
  4  6  1  0
  4  5  1  6
  6  7  2  0
  9 11  1  0
  9  8  1  1
 10  9  1  0
 11 12  1  6
 12  6  1  0
 13 14  2  0
 13 11  1  0
 15 16  1  0
 16 26  2  0
 16 17  1  0
 17 18  2  0
 18 19  1  0
 19 20  1  0
 21 20  1  1
 21 23  1  0
 21 22  1  0
 22 13  1  0
 23 27  1  0
 24 23  2  0
 25 19  2  0
 26 25  1  0
M  END
$$$$
