TVY.pdb
     RDKit          3D

 27 27  0  0  1  0  0  0  0  0999 V2000
   14.0433  -14.9886   21.1953 C   0  0  0  0  0  0  0  0  0  0  0  0
   13.3446  -15.5501   19.9563 C   0  0  1  0  0  0  0  0  0  0  0  0
   12.7719  -16.7581   20.3539 O   0  0  0  0  0  0  0  0  0  0  0  0
   12.2241  -14.6364   19.5396 C   0  0  2  0  0  0  0  0  0  0  0  0
   12.7902  -13.3547   19.1658 N   0  0  0  0  0  0  0  0  0  0  0  0
   11.2046  -14.4668   20.6053 C   0  0  0  0  0  0  0  0  0  0  0  0
   11.4404  -13.7290   21.5962 O   0  0  0  0  0  0  0  0  0  0  0  0
    6.5255  -15.0282   22.2393 C   0  0  0  0  0  0  0  0  0  0  0  0
    7.5430  -15.1940   21.1173 C   0  0  1  0  0  0  0  0  0  0  0  0
    7.1818  -14.3749   19.9248 C   0  0  0  0  0  0  0  0  0  0  0  0
    8.9487  -14.9420   21.6190 C   0  0  2  0  0  0  0  0  0  0  0  0
    9.9343  -15.1074   20.5765 N   0  0  0  0  0  0  0  0  0  0  0  0
    9.2002  -15.7552   22.8091 C   0  0  0  0  0  0  0  0  0  0  0  0
   10.0811  -16.6467   22.8978 O   0  0  0  0  0  0  0  0  0  0  0  0
    6.3838  -10.2088   26.3403 O   0  0  0  0  0  0  0  0  0  0  0  0
    6.7183  -11.5522   26.3178 C   0  0  0  0  0  0  0  0  0  0  0  0
    5.8115  -12.5274   25.9552 C   0  0  0  0  0  0  0  0  0  0  0  0
    6.1432  -13.8556   25.9330 C   0  0  0  0  0  0  0  0  0  0  0  0
    7.4219  -14.2808   26.2789 C   0  0  0  0  0  0  0  0  0  0  0  0
    7.7677  -15.7000   26.2627 C   0  0  0  0  0  0  0  0  0  0  0  0
    8.8154  -16.0915   25.2512 C   0  0  2  0  0  0  0  0  0  0  0  0
    8.3899  -15.5235   23.9552 N   0  0  0  0  0  0  0  0  0  0  0  0
    8.8413  -17.5691   25.1514 C   0  0  0  0  0  0  0  0  0  0  0  0
    9.3119  -18.2782   26.0968 O   0  0  0  0  0  0  0  0  0  0  0  0
    8.3184  -13.2977   26.6394 C   0  0  0  0  0  0  0  0  0  0  0  0
    7.9803  -11.9581   26.6605 C   0  0  0  0  0  0  0  0  0  0  0  0
    8.3664  -18.2603   24.0521 O   0  0  0  0  0  0  0  0  0  0  0  0
  2  1  1  1
  2  4  1  0
  3  2  1  0
  4  6  1  0
  4  5  1  1
  6  7  2  0
  9 11  1  0
  9  8  1  1
 10  9  1  0
 11 12  1  6
 12  6  1  0
 13 14  2  0
 13 11  1  0
 15 16  1  0
 16 26  2  0
 16 17  1  0
 17 18  2  0
 18 19  1  0
 19 20  1  0
 21 20  1  1
 21 23  1  0
 21 22  1  0
 22 13  1  0
 23 27  1  0
 24 23  2  0
 25 19  2  0
 26 25  1  0
M  END
$$$$
