TVY.pdb
     RDKit          3D

 27 27  0  0  1  0  0  0  0  0999 V2000
    8.3888  -19.4584   16.6901 C   0  0  0  0  0  0  0  0  0  0  0  0
    8.6350  -18.6848   17.9861 C   0  0  1  0  0  0  0  0  0  0  0  0
    9.7064  -19.3202   18.6137 O   0  0  0  0  0  0  0  0  0  0  0  0
    9.0677  -17.2785   17.6711 C   0  0  2  0  0  0  0  0  0  0  0  0
   10.2942  -17.3363   16.8996 N   0  0  0  0  0  0  0  0  0  0  0  0
    9.2568  -16.4563   18.8926 C   0  0  0  0  0  0  0  0  0  0  0  0
   10.4075  -16.2884   19.3716 O   0  0  0  0  0  0  0  0  0  0  0  0
    7.3916  -13.5136   22.4793 C   0  0  0  0  0  0  0  0  0  0  0  0
    7.2694  -14.1166   21.0853 C   0  0  1  0  0  0  0  0  0  0  0  0
    7.2114  -13.0600   20.0347 C   0  0  0  0  0  0  0  0  0  0  0  0
    8.3507  -15.1481   20.8445 C   0  0  2  0  0  0  0  0  0  0  0  0
    8.1827  -15.8244   19.5796 N   0  0  0  0  0  0  0  0  0  0  0  0
    8.4360  -16.0497   21.9938 C   0  0  0  0  0  0  0  0  0  0  0  0
    7.7151  -17.0640   22.1671 O   0  0  0  0  0  0  0  0  0  0  0  0
    9.2830  -12.6783   29.0886 O   0  0  0  0  0  0  0  0  0  0  0  0
    9.6437  -13.5400   28.0667 C   0  0  0  0  0  0  0  0  0  0  0  0
    9.5863  -13.1674   26.7391 C   0  0  0  0  0  0  0  0  0  0  0  0
    9.9433  -14.0202   25.7291 C   0  0  0  0  0  0  0  0  0  0  0  0
   10.3833  -15.3111   26.0032 C   0  0  0  0  0  0  0  0  0  0  0  0
   10.7538  -16.2201   24.9213 C   0  0  0  0  0  0  0  0  0  0  0  0
    9.6023  -16.7301   24.0919 C   0  0  2  0  0  0  0  0  0  0  0  0
    9.4066  -15.7617   22.9932 N   0  0  0  0  0  0  0  0  0  0  0  0
    8.3888  -16.7563   24.9410 C   0  0  0  0  0  0  0  0  0  0  0  0
    7.4911  -15.8629   24.8229 O   0  0  0  0  0  0  0  0  0  0  0  0
   10.4360  -15.6717   27.3327 C   0  0  0  0  0  0  0  0  0  0  0  0
   10.0751  -14.8084   28.3494 C   0  0  0  0  0  0  0  0  0  0  0  0
    8.1552  -17.7299   25.8944 O   0  0  0  0  0  0  0  0  0  0  0  0
  2  1  1  6
  2  4  1  0
  3  2  1  0
  4  6  1  0
  4  5  1  1
  6  7  2  0
  9 11  1  0
  9  8  1  1
 10  9  1  0
 11 12  1  6
 12  6  1  0
 13 14  2  0
 13 11  1  0
 15 16  1  0
 16 26  2  0
 16 17  1  0
 17 18  2  0
 18 19  1  0
 19 20  1  0
 21 20  1  1
 21 23  1  0
 21 22  1  0
 22 13  1  0
 23 27  1  0
 24 23  2  0
 25 19  2  0
 26 25  1  0
M  END
$$$$
