TVY.pdb
     RDKit          3D

 27 27  0  0  1  0  0  0  0  0999 V2000
   10.1974  -20.0921   18.1439 C   0  0  0  0  0  0  0  0  0  0  0  0
    9.9516  -19.0099   19.1962 C   0  0  1  0  0  0  0  0  0  0  0  0
   10.9034  -19.2222   20.1934 O   0  0  0  0  0  0  0  0  0  0  0  0
   10.2132  -17.6506   18.6064 C   0  0  2  0  0  0  0  0  0  0  0  0
   11.5612  -17.6325   18.0719 N   0  0  0  0  0  0  0  0  0  0  0  0
   10.0281  -16.5584   19.5947 C   0  0  0  0  0  0  0  0  0  0  0  0
   11.0042  -16.1427   20.2699 O   0  0  0  0  0  0  0  0  0  0  0  0
    7.1023  -13.1319   21.7720 C   0  0  0  0  0  0  0  0  0  0  0  0
    7.3535  -14.0873   20.6118 C   0  0  1  0  0  0  0  0  0  0  0  0
    7.3929  -13.3662   19.3072 C   0  0  0  0  0  0  0  0  0  0  0  0
    8.5781  -14.9396   20.8672 C   0  0  2  0  0  0  0  0  0  0  0  0
    8.7740  -15.9304   19.8349 N   0  0  0  0  0  0  0  0  0  0  0  0
    8.5187  -15.4944   22.2199 C   0  0  0  0  0  0  0  0  0  0  0  0
    7.9744  -16.5844   22.5268 O   0  0  0  0  0  0  0  0  0  0  0  0
   10.4292  -15.9440   30.9175 O   0  0  0  0  0  0  0  0  0  0  0  0
   10.3018  -15.5537   29.5952 C   0  0  0  0  0  0  0  0  0  0  0  0
    9.8190  -14.3102   29.2412 C   0  0  0  0  0  0  0  0  0  0  0  0
    9.6934  -13.9250   27.9333 C   0  0  0  0  0  0  0  0  0  0  0  0
   10.0514  -14.7810   26.8967 C   0  0  0  0  0  0  0  0  0  0  0  0
    9.9064  -14.3685   25.5028 C   0  0  0  0  0  0  0  0  0  0  0  0
    9.1039  -15.3079   24.6381 C   0  0  2  0  0  0  0  0  0  0  0  0
    9.1212  -14.7483   23.2707 N   0  0  0  0  0  0  0  0  0  0  0  0
    7.7100  -15.3301   25.1387 C   0  0  0  0  0  0  0  0  0  0  0  0
    6.8908  -14.4080   24.8273 O   0  0  0  0  0  0  0  0  0  0  0  0
   10.5319  -16.0200   27.2628 C   0  0  0  0  0  0  0  0  0  0  0  0
   10.6574  -16.4054   28.5837 C   0  0  0  0  0  0  0  0  0  0  0  0
    7.2171  -16.3298   25.9566 O   0  0  0  0  0  0  0  0  0  0  0  0
  2  1  1  6
  2  4  1  0
  3  2  1  0
  4  6  1  0
  4  5  1  1
  6  7  2  0
  9 11  1  0
  9  8  1  1
 10  9  1  0
 11 12  1  6
 12  6  1  0
 13 14  2  0
 13 11  1  0
 15 16  1  0
 16 26  2  0
 16 17  1  0
 17 18  2  0
 18 19  1  0
 19 20  1  0
 21 20  1  1
 21 23  1  0
 21 22  1  0
 22 13  1  0
 23 27  1  0
 24 23  2  0
 25 19  2  0
 26 25  1  0
M  END
$$$$
