TVY.pdb
     RDKit          3D

 27 27  0  0  1  0  0  0  0  0999 V2000
    8.9654  -19.5080   20.1127 C   0  0  0  0  0  0  0  0  0  0  0  0
   10.1323  -19.1595   19.1876 C   0  0  1  0  0  0  0  0  0  0  0  0
   10.1567  -20.1546   18.2106 O   0  0  0  0  0  0  0  0  0  0  0  0
    9.8642  -17.8524   18.4921 C   0  0  2  0  0  0  0  0  0  0  0  0
   10.9188  -17.6217   17.5238 N   0  0  0  0  0  0  0  0  0  0  0  0
    9.7675  -16.7146   19.4408 C   0  0  0  0  0  0  0  0  0  0  0  0
   10.7877  -16.3172   20.0597 O   0  0  0  0  0  0  0  0  0  0  0  0
    7.0475  -13.1541   21.6748 C   0  0  0  0  0  0  0  0  0  0  0  0
    7.2317  -14.1177   20.5088 C   0  0  1  0  0  0  0  0  0  0  0  0
    7.2597  -13.3984   19.2030 C   0  0  0  0  0  0  0  0  0  0  0  0
    8.4320  -15.0129   20.7303 C   0  0  2  0  0  0  0  0  0  0  0  0
    8.5530  -16.0213   19.7036 N   0  0  0  0  0  0  0  0  0  0  0  0
    8.4011  -15.5507   22.0907 C   0  0  0  0  0  0  0  0  0  0  0  0
    7.7824  -16.5868   22.4405 O   0  0  0  0  0  0  0  0  0  0  0  0
   10.6793  -16.0094   30.7018 O   0  0  0  0  0  0  0  0  0  0  0  0
   10.4898  -15.6157   29.3880 C   0  0  0  0  0  0  0  0  0  0  0  0
    9.8881  -14.4173   29.0615 C   0  0  0  0  0  0  0  0  0  0  0  0
    9.7012  -14.0286   27.7620 C   0  0  0  0  0  0  0  0  0  0  0  0
   10.1148  -14.8349   26.7063 C   0  0  0  0  0  0  0  0  0  0  0  0
    9.9043  -14.4197   25.3216 C   0  0  0  0  0  0  0  0  0  0  0  0
    9.1360  -15.3989   24.4702 C   0  0  2  0  0  0  0  0  0  0  0  0
    9.1243  -14.8526   23.0974 N   0  0  0  0  0  0  0  0  0  0  0  0
    7.7465  -15.4718   24.9781 C   0  0  0  0  0  0  0  0  0  0  0  0
    7.3630  -16.4546   25.6890 O   0  0  0  0  0  0  0  0  0  0  0  0
   10.7140  -16.0292   27.0451 C   0  0  0  0  0  0  0  0  0  0  0  0
   10.9011  -16.4182   28.3577 C   0  0  0  0  0  0  0  0  0  0  0  0
    6.7966  -14.5005   24.7216 O   0  0  0  0  0  0  0  0  0  0  0  0
  2  1  1  1
  2  4  1  0
  3  2  1  0
  4  6  1  0
  4  5  1  6
  6  7  2  0
  9 11  1  0
  9  8  1  1
 10  9  1  0
 11 12  1  6
 12  6  1  0
 13 14  2  0
 13 11  1  0
 15 16  1  0
 16 26  2  0
 16 17  1  0
 17 18  2  0
 18 19  1  0
 19 20  1  0
 21 20  1  1
 21 23  1  0
 21 22  1  0
 22 13  1  0
 23 27  1  0
 24 23  2  0
 25 19  2  0
 26 25  1  0
M  END
$$$$
