TVY.pdb
     RDKit          3D

 27 27  0  0  1  0  0  0  0  0999 V2000
    6.0823  -20.1212   20.6424 C   0  0  0  0  0  0  0  0  0  0  0  0
    6.9775  -18.9541   21.0611 C   0  0  1  0  0  0  0  0  0  0  0  0
    8.1879  -19.5229   21.4570 O   0  0  0  0  0  0  0  0  0  0  0  0
    7.2611  -18.0725   19.8751 C   0  0  2  0  0  0  0  0  0  0  0  0
    7.9058  -18.8719   18.8512 N   0  0  0  0  0  0  0  0  0  0  0  0
    8.1000  -16.8997   20.2281 C   0  0  0  0  0  0  0  0  0  0  0  0
    9.3540  -16.9774   20.1712 O   0  0  0  0  0  0  0  0  0  0  0  0
    8.6932  -12.0426   20.9278 C   0  0  0  0  0  0  0  0  0  0  0  0
    7.7871  -13.2096   20.5551 C   0  0  1  0  0  0  0  0  0  0  0  0
    7.4379  -13.1908   19.1056 C   0  0  0  0  0  0  0  0  0  0  0  0
    8.3797  -14.5241   21.0159 C   0  0  2  0  0  0  0  0  0  0  0  0
    7.5575  -15.6505   20.6407 N   0  0  0  0  0  0  0  0  0  0  0  0
    8.6768  -14.4557   22.4470 C   0  0  0  0  0  0  0  0  0  0  0  0
    8.2582  -13.5638   23.2265 O   0  0  0  0  0  0  0  0  0  0  0  0
    5.6869  -11.4264   27.4195 O   0  0  0  0  0  0  0  0  0  0  0  0
    6.3705  -12.4938   26.8625 C   0  0  0  0  0  0  0  0  0  0  0  0
    5.7375  -13.4478   26.0916 C   0  0  0  0  0  0  0  0  0  0  0  0
    6.4143  -14.5030   25.5411 C   0  0  0  0  0  0  0  0  0  0  0  0
    7.7827  -14.6582   25.7385 C   0  0  0  0  0  0  0  0  0  0  0  0
    8.4982  -15.7912   25.1567 C   0  0  0  0  0  0  0  0  0  0  0  0
    9.7853  -15.4415   24.4530 C   0  0  2  0  0  0  0  0  0  0  0  0
    9.5009  -15.4732   23.0035 N   0  0  0  0  0  0  0  0  0  0  0  0
   10.7922  -16.4790   24.7754 C   0  0  0  0  0  0  0  0  0  0  0  0
   11.4549  -16.4294   25.8601 O   0  0  0  0  0  0  0  0  0  0  0  0
    8.4035  -13.6994   26.5102 C   0  0  0  0  0  0  0  0  0  0  0  0
    7.7174  -12.6357   27.0642 C   0  0  0  0  0  0  0  0  0  0  0  0
   11.0720  -17.5452   23.9409 O   0  0  0  0  0  0  0  0  0  0  0  0
  2  1  1  6
  2  4  1  0
  3  2  1  0
  4  6  1  0
  4  5  1  6
  6  7  2  0
  9 11  1  0
  9  8  1  6
 10  9  1  0
 11 12  1  1
 12  6  1  0
 13 14  2  0
 13 11  1  0
 15 16  1  0
 16 26  2  0
 16 17  1  0
 17 18  2  0
 18 19  1  0
 19 20  1  0
 21 20  1  1
 21 23  1  0
 21 22  1  0
 22 13  1  0
 23 27  1  0
 24 23  2  0
 25 19  2  0
 26 25  1  0
M  END
$$$$
