TVY.pdb
     RDKit          3D

 27 27  0  0  1  0  0  0  0  0999 V2000
    7.3375  -20.3247   22.3613 C   0  0  0  0  0  0  0  0  0  0  0  0
    5.8913  -20.0586   21.9414 C   0  0  1  0  0  0  0  0  0  0  0  0
    5.2688  -21.3061   21.9002 O   0  0  0  0  0  0  0  0  0  0  0  0
    5.1924  -19.2414   22.9939 C   0  0  2  0  0  0  0  0  0  0  0  0
    3.7976  -19.1063   22.6208 N   0  0  0  0  0  0  0  0  0  0  0  0
    5.8149  -17.9069   23.1819 C   0  0  0  0  0  0  0  0  0  0  0  0
    5.6739  -17.0132   22.3082 O   0  0  0  0  0  0  0  0  0  0  0  0
    8.4118  -14.6028   25.8418 C   0  0  0  0  0  0  0  0  0  0  0  0
    7.4738  -15.8024   25.7873 C   0  0  1  0  0  0  0  0  0  0  0  0
    6.1346  -15.4768   26.3564 C   0  0  0  0  0  0  0  0  0  0  0  0
    7.4112  -16.3780   24.3887 C   0  0  2  0  0  0  0  0  0  0  0  0
    6.5872  -17.5623   24.3263 N   0  0  0  0  0  0  0  0  0  0  0  0
    8.7674  -16.5698   23.8738 C   0  0  0  0  0  0  0  0  0  0  0  0
    9.4331  -17.6301   23.9787 O   0  0  0  0  0  0  0  0  0  0  0  0
    6.8556  -14.2511   17.5477 O   0  0  0  0  0  0  0  0  0  0  0  0
    7.8364  -14.3316   18.5216 C   0  0  0  0  0  0  0  0  0  0  0  0
    8.7265  -15.3848   18.5803 C   0  0  0  0  0  0  0  0  0  0  0  0
    9.6962  -15.4635   19.5436 C   0  0  0  0  0  0  0  0  0  0  0  0
    9.8252  -14.4742   20.5132 C   0  0  0  0  0  0  0  0  0  0  0  0
   10.8556  -14.5680   21.5445 C   0  0  0  0  0  0  0  0  0  0  0  0
   10.6776  -15.6998   22.5252 C   0  0  2  0  0  0  0  0  0  0  0  0
    9.3836  -15.4772   23.2027 N   0  0  0  0  0  0  0  0  0  0  0  0
   11.7695  -15.6305   23.5237 C   0  0  0  0  0  0  0  0  0  0  0  0
   11.5376  -15.2609   24.7186 O   0  0  0  0  0  0  0  0  0  0  0  0
    8.9305  -13.4278   20.4443 C   0  0  0  0  0  0  0  0  0  0  0  0
    7.9531  -13.3514   19.4706 C   0  0  0  0  0  0  0  0  0  0  0  0
   13.0813  -15.9557   23.2322 O   0  0  0  0  0  0  0  0  0  0  0  0
  2  1  1  1
  2  4  1  0
  3  2  1  0
  4  6  1  0
  4  5  1  6
  6  7  2  0
  9 11  1  0
  9  8  1  6
 10  9  1  0
 11 12  1  1
 12  6  1  0
 13 14  2  0
 13 11  1  0
 15 16  1  0
 16 26  2  0
 16 17  1  0
 17 18  2  0
 18 19  1  0
 19 20  1  0
 21 20  1  6
 21 23  1  0
 21 22  1  0
 22 13  1  0
 23 27  1  0
 24 23  2  0
 25 19  2  0
 26 25  1  0
M  END
$$$$
