TVY.pdb
     RDKit          3D

 27 27  0  0  1  0  0  0  0  0999 V2000
    6.5213  -20.4429   20.6047 C   0  0  0  0  0  0  0  0  0  0  0  0
    7.4187  -19.2625   20.9787 C   0  0  1  0  0  0  0  0  0  0  0  0
    8.6772  -19.8052   21.2377 O   0  0  0  0  0  0  0  0  0  0  0  0
    7.5624  -18.3334   19.8038 C   0  0  2  0  0  0  0  0  0  0  0  0
    8.1810  -19.0625   18.7136 N   0  0  0  0  0  0  0  0  0  0  0  0
    8.3500  -17.1191   20.1341 C   0  0  0  0  0  0  0  0  0  0  0  0
    9.5640  -17.0448   19.8140 O   0  0  0  0  0  0  0  0  0  0  0  0
    8.4482  -12.2887   21.2804 C   0  0  0  0  0  0  0  0  0  0  0  0
    7.6685  -13.5485   20.9246 C   0  0  1  0  0  0  0  0  0  0  0  0
    6.9979  -13.4215   19.5988 C   0  0  0  0  0  0  0  0  0  0  0  0
    8.5428  -14.7784   21.0430 C   0  0  2  0  0  0  0  0  0  0  0  0
    7.8005  -15.9956   20.8127 N   0  0  0  0  0  0  0  0  0  0  0  0
    9.2601  -14.7520   22.3181 C   0  0  0  0  0  0  0  0  0  0  0  0
   10.1787  -13.9460   22.6098 O   0  0  0  0  0  0  0  0  0  0  0  0
    5.3275  -11.1923   26.5765 O   0  0  0  0  0  0  0  0  0  0  0  0
    6.0977  -12.3216   26.3563 C   0  0  0  0  0  0  0  0  0  0  0  0
    7.4504  -12.3508   26.6288 C   0  0  0  0  0  0  0  0  0  0  0  0
    8.2113  -13.4680   26.4109 C   0  0  0  0  0  0  0  0  0  0  0  0
    7.6456  -14.6320   25.9004 C   0  0  0  0  0  0  0  0  0  0  0  0
    8.4640  -15.8182   25.6609 C   0  0  0  0  0  0  0  0  0  0  0  0
    9.5500  -15.6480   24.6285 C   0  0  2  0  0  0  0  0  0  0  0  0
    8.8941  -15.7081   23.3059 N   0  0  0  0  0  0  0  0  0  0  0  0
   10.4979  -16.7792   24.7549 C   0  0  0  0  0  0  0  0  0  0  0  0
   11.2487  -16.8895   25.7758 O   0  0  0  0  0  0  0  0  0  0  0  0
    6.2941  -14.5904   25.6321 C   0  0  0  0  0  0  0  0  0  0  0  0
    5.5292  -13.4612   25.8533 C   0  0  0  0  0  0  0  0  0  0  0  0
   10.6266  -17.7674   23.7966 O   0  0  0  0  0  0  0  0  0  0  0  0
  2  1  1  6
  2  4  1  0
  3  2  1  0
  4  6  1  0
  4  5  1  6
  6  7  2  0
  9 11  1  0
  9  8  1  6
 10  9  1  0
 11 12  1  1
 12  6  1  0
 13 14  2  0
 13 11  1  0
 15 16  1  0
 16 26  2  0
 16 17  1  0
 17 18  2  0
 18 19  1  0
 19 20  1  0
 21 20  1  1
 21 23  1  0
 21 22  1  0
 22 13  1  0
 23 27  1  0
 24 23  2  0
 25 19  2  0
 26 25  1  0
M  END
$$$$
