TVY.pdb
     RDKit          3D

 27 27  0  0  1  0  0  0  0  0999 V2000
    6.3165  -18.6543   22.6883 C   0  0  0  0  0  0  0  0  0  0  0  0
    7.2386  -19.1588   21.5775 C   0  0  1  0  0  0  0  0  0  0  0  0
    6.8501  -20.4744   21.3253 O   0  0  0  0  0  0  0  0  0  0  0  0
    7.0040  -18.3709   20.3172 C   0  0  2  0  0  0  0  0  0  0  0  0
    7.2636  -19.2330   19.1804 N   0  0  0  0  0  0  0  0  0  0  0  0
    7.8430  -17.1481   20.2484 C   0  0  0  0  0  0  0  0  0  0  0  0
    9.0547  -17.2286   19.9211 O   0  0  0  0  0  0  0  0  0  0  0  0
    8.2497  -12.1666   20.4919 C   0  0  0  0  0  0  0  0  0  0  0  0
    7.3781  -13.4037   20.3139 C   0  0  1  0  0  0  0  0  0  0  0  0
    6.6471  -13.3763   19.0146 C   0  0  0  0  0  0  0  0  0  0  0  0
    8.1823  -14.6683   20.5271 C   0  0  2  0  0  0  0  0  0  0  0  0
    7.3471  -15.8464   20.5390 N   0  0  0  0  0  0  0  0  0  0  0  0
    9.0223  -14.5233   21.7163 C   0  0  0  0  0  0  0  0  0  0  0  0
   10.0459  -13.7983   21.7896 O   0  0  0  0  0  0  0  0  0  0  0  0
   10.9021  -14.9743   30.3908 O   0  0  0  0  0  0  0  0  0  0  0  0
   10.3102  -15.0105   29.1397 C   0  0  0  0  0  0  0  0  0  0  0  0
    9.6853  -16.1425   28.6569 C   0  0  0  0  0  0  0  0  0  0  0  0
    9.1000  -16.1774   27.4196 C   0  0  0  0  0  0  0  0  0  0  0  0
    9.1116  -15.0610   26.5897 C   0  0  0  0  0  0  0  0  0  0  0  0
    8.4940  -15.1067   25.2666 C   0  0  0  0  0  0  0  0  0  0  0  0
    9.4598  -15.0800   24.1087 C   0  0  2  0  0  0  0  0  0  0  0  0
    8.6576  -15.2553   22.8804 N   0  0  0  0  0  0  0  0  0  0  0  0
   10.3921  -16.2224   24.2499 C   0  0  0  0  0  0  0  0  0  0  0  0
   11.4923  -16.0925   24.8750 O   0  0  0  0  0  0  0  0  0  0  0  0
    9.7388  -13.9368   27.0827 C   0  0  0  0  0  0  0  0  0  0  0  0
   10.3283  -13.9050   28.3319 C   0  0  0  0  0  0  0  0  0  0  0  0
   10.1353  -17.4759   23.7261 O   0  0  0  0  0  0  0  0  0  0  0  0
  2  1  1  1
  2  4  1  0
  3  2  1  0
  4  6  1  0
  4  5  1  6
  6  7  2  0
  9 11  1  0
  9  8  1  6
 10  9  1  0
 11 12  1  1
 12  6  1  0
 13 14  2  0
 13 11  1  0
 15 16  1  0
 16 26  2  0
 16 17  1  0
 17 18  2  0
 18 19  1  0
 19 20  1  0
 21 20  1  1
 21 23  1  0
 21 22  1  0
 22 13  1  0
 23 27  1  0
 24 23  2  0
 25 19  2  0
 26 25  1  0
M  END
$$$$
