TVY.pdb
     RDKit          3D

 27 27  0  0  1  0  0  0  0  0999 V2000
    9.6316  -20.0399   17.8369 C   0  0  0  0  0  0  0  0  0  0  0  0
    9.5290  -19.0264   18.9775 C   0  0  1  0  0  0  0  0  0  0  0  0
   10.5425  -19.3579   19.8766 O   0  0  0  0  0  0  0  0  0  0  0  0
    9.8186  -17.6424   18.4632 C   0  0  2  0  0  0  0  0  0  0  0  0
   11.1473  -17.6360   17.8821 N   0  0  0  0  0  0  0  0  0  0  0  0
    9.7064  -16.6086   19.5226 C   0  0  0  0  0  0  0  0  0  0  0  0
   10.7212  -16.2618   20.1796 O   0  0  0  0  0  0  0  0  0  0  0  0
    7.0205  -13.0835   21.8381 C   0  0  0  0  0  0  0  0  0  0  0  0
    7.2024  -14.0311   20.6588 C   0  0  1  0  0  0  0  0  0  0  0  0
    7.2643  -13.2909   19.3659 C   0  0  0  0  0  0  0  0  0  0  0  0
    8.3809  -14.9544   20.8824 C   0  0  2  0  0  0  0  0  0  0  0  0
    8.4823  -15.9629   19.8538 N   0  0  0  0  0  0  0  0  0  0  0  0
    8.3326  -15.4944   22.2415 C   0  0  0  0  0  0  0  0  0  0  0  0
    7.6610  -16.4961   22.5938 O   0  0  0  0  0  0  0  0  0  0  0  0
   10.5334  -15.9557   30.8781 O   0  0  0  0  0  0  0  0  0  0  0  0
   10.3613  -15.5669   29.5605 C   0  0  0  0  0  0  0  0  0  0  0  0
   10.1717  -14.2470   29.2045 C   0  0  0  0  0  0  0  0  0  0  0  0
   10.0017  -13.8634   27.9012 C   0  0  0  0  0  0  0  0  0  0  0  0
   10.0133  -14.7988   26.8715 C   0  0  0  0  0  0  0  0  0  0  0  0
    9.8218  -14.3851   25.4836 C   0  0  0  0  0  0  0  0  0  0  0  0
    9.0523  -15.3585   24.6265 C   0  0  2  0  0  0  0  0  0  0  0  0
    9.1021  -14.8406   23.2436 N   0  0  0  0  0  0  0  0  0  0  0  0
    7.6453  -15.3794   25.0893 C   0  0  0  0  0  0  0  0  0  0  0  0
    6.8549  -14.4208   24.8163 O   0  0  0  0  0  0  0  0  0  0  0  0
   10.2031  -16.1136   27.2396 C   0  0  0  0  0  0  0  0  0  0  0  0
   10.3745  -16.4972   28.5559 C   0  0  0  0  0  0  0  0  0  0  0  0
    7.1091  -16.4167   25.8296 O   0  0  0  0  0  0  0  0  0  0  0  0
  2  1  1  6
  2  4  1  0
  3  2  1  0
  4  6  1  0
  4  5  1  1
  6  7  2  0
  9 11  1  0
  9  8  1  1
 10  9  1  0
 11 12  1  6
 12  6  1  0
 13 14  2  0
 13 11  1  0
 15 16  1  0
 16 26  2  0
 16 17  1  0
 17 18  2  0
 18 19  1  0
 19 20  1  0
 21 20  1  1
 21 23  1  0
 21 22  1  0
 22 13  1  0
 23 27  1  0
 24 23  2  0
 25 19  2  0
 26 25  1  0
M  END
$$$$
