DCA.pdb
     RDKit          3D

 20 19  0  0  1  0  0  0  0  0999 V2000
   22.9149  -10.9272  -17.6818 N   0  0  0  0  0  0  0  0  0  0  0  0
   22.4214   -9.8550  -18.6058 C   0  0  1  0  0  0  0  0  0  0  0  0
   21.8473  -10.6118  -19.7645 C   0  0  0  0  0  0  0  0  0  0  0  0
   22.8185  -11.2658  -20.6189 C   0  0  0  0  0  0  0  0  0  0  0  0
   23.8850  -10.7563  -20.9511 O   0  0  0  0  0  0  0  0  0  0  0  0
   21.3931   -9.1035  -17.8292 C   0  0  0  0  0  0  0  0  0  0  0  0
   20.2085   -9.0180  -18.2955 O   0  0  0  0  0  0  0  0  0  0  0  0
   22.5474  -12.5656  -21.1125 O   0  0  0  0  0  0  0  0  0  0  0  0
   21.6133   -8.4648  -16.5909 N   0  0  0  0  0  0  0  0  0  0  0  0
   20.5264   -7.8453  -15.8715 C   0  0  1  0  0  0  0  0  0  0  0  0
   20.5979   -8.1363  -14.3847 C   0  0  0  0  0  0  0  0  0  0  0  0
   20.5025   -9.9157  -14.0714 S   0  0  0  0  0  0  0  0  0  0  0  0
   20.4783   -6.3785  -16.0989 C   0  0  0  0  0  0  0  0  0  0  0  0
   21.5116   -5.6401  -15.9954 O   0  0  0  0  0  0  0  0  0  0  0  0
   17.8688   -3.8464  -17.2121 C   0  0  0  0  0  0  0  0  0  0  0  0
   19.1972   -4.2710  -16.6227 C   0  0  2  0  0  0  0  0  0  0  0  0
   19.2764   -5.7048  -16.4467 N   0  0  0  0  0  0  0  0  0  0  0  0
   19.3133   -3.6394  -15.2872 C   0  0  0  0  0  0  0  0  0  0  0  0
   19.3695   -2.3753  -15.1903 O   0  0  0  0  0  0  0  0  0  0  0  0
   19.3616   -4.3928  -14.1486 O   0  0  0  0  0  0  0  0  0  0  0  0
  2  1  1  1
  3  2  1  0
  3  4  1  0
  4  5  2  0
  6  2  1  0
  6  7  2  0
  8  4  1  0
  9  6  1  0
 10  9  1  0
 10 11  1  1
 12 11  1  0
 13 10  1  0
 14 13  2  0
 16 15  1  1
 16 17  1  0
 16 18  1  0
 17 13  1  0
 18 20  1  0
 19 18  2  0
M  END
$$$$
