DCA.pdb
     RDKit          3D

 20 19  0  0  1  0  0  0  0  0999 V2000
   18.0209  -10.5853  -17.0198 N   0  0  0  0  0  0  0  0  0  0  0  0
   19.1973   -9.7120  -17.3364 C   0  0  1  0  0  0  0  0  0  0  0  0
   18.8187   -9.0478  -18.6249 C   0  0  0  0  0  0  0  0  0  0  0  0
   18.8707   -9.8975  -19.7979 C   0  0  0  0  0  0  0  0  0  0  0  0
   18.0285   -9.8768  -20.6911 O   0  0  0  0  0  0  0  0  0  0  0  0
   19.3029   -8.7583  -16.1941 C   0  0  0  0  0  0  0  0  0  0  0  0
   18.2440   -8.1910  -15.7642 O   0  0  0  0  0  0  0  0  0  0  0  0
   19.9419  -10.8123  -19.9476 O   0  0  0  0  0  0  0  0  0  0  0  0
   20.4968   -8.4193  -15.5235 N   0  0  0  0  0  0  0  0  0  0  0  0
   20.4847   -7.5196  -14.3953 C   0  0  1  0  0  0  0  0  0  0  0  0
   21.3994   -7.9983  -13.2843 C   0  0  0  0  0  0  0  0  0  0  0  0
   20.4433   -8.4815  -11.8262 S   0  0  0  0  0  0  0  0  0  0  0  0
   20.8482   -6.1346  -14.7894 C   0  0  0  0  0  0  0  0  0  0  0  0
   21.8821   -5.8754  -15.4875 O   0  0  0  0  0  0  0  0  0  0  0  0
   19.2595   -2.6963  -14.5526 C   0  0  0  0  0  0  0  0  0  0  0  0
   20.4157   -3.6507  -14.7643 C   0  0  2  0  0  0  0  0  0  0  0  0
   20.0656   -5.0097  -14.4129 N   0  0  0  0  0  0  0  0  0  0  0  0
   21.5183   -3.2179  -13.8738 C   0  0  0  0  0  0  0  0  0  0  0  0
   21.7661   -3.8707  -12.8141 O   0  0  0  0  0  0  0  0  0  0  0  0
   22.2804   -2.1234  -14.1698 O   0  0  0  0  0  0  0  0  0  0  0  0
  2  1  1  1
  3  2  1  0
  3  4  1  0
  4  5  2  0
  6  2  1  0
  6  7  2  0
  8  4  1  0
  9  6  1  0
 10  9  1  0
 10 11  1  1
 12 11  1  0
 13 10  1  0
 14 13  2  0
 16 15  1  1
 16 17  1  0
 16 18  1  0
 17 13  1  0
 18 20  1  0
 19 18  2  0
M  END
$$$$
