DCA.pdb
     RDKit          3D

 20 19  0  0  1  0  0  0  0  0999 V2000
   17.3782  -10.6038  -15.5408 N   0  0  0  0  0  0  0  0  0  0  0  0
   18.3084   -9.7382  -16.3361 C   0  0  1  0  0  0  0  0  0  0  0  0
   17.4391   -9.1692  -17.4156 C   0  0  0  0  0  0  0  0  0  0  0  0
   17.5063   -9.8553  -18.6905 C   0  0  0  0  0  0  0  0  0  0  0  0
   18.2083  -10.8414  -18.8965 O   0  0  0  0  0  0  0  0  0  0  0  0
   18.8065   -8.7070  -15.3800 C   0  0  0  0  0  0  0  0  0  0  0  0
   17.9861   -8.1832  -14.5551 O   0  0  0  0  0  0  0  0  0  0  0  0
   16.7291   -9.3832  -19.7766 O   0  0  0  0  0  0  0  0  0  0  0  0
   20.1377   -8.2478  -15.2976 N   0  0  0  0  0  0  0  0  0  0  0  0
   20.5203   -7.2509  -14.3269 C   0  0  1  0  0  0  0  0  0  0  0  0
   21.6906   -7.7115  -13.4791 C   0  0  0  0  0  0  0  0  0  0  0  0
   22.2504   -6.3874  -12.3804 S   0  0  0  0  0  0  0  0  0  0  0  0
   20.8401   -5.9498  -14.9677 C   0  0  0  0  0  0  0  0  0  0  0  0
   21.7867   -5.8216  -15.8109 O   0  0  0  0  0  0  0  0  0  0  0  0
   19.2685   -2.5018  -15.1194 C   0  0  0  0  0  0  0  0  0  0  0  0
   20.4033   -3.4885  -15.2963 C   0  0  2  0  0  0  0  0  0  0  0  0
   20.1102   -4.7647  -14.6812 N   0  0  0  0  0  0  0  0  0  0  0  0
   21.5955   -2.9202  -14.6242 C   0  0  0  0  0  0  0  0  0  0  0  0
   22.2233   -1.9573  -15.1620 O   0  0  0  0  0  0  0  0  0  0  0  0
   22.0379   -3.4130  -13.4293 O   0  0  0  0  0  0  0  0  0  0  0  0
  2  1  1  1
  3  2  1  0
  3  4  1  0
  4  5  2  0
  6  2  1  0
  6  7  2  0
  8  4  1  0
  9  6  1  0
 10  9  1  0
 10 11  1  6
 12 11  1  0
 13 10  1  0
 14 13  2  0
 16 15  1  1
 16 17  1  0
 16 18  1  0
 17 13  1  0
 18 20  1  0
 19 18  2  0
M  END
$$$$
