DCA.pdb
     RDKit          3D

 20 19  0  0  1  0  0  0  0  0999 V2000
   19.2227  -10.8709  -17.0324 N   0  0  0  0  0  0  0  0  0  0  0  0
   19.7464   -9.6757  -17.7700 C   0  0  1  0  0  0  0  0  0  0  0  0
   18.6574   -9.3463  -18.7449 C   0  0  0  0  0  0  0  0  0  0  0  0
   18.5900  -10.2045  -19.9109 C   0  0  0  0  0  0  0  0  0  0  0  0
   19.4998  -10.9516  -20.2596 O   0  0  0  0  0  0  0  0  0  0  0  0
   19.9421   -8.6225  -16.7318 C   0  0  0  0  0  0  0  0  0  0  0  0
   19.0599   -8.4830  -15.8206 O   0  0  0  0  0  0  0  0  0  0  0  0
   17.4209  -10.2011  -20.7108 O   0  0  0  0  0  0  0  0  0  0  0  0
   21.0444   -7.7452  -16.6588 N   0  0  0  0  0  0  0  0  0  0  0  0
   21.1488   -6.7709  -15.5995 C   0  0  1  0  0  0  0  0  0  0  0  0
   22.2495   -7.1238  -14.6173 C   0  0  0  0  0  0  0  0  0  0  0  0
   22.4144   -5.8447  -13.3483 S   0  0  0  0  0  0  0  0  0  0  0  0
   21.3627   -5.3999  -16.1289 C   0  0  0  0  0  0  0  0  0  0  0  0
   22.3997   -5.0836  -16.7984 O   0  0  0  0  0  0  0  0  0  0  0  0
   19.3120   -2.2112  -16.3658 C   0  0  0  0  0  0  0  0  0  0  0  0
   20.5800   -3.0300  -16.4862 C   0  0  2  0  0  0  0  0  0  0  0  0
   20.4240   -4.3532  -15.9225 N   0  0  0  0  0  0  0  0  0  0  0  0
   21.6367   -2.3284  -15.7199 C   0  0  0  0  0  0  0  0  0  0  0  0
   21.8719   -2.6629  -14.5186 O   0  0  0  0  0  0  0  0  0  0  0  0
   22.3696   -1.3215  -16.2817 O   0  0  0  0  0  0  0  0  0  0  0  0
  2  1  1  1
  3  2  1  0
  3  4  1  0
  4  5  2  0
  6  2  1  0
  6  7  2  0
  8  4  1  0
  9  6  1  0
 10  9  1  0
 10 11  1  1
 12 11  1  0
 13 10  1  0
 14 13  2  0
 16 15  1  1
 16 17  1  0
 16 18  1  0
 17 13  1  0
 18 20  1  0
 19 18  2  0
M  END
$$$$
