DCA.pdb
     RDKit          3D

 20 19  0  0  1  0  0  0  0  0999 V2000
   23.9243  -20.1841  -16.8234 N   0  0  0  0  0  0  0  0  0  0  0  0
   24.5075  -19.2250  -15.8299 C   0  0  1  0  0  0  0  0  0  0  0  0
   23.3226  -18.4556  -15.3310 C   0  0  0  0  0  0  0  0  0  0  0  0
   22.7429  -17.5271  -16.2810 C   0  0  0  0  0  0  0  0  0  0  0  0
   23.4070  -16.8238  -17.0372 O   0  0  0  0  0  0  0  0  0  0  0  0
   25.1386  -20.0759  -14.7796 C   0  0  0  0  0  0  0  0  0  0  0  0
   24.4293  -20.9598  -14.1934 O   0  0  0  0  0  0  0  0  0  0  0  0
   21.3341  -17.4039  -16.3625 O   0  0  0  0  0  0  0  0  0  0  0  0
   26.4847  -19.9951  -14.3658 N   0  0  0  0  0  0  0  0  0  0  0  0
   26.9651  -20.7696  -13.2470 C   0  0  1  0  0  0  0  0  0  0  0  0
   28.4693  -20.9575  -13.2975 C   0  0  0  0  0  0  0  0  0  0  0  0
   28.9573  -21.8453  -14.7967 S   0  0  0  0  0  0  0  0  0  0  0  0
   26.5735  -20.1656  -11.9480 C   0  0  0  0  0  0  0  0  0  0  0  0
   26.8742  -18.9670  -11.6373 O   0  0  0  0  0  0  0  0  0  0  0  0
   24.3306  -21.0965   -9.0439 C   0  0  0  0  0  0  0  0  0  0  0  0
   25.4576  -20.3208   -9.6924 C   0  0  2  0  0  0  0  0  0  0  0  0
   25.8380  -20.8861  -10.9686 N   0  0  0  0  0  0  0  0  0  0  0  0
   26.6298  -20.4009   -8.7893 C   0  0  0  0  0  0  0  0  0  0  0  0
   26.5967  -19.8220   -7.6605 O   0  0  0  0  0  0  0  0  0  0  0  0
   27.7544  -21.0893   -9.1469 O   0  0  0  0  0  0  0  0  0  0  0  0
  2  1  1  6
  3  2  1  0
  3  4  1  0
  4  5  2  0
  6  2  1  0
  6  7  2  0
  8  4  1  0
  9  6  1  0
 10  9  1  0
 10 11  1  1
 12 11  1  0
 13 10  1  0
 14 13  2  0
 16 15  1  1
 16 17  1  0
 16 18  1  0
 17 13  1  0
 18 20  1  0
 19 18  2  0
M  END
$$$$
