DCA.pdb
     RDKit          3D

 20 19  0  0  1  0  0  0  0  0999 V2000
   19.2812   -9.9733  -16.7327 N   0  0  0  0  0  0  0  0  0  0  0  0
   20.5882   -9.3295  -16.3800 C   0  0  1  0  0  0  0  0  0  0  0  0
   21.0877   -8.7866  -17.6840 C   0  0  0  0  0  0  0  0  0  0  0  0
   21.7164   -9.7567  -18.5583 C   0  0  0  0  0  0  0  0  0  0  0  0
   21.8848  -10.9352  -18.2577 O   0  0  0  0  0  0  0  0  0  0  0  0
   20.2521   -8.2639  -15.3915 C   0  0  0  0  0  0  0  0  0  0  0  0
   19.1573   -7.6224  -15.5243 O   0  0  0  0  0  0  0  0  0  0  0  0
   22.1713   -9.3496  -19.8365 O   0  0  0  0  0  0  0  0  0  0  0  0
   21.0520   -7.8923  -14.2906 N   0  0  0  0  0  0  0  0  0  0  0  0
   20.6552   -6.8168  -13.4142 C   0  0  1  0  0  0  0  0  0  0  0  0
   20.7516   -7.2163  -11.9542 C   0  0  0  0  0  0  0  0  0  0  0  0
   19.4990   -8.4550  -11.5415 S   0  0  0  0  0  0  0  0  0  0  0  0
   21.4496   -5.5855  -13.6559 C   0  0  0  0  0  0  0  0  0  0  0  0
   22.7180   -5.6071  -13.7754 O   0  0  0  0  0  0  0  0  0  0  0  0
   22.0322   -3.1701  -15.5933 C   0  0  0  0  0  0  0  0  0  0  0  0
   21.5783   -3.1164  -14.1498 C   0  0  2  0  0  0  0  0  0  0  0  0
   20.8454   -4.3043  -13.7695 N   0  0  0  0  0  0  0  0  0  0  0  0
   20.6686   -1.9545  -14.0127 C   0  0  0  0  0  0  0  0  0  0  0  0
   19.4127   -2.1355  -13.9975 O   0  0  0  0  0  0  0  0  0  0  0  0
   21.1550   -0.6828  -13.9013 O   0  0  0  0  0  0  0  0  0  0  0  0
  2  1  1  6
  3  2  1  0
  3  4  1  0
  4  5  2  0
  6  2  1  0
  6  7  2  0
  8  4  1  0
  9  6  1  0
 10  9  1  0
 10 11  1  1
 12 11  1  0
 13 10  1  0
 14 13  2  0
 16 15  1  6
 16 17  1  0
 16 18  1  0
 17 13  1  0
 18 20  1  0
 19 18  2  0
M  END
$$$$
