DCA.pdb
     RDKit          3D

 20 19  0  0  1  0  0  0  0  0999 V2000
   15.7360  -10.8875  -17.4038 N   0  0  0  0  0  0  0  0  0  0  0  0
   15.9631  -10.1283  -16.1314 C   0  0  1  0  0  0  0  0  0  0  0  0
   16.2000  -11.1977  -15.1092 C   0  0  0  0  0  0  0  0  0  0  0  0
   15.0039  -11.8014  -14.5563 C   0  0  0  0  0  0  0  0  0  0  0  0
   13.8655  -11.4377  -14.8380 O   0  0  0  0  0  0  0  0  0  0  0  0
   17.1652   -9.2815  -16.3833 C   0  0  0  0  0  0  0  0  0  0  0  0
   18.1551   -9.7865  -17.0102 O   0  0  0  0  0  0  0  0  0  0  0  0
   15.1260  -12.8724  -13.6373 O   0  0  0  0  0  0  0  0  0  0  0  0
   17.3117   -7.9360  -15.9859 N   0  0  0  0  0  0  0  0  0  0  0  0
   18.5059   -7.1926  -16.3081 C   0  0  1  0  0  0  0  0  0  0  0  0
   18.1887   -5.9252  -17.0785 C   0  0  0  0  0  0  0  0  0  0  0  0
   19.6959   -4.9829  -17.4165 S   0  0  0  0  0  0  0  0  0  0  0  0
   19.2960   -6.8634  -15.0945 C   0  0  0  0  0  0  0  0  0  0  0  0
   18.7802   -6.2833  -14.0839 O   0  0  0  0  0  0  0  0  0  0  0  0
   22.7826   -7.5827  -13.7890 C   0  0  0  0  0  0  0  0  0  0  0  0
   21.4780   -6.8155  -13.8321 C   0  0  2  0  0  0  0  0  0  0  0  0
   20.6780   -7.1746  -14.9828 N   0  0  0  0  0  0  0  0  0  0  0  0
   21.8122   -5.3757  -13.9390 C   0  0  0  0  0  0  0  0  0  0  0  0
   21.5697   -4.7505  -15.0163 O   0  0  0  0  0  0  0  0  0  0  0  0
   22.3800   -4.7005  -12.8959 O   0  0  0  0  0  0  0  0  0  0  0  0
  2  1  1  6
  3  2  1  0
  3  4  1  0
  4  5  2  0
  6  2  1  0
  6  7  2  0
  8  4  1  0
  9  6  1  0
 10  9  1  0
 10 11  1  1
 12 11  1  0
 13 10  1  0
 14 13  2  0
 16 15  1  6
 16 17  1  0
 16 18  1  0
 17 13  1  0
 18 20  1  0
 19 18  2  0
M  END
$$$$
