DCA.pdb
     RDKit          3D

 20 19  0  0  1  0  0  0  0  0999 V2000
   28.2193  -20.2323  -15.1903 N   0  0  0  0  0  0  0  0  0  0  0  0
   27.0844  -20.9581  -15.8477 C   0  0  1  0  0  0  0  0  0  0  0  0
   27.7451  -22.1098  -16.5418 C   0  0  0  0  0  0  0  0  0  0  0  0
   28.5241  -21.7621  -17.7135 C   0  0  0  0  0  0  0  0  0  0  0  0
   29.7447  -21.6298  -17.7046 O   0  0  0  0  0  0  0  0  0  0  0  0
   26.1859  -21.3816  -14.7347 C   0  0  0  0  0  0  0  0  0  0  0  0
   25.2496  -22.2129  -14.9802 O   0  0  0  0  0  0  0  0  0  0  0  0
   27.8660  -21.5576  -18.9512 O   0  0  0  0  0  0  0  0  0  0  0  0
   26.2804  -20.9400  -13.3984 N   0  0  0  0  0  0  0  0  0  0  0  0
   25.2430  -21.2419  -12.4417 C   0  0  1  0  0  0  0  0  0  0  0  0
   25.7092  -21.0151  -11.0163 C   0  0  0  0  0  0  0  0  0  0  0  0
   24.3089  -21.0317   -9.8706 S   0  0  0  0  0  0  0  0  0  0  0  0
   24.0075  -20.4597  -12.7012 C   0  0  0  0  0  0  0  0  0  0  0  0
   23.9801  -19.1878  -12.6284 O   0  0  0  0  0  0  0  0  0  0  0  0
   20.8755  -20.8018  -14.5734 C   0  0  0  0  0  0  0  0  0  0  0  0
   21.5632  -20.3367  -13.3072 C   0  0  2  0  0  0  0  0  0  0  0  0
   22.7768  -21.0801  -13.0474 N   0  0  0  0  0  0  0  0  0  0  0  0
   20.6304  -20.5763  -12.1809 C   0  0  0  0  0  0  0  0  0  0  0  0
   19.5855  -19.8655  -12.0655 O   0  0  0  0  0  0  0  0  0  0  0  0
   20.8714  -21.5529  -11.2564 O   0  0  0  0  0  0  0  0  0  0  0  0
  2  1  1  1
  3  2  1  0
  3  4  1  0
  4  5  2  0
  6  2  1  0
  6  7  2  0
  8  4  1  0
  9  6  1  0
 10  9  1  0
 10 11  1  1
 12 11  1  0
 13 10  1  0
 14 13  2  0
 16 15  1  6
 16 17  1  0
 16 18  1  0
 17 13  1  0
 18 20  1  0
 19 18  2  0
M  END
$$$$
