DCA.pdb
     RDKit          3D

 20 19  0  0  1  0  0  0  0  0999 V2000
   17.9167  -12.6202  -16.1058 N   0  0  0  0  0  0  0  0  0  0  0  0
   19.0098  -11.7017  -16.5621 C   0  0  1  0  0  0  0  0  0  0  0  0
   19.1065  -11.9580  -18.0351 C   0  0  0  0  0  0  0  0  0  0  0  0
   19.8571  -13.1399  -18.4098 C   0  0  0  0  0  0  0  0  0  0  0  0
   20.3650  -13.9090  -17.5986 O   0  0  0  0  0  0  0  0  0  0  0  0
   18.5344  -10.3257  -16.2364 C   0  0  0  0  0  0  0  0  0  0  0  0
   17.4025   -9.9422  -16.6834 O   0  0  0  0  0  0  0  0  0  0  0  0
   20.0297  -13.4488  -19.7815 O   0  0  0  0  0  0  0  0  0  0  0  0
   19.2370   -9.3846  -15.4550 N   0  0  0  0  0  0  0  0  0  0  0  0
   18.6801   -8.0812  -15.1841 C   0  0  1  0  0  0  0  0  0  0  0  0
   18.6881   -7.7634  -13.7010 C   0  0  0  0  0  0  0  0  0  0  0  0
   17.6164   -8.9033  -12.7924 S   0  0  0  0  0  0  0  0  0  0  0  0
   19.3859   -7.0118  -15.9351 C   0  0  0  0  0  0  0  0  0  0  0  0
   20.6558   -6.9075  -15.9379 O   0  0  0  0  0  0  0  0  0  0  0  0
   18.4570   -4.6554  -18.7137 C   0  0  0  0  0  0  0  0  0  0  0  0
   19.3544   -5.0995  -17.5780 C   0  0  2  0  0  0  0  0  0  0  0  0
   18.6895   -6.0366  -16.6989 N   0  0  0  0  0  0  0  0  0  0  0  0
   19.6985   -3.8951  -16.7861 C   0  0  0  0  0  0  0  0  0  0  0  0
   19.1201   -3.6837  -15.6765 O   0  0  0  0  0  0  0  0  0  0  0  0
   20.6315   -2.9998  -17.2267 O   0  0  0  0  0  0  0  0  0  0  0  0
  2  1  1  6
  3  2  1  0
  3  4  1  0
  4  5  2  0
  6  2  1  0
  6  7  2  0
  8  4  1  0
  9  6  1  0
 10  9  1  0
 10 11  1  1
 12 11  1  0
 13 10  1  0
 14 13  2  0
 16 15  1  6
 16 17  1  0
 16 18  1  0
 17 13  1  0
 18 20  1  0
 19 18  2  0
M  END
$$$$
