DCA.pdb
     RDKit          3D

 20 19  0  0  1  0  0  0  0  0999 V2000
   25.0532    2.1194   -9.8608 N   0  0  0  0  0  0  0  0  0  0  0  0
   23.7645    2.7313   -9.4006 C   0  0  1  0  0  0  0  0  0  0  0  0
   22.7108    1.8831  -10.0447 C   0  0  0  0  0  0  0  0  0  0  0  0
   22.6519    1.9611  -11.4908 C   0  0  0  0  0  0  0  0  0  0  0  0
   22.2509    2.9467  -12.1034 O   0  0  0  0  0  0  0  0  0  0  0  0
   23.7799    2.6181   -7.9131 C   0  0  0  0  0  0  0  0  0  0  0  0
   22.7531    2.9936   -7.2553 O   0  0  0  0  0  0  0  0  0  0  0  0
   23.0743    0.8527  -12.2653 O   0  0  0  0  0  0  0  0  0  0  0  0
   24.8516    2.1166   -7.1453 N   0  0  0  0  0  0  0  0  0  0  0  0
   24.8009    2.1283   -5.7031 C   0  0  1  0  0  0  0  0  0  0  0  0
   25.6229    1.0041   -5.1023 C   0  0  0  0  0  0  0  0  0  0  0  0
   25.4943    1.0059   -3.2975 S   0  0  0  0  0  0  0  0  0  0  0  0
   25.2417    3.4322   -5.1453 C   0  0  0  0  0  0  0  0  0  0  0  0
   26.2745    4.0417   -5.5759 O   0  0  0  0  0  0  0  0  0  0  0  0
   23.9326    5.9110   -2.5748 C   0  0  0  0  0  0  0  0  0  0  0  0
   24.9714    5.3356   -3.5141 C   0  0  2  0  0  0  0  0  0  0  0  0
   24.5393    4.0834   -4.0956 N   0  0  0  0  0  0  0  0  0  0  0  0
   26.1934    5.0725   -2.7182 C   0  0  0  0  0  0  0  0  0  0  0  0
   27.1113    5.9471   -2.6645 O   0  0  0  0  0  0  0  0  0  0  0  0
   26.3559    3.9004   -2.0353 O   0  0  0  0  0  0  0  0  0  0  0  0
  2  1  1  6
  3  2  1  0
  3  4  1  0
  4  5  2  0
  6  2  1  0
  6  7  2  0
  8  4  1  0
  9  6  1  0
 10  9  1  0
 10 11  1  1
 12 11  1  0
 13 10  1  0
 14 13  2  0
 16 15  1  1
 16 17  1  0
 16 18  1  0
 17 13  1  0
 18 20  1  0
 19 18  2  0
M  END
$$$$
