CMI.pdb
     RDKit          3D

 23 22  0  0  1  0  0  0  0  0999 V2000
    9.1729  -17.7976   19.6784 N   0  0  0  0  0  0  0  0  0  0  0  0
    7.9567  -17.0551   19.6794 C   0  0  1  0  0  0  0  0  0  0  0  0
    6.9468  -17.7392   18.7695 C   0  0  0  0  0  0  0  0  0  0  0  0
    7.7966  -18.9937   17.7700 S   0  0  0  0  0  0  0  0  0  0  0  0
    7.3420  -16.8830   20.9982 C   0  0  0  0  0  0  0  0  0  0  0  0
    6.2341  -16.2898   21.0658 O   0  0  0  0  0  0  0  0  0  0  0  0
    6.9675  -21.1648   25.4245 C   0  0  0  0  0  0  0  0  0  0  0  0
    5.8065  -20.9631   24.0206 S   0  0  0  0  0  0  0  0  0  0  0  0
    6.1240  -19.3445   23.2745 C   0  0  0  0  0  0  0  0  0  0  0  0
    6.9751  -18.4730   24.1952 C   0  0  0  0  0  0  0  0  0  0  0  0
    7.2209  -17.1755   23.4936 C   0  0  2  0  0  0  0  0  0  0  0  0
    7.8968  -17.3346   22.2272 N   0  0  0  0  0  0  0  0  0  0  0  0
    7.9254  -16.1718   24.2963 C   0  0  0  0  0  0  0  0  0  0  0  0
    9.1539  -16.0163   24.0899 O   0  0  0  0  0  0  0  0  0  0  0  0
    5.7218  -11.4929   26.0604 C   0  0  0  0  0  0  0  0  0  0  0  0
    6.6946  -12.5000   25.4900 C   0  0  0  0  0  0  0  0  0  0  0  0
    7.4007  -13.2710   26.5851 C   0  0  2  0  0  0  0  0  0  0  0  0
    8.3182  -12.2980   27.2889 C   0  0  0  0  0  0  0  0  0  0  0  0
    8.1210  -14.4663   26.0596 C   0  0  2  0  0  0  0  0  0  0  0  0
    7.3122  -15.3671   25.2874 N   0  0  0  0  0  0  0  0  0  0  0  0
    8.9435  -15.1646   27.0871 C   0  0  0  0  0  0  0  0  0  0  0  0
    8.5694  -16.2179   27.6554 O   0  0  0  0  0  0  0  0  0  0  0  0
   10.1898  -14.6780   27.4772 O   0  0  0  0  0  0  0  0  0  0  0  0
  2  1  1  1
  3  2  1  0
  4  3  1  0
  5  2  1  0
  6  5  2  0
  8  7  1  0
  9  8  1  0
 10  9  1  0
 11 10  1  1
 11 12  1  0
 12  5  1  0
 13 20  1  0
 13 11  1  0
 14 13  2  0
 15 16  1  0
 16 17  1  0
 17 18  1  6
 19 17  1  0
 19 20  1  1
 21 23  1  0
 21 19  1  0
 22 21  2  0
M  END
$$$$
