CMI.pdb
     RDKit          3D

 23 22  0  0  1  0  0  0  0  0999 V2000
    9.3044  -16.7136   19.2728 N   0  0  0  0  0  0  0  0  0  0  0  0
    8.9707  -17.2854   20.5345 C   0  0  1  0  0  0  0  0  0  0  0  0
    9.7305  -18.5918   20.7136 C   0  0  0  0  0  0  0  0  0  0  0  0
    9.2814  -19.3302   22.3098 S   0  0  0  0  0  0  0  0  0  0  0  0
    9.2509  -16.4305   21.6910 C   0  0  0  0  0  0  0  0  0  0  0  0
   10.3653  -15.8483   21.7448 O   0  0  0  0  0  0  0  0  0  0  0  0
    6.4270  -12.0679   25.7309 C   0  0  0  0  0  0  0  0  0  0  0  0
    5.8611  -13.7116   26.3120 S   0  0  0  0  0  0  0  0  0  0  0  0
    6.8444  -14.9655   25.4527 C   0  0  0  0  0  0  0  0  0  0  0  0
    7.4714  -14.3959   24.1823 C   0  0  0  0  0  0  0  0  0  0  0  0
    8.6441  -15.2543   23.8300 C   0  0  2  0  0  0  0  0  0  0  0  0
    8.3596  -16.1979   22.7743 N   0  0  0  0  0  0  0  0  0  0  0  0
    9.2447  -15.9622   24.9641 C   0  0  0  0  0  0  0  0  0  0  0  0
    9.1137  -17.2099   25.0092 O   0  0  0  0  0  0  0  0  0  0  0  0
   10.3045  -14.6497   30.2113 C   0  0  0  0  0  0  0  0  0  0  0  0
   10.5023  -14.3265   28.7477 C   0  0  0  0  0  0  0  0  0  0  0  0
   11.3409  -15.3798   28.0553 C   0  0  2  0  0  0  0  0  0  0  0  0
   12.5415  -14.6736   27.4692 C   0  0  0  0  0  0  0  0  0  0  0  0
   10.5632  -16.1394   27.0345 C   0  0  2  0  0  0  0  0  0  0  0  0
    9.9619  -15.3322   26.0104 N   0  0  0  0  0  0  0  0  0  0  0  0
    9.6155  -17.1273   27.6224 C   0  0  0  0  0  0  0  0  0  0  0  0
    9.9869  -18.0622   28.3711 O   0  0  0  0  0  0  0  0  0  0  0  0
    8.2466  -17.0647   27.3684 O   0  0  0  0  0  0  0  0  0  0  0  0
  2  1  1  6
  3  2  1  0
  4  3  1  0
  5  2  1  0
  6  5  2  0
  8  7  1  0
  9  8  1  0
 10  9  1  0
 11 10  1  1
 11 12  1  0
 12  5  1  0
 13 20  1  0
 13 11  1  0
 14 13  2  0
 15 16  1  0
 16 17  1  0
 17 18  1  6
 19 17  1  0
 19 20  1  1
 21 23  1  0
 21 19  1  0
 22 21  2  0
M  END
$$$$
