CMI.pdb
     RDKit          3D

 23 22  0  0  1  0  0  0  0  0999 V2000
    9.9246  -15.7362   19.5962 N   0  0  0  0  0  0  0  0  0  0  0  0
    9.3453  -16.4974   20.6523 C   0  0  1  0  0  0  0  0  0  0  0  0
   10.0596  -17.8367   20.7601 C   0  0  0  0  0  0  0  0  0  0  0  0
    9.0233  -19.1282   20.0163 S   0  0  0  0  0  0  0  0  0  0  0  0
    9.3812  -15.8521   21.9673 C   0  0  0  0  0  0  0  0  0  0  0  0
   10.4294  -15.2414   22.3022 O   0  0  0  0  0  0  0  0  0  0  0  0
    5.8276  -11.2087   25.6702 C   0  0  0  0  0  0  0  0  0  0  0  0
    5.6980  -12.9170   26.3217 S   0  0  0  0  0  0  0  0  0  0  0  0
    7.2088  -13.7983   25.8544 C   0  0  0  0  0  0  0  0  0  0  0  0
    7.0429  -14.4957   24.5063 C   0  0  0  0  0  0  0  0  0  0  0  0
    8.3628  -15.0949   24.1390 C   0  0  2  0  0  0  0  0  0  0  0  0
    8.3187  -15.8559   22.9123 N   0  0  0  0  0  0  0  0  0  0  0  0
    8.9778  -15.9081   25.1920 C   0  0  0  0  0  0  0  0  0  0  0  0
    9.0548  -17.1468   25.0032 O   0  0  0  0  0  0  0  0  0  0  0  0
   11.0866  -14.0843   30.3171 C   0  0  0  0  0  0  0  0  0  0  0  0
   10.2692  -14.8406   29.2946 C   0  0  0  0  0  0  0  0  0  0  0  0
   11.1489  -15.4618   28.2305 C   0  0  2  0  0  0  0  0  0  0  0  0
   11.9751  -14.3459   27.6338 C   0  0  0  0  0  0  0  0  0  0  0  0
   10.3584  -16.2049   27.2074 C   0  0  2  0  0  0  0  0  0  0  0  0
    9.4902  -15.3890   26.4060 N   0  0  0  0  0  0  0  0  0  0  0  0
    9.6787  -17.4166   27.7455 C   0  0  0  0  0  0  0  0  0  0  0  0
   10.2948  -18.3340   28.3381 O   0  0  0  0  0  0  0  0  0  0  0  0
    8.3028  -17.5981   27.6173 O   0  0  0  0  0  0  0  0  0  0  0  0
  2  1  1  6
  3  2  1  0
  4  3  1  0
  5  2  1  0
  6  5  2  0
  8  7  1  0
  9  8  1  0
 10  9  1  0
 11 10  1  1
 11 12  1  0
 12  5  1  0
 13 20  1  0
 13 11  1  0
 14 13  2  0
 15 16  1  0
 16 17  1  0
 17 18  1  6
 19 17  1  0
 19 20  1  1
 21 23  1  0
 21 19  1  0
 22 21  2  0
M  END
$$$$
