CMI.pdb
     RDKit          3D

 23 22  0  0  1  0  0  0  0  0999 V2000
    6.1561  -20.3082   22.5299 N   0  0  0  0  0  0  0  0  0  0  0  0
    6.5618  -19.4331   23.5787 C   0  0  1  0  0  0  0  0  0  0  0  0
    7.0995  -20.2542   24.7417 C   0  0  0  0  0  0  0  0  0  0  0  0
    5.9631  -20.1111   26.1499 S   0  0  0  0  0  0  0  0  0  0  0  0
    7.5819  -18.4515   23.2009 C   0  0  0  0  0  0  0  0  0  0  0  0
    8.7751  -18.8398   23.1048 O   0  0  0  0  0  0  0  0  0  0  0  0
    7.4920  -11.8610   20.4233 C   0  0  0  0  0  0  0  0  0  0  0  0
    6.3806  -13.3184   20.4462 S   0  0  0  0  0  0  0  0  0  0  0  0
    6.8950  -14.3788   21.8204 C   0  0  0  0  0  0  0  0  0  0  0  0
    8.0502  -15.2886   21.4092 C   0  0  0  0  0  0  0  0  0  0  0  0
    8.3897  -16.1510   22.5828 C   0  0  2  0  0  0  0  0  0  0  0  0
    7.3371  -17.0772   22.9294 N   0  0  0  0  0  0  0  0  0  0  0  0
    8.8019  -15.4152   23.7815 C   0  0  0  0  0  0  0  0  0  0  0  0
    9.3183  -14.2820   23.6223 O   0  0  0  0  0  0  0  0  0  0  0  0
    6.5665  -12.2230   26.5567 C   0  0  0  0  0  0  0  0  0  0  0  0
    7.0610  -13.6411   26.3824 C   0  0  0  0  0  0  0  0  0  0  0  0
    8.5625  -13.6859   26.1936 C   0  0  2  0  0  0  0  0  0  0  0  0
    8.8680  -12.9527   24.9079 C   0  0  0  0  0  0  0  0  0  0  0  0
    9.0914  -15.0801   26.2023 C   0  0  2  0  0  0  0  0  0  0  0  0
    8.6558  -15.8976   25.1051 N   0  0  0  0  0  0  0  0  0  0  0  0
    8.9531  -15.7607   27.5204 C   0  0  0  0  0  0  0  0  0  0  0  0
    9.3213  -15.2353   28.5978 O   0  0  0  0  0  0  0  0  0  0  0  0
    8.3997  -17.0352   27.6283 O   0  0  0  0  0  0  0  0  0  0  0  0
  2  1  1  6
  3  2  1  0
  4  3  1  0
  5  2  1  0
  6  5  2  0
  8  7  1  0
  9  8  1  0
 10  9  1  0
 11 10  1  6
 11 12  1  0
 12  5  1  0
 13 20  1  0
 13 11  1  0
 14 13  2  0
 15 16  1  0
 16 17  1  0
 17 18  1  6
 19 17  1  0
 19 20  1  6
 21 23  1  0
 21 19  1  0
 22 21  2  0
M  END
$$$$
