CMI.pdb
     RDKit          3D

 23 22  0  0  1  0  0  0  0  0999 V2000
    6.7180  -19.8057   22.5196 N   0  0  0  0  0  0  0  0  0  0  0  0
    6.3301  -18.4346   22.5144 C   0  0  1  0  0  0  0  0  0  0  0  0
    5.4784  -18.1461   23.7421 C   0  0  0  0  0  0  0  0  0  0  0  0
    6.4378  -18.5219   25.2365 S   0  0  0  0  0  0  0  0  0  0  0  0
    7.4421  -17.4807   22.4940 C   0  0  0  0  0  0  0  0  0  0  0  0
    8.6019  -17.9135   22.7205 O   0  0  0  0  0  0  0  0  0  0  0  0
    6.8112  -12.9319   17.6959 C   0  0  0  0  0  0  0  0  0  0  0  0
    7.3629  -12.5316   19.3974 S   0  0  0  0  0  0  0  0  0  0  0  0
    7.7275  -14.0933   20.2375 C   0  0  0  0  0  0  0  0  0  0  0  0
    8.1657  -13.8515   21.6800 C   0  0  0  0  0  0  0  0  0  0  0  0
    8.4478  -15.1834   22.2986 C   0  0  2  0  0  0  0  0  0  0  0  0
    7.3229  -16.0872   22.2368 N   0  0  0  0  0  0  0  0  0  0  0  0
    8.9460  -15.1232   23.6757 C   0  0  0  0  0  0  0  0  0  0  0  0
   10.1740  -14.9238   23.8441 O   0  0  0  0  0  0  0  0  0  0  0  0
    5.9111  -12.3445   26.8518 C   0  0  0  0  0  0  0  0  0  0  0  0
    7.0648  -12.9715   26.1024 C   0  0  0  0  0  0  0  0  0  0  0  0
    7.7462  -14.0421   26.9280 C   0  0  2  0  0  0  0  0  0  0  0  0
    8.4623  -13.3394   28.0581 C   0  0  0  0  0  0  0  0  0  0  0  0
    8.6565  -14.8930   26.1087 C   0  0  2  0  0  0  0  0  0  0  0  0
    8.1345  -15.2745   24.8265 N   0  0  0  0  0  0  0  0  0  0  0  0
    9.2359  -16.0408   26.8615 C   0  0  0  0  0  0  0  0  0  0  0  0
    9.0219  -17.2359   26.5479 O   0  0  0  0  0  0  0  0  0  0  0  0
   10.0579  -15.8453   27.9697 O   0  0  0  0  0  0  0  0  0  0  0  0
  2  1  1  1
  3  2  1  0
  4  3  1  0
  5  2  1  0
  6  5  2  0
  8  7  1  0
  9  8  1  0
 10  9  1  0
 11 10  1  1
 11 12  1  0
 12  5  1  0
 13 20  1  0
 13 11  1  0
 14 13  2  0
 15 16  1  0
 16 17  1  0
 17 18  1  1
 19 17  1  0
 19 20  1  6
 21 23  1  0
 21 19  1  0
 22 21  2  0
M  END
$$$$
