CMI.pdb
     RDKit          3D

 23 22  0  0  1  0  0  0  0  0999 V2000
    7.1794  -17.5694   18.5237 N   0  0  0  0  0  0  0  0  0  0  0  0
    7.7772  -16.6482   19.4318 C   0  0  1  0  0  0  0  0  0  0  0  0
    7.6292  -15.2348   18.8877 C   0  0  0  0  0  0  0  0  0  0  0  0
    8.1588  -14.0482   20.1552 S   0  0  0  0  0  0  0  0  0  0  0  0
    7.2257  -16.6765   20.7890 C   0  0  0  0  0  0  0  0  0  0  0  0
    5.9849  -16.5217   20.9307 O   0  0  0  0  0  0  0  0  0  0  0  0
    8.4873  -20.5171   25.8878 C   0  0  0  0  0  0  0  0  0  0  0  0
    6.7345  -19.9851   25.9508 S   0  0  0  0  0  0  0  0  0  0  0  0
    6.6228  -18.3681   25.1444 C   0  0  0  0  0  0  0  0  0  0  0  0
    7.2959  -18.3903   23.7741 C   0  0  0  0  0  0  0  0  0  0  0  0
    7.3712  -16.9803   23.2817 C   0  0  2  0  0  0  0  0  0  0  0  0
    7.9822  -16.8666   21.9780 N   0  0  0  0  0  0  0  0  0  0  0  0
    8.0210  -16.0456   24.2048 C   0  0  0  0  0  0  0  0  0  0  0  0
    9.2694  -15.9321   24.1381 O   0  0  0  0  0  0  0  0  0  0  0  0
    5.6293  -11.5627   26.3834 C   0  0  0  0  0  0  0  0  0  0  0  0
    6.6466  -12.4690   25.7281 C   0  0  0  0  0  0  0  0  0  0  0  0
    7.3249  -13.3661   26.7418 C   0  0  2  0  0  0  0  0  0  0  0  0
    8.1947  -12.4801   27.6034 C   0  0  0  0  0  0  0  0  0  0  0  0
    8.0888  -14.4717   26.0955 C   0  0  2  0  0  0  0  0  0  0  0  0
    7.3341  -15.2633   25.1650 N   0  0  0  0  0  0  0  0  0  0  0  0
    8.8680  -15.2990   27.0589 C   0  0  0  0  0  0  0  0  0  0  0  0
    8.3848  -16.2989   27.6412 O   0  0  0  0  0  0  0  0  0  0  0  0
   10.1939  -15.0020   27.3691 O   0  0  0  0  0  0  0  0  0  0  0  0
  2  1  1  6
  3  2  1  0
  4  3  1  0
  5  2  1  0
  6  5  2  0
  8  7  1  0
  9  8  1  0
 10  9  1  0
 11 10  1  1
 11 12  1  0
 12  5  1  0
 13 20  1  0
 13 11  1  0
 14 13  2  0
 15 16  1  0
 16 17  1  0
 17 18  1  6
 19 17  1  0
 19 20  1  1
 21 23  1  0
 21 19  1  0
 22 21  2  0
M  END
$$$$
