CMI.pdb
     RDKit          3D

 23 22  0  0  1  0  0  0  0  0999 V2000
    9.3071  -16.0626   19.9557 N   0  0  0  0  0  0  0  0  0  0  0  0
    8.5625  -16.4045   21.1215 C   0  0  1  0  0  0  0  0  0  0  0  0
    8.6923  -17.8980   21.3835 C   0  0  0  0  0  0  0  0  0  0  0  0
    7.3153  -18.7672   20.5814 S   0  0  0  0  0  0  0  0  0  0  0  0
    8.9604  -15.6901   22.3372 C   0  0  0  0  0  0  0  0  0  0  0  0
   10.1883  -15.5151   22.5500 O   0  0  0  0  0  0  0  0  0  0  0  0
    5.2376  -12.1081   26.3490 C   0  0  0  0  0  0  0  0  0  0  0  0
    6.8865  -11.7625   27.0710 S   0  0  0  0  0  0  0  0  0  0  0  0
    8.0673  -12.9077   26.3148 C   0  0  0  0  0  0  0  0  0  0  0  0
    7.4595  -13.5973   25.0957 C   0  0  0  0  0  0  0  0  0  0  0  0
    8.5186  -14.4591   24.4858 C   0  0  2  0  0  0  0  0  0  0  0  0
    8.0661  -15.1693   23.3125 N   0  0  0  0  0  0  0  0  0  0  0  0
    9.1444  -15.4053   25.4138 C   0  0  0  0  0  0  0  0  0  0  0  0
    8.5728  -16.5078   25.5974 O   0  0  0  0  0  0  0  0  0  0  0  0
   14.1549  -16.5935   24.9047 C   0  0  0  0  0  0  0  0  0  0  0  0
   12.6679  -16.4968   25.1602 C   0  0  0  0  0  0  0  0  0  0  0  0
   12.3590  -16.4886   26.6424 C   0  0  2  0  0  0  0  0  0  0  0  0
   12.8057  -17.8227   27.1939 C   0  0  0  0  0  0  0  0  0  0  0  0
   10.9217  -16.2023   26.9180 C   0  0  2  0  0  0  0  0  0  0  0  0
   10.3497  -15.1580   26.1154 N   0  0  0  0  0  0  0  0  0  0  0  0
   10.6123  -16.0521   28.3676 C   0  0  0  0  0  0  0  0  0  0  0  0
   10.1650  -14.9891   28.8599 O   0  0  0  0  0  0  0  0  0  0  0  0
   10.8061  -17.0992   29.2667 O   0  0  0  0  0  0  0  0  0  0  0  0
  2  1  1  6
  3  2  1  0
  4  3  1  0
  5  2  1  0
  6  5  2  0
  8  7  1  0
  9  8  1  0
 10  9  1  0
 11 10  1  1
 11 12  1  0
 12  5  1  0
 13 20  1  0
 13 11  1  0
 14 13  2  0
 15 16  1  0
 16 17  1  0
 17 18  1  6
 19 17  1  0
 19 20  1  6
 21 23  1  0
 21 19  1  0
 22 21  2  0
M  END
$$$$
