CMI.pdb
     RDKit          3D

 23 22  0  0  1  0  0  0  0  0999 V2000
    7.0944  -15.9233   18.7500 N   0  0  0  0  0  0  0  0  0  0  0  0
    7.8926  -15.1877   19.6731 C   0  0  1  0  0  0  0  0  0  0  0  0
    7.5262  -13.7127   19.5939 C   0  0  0  0  0  0  0  0  0  0  0  0
    8.5790  -12.9011   18.3578 S   0  0  0  0  0  0  0  0  0  0  0  0
    7.7707  -15.6154   21.0692 C   0  0  0  0  0  0  0  0  0  0  0  0
    6.6194  -15.6828   21.5728 O   0  0  0  0  0  0  0  0  0  0  0  0
   11.7885  -19.5450   24.8249 C   0  0  0  0  0  0  0  0  0  0  0  0
   10.0175  -19.8546   25.1820 S   0  0  0  0  0  0  0  0  0  0  0  0
    9.1122  -18.3265   24.8316 C   0  0  0  0  0  0  0  0  0  0  0  0
    9.3884  -17.8380   23.4116 C   0  0  0  0  0  0  0  0  0  0  0  0
    8.6684  -16.5401   23.2293 C   0  0  2  0  0  0  0  0  0  0  0  0
    8.8568  -15.9663   21.9174 N   0  0  0  0  0  0  0  0  0  0  0  0
    8.9659  -15.5291   24.2479 C   0  0  0  0  0  0  0  0  0  0  0  0
   10.0629  -14.9240   24.1670 O   0  0  0  0  0  0  0  0  0  0  0  0
    5.7363  -11.7074   26.2068 C   0  0  0  0  0  0  0  0  0  0  0  0
    6.8952  -12.5413   25.7094 C   0  0  0  0  0  0  0  0  0  0  0  0
    7.5340  -13.3296   26.8330 C   0  0  2  0  0  0  0  0  0  0  0  0
    8.0998  -12.3257   27.8107 C   0  0  0  0  0  0  0  0  0  0  0  0
    8.5592  -14.2917   26.3359 C   0  0  2  0  0  0  0  0  0  0  0  0
    8.0985  -15.1904   25.3151 N   0  0  0  0  0  0  0  0  0  0  0  0
    9.3010  -14.9863   27.4254 C   0  0  0  0  0  0  0  0  0  0  0  0
    9.0767  -16.1773   27.7475 O   0  0  0  0  0  0  0  0  0  0  0  0
   10.2977  -14.3410   28.1551 O   0  0  0  0  0  0  0  0  0  0  0  0
  2  1  1  6
  3  2  1  0
  4  3  1  0
  5  2  1  0
  6  5  2  0
  8  7  1  0
  9  8  1  0
 10  9  1  0
 11 10  1  1
 11 12  1  0
 12  5  1  0
 13 20  1  0
 13 11  1  0
 14 13  2  0
 15 16  1  0
 16 17  1  0
 17 18  1  1
 19 17  1  0
 19 20  1  1
 21 23  1  0
 21 19  1  0
 22 21  2  0
M  END
$$$$
