CMI.pdb
     RDKit          3D

 23 22  0  0  1  0  0  0  0  0999 V2000
    7.1605  -20.8017   22.6078 N   0  0  0  0  0  0  0  0  0  0  0  0
    6.7687  -19.5934   23.2533 C   0  0  1  0  0  0  0  0  0  0  0  0
    6.9371  -19.7471   24.7579 C   0  0  0  0  0  0  0  0  0  0  0  0
    5.9807  -18.4552   25.6013 S   0  0  0  0  0  0  0  0  0  0  0  0
    7.5080  -18.4015   22.8292 C   0  0  0  0  0  0  0  0  0  0  0  0
    8.7451  -18.5096   22.6251 O   0  0  0  0  0  0  0  0  0  0  0  0
    7.9417  -11.3484   19.5462 C   0  0  0  0  0  0  0  0  0  0  0  0
    6.9001  -12.8532   19.6474 S   0  0  0  0  0  0  0  0  0  0  0  0
    7.8382  -14.1096   20.5523 C   0  0  0  0  0  0  0  0  0  0  0  0
    6.9176  -15.2067   21.0819 C   0  0  0  0  0  0  0  0  0  0  0  0
    7.6920  -16.0076   22.0795 C   0  0  2  0  0  0  0  0  0  0  0  0
    6.9405  -17.1137   22.6250 N   0  0  0  0  0  0  0  0  0  0  0  0
    8.2669  -15.2241   23.1766 C   0  0  0  0  0  0  0  0  0  0  0  0
    8.6187  -14.0445   22.9300 O   0  0  0  0  0  0  0  0  0  0  0  0
    6.9403  -11.6210   26.8629 C   0  0  0  0  0  0  0  0  0  0  0  0
    7.9752  -12.7205   26.7864 C   0  0  0  0  0  0  0  0  0  0  0  0
    7.6115  -13.7528   25.7404 C   0  0  2  0  0  0  0  0  0  0  0  0
    6.2898  -14.3562   26.1562 C   0  0  0  0  0  0  0  0  0  0  0  0
    8.6816  -14.7757   25.5606 C   0  0  2  0  0  0  0  0  0  0  0  0
    8.4509  -15.7095   24.4944 N   0  0  0  0  0  0  0  0  0  0  0  0
    9.0906  -15.4385   26.8307 C   0  0  0  0  0  0  0  0  0  0  0  0
    9.3983  -14.7967   27.8631 O   0  0  0  0  0  0  0  0  0  0  0  0
    9.1541  -16.8264   26.9412 O   0  0  0  0  0  0  0  0  0  0  0  0
  2  1  1  6
  3  2  1  0
  4  3  1  0
  5  2  1  0
  6  5  2  0
  8  7  1  0
  9  8  1  0
 10  9  1  0
 11 10  1  1
 11 12  1  0
 12  5  1  0
 13 20  1  0
 13 11  1  0
 14 13  2  0
 15 16  1  0
 16 17  1  0
 17 18  1  1
 19 17  1  0
 19 20  1  6
 21 23  1  0
 21 19  1  0
 22 21  2  0
M  END
$$$$
