CMI.pdb
     RDKit          3D

 23 22  0  0  1  0  0  0  0  0999 V2000
    7.1259  -17.4864   20.7676 N   0  0  0  0  0  0  0  0  0  0  0  0
    8.4144  -16.8783   20.7576 C   0  0  1  0  0  0  0  0  0  0  0  0
    8.5381  -15.9771   19.5377 C   0  0  0  0  0  0  0  0  0  0  0  0
   10.2876  -15.5773   19.2650 S   0  0  0  0  0  0  0  0  0  0  0  0
    8.7290  -16.0837   21.9478 C   0  0  0  0  0  0  0  0  0  0  0  0
    9.9015  -15.6457   22.0784 O   0  0  0  0  0  0  0  0  0  0  0  0
    7.1896  -10.9650   26.8521 C   0  0  0  0  0  0  0  0  0  0  0  0
    6.4083  -12.6228   26.8766 S   0  0  0  0  0  0  0  0  0  0  0  0
    7.5968  -13.7996   26.1837 C   0  0  0  0  0  0  0  0  0  0  0  0
    7.0521  -14.4454   24.9118 C   0  0  0  0  0  0  0  0  0  0  0  0
    8.2048  -15.0625   24.1859 C   0  0  2  0  0  0  0  0  0  0  0  0
    7.8106  -15.7594   22.9839 N   0  0  0  0  0  0  0  0  0  0  0  0
    9.0403  -15.9445   25.0057 C   0  0  0  0  0  0  0  0  0  0  0  0
    8.5780  -17.0718   25.3080 O   0  0  0  0  0  0  0  0  0  0  0  0
   14.4010  -16.0776   24.2999 C   0  0  0  0  0  0  0  0  0  0  0  0
   12.9385  -16.4106   24.4900 C   0  0  0  0  0  0  0  0  0  0  0  0
   12.5784  -16.5108   25.9571 C   0  0  2  0  0  0  0  0  0  0  0  0
   13.3244  -17.7010   26.5147 C   0  0  0  0  0  0  0  0  0  0  0  0
   11.1056  -16.6006   26.1722 C   0  0  2  0  0  0  0  0  0  0  0  0
   10.3328  -15.6092   25.4779 N   0  0  0  0  0  0  0  0  0  0  0  0
   10.7205  -16.7340   27.6053 C   0  0  0  0  0  0  0  0  0  0  0  0
   10.3291  -15.7637   28.2964 O   0  0  0  0  0  0  0  0  0  0  0  0
   10.7756  -17.9611   28.2637 O   0  0  0  0  0  0  0  0  0  0  0  0
  2  1  1  1
  3  2  1  0
  4  3  1  0
  5  2  1  0
  6  5  2  0
  8  7  1  0
  9  8  1  0
 10  9  1  0
 11 10  1  1
 11 12  1  0
 12  5  1  0
 13 20  1  0
 13 11  1  0
 14 13  2  0
 15 16  1  0
 16 17  1  0
 17 18  1  6
 19 17  1  0
 19 20  1  1
 21 23  1  0
 21 19  1  0
 22 21  2  0
M  END
$$$$
