CMI.pdb
     RDKit          3D

 23 22  0  0  1  0  0  0  0  0999 V2000
    6.5647  -14.5246   18.3685 N   0  0  0  0  0  0  0  0  0  0  0  0
    7.5719  -14.6477   19.3689 C   0  0  1  0  0  0  0  0  0  0  0  0
    8.2736  -13.3091   19.5464 C   0  0  0  0  0  0  0  0  0  0  0  0
    9.6106  -13.4917   20.7605 S   0  0  0  0  0  0  0  0  0  0  0  0
    7.0867  -15.0877   20.6796 C   0  0  0  0  0  0  0  0  0  0  0  0
    6.0647  -14.5277   21.1548 O   0  0  0  0  0  0  0  0  0  0  0  0
    8.1356  -20.5072   25.1855 C   0  0  0  0  0  0  0  0  0  0  0  0
    6.4420  -20.0217   24.6799 S   0  0  0  0  0  0  0  0  0  0  0  0
    6.4662  -18.2491   24.3128 C   0  0  0  0  0  0  0  0  0  0  0  0
    7.1369  -17.9759   22.9686 C   0  0  0  0  0  0  0  0  0  0  0  0
    7.1571  -16.4948   22.7634 C   0  0  2  0  0  0  0  0  0  0  0  0
    7.6791  -16.1079   21.4735 N   0  0  0  0  0  0  0  0  0  0  0  0
    7.8514  -15.7430   23.8126 C   0  0  0  0  0  0  0  0  0  0  0  0
    9.0917  -15.5874   23.6961 O   0  0  0  0  0  0  0  0  0  0  0  0
    5.3110  -11.7300   26.4401 C   0  0  0  0  0  0  0  0  0  0  0  0
    6.3697  -12.4942   25.6780 C   0  0  0  0  0  0  0  0  0  0  0  0
    7.2080  -13.3519   26.6019 C   0  0  2  0  0  0  0  0  0  0  0  0
    8.0882  -12.4152   27.3965 C   0  0  0  0  0  0  0  0  0  0  0  0
    7.9865  -14.3857   25.8610 C   0  0  2  0  0  0  0  0  0  0  0  0
    7.2160  -15.1812   24.9469 N   0  0  0  0  0  0  0  0  0  0  0  0
    8.8710  -15.2052   26.7362 C   0  0  0  0  0  0  0  0  0  0  0  0
    9.9060  -14.7466   27.2755 O   0  0  0  0  0  0  0  0  0  0  0  0
    8.5918  -16.5436   27.0062 O   0  0  0  0  0  0  0  0  0  0  0  0
  2  1  1  6
  3  2  1  0
  4  3  1  0
  5  2  1  0
  6  5  2  0
  8  7  1  0
  9  8  1  0
 10  9  1  0
 11 10  1  1
 11 12  1  0
 12  5  1  0
 13 20  1  0
 13 11  1  0
 14 13  2  0
 15 16  1  0
 16 17  1  0
 17 18  1  6
 19 17  1  0
 19 20  1  1
 21 23  1  0
 21 19  1  0
 22 21  2  0
M  END
$$$$
