CMI.pdb
     RDKit          3D

 23 22  0  0  1  0  0  0  0  0999 V2000
    8.8810  -14.8627   19.6486 N   0  0  0  0  0  0  0  0  0  0  0  0
    7.9871  -15.3582   20.6413 C   0  0  1  0  0  0  0  0  0  0  0  0
    7.6618  -16.8152   20.3459 C   0  0  0  0  0  0  0  0  0  0  0  0
    6.4308  -17.4068   21.5417 S   0  0  0  0  0  0  0  0  0  0  0  0
    8.4847  -15.2699   22.0166 C   0  0  0  0  0  0  0  0  0  0  0  0
    9.7085  -15.4799   22.2215 O   0  0  0  0  0  0  0  0  0  0  0  0
    5.9975  -12.4580   27.6296 C   0  0  0  0  0  0  0  0  0  0  0  0
    6.9394  -11.5027   26.3806 S   0  0  0  0  0  0  0  0  0  0  0  0
    7.2347  -12.5922   24.9652 C   0  0  0  0  0  0  0  0  0  0  0  0
    7.3304  -14.0509   25.4058 C   0  0  0  0  0  0  0  0  0  0  0  0
    8.2622  -14.7490   24.4674 C   0  0  2  0  0  0  0  0  0  0  0  0
    7.6931  -14.9629   23.1574 N   0  0  0  0  0  0  0  0  0  0  0  0
    8.8031  -16.0138   24.9732 C   0  0  0  0  0  0  0  0  0  0  0  0
    8.0542  -17.0210   24.9475 O   0  0  0  0  0  0  0  0  0  0  0  0
   12.9075  -18.6794   23.3143 C   0  0  0  0  0  0  0  0  0  0  0  0
   11.6320  -18.1361   23.9173 C   0  0  0  0  0  0  0  0  0  0  0  0
   11.7294  -18.0364   25.4248 C   0  0  2  0  0  0  0  0  0  0  0  0
   12.0253  -19.4255   25.9411 C   0  0  0  0  0  0  0  0  0  0  0  0
   10.5029  -17.4443   26.0320 C   0  0  2  0  0  0  0  0  0  0  0  0
   10.1129  -16.1740   25.4877 N   0  0  0  0  0  0  0  0  0  0  0  0
   10.5111  -17.4566   27.5218 C   0  0  0  0  0  0  0  0  0  0  0  0
   10.6855  -18.5024   28.1913 O   0  0  0  0  0  0  0  0  0  0  0  0
   10.3226  -16.2905   28.2615 O   0  0  0  0  0  0  0  0  0  0  0  0
  2  1  1  6
  3  2  1  0
  4  3  1  0
  5  2  1  0
  6  5  2  0
  8  7  1  0
  9  8  1  0
 10  9  1  0
 11 10  1  1
 11 12  1  0
 12  5  1  0
 13 20  1  0
 13 11  1  0
 14 13  2  0
 15 16  1  0
 16 17  1  0
 17 18  1  1
 19 17  1  0
 19 20  1  1
 21 23  1  0
 21 19  1  0
 22 21  2  0
M  END
$$$$
