RQT.pdb
     RDKit          3D

 28 27  0  0  1  0  0  0  0  0999 V2000
   10.9496  -14.3388  -12.4331 N   0  0  0  0  0  0  0  0  0  0  0  0
   10.7953  -13.4816  -11.2835 C   0  0  0  0  0  0  0  0  0  0  0  0
   10.3413  -13.9618  -10.1982 N   0  0  0  0  0  0  0  0  0  0  0  0
   11.1435  -12.1108  -11.3465 N   0  0  0  0  0  0  0  0  0  0  0  0
   11.7382  -11.6032  -12.5940 C   0  0  0  0  0  0  0  0  0  0  0  0
   13.1936  -11.9688  -12.5575 C   0  0  0  0  0  0  0  0  0  0  0  0
   14.0279  -11.4693  -13.6764 C   0  0  0  0  0  0  0  0  0  0  0  0
   15.4678  -11.8867  -13.6821 C   0  0  2  0  0  0  0  0  0  0  0  0
   15.6133  -13.1922  -13.1240 N   0  0  0  0  0  0  0  0  0  0  0  0
   16.2163  -10.8631  -12.8900 C   0  0  0  0  0  0  0  0  0  0  0  0
   16.3957  -11.1096  -11.6560 O   0  0  0  0  0  0  0  0  0  0  0  0
   10.1901  -13.5015   -9.3005 N   0  0  0  0  0  0  0  0  0  0  0  0
   21.4530   -7.8548  -14.1114 C   0  0  0  0  0  0  0  0  0  0  0  0
   21.0225   -7.2132  -12.9108 O   0  0  0  0  0  0  0  0  0  0  0  0
   21.8396   -6.4593  -12.3689 C   0  0  0  0  0  0  0  0  0  0  0  0
   19.6939   -7.4898  -12.4329 C   0  0  0  0  0  0  0  0  0  0  0  0
   18.8307   -8.4630  -13.1207 C   0  0  1  0  0  0  0  0  0  0  0  0
   17.4687   -8.7145  -12.5909 N   0  0  0  0  0  0  0  0  0  0  0  0
   16.7240   -9.6713  -13.4075 C   0  0  0  0  0  0  0  0  0  0  0  0
   16.6826   -7.5501  -12.1812 O   0  0  0  0  0  0  0  0  0  0  0  0
   16.0443   -6.9087  -13.0465 C   0  0  0  0  0  0  0  0  0  0  0  0
   16.9483   -6.0153   -8.1177 C   0  0  2  0  0  0  0  0  0  0  0  0
   15.6388   -6.1203   -8.8312 O   0  0  0  0  0  0  0  0  0  0  0  0
   14.8369   -5.0566   -8.4494 C   0  0  1  0  0  0  0  0  0  0  0  0
   15.8087   -6.0501  -10.3441 N   0  0  0  0  0  0  0  0  0  0  0  0
   16.6288   -7.1350  -10.8334 C   0  0  0  0  0  0  0  0  0  0  0  0
   16.3061   -4.7323  -10.7706 O   0  0  0  0  0  0  0  0  0  0  0  0
   17.4584   -4.6046  -11.2217 O   0  0  0  0  0  0  0  0  0  0  0  0
  2  1  1  0
  3  2  2  0
  4  2  1  0
  5  6  1  0
  5  4  1  0
  6  7  1  0
  8  7  1  0
  8  9  1  1
 10  8  1  0
 10 11  2  0
 12 13  1  0
 13 14  2  0
 13 15  1  0
 15 16  1  0
 17 16  1  1
 17 18  1  0
 18 10  1  0
 19 17  1  0
 20 19  2  0
 22 21  1  1
 22 24  1  0
 23 22  1  0
 24 26  1  0
 24 25  1  1
 25 19  1  0
 26 28  1  0
 27 26  2  0
M  END
$$$$
