RQT.pdb
     RDKit          3D

 28 27  0  0  1  0  0  0  0  0999 V2000
   27.2586  -25.3063  -16.4472 N   0  0  0  0  0  0  0  0  0  0  0  0
   25.9223  -25.3007  -16.9897 C   0  0  0  0  0  0  0  0  0  0  0  0
   25.2976  -26.3979  -17.1328 N   0  0  0  0  0  0  0  0  0  0  0  0
   25.2950  -24.0883  -17.3656 N   0  0  0  0  0  0  0  0  0  0  0  0
   26.0499  -23.1512  -18.2139 C   0  0  0  0  0  0  0  0  0  0  0  0
   27.0131  -22.4345  -17.3129 C   0  0  0  0  0  0  0  0  0  0  0  0
   26.4724  -21.2842  -16.5501 C   0  0  0  0  0  0  0  0  0  0  0  0
   26.1173  -20.0596  -17.3385 C   0  0  2  0  0  0  0  0  0  0  0  0
   27.2554  -19.2110  -17.4860 N   0  0  0  0  0  0  0  0  0  0  0  0
   25.0133  -19.3754  -16.5978 C   0  0  0  0  0  0  0  0  0  0  0  0
   25.3516  -18.6021  -15.6473 O   0  0  0  0  0  0  0  0  0  0  0  0
   24.3704  -26.5683  -17.5224 N   0  0  0  0  0  0  0  0  0  0  0  0
   21.2323  -15.3689  -18.5475 C   0  0  0  0  0  0  0  0  0  0  0  0
   22.6311  -15.6534  -18.5141 O   0  0  0  0  0  0  0  0  0  0  0  0
   23.3604  -14.8939  -19.1630 C   0  0  0  0  0  0  0  0  0  0  0  0
   23.0752  -16.7829  -17.7416 C   0  0  0  0  0  0  0  0  0  0  0  0
   22.1121  -17.6355  -17.0269 C   0  0  2  0  0  0  0  0  0  0  0  0
   22.6217  -18.7507  -16.1928 N   0  0  0  0  0  0  0  0  0  0  0  0
   23.6548  -19.5270  -16.8761 C   0  0  0  0  0  0  0  0  0  0  0  0
   21.6325  -19.5712  -15.4928 O   0  0  0  0  0  0  0  0  0  0  0  0
   20.9021  -20.3442  -16.1537 C   0  0  0  0  0  0  0  0  0  0  0  0
   20.8908  -18.8464  -11.3209 C   0  0  2  0  0  0  0  0  0  0  0  0
   20.8325  -20.2461  -11.8430 O   0  0  0  0  0  0  0  0  0  0  0  0
   19.8164  -20.9237  -11.1884 C   0  0  1  0  0  0  0  0  0  0  0  0
   20.5251  -20.2836  -13.3353 N   0  0  0  0  0  0  0  0  0  0  0  0
   21.4842  -19.5098  -14.0907 C   0  0  0  0  0  0  0  0  0  0  0  0
   19.1364  -19.8817  -13.6104 O   0  0  0  0  0  0  0  0  0  0  0  0
   18.1850  -20.5950  -13.2447 O   0  0  0  0  0  0  0  0  0  0  0  0
  2  1  1  0
  3  2  2  0
  4  2  1  0
  5  6  1  0
  5  4  1  0
  6  7  1  0
  8  7  1  0
  8  9  1  1
 10  8  1  0
 10 11  2  0
 12 13  1  0
 13 14  2  0
 13 15  1  0
 15 16  1  0
 17 16  1  1
 17 18  1  0
 18 10  1  0
 19 17  1  0
 20 19  2  0
 22 21  1  1
 22 24  1  0
 23 22  1  0
 24 26  1  0
 24 25  1  1
 25 19  1  0
 26 28  1  0
 27 26  2  0
M  END
$$$$
