RQT.pdb
     RDKit          3D

 28 27  0  0  1  0  0  0  0  0999 V2000
   26.8676  -16.0188  -15.2354 N   0  0  0  0  0  0  0  0  0  0  0  0
   27.5258  -15.4887  -16.4042 C   0  0  0  0  0  0  0  0  0  0  0  0
   27.3786  -14.2634  -16.7067 N   0  0  0  0  0  0  0  0  0  0  0  0
   28.3354  -16.3150  -17.2205 N   0  0  0  0  0  0  0  0  0  0  0  0
   28.5185  -17.7197  -16.8194 C   0  0  0  0  0  0  0  0  0  0  0  0
   27.2552  -18.4415  -17.1884 C   0  0  0  0  0  0  0  0  0  0  0  0
   27.1571  -19.8589  -16.7654 C   0  0  0  0  0  0  0  0  0  0  0  0
   27.5626  -20.1715  -15.3564 C   0  0  2  0  0  0  0  0  0  0  0  0
   28.6075  -21.1436  -15.3396 N   0  0  0  0  0  0  0  0  0  0  0  0
   26.3384  -20.6674  -14.6557 C   0  0  0  0  0  0  0  0  0  0  0  0
   25.4540  -21.2316  -15.3735 O   0  0  0  0  0  0  0  0  0  0  0  0
   27.7783  -13.7363  -17.4831 N   0  0  0  0  0  0  0  0  0  0  0  0
   24.6154  -20.8562   -8.5807 C   0  0  0  0  0  0  0  0  0  0  0  0
   25.8735  -20.4354   -9.1087 O   0  0  0  0  0  0  0  0  0  0  0  0
   26.5734  -19.7366   -8.3661 C   0  0  0  0  0  0  0  0  0  0  0  0
   26.2224  -20.8499  -10.4416 C   0  0  0  0  0  0  0  0  0  0  0  0
   25.2885  -21.6451  -11.2546 C   0  0  1  0  0  0  0  0  0  0  0  0
   24.9639  -21.1882  -12.6275 N   0  0  0  0  0  0  0  0  0  0  0  0
   26.1049  -20.5538  -13.2851 C   0  0  0  0  0  0  0  0  0  0  0  0
   23.7012  -20.4728  -12.8154 O   0  0  0  0  0  0  0  0  0  0  0  0
   23.5899  -19.3047  -12.3785 C   0  0  0  0  0  0  0  0  0  0  0  0
   21.1192  -21.4586  -16.0047 C   0  0  2  0  0  0  0  0  0  0  0  0
   21.1567  -20.1739  -15.2411 O   0  0  0  0  0  0  0  0  0  0  0  0
   19.9462  -19.5207  -15.4087 C   0  0  1  0  0  0  0  0  0  0  0  0
   21.3528  -20.4059  -13.7477 N   0  0  0  0  0  0  0  0  0  0  0  0
   22.6076  -21.0704  -13.4776 C   0  0  0  0  0  0  0  0  0  0  0  0
   20.2043  -21.1105  -13.1557 O   0  0  0  0  0  0  0  0  0  0  0  0
   20.3456  -22.2346  -12.6418 O   0  0  0  0  0  0  0  0  0  0  0  0
  2  1  1  0
  3  2  2  0
  4  2  1  0
  5  6  1  0
  5  4  1  0
  6  7  1  0
  8  7  1  0
  8  9  1  6
 10  8  1  0
 10 11  2  0
 12 13  1  0
 13 14  2  0
 13 15  1  0
 15 16  1  0
 17 16  1  6
 17 18  1  0
 18 10  1  0
 19 17  1  0
 20 19  2  0
 22 21  1  6
 22 24  1  0
 23 22  1  0
 24 26  1  0
 24 25  1  6
 25 19  1  0
 26 28  1  0
 27 26  2  0
M  END
$$$$
