RQT.pdb
     RDKit          3D

 28 27  0  0  1  0  0  0  0  0999 V2000
   19.5912  -21.9097  -10.2126 N   0  0  0  0  0  0  0  0  0  0  0  0
   20.3828  -22.2303   -9.0503 C   0  0  0  0  0  0  0  0  0  0  0  0
   19.8835  -22.9486   -8.1287 N   0  0  0  0  0  0  0  0  0  0  0  0
   21.7105  -21.7559   -8.9213 N   0  0  0  0  0  0  0  0  0  0  0  0
   22.3890  -21.2573  -10.1290 C   0  0  0  0  0  0  0  0  0  0  0  0
   23.7483  -20.7890   -9.6975 C   0  0  0  0  0  0  0  0  0  0  0  0
   24.5796  -20.1312  -10.7336 C   0  0  0  0  0  0  0  0  0  0  0  0
   25.4911  -21.0167  -11.5289 C   0  0  2  0  0  0  0  0  0  0  0  0
   26.4882  -21.5947  -10.6870 N   0  0  0  0  0  0  0  0  0  0  0  0
   26.0989  -20.1628  -12.5952 C   0  0  0  0  0  0  0  0  0  0  0  0
   27.1384  -19.5026  -12.2801 O   0  0  0  0  0  0  0  0  0  0  0  0
   20.3094  -23.2766   -7.2618 N   0  0  0  0  0  0  0  0  0  0  0  0
   27.6576  -21.7917  -18.2223 C   0  0  0  0  0  0  0  0  0  0  0  0
   26.3028  -21.3412  -18.2135 O   0  0  0  0  0  0  0  0  0  0  0  0
   25.6031  -21.6897  -19.1720 C   0  0  0  0  0  0  0  0  0  0  0  0
   25.8651  -20.5299  -17.1089 C   0  0  0  0  0  0  0  0  0  0  0  0
   26.7943  -20.1557  -16.0310 C   0  0  1  0  0  0  0  0  0  0  0  0
   26.3069  -19.2869  -14.9326 N   0  0  0  0  0  0  0  0  0  0  0  0
   25.6080  -20.0436  -13.8955 C   0  0  0  0  0  0  0  0  0  0  0  0
   25.6354  -18.0423  -15.3094 O   0  0  0  0  0  0  0  0  0  0  0  0
   24.3879  -17.9728  -15.2293 C   0  0  0  0  0  0  0  0  0  0  0  0
   27.7590  -14.9178  -17.4479 C   0  0  2  0  0  0  0  0  0  0  0  0
   26.8333  -14.5794  -16.3239 O   0  0  0  0  0  0  0  0  0  0  0  0
   26.1811  -13.3945  -16.6253 C   0  0  1  0  0  0  0  0  0  0  0  0
   25.7702  -15.6523  -16.1206 N   0  0  0  0  0  0  0  0  0  0  0  0
   26.3629  -16.9204  -15.7606 C   0  0  0  0  0  0  0  0  0  0  0  0
   24.8805  -15.7584  -17.2881 O   0  0  0  0  0  0  0  0  0  0  0  0
   25.0919  -16.6082  -18.1718 O   0  0  0  0  0  0  0  0  0  0  0  0
  2  1  1  0
  3  2  2  0
  4  2  1  0
  5  6  1  0
  5  4  1  0
  6  7  1  0
  8  7  1  0
  8  9  1  1
 10  8  1  0
 10 11  2  0
 12 13  1  0
 13 14  2  0
 13 15  1  0
 15 16  1  0
 17 16  1  1
 17 18  1  0
 18 10  1  0
 19 17  1  0
 20 19  2  0
 22 21  1  1
 22 24  1  0
 23 22  1  0
 24 26  1  0
 24 25  1  1
 25 19  1  0
 26 28  1  0
 27 26  2  0
M  END
$$$$
