RQT.pdb
     RDKit          3D

 28 27  0  0  1  0  0  0  0  0999 V2000
   18.5605  -24.5453   -7.0337 N   0  0  0  0  0  0  0  0  0  0  0  0
   17.7748  -25.5280   -7.7388 C   0  0  0  0  0  0  0  0  0  0  0  0
   16.8516  -26.1510   -7.1270 N   0  0  0  0  0  0  0  0  0  0  0  0
   18.0172  -25.8089   -9.1051 N   0  0  0  0  0  0  0  0  0  0  0  0
   18.9877  -24.9671   -9.8243 C   0  0  0  0  0  0  0  0  0  0  0  0
   18.2105  -23.8348  -10.4301 C   0  0  0  0  0  0  0  0  0  0  0  0
   18.9819  -22.8662  -11.2450 C   0  0  0  0  0  0  0  0  0  0  0  0
   19.7024  -21.7824  -10.5009 C   0  0  2  0  0  0  0  0  0  0  0  0
   18.7750  -20.8327   -9.9765 N   0  0  0  0  0  0  0  0  0  0  0  0
   20.6487  -21.1498  -11.4704 C   0  0  0  0  0  0  0  0  0  0  0  0
   20.2571  -20.0856  -12.0447 O   0  0  0  0  0  0  0  0  0  0  0  0
   16.2181  -26.8715   -7.4733 N   0  0  0  0  0  0  0  0  0  0  0  0
   26.9943  -21.9666  -12.2672 C   0  0  0  0  0  0  0  0  0  0  0  0
   26.5958  -21.2043  -13.4067 O   0  0  0  0  0  0  0  0  0  0  0  0
   27.4940  -20.8879  -14.1959 C   0  0  0  0  0  0  0  0  0  0  0  0
   25.2035  -20.8688  -13.5451 C   0  0  0  0  0  0  0  0  0  0  0  0
   24.2136  -21.3287  -12.5584 C   0  0  1  0  0  0  0  0  0  0  0  0
   22.7817  -21.0101  -12.7761 N   0  0  0  0  0  0  0  0  0  0  0  0
   21.9156  -21.6429  -11.7830 C   0  0  0  0  0  0  0  0  0  0  0  0
   22.2749  -21.1018  -14.1459 O   0  0  0  0  0  0  0  0  0  0  0  0
   22.0693  -22.2307  -14.6469 C   0  0  0  0  0  0  0  0  0  0  0  0
   19.0862  -19.7001  -15.7053 C   0  0  2  0  0  0  0  0  0  0  0  0
   20.2613  -19.0980  -16.4064 O   0  0  0  0  0  0  0  0  0  0  0  0
   20.5380  -17.8664  -15.8347 C   0  0  2  0  0  0  0  0  0  0  0  0
   21.5094  -19.9616  -16.2678 N   0  0  0  0  0  0  0  0  0  0  0  0
   22.0132  -19.9466  -14.9132 C   0  0  0  0  0  0  0  0  0  0  0  0
   22.5361  -19.5883  -17.2540 O   0  0  0  0  0  0  0  0  0  0  0  0
   22.3217  -19.7166  -18.4727 O   0  0  0  0  0  0  0  0  0  0  0  0
  2  1  1  0
  3  2  2  0
  4  2  1  0
  5  6  1  0
  5  4  1  0
  6  7  1  0
  8  7  1  0
  8  9  1  6
 10  8  1  0
 10 11  2  0
 12 13  1  0
 13 14  2  0
 13 15  1  0
 15 16  1  0
 17 16  1  1
 17 18  1  0
 18 10  1  0
 19 17  1  0
 20 19  2  0
 22 21  1  6
 22 24  1  0
 23 22  1  0
 24 26  1  0
 24 25  1  6
 25 19  1  0
 26 28  1  0
 27 26  2  0
M  END
$$$$
