RQT.pdb
     RDKit          3D

 28 27  0  0  1  0  0  0  0  0999 V2000
   17.2932  -22.2830  -12.4344 N   0  0  0  0  0  0  0  0  0  0  0  0
   16.4080  -21.6168  -13.3579 C   0  0  0  0  0  0  0  0  0  0  0  0
   15.3229  -21.1100  -12.9334 N   0  0  0  0  0  0  0  0  0  0  0  0
   16.7313  -21.5187  -14.7328 N   0  0  0  0  0  0  0  0  0  0  0  0
   18.1153  -21.1723  -15.0965 C   0  0  0  0  0  0  0  0  0  0  0  0
   18.4842  -19.9638  -14.2861 C   0  0  0  0  0  0  0  0  0  0  0  0
   19.8326  -19.9685  -13.6704 C   0  0  0  0  0  0  0  0  0  0  0  0
   20.6658  -21.1967  -13.8815 C   0  0  2  0  0  0  0  0  0  0  0  0
   20.2557  -22.2386  -12.9963 N   0  0  0  0  0  0  0  0  0  0  0  0
   22.0873  -20.7996  -13.6425 C   0  0  0  0  0  0  0  0  0  0  0  0
   22.4984  -19.7515  -14.2327 O   0  0  0  0  0  0  0  0  0  0  0  0
   14.5628  -20.6766  -13.4578 N   0  0  0  0  0  0  0  0  0  0  0  0
   25.6747  -20.9884   -8.5046 C   0  0  0  0  0  0  0  0  0  0  0  0
   26.6432  -20.7830   -9.5334 O   0  0  0  0  0  0  0  0  0  0  0  0
   27.8097  -20.6088   -9.1610 C   0  0  0  0  0  0  0  0  0  0  0  0
   26.1936  -20.7940  -10.9000 C   0  0  0  0  0  0  0  0  0  0  0  0
   24.7905  -21.0884  -11.2318 C   0  0  1  0  0  0  0  0  0  0  0  0
   24.3721  -21.0783  -12.6544 N   0  0  0  0  0  0  0  0  0  0  0  0
   22.9809  -21.4931  -12.8261 C   0  0  0  0  0  0  0  0  0  0  0  0
   25.2897  -21.6717  -13.6278 O   0  0  0  0  0  0  0  0  0  0  0  0
   25.5701  -22.8888  -13.5400 C   0  0  0  0  0  0  0  0  0  0  0  0
   25.4462  -20.4186  -17.6140 C   0  0  2  0  0  0  0  0  0  0  0  0
   26.7623  -20.5017  -16.9096 O   0  0  0  0  0  0  0  0  0  0  0  0
   27.0984  -19.2409  -16.4434 C   0  0  2  0  0  0  0  0  0  0  0  0
   26.7058  -21.4378  -15.7083 N   0  0  0  0  0  0  0  0  0  0  0  0
   25.8646  -20.9025  -14.6619 C   0  0  0  0  0  0  0  0  0  0  0  0
   28.0537  -21.7797  -15.2268 O   0  0  0  0  0  0  0  0  0  0  0  0
   28.4366  -21.4156  -14.1005 O   0  0  0  0  0  0  0  0  0  0  0  0
  2  1  1  0
  3  2  2  0
  4  2  1  0
  5  6  1  0
  5  4  1  0
  6  7  1  0
  8  7  1  0
  8  9  1  1
 10  8  1  0
 10 11  2  0
 12 13  1  0
 13 14  2  0
 13 15  1  0
 15 16  1  0
 17 16  1  1
 17 18  1  0
 18 10  1  0
 19 17  1  0
 20 19  2  0
 22 21  1  6
 22 24  1  0
 23 22  1  0
 24 26  1  0
 24 25  1  6
 25 19  1  0
 26 28  1  0
 27 26  2  0
M  END
$$$$
