RQT.pdb
     RDKit          3D

 28 27  0  0  1  0  0  0  0  0999 V2000
   22.5143  -10.6735  -19.7821 N   0  0  0  0  0  0  0  0  0  0  0  0
   21.7883  -11.9162  -19.8760 C   0  0  0  0  0  0  0  0  0  0  0  0
   22.3742  -12.9545  -20.3158 N   0  0  0  0  0  0  0  0  0  0  0  0
   20.4301  -11.9964  -19.4843 N   0  0  0  0  0  0  0  0  0  0  0  0
   19.8061  -10.7992  -18.8971 C   0  0  0  0  0  0  0  0  0  0  0  0
   20.1541  -10.8040  -17.4369 C   0  0  0  0  0  0  0  0  0  0  0  0
   19.5711   -9.7162  -16.6158 C   0  0  0  0  0  0  0  0  0  0  0  0
   19.8227   -9.7774  -15.1392 C   0  0  2  0  0  0  0  0  0  0  0  0
   19.0497  -10.8180  -14.5419 N   0  0  0  0  0  0  0  0  0  0  0  0
   19.4619   -8.4366  -14.5846 C   0  0  0  0  0  0  0  0  0  0  0  0
   18.2230   -8.1750  -14.4731 O   0  0  0  0  0  0  0  0  0  0  0  0
   22.0083  -13.8978  -20.4450 N   0  0  0  0  0  0  0  0  0  0  0  0
   20.0623   -5.1310   -9.6283 C   0  0  0  0  0  0  0  0  0  0  0  0
   19.3970   -6.3229  -10.0470 O   0  0  0  0  0  0  0  0  0  0  0  0
   18.8481   -6.9851   -9.1583 C   0  0  0  0  0  0  0  0  0  0  0  0
   19.4174   -6.6550  -11.4467 C   0  0  0  0  0  0  0  0  0  0  0  0
   20.1203   -5.7999  -12.4162 C   0  0  2  0  0  0  0  0  0  0  0  0
   19.9876   -6.0962  -13.8631 N   0  0  0  0  0  0  0  0  0  0  0  0
   20.3817   -7.4661  -14.1870 C   0  0  0  0  0  0  0  0  0  0  0  0
   20.4988   -5.0970  -14.8022 O   0  0  0  0  0  0  0  0  0  0  0  0
   21.7228   -5.0753  -15.0650 C   0  0  0  0  0  0  0  0  0  0  0  0
   18.8611   -4.4059  -18.3067 C   0  0  2  0  0  0  0  0  0  0  0  0
   19.0039   -3.1253  -17.5486 O   0  0  0  0  0  0  0  0  0  0  0  0
   17.7919   -2.8263  -16.9469 C   0  0  2  0  0  0  0  0  0  0  0  0
   20.0520   -3.2307  -16.4472 N   0  0  0  0  0  0  0  0  0  0  0  0
   19.6429   -4.1584  -15.4171 C   0  0  0  0  0  0  0  0  0  0  0  0
   20.4011   -1.9074  -15.9061 O   0  0  0  0  0  0  0  0  0  0  0  0
   20.1424   -1.6166  -14.7245 O   0  0  0  0  0  0  0  0  0  0  0  0
  2  1  1  0
  3  2  2  0
  4  2  1  0
  5  6  1  0
  5  4  1  0
  6  7  1  0
  8  7  1  0
  8  9  1  1
 10  8  1  0
 10 11  2  0
 12 13  1  0
 13 14  2  0
 13 15  1  0
 15 16  1  0
 17 16  1  1
 17 18  1  0
 18 10  1  0
 19 17  1  0
 20 19  2  0
 22 21  1  6
 22 24  1  0
 23 22  1  0
 24 26  1  0
 24 25  1  6
 25 19  1  0
 26 28  1  0
 27 26  2  0
M  END
$$$$
