RQT.pdb
     RDKit          3D

 28 27  0  0  1  0  0  0  0  0999 V2000
   19.5973  -20.2787  -13.6565 N   0  0  0  0  0  0  0  0  0  0  0  0
   20.9251  -20.7870  -13.8990 C   0  0  0  0  0  0  0  0  0  0  0  0
   21.5545  -20.4278  -14.9428 N   0  0  0  0  0  0  0  0  0  0  0  0
   21.5387  -21.6816  -12.9892 N   0  0  0  0  0  0  0  0  0  0  0  0
   20.7756  -22.0914  -11.7987 C   0  0  0  0  0  0  0  0  0  0  0  0
   19.8698  -23.2077  -12.2306 C   0  0  0  0  0  0  0  0  0  0  0  0
   18.9407  -23.7384  -11.2046 C   0  0  0  0  0  0  0  0  0  0  0  0
   19.4390  -24.8795  -10.3698 C   0  0  2  0  0  0  0  0  0  0  0  0
   19.6040  -26.0505  -11.1690 N   0  0  0  0  0  0  0  0  0  0  0  0
   18.4325  -25.0914   -9.2847 C   0  0  0  0  0  0  0  0  0  0  0  0
   17.4470  -25.8475   -9.5544 O   0  0  0  0  0  0  0  0  0  0  0  0
   22.4938  -20.6799  -15.2506 N   0  0  0  0  0  0  0  0  0  0  0  0
   18.3148  -28.1142   -4.6174 C   0  0  0  0  0  0  0  0  0  0  0  0
   18.0982  -26.7456   -4.2730 O   0  0  0  0  0  0  0  0  0  0  0  0
   17.3616  -26.5348   -3.3021 C   0  0  0  0  0  0  0  0  0  0  0  0
   18.7427  -25.7356   -5.0695 C   0  0  0  0  0  0  0  0  0  0  0  0
   17.9768  -24.6092   -5.6261 C   0  0  2  0  0  0  0  0  0  0  0  0
   17.4546  -24.7106   -7.0103 N   0  0  0  0  0  0  0  0  0  0  0  0
   18.5014  -24.5221   -8.0130 C   0  0  0  0  0  0  0  0  0  0  0  0
   16.2123  -23.9985   -7.3124 O   0  0  0  0  0  0  0  0  0  0  0  0
   16.2688  -22.8109   -7.7052 C   0  0  0  0  0  0  0  0  0  0  0  0
   13.2544  -25.4187   -9.5570 C   0  0  2  0  0  0  0  0  0  0  0  0
   12.7637  -25.0174   -8.2030 O   0  0  0  0  0  0  0  0  0  0  0  0
   12.7141  -26.1426   -7.3957 C   0  0  2  0  0  0  0  0  0  0  0  0
   13.6947  -24.0119   -7.5361 N   0  0  0  0  0  0  0  0  0  0  0  0
   14.9536  -24.6208   -7.1707 C   0  0  0  0  0  0  0  0  0  0  0  0
   13.0419  -23.3439   -6.3988 O   0  0  0  0  0  0  0  0  0  0  0  0
   13.4308  -23.5475   -5.2348 O   0  0  0  0  0  0  0  0  0  0  0  0
  2  1  1  0
  3  2  2  0
  4  2  1  0
  5  6  1  0
  5  4  1  0
  6  7  1  0
  8  7  1  0
  8  9  1  6
 10  8  1  0
 10 11  2  0
 12 13  1  0
 13 14  2  0
 13 15  1  0
 15 16  1  0
 17 16  1  1
 17 18  1  0
 18 10  1  0
 19 17  1  0
 20 19  2  0
 22 21  1  6
 22 24  1  0
 23 22  1  0
 24 26  1  0
 24 25  1  1
 25 19  1  0
 26 28  1  0
 27 26  2  0
M  END
$$$$
