RQT.pdb
     RDKit          3D

 28 27  0  0  1  0  0  0  0  0999 V2000
   23.2556  -21.5239   -7.1652 N   0  0  0  0  0  0  0  0  0  0  0  0
   22.7152  -21.0694   -8.4228 C   0  0  0  0  0  0  0  0  0  0  0  0
   21.4560  -20.9895   -8.5736 N   0  0  0  0  0  0  0  0  0  0  0  0
   23.5688  -20.7098   -9.4937 N   0  0  0  0  0  0  0  0  0  0  0  0
   24.9754  -21.1404   -9.4335 C   0  0  0  0  0  0  0  0  0  0  0  0
   25.3290  -21.6500  -10.8004 C   0  0  0  0  0  0  0  0  0  0  0  0
   25.8595  -20.6525  -11.7600 C   0  0  0  0  0  0  0  0  0  0  0  0
   25.0189  -20.3654  -12.9676 C   0  0  2  0  0  0  0  0  0  0  0  0
   24.1308  -21.4515  -13.2297 N   0  0  0  0  0  0  0  0  0  0  0  0
   25.9622  -20.1391  -14.1054 C   0  0  0  0  0  0  0  0  0  0  0  0
   27.1609  -19.8390  -13.8075 O   0  0  0  0  0  0  0  0  0  0  0  0
   20.9188  -20.7290   -9.4006 N   0  0  0  0  0  0  0  0  0  0  0  0
   28.9617  -23.1881  -17.0272 C   0  0  0  0  0  0  0  0  0  0  0  0
   27.6466  -23.4863  -16.5579 O   0  0  0  0  0  0  0  0  0  0  0  0
   27.4876  -24.5999  -16.0439 C   0  0  0  0  0  0  0  0  0  0  0  0
   26.6262  -22.4847  -16.7179 C   0  0  0  0  0  0  0  0  0  0  0  0
   26.9447  -21.1654  -17.2863 C   0  0  2  0  0  0  0  0  0  0  0  0
   26.5689  -19.9476  -16.5281 N   0  0  0  0  0  0  0  0  0  0  0  0
   25.6193  -20.2339  -15.4543 C   0  0  0  0  0  0  0  0  0  0  0  0
   26.2413  -18.7497  -17.3024 O   0  0  0  0  0  0  0  0  0  0  0  0
   25.0421  -18.4119  -17.4271 C   0  0  0  0  0  0  0  0  0  0  0  0
   27.7772  -15.2775  -16.7786 C   0  0  2  0  0  0  0  0  0  0  0  0
   27.9543  -15.6393  -18.2182 O   0  0  0  0  0  0  0  0  0  0  0  0
   29.2471  -16.1016  -18.4056 C   0  0  2  0  0  0  0  0  0  0  0  0
   27.0012  -16.7488  -18.6467 N   0  0  0  0  0  0  0  0  0  0  0  0
   27.2467  -17.9682  -17.9107 C   0  0  0  0  0  0  0  0  0  0  0  0
   27.0333  -16.9549  -20.1035 O   0  0  0  0  0  0  0  0  0  0  0  0
   27.3331  -18.0638  -20.5811 O   0  0  0  0  0  0  0  0  0  0  0  0
  2  1  1  0
  3  2  2  0
  4  2  1  0
  5  6  1  0
  5  4  1  0
  6  7  1  0
  8  7  1  0
  8  9  1  6
 10  8  1  0
 10 11  2  0
 12 13  1  0
 13 14  2  0
 13 15  1  0
 15 16  1  0
 17 16  1  1
 17 18  1  0
 18 10  1  0
 19 17  1  0
 20 19  2  0
 22 21  1  6
 22 24  1  0
 23 22  1  0
 24 26  1  0
 24 25  1  6
 25 19  1  0
 26 28  1  0
 27 26  2  0
M  END
$$$$
