RQT.pdb
     RDKit          3D

 28 27  0  0  1  0  0  0  0  0999 V2000
   32.7242  -24.1012  -13.6826 N   0  0  0  0  0  0  0  0  0  0  0  0
   33.3415  -23.1295  -12.8137 C   0  0  0  0  0  0  0  0  0  0  0  0
   34.5615  -23.2656  -12.4854 N   0  0  0  0  0  0  0  0  0  0  0  0
   32.6070  -22.0241  -12.3207 N   0  0  0  0  0  0  0  0  0  0  0  0
   31.1806  -21.9271  -12.6726 C   0  0  0  0  0  0  0  0  0  0  0  0
   31.0347  -20.7187  -13.5511 C   0  0  0  0  0  0  0  0  0  0  0  0
   29.6878  -20.4751  -14.1201 C   0  0  0  0  0  0  0  0  0  0  0  0
   28.9323  -21.6768  -14.6024 C   0  0  2  0  0  0  0  0  0  0  0  0
   29.0531  -21.8095  -16.0184 N   0  0  0  0  0  0  0  0  0  0  0  0
   27.5087  -21.4861  -14.1871 C   0  0  0  0  0  0  0  0  0  0  0  0
   26.6230  -21.6306  -15.0873 O   0  0  0  0  0  0  0  0  0  0  0  0
   35.1272  -22.7021  -11.8507 N   0  0  0  0  0  0  0  0  0  0  0  0
   24.8925  -20.2011   -8.5222 C   0  0  0  0  0  0  0  0  0  0  0  0
   23.8408  -20.8569   -9.2311 O   0  0  0  0  0  0  0  0  0  0  0  0
   22.7228  -20.8279   -8.7032 C   0  0  0  0  0  0  0  0  0  0  0  0
   24.1591  -21.4902  -10.4832 C   0  0  0  0  0  0  0  0  0  0  0  0
   25.5190  -21.4209  -11.0410 C   0  0  2  0  0  0  0  0  0  0  0  0
   25.6870  -21.1824  -12.4949 N   0  0  0  0  0  0  0  0  0  0  0  0
   27.0929  -21.1642  -12.8950 C   0  0  0  0  0  0  0  0  0  0  0  0
   24.8880  -20.1140  -13.0962 O   0  0  0  0  0  0  0  0  0  0  0  0
   25.1261  -18.9245  -12.7860 C   0  0  0  0  0  0  0  0  0  0  0  0
   24.4239  -18.8895  -16.5085 C   0  0  2  0  0  0  0  0  0  0  0  0
   23.0599  -19.3191  -16.0730 O   0  0  0  0  0  0  0  0  0  0  0  0
   22.8055  -20.5811  -16.5858 C   0  0  2  0  0  0  0  0  0  0  0  0
   22.9491  -19.4070  -14.5555 N   0  0  0  0  0  0  0  0  0  0  0  0
   23.8561  -20.3951  -14.0170 C   0  0  0  0  0  0  0  0  0  0  0  0
   21.5584  -19.6277  -14.1279 O   0  0  0  0  0  0  0  0  0  0  0  0
   21.2367  -20.6686  -13.5272 O   0  0  0  0  0  0  0  0  0  0  0  0
  2  1  1  0
  3  2  2  0
  4  2  1  0
  5  6  1  0
  5  4  1  0
  6  7  1  0
  8  7  1  0
  8  9  1  6
 10  8  1  0
 10 11  2  0
 12 13  1  0
 13 14  2  0
 13 15  1  0
 15 16  1  0
 17 16  1  6
 17 18  1  0
 18 10  1  0
 19 17  1  0
 20 19  2  0
 22 21  1  6
 22 24  1  0
 23 22  1  0
 24 26  1  0
 24 25  1  1
 25 19  1  0
 26 28  1  0
 27 26  2  0
M  END
$$$$
