RQT.pdb
     RDKit          3D

 28 27  0  0  1  0  0  0  0  0999 V2000
   33.2667  -10.1770  -17.6457 N   0  0  0  0  0  0  0  0  0  0  0  0
   32.6463  -11.4504  -17.9176 C   0  0  0  0  0  0  0  0  0  0  0  0
   33.3694  -12.4878  -18.0423 N   0  0  0  0  0  0  0  0  0  0  0  0
   31.2408  -11.5616  -18.0475 N   0  0  0  0  0  0  0  0  0  0  0  0
   30.4321  -10.3404  -17.8989 C   0  0  0  0  0  0  0  0  0  0  0  0
   28.9988  -10.7479  -18.0803 C   0  0  0  0  0  0  0  0  0  0  0  0
   28.1808  -10.8508  -16.8483 C   0  0  0  0  0  0  0  0  0  0  0  0
   26.7681  -11.3237  -17.0148 C   0  0  2  0  0  0  0  0  0  0  0  0
   26.6924  -12.3313  -18.0229 N   0  0  0  0  0  0  0  0  0  0  0  0
   25.9514  -10.1239  -17.3738 C   0  0  0  0  0  0  0  0  0  0  0  0
   25.5282  -10.0536  -18.5704 O   0  0  0  0  0  0  0  0  0  0  0  0
   33.1074  -13.4264  -18.3437 N   0  0  0  0  0  0  0  0  0  0  0  0
   21.2789   -7.6607  -14.2579 C   0  0  0  0  0  0  0  0  0  0  0  0
   21.2482   -8.6109  -15.3232 O   0  0  0  0  0  0  0  0  0  0  0  0
   20.2074   -9.2686  -15.4411 C   0  0  0  0  0  0  0  0  0  0  0  0
   22.4115   -8.7276  -16.1616 C   0  0  0  0  0  0  0  0  0  0  0  0
   23.5831   -7.8619  -15.9534 C   0  0  2  0  0  0  0  0  0  0  0  0
   24.7415   -7.9892  -16.8704 N   0  0  0  0  0  0  0  0  0  0  0  0
   25.6274   -9.0898  -16.4953 C   0  0  0  0  0  0  0  0  0  0  0  0
   25.4480   -6.7600  -17.2334 O   0  0  0  0  0  0  0  0  0  0  0  0
   26.1991   -6.2160  -16.3923 C   0  0  0  0  0  0  0  0  0  0  0  0
   27.7522   -6.3774  -20.2485 C   0  0  2  0  0  0  0  0  0  0  0  0
   26.6974   -5.3216  -20.3367 O   0  0  0  0  0  0  0  0  0  0  0  0
   25.6960   -5.7624  -21.1871 C   0  0  2  0  0  0  0  0  0  0  0  0
   26.0606   -5.0399  -18.9811 N   0  0  0  0  0  0  0  0  0  0  0  0
   25.3008   -6.1754  -18.5093 C   0  0  0  0  0  0  0  0  0  0  0  0
   25.2653   -3.8018  -19.0054 O   0  0  0  0  0  0  0  0  0  0  0  0
   24.0329   -3.8359  -18.8390 O   0  0  0  0  0  0  0  0  0  0  0  0
  2  1  1  0
  3  2  2  0
  4  2  1  0
  5  6  1  0
  5  4  1  0
  6  7  1  0
  8  7  1  0
  8  9  1  6
 10  8  1  0
 10 11  2  0
 12 13  1  0
 13 14  2  0
 13 15  1  0
 15 16  1  0
 17 16  1  6
 17 18  1  0
 18 10  1  0
 19 17  1  0
 20 19  2  0
 22 21  1  6
 22 24  1  0
 23 22  1  0
 24 26  1  0
 24 25  1  1
 25 19  1  0
 26 28  1  0
 27 26  2  0
M  END
$$$$
