RQT.pdb
     RDKit          3D

 28 27  0  0  1  0  0  0  0  0999 V2000
   29.4438  -17.6391  -19.2502 N   0  0  0  0  0  0  0  0  0  0  0  0
   28.3191  -16.7367  -19.2810 C   0  0  0  0  0  0  0  0  0  0  0  0
   28.0489  -16.1057  -20.3504 N   0  0  0  0  0  0  0  0  0  0  0  0
   27.5100  -16.5435  -18.1353 N   0  0  0  0  0  0  0  0  0  0  0  0
   27.8741  -17.2586  -16.9010 C   0  0  0  0  0  0  0  0  0  0  0  0
   27.3207  -18.6481  -17.0286 C   0  0  0  0  0  0  0  0  0  0  0  0
   26.3799  -19.0838  -15.9691 C   0  0  0  0  0  0  0  0  0  0  0  0
   26.9627  -19.8638  -14.8292 C   0  0  2  0  0  0  0  0  0  0  0  0
   27.9098  -20.8184  -15.3077 N   0  0  0  0  0  0  0  0  0  0  0  0
   25.8186  -20.5263  -14.1309 C   0  0  0  0  0  0  0  0  0  0  0  0
   25.3345  -21.5658  -14.6793 O   0  0  0  0  0  0  0  0  0  0  0  0
   27.2859  -15.4569  -20.5434 N   0  0  0  0  0  0  0  0  0  0  0  0
   24.5751  -21.2737   -7.9982 C   0  0  0  0  0  0  0  0  0  0  0  0
   25.7506  -21.2454   -8.8080 O   0  0  0  0  0  0  0  0  0  0  0  0
   26.8290  -21.3562   -8.2127 C   0  0  0  0  0  0  0  0  0  0  0  0
   25.5912  -21.0921  -10.2297 C   0  0  0  0  0  0  0  0  0  0  0  0
   24.2707  -20.8140  -10.8165 C   0  0  2  0  0  0  0  0  0  0  0  0
   24.1353  -20.7741  -12.2926 N   0  0  0  0  0  0  0  0  0  0  0  0
   25.2542  -20.0857  -12.9337 C   0  0  0  0  0  0  0  0  0  0  0  0
   22.8269  -20.4081  -12.8366 O   0  0  0  0  0  0  0  0  0  0  0  0
   22.5023  -19.1999  -12.8866 C   0  0  0  0  0  0  0  0  0  0  0  0
   21.4099  -21.5788  -16.2227 C   0  0  2  0  0  0  0  0  0  0  0  0
   20.4087  -21.9086  -15.1626 O   0  0  0  0  0  0  0  0  0  0  0  0
   20.5356  -23.2481  -14.8313 C   0  0  2  0  0  0  0  0  0  0  0  0
   20.6364  -21.0961  -13.8934 N   0  0  0  0  0  0  0  0  0  0  0  0
   21.9244  -21.3865  -13.3054 C   0  0  0  0  0  0  0  0  0  0  0  0
   19.5303  -21.2668  -12.9378 O   0  0  0  0  0  0  0  0  0  0  0  0
   19.7367  -21.7412  -11.8064 O   0  0  0  0  0  0  0  0  0  0  0  0
  2  1  1  0
  3  2  2  0
  4  2  1  0
  5  6  1  0
  5  4  1  0
  6  7  1  0
  8  7  1  0
  8  9  1  6
 10  8  1  0
 10 11  2  0
 12 13  1  0
 13 14  2  0
 13 15  1  0
 15 16  1  0
 17 16  1  6
 17 18  1  0
 18 10  1  0
 19 17  1  0
 20 19  2  0
 22 21  1  6
 22 24  1  0
 23 22  1  0
 24 26  1  0
 24 25  1  1
 25 19  1  0
 26 28  1  0
 27 26  2  0
M  END
$$$$
