WLR.pdb
     RDKit          3D

 34 35  0  0  1  0  0  0  0  0999 V2000
   26.6232  -20.7458  -13.4031 N   0  0  0  0  0  0  0  0  0  0  0  0
   25.4698  -20.4770  -12.5765 C   0  0  1  0  0  0  0  0  0  0  0  0
   24.2895  -21.2278  -13.1652 C   0  0  0  0  0  0  0  0  0  0  0  0
   23.8564  -20.6522  -14.4514 C   0  0  0  0  0  0  0  0  0  0  0  0
   24.1441  -21.2268  -15.6927 C   0  0  0  0  0  0  0  0  0  0  0  0
   23.6542  -20.4484  -16.6704 N   0  0  0  0  0  0  0  0  0  0  0  0
   23.0527  -19.3812  -16.1311 C   0  0  0  0  0  0  0  0  0  0  0  0
   22.4009  -18.3108  -16.7049 C   0  0  0  0  0  0  0  0  0  0  0  0
   21.8550  -17.3369  -15.8974 C   0  0  0  0  0  0  0  0  0  0  0  0
   21.9755  -17.4597  -14.5370 C   0  0  0  0  0  0  0  0  0  0  0  0
   22.6235  -18.5226  -13.9614 C   0  0  0  0  0  0  0  0  0  0  0  0
   23.1707  -19.4960  -14.7521 C   0  0  0  0  0  0  0  0  0  0  0  0
   25.7832  -21.0075  -11.2020 C   0  0  0  0  0  0  0  0  0  0  0  0
   26.0061  -22.2233  -10.9747 O   0  0  0  0  0  0  0  0  0  0  0  0
   28.2448  -20.8244   -6.9653 C   0  0  0  0  0  0  0  0  0  0  0  0
   27.8769  -19.4794   -7.6055 C   0  0  2  0  0  0  0  0  0  0  0  0
   28.4317  -18.4071   -6.7166 C   0  0  0  0  0  0  0  0  0  0  0  0
   26.4065  -19.4832   -7.7761 C   0  0  0  0  0  0  0  0  0  0  0  0
   25.8714  -20.5497   -8.7219 C   0  0  2  0  0  0  0  0  0  0  0  0
   25.8399  -20.1048  -10.0737 N   0  0  0  0  0  0  0  0  0  0  0  0
   24.6201  -21.1440   -8.2071 C   0  0  0  0  0  0  0  0  0  0  0  0
   23.5186  -20.4861   -8.2620 O   0  0  0  0  0  0  0  0  0  0  0  0
   21.6488  -28.0578   -5.4897 N   0  0  0  0  0  0  0  0  0  0  0  0
   23.0136  -28.4378   -5.4899 C   0  0  0  0  0  0  0  0  0  0  0  0
   23.3795  -29.6850   -5.4386 N   0  0  0  0  0  0  0  0  0  0  0  0
   23.9838  -27.4116   -5.5502 N   0  0  0  0  0  0  0  0  0  0  0  0
   23.6119  -26.0002   -5.3487 C   0  0  0  0  0  0  0  0  0  0  0  0
   24.2028  -25.2370   -6.4643 C   0  0  0  0  0  0  0  0  0  0  0  0
   23.3150  -24.3885   -7.2345 C   0  0  0  0  0  0  0  0  0  0  0  0
   23.1794  -22.9325   -7.1115 C   0  0  2  0  0  0  0  0  0  0  0  0
   24.5140  -22.4347   -7.6323 N   0  0  0  0  0  0  0  0  0  0  0  0
   23.0759  -22.3691   -5.7801 C   0  0  0  0  0  0  0  0  0  0  0  0
   24.1009  -21.9334   -5.1451 O   0  0  0  0  0  0  0  0  0  0  0  0
   21.8690  -22.2475   -5.1021 O   0  0  0  0  0  0  0  0  0  0  0  0
  2  1  1  6
  2  3  1  0
  3  4  1  0
  4  5  2  0
  5  6  1  0
  7  8  2  0
  7  6  1  0
  9  8  1  0
 10  9  2  0
 11 10  1  0
 11 12  2  0
 12  4  1  0
 12  7  1  0
 13  2  1  0
 13 20  1  0
 14 13  2  0
 16 15  1  1
 16 17  1  0
 19 18  1  1
 18 16  1  0
 19 20  1  0
 19 21  1  0
 21 22  2  0
 21 31  1  0
 23 24  1  0
 24 26  1  0
 25 24  2  0
 26 27  1  0
 28 27  1  0
 29 28  1  0
 30 32  1  0
 30 29  1  1
 31 30  1  0
 32 34  1  0
 33 32  2  0
M  END
$$$$
