WLR.pdb
     RDKit          3D

 34 35  0  0  1  0  0  0  0  0999 V2000
   25.6774  -18.3783   -9.0471 N   0  0  0  0  0  0  0  0  0  0  0  0
   26.4281  -19.5711   -9.3624 C   0  0  1  0  0  0  0  0  0  0  0  0
   26.4648  -20.4409   -8.1193 C   0  0  0  0  0  0  0  0  0  0  0  0
   27.2635  -19.8289   -7.0419 C   0  0  0  0  0  0  0  0  0  0  0  0
   27.5733  -18.4671   -6.9859 C   0  0  0  0  0  0  0  0  0  0  0  0
   28.3459  -18.2276   -5.9147 N   0  0  0  0  0  0  0  0  0  0  0  0
   28.5622  -19.3728   -5.2563 C   0  0  0  0  0  0  0  0  0  0  0  0
   29.2755  -19.6485   -4.1097 C   0  0  0  0  0  0  0  0  0  0  0  0
   29.3269  -20.9419   -3.6373 C   0  0  0  0  0  0  0  0  0  0  0  0
   28.6631  -21.9254   -4.3247 C   0  0  0  0  0  0  0  0  0  0  0  0
   27.9524  -21.6560   -5.4664 C   0  0  0  0  0  0  0  0  0  0  0  0
   27.8942  -20.3760   -5.9463 C   0  0  0  0  0  0  0  0  0  0  0  0
   25.6830  -20.2788  -10.4637 C   0  0  0  0  0  0  0  0  0  0  0  0
   24.4348  -20.4245  -10.4583 O   0  0  0  0  0  0  0  0  0  0  0  0
   27.2339  -18.8230  -14.6018 C   0  0  0  0  0  0  0  0  0  0  0  0
   27.9690  -20.0716  -14.0973 C   0  0  2  0  0  0  0  0  0  0  0  0
   29.0751  -20.3496  -15.0706 C   0  0  0  0  0  0  0  0  0  0  0  0
   26.9471  -21.1334  -13.9575 C   0  0  0  0  0  0  0  0  0  0  0  0
   25.8745  -20.8601  -12.9119 C   0  0  2  0  0  0  0  0  0  0  0  0
   26.4053  -20.8240  -11.5916 N   0  0  0  0  0  0  0  0  0  0  0  0
   24.6966  -21.7299  -13.1120 C   0  0  0  0  0  0  0  0  0  0  0  0
   24.7129  -22.9480  -12.7057 O   0  0  0  0  0  0  0  0  0  0  0  0
   18.1452  -24.0695  -11.0559 N   0  0  0  0  0  0  0  0  0  0  0  0
   18.6842  -23.4159   -9.9204 C   0  0  0  0  0  0  0  0  0  0  0  0
   18.6718  -23.9651   -8.7413 N   0  0  0  0  0  0  0  0  0  0  0  0
   19.2466  -22.1321  -10.1037 N   0  0  0  0  0  0  0  0  0  0  0  0
   19.3216  -21.5182  -11.4410 C   0  0  0  0  0  0  0  0  0  0  0  0
   20.2405  -22.3477  -12.2433 C   0  0  0  0  0  0  0  0  0  0  0  0
   21.3559  -21.6779  -12.8826 C   0  0  0  0  0  0  0  0  0  0  0  0
   22.3143  -22.2816  -13.8156 C   0  0  2  0  0  0  0  0  0  0  0  0
   23.4909  -21.3278  -13.7383 N   0  0  0  0  0  0  0  0  0  0  0  0
   21.9655  -22.3152  -15.2220 C   0  0  0  0  0  0  0  0  0  0  0  0
   22.3204  -21.3873  -16.0324 O   0  0  0  0  0  0  0  0  0  0  0  0
   21.2384  -23.3508  -15.7963 O   0  0  0  0  0  0  0  0  0  0  0  0
  2  1  1  1
  2  3  1  0
  3  4  1  0
  4  5  2  0
  5  6  1  0
  7  8  2  0
  7  6  1  0
  9  8  1  0
 10  9  2  0
 11 10  1  0
 11 12  2  0
 12  4  1  0
 12  7  1  0
 13  2  1  0
 13 20  1  0
 14 13  2  0
 16 15  1  6
 16 17  1  0
 19 18  1  6
 18 16  1  0
 19 20  1  0
 19 21  1  0
 21 22  2  0
 21 31  1  0
 23 24  1  0
 24 26  1  0
 25 24  2  0
 26 27  1  0
 28 27  1  0
 29 28  1  0
 30 32  1  0
 30 29  1  1
 31 30  1  0
 32 34  1  0
 33 32  2  0
M  END
$$$$
