WLR.pdb
     RDKit          3D

 34 35  0  0  1  0  0  0  0  0999 V2000
   27.4533  -21.5018  -13.4413 N   0  0  0  0  0  0  0  0  0  0  0  0
   27.0987  -20.4900  -12.4737 C   0  0  1  0  0  0  0  0  0  0  0  0
   25.7498  -19.9185  -12.8702 C   0  0  0  0  0  0  0  0  0  0  0  0
   25.8023  -19.2379  -14.1768 C   0  0  0  0  0  0  0  0  0  0  0  0
   25.3490  -19.8123  -15.3677 C   0  0  0  0  0  0  0  0  0  0  0  0
   25.5711  -18.9660  -16.3857 N   0  0  0  0  0  0  0  0  0  0  0  0
   26.1523  -17.8532  -15.9213 C   0  0  0  0  0  0  0  0  0  0  0  0
   26.5671  -16.7034  -16.5580 C   0  0  0  0  0  0  0  0  0  0  0  0
   27.1389  -15.6888  -15.8216 C   0  0  0  0  0  0  0  0  0  0  0  0
   27.2803  -15.8514  -14.4674 C   0  0  0  0  0  0  0  0  0  0  0  0
   26.8695  -16.9939  -13.8294 C   0  0  0  0  0  0  0  0  0  0  0  0
   26.3011  -18.0091  -14.5493 C   0  0  0  0  0  0  0  0  0  0  0  0
   26.9929  -21.1793  -11.1386 C   0  0  0  0  0  0  0  0  0  0  0  0
   26.3462  -22.2436  -10.9698 O   0  0  0  0  0  0  0  0  0  0  0  0
   28.0603  -18.5583   -5.6010 C   0  0  0  0  0  0  0  0  0  0  0  0
   27.3147  -19.6795   -6.3366 C   0  0  2  0  0  0  0  0  0  0  0  0
   27.5574  -20.9428   -5.5665 C   0  0  0  0  0  0  0  0  0  0  0  0
   27.8075  -19.6668   -7.7324 C   0  0  0  0  0  0  0  0  0  0  0  0
   27.0673  -20.5964   -8.6843 C   0  0  2  0  0  0  0  0  0  0  0  0
   27.6544  -20.6194   -9.9809 N   0  0  0  0  0  0  0  0  0  0  0  0
   25.6091  -20.3604   -8.6386 C   0  0  0  0  0  0  0  0  0  0  0  0
   25.1095  -19.2873   -9.1364 O   0  0  0  0  0  0  0  0  0  0  0  0
   20.7909  -21.6348  -14.4027 N   0  0  0  0  0  0  0  0  0  0  0  0
   19.7637  -21.5330  -13.4323 C   0  0  0  0  0  0  0  0  0  0  0  0
   18.5049  -21.5610  -13.7589 N   0  0  0  0  0  0  0  0  0  0  0  0
   20.1467  -21.4001  -12.0782 N   0  0  0  0  0  0  0  0  0  0  0  0
   21.5668  -21.3223  -11.6933 C   0  0  0  0  0  0  0  0  0  0  0  0
   21.6060  -21.1608  -10.2275 C   0  0  0  0  0  0  0  0  0  0  0  0
   22.9106  -21.1199   -9.5968 C   0  0  0  0  0  0  0  0  0  0  0  0
   23.1794  -20.9488   -8.1643 C   0  0  2  0  0  0  0  0  0  0  0  0
   24.6630  -21.2499   -8.0718 N   0  0  0  0  0  0  0  0  0  0  0  0
   22.5615  -21.8791   -7.2405 C   0  0  0  0  0  0  0  0  0  0  0  0
   23.1684  -22.9299   -6.8267 O   0  0  0  0  0  0  0  0  0  0  0  0
   21.2825  -21.6990   -6.7280 O   0  0  0  0  0  0  0  0  0  0  0  0
  2  1  1  6
  2  3  1  0
  3  4  1  0
  4  5  2  0
  5  6  1  0
  7  8  2  0
  7  6  1  0
  9  8  1  0
 10  9  2  0
 11 10  1  0
 11 12  2  0
 12  4  1  0
 12  7  1  0
 13  2  1  0
 13 20  1  0
 14 13  2  0
 16 15  1  1
 16 17  1  0
 19 18  1  1
 18 16  1  0
 19 20  1  0
 19 21  1  0
 21 22  2  0
 21 31  1  0
 23 24  1  0
 24 26  1  0
 25 24  2  0
 26 27  1  0
 28 27  1  0
 29 28  1  0
 30 32  1  0
 30 29  1  6
 31 30  1  0
 32 34  1  0
 33 32  2  0
M  END
$$$$
