WLR.pdb
     RDKit          3D

 34 35  0  0  1  0  0  0  0  0999 V2000
   26.7308  -20.1389  -17.0446 N   0  0  0  0  0  0  0  0  0  0  0  0
   26.3718  -19.4298  -15.8388 C   0  0  1  0  0  0  0  0  0  0  0  0
   24.9166  -19.0155  -15.9577 C   0  0  0  0  0  0  0  0  0  0  0  0
   24.7339  -17.9154  -16.9219 C   0  0  0  0  0  0  0  0  0  0  0  0
   24.3637  -18.1085  -18.2558 C   0  0  0  0  0  0  0  0  0  0  0  0
   24.3224  -16.9234  -18.8848 N   0  0  0  0  0  0  0  0  0  0  0  0
   24.6490  -15.9509  -18.0250 C   0  0  0  0  0  0  0  0  0  0  0  0
   24.7441  -14.5849  -18.1815 C   0  0  0  0  0  0  0  0  0  0  0  0
   25.0998  -13.8019  -17.1049 C   0  0  0  0  0  0  0  0  0  0  0  0
   25.3509  -14.4065  -15.9000 C   0  0  0  0  0  0  0  0  0  0  0  0
   25.2580  -15.7654  -15.7395 C   0  0  0  0  0  0  0  0  0  0  0  0
   24.9065  -16.5541  -16.8008 C   0  0  0  0  0  0  0  0  0  0  0  0
   26.5396  -20.3967  -14.6961 C   0  0  0  0  0  0  0  0  0  0  0  0
   26.1958  -21.6033  -14.7676 O   0  0  0  0  0  0  0  0  0  0  0  0
   27.1767  -20.6295   -9.2062 C   0  0  0  0  0  0  0  0  0  0  0  0
   28.2265  -21.3049  -10.0983 C   0  0  2  0  0  0  0  0  0  0  0  0
   29.5067  -21.3357   -9.3186 C   0  0  0  0  0  0  0  0  0  0  0  0
   28.2575  -20.5391  -11.3648 C   0  0  0  0  0  0  0  0  0  0  0  0
   27.0163  -20.6841  -12.2346 C   0  0  2  0  0  0  0  0  0  0  0  0
   27.1204  -19.9495  -13.4495 N   0  0  0  0  0  0  0  0  0  0  0  0
   25.7831  -20.4654  -11.4501 C   0  0  0  0  0  0  0  0  0  0  0  0
   25.4683  -19.2860  -11.0513 O   0  0  0  0  0  0  0  0  0  0  0  0
   18.5099  -24.1253  -11.6750 N   0  0  0  0  0  0  0  0  0  0  0  0
   18.0464  -23.0297  -10.9056 C   0  0  0  0  0  0  0  0  0  0  0  0
   16.7822  -22.7344  -10.8226 N   0  0  0  0  0  0  0  0  0  0  0  0
   19.0069  -22.2538  -10.2177 N   0  0  0  0  0  0  0  0  0  0  0  0
   20.4333  -22.6230  -10.2297 C   0  0  0  0  0  0  0  0  0  0  0  0
   21.1258  -21.6329  -11.0761 C   0  0  0  0  0  0  0  0  0  0  0  0
   22.5631  -21.7631  -11.2130 C   0  0  0  0  0  0  0  0  0  0  0  0
   23.5788  -21.1279  -10.3654 C   0  0  2  0  0  0  0  0  0  0  0  0
   24.8689  -21.4825  -11.0795 N   0  0  0  0  0  0  0  0  0  0  0  0
   23.7567  -21.6364   -9.0198 C   0  0  0  0  0  0  0  0  0  0  0  0
   24.4389  -22.6946   -8.7781 O   0  0  0  0  0  0  0  0  0  0  0  0
   23.2178  -21.0157   -7.8994 O   0  0  0  0  0  0  0  0  0  0  0  0
  2  1  1  6
  2  3  1  0
  3  4  1  0
  4  5  2  0
  5  6  1  0
  7  8  2  0
  7  6  1  0
  9  8  1  0
 10  9  2  0
 11 10  1  0
 11 12  2  0
 12  4  1  0
 12  7  1  0
 13  2  1  0
 13 20  1  0
 14 13  2  0
 16 15  1  1
 16 17  1  0
 19 18  1  1
 18 16  1  0
 19 20  1  0
 19 21  1  0
 21 22  2  0
 21 31  1  0
 23 24  1  0
 24 26  1  0
 25 24  2  0
 26 27  1  0
 28 27  1  0
 29 28  1  0
 30 32  1  0
 30 29  1  6
 31 30  1  0
 32 34  1  0
 33 32  2  0
M  END
$$$$
