WLR.pdb
     RDKit          3D

 34 35  0  0  1  0  0  0  0  0999 V2000
   27.3350  -21.2143  -13.1635 N   0  0  0  0  0  0  0  0  0  0  0  0
   26.1323  -20.6687  -12.5789 C   0  0  1  0  0  0  0  0  0  0  0  0
   24.9533  -21.1493  -13.4048 C   0  0  0  0  0  0  0  0  0  0  0  0
   24.8390  -20.4179  -14.6797 C   0  0  0  0  0  0  0  0  0  0  0  0
   25.7107  -20.5994  -15.7571 C   0  0  0  0  0  0  0  0  0  0  0  0
   25.3735  -19.7628  -16.7513 N   0  0  0  0  0  0  0  0  0  0  0  0
   24.3142  -19.0336  -16.3801 C   0  0  0  0  0  0  0  0  0  0  0  0
   23.5998  -18.0563  -17.0388 C   0  0  0  0  0  0  0  0  0  0  0  0
   22.5253  -17.4631  -16.4127 C   0  0  0  0  0  0  0  0  0  0  0  0
   22.1938  -17.8636  -15.1438 C   0  0  0  0  0  0  0  0  0  0  0  0
   22.9019  -18.8353  -14.4840 C   0  0  0  0  0  0  0  0  0  0  0  0
   23.9715  -19.4315  -15.0944 C   0  0  0  0  0  0  0  0  0  0  0  0
   26.0380  -21.2178  -11.1794 C   0  0  0  0  0  0  0  0  0  0  0  0
   26.0115  -22.4493  -10.9304 O   0  0  0  0  0  0  0  0  0  0  0  0
   27.3521  -18.7500   -6.2473 C   0  0  0  0  0  0  0  0  0  0  0  0
   26.8762  -20.0344   -6.9386 C   0  0  2  0  0  0  0  0  0  0  0  0
   28.0334  -20.5539   -7.7378 C   0  0  0  0  0  0  0  0  0  0  0  0
   25.6660  -19.6726   -7.7106 C   0  0  0  0  0  0  0  0  0  0  0  0
   25.3086  -20.6353   -8.8348 C   0  0  2  0  0  0  0  0  0  0  0  0
   25.9756  -20.3156  -10.0510 N   0  0  0  0  0  0  0  0  0  0  0  0
   23.8466  -20.8290   -8.9304 C   0  0  0  0  0  0  0  0  0  0  0  0
   23.1480  -20.1109   -9.7337 O   0  0  0  0  0  0  0  0  0  0  0  0
   18.2570  -24.0272   -4.9493 N   0  0  0  0  0  0  0  0  0  0  0  0
   17.6651  -24.8585   -5.9321 C   0  0  0  0  0  0  0  0  0  0  0  0
   16.3786  -25.0413   -5.9929 N   0  0  0  0  0  0  0  0  0  0  0  0
   18.5206  -25.4931   -6.8611 N   0  0  0  0  0  0  0  0  0  0  0  0
   19.9450  -25.1285   -6.9561 C   0  0  0  0  0  0  0  0  0  0  0  0
   20.0048  -23.7844   -7.5611 C   0  0  0  0  0  0  0  0  0  0  0  0
   21.3181  -23.2151   -7.7902 C   0  0  0  0  0  0  0  0  0  0  0  0
   21.6064  -21.9013   -8.3768 C   0  0  2  0  0  0  0  0  0  0  0  0
   23.1060  -21.7796   -8.1851 N   0  0  0  0  0  0  0  0  0  0  0  0
   21.0601  -20.7293   -7.7221 C   0  0  0  0  0  0  0  0  0  0  0  0
   21.6864  -20.1220   -6.7826 O   0  0  0  0  0  0  0  0  0  0  0  0
   19.8346  -20.1724   -8.0672 O   0  0  0  0  0  0  0  0  0  0  0  0
  2  1  1  6
  2  3  1  0
  3  4  1  0
  4  5  2  0
  5  6  1  0
  7  8  2  0
  7  6  1  0
  9  8  1  0
 10  9  2  0
 11 10  1  0
 11 12  2  0
 12  4  1  0
 12  7  1  0
 13  2  1  0
 13 20  1  0
 14 13  2  0
 16 15  1  6
 16 17  1  0
 19 18  1  1
 18 16  1  0
 19 20  1  0
 19 21  1  0
 21 22  2  0
 21 31  1  0
 23 24  1  0
 24 26  1  0
 25 24  2  0
 26 27  1  0
 28 27  1  0
 29 28  1  0
 30 32  1  0
 30 29  1  1
 31 30  1  0
 32 34  1  0
 33 32  2  0
M  END
$$$$
