WLR.pdb
     RDKit          3D

 34 35  0  0  1  0  0  0  0  0999 V2000
   26.9018  -19.3686  -10.7359 N   0  0  0  0  0  0  0  0  0  0  0  0
   26.2193  -20.6211  -10.5100 C   0  0  1  0  0  0  0  0  0  0  0  0
   25.3838  -20.4761   -9.2514 C   0  0  0  0  0  0  0  0  0  0  0  0
   26.1630  -19.9110   -8.1348 C   0  0  0  0  0  0  0  0  0  0  0  0
   26.5755  -18.5768   -8.0758 C   0  0  0  0  0  0  0  0  0  0  0  0
   27.2997  -18.3811   -6.9627 N   0  0  0  0  0  0  0  0  0  0  0  0
   27.3853  -19.5289   -6.2793 C   0  0  0  0  0  0  0  0  0  0  0  0
   28.0053  -19.8409   -5.0886 C   0  0  0  0  0  0  0  0  0  0  0  0
   27.9262  -21.1264   -4.5991 C   0  0  0  0  0  0  0  0  0  0  0  0
   27.2287  -22.0660   -5.3140 C   0  0  0  0  0  0  0  0  0  0  0  0
   26.6106  -21.7605   -6.4995 C   0  0  0  0  0  0  0  0  0  0  0  0
   26.6823  -20.4879   -6.9969 C   0  0  0  0  0  0  0  0  0  0  0  0
   25.3232  -20.8517  -11.6986 C   0  0  0  0  0  0  0  0  0  0  0  0
   24.6247  -19.9423  -12.2127 O   0  0  0  0  0  0  0  0  0  0  0  0
   26.4879  -22.3408  -15.8272 C   0  0  0  0  0  0  0  0  0  0  0  0
   26.5312  -23.4224  -14.7399 C   0  0  2  0  0  0  0  0  0  0  0  0
   27.1835  -24.6271  -15.3489 C   0  0  0  0  0  0  0  0  0  0  0  0
   25.1382  -23.6060  -14.2738 C   0  0  0  0  0  0  0  0  0  0  0  0
   24.5518  -22.4218  -13.5175 C   0  0  2  0  0  0  0  0  0  0  0  0
   25.2419  -22.1647  -12.2993 N   0  0  0  0  0  0  0  0  0  0  0  0
   23.0808  -22.5241  -13.4184 C   0  0  0  0  0  0  0  0  0  0  0  0
   22.3846  -22.8764  -14.4383 O   0  0  0  0  0  0  0  0  0  0  0  0
   16.7518  -25.1736   -8.5703 N   0  0  0  0  0  0  0  0  0  0  0  0
   17.9054  -25.8438   -9.0470 C   0  0  0  0  0  0  0  0  0  0  0  0
   17.9173  -27.1279   -9.2546 N   0  0  0  0  0  0  0  0  0  0  0  0
   19.0613  -25.0698   -9.2974 N   0  0  0  0  0  0  0  0  0  0  0  0
   19.0721  -23.6170   -9.0522 C   0  0  0  0  0  0  0  0  0  0  0  0
   19.1754  -22.9600  -10.3689 C   0  0  0  0  0  0  0  0  0  0  0  0
   20.4840  -22.9180  -10.9912 C   0  0  0  0  0  0  0  0  0  0  0  0
   20.8130  -22.3081  -12.2847 C   0  0  2  0  0  0  0  0  0  0  0  0
   22.3284  -22.2594  -12.2473 N   0  0  0  0  0  0  0  0  0  0  0  0
   20.4108  -20.9341  -12.5109 C   0  0  0  0  0  0  0  0  0  0  0  0
   19.3138  -20.6361  -13.1036 O   0  0  0  0  0  0  0  0  0  0  0  0
   21.1690  -19.8461  -12.0958 O   0  0  0  0  0  0  0  0  0  0  0  0
  2  1  1  6
  2  3  1  0
  3  4  1  0
  4  5  2  0
  5  6  1  0
  7  8  2  0
  7  6  1  0
  9  8  1  0
 10  9  2  0
 11 10  1  0
 11 12  2  0
 12  4  1  0
 12  7  1  0
 13  2  1  0
 13 20  1  0
 14 13  2  0
 16 15  1  6
 16 17  1  0
 19 18  1  1
 18 16  1  0
 19 20  1  0
 19 21  1  0
 21 22  2  0
 21 31  1  0
 23 24  1  0
 24 26  1  0
 25 24  2  0
 26 27  1  0
 28 27  1  0
 29 28  1  0
 30 32  1  0
 30 29  1  1
 31 30  1  0
 32 34  1  0
 33 32  2  0
M  END
$$$$
