WLR.pdb
     RDKit          3D

 34 35  0  0  1  0  0  0  0  0999 V2000
   25.6568  -21.5422  -13.4094 N   0  0  0  0  0  0  0  0  0  0  0  0
   25.1189  -21.2223  -12.1079 C   0  0  1  0  0  0  0  0  0  0  0  0
   25.8526  -19.9997  -11.5881 C   0  0  0  0  0  0  0  0  0  0  0  0
   27.1710  -20.3457  -11.0265 C   0  0  0  0  0  0  0  0  0  0  0  0
   28.3089  -20.5729  -11.8058 C   0  0  0  0  0  0  0  0  0  0  0  0
   29.3366  -20.9083  -11.0101 N   0  0  0  0  0  0  0  0  0  0  0  0
   28.9297  -20.9129   -9.7349 C   0  0  0  0  0  0  0  0  0  0  0  0
   29.6003  -21.1822   -8.5613 C   0  0  0  0  0  0  0  0  0  0  0  0
   28.9269  -21.1033   -7.3618 C   0  0  0  0  0  0  0  0  0  0  0  0
   27.6001  -20.7568   -7.3681 C   0  0  0  0  0  0  0  0  0  0  0  0
   26.9284  -20.4885   -8.5334 C   0  0  0  0  0  0  0  0  0  0  0  0
   27.5854  -20.5642   -9.7312 C   0  0  0  0  0  0  0  0  0  0  0  0
   23.6602  -20.9021  -12.3039 C   0  0  0  0  0  0  0  0  0  0  0  0
   23.2552  -19.7787  -12.6955 O   0  0  0  0  0  0  0  0  0  0  0  0
   21.8417  -20.7112  -15.6678 C   0  0  0  0  0  0  0  0  0  0  0  0
   21.3988  -21.7833  -14.6634 C   0  0  2  0  0  0  0  0  0  0  0  0
   20.4262  -22.6738  -15.3767 C   0  0  0  0  0  0  0  0  0  0  0  0
   20.8714  -21.0616  -13.4834 C   0  0  0  0  0  0  0  0  0  0  0  0
   21.2586  -21.6595  -12.1378 C   0  0  2  0  0  0  0  0  0  0  0  0
   22.6566  -21.9096  -12.0411 N   0  0  0  0  0  0  0  0  0  0  0  0
   20.3734  -22.7865  -11.7771 C   0  0  0  0  0  0  0  0  0  0  0  0
   20.5673  -23.9513  -12.2817 O   0  0  0  0  0  0  0  0  0  0  0  0
   15.7270  -24.1596   -5.5969 N   0  0  0  0  0  0  0  0  0  0  0  0
   16.2417  -25.4777   -5.5278 C   0  0  0  0  0  0  0  0  0  0  0  0
   15.5368  -26.4670   -5.0623 N   0  0  0  0  0  0  0  0  0  0  0  0
   17.5608  -25.6953   -5.9864 N   0  0  0  0  0  0  0  0  0  0  0  0
   18.3299  -24.6165   -6.6312 C   0  0  0  0  0  0  0  0  0  0  0  0
   17.6734  -24.3333   -7.9215 C   0  0  0  0  0  0  0  0  0  0  0  0
   18.4291  -23.5787   -8.9017 C   0  0  0  0  0  0  0  0  0  0  0  0
   18.6673  -23.9603  -10.2985 C   0  0  2  0  0  0  0  0  0  0  0  0
   19.2783  -22.7008  -10.8819 N   0  0  0  0  0  0  0  0  0  0  0  0
   17.5154  -24.2273  -11.1366 C   0  0  0  0  0  0  0  0  0  0  0  0
   17.1428  -25.4210  -11.4193 O   0  0  0  0  0  0  0  0  0  0  0  0
   16.7273  -23.2210  -11.6819 O   0  0  0  0  0  0  0  0  0  0  0  0
  2  1  1  6
  2  3  1  0
  3  4  1  0
  4  5  2  0
  5  6  1  0
  7  8  2  0
  7  6  1  0
  9  8  1  0
 10  9  2  0
 11 10  1  0
 11 12  2  0
 12  4  1  0
 12  7  1  0
 13  2  1  0
 13 20  1  0
 14 13  2  0
 16 15  1  6
 16 17  1  0
 19 18  1  6
 18 16  1  0
 19 20  1  0
 19 21  1  0
 21 22  2  0
 21 31  1  0
 23 24  1  0
 24 26  1  0
 25 24  2  0
 26 27  1  0
 28 27  1  0
 29 28  1  0
 30 32  1  0
 30 29  1  1
 31 30  1  0
 32 34  1  0
 33 32  2  0
M  END
$$$$
