WLR.pdb
     RDKit          3D

 34 35  0  0  1  0  0  0  0  0999 V2000
   15.4194  -19.2922    2.4418 N   0  0  0  0  0  0  0  0  0  0  0  0
   16.5275  -19.8498    3.1813 C   0  0  1  0  0  0  0  0  0  0  0  0
   17.5341  -20.3849    2.1794 C   0  0  0  0  0  0  0  0  0  0  0  0
   16.9602  -21.4500    1.3370 C   0  0  0  0  0  0  0  0  0  0  0  0
   16.5936  -21.2671    0.0007 C   0  0  0  0  0  0  0  0  0  0  0  0
   16.0650  -22.4043   -0.4780 N   0  0  0  0  0  0  0  0  0  0  0  0
   16.0654  -23.3353    0.4838 C   0  0  0  0  0  0  0  0  0  0  0  0
   15.6406  -24.6464    0.4884 C   0  0  0  0  0  0  0  0  0  0  0  0
   15.7687  -25.3969    1.6368 C   0  0  0  0  0  0  0  0  0  0  0  0
   16.3187  -24.8157    2.7504 C   0  0  0  0  0  0  0  0  0  0  0  0
   16.7424  -23.5113    2.7508 C   0  0  0  0  0  0  0  0  0  0  0  0
   16.6200  -22.7551    1.6171 C   0  0  0  0  0  0  0  0  0  0  0  0
   17.1379  -18.7221    3.9715 C   0  0  0  0  0  0  0  0  0  0  0  0
   18.2075  -18.8444    4.6198 O   0  0  0  0  0  0  0  0  0  0  0  0
   18.6632  -14.7508    2.7903 C   0  0  0  0  0  0  0  0  0  0  0  0
   17.1324  -14.8220    2.7151 C   0  0  2  0  0  0  0  0  0  0  0  0
   16.6726  -13.5837    2.0059 C   0  0  0  0  0  0  0  0  0  0  0  0
   16.6506  -14.9895    4.1048 C   0  0  0  0  0  0  0  0  0  0  0  0
   16.9959  -16.3253    4.7486 C   0  0  2  0  0  0  0  0  0  0  0  0
   16.4913  -17.4290    4.0046 N   0  0  0  0  0  0  0  0  0  0  0  0
   16.6827  -16.3214    6.1929 C   0  0  0  0  0  0  0  0  0  0  0  0
   15.4660  -16.4121    6.5933 O   0  0  0  0  0  0  0  0  0  0  0  0
   17.2843  -20.8007   12.8340 N   0  0  0  0  0  0  0  0  0  0  0  0
   16.2710  -21.1287   11.8998 C   0  0  0  0  0  0  0  0  0  0  0  0
   15.3160  -21.9639   12.1871 N   0  0  0  0  0  0  0  0  0  0  0  0
   16.3230  -20.5145   10.6278 N   0  0  0  0  0  0  0  0  0  0  0  0
   17.4019  -19.5728   10.2811 C   0  0  0  0  0  0  0  0  0  0  0  0
   16.7587  -18.3748    9.7091 C   0  0  0  0  0  0  0  0  0  0  0  0
   17.6238  -17.2862    9.2991 C   0  0  0  0  0  0  0  0  0  0  0  0
   17.2022  -16.0309    8.6668 C   0  0  2  0  0  0  0  0  0  0  0  0
   17.6443  -16.2243    7.2291 N   0  0  0  0  0  0  0  0  0  0  0  0
   17.8539  -14.8059    9.0857 C   0  0  0  0  0  0  0  0  0  0  0  0
   18.8403  -14.3051    8.4376 O   0  0  0  0  0  0  0  0  0  0  0  0
   17.4559  -14.0812   10.2026 O   0  0  0  0  0  0  0  0  0  0  0  0
  2  1  1  6
  2  3  1  0
  3  4  1  0
  4  5  2  0
  5  6  1  0
  7  8  2  0
  7  6  1  0
  9  8  1  0
 10  9  2  0
 11 10  1  0
 11 12  2  0
 12  4  1  0
 12  7  1  0
 13  2  1  0
 13 20  1  0
 14 13  2  0
 16 15  1  1
 16 17  1  0
 19 18  1  6
 18 16  1  0
 19 20  1  0
 19 21  1  0
 21 22  2  0
 21 31  1  0
 23 24  1  0
 24 26  1  0
 25 24  2  0
 26 27  1  0
 28 27  1  0
 29 28  1  0
 30 32  1  0
 30 29  1  1
 31 30  1  0
 32 34  1  0
 33 32  2  0
M  END
$$$$
