WLR.pdb
     RDKit          3D

 34 35  0  0  1  0  0  0  0  0999 V2000
   27.1463  -21.9713  -10.0974 N   0  0  0  0  0  0  0  0  0  0  0  0
   26.6034  -20.6458   -9.9134 C   0  0  1  0  0  0  0  0  0  0  0  0
   27.7383  -19.7325   -9.4876 C   0  0  0  0  0  0  0  0  0  0  0  0
   28.4399  -20.2442   -8.2963 C   0  0  0  0  0  0  0  0  0  0  0  0
   29.5834  -21.0458   -8.3560 C   0  0  0  0  0  0  0  0  0  0  0  0
   29.9588  -21.3833   -7.1122 N   0  0  0  0  0  0  0  0  0  0  0  0
   29.1133  -20.8392   -6.2285 C   0  0  0  0  0  0  0  0  0  0  0  0
   29.0741  -20.8851   -4.8516 C   0  0  0  0  0  0  0  0  0  0  0  0
   28.0774  -20.2127   -4.1786 C   0  0  0  0  0  0  0  0  0  0  0  0
   27.1460  -19.5120   -4.9011 C   0  0  0  0  0  0  0  0  0  0  0  0
   27.1806  -19.4639   -6.2713 C   0  0  0  0  0  0  0  0  0  0  0  0
   28.1646  -20.1279   -6.9516 C   0  0  0  0  0  0  0  0  0  0  0  0
   26.0620  -20.2054  -11.2482 C   0  0  0  0  0  0  0  0  0  0  0  0
   25.3519  -19.1784  -11.3909 O   0  0  0  0  0  0  0  0  0  0  0  0
   27.8209  -18.5974  -14.6370 C   0  0  0  0  0  0  0  0  0  0  0  0
   28.1851  -20.0876  -14.6123 C   0  0  2  0  0  0  0  0  0  0  0  0
   29.2423  -20.2955  -15.6549 C   0  0  0  0  0  0  0  0  0  0  0  0
   26.9217  -20.8325  -14.8132 C   0  0  0  0  0  0  0  0  0  0  0  0
   25.8727  -20.6237  -13.7297 C   0  0  2  0  0  0  0  0  0  0  0  0
   26.3552  -20.9744  -12.4372 N   0  0  0  0  0  0  0  0  0  0  0  0
   24.5753  -21.2151  -14.1182 C   0  0  0  0  0  0  0  0  0  0  0  0
   24.3864  -22.4820  -14.0274 O   0  0  0  0  0  0  0  0  0  0  0  0
   18.1955  -22.2784  -10.9058 N   0  0  0  0  0  0  0  0  0  0  0  0
   19.1538  -23.1242  -10.2946 C   0  0  0  0  0  0  0  0  0  0  0  0
   18.8388  -24.2995   -9.8346 N   0  0  0  0  0  0  0  0  0  0  0  0
   20.4827  -22.6525  -10.1970 N   0  0  0  0  0  0  0  0  0  0  0  0
   20.8563  -21.3203  -10.7035 C   0  0  0  0  0  0  0  0  0  0  0  0
   20.7554  -21.3763  -12.1742 C   0  0  0  0  0  0  0  0  0  0  0  0
   21.9450  -21.0512  -12.9361 C   0  0  0  0  0  0  0  0  0  0  0  0
   22.0551  -21.0030  -14.3986 C   0  0  2  0  0  0  0  0  0  0  0  0
   23.4644  -20.4813  -14.6033 N   0  0  0  0  0  0  0  0  0  0  0  0
   21.2130  -20.0647  -15.1136 C   0  0  0  0  0  0  0  0  0  0  0  0
   21.5586  -18.8437  -15.2958 O   0  0  0  0  0  0  0  0  0  0  0  0
   19.9852  -20.4160  -15.6616 O   0  0  0  0  0  0  0  0  0  0  0  0
  2  1  1  6
  2  3  1  0
  3  4  1  0
  4  5  2  0
  5  6  1  0
  7  8  2  0
  7  6  1  0
  9  8  1  0
 10  9  2  0
 11 10  1  0
 11 12  2  0
 12  4  1  0
 12  7  1  0
 13  2  1  0
 13 20  1  0
 14 13  2  0
 16 15  1  6
 16 17  1  0
 19 18  1  6
 18 16  1  0
 19 20  1  0
 19 21  1  0
 21 22  2  0
 21 31  1  0
 23 24  1  0
 24 26  1  0
 25 24  2  0
 26 27  1  0
 28 27  1  0
 29 28  1  0
 30 32  1  0
 30 29  1  1
 31 30  1  0
 32 34  1  0
 33 32  2  0
M  END
$$$$
