WLR.pdb
     RDKit          3D

 34 35  0  0  1  0  0  0  0  0999 V2000
   27.9613  -21.2772  -16.1264 N   0  0  0  0  0  0  0  0  0  0  0  0
   27.7160  -20.4122  -14.9963 C   0  0  1  0  0  0  0  0  0  0  0  0
   26.7307  -19.3435  -15.4327 C   0  0  0  0  0  0  0  0  0  0  0  0
   27.2951  -18.4660  -16.4743 C   0  0  0  0  0  0  0  0  0  0  0  0
   26.5384  -17.9035  -17.5061 C   0  0  0  0  0  0  0  0  0  0  0  0
   27.3413  -17.1931  -18.3138 N   0  0  0  0  0  0  0  0  0  0  0  0
   28.5996  -17.2595  -17.8619 C   0  0  0  0  0  0  0  0  0  0  0  0
   29.7706  -16.7036  -18.3301 C   0  0  0  0  0  0  0  0  0  0  0  0
   30.9482  -16.9315  -17.6520 C   0  0  0  0  0  0  0  0  0  0  0  0
   30.9231  -17.7096  -16.5232 C   0  0  0  0  0  0  0  0  0  0  0  0
   29.7604  -18.2653  -16.0537 C   0  0  0  0  0  0  0  0  0  0  0  0
   28.5845  -18.0473  -16.7183 C   0  0  0  0  0  0  0  0  0  0  0  0
   27.1042  -21.2658  -13.9165 C   0  0  0  0  0  0  0  0  0  0  0  0
   26.3572  -22.2458  -14.1631 O   0  0  0  0  0  0  0  0  0  0  0  0
   26.4579  -19.4291   -8.0108 C   0  0  0  0  0  0  0  0  0  0  0  0
   25.8359  -20.2511   -9.1472 C   0  0  2  0  0  0  0  0  0  0  0  0
   25.4848  -21.5914   -8.5744 C   0  0  0  0  0  0  0  0  0  0  0  0
   26.8225  -20.2565  -10.2509 C   0  0  0  0  0  0  0  0  0  0  0  0
   26.3530  -20.9361  -11.5299 C   0  0  2  0  0  0  0  0  0  0  0  0
   27.3698  -20.9730  -12.5254 N   0  0  0  0  0  0  0  0  0  0  0  0
   25.0409  -20.4131  -11.9645 C   0  0  0  0  0  0  0  0  0  0  0  0
   24.9381  -19.2177  -12.4222 O   0  0  0  0  0  0  0  0  0  0  0  0
   23.0128  -25.5967  -16.0173 N   0  0  0  0  0  0  0  0  0  0  0  0
   22.2806  -25.8299  -14.8270 C   0  0  0  0  0  0  0  0  0  0  0  0
   22.3197  -26.9741  -14.2095 N   0  0  0  0  0  0  0  0  0  0  0  0
   21.4955  -24.7707  -14.3177 N   0  0  0  0  0  0  0  0  0  0  0  0
   21.4945  -23.4459  -14.9626 C   0  0  0  0  0  0  0  0  0  0  0  0
   21.3302  -22.4464  -13.8902 C   0  0  0  0  0  0  0  0  0  0  0  0
   22.3875  -21.4688  -13.7234 C   0  0  0  0  0  0  0  0  0  0  0  0
   22.5755  -20.5785  -12.5721 C   0  0  2  0  0  0  0  0  0  0  0  0
   23.8261  -21.1413  -11.9244 N   0  0  0  0  0  0  0  0  0  0  0  0
   21.5780  -20.6061  -11.5209 C   0  0  0  0  0  0  0  0  0  0  0  0
   21.7190  -21.3254  -10.4691 O   0  0  0  0  0  0  0  0  0  0  0  0
   20.4107  -19.8535  -11.5660 O   0  0  0  0  0  0  0  0  0  0  0  0
  2  1  1  6
  2  3  1  0
  3  4  1  0
  4  5  2  0
  5  6  1  0
  7  8  2  0
  7  6  1  0
  9  8  1  0
 10  9  2  0
 11 10  1  0
 11 12  2  0
 12  4  1  0
 12  7  1  0
 13  2  1  0
 13 20  1  0
 14 13  2  0
 16 15  1  1
 16 17  1  0
 19 18  1  1
 18 16  1  0
 19 20  1  0
 19 21  1  0
 21 22  2  0
 21 31  1  0
 23 24  1  0
 24 26  1  0
 25 24  2  0
 26 27  1  0
 28 27  1  0
 29 28  1  0
 30 32  1  0
 30 29  1  6
 31 30  1  0
 32 34  1  0
 33 32  2  0
M  END
$$$$
