WLR.pdb
     RDKit          3D

 34 35  0  0  1  0  0  0  0  0999 V2000
   30.6606  -35.1747  -19.9409 N   0  0  0  0  0  0  0  0  0  0  0  0
   31.2782  -34.5047  -18.8205 C   0  0  1  0  0  0  0  0  0  0  0  0
   30.8917  -35.2541  -17.5587 C   0  0  0  0  0  0  0  0  0  0  0  0
   29.5003  -34.9773  -17.1577 C   0  0  0  0  0  0  0  0  0  0  0  0
   28.4392  -35.8580  -17.3858 C   0  0  0  0  0  0  0  0  0  0  0  0
   27.2970  -35.3055  -16.9475 N   0  0  0  0  0  0  0  0  0  0  0  0
   27.5546  -34.0951  -16.4373 C   0  0  0  0  0  0  0  0  0  0  0  0
   26.7317  -33.1492  -15.8650 C   0  0  0  0  0  0  0  0  0  0  0  0
   27.2726  -31.9680  -15.4059 C   0  0  0  0  0  0  0  0  0  0  0  0
   28.6228  -31.7644  -15.5315 C   0  0  0  0  0  0  0  0  0  0  0  0
   29.4457  -32.7025  -16.1007 C   0  0  0  0  0  0  0  0  0  0  0  0
   28.9209  -33.8792  -16.5613 C   0  0  0  0  0  0  0  0  0  0  0  0
   32.7677  -34.5840  -19.0301 C   0  0  0  0  0  0  0  0  0  0  0  0
   33.3214  -35.5354  -19.6363 O   0  0  0  0  0  0  0  0  0  0  0  0
   35.8571  -31.8593  -20.8432 C   0  0  0  0  0  0  0  0  0  0  0  0
   35.3358  -31.2573  -19.5318 C   0  0  2  0  0  0  0  0  0  0  0  0
   35.9375  -29.8894  -19.4103 C   0  0  0  0  0  0  0  0  0  0  0  0
   35.6863  -32.2167  -18.4602 C   0  0  0  0  0  0  0  0  0  0  0  0
   35.0468  -33.5919  -18.5939 C   0  0  2  0  0  0  0  0  0  0  0  0
   33.6261  -33.5349  -18.5262 N   0  0  0  0  0  0  0  0  0  0  0  0
   35.6978  -34.5749  -17.7029 C   0  0  0  0  0  0  0  0  0  0  0  0
   35.2299  -34.7951  -16.5275 O   0  0  0  0  0  0  0  0  0  0  0  0
   36.9448  -37.1262  -11.0736 N   0  0  0  0  0  0  0  0  0  0  0  0
   36.5241  -35.8407  -11.4954 C   0  0  0  0  0  0  0  0  0  0  0  0
   35.6532  -35.1477  -10.8221 N   0  0  0  0  0  0  0  0  0  0  0  0
   37.0846  -35.3207  -12.6842 N   0  0  0  0  0  0  0  0  0  0  0  0
   38.0435  -36.1064  -13.4805 C   0  0  0  0  0  0  0  0  0  0  0  0
   38.3533  -35.3128  -14.6848 C   0  0  0  0  0  0  0  0  0  0  0  0
   37.4077  -35.3707  -15.7819 C   0  0  0  0  0  0  0  0  0  0  0  0
   37.5270  -36.1941  -16.9908 C   0  0  2  0  0  0  0  0  0  0  0  0
   36.8443  -35.3367  -18.0391 N   0  0  0  0  0  0  0  0  0  0  0  0
   36.8112  -37.4538  -17.0292 C   0  0  0  0  0  0  0  0  0  0  0  0
   37.0465  -38.3949  -16.1909 O   0  0  0  0  0  0  0  0  0  0  0  0
   35.8168  -37.7305  -17.9596 O   0  0  0  0  0  0  0  0  0  0  0  0
  2  1  1  6
  2  3  1  0
  3  4  1  0
  4  5  2  0
  5  6  1  0
  7  8  2  0
  7  6  1  0
  9  8  1  0
 10  9  2  0
 11 10  1  0
 11 12  2  0
 12  4  1  0
 12  7  1  0
 13  2  1  0
 13 20  1  0
 14 13  2  0
 16 15  1  6
 16 17  1  0
 19 18  1  1
 18 16  1  0
 19 20  1  0
 19 21  1  0
 21 22  2  0
 21 31  1  0
 23 24  1  0
 24 26  1  0
 25 24  2  0
 26 27  1  0
 28 27  1  0
 29 28  1  0
 30 32  1  0
 30 29  1  1
 31 30  1  0
 32 34  1  0
 33 32  2  0
M  END
$$$$
