WLR.pdb
     RDKit          3D

 34 35  0  0  1  0  0  0  0  0999 V2000
   28.4943  -20.7801  -14.4759 N   0  0  0  0  0  0  0  0  0  0  0  0
   27.4928  -19.9879  -13.8013 C   0  0  1  0  0  0  0  0  0  0  0  0
   26.4370  -19.6042  -14.8218 C   0  0  0  0  0  0  0  0  0  0  0  0
   26.9226  -18.5717  -15.7554 C   0  0  0  0  0  0  0  0  0  0  0  0
   27.2738  -18.8319  -17.0830 C   0  0  0  0  0  0  0  0  0  0  0  0
   27.7167  -17.7029  -17.6583 N   0  0  0  0  0  0  0  0  0  0  0  0
   27.6740  -16.7033  -16.7690 C   0  0  0  0  0  0  0  0  0  0  0  0
   28.0114  -15.3711  -16.8729 C   0  0  0  0  0  0  0  0  0  0  0  0
   27.8570  -14.5451  -15.7809 C   0  0  0  0  0  0  0  0  0  0  0  0
   27.3687  -15.0739  -14.6137 C   0  0  0  0  0  0  0  0  0  0  0  0
   27.0320  -16.3990  -14.5054 C   0  0  0  0  0  0  0  0  0  0  0  0
   27.1815  -17.2300  -15.5820 C   0  0  0  0  0  0  0  0  0  0  0  0
   26.8853  -20.8640  -12.7373 C   0  0  0  0  0  0  0  0  0  0  0  0
   26.5782  -22.0661  -12.9370 O   0  0  0  0  0  0  0  0  0  0  0  0
   27.2805  -21.8331   -8.3326 C   0  0  0  0  0  0  0  0  0  0  0  0
   27.0162  -20.3366   -8.5437 C   0  0  2  0  0  0  0  0  0  0  0  0
   27.1728  -19.6735   -7.2082 C   0  0  0  0  0  0  0  0  0  0  0  0
   25.6777  -20.2299   -9.1671 C   0  0  0  0  0  0  0  0  0  0  0  0
   25.5793  -20.7908  -10.5791 C   0  0  2  0  0  0  0  0  0  0  0  0
   26.6337  -20.3301  -11.4171 N   0  0  0  0  0  0  0  0  0  0  0  0
   24.2119  -20.6442  -11.1202 C   0  0  0  0  0  0  0  0  0  0  0  0
   23.8601  -19.5588  -11.7095 O   0  0  0  0  0  0  0  0  0  0  0  0
   21.8047  -24.1868  -17.4964 N   0  0  0  0  0  0  0  0  0  0  0  0
   20.4938  -23.7650  -17.1635 C   0  0  0  0  0  0  0  0  0  0  0  0
   19.5414  -23.7191  -18.0483 N   0  0  0  0  0  0  0  0  0  0  0  0
   20.2418  -23.3908  -15.8240 N   0  0  0  0  0  0  0  0  0  0  0  0
   21.3183  -23.3934  -14.8179 C   0  0  0  0  0  0  0  0  0  0  0  0
   20.7497  -22.8287  -13.5793 C   0  0  0  0  0  0  0  0  0  0  0  0
   21.6491  -22.6443  -12.4575 C   0  0  0  0  0  0  0  0  0  0  0  0
   21.8538  -21.4032  -11.7016 C   0  0  2  0  0  0  0  0  0  0  0  0
   23.2030  -21.6365  -11.0493 N   0  0  0  0  0  0  0  0  0  0  0  0
   20.9589  -21.1247  -10.5959 C   0  0  0  0  0  0  0  0  0  0  0  0
   21.2144  -21.5123   -9.4009 O   0  0  0  0  0  0  0  0  0  0  0  0
   19.7744  -20.4131  -10.7425 O   0  0  0  0  0  0  0  0  0  0  0  0
  2  1  1  6
  2  3  1  0
  3  4  1  0
  4  5  2  0
  5  6  1  0
  7  8  2  0
  7  6  1  0
  9  8  1  0
 10  9  2  0
 11 10  1  0
 11 12  2  0
 12  4  1  0
 12  7  1  0
 13  2  1  0
 13 20  1  0
 14 13  2  0
 16 15  1  1
 16 17  1  0
 19 18  1  1
 18 16  1  0
 19 20  1  0
 19 21  1  0
 21 22  2  0
 21 31  1  0
 23 24  1  0
 24 26  1  0
 25 24  2  0
 26 27  1  0
 28 27  1  0
 29 28  1  0
 30 32  1  0
 30 29  1  1
 31 30  1  0
 32 34  1  0
 33 32  2  0
M  END
$$$$
