VFC.pdb
     RDKit          3D

 25 25  0  0  1  0  0  0  0  0999 V2000
    9.2734  -19.0089   18.7987 C   0  0  0  0  0  0  0  0  0  0  0  0
    9.5497  -18.3109   20.1283 C   0  0  2  0  0  0  0  0  0  0  0  0
    8.6513  -18.9163   21.1925 C   0  0  0  0  0  0  0  0  0  0  0  0
    9.1566  -16.8599   19.9327 C   0  0  2  0  0  0  0  0  0  0  0  0
    9.9650  -16.3235   18.8685 N   0  0  0  0  0  0  0  0  0  0  0  0
    9.3991  -16.0677   21.1776 C   0  0  0  0  0  0  0  0  0  0  0  0
   10.5931  -15.7900   21.5222 O   0  0  0  0  0  0  0  0  0  0  0  0
    8.3722  -15.6007   22.0085 N   0  0  0  0  0  0  0  0  0  0  0  0
    8.6010  -14.9223   23.2913 C   0  0  1  0  0  0  0  0  0  0  0  0
    7.3708  -14.1052   23.5532 C   0  0  0  0  0  0  0  0  0  0  0  0
    7.2715  -13.4106   24.8182 C   0  0  0  0  0  0  0  0  0  0  0  0
    6.3415  -13.8887   25.7462 C   0  0  0  0  0  0  0  0  0  0  0  0
    6.2604  -13.2729   26.9691 C   0  0  0  0  0  0  0  0  0  0  0  0
    7.0900  -12.2064   27.2534 C   0  0  0  0  0  0  0  0  0  0  0  0
    8.0057  -11.7322   26.3454 C   0  0  0  0  0  0  0  0  0  0  0  0
    8.1021  -12.3471   25.0943 C   0  0  0  0  0  0  0  0  0  0  0  0
    8.8735  -15.8605   24.3592 C   0  0  0  0  0  0  0  0  0  0  0  0
    8.0066  -16.8005   24.5201 O   0  0  0  0  0  0  0  0  0  0  0  0
    9.9547  -15.9053   25.2516 N   0  0  0  0  0  0  0  0  0  0  0  0
   10.1072  -16.8915   26.2842 C   0  0  1  0  0  0  0  0  0  0  0  0
   11.4286  -17.6086   26.0120 C   0  0  0  0  0  0  0  0  0  0  0  0
   11.4252  -18.3147   24.3462 S   0  0  0  0  0  0  0  0  0  0  0  0
   10.0950  -16.4260   27.6539 C   0  0  0  0  0  0  0  0  0  0  0  0
   10.2499  -17.3207   28.7024 O   0  0  0  0  0  0  0  0  0  0  0  0
    9.9475  -15.2232   27.9446 O   0  0  0  0  0  0  0  0  0  0  0  0
  2  3  1  1
  2  1  1  0
  4  6  1  0
  4  2  1  0
  4  5  1  6
  6  7  2  0
  8  9  1  0
  8  6  1  0
  9 10  1  1
 10 11  1  0
 11 16  2  0
 12 11  1  0
 12 13  2  0
 13 14  1  0
 14 15  2  0
 16 15  1  0
 17 18  2  0
 17  9  1  0
 19 17  1  0
 20 23  1  0
 20 19  1  0
 21 22  1  0
 20 21  1  6
 23 24  1  0
 25 23  2  0
M  END
$$$$
