VFC.pdb
     RDKit          3D

 25 25  0  0  1  0  0  0  0  0999 V2000
    9.8517  -19.8072   20.1018 C   0  0  0  0  0  0  0  0  0  0  0  0
   10.0436  -18.8669   21.2893 C   0  0  2  0  0  0  0  0  0  0  0  0
    9.2697  -19.4154   22.4754 C   0  0  0  0  0  0  0  0  0  0  0  0
    9.4288  -17.5424   20.8823 C   0  0  2  0  0  0  0  0  0  0  0  0
   10.0992  -17.0928   19.6897 N   0  0  0  0  0  0  0  0  0  0  0  0
    9.6051  -16.5181   21.9576 C   0  0  0  0  0  0  0  0  0  0  0  0
   10.7672  -16.0592   22.2028 O   0  0  0  0  0  0  0  0  0  0  0  0
    8.5481  -16.0197   22.7305 N   0  0  0  0  0  0  0  0  0  0  0  0
    8.7199  -15.0696   23.8377 C   0  0  1  0  0  0  0  0  0  0  0  0
    7.4004  -14.3741   23.9955 C   0  0  0  0  0  0  0  0  0  0  0  0
    7.2658  -13.4026   25.0588 C   0  0  0  0  0  0  0  0  0  0  0  0
    6.3435  -13.6785   26.0726 C   0  0  0  0  0  0  0  0  0  0  0  0
    6.2302  -12.7928   27.1138 C   0  0  0  0  0  0  0  0  0  0  0  0
    7.0208  -11.6611   27.1372 C   0  0  0  0  0  0  0  0  0  0  0  0
    7.9287  -11.3847   26.1437 C   0  0  0  0  0  0  0  0  0  0  0  0
    8.0576  -12.2757   25.0750 C   0  0  0  0  0  0  0  0  0  0  0  0
    9.1418  -15.7277   25.0557 C   0  0  0  0  0  0  0  0  0  0  0  0
    8.3593  -16.6506   25.4993 O   0  0  0  0  0  0  0  0  0  0  0  0
   10.2906  -15.5143   25.8318 N   0  0  0  0  0  0  0  0  0  0  0  0
   10.6231  -16.2728   27.0049 C   0  0  1  0  0  0  0  0  0  0  0  0
   12.1283  -16.5287   26.9478 C   0  0  0  0  0  0  0  0  0  0  0  0
   12.5753  -17.2800   25.3638 S   0  0  0  0  0  0  0  0  0  0  0  0
   10.2903  -15.6922   28.2874 C   0  0  0  0  0  0  0  0  0  0  0  0
    9.6617  -14.4579   28.3590 O   0  0  0  0  0  0  0  0  0  0  0  0
   10.5495  -16.2659   29.3629 O   0  0  0  0  0  0  0  0  0  0  0  0
  2  3  1  1
  2  1  1  0
  4  6  1  0
  4  2  1  0
  4  5  1  6
  6  7  2  0
  8  9  1  0
  8  6  1  0
  9 10  1  1
 10 11  1  0
 11 16  2  0
 12 11  1  0
 12 13  2  0
 13 14  1  0
 14 15  2  0
 16 15  1  0
 17 18  2  0
 17  9  1  0
 19 17  1  0
 20 23  1  0
 20 19  1  0
 21 22  1  0
 20 21  1  1
 23 24  1  0
 25 23  2  0
M  END
$$$$
