VFC.pdb
     RDKit          3D

 25 25  0  0  1  0  0  0  0  0999 V2000
    8.7709  -18.8334   18.5750 C   0  0  0  0  0  0  0  0  0  0  0  0
    9.0865  -18.2387   19.9454 C   0  0  2  0  0  0  0  0  0  0  0  0
    8.0480  -18.7276   20.9398 C   0  0  0  0  0  0  0  0  0  0  0  0
    8.9434  -16.7369   19.7966 C   0  0  2  0  0  0  0  0  0  0  0  0
    9.8926  -16.2993   18.8060 N   0  0  0  0  0  0  0  0  0  0  0  0
    9.2303  -16.0417   21.0892 C   0  0  0  0  0  0  0  0  0  0  0  0
   10.4271  -15.9881   21.5208 O   0  0  0  0  0  0  0  0  0  0  0  0
    8.2431  -15.4314   21.8740 N   0  0  0  0  0  0  0  0  0  0  0  0
    8.4929  -14.8534   23.2012 C   0  0  1  0  0  0  0  0  0  0  0  0
    7.3030  -13.9941   23.5097 C   0  0  0  0  0  0  0  0  0  0  0  0
    7.2233  -13.3866   24.8201 C   0  0  0  0  0  0  0  0  0  0  0  0
    8.0834  -12.3178   25.0896 C   0  0  0  0  0  0  0  0  0  0  0  0
    7.9955  -11.6980   26.3100 C   0  0  0  0  0  0  0  0  0  0  0  0
    7.0697  -12.1384   27.2349 C   0  0  0  0  0  0  0  0  0  0  0  0
    6.2221  -13.1882   26.9756 C   0  0  0  0  0  0  0  0  0  0  0  0
    6.2976  -13.8318   25.7376 C   0  0  0  0  0  0  0  0  0  0  0  0
    8.7070  -15.8740   24.2050 C   0  0  0  0  0  0  0  0  0  0  0  0
    7.7696  -16.7497   24.3290 O   0  0  0  0  0  0  0  0  0  0  0  0
    9.7964  -16.0595   25.0688 N   0  0  0  0  0  0  0  0  0  0  0  0
    9.9119  -17.1482   25.9981 C   0  0  1  0  0  0  0  0  0  0  0  0
   11.0849  -18.0048   25.5241 C   0  0  0  0  0  0  0  0  0  0  0  0
   12.5293  -16.9640   25.2020 S   0  0  0  0  0  0  0  0  0  0  0  0
   10.1036  -16.8135   27.3923 C   0  0  0  0  0  0  0  0  0  0  0  0
   10.1855  -17.8126   28.3509 O   0  0  0  0  0  0  0  0  0  0  0  0
   10.2016  -15.6346   27.7844 O   0  0  0  0  0  0  0  0  0  0  0  0
  2  3  1  1
  2  1  1  0
  4  6  1  0
  4  2  1  0
  4  5  1  6
  6  7  2  0
  8  9  1  0
  8  6  1  0
  9 10  1  1
 10 11  1  0
 11 16  2  0
 12 11  1  0
 12 13  2  0
 13 14  1  0
 14 15  2  0
 16 15  1  0
 17 18  2  0
 17  9  1  0
 19 17  1  0
 20 23  1  0
 20 19  1  0
 21 22  1  0
 20 21  1  6
 23 24  1  0
 25 23  2  0
M  END
$$$$
