VFC.pdb
     RDKit          3D

 25 25  0  0  1  0  0  0  0  0999 V2000
   10.1247  -19.7068   20.1592 C   0  0  0  0  0  0  0  0  0  0  0  0
   10.2761  -18.7502   21.3395 C   0  0  2  0  0  0  0  0  0  0  0  0
    9.6585  -19.3921   22.5695 C   0  0  0  0  0  0  0  0  0  0  0  0
    9.4739  -17.5135   20.9858 C   0  0  2  0  0  0  0  0  0  0  0  0
   10.0123  -16.9728   19.7645 N   0  0  0  0  0  0  0  0  0  0  0  0
    9.5773  -16.4825   22.0641 C   0  0  0  0  0  0  0  0  0  0  0  0
   10.6677  -15.8434   22.2188 O   0  0  0  0  0  0  0  0  0  0  0  0
    8.5262  -16.1676   22.9353 N   0  0  0  0  0  0  0  0  0  0  0  0
    8.6205  -15.1638   24.0037 C   0  0  1  0  0  0  0  0  0  0  0  0
    7.2204  -14.6829   24.2452 C   0  0  0  0  0  0  0  0  0  0  0  0
    7.0061  -13.7113   25.2953 C   0  0  0  0  0  0  0  0  0  0  0  0
    7.2000  -12.3637   24.9775 C   0  0  0  0  0  0  0  0  0  0  0  0
    6.9603  -11.4215   25.9451 C   0  0  0  0  0  0  0  0  0  0  0  0
    6.5375  -11.8205   27.1975 C   0  0  0  0  0  0  0  0  0  0  0  0
    6.3454  -13.1433   27.5155 C   0  0  0  0  0  0  0  0  0  0  0  0
    6.5849  -14.1170   26.5423 C   0  0  0  0  0  0  0  0  0  0  0  0
    9.2292  -15.7026   25.2011 C   0  0  0  0  0  0  0  0  0  0  0  0
    8.6891  -16.7714   25.6775 O   0  0  0  0  0  0  0  0  0  0  0  0
   10.3353  -15.2351   25.9261 N   0  0  0  0  0  0  0  0  0  0  0  0
   10.8752  -15.8904   27.0842 C   0  0  1  0  0  0  0  0  0  0  0  0
   12.3957  -15.8527   26.9385 C   0  0  0  0  0  0  0  0  0  0  0  0
   12.8784  -16.3888   25.2794 S   0  0  0  0  0  0  0  0  0  0  0  0
   10.5107  -15.3577   28.3788 C   0  0  0  0  0  0  0  0  0  0  0  0
    9.7163  -14.2249   28.4753 O   0  0  0  0  0  0  0  0  0  0  0  0
   10.8882  -15.8846   29.4433 O   0  0  0  0  0  0  0  0  0  0  0  0
  2  3  1  1
  2  1  1  0
  4  6  1  0
  4  2  1  0
  4  5  1  6
  6  7  2  0
  8  9  1  0
  8  6  1  0
  9 10  1  1
 10 11  1  0
 11 16  2  0
 12 11  1  0
 12 13  2  0
 13 14  1  0
 14 15  2  0
 16 15  1  0
 17 18  2  0
 17  9  1  0
 19 17  1  0
 20 23  1  0
 20 19  1  0
 21 22  1  0
 20 21  1  6
 23 24  1  0
 25 23  2  0
M  END
$$$$
