VFC.pdb
     RDKit          3D

 25 25  0  0  1  0  0  0  0  0999 V2000
   10.3660  -19.1330   21.2716 C   0  0  0  0  0  0  0  0  0  0  0  0
    9.0361  -18.5963   20.7475 C   0  0  2  0  0  0  0  0  0  0  0  0
    8.7356  -19.2569   19.4135 C   0  0  0  0  0  0  0  0  0  0  0  0
    9.2417  -17.1123   20.5162 C   0  0  2  0  0  0  0  0  0  0  0  0
   10.4136  -16.9521   19.6947 N   0  0  0  0  0  0  0  0  0  0  0  0
    9.4503  -16.3932   21.8107 C   0  0  0  0  0  0  0  0  0  0  0  0
   10.6297  -16.2603   22.2719 O   0  0  0  0  0  0  0  0  0  0  0  0
    8.4061  -15.8434   22.5660 N   0  0  0  0  0  0  0  0  0  0  0  0
    8.6004  -15.1327   23.8369 C   0  0  1  0  0  0  0  0  0  0  0  0
    7.3326  -14.3701   24.0834 C   0  0  0  0  0  0  0  0  0  0  0  0
    7.2565  -13.5398   25.2655 C   0  0  0  0  0  0  0  0  0  0  0  0
    6.0924  -12.7887   25.4531 C   0  0  0  0  0  0  0  0  0  0  0  0
    5.9796  -12.0278   26.5887 C   0  0  0  0  0  0  0  0  0  0  0  0
    7.0071  -12.0206   27.5111 C   0  0  0  0  0  0  0  0  0  0  0  0
    8.1535  -12.7565   27.3319 C   0  0  0  0  0  0  0  0  0  0  0  0
    8.2858  -13.5375   26.1807 C   0  0  0  0  0  0  0  0  0  0  0  0
    8.9150  -16.0382   24.9213 C   0  0  0  0  0  0  0  0  0  0  0  0
    8.0074  -16.9047   25.2151 O   0  0  0  0  0  0  0  0  0  0  0  0
   10.0750  -16.1201   25.7057 N   0  0  0  0  0  0  0  0  0  0  0  0
   10.2921  -17.1103   26.7227 C   0  0  1  0  0  0  0  0  0  0  0  0
   11.4917  -17.9429   26.2731 C   0  0  0  0  0  0  0  0  0  0  0  0
   11.3393  -18.3633   24.5200 S   0  0  0  0  0  0  0  0  0  0  0  0
   10.5225  -16.6383   28.0706 C   0  0  0  0  0  0  0  0  0  0  0  0
   10.7126  -17.5385   29.1085 O   0  0  0  0  0  0  0  0  0  0  0  0
   10.5592  -15.4246   28.3514 O   0  0  0  0  0  0  0  0  0  0  0  0
  2  3  1  6
  2  1  1  0
  4  6  1  0
  4  2  1  0
  4  5  1  6
  6  7  2  0
  8  9  1  0
  8  6  1  0
  9 10  1  1
 10 11  1  0
 11 16  2  0
 12 11  1  0
 12 13  2  0
 13 14  1  0
 14 15  2  0
 16 15  1  0
 17 18  2  0
 17  9  1  0
 19 17  1  0
 20 23  1  0
 20 19  1  0
 21 22  1  0
 20 21  1  6
 23 24  1  0
 25 23  2  0
M  END
$$$$
