VFC.pdb
     RDKit          3D

 25 25  0  0  1  0  0  0  0  0999 V2000
    9.6594  -19.3209   19.6842 C   0  0  0  0  0  0  0  0  0  0  0  0
    9.7635  -18.5509   20.9986 C   0  0  2  0  0  0  0  0  0  0  0  0
    8.6274  -18.9840   21.9085 C   0  0  0  0  0  0  0  0  0  0  0  0
    9.5706  -17.0889   20.6475 C   0  0  2  0  0  0  0  0  0  0  0  0
   10.6217  -16.7111   19.7386 N   0  0  0  0  0  0  0  0  0  0  0  0
    9.6492  -16.2306   21.8695 C   0  0  0  0  0  0  0  0  0  0  0  0
   10.7831  -15.9935   22.3981 O   0  0  0  0  0  0  0  0  0  0  0  0
    8.5284  -15.6572   22.4843 N   0  0  0  0  0  0  0  0  0  0  0  0
    8.5865  -14.8709   23.7239 C   0  0  1  0  0  0  0  0  0  0  0  0
    7.3458  -14.0282   23.7387 C   0  0  0  0  0  0  0  0  0  0  0  0
    7.0994  -13.1998   24.8986 C   0  0  0  0  0  0  0  0  0  0  0  0
    6.0723  -13.5890   25.7636 C   0  0  0  0  0  0  0  0  0  0  0  0
    5.8491  -12.8432   26.8930 C   0  0  0  0  0  0  0  0  0  0  0  0
    6.6352  -11.7370   27.1476 C   0  0  0  0  0  0  0  0  0  0  0  0
    7.6458  -11.3497   26.3011 C   0  0  0  0  0  0  0  0  0  0  0  0
    7.8874  -12.0975   25.1457 C   0  0  0  0  0  0  0  0  0  0  0  0
    8.6905  -15.7140   24.8957 C   0  0  0  0  0  0  0  0  0  0  0  0
    7.9763  -16.7867   24.8850 O   0  0  0  0  0  0  0  0  0  0  0  0
    9.4652  -15.5407   26.0521 N   0  0  0  0  0  0  0  0  0  0  0  0
    9.9314  -16.6183   26.8789 C   0  0  1  0  0  0  0  0  0  0  0  0
   11.0482  -17.3137   26.1020 C   0  0  0  0  0  0  0  0  0  0  0  0
   11.7276  -18.6809   27.0728 S   0  0  0  0  0  0  0  0  0  0  0  0
   10.4138  -16.2806   28.2003 C   0  0  0  0  0  0  0  0  0  0  0  0
   10.5219  -14.9545   28.5922 O   0  0  0  0  0  0  0  0  0  0  0  0
   10.7467  -17.1511   29.0277 O   0  0  0  0  0  0  0  0  0  0  0  0
  2  3  1  1
  2  1  1  0
  4  6  1  0
  4  2  1  0
  4  5  1  6
  6  7  2  0
  8  9  1  0
  8  6  1  0
  9 10  1  1
 10 11  1  0
 11 16  2  0
 12 11  1  0
 12 13  2  0
 13 14  1  0
 14 15  2  0
 16 15  1  0
 17 18  2  0
 17  9  1  0
 19 17  1  0
 20 23  1  0
 20 19  1  0
 21 22  1  0
 20 21  1  6
 23 24  1  0
 25 23  2  0
M  END
$$$$
