VFC.pdb
     RDKit          3D

 25 25  0  0  1  0  0  0  0  0999 V2000
    8.9140  -19.8327   19.8130 C   0  0  0  0  0  0  0  0  0  0  0  0
    9.2686  -18.8862   20.9575 C   0  0  2  0  0  0  0  0  0  0  0  0
    8.6816  -19.4371   22.2452 C   0  0  0  0  0  0  0  0  0  0  0  0
    8.5888  -17.5687   20.6415 C   0  0  2  0  0  0  0  0  0  0  0  0
    9.0907  -17.1063   19.3734 N   0  0  0  0  0  0  0  0  0  0  0  0
    8.8916  -16.5458   21.6894 C   0  0  0  0  0  0  0  0  0  0  0  0
   10.0621  -16.0500   21.7628 O   0  0  0  0  0  0  0  0  0  0  0  0
    7.9473  -16.0875   22.6175 N   0  0  0  0  0  0  0  0  0  0  0  0
    8.2477  -15.1220   23.6831 C   0  0  1  0  0  0  0  0  0  0  0  0
    6.9430  -14.4689   24.0305 C   0  0  0  0  0  0  0  0  0  0  0  0
    6.9221  -13.5346   25.1347 C   0  0  0  0  0  0  0  0  0  0  0  0
    7.6789  -12.3661   25.0061 C   0  0  0  0  0  0  0  0  0  0  0  0
    7.6398  -11.4452   26.0219 C   0  0  0  0  0  0  0  0  0  0  0  0
    6.8625  -11.6901   27.1365 C   0  0  0  0  0  0  0  0  0  0  0  0
    6.1169  -12.8366   27.2684 C   0  0  0  0  0  0  0  0  0  0  0  0
    6.1447  -13.7860   26.2435 C   0  0  0  0  0  0  0  0  0  0  0  0
    8.8661  -15.7546   24.8286 C   0  0  0  0  0  0  0  0  0  0  0  0
    8.2301  -16.7556   25.3330 O   0  0  0  0  0  0  0  0  0  0  0  0
   10.0707  -15.4429   25.4763 N   0  0  0  0  0  0  0  0  0  0  0  0
   10.6210  -16.2021   26.5638 C   0  0  1  0  0  0  0  0  0  0  0  0
   12.0870  -16.4601   26.2188 C   0  0  0  0  0  0  0  0  0  0  0  0
   12.7141  -17.8675   27.1672 S   0  0  0  0  0  0  0  0  0  0  0  0
   10.5414  -15.6213   27.8863 C   0  0  0  0  0  0  0  0  0  0  0  0
   10.2743  -14.2698   28.0463 O   0  0  0  0  0  0  0  0  0  0  0  0
   10.7066  -16.2985   28.9194 O   0  0  0  0  0  0  0  0  0  0  0  0
  2  3  1  1
  2  1  1  0
  4  6  1  0
  4  2  1  0
  4  5  1  6
  6  7  2  0
  8  9  1  0
  8  6  1  0
  9 10  1  1
 10 11  1  0
 11 16  2  0
 12 11  1  0
 12 13  2  0
 13 14  1  0
 14 15  2  0
 16 15  1  0
 17 18  2  0
 17  9  1  0
 19 17  1  0
 20 23  1  0
 20 19  1  0
 21 22  1  0
 20 21  1  6
 23 24  1  0
 25 23  2  0
M  END
$$$$
