VFC.pdb
     RDKit          3D

 25 25  0  0  1  0  0  0  0  0999 V2000
   -4.3187  -23.5914   22.4799 C   0  0  0  0  0  0  0  0  0  0  0  0
   -4.5790  -25.0373   22.8957 C   0  0  2  0  0  0  0  0  0  0  0  0
   -4.6894  -25.8918   21.6450 C   0  0  0  0  0  0  0  0  0  0  0  0
   -5.9206  -25.0384   23.6014 C   0  0  2  0  0  0  0  0  0  0  0  0
   -6.8895  -24.4583   22.7079 N   0  0  0  0  0  0  0  0  0  0  0  0
   -5.8654  -24.2268   24.8562 C   0  0  0  0  0  0  0  0  0  0  0  0
   -5.0454  -24.5481   25.7759 O   0  0  0  0  0  0  0  0  0  0  0  0
   -6.6775  -23.1093   25.0899 N   0  0  0  0  0  0  0  0  0  0  0  0
   -6.6474  -22.3193   26.3281 C   0  0  1  0  0  0  0  0  0  0  0  0
   -6.4727  -20.8911   25.9044 C   0  0  0  0  0  0  0  0  0  0  0  0
   -5.2136  -20.5084   25.3038 C   0  0  0  0  0  0  0  0  0  0  0  0
   -5.2248  -20.1528   23.9517 C   0  0  0  0  0  0  0  0  0  0  0  0
   -4.0507  -19.7445   23.3720 C   0  0  0  0  0  0  0  0  0  0  0  0
   -2.8966  -19.6942   24.1284 C   0  0  0  0  0  0  0  0  0  0  0  0
   -2.8796  -20.0425   25.4574 C   0  0  0  0  0  0  0  0  0  0  0  0
   -4.0665  -20.4612   26.0646 C   0  0  0  0  0  0  0  0  0  0  0  0
   -7.8410  -22.5130   27.1234 C   0  0  0  0  0  0  0  0  0  0  0  0
   -8.9382  -22.6716   26.4661 O   0  0  0  0  0  0  0  0  0  0  0  0
   -7.9845  -22.5611   28.5179 N   0  0  0  0  0  0  0  0  0  0  0  0
   -9.2059  -22.9029   29.1911 C   0  0  1  0  0  0  0  0  0  0  0  0
   -9.5933  -24.3007   28.7108 C   0  0  0  0  0  0  0  0  0  0  0  0
  -11.0103  -24.9152   29.6530 S   0  0  0  0  0  0  0  0  0  0  0  0
   -9.1938  -22.8864   30.6376 C   0  0  0  0  0  0  0  0  0  0  0  0
   -7.9933  -22.9157   31.3316 O   0  0  0  0  0  0  0  0  0  0  0  0
  -10.2427  -22.8458   31.3095 O   0  0  0  0  0  0  0  0  0  0  0  0
  2  3  1  6
  2  1  1  0
  4  6  1  0
  4  2  1  0
  4  5  1  6
  6  7  2  0
  8  9  1  0
  8  6  1  0
  9 10  1  6
 10 11  1  0
 11 16  2  0
 12 11  1  0
 12 13  2  0
 13 14  1  0
 14 15  2  0
 16 15  1  0
 17 18  2  0
 17  9  1  0
 19 17  1  0
 20 23  1  0
 20 19  1  0
 21 22  1  0
 20 21  1  1
 23 24  1  0
 25 23  2  0
M  END
$$$$
