VFC.pdb
     RDKit          3D

 25 25  0  0  1  0  0  0  0  0999 V2000
    9.4410  -18.9183   20.4229 C   0  0  0  0  0  0  0  0  0  0  0  0
    8.0117  -18.4336   20.1916 C   0  0  2  0  0  0  0  0  0  0  0  0
    7.4711  -19.0923   18.9345 C   0  0  0  0  0  0  0  0  0  0  0  0
    8.1063  -16.9398   19.9518 C   0  0  2  0  0  0  0  0  0  0  0  0
    9.0645  -16.7219   18.8991 N   0  0  0  0  0  0  0  0  0  0  0  0
    8.5645  -16.2283   21.1847 C   0  0  0  0  0  0  0  0  0  0  0  0
    9.8103  -16.0546   21.3828 O   0  0  0  0  0  0  0  0  0  0  0  0
    7.6898  -15.7288   22.1586 N   0  0  0  0  0  0  0  0  0  0  0  0
    8.1276  -14.9996   23.3564 C   0  0  1  0  0  0  0  0  0  0  0  0
    6.8802  -14.4658   23.9957 C   0  0  0  0  0  0  0  0  0  0  0  0
    7.0155  -13.6897   25.2089 C   0  0  0  0  0  0  0  0  0  0  0  0
    5.8515  -13.1476   25.7619 C   0  0  0  0  0  0  0  0  0  0  0  0
    5.9496  -12.4449   26.9357 C   0  0  0  0  0  0  0  0  0  0  0  0
    7.1823  -12.2902   27.5384 C   0  0  0  0  0  0  0  0  0  0  0  0
    8.3295  -12.8205   26.9995 C   0  0  0  0  0  0  0  0  0  0  0  0
    8.2485  -13.5394   25.8040 C   0  0  0  0  0  0  0  0  0  0  0  0
    8.8872  -15.8416   24.2557 C   0  0  0  0  0  0  0  0  0  0  0  0
    8.2710  -16.8747   24.7181 O   0  0  0  0  0  0  0  0  0  0  0  0
   10.2106  -15.7046   24.7001 N   0  0  0  0  0  0  0  0  0  0  0  0
   10.8987  -16.6817   25.4962 C   0  0  1  0  0  0  0  0  0  0  0  0
   12.3703  -16.6186   25.0901 C   0  0  0  0  0  0  0  0  0  0  0  0
   13.3240  -17.8570   26.0012 S   0  0  0  0  0  0  0  0  0  0  0  0
   10.7989  -16.5563   26.9339 C   0  0  0  0  0  0  0  0  0  0  0  0
   10.6666  -15.3080   27.5238 O   0  0  0  0  0  0  0  0  0  0  0  0
   10.8271  -17.5467   27.6899 O   0  0  0  0  0  0  0  0  0  0  0  0
  2  3  1  6
  2  1  1  0
  4  6  1  0
  4  2  1  0
  4  5  1  6
  6  7  2  0
  8  9  1  0
  8  6  1  0
  9 10  1  1
 10 11  1  0
 11 16  2  0
 12 11  1  0
 12 13  2  0
 13 14  1  0
 14 15  2  0
 16 15  1  0
 17 18  2  0
 17  9  1  0
 19 17  1  0
 20 23  1  0
 20 19  1  0
 21 22  1  0
 20 21  1  1
 23 24  1  0
 25 23  2  0
M  END
$$$$
