VFC.pdb
     RDKit          3D

 25 25  0  0  1  0  0  0  0  0999 V2000
    8.3073  -20.9780   24.1485 C   0  0  0  0  0  0  0  0  0  0  0  0
    6.8025  -20.8236   24.3560 C   0  0  2  0  0  0  0  0  0  0  0  0
    6.1245  -22.1355   24.0018 C   0  0  0  0  0  0  0  0  0  0  0  0
    6.3476  -19.7637   23.3722 C   0  0  2  0  0  0  0  0  0  0  0  0
    6.6822  -20.2187   22.0476 N   0  0  0  0  0  0  0  0  0  0  0  0
    7.0377  -18.4625   23.6309 C   0  0  0  0  0  0  0  0  0  0  0  0
    8.1116  -18.1863   23.0048 O   0  0  0  0  0  0  0  0  0  0  0  0
    6.5670  -17.5055   24.5395 N   0  0  0  0  0  0  0  0  0  0  0  0
    7.2763  -16.2590   24.8573 C   0  0  1  0  0  0  0  0  0  0  0  0
    6.2240  -15.2823   25.2912 C   0  0  0  0  0  0  0  0  0  0  0  0
    6.6505  -13.9693   25.7234 C   0  0  0  0  0  0  0  0  0  0  0  0
    6.4322  -13.6274   27.0613 C   0  0  0  0  0  0  0  0  0  0  0  0
    6.8677  -12.4045   27.5043 C   0  0  0  0  0  0  0  0  0  0  0  0
    7.5049  -11.5479   26.6287 C   0  0  0  0  0  0  0  0  0  0  0  0
    7.7220  -11.8785   25.3129 C   0  0  0  0  0  0  0  0  0  0  0  0
    7.2850  -13.1201   24.8440 C   0  0  0  0  0  0  0  0  0  0  0  0
    8.2916  -16.4565   25.8697 C   0  0  0  0  0  0  0  0  0  0  0  0
    7.9042  -17.0385   26.9523 O   0  0  0  0  0  0  0  0  0  0  0  0
    9.6511  -16.1116   25.8475 N   0  0  0  0  0  0  0  0  0  0  0  0
   10.6190  -16.5876   26.7954 C   0  0  1  0  0  0  0  0  0  0  0  0
   11.9068  -16.8436   26.0140 C   0  0  0  0  0  0  0  0  0  0  0  0
   12.4200  -15.3419   25.1452 S   0  0  0  0  0  0  0  0  0  0  0  0
   10.9139  -15.7366   27.9274 C   0  0  0  0  0  0  0  0  0  0  0  0
   11.7554  -16.1768   28.9382 O   0  0  0  0  0  0  0  0  0  0  0  0
   10.4329  -14.5924   28.0405 O   0  0  0  0  0  0  0  0  0  0  0  0
  2  3  1  6
  2  1  1  0
  4  6  1  0
  4  2  1  0
  4  5  1  6
  6  7  2  0
  8  9  1  0
  8  6  1  0
  9 10  1  1
 10 11  1  0
 11 16  2  0
 12 11  1  0
 12 13  2  0
 13 14  1  0
 14 15  2  0
 16 15  1  0
 17 18  2  0
 17  9  1  0
 19 17  1  0
 20 23  1  0
 20 19  1  0
 21 22  1  0
 20 21  1  6
 23 24  1  0
 25 23  2  0
M  END
$$$$
