VFC.pdb
     RDKit          3D

 25 25  0  0  1  0  0  0  0  0999 V2000
   10.3015  -19.3732   19.6819 C   0  0  0  0  0  0  0  0  0  0  0  0
   10.3978  -18.5887   20.9883 C   0  0  2  0  0  0  0  0  0  0  0  0
    9.4825  -19.2350   22.0134 C   0  0  0  0  0  0  0  0  0  0  0  0
    9.8771  -17.1979   20.6846 C   0  0  2  0  0  0  0  0  0  0  0  0
   10.6968  -16.6379   19.6414 N   0  0  0  0  0  0  0  0  0  0  0  0
    9.9576  -16.3210   21.8933 C   0  0  0  0  0  0  0  0  0  0  0  0
   11.0965  -15.9452   22.3213 O   0  0  0  0  0  0  0  0  0  0  0  0
    8.8335  -15.8761   22.6013 N   0  0  0  0  0  0  0  0  0  0  0  0
    8.9031  -15.0436   23.8097 C   0  0  1  0  0  0  0  0  0  0  0  0
    7.5814  -14.3410   23.9056 C   0  0  0  0  0  0  0  0  0  0  0  0
    7.3412  -13.4965   25.0552 C   0  0  0  0  0  0  0  0  0  0  0  0
    8.1510  -12.3669   25.2072 C   0  0  0  0  0  0  0  0  0  0  0  0
    7.9130  -11.5279   26.2658 C   0  0  0  0  0  0  0  0  0  0  0  0
    6.8902  -11.8144   27.1481 C   0  0  0  0  0  0  0  0  0  0  0  0
    6.0914  -12.9229   27.0039 C   0  0  0  0  0  0  0  0  0  0  0  0
    6.3195  -13.7890   25.9314 C   0  0  0  0  0  0  0  0  0  0  0  0
    9.1944  -15.8270   24.9913 C   0  0  0  0  0  0  0  0  0  0  0  0
    8.3385  -16.7444   25.2859 O   0  0  0  0  0  0  0  0  0  0  0  0
   10.2837  -15.7417   25.8708 N   0  0  0  0  0  0  0  0  0  0  0  0
   10.4381  -16.5552   27.0439 C   0  0  1  0  0  0  0  0  0  0  0  0
   11.8391  -17.1610   26.9744 C   0  0  0  0  0  0  0  0  0  0  0  0
   12.0497  -18.0735   25.4265 S   0  0  0  0  0  0  0  0  0  0  0  0
   10.2650  -15.9099   28.3270 C   0  0  0  0  0  0  0  0  0  0  0  0
   10.3876  -16.6362   29.5022 O   0  0  0  0  0  0  0  0  0  0  0  0
   10.0030  -14.6957   28.4290 O   0  0  0  0  0  0  0  0  0  0  0  0
  2  3  1  1
  2  1  1  0
  4  6  1  0
  4  2  1  0
  4  5  1  6
  6  7  2  0
  8  9  1  0
  8  6  1  0
  9 10  1  1
 10 11  1  0
 11 16  2  0
 12 11  1  0
 12 13  2  0
 13 14  1  0
 14 15  2  0
 16 15  1  0
 17 18  2  0
 17  9  1  0
 19 17  1  0
 20 23  1  0
 20 19  1  0
 21 22  1  0
 20 21  1  1
 23 24  1  0
 25 23  2  0
M  END
$$$$
