VFC.pdb
     RDKit          3D

 25 25  0  0  1  0  0  0  0  0999 V2000
    9.9241  -19.5437   19.2440 C   0  0  0  0  0  0  0  0  0  0  0  0
   10.0684  -18.7405   20.5345 C   0  0  2  0  0  0  0  0  0  0  0  0
    9.2142  -19.3884   21.6100 C   0  0  0  0  0  0  0  0  0  0  0  0
    9.5095  -17.3628   20.2386 C   0  0  2  0  0  0  0  0  0  0  0  0
   10.2668  -16.8043   19.1484 N   0  0  0  0  0  0  0  0  0  0  0  0
    9.6350  -16.4676   21.4299 C   0  0  0  0  0  0  0  0  0  0  0  0
   10.7895  -16.0917   21.8136 O   0  0  0  0  0  0  0  0  0  0  0  0
    8.5375  -16.0054   22.1680 N   0  0  0  0  0  0  0  0  0  0  0  0
    8.6530  -15.1795   23.3774 C   0  0  1  0  0  0  0  0  0  0  0  0
    7.3482  -14.4514   23.5082 C   0  0  0  0  0  0  0  0  0  0  0  0
    7.1397  -13.6338   24.6831 C   0  0  0  0  0  0  0  0  0  0  0  0
    6.2938  -14.1353   25.6769 C   0  0  0  0  0  0  0  0  0  0  0  0
    6.1156  -13.3972   26.8192 C   0  0  0  0  0  0  0  0  0  0  0  0
    6.7684  -12.1888   26.9606 C   0  0  0  0  0  0  0  0  0  0  0  0
    7.6007  -11.6909   25.9874 C   0  0  0  0  0  0  0  0  0  0  0  0
    7.7939  -12.4292   24.8168 C   0  0  0  0  0  0  0  0  0  0  0  0
    8.9573  -15.9735   24.5486 C   0  0  0  0  0  0  0  0  0  0  0  0
    8.1505  -16.9475   24.7960 O   0  0  0  0  0  0  0  0  0  0  0  0
   10.0141  -15.8453   25.4620 N   0  0  0  0  0  0  0  0  0  0  0  0
   10.2405  -16.7388   26.5632 C   0  0  1  0  0  0  0  0  0  0  0  0
   11.7076  -17.1593   26.4902 C   0  0  0  0  0  0  0  0  0  0  0  0
   12.0819  -17.8422   24.8572 S   0  0  0  0  0  0  0  0  0  0  0  0
    9.9567  -16.2408   27.8914 C   0  0  0  0  0  0  0  0  0  0  0  0
   10.1570  -17.0465   29.0025 O   0  0  0  0  0  0  0  0  0  0  0  0
    9.5278  -15.0877   28.0901 O   0  0  0  0  0  0  0  0  0  0  0  0
  2  3  1  1
  2  1  1  0
  4  6  1  0
  4  2  1  0
  4  5  1  6
  6  7  2  0
  8  9  1  0
  8  6  1  0
  9 10  1  1
 10 11  1  0
 11 16  2  0
 12 11  1  0
 12 13  2  0
 13 14  1  0
 14 15  2  0
 16 15  1  0
 17 18  2  0
 17  9  1  0
 19 17  1  0
 20 23  1  0
 20 19  1  0
 21 22  1  0
 20 21  1  1
 23 24  1  0
 25 23  2  0
M  END
$$$$
