VFC.pdb
     RDKit          3D

 25 25  0  0  1  0  0  0  0  0999 V2000
    8.5894  -19.3760   18.9237 C   0  0  0  0  0  0  0  0  0  0  0  0
    8.9669  -18.6400   20.2071 C   0  0  2  0  0  0  0  0  0  0  0  0
    8.0852  -19.1451   21.3359 C   0  0  0  0  0  0  0  0  0  0  0  0
    8.6498  -17.1778   19.9638 C   0  0  2  0  0  0  0  0  0  0  0  0
    9.4340  -16.7375   18.8392 N   0  0  0  0  0  0  0  0  0  0  0  0
    8.9997  -16.3488   21.1582 C   0  0  0  0  0  0  0  0  0  0  0  0
   10.2238  -16.1501   21.4475 O   0  0  0  0  0  0  0  0  0  0  0  0
    8.0442  -15.7630   21.9989 N   0  0  0  0  0  0  0  0  0  0  0  0
    8.3758  -15.0042   23.2124 C   0  0  1  0  0  0  0  0  0  0  0  0
    7.1310  -14.2556   23.5862 C   0  0  0  0  0  0  0  0  0  0  0  0
    7.1257  -13.5235   24.8338 C   0  0  0  0  0  0  0  0  0  0  0  0
    7.9570  -12.4034   24.9287 C   0  0  0  0  0  0  0  0  0  0  0  0
    7.9361  -11.6682   26.0865 C   0  0  0  0  0  0  0  0  0  0  0  0
    7.1036  -12.0467   27.1211 C   0  0  0  0  0  0  0  0  0  0  0  0
    6.2847  -13.1464   27.0336 C   0  0  0  0  0  0  0  0  0  0  0  0
    6.2930  -13.9073   25.8616 C   0  0  0  0  0  0  0  0  0  0  0  0
    8.8392  -15.8649   24.2798 C   0  0  0  0  0  0  0  0  0  0  0  0
    8.0961  -16.8834   24.5471 O   0  0  0  0  0  0  0  0  0  0  0  0
    9.9918  -15.7600   25.0722 N   0  0  0  0  0  0  0  0  0  0  0  0
   10.3746  -16.7199   26.0692 C   0  0  1  0  0  0  0  0  0  0  0  0
   11.7853  -17.1840   25.7102 C   0  0  0  0  0  0  0  0  0  0  0  0
   12.3545  -18.4281   26.8940 S   0  0  0  0  0  0  0  0  0  0  0  0
   10.3560  -16.2870   27.4494 C   0  0  0  0  0  0  0  0  0  0  0  0
   10.5591  -14.9532   27.7712 O   0  0  0  0  0  0  0  0  0  0  0  0
   10.1602  -17.0798   28.3909 O   0  0  0  0  0  0  0  0  0  0  0  0
  2  3  1  1
  2  1  1  0
  4  6  1  0
  4  2  1  0
  4  5  1  6
  6  7  2  0
  8  9  1  0
  8  6  1  0
  9 10  1  1
 10 11  1  0
 11 16  2  0
 12 11  1  0
 12 13  2  0
 13 14  1  0
 14 15  2  0
 16 15  1  0
 17 18  2  0
 17  9  1  0
 19 17  1  0
 20 23  1  0
 20 19  1  0
 21 22  1  0
 20 21  1  6
 23 24  1  0
 25 23  2  0
M  END
$$$$
