GCV.pdb
     RDKit          3D

 18 17  0  0  1  0  0  0  0  0999 V2000
    6.1602  -14.6252   20.5624 N   0  0  0  0  0  0  0  0  0  0  0  0
    5.6606  -14.9913   21.8734 C   0  0  0  0  0  0  0  0  0  0  0  0
    6.7459  -14.7306   22.8677 C   0  0  0  0  0  0  0  0  0  0  0  0
    7.9394  -14.7111   22.4996 O   0  0  0  0  0  0  0  0  0  0  0  0
    6.4955  -14.4977   24.2413 N   0  0  0  0  0  0  0  0  0  0  0  0
    7.5685  -14.2512   25.1395 C   0  0  1  0  0  0  0  0  0  0  0  0
    7.1301  -13.7441   26.4954 C   0  0  0  0  0  0  0  0  0  0  0  0
    6.2525  -12.1733   26.3829 S   0  0  0  0  0  0  0  0  0  0  0  0
    8.2869  -15.5244   25.3842 C   0  0  0  0  0  0  0  0  0  0  0  0
    7.6094  -16.5135   25.7562 O   0  0  0  0  0  0  0  0  0  0  0  0
   10.9358  -17.0249   22.8860 C   0  0  0  0  0  0  0  0  0  0  0  0
   11.4103  -17.1485   24.3168 C   0  0  1  0  0  0  0  0  0  0  0  0
   12.4568  -16.0912   24.6014 C   0  0  0  0  0  0  0  0  0  0  0  0
   10.2879  -16.9377   25.3136 C   0  0  2  0  0  0  0  0  0  0  0  0
    9.7026  -15.6339   25.2061 N   0  0  0  0  0  0  0  0  0  0  0  0
   10.8105  -17.1067   26.6944 C   0  0  0  0  0  0  0  0  0  0  0  0
   11.3275  -18.3216   27.0897 O   0  0  0  0  0  0  0  0  0  0  0  0
   10.7990  -16.1711   27.5279 O   0  0  0  0  0  0  0  0  0  0  0  0
  1  2  1  0
  3  4  2  0
  3  2  1  0
  5  3  1  0
  6  5  1  0
  6  7  1  1
  8  7  1  0
  9  6  1  0
  9 15  1  0
 10  9  2  0
 12 11  1  6
 12 14  1  0
 13 12  1  0
 14 15  1  1
 14 16  1  0
 16 18  2  0
 16 17  1  0
M  END
$$$$
