GCV.pdb
     RDKit          3D

 18 17  0  0  1  0  0  0  0  0999 V2000
    7.6958  -17.4493   18.7152 N   0  0  0  0  0  0  0  0  0  0  0  0
    8.4608  -17.4534   19.9469 C   0  0  0  0  0  0  0  0  0  0  0  0
    7.5492  -17.0342   21.0550 C   0  0  0  0  0  0  0  0  0  0  0  0
    6.3502  -16.7788   20.8153 O   0  0  0  0  0  0  0  0  0  0  0  0
    7.9752  -16.9053   22.3988 N   0  0  0  0  0  0  0  0  0  0  0  0
    7.0454  -16.5822   23.4235 C   0  0  1  0  0  0  0  0  0  0  0  0
    6.6585  -17.7567   24.2944 C   0  0  0  0  0  0  0  0  0  0  0  0
    8.0960  -18.5713   25.0155 S   0  0  0  0  0  0  0  0  0  0  0  0
    7.6606  -15.5802   24.3261 C   0  0  0  0  0  0  0  0  0  0  0  0
    8.9123  -15.4857   24.3248 O   0  0  0  0  0  0  0  0  0  0  0  0
    7.3210  -11.7528   27.4539 C   0  0  0  0  0  0  0  0  0  0  0  0
    6.5985  -12.7731   26.6027 C   0  0  1  0  0  0  0  0  0  0  0  0
    5.8948  -12.0763   25.4566 C   0  0  0  0  0  0  0  0  0  0  0  0
    7.5475  -13.7832   25.9887 C   0  0  2  0  0  0  0  0  0  0  0  0
    6.8657  -14.7447   25.1734 N   0  0  0  0  0  0  0  0  0  0  0  0
    8.2690  -14.5076   27.0672 C   0  0  0  0  0  0  0  0  0  0  0  0
    9.4140  -13.9669   27.6113 O   0  0  0  0  0  0  0  0  0  0  0  0
    7.8697  -15.6102   27.5087 O   0  0  0  0  0  0  0  0  0  0  0  0
  1  2  1  0
  3  4  2  0
  3  2  1  0
  5  3  1  0
  6  5  1  0
  6  7  1  1
  8  7  1  0
  9  6  1  0
  9 15  1  0
 10  9  2  0
 12 11  1  6
 12 14  1  0
 13 12  1  0
 14 15  1  1
 14 16  1  0
 16 18  2  0
 16 17  1  0
M  END
$$$$
