GCV.pdb
     RDKit          3D

 18 17  0  0  1  0  0  0  0  0999 V2000
    4.0831  -18.3009   20.2737 N   0  0  0  0  0  0  0  0  0  0  0  0
    4.2321  -17.3282   21.3387 C   0  0  0  0  0  0  0  0  0  0  0  0
    5.6281  -16.7963   21.2828 C   0  0  0  0  0  0  0  0  0  0  0  0
    6.5981  -17.5705   21.4243 O   0  0  0  0  0  0  0  0  0  0  0  0
    5.9257  -15.4284   21.0731 N   0  0  0  0  0  0  0  0  0  0  0  0
    7.2666  -14.9628   21.1372 C   0  0  1  0  0  0  0  0  0  0  0  0
    7.4625  -13.5746   20.5695 C   0  0  0  0  0  0  0  0  0  0  0  0
    7.8773  -13.6093   18.8155 S   0  0  0  0  0  0  0  0  0  0  0  0
    7.6790  -14.8925   22.5592 C   0  0  0  0  0  0  0  0  0  0  0  0
    7.1289  -14.0271   23.2832 O   0  0  0  0  0  0  0  0  0  0  0  0
    6.9224  -16.3369   25.4749 C   0  0  0  0  0  0  0  0  0  0  0  0
    8.4223  -16.5234   25.4182 C   0  0  1  0  0  0  0  0  0  0  0  0
    8.7455  -17.9221   24.9353 C   0  0  0  0  0  0  0  0  0  0  0  0
    9.0840  -15.5598   24.4531 C   0  0  2  0  0  0  0  0  0  0  0  0
    8.6681  -15.7749   23.0986 N   0  0  0  0  0  0  0  0  0  0  0  0
   10.5598  -15.7199   24.5235 C   0  0  0  0  0  0  0  0  0  0  0  0
   11.2386  -15.3417   25.6618 O   0  0  0  0  0  0  0  0  0  0  0  0
   11.2224  -16.1938   23.5714 O   0  0  0  0  0  0  0  0  0  0  0  0
  1  2  1  0
  3  4  2  0
  3  2  1  0
  5  3  1  0
  6  5  1  0
  6  7  1  1
  8  7  1  0
  9  6  1  0
  9 15  1  0
 10  9  2  0
 12 11  1  6
 12 14  1  0
 13 12  1  0
 14 15  1  6
 14 16  1  0
 16 18  2  0
 16 17  1  0
M  END
$$$$
