GCV.pdb
     RDKit          3D

 18 17  0  0  1  0  0  0  0  0999 V2000
    2.8166  -19.1042   21.0854 N   0  0  0  0  0  0  0  0  0  0  0  0
    3.2616  -18.3264   22.2252 C   0  0  0  0  0  0  0  0  0  0  0  0
    4.6528  -17.8562   21.9453 C   0  0  0  0  0  0  0  0  0  0  0  0
    5.5821  -18.6836   21.8361 O   0  0  0  0  0  0  0  0  0  0  0  0
    4.9903  -16.4900   21.7922 N   0  0  0  0  0  0  0  0  0  0  0  0
    6.3325  -16.1022   21.5331 C   0  0  1  0  0  0  0  0  0  0  0  0
    6.4685  -14.7140   20.9482 C   0  0  0  0  0  0  0  0  0  0  0  0
    8.1917  -14.2480   20.6964 S   0  0  0  0  0  0  0  0  0  0  0  0
    7.0800  -16.0892   22.8130 C   0  0  0  0  0  0  0  0  0  0  0  0
    6.6248  -15.3841   23.7464 O   0  0  0  0  0  0  0  0  0  0  0  0
   10.0109  -17.7691   26.2253 C   0  0  0  0  0  0  0  0  0  0  0  0
    9.0532  -17.9022   25.0621 C   0  0  1  0  0  0  0  0  0  0  0  0
    7.6467  -18.1195   25.5804 C   0  0  0  0  0  0  0  0  0  0  0  0
    9.0184  -16.6544   24.2021 C   0  0  2  0  0  0  0  0  0  0  0  0
    8.2793  -16.8496   22.9898 N   0  0  0  0  0  0  0  0  0  0  0  0
   10.4054  -16.2547   23.8488 C   0  0  0  0  0  0  0  0  0  0  0  0
   11.1288  -15.4527   24.7049 O   0  0  0  0  0  0  0  0  0  0  0  0
   10.9523  -16.6252   22.7840 O   0  0  0  0  0  0  0  0  0  0  0  0
  1  2  1  0
  3  4  2  0
  3  2  1  0
  5  3  1  0
  6  5  1  0
  6  7  1  1
  8  7  1  0
  9  6  1  0
  9 15  1  0
 10  9  2  0
 12 11  1  1
 12 14  1  0
 13 12  1  0
 14 15  1  6
 14 16  1  0
 16 18  2  0
 16 17  1  0
M  END
$$$$
