GCV.pdb
     RDKit          3D

 18 17  0  0  1  0  0  0  0  0999 V2000
    7.9063  -16.3798   20.6172 N   0  0  0  0  0  0  0  0  0  0  0  0
    6.9889  -16.1713   21.7205 C   0  0  0  0  0  0  0  0  0  0  0  0
    7.7012  -15.3744   22.7656 C   0  0  0  0  0  0  0  0  0  0  0  0
    8.9125  -15.1029   22.6271 O   0  0  0  0  0  0  0  0  0  0  0  0
    7.0673  -14.8948   23.9369 N   0  0  0  0  0  0  0  0  0  0  0  0
    7.7965  -14.1421   24.8964 C   0  0  1  0  0  0  0  0  0  0  0  0
    6.9357  -13.2393   25.7518 C   0  0  0  0  0  0  0  0  0  0  0  0
    5.4384  -14.0666   26.3207 S   0  0  0  0  0  0  0  0  0  0  0  0
    8.4681  -15.0801   25.8271 C   0  0  0  0  0  0  0  0  0  0  0  0
    8.0002  -16.2409   25.9228 O   0  0  0  0  0  0  0  0  0  0  0  0
   12.5439  -14.8738   26.5810 C   0  0  0  0  0  0  0  0  0  0  0  0
   11.6843  -15.2708   27.7605 C   0  0  1  0  0  0  0  0  0  0  0  0
   11.5130  -14.0868   28.6895 C   0  0  0  0  0  0  0  0  0  0  0  0
   10.2947  -15.7040   27.3374 C   0  0  2  0  0  0  0  0  0  0  0  0
    9.6103  -14.6872   26.5946 N   0  0  0  0  0  0  0  0  0  0  0  0
    9.4873  -16.0314   28.5414 C   0  0  0  0  0  0  0  0  0  0  0  0
    9.7971  -17.1428   29.2952 O   0  0  0  0  0  0  0  0  0  0  0  0
    8.5190  -15.3237   28.9041 O   0  0  0  0  0  0  0  0  0  0  0  0
  1  2  1  0
  3  4  2  0
  3  2  1  0
  5  3  1  0
  6  5  1  0
  6  7  1  1
  8  7  1  0
  9  6  1  0
  9 15  1  0
 10  9  2  0
 12 11  1  6
 12 14  1  0
 13 12  1  0
 14 15  1  1
 14 16  1  0
 16 18  2  0
 16 17  1  0
M  END
$$$$
