GCV.pdb
     RDKit          3D

 18 17  0  0  1  0  0  0  0  0999 V2000
    9.5037  -15.7257   20.3375 N   0  0  0  0  0  0  0  0  0  0  0  0
    8.3533  -16.0229   21.1686 C   0  0  0  0  0  0  0  0  0  0  0  0
    8.4946  -15.2514   22.4412 C   0  0  0  0  0  0  0  0  0  0  0  0
    9.5832  -14.7091   22.7258 O   0  0  0  0  0  0  0  0  0  0  0  0
    7.4384  -15.0938   23.3703 N   0  0  0  0  0  0  0  0  0  0  0  0
    7.6157  -14.3046   24.5385 C   0  0  1  0  0  0  0  0  0  0  0  0
    6.3223  -13.9207   25.2224 C   0  0  0  0  0  0  0  0  0  0  0  0
    6.5899  -12.7794   26.5920 S   0  0  0  0  0  0  0  0  0  0  0  0
    8.3930  -15.0874   25.5286 C   0  0  0  0  0  0  0  0  0  0  0  0
    8.3716  -16.3385   25.4285 O   0  0  0  0  0  0  0  0  0  0  0  0
   10.0031  -13.6213   29.1984 C   0  0  0  0  0  0  0  0  0  0  0  0
   10.8937  -14.4301   28.2816 C   0  0  1  0  0  0  0  0  0  0  0  0
   11.7123  -15.4092   29.0973 C   0  0  0  0  0  0  0  0  0  0  0  0
   10.0979  -15.2459   27.2821 C   0  0  2  0  0  0  0  0  0  0  0  0
    9.1448  -14.4502   26.5662 N   0  0  0  0  0  0  0  0  0  0  0  0
    9.3684  -16.3287   27.9920 C   0  0  0  0  0  0  0  0  0  0  0  0
   10.0608  -17.4102   28.4925 O   0  0  0  0  0  0  0  0  0  0  0  0
    8.1266  -16.2960   28.1559 O   0  0  0  0  0  0  0  0  0  0  0  0
  1  2  1  0
  3  4  2  0
  3  2  1  0
  5  3  1  0
  6  5  1  0
  6  7  1  1
  8  7  1  0
  9  6  1  0
  9 15  1  0
 10  9  2  0
 12 11  1  1
 12 14  1  0
 13 12  1  0
 14 15  1  1
 14 16  1  0
 16 18  2  0
 16 17  1  0
M  END
$$$$
