GCV.pdb
     RDKit          3D

 18 17  0  0  1  0  0  0  0  0999 V2000
    6.3468  -18.3339   19.7447 N   0  0  0  0  0  0  0  0  0  0  0  0
    7.4956  -18.0687   20.5887 C   0  0  0  0  0  0  0  0  0  0  0  0
    6.9941  -17.5416   21.8946 C   0  0  0  0  0  0  0  0  0  0  0  0
    5.9932  -16.7950   21.9244 O   0  0  0  0  0  0  0  0  0  0  0  0
    7.6029  -17.8464   23.1356 N   0  0  0  0  0  0  0  0  0  0  0  0
    7.0486  -17.3613   24.3507 C   0  0  1  0  0  0  0  0  0  0  0  0
    7.0701  -18.3670   25.4802 C   0  0  0  0  0  0  0  0  0  0  0  0
    6.1372  -19.8573   25.0817 S   0  0  0  0  0  0  0  0  0  0  0  0
    7.8502  -16.2024   24.8106 C   0  0  0  0  0  0  0  0  0  0  0  0
    9.0774  -16.2013   24.5469 O   0  0  0  0  0  0  0  0  0  0  0  0
    6.7497  -12.2914   24.7781 C   0  0  0  0  0  0  0  0  0  0  0  0
    7.3719  -12.7337   26.0839 C   0  0  1  0  0  0  0  0  0  0  0  0
    6.2883  -12.9439   27.1210 C   0  0  0  0  0  0  0  0  0  0  0  0
    8.1145  -14.0483   25.9492 C   0  0  2  0  0  0  0  0  0  0  0  0
    7.2567  -15.1174   25.5306 N   0  0  0  0  0  0  0  0  0  0  0  0
    8.7193  -14.4143   27.2564 C   0  0  0  0  0  0  0  0  0  0  0  0
    8.3284  -15.5716   27.8945 O   0  0  0  0  0  0  0  0  0  0  0  0
    9.5862  -13.6990   27.8105 O   0  0  0  0  0  0  0  0  0  0  0  0
  1  2  1  0
  3  4  2  0
  3  2  1  0
  5  3  1  0
  6  5  1  0
  6  7  1  1
  8  7  1  0
  9  6  1  0
  9 15  1  0
 10  9  2  0
 12 11  1  6
 12 14  1  0
 13 12  1  0
 14 15  1  1
 14 16  1  0
 16 18  2  0
 16 17  1  0
M  END
$$$$
