GCV.pdb
     RDKit          3D

 18 17  0  0  1  0  0  0  0  0999 V2000
    8.1268  -15.3447   20.6142 N   0  0  0  0  0  0  0  0  0  0  0  0
    7.0514  -15.1390   21.5647 C   0  0  0  0  0  0  0  0  0  0  0  0
    7.6420  -14.5523   22.8064 C   0  0  0  0  0  0  0  0  0  0  0  0
    8.8783  -14.4004   22.8991 O   0  0  0  0  0  0  0  0  0  0  0  0
    6.8619  -14.1468   23.9158 N   0  0  0  0  0  0  0  0  0  0  0  0
    7.4796  -13.5935   25.0696 C   0  0  1  0  0  0  0  0  0  0  0  0
    6.5340  -12.8198   25.9611 C   0  0  0  0  0  0  0  0  0  0  0  0
    7.3451  -12.2210   27.4556 S   0  0  0  0  0  0  0  0  0  0  0  0
    8.0201  -14.6986   25.8967 C   0  0  0  0  0  0  0  0  0  0  0  0
    7.2299  -15.6133   26.2352 O   0  0  0  0  0  0  0  0  0  0  0  0
   10.9779  -16.9043   25.0931 C   0  0  0  0  0  0  0  0  0  0  0  0
   11.1153  -16.4582   26.5318 C   0  0  1  0  0  0  0  0  0  0  0  0
   12.1807  -15.3866   26.6351 C   0  0  0  0  0  0  0  0  0  0  0  0
    9.8321  -15.8578   27.0711 C   0  0  2  0  0  0  0  0  0  0  0  0
    9.3925  -14.7319   26.3009 N   0  0  0  0  0  0  0  0  0  0  0  0
   10.0410  -15.4155   28.4744 C   0  0  0  0  0  0  0  0  0  0  0  0
   10.3059  -16.3459   29.4560 O   0  0  0  0  0  0  0  0  0  0  0  0
    9.9847  -14.2082   28.8054 O   0  0  0  0  0  0  0  0  0  0  0  0
  1  2  1  0
  3  4  2  0
  3  2  1  0
  5  3  1  0
  6  5  1  0
  6  7  1  1
  8  7  1  0
  9  6  1  0
  9 15  1  0
 10  9  2  0
 12 11  1  6
 12 14  1  0
 13 12  1  0
 14 15  1  6
 14 16  1  0
 16 18  2  0
 16 17  1  0
M  END
$$$$
