GCV.pdb
     RDKit          3D

 18 17  0  0  1  0  0  0  0  0999 V2000
    7.9417  -15.1129   20.4933 N   0  0  0  0  0  0  0  0  0  0  0  0
    6.9900  -15.1746   21.5855 C   0  0  0  0  0  0  0  0  0  0  0  0
    7.6248  -14.5452   22.7837 C   0  0  0  0  0  0  0  0  0  0  0  0
    8.8634  -14.3899   22.8258 O   0  0  0  0  0  0  0  0  0  0  0  0
    6.8852  -14.1016   23.9061 N   0  0  0  0  0  0  0  0  0  0  0  0
    7.5493  -13.5753   25.0467 C   0  0  1  0  0  0  0  0  0  0  0  0
    6.6558  -12.7622   25.9568 C   0  0  0  0  0  0  0  0  0  0  0  0
    7.5380  -12.1474   27.4038 S   0  0  0  0  0  0  0  0  0  0  0  0
    8.0591  -14.7025   25.8633 C   0  0  0  0  0  0  0  0  0  0  0  0
    7.2593  -15.6293   26.1409 O   0  0  0  0  0  0  0  0  0  0  0  0
   10.9326  -16.9616   25.0601 C   0  0  0  0  0  0  0  0  0  0  0  0
   11.1011  -16.5107   26.4940 C   0  0  1  0  0  0  0  0  0  0  0  0
   12.1736  -15.4441   26.5716 C   0  0  0  0  0  0  0  0  0  0  0  0
    9.8321  -15.9019   27.0567 C   0  0  2  0  0  0  0  0  0  0  0  0
    9.4132  -14.7434   26.3243 N   0  0  0  0  0  0  0  0  0  0  0  0
   10.0541  -15.5090   28.4726 C   0  0  0  0  0  0  0  0  0  0  0  0
   10.3499  -16.4707   29.4145 O   0  0  0  0  0  0  0  0  0  0  0  0
    9.9815  -14.3163   28.8499 O   0  0  0  0  0  0  0  0  0  0  0  0
  1  2  1  0
  3  4  2  0
  3  2  1  0
  5  3  1  0
  6  5  1  0
  6  7  1  1
  8  7  1  0
  9  6  1  0
  9 15  1  0
 10  9  2  0
 12 11  1  6
 12 14  1  0
 13 12  1  0
 14 15  1  6
 14 16  1  0
 16 18  2  0
 16 17  1  0
M  END
$$$$
