EME.pdb
     RDKit          3D

 27 26  0  0  1  0  0  0  0  0999 V2000
   28.3628  -21.3762  -15.2848 N   0  0  0  0  0  0  0  0  0  0  0  0
   27.9183  -20.3877  -14.3350 C   0  0  1  0  0  0  0  0  0  0  0  0
   27.4516  -19.1304  -15.0068 C   0  0  0  0  0  0  0  0  0  0  0  0
   28.2043  -18.8678  -16.2745 C   0  0  0  0  0  0  0  0  0  0  0  0
   27.6703  -17.6583  -16.9380 C   0  0  0  0  0  0  0  0  0  0  0  0
   26.6980  -16.9761  -16.5076 O   0  0  0  0  0  0  0  0  0  0  0  0
   26.7882  -20.8927  -13.5086 C   0  0  0  0  0  0  0  0  0  0  0  0
   26.1339  -21.8677  -13.9337 O   0  0  0  0  0  0  0  0  0  0  0  0
   28.2758  -17.2369  -18.1212 O   0  0  0  0  0  0  0  0  0  0  0  0
   28.3057  -20.7522   -6.7791 C   0  0  0  0  0  0  0  0  0  0  0  0
   26.8098  -20.2252   -7.6212 S   0  0  0  0  0  0  0  0  0  0  0  0
   26.6888  -20.8088   -9.3152 C   0  0  0  0  0  0  0  0  0  0  0  0
   25.4462  -20.2620  -10.0129 C   0  0  0  0  0  0  0  0  0  0  0  0
   25.3633  -20.7471  -11.4178 C   0  0  2  0  0  0  0  0  0  0  0  0
   26.4280  -20.3135  -12.2654 N   0  0  0  0  0  0  0  0  0  0  0  0
   24.0495  -20.4549  -12.0638 C   0  0  0  0  0  0  0  0  0  0  0  0
   23.9284  -19.3281  -12.6085 O   0  0  0  0  0  0  0  0  0  0  0  0
   22.9823  -21.3614  -12.0831 N   0  0  0  0  0  0  0  0  0  0  0  0
   21.7244  -20.9801  -12.7543 C   0  0  1  0  0  0  0  0  0  0  0  0
   21.0753  -22.1726  -13.3330 C   0  0  0  0  0  0  0  0  0  0  0  0
   19.7536  -21.9017  -13.9529 C   0  0  0  0  0  0  0  0  0  0  0  0
   19.0855  -23.1002  -14.4962 C   0  0  0  0  0  0  0  0  0  0  0  0
   17.8784  -22.9903  -14.8692 O   0  0  0  0  0  0  0  0  0  0  0  0
   20.9647  -20.0262  -11.9677 C   0  0  0  0  0  0  0  0  0  0  0  0
   20.9522  -19.9964  -10.7142 O   0  0  0  0  0  0  0  0  0  0  0  0
   19.7066  -24.3263  -14.6167 O   0  0  0  0  0  0  0  0  0  0  0  0
   20.1667  -19.0417  -12.5892 O   0  0  0  0  0  0  0  0  0  0  0  0
  2  1  1  6
  2  3  1  0
  4  5  1  0
  4  3  1  0
  5  6  2  0
  7  2  1  0
  8  7  2  0
  9  5  1  0
 11 12  1  0
 11 10  1  0
 12 13  1  0
 14 13  1  1
 14 16  1  0
 14 15  1  0
 15  7  1  0
 16 17  2  0
 18 16  1  0
 19 18  1  0
 19 20  1  1
 21 20  1  0
 22 21  1  0
 23 22  2  0
 24 27  1  0
 24 19  1  0
 25 24  2  0
 26 22  1  0
M  END
$$$$
