EME.pdb
     RDKit          3D

 27 26  0  0  1  0  0  0  0  0999 V2000
   27.4357  -21.9743  -16.4926 N   0  0  0  0  0  0  0  0  0  0  0  0
   27.0830  -20.8900  -15.6114 C   0  0  1  0  0  0  0  0  0  0  0  0
   26.2753  -19.8363  -16.3095 C   0  0  0  0  0  0  0  0  0  0  0  0
   26.8950  -19.4365  -17.6128 C   0  0  0  0  0  0  0  0  0  0  0  0
   28.1557  -18.7022  -17.3687 C   0  0  0  0  0  0  0  0  0  0  0  0
   28.2804  -17.7457  -16.5529 O   0  0  0  0  0  0  0  0  0  0  0  0
   26.2803  -21.3663  -14.4521 C   0  0  0  0  0  0  0  0  0  0  0  0
   25.4330  -22.2627  -14.6476 O   0  0  0  0  0  0  0  0  0  0  0  0
   29.2883  -19.0855  -18.0861 O   0  0  0  0  0  0  0  0  0  0  0  0
   26.6659  -18.9245   -8.0331 C   0  0  0  0  0  0  0  0  0  0  0  0
   25.8087  -20.5019   -7.9851 S   0  0  0  0  0  0  0  0  0  0  0  0
   25.1680  -21.0263   -9.5786 C   0  0  0  0  0  0  0  0  0  0  0  0
   26.1713  -20.7739  -10.7009 C   0  0  0  0  0  0  0  0  0  0  0  0
   25.5870  -21.1110  -12.0279 C   0  0  2  0  0  0  0  0  0  0  0  0
   26.4391  -20.8453  -13.1429 N   0  0  0  0  0  0  0  0  0  0  0  0
   24.2473  -20.4923  -12.2543 C   0  0  0  0  0  0  0  0  0  0  0  0
   24.2369  -19.3455  -12.7697 O   0  0  0  0  0  0  0  0  0  0  0  0
   23.0417  -21.1232  -11.9230 N   0  0  0  0  0  0  0  0  0  0  0  0
   21.8387  -20.8501  -12.7331 C   0  0  1  0  0  0  0  0  0  0  0  0
   22.1621  -20.9417  -14.1702 C   0  0  0  0  0  0  0  0  0  0  0  0
   20.9893  -20.7792  -15.0663 C   0  0  0  0  0  0  0  0  0  0  0  0
   20.8376  -19.4198  -15.6202 C   0  0  0  0  0  0  0  0  0  0  0  0
   21.8700  -18.6862  -15.6864 O   0  0  0  0  0  0  0  0  0  0  0  0
   20.6655  -21.5090  -12.1899 C   0  0  0  0  0  0  0  0  0  0  0  0
   19.5043  -21.3677  -12.6416 O   0  0  0  0  0  0  0  0  0  0  0  0
   19.6349  -18.9118  -16.0662 O   0  0  0  0  0  0  0  0  0  0  0  0
   20.7658  -22.3776  -11.0819 O   0  0  0  0  0  0  0  0  0  0  0  0
  2  1  1  6
  2  3  1  0
  4  5  1  0
  4  3  1  0
  5  6  2  0
  7  2  1  0
  8  7  2  0
  9  5  1  0
 11 12  1  0
 11 10  1  0
 12 13  1  0
 14 13  1  1
 14 16  1  0
 14 15  1  0
 15  7  1  0
 16 17  2  0
 18 16  1  0
 19 18  1  0
 19 20  1  6
 21 20  1  0
 22 21  1  0
 23 22  2  0
 24 27  1  0
 24 19  1  0
 25 24  2  0
 26 22  1  0
M  END
$$$$
