EME.pdb
     RDKit          3D

 27 26  0  0  1  0  0  0  0  0999 V2000
   18.9656  -13.9104  -16.1214 N   0  0  0  0  0  0  0  0  0  0  0  0
   19.1640  -12.7517  -16.9549 C   0  0  1  0  0  0  0  0  0  0  0  0
   17.9563  -11.8625  -16.9806 C   0  0  0  0  0  0  0  0  0  0  0  0
   16.7831  -12.5402  -17.6184 C   0  0  0  0  0  0  0  0  0  0  0  0
   15.6177  -11.6292  -17.6294 C   0  0  0  0  0  0  0  0  0  0  0  0
   14.5213  -11.8626  -17.0468 O   0  0  0  0  0  0  0  0  0  0  0  0
   20.3096  -11.9276  -16.4821 C   0  0  0  0  0  0  0  0  0  0  0  0
   20.2285  -11.3920  -15.3569 O   0  0  0  0  0  0  0  0  0  0  0  0
   15.7292  -10.4289  -18.3302 O   0  0  0  0  0  0  0  0  0  0  0  0
   26.9384  -10.0556  -14.7470 C   0  0  0  0  0  0  0  0  0  0  0  0
   25.5925  -11.0125  -15.4525 S   0  0  0  0  0  0  0  0  0  0  0  0
   25.0196  -10.3957  -17.0388 C   0  0  0  0  0  0  0  0  0  0  0  0
   23.8660  -11.2321  -17.5861 C   0  0  0  0  0  0  0  0  0  0  0  0
   22.5894  -10.9008  -16.8958 C   0  0  2  0  0  0  0  0  0  0  0  0
   21.4818  -11.7281  -17.2547 N   0  0  0  0  0  0  0  0  0  0  0  0
   22.2099   -9.4624  -17.0211 C   0  0  0  0  0  0  0  0  0  0  0  0
   21.8699   -9.0676  -18.1655 O   0  0  0  0  0  0  0  0  0  0  0  0
   22.2195   -8.5668  -15.9445 N   0  0  0  0  0  0  0  0  0  0  0  0
   21.9221   -7.1421  -16.1892 C   0  0  1  0  0  0  0  0  0  0  0  0
   20.5360   -6.8356  -15.7854 C   0  0  0  0  0  0  0  0  0  0  0  0
   20.1456   -5.4176  -15.9886 C   0  0  0  0  0  0  0  0  0  0  0  0
   18.7788   -5.0974  -15.5335 C   0  0  0  0  0  0  0  0  0  0  0  0
   18.5622   -5.0572  -14.2846 O   0  0  0  0  0  0  0  0  0  0  0  0
   23.0224   -6.2873  -15.7839 C   0  0  0  0  0  0  0  0  0  0  0  0
   23.8357   -6.5688  -14.8719 O   0  0  0  0  0  0  0  0  0  0  0  0
   17.7323   -4.8416  -16.3955 O   0  0  0  0  0  0  0  0  0  0  0  0
   23.2495   -5.0450  -16.4141 O   0  0  0  0  0  0  0  0  0  0  0  0
  2  1  1  1
  2  3  1  0
  4  5  1  0
  4  3  1  0
  5  6  2  0
  7  2  1  0
  8  7  2  0
  9  5  1  0
 11 12  1  0
 11 10  1  0
 12 13  1  0
 14 13  1  6
 14 16  1  0
 14 15  1  0
 15  7  1  0
 16 17  2  0
 18 16  1  0
 19 18  1  0
 19 20  1  1
 21 20  1  0
 22 21  1  0
 23 22  2  0
 24 27  1  0
 24 19  1  0
 25 24  2  0
 26 22  1  0
M  END
$$$$
