EME.pdb
     RDKit          3D

 27 26  0  0  1  0  0  0  0  0999 V2000
   18.4041  -11.7937  -19.0718 N   0  0  0  0  0  0  0  0  0  0  0  0
   18.5572  -10.3642  -18.9728 C   0  0  1  0  0  0  0  0  0  0  0  0
   17.2357   -9.6611  -18.8772 C   0  0  0  0  0  0  0  0  0  0  0  0
   16.1477  -10.5860  -18.4265 C   0  0  0  0  0  0  0  0  0  0  0  0
   15.4337  -11.1360  -19.5995 C   0  0  0  0  0  0  0  0  0  0  0  0
   15.0112  -10.4449  -20.5689 O   0  0  0  0  0  0  0  0  0  0  0  0
   19.3495   -9.9808  -17.7726 C   0  0  0  0  0  0  0  0  0  0  0  0
   18.7411   -9.7865  -16.6995 O   0  0  0  0  0  0  0  0  0  0  0  0
   15.2065  -12.5110  -19.6446 O   0  0  0  0  0  0  0  0  0  0  0  0
   26.5234   -9.5231  -14.2866 C   0  0  0  0  0  0  0  0  0  0  0  0
   25.4792  -10.1333  -15.6142 S   0  0  0  0  0  0  0  0  0  0  0  0
   23.8052   -9.4842  -15.5751 C   0  0  0  0  0  0  0  0  0  0  0  0
   22.9757   -9.9919  -16.7515 C   0  0  0  0  0  0  0  0  0  0  0  0
   21.5833   -9.4689  -16.6907 C   0  0  2  0  0  0  0  0  0  0  0  0
   20.7590   -9.8285  -17.8003 N   0  0  0  0  0  0  0  0  0  0  0  0
   21.5189   -7.9942  -16.4677 C   0  0  0  0  0  0  0  0  0  0  0  0
   21.8031   -7.2634  -17.4507 O   0  0  0  0  0  0  0  0  0  0  0  0
   21.1656   -7.4152  -15.2425 N   0  0  0  0  0  0  0  0  0  0  0  0
   21.1510   -5.9448  -15.1175 C   0  0  1  0  0  0  0  0  0  0  0  0
   19.7830   -5.4307  -15.3237 C   0  0  0  0  0  0  0  0  0  0  0  0
   19.6560   -3.9613  -15.1521 C   0  0  0  0  0  0  0  0  0  0  0  0
   18.2842   -3.4492  -15.3352 C   0  0  0  0  0  0  0  0  0  0  0  0
   17.9358   -2.4298  -14.6661 O   0  0  0  0  0  0  0  0  0  0  0  0
   21.9553   -5.4939  -13.9970 C   0  0  0  0  0  0  0  0  0  0  0  0
   22.3646   -6.2406  -13.0766 O   0  0  0  0  0  0  0  0  0  0  0  0
   17.3683   -4.0224  -16.1933 O   0  0  0  0  0  0  0  0  0  0  0  0
   22.3369   -4.1407  -13.8726 O   0  0  0  0  0  0  0  0  0  0  0  0
  2  1  1  1
  2  3  1  0
  4  5  1  0
  4  3  1  0
  5  6  2  0
  7  2  1  0
  8  7  2  0
  9  5  1  0
 11 12  1  0
 11 10  1  0
 12 13  1  0
 14 13  1  6
 14 16  1  0
 14 15  1  0
 15  7  1  0
 16 17  2  0
 18 16  1  0
 19 18  1  0
 19 20  1  1
 21 20  1  0
 22 21  1  0
 23 22  2  0
 24 27  1  0
 24 19  1  0
 25 24  2  0
 26 22  1  0
M  END
$$$$
