EME.pdb
     RDKit          3D

 27 26  0  0  1  0  0  0  0  0999 V2000
   27.2654  -22.8156  -16.1715 N   0  0  0  0  0  0  0  0  0  0  0  0
   26.8879  -21.5968  -15.5016 C   0  0  1  0  0  0  0  0  0  0  0  0
   26.2535  -20.6120  -16.4385 C   0  0  0  0  0  0  0  0  0  0  0  0
   27.1967  -20.1932  -17.5236 C   0  0  0  0  0  0  0  0  0  0  0  0
   28.1087  -19.1418  -17.0224 C   0  0  0  0  0  0  0  0  0  0  0  0
   27.7373  -17.9999  -16.6298 O   0  0  0  0  0  0  0  0  0  0  0  0
   25.9146  -21.8540  -14.4054 C   0  0  0  0  0  0  0  0  0  0  0  0
   25.0727  -22.7628  -14.5630 O   0  0  0  0  0  0  0  0  0  0  0  0
   29.4738  -19.4227  -16.9789 O   0  0  0  0  0  0  0  0  0  0  0  0
   28.5276  -21.2173   -7.9989 C   0  0  0  0  0  0  0  0  0  0  0  0
   27.0032  -20.5595   -8.6833 S   0  0  0  0  0  0  0  0  0  0  0  0
   26.5688  -21.2529  -10.2819 C   0  0  0  0  0  0  0  0  0  0  0  0
   25.3267  -20.5863  -10.8672 C   0  0  0  0  0  0  0  0  0  0  0  0
   24.9348  -21.2209  -12.1555 C   0  0  2  0  0  0  0  0  0  0  0  0
   25.9061  -21.1120  -13.1971 N   0  0  0  0  0  0  0  0  0  0  0  0
   23.6034  -20.7653  -12.6538 C   0  0  0  0  0  0  0  0  0  0  0  0
   23.6003  -19.7688  -13.4206 O   0  0  0  0  0  0  0  0  0  0  0  0
   22.3975  -21.3878  -12.3081 N   0  0  0  0  0  0  0  0  0  0  0  0
   21.1378  -20.8996  -12.9022 C   0  0  1  0  0  0  0  0  0  0  0  0
   20.2948  -22.0390  -13.3138 C   0  0  0  0  0  0  0  0  0  0  0  0
   18.9461  -21.6504  -13.7983 C   0  0  0  0  0  0  0  0  0  0  0  0
   18.0992  -22.7896  -14.2017 C   0  0  0  0  0  0  0  0  0  0  0  0
   18.6039  -23.9521  -14.1534 O   0  0  0  0  0  0  0  0  0  0  0  0
   20.5797  -19.7956  -12.1436 C   0  0  0  0  0  0  0  0  0  0  0  0
   20.8789  -19.5341  -10.9543 O   0  0  0  0  0  0  0  0  0  0  0  0
   16.7937  -22.6519  -14.6263 O   0  0  0  0  0  0  0  0  0  0  0  0
   19.6336  -18.9210  -12.7199 O   0  0  0  0  0  0  0  0  0  0  0  0
  2  1  1  6
  2  3  1  0
  4  5  1  0
  4  3  1  0
  5  6  2  0
  7  2  1  0
  8  7  2  0
  9  5  1  0
 11 12  1  0
 11 10  1  0
 12 13  1  0
 14 13  1  1
 14 16  1  0
 14 15  1  0
 15  7  1  0
 16 17  2  0
 18 16  1  0
 19 18  1  0
 19 20  1  1
 21 20  1  0
 22 21  1  0
 23 22  2  0
 24 27  1  0
 24 19  1  0
 25 24  2  0
 26 22  1  0
M  END
$$$$
