EME.pdb
     RDKit          3D

 27 26  0  0  1  0  0  0  0  0999 V2000
   27.5329  -22.0197  -16.4905 N   0  0  0  0  0  0  0  0  0  0  0  0
   27.1159  -20.8809  -15.7120 C   0  0  1  0  0  0  0  0  0  0  0  0
   26.2454  -19.9477  -16.5001 C   0  0  0  0  0  0  0  0  0  0  0  0
   27.0155  -19.2499  -17.5782 C   0  0  0  0  0  0  0  0  0  0  0  0
   27.6474  -18.0267  -17.0371 C   0  0  0  0  0  0  0  0  0  0  0  0
   28.8166  -17.9757  -16.5614 O   0  0  0  0  0  0  0  0  0  0  0  0
   26.3444  -21.2943  -14.5082 C   0  0  0  0  0  0  0  0  0  0  0  0
   25.6179  -22.3067  -14.5900 O   0  0  0  0  0  0  0  0  0  0  0  0
   26.9070  -16.8452  -17.0482 O   0  0  0  0  0  0  0  0  0  0  0  0
   27.5820  -20.5329   -7.8952 C   0  0  0  0  0  0  0  0  0  0  0  0
   25.8658  -20.0569   -8.1252 S   0  0  0  0  0  0  0  0  0  0  0  0
   25.1727  -20.5836   -9.6959 C   0  0  0  0  0  0  0  0  0  0  0  0
   26.1187  -20.2892  -10.8571 C   0  0  0  0  0  0  0  0  0  0  0  0
   25.5831  -20.8320  -12.1355 C   0  0  2  0  0  0  0  0  0  0  0  0
   26.4018  -20.5877  -13.2801 N   0  0  0  0  0  0  0  0  0  0  0  0
   24.1805  -20.4031  -12.4141 C   0  0  0  0  0  0  0  0  0  0  0  0
   24.0189  -19.2118  -12.7826 O   0  0  0  0  0  0  0  0  0  0  0  0
   23.0750  -21.2526  -12.2830 N   0  0  0  0  0  0  0  0  0  0  0  0
   21.7317  -20.7459  -12.6250 C   0  0  1  0  0  0  0  0  0  0  0  0
   20.9557  -21.7916  -13.3197 C   0  0  0  0  0  0  0  0  0  0  0  0
   21.4832  -22.1461  -14.6617 C   0  0  0  0  0  0  0  0  0  0  0  0
   20.7380  -23.2267  -15.3361 C   0  0  0  0  0  0  0  0  0  0  0  0
   19.7980  -23.7892  -14.6971 O   0  0  0  0  0  0  0  0  0  0  0  0
   21.1501  -19.9885  -11.5324 C   0  0  0  0  0  0  0  0  0  0  0  0
   21.5367  -20.0576  -10.3416 O   0  0  0  0  0  0  0  0  0  0  0  0
   21.0130  -23.6518  -16.6196 O   0  0  0  0  0  0  0  0  0  0  0  0
   20.0768  -19.0990  -11.7535 O   0  0  0  0  0  0  0  0  0  0  0  0
  2  1  1  6
  2  3  1  0
  4  5  1  0
  4  3  1  0
  5  6  2  0
  7  2  1  0
  8  7  2  0
  9  5  1  0
 11 12  1  0
 11 10  1  0
 12 13  1  0
 14 13  1  1
 14 16  1  0
 14 15  1  0
 15  7  1  0
 16 17  2  0
 18 16  1  0
 19 18  1  0
 19 20  1  1
 21 20  1  0
 22 21  1  0
 23 22  2  0
 24 27  1  0
 24 19  1  0
 25 24  2  0
 26 22  1  0
M  END
$$$$
