EME.pdb
     RDKit          3D

 27 26  0  0  1  0  0  0  0  0999 V2000
   27.9957  -21.3624  -14.3484 N   0  0  0  0  0  0  0  0  0  0  0  0
   26.6837  -21.3840  -14.9443 C   0  0  1  0  0  0  0  0  0  0  0  0
   26.5625  -22.4408  -16.0019 C   0  0  0  0  0  0  0  0  0  0  0  0
   26.8954  -21.9054  -17.3603 C   0  0  0  0  0  0  0  0  0  0  0  0
   28.3630  -21.8610  -17.5402 C   0  0  0  0  0  0  0  0  0  0  0  0
   29.0693  -20.8221  -17.4065 O   0  0  0  0  0  0  0  0  0  0  0  0
   25.6269  -21.6501  -13.9306 C   0  0  0  0  0  0  0  0  0  0  0  0
   25.1332  -22.7959  -13.8775 O   0  0  0  0  0  0  0  0  0  0  0  0
   29.0188  -23.0430  -17.8823 O   0  0  0  0  0  0  0  0  0  0  0  0
   26.6904  -20.4832   -7.1862 C   0  0  0  0  0  0  0  0  0  0  0  0
   25.3535  -20.9953   -8.2703 S   0  0  0  0  0  0  0  0  0  0  0  0
   25.6863  -20.7146  -10.0125 C   0  0  0  0  0  0  0  0  0  0  0  0
   24.4750  -20.1251  -10.7304 C   0  0  0  0  0  0  0  0  0  0  0  0
   24.1946  -20.8560  -11.9966 C   0  0  2  0  0  0  0  0  0  0  0  0
   25.1619  -20.6595  -13.0289 N   0  0  0  0  0  0  0  0  0  0  0  0
   22.8239  -20.6016  -12.5305 C   0  0  0  0  0  0  0  0  0  0  0  0
   22.6186  -19.4695  -13.0378 O   0  0  0  0  0  0  0  0  0  0  0  0
   21.7925  -21.5480  -12.4871 N   0  0  0  0  0  0  0  0  0  0  0  0
   20.4490  -21.1727  -12.9689 C   0  0  1  0  0  0  0  0  0  0  0  0
   19.7515  -22.3583  -13.5041 C   0  0  0  0  0  0  0  0  0  0  0  0
   20.5478  -23.1373  -14.4858 C   0  0  0  0  0  0  0  0  0  0  0  0
   19.9130  -24.4001  -14.9104 C   0  0  0  0  0  0  0  0  0  0  0  0
   18.8632  -24.7713  -14.3033 O   0  0  0  0  0  0  0  0  0  0  0  0
   19.7830  -20.2683  -12.0501 C   0  0  0  0  0  0  0  0  0  0  0  0
   20.1677  -20.0438  -10.8780 O   0  0  0  0  0  0  0  0  0  0  0  0
   20.4034  -25.1911  -15.9289 O   0  0  0  0  0  0  0  0  0  0  0  0
   18.6221  -19.5639  -12.4352 O   0  0  0  0  0  0  0  0  0  0  0  0
  2  1  1  1
  2  3  1  0
  4  5  1  0
  4  3  1  0
  5  6  2  0
  7  2  1  0
  8  7  2  0
  9  5  1  0
 11 12  1  0
 11 10  1  0
 12 13  1  0
 14 13  1  1
 14 16  1  0
 14 15  1  0
 15  7  1  0
 16 17  2  0
 18 16  1  0
 19 18  1  0
 19 20  1  1
 21 20  1  0
 22 21  1  0
 23 22  2  0
 24 27  1  0
 24 19  1  0
 25 24  2  0
 26 22  1  0
M  END
$$$$
