EME.pdb
     RDKit          3D

 27 26  0  0  1  0  0  0  0  0999 V2000
   27.0637  -22.2258  -15.5396 N   0  0  0  0  0  0  0  0  0  0  0  0
   26.7376  -21.0665  -14.7481 C   0  0  1  0  0  0  0  0  0  0  0  0
   26.2865  -19.9142  -15.5957 C   0  0  0  0  0  0  0  0  0  0  0  0
   26.2637  -20.2718  -17.0497 C   0  0  0  0  0  0  0  0  0  0  0  0
   27.4402  -19.6896  -17.7317 C   0  0  0  0  0  0  0  0  0  0  0  0
   27.6985  -19.8321  -18.9601 O   0  0  0  0  0  0  0  0  0  0  0  0
   25.6461  -21.3558  -13.7784 C   0  0  0  0  0  0  0  0  0  0  0  0
   24.8914  -22.3237  -14.0087 O   0  0  0  0  0  0  0  0  0  0  0  0
   28.3306  -18.9311  -16.9726 O   0  0  0  0  0  0  0  0  0  0  0  0
   27.7378  -20.5506   -7.2262 C   0  0  0  0  0  0  0  0  0  0  0  0
   26.2427  -19.9693   -8.0336 S   0  0  0  0  0  0  0  0  0  0  0  0
   25.9050  -20.7784   -9.6009 C   0  0  0  0  0  0  0  0  0  0  0  0
   24.6958  -20.1660  -10.3028 C   0  0  0  0  0  0  0  0  0  0  0  0
   24.4427  -20.8299  -11.6109 C   0  0  2  0  0  0  0  0  0  0  0  0
   25.4313  -20.5800  -12.6111 N   0  0  0  0  0  0  0  0  0  0  0  0
   23.0833  -20.5478  -12.1596 C   0  0  0  0  0  0  0  0  0  0  0  0
   22.9540  -19.4898  -12.8267 O   0  0  0  0  0  0  0  0  0  0  0  0
   21.9831  -21.3918  -11.9634 N   0  0  0  0  0  0  0  0  0  0  0  0
   20.6752  -21.0160  -12.5344 C   0  0  1  0  0  0  0  0  0  0  0  0
   19.8723  -22.2247  -12.8045 C   0  0  0  0  0  0  0  0  0  0  0  0
   20.2744  -22.9568  -14.0321 C   0  0  0  0  0  0  0  0  0  0  0  0
   19.4259  -24.1234  -14.3433 C   0  0  0  0  0  0  0  0  0  0  0  0
   18.3552  -23.9234  -14.9931 O   0  0  0  0  0  0  0  0  0  0  0  0
   20.0975  -19.8761  -11.8470 C   0  0  0  0  0  0  0  0  0  0  0  0
   20.3074  -19.5980  -10.6424 O   0  0  0  0  0  0  0  0  0  0  0  0
   19.7389  -25.4124  -13.9639 O   0  0  0  0  0  0  0  0  0  0  0  0
   19.2344  -18.9826  -12.5170 O   0  0  0  0  0  0  0  0  0  0  0  0
  2  1  1  6
  2  3  1  0
  4  5  1  0
  4  3  1  0
  5  6  2  0
  7  2  1  0
  8  7  2  0
  9  5  1  0
 11 12  1  0
 11 10  1  0
 12 13  1  0
 14 13  1  1
 14 16  1  0
 14 15  1  0
 15  7  1  0
 16 17  2  0
 18 16  1  0
 19 18  1  0
 19 20  1  1
 21 20  1  0
 22 21  1  0
 23 22  2  0
 24 27  1  0
 24 19  1  0
 25 24  2  0
 26 22  1  0
M  END
$$$$
