EME.pdb
     RDKit          3D

 27 26  0  0  1  0  0  0  0  0999 V2000
   27.7733  -23.0910  -16.9590 N   0  0  0  0  0  0  0  0  0  0  0  0
   27.3127  -21.8483  -16.3930 C   0  0  1  0  0  0  0  0  0  0  0  0
   26.5802  -21.0088  -17.3973 C   0  0  0  0  0  0  0  0  0  0  0  0
   27.3664  -20.8458  -18.6614 C   0  0  0  0  0  0  0  0  0  0  0  0
   28.4830  -19.9002  -18.4437 C   0  0  0  0  0  0  0  0  0  0  0  0
   28.4718  -18.9622  -17.5974 O   0  0  0  0  0  0  0  0  0  0  0  0
   26.3874  -22.0776  -15.2500 C   0  0  0  0  0  0  0  0  0  0  0  0
   25.5890  -23.0354  -15.3182 O   0  0  0  0  0  0  0  0  0  0  0  0
   29.6294  -20.0472  -19.2236 O   0  0  0  0  0  0  0  0  0  0  0  0
   24.6414  -20.6846   -7.5876 C   0  0  0  0  0  0  0  0  0  0  0  0
   25.7014  -20.3725   -9.0033 S   0  0  0  0  0  0  0  0  0  0  0  0
   25.0785  -21.0621  -10.5400 C   0  0  0  0  0  0  0  0  0  0  0  0
   26.0553  -20.8449  -11.6926 C   0  0  0  0  0  0  0  0  0  0  0  0
   25.5251  -21.4190  -12.9596 C   0  0  2  0  0  0  0  0  0  0  0  0
   26.3773  -21.2561  -14.0942 N   0  0  0  0  0  0  0  0  0  0  0  0
   24.1476  -20.9463  -13.2877 C   0  0  0  0  0  0  0  0  0  0  0  0
   24.0537  -19.8091  -13.8160 O   0  0  0  0  0  0  0  0  0  0  0  0
   22.9943  -21.6997  -13.0356 N   0  0  0  0  0  0  0  0  0  0  0  0
   21.6745  -21.1331  -13.3748 C   0  0  1  0  0  0  0  0  0  0  0  0
   20.6917  -22.2165  -13.5717 C   0  0  0  0  0  0  0  0  0  0  0  0
   20.5944  -22.6984  -14.9728 C   0  0  0  0  0  0  0  0  0  0  0  0
   19.5446  -23.7126  -15.1899 C   0  0  0  0  0  0  0  0  0  0  0  0
   18.5419  -23.3887  -15.8957 O   0  0  0  0  0  0  0  0  0  0  0  0
   21.3580  -19.9807  -12.5518 C   0  0  0  0  0  0  0  0  0  0  0  0
   21.6598  -19.8753  -11.3393 O   0  0  0  0  0  0  0  0  0  0  0  0
   19.6007  -24.9874  -14.6653 O   0  0  0  0  0  0  0  0  0  0  0  0
   20.6670  -18.8720  -13.0862 O   0  0  0  0  0  0  0  0  0  0  0  0
  2  1  1  6
  2  3  1  0
  4  5  1  0
  4  3  1  0
  5  6  2  0
  7  2  1  0
  8  7  2  0
  9  5  1  0
 11 12  1  0
 11 10  1  0
 12 13  1  0
 14 13  1  1
 14 16  1  0
 14 15  1  0
 15  7  1  0
 16 17  2  0
 18 16  1  0
 19 18  1  0
 19 20  1  1
 21 20  1  0
 22 21  1  0
 23 22  2  0
 24 27  1  0
 24 19  1  0
 25 24  2  0
 26 22  1  0
M  END
$$$$
