EME.pdb
     RDKit          3D

 27 26  0  0  1  0  0  0  0  0999 V2000
   19.6797  -15.3880  -15.3138 N   0  0  0  0  0  0  0  0  0  0  0  0
   19.7025  -15.3103  -16.7526 C   0  0  1  0  0  0  0  0  0  0  0  0
   19.3102  -16.6085  -17.3934 C   0  0  0  0  0  0  0  0  0  0  0  0
   18.7027  -17.5535  -16.4032 C   0  0  0  0  0  0  0  0  0  0  0  0
   19.7269  -18.5041  -15.9177 C   0  0  0  0  0  0  0  0  0  0  0  0
   20.9484  -18.4652  -16.2378 O   0  0  0  0  0  0  0  0  0  0  0  0
   18.7689  -14.2677  -17.2590 C   0  0  0  0  0  0  0  0  0  0  0  0
   18.7295  -14.0559  -18.4891 O   0  0  0  0  0  0  0  0  0  0  0  0
   19.3235  -19.5163  -15.0478 O   0  0  0  0  0  0  0  0  0  0  0  0
   12.1540  -11.7992  -15.7414 C   0  0  0  0  0  0  0  0  0  0  0  0
   12.8973  -12.4442  -17.2436 S   0  0  0  0  0  0  0  0  0  0  0  0
   14.6239  -11.9946  -17.4478 C   0  0  0  0  0  0  0  0  0  0  0  0
   15.5521  -12.9959  -16.7654 C   0  0  0  0  0  0  0  0  0  0  0  0
   16.9677  -12.5391  -16.8223 C   0  0  2  0  0  0  0  0  0  0  0  0
   17.9281  -13.5103  -16.4045 N   0  0  0  0  0  0  0  0  0  0  0  0
   17.1996  -11.2532  -16.1003 C   0  0  0  0  0  0  0  0  0  0  0  0
   17.5422  -11.3390  -14.8935 O   0  0  0  0  0  0  0  0  0  0  0  0
   17.0531   -9.9961  -16.6999 N   0  0  0  0  0  0  0  0  0  0  0  0
   17.3279   -8.7824  -15.9064 C   0  0  1  0  0  0  0  0  0  0  0  0
   17.9049   -7.7319  -16.7678 C   0  0  0  0  0  0  0  0  0  0  0  0
   18.2090   -6.4648  -16.0561 C   0  0  0  0  0  0  0  0  0  0  0  0
   18.6722   -5.3750  -16.9368 C   0  0  0  0  0  0  0  0  0  0  0  0
   19.0452   -5.6771  -18.1107 O   0  0  0  0  0  0  0  0  0  0  0  0
   16.2422   -8.4826  -14.9915 C   0  0  0  0  0  0  0  0  0  0  0  0
   15.0266   -8.5696  -15.2865 O   0  0  0  0  0  0  0  0  0  0  0  0
   18.7191   -4.0523  -16.5472 O   0  0  0  0  0  0  0  0  0  0  0  0
   16.4998   -8.0601  -13.6697 O   0  0  0  0  0  0  0  0  0  0  0  0
  2  1  1  1
  2  3  1  0
  4  5  1  0
  4  3  1  0
  5  6  2  0
  7  2  1  0
  8  7  2  0
  9  5  1  0
 11 12  1  0
 11 10  1  0
 12 13  1  0
 14 13  1  1
 14 16  1  0
 14 15  1  0
 15  7  1  0
 16 17  2  0
 18 16  1  0
 19 18  1  0
 19 20  1  6
 21 20  1  0
 22 21  1  0
 23 22  2  0
 24 27  1  0
 24 19  1  0
 25 24  2  0
 26 22  1  0
M  END
$$$$
