EME.pdb
     RDKit          3D

 27 26  0  0  1  0  0  0  0  0999 V2000
   28.8054  -19.9326  -15.4297 N   0  0  0  0  0  0  0  0  0  0  0  0
   27.4294  -19.8817  -15.8550 C   0  0  1  0  0  0  0  0  0  0  0  0
   27.2376  -20.4819  -17.2162 C   0  0  0  0  0  0  0  0  0  0  0  0
   28.5453  -20.8338  -17.8554 C   0  0  0  0  0  0  0  0  0  0  0  0
   28.3888  -22.0419  -18.6946 C   0  0  0  0  0  0  0  0  0  0  0  0
   27.3439  -22.7504  -18.7413 O   0  0  0  0  0  0  0  0  0  0  0  0
   26.5395  -20.6194  -14.9174 C   0  0  0  0  0  0  0  0  0  0  0  0
   25.9376  -21.6275  -15.3428 O   0  0  0  0  0  0  0  0  0  0  0  0
   29.4650  -22.4325  -19.4905 O   0  0  0  0  0  0  0  0  0  0  0  0
   26.1767  -19.5300   -8.1830 C   0  0  0  0  0  0  0  0  0  0  0  0
   25.5254  -21.1710   -8.5118 S   0  0  0  0  0  0  0  0  0  0  0  0
   25.0441  -21.4293  -10.2225 C   0  0  0  0  0  0  0  0  0  0  0  0
   25.9808  -20.7071  -11.1873 C   0  0  0  0  0  0  0  0  0  0  0  0
   25.5570  -20.9117  -12.5996 C   0  0  2  0  0  0  0  0  0  0  0  0
   26.3497  -20.2245  -13.5688 N   0  0  0  0  0  0  0  0  0  0  0  0
   24.1109  -20.6192  -12.8273 C   0  0  0  0  0  0  0  0  0  0  0  0
   23.7836  -19.4063  -12.8808 O   0  0  0  0  0  0  0  0  0  0  0  0
   23.1380  -21.6152  -12.9777 N   0  0  0  0  0  0  0  0  0  0  0  0
   21.7231  -21.2240  -13.1294 C   0  0  1  0  0  0  0  0  0  0  0  0
   20.9200  -22.3817  -13.5690 C   0  0  0  0  0  0  0  0  0  0  0  0
   19.4986  -22.0597  -13.8531 C   0  0  0  0  0  0  0  0  0  0  0  0
   18.7215  -23.1902  -14.3970 C   0  0  0  0  0  0  0  0  0  0  0  0
   19.3080  -24.3073  -14.5261 O   0  0  0  0  0  0  0  0  0  0  0  0
   21.2791  -20.3822  -12.0340 C   0  0  0  0  0  0  0  0  0  0  0  0
   20.5823  -19.3494  -12.1755 O   0  0  0  0  0  0  0  0  0  0  0  0
   17.3967  -23.0911  -14.7696 O   0  0  0  0  0  0  0  0  0  0  0  0
   21.6181  -20.6867  -10.6981 O   0  0  0  0  0  0  0  0  0  0  0  0
  2  1  1  1
  2  3  1  0
  4  5  1  0
  4  3  1  0
  5  6  2  0
  7  2  1  0
  8  7  2  0
  9  5  1  0
 11 12  1  0
 11 10  1  0
 12 13  1  0
 14 13  1  1
 14 16  1  0
 14 15  1  0
 15  7  1  0
 16 17  2  0
 18 16  1  0
 19 18  1  0
 19 20  1  1
 21 20  1  0
 22 21  1  0
 23 22  2  0
 24 27  1  0
 24 19  1  0
 25 24  2  0
 26 22  1  0
M  END
$$$$
