EME.pdb
     RDKit          3D

 27 26  0  0  1  0  0  0  0  0999 V2000
   18.5216  -15.2062  -17.2879 N   0  0  0  0  0  0  0  0  0  0  0  0
   19.1293  -14.1015  -17.9858 C   0  0  1  0  0  0  0  0  0  0  0  0
   18.1115  -13.2414  -18.6744 C   0  0  0  0  0  0  0  0  0  0  0  0
   16.8934  -13.0390  -17.8272 C   0  0  0  0  0  0  0  0  0  0  0  0
   15.9202  -12.1811  -18.5381 C   0  0  0  0  0  0  0  0  0  0  0  0
   15.7832  -12.1427  -19.7934 O   0  0  0  0  0  0  0  0  0  0  0  0
   19.8952  -13.2239  -17.0592 C   0  0  0  0  0  0  0  0  0  0  0  0
   19.3787  -12.9295  -15.9610 O   0  0  0  0  0  0  0  0  0  0  0  0
   15.0949  -11.3543  -17.7770 O   0  0  0  0  0  0  0  0  0  0  0  0
   26.9873  -10.4175  -14.7852 C   0  0  0  0  0  0  0  0  0  0  0  0
   26.0117  -11.4138  -15.9169 S   0  0  0  0  0  0  0  0  0  0  0  0
   24.2387  -11.2185  -15.7090 C   0  0  0  0  0  0  0  0  0  0  0  0
   23.4565  -12.1118  -16.6682 C   0  0  0  0  0  0  0  0  0  0  0  0
   21.9901  -11.9042  -16.5183 C   0  0  2  0  0  0  0  0  0  0  0  0
   21.1799  -12.7124  -17.3730 N   0  0  0  0  0  0  0  0  0  0  0  0
   21.5839  -10.4727  -16.6392 C   0  0  0  0  0  0  0  0  0  0  0  0
   21.4905  -10.0107  -17.8049 O   0  0  0  0  0  0  0  0  0  0  0  0
   21.3130   -9.6533  -15.5363 N   0  0  0  0  0  0  0  0  0  0  0  0
   20.8816   -8.2601  -15.7620 C   0  0  1  0  0  0  0  0  0  0  0  0
   19.4103   -8.1924  -15.8556 C   0  0  0  0  0  0  0  0  0  0  0  0
   18.8693   -6.8104  -15.8995 C   0  0  0  0  0  0  0  0  0  0  0  0
   17.6804   -6.6554  -16.7600 C   0  0  0  0  0  0  0  0  0  0  0  0
   17.2317   -7.6871  -17.3454 O   0  0  0  0  0  0  0  0  0  0  0  0
   21.6187   -7.3288  -14.9282 C   0  0  0  0  0  0  0  0  0  0  0  0
   22.3472   -7.6678  -13.9656 O   0  0  0  0  0  0  0  0  0  0  0  0
   17.0380   -5.4504  -16.9571 O   0  0  0  0  0  0  0  0  0  0  0  0
   21.5562   -5.9379  -15.1595 O   0  0  0  0  0  0  0  0  0  0  0  0
  2  1  1  1
  2  3  1  0
  4  5  1  0
  4  3  1  0
  5  6  2  0
  7  2  1  0
  8  7  2  0
  9  5  1  0
 11 12  1  0
 11 10  1  0
 12 13  1  0
 14 13  1  6
 14 16  1  0
 14 15  1  0
 15  7  1  0
 16 17  2  0
 18 16  1  0
 19 18  1  0
 19 20  1  1
 21 20  1  0
 22 21  1  0
 23 22  2  0
 24 27  1  0
 24 19  1  0
 25 24  2  0
 26 22  1  0
M  END
$$$$
