CAP.pdb
     RDKit          3D

 19 19  0  0  1  0  0  0  0  0999 V2000
    8.4970  -12.9449   18.8692 N   0  0  0  0  0  0  0  0  0  0  0  0
    8.6997  -14.0818   19.7136 C   0  0  1  0  0  0  0  0  0  0  0  0
   10.1846  -14.2733   19.9482 C   0  0  0  0  0  0  0  0  0  0  0  0
   10.8656  -12.7420   20.6175 S   0  0  0  0  0  0  0  0  0  0  0  0
    8.0578  -13.9394   21.0431 C   0  0  0  0  0  0  0  0  0  0  0  0
    7.9269  -12.7901   21.5160 O   0  0  0  0  0  0  0  0  0  0  0  0
    6.2197  -16.1915   23.4815 C   0  0  0  0  0  0  0  0  0  0  0  0
    6.9585  -14.9018   23.1090 C   0  0  2  0  0  0  0  0  0  0  0  0
    7.5852  -15.0456   21.8037 N   0  0  0  0  0  0  0  0  0  0  0  0
    7.9117  -14.5477   24.1574 C   0  0  0  0  0  0  0  0  0  0  0  0
    9.1178  -14.9561   24.1686 O   0  0  0  0  0  0  0  0  0  0  0  0
    7.5137  -13.7091   25.2365 N   0  0  0  0  0  0  0  0  0  0  0  0
    6.2176  -13.0051   25.2687 C   0  0  0  0  0  0  0  0  0  0  0  0
    6.5278  -11.8472   26.2327 C   0  0  0  0  0  0  0  0  0  0  0  0
    7.3109  -12.6090   27.2731 C   0  0  0  0  0  0  0  0  0  0  0  0
    8.2819  -13.3920   26.4296 C   0  0  1  0  0  0  0  0  0  0  0  0
    8.7330  -14.6262   27.1229 C   0  0  0  0  0  0  0  0  0  0  0  0
    8.0547  -15.6687   26.9798 O   0  0  0  0  0  0  0  0  0  0  0  0
    9.8614  -14.6875   27.9182 O   0  0  0  0  0  0  0  0  0  0  0  0
  2  1  1  6
  2  3  1  0
  4  3  1  0
  5  2  1  0
  6  5  2  0
  8  7  1  1
  8  9  1  0
  9  5  1  0
 10  8  1  0
 10 12  1  0
 11 10  2  0
 12 16  1  0
 13 12  1  0
 13 14  1  0
 14 15  1  0
 16 15  1  0
 16 17  1  1
 17 19  1  0
 18 17  2  0
M  END
$$$$
