CAP.pdb
     RDKit          3D

 19 19  0  0  1  0  0  0  0  0999 V2000
   11.7630  -16.6098   14.2707 N   0  0  0  0  0  0  0  0  0  0  0  0
   11.8240  -16.9215   15.6655 C   0  0  1  0  0  0  0  0  0  0  0  0
   13.1719  -16.4992   16.2147 C   0  0  0  0  0  0  0  0  0  0  0  0
   12.9211  -15.7148   17.8204 S   0  0  0  0  0  0  0  0  0  0  0  0
   10.7851  -16.2246   16.4623 C   0  0  0  0  0  0  0  0  0  0  0  0
   10.6053  -15.0045   16.2606 O   0  0  0  0  0  0  0  0  0  0  0  0
    7.8612  -17.2171   18.6105 C   0  0  0  0  0  0  0  0  0  0  0  0
    8.9268  -16.2038   18.1795 C   0  0  2  0  0  0  0  0  0  0  0  0
    9.9854  -16.8769   17.4424 N   0  0  0  0  0  0  0  0  0  0  0  0
    9.4246  -15.4726   19.3418 C   0  0  0  0  0  0  0  0  0  0  0  0
   10.3761  -15.8952   20.0750 O   0  0  0  0  0  0  0  0  0  0  0  0
    8.8454  -14.2248   19.7073 N   0  0  0  0  0  0  0  0  0  0  0  0
    7.9715  -13.4516   18.8044 C   0  0  0  0  0  0  0  0  0  0  0  0
    8.1308  -12.0317   19.3742 C   0  0  0  0  0  0  0  0  0  0  0  0
    8.0592  -12.3579   20.8455 C   0  0  0  0  0  0  0  0  0  0  0  0
    9.0198  -13.5116   20.9623 C   0  0  1  0  0  0  0  0  0  0  0  0
    8.6912  -14.3780   22.1237 C   0  0  0  0  0  0  0  0  0  0  0  0
    9.2022  -14.1023   23.2328 O   0  0  0  0  0  0  0  0  0  0  0  0
    7.8517  -15.4729   22.0475 O   0  0  0  0  0  0  0  0  0  0  0  0
  2  1  1  6
  2  3  1  0
  4  3  1  0
  5  2  1  0
  6  5  2  0
  8  7  1  1
  8  9  1  0
  9  5  1  0
 10  8  1  0
 10 12  1  0
 11 10  2  0
 12 16  1  0
 13 12  1  0
 13 14  1  0
 14 15  1  0
 16 15  1  0
 16 17  1  1
 17 19  1  0
 18 17  2  0
M  END
$$$$
