CAP.pdb
     RDKit          3D

 19 19  0  0  1  0  0  0  0  0999 V2000
    7.4426  -17.1217   19.5820 N   0  0  0  0  0  0  0  0  0  0  0  0
    8.3226  -16.6163   20.5903 C   0  0  1  0  0  0  0  0  0  0  0  0
    9.1528  -15.4885   20.0111 C   0  0  0  0  0  0  0  0  0  0  0  0
   10.3074  -14.9144   21.2736 S   0  0  0  0  0  0  0  0  0  0  0  0
    7.6043  -16.0748   21.7695 C   0  0  0  0  0  0  0  0  0  0  0  0
    6.6789  -15.2582   21.5741 O   0  0  0  0  0  0  0  0  0  0  0  0
    6.6193  -17.0239   25.1005 C   0  0  0  0  0  0  0  0  0  0  0  0
    7.2238  -15.8909   24.2644 C   0  0  2  0  0  0  0  0  0  0  0  0
    7.9176  -16.4396   23.1091 N   0  0  0  0  0  0  0  0  0  0  0  0
    8.0859  -15.0563   25.0971 C   0  0  0  0  0  0  0  0  0  0  0  0
    9.3387  -15.2508   25.2163 O   0  0  0  0  0  0  0  0  0  0  0  0
    7.5391  -13.9637   25.8275 N   0  0  0  0  0  0  0  0  0  0  0  0
    6.1465  -13.5058   25.6622 C   0  0  0  0  0  0  0  0  0  0  0  0
    6.2495  -12.0486   26.1442 C   0  0  0  0  0  0  0  0  0  0  0  0
    7.1260  -12.2610   27.3536 C   0  0  0  0  0  0  0  0  0  0  0  0
    8.2251  -13.1294   26.8010 C   0  0  1  0  0  0  0  0  0  0  0  0
    8.8559  -13.9520   27.8652 C   0  0  0  0  0  0  0  0  0  0  0  0
    8.4328  -15.1166   28.0441 O   0  0  0  0  0  0  0  0  0  0  0  0
    9.8854  -13.5024   28.6699 O   0  0  0  0  0  0  0  0  0  0  0  0
  2  1  1  6
  2  3  1  0
  4  3  1  0
  5  2  1  0
  6  5  2  0
  8  7  1  1
  8  9  1  0
  9  5  1  0
 10  8  1  0
 10 12  1  0
 11 10  2  0
 12 16  1  0
 13 12  1  0
 13 14  1  0
 14 15  1  0
 16 15  1  0
 16 17  1  1
 17 19  1  0
 18 17  2  0
M  END
$$$$
