CAP.pdb
     RDKit          3D

 19 19  0  0  1  0  0  0  0  0999 V2000
    7.2342  -16.4274   19.6526 N   0  0  0  0  0  0  0  0  0  0  0  0
    8.2012  -16.3489   20.7039 C   0  0  1  0  0  0  0  0  0  0  0  0
    9.3403  -15.4480   20.2706 C   0  0  0  0  0  0  0  0  0  0  0  0
   10.5971  -15.4433   21.5656 S   0  0  0  0  0  0  0  0  0  0  0  0
    7.6484  -15.7876   21.9606 C   0  0  0  0  0  0  0  0  0  0  0  0
    7.0626  -14.6851   21.9078 O   0  0  0  0  0  0  0  0  0  0  0  0
    6.7130  -17.0623   25.3476 C   0  0  0  0  0  0  0  0  0  0  0  0
    7.1661  -15.9128   24.4414 C   0  0  2  0  0  0  0  0  0  0  0  0
    7.7527  -16.4426   23.2198 N   0  0  0  0  0  0  0  0  0  0  0  0
    8.0746  -15.0287   25.1669 C   0  0  0  0  0  0  0  0  0  0  0  0
    9.3394  -15.1768   25.1653 O   0  0  0  0  0  0  0  0  0  0  0  0
    7.5624  -13.9382   25.9250 N   0  0  0  0  0  0  0  0  0  0  0  0
    6.1525  -13.5086   25.8597 C   0  0  0  0  0  0  0  0  0  0  0  0
    6.2625  -12.0443   26.3177 C   0  0  0  0  0  0  0  0  0  0  0  0
    7.2308  -12.2259   27.4602 C   0  0  0  0  0  0  0  0  0  0  0  0
    8.3025  -13.0798   26.8358 C   0  0  1  0  0  0  0  0  0  0  0  0
    9.0271  -13.8779   27.8583 C   0  0  0  0  0  0  0  0  0  0  0  0
    8.6434  -15.0492   28.0780 O   0  0  0  0  0  0  0  0  0  0  0  0
   10.1026  -13.3985   28.5813 O   0  0  0  0  0  0  0  0  0  0  0  0
  2  1  1  6
  2  3  1  0
  4  3  1  0
  5  2  1  0
  6  5  2  0
  8  7  1  1
  8  9  1  0
  9  5  1  0
 10  8  1  0
 10 12  1  0
 11 10  2  0
 12 16  1  0
 13 12  1  0
 13 14  1  0
 14 15  1  0
 16 15  1  0
 16 17  1  1
 17 19  1  0
 18 17  2  0
M  END
$$$$
