CAP.pdb
     RDKit          3D

 19 19  0  0  1  0  0  0  0  0999 V2000
    7.8794  -16.3121   19.1094 N   0  0  0  0  0  0  0  0  0  0  0  0
    8.1592  -15.1569   19.9053 C   0  0  1  0  0  0  0  0  0  0  0  0
    7.7762  -13.9110   19.1322 C   0  0  0  0  0  0  0  0  0  0  0  0
    8.1204  -12.4665   20.1576 S   0  0  0  0  0  0  0  0  0  0  0  0
    7.4035  -15.1339   21.1813 C   0  0  0  0  0  0  0  0  0  0  0  0
    6.1940  -15.4470   21.1574 O   0  0  0  0  0  0  0  0  0  0  0  0
    6.8937  -16.4003   23.8938 C   0  0  0  0  0  0  0  0  0  0  0  0
    7.3045  -14.9366   23.7021 C   0  0  2  0  0  0  0  0  0  0  0  0
    7.9880  -14.7736   22.4279 N   0  0  0  0  0  0  0  0  0  0  0  0
    8.1082  -14.4872   24.8358 C   0  0  0  0  0  0  0  0  0  0  0  0
    9.3153  -14.8483   25.0201 O   0  0  0  0  0  0  0  0  0  0  0  0
    7.5532  -13.6040   25.8043 N   0  0  0  0  0  0  0  0  0  0  0  0
    6.1793  -13.0743   25.7121 C   0  0  0  0  0  0  0  0  0  0  0  0
    6.2920  -11.7957   26.5597 C   0  0  0  0  0  0  0  0  0  0  0  0
    7.1094  -12.3419   27.7041 C   0  0  0  0  0  0  0  0  0  0  0  0
    8.2130  -13.0725   26.9859 C   0  0  1  0  0  0  0  0  0  0  0  0
    8.7785  -14.1624   27.8225 C   0  0  0  0  0  0  0  0  0  0  0  0
    8.2757  -15.3050   27.7273 O   0  0  0  0  0  0  0  0  0  0  0  0
    9.8301  -13.9847   28.7011 O   0  0  0  0  0  0  0  0  0  0  0  0
  2  1  1  6
  2  3  1  0
  4  3  1  0
  5  2  1  0
  6  5  2  0
  8  7  1  1
  8  9  1  0
  9  5  1  0
 10  8  1  0
 10 12  1  0
 11 10  2  0
 12 16  1  0
 13 12  1  0
 13 14  1  0
 14 15  1  0
 16 15  1  0
 16 17  1  1
 17 19  1  0
 18 17  2  0
M  END
$$$$
