CAP.pdb
     RDKit          3D

 19 19  0  0  1  0  0  0  0  0999 V2000
    7.5528  -15.3358   18.8778 N   0  0  0  0  0  0  0  0  0  0  0  0
    8.1223  -14.5209   19.9064 C   0  0  1  0  0  0  0  0  0  0  0  0
    7.9980  -13.0618   19.5160 C   0  0  0  0  0  0  0  0  0  0  0  0
    9.6342  -12.3038   19.5869 S   0  0  0  0  0  0  0  0  0  0  0  0
    7.4486  -14.6857   21.2175 C   0  0  0  0  0  0  0  0  0  0  0  0
    6.2123  -14.5125   21.2725 O   0  0  0  0  0  0  0  0  0  0  0  0
    7.1546  -16.6364   23.9749 C   0  0  0  0  0  0  0  0  0  0  0  0
    7.4804  -15.1642   23.7020 C   0  0  2  0  0  0  0  0  0  0  0  0
    8.1407  -15.0306   22.4123 N   0  0  0  0  0  0  0  0  0  0  0  0
    8.2690  -14.6118   24.8003 C   0  0  0  0  0  0  0  0  0  0  0  0
    9.4944  -14.9006   24.9916 O   0  0  0  0  0  0  0  0  0  0  0  0
    7.6772  -13.7046   25.7239 N   0  0  0  0  0  0  0  0  0  0  0  0
    6.3076  -13.1794   25.5658 C   0  0  0  0  0  0  0  0  0  0  0  0
    6.3876  -11.8792   26.3839 C   0  0  0  0  0  0  0  0  0  0  0  0
    7.1611  -12.3946   27.5722 C   0  0  0  0  0  0  0  0  0  0  0  0
    8.2915  -13.1420   26.9156 C   0  0  1  0  0  0  0  0  0  0  0  0
    8.8251  -14.2092   27.8009 C   0  0  0  0  0  0  0  0  0  0  0  0
    8.3219  -15.3528   27.7212 O   0  0  0  0  0  0  0  0  0  0  0  0
    9.8475  -14.0093   28.7087 O   0  0  0  0  0  0  0  0  0  0  0  0
  2  1  1  6
  2  3  1  0
  4  3  1  0
  5  2  1  0
  6  5  2  0
  8  7  1  1
  8  9  1  0
  9  5  1  0
 10  8  1  0
 10 12  1  0
 11 10  2  0
 12 16  1  0
 13 12  1  0
 13 14  1  0
 14 15  1  0
 16 15  1  0
 16 17  1  1
 17 19  1  0
 18 17  2  0
M  END
$$$$
