CAP.pdb
     RDKit          3D

 19 19  0  0  1  0  0  0  0  0999 V2000
    7.4684  -15.7217   19.1487 N   0  0  0  0  0  0  0  0  0  0  0  0
    8.3986  -15.7820   20.2339 C   0  0  1  0  0  0  0  0  0  0  0  0
    9.6112  -14.9357   19.9020 C   0  0  0  0  0  0  0  0  0  0  0  0
   10.8475  -15.1656   21.1963 S   0  0  0  0  0  0  0  0  0  0  0  0
    7.8384  -15.2696   21.5080 C   0  0  0  0  0  0  0  0  0  0  0  0
    7.5394  -14.0583   21.5773 O   0  0  0  0  0  0  0  0  0  0  0  0
    6.2866  -16.7721   24.5842 C   0  0  0  0  0  0  0  0  0  0  0  0
    6.9760  -15.6094   23.8625 C   0  0  2  0  0  0  0  0  0  0  0  0
    7.6257  -16.0891   22.6521 N   0  0  0  0  0  0  0  0  0  0  0  0
    7.8996  -14.9319   24.7688 C   0  0  0  0  0  0  0  0  0  0  0  0
    9.1422  -15.2040   24.8279 O   0  0  0  0  0  0  0  0  0  0  0  0
    7.4286  -13.9136   25.6448 N   0  0  0  0  0  0  0  0  0  0  0  0
    6.0629  -13.3604   25.5701 C   0  0  0  0  0  0  0  0  0  0  0  0
    6.2583  -11.9858   26.2321 C   0  0  0  0  0  0  0  0  0  0  0  0
    7.1384  -12.4014   27.3849 C   0  0  0  0  0  0  0  0  0  0  0  0
    8.1764  -13.2518   26.7017 C   0  0  1  0  0  0  0  0  0  0  0  0
    8.7733  -14.2391   27.6378 C   0  0  0  0  0  0  0  0  0  0  0  0
    8.2464  -15.3718   27.7208 O   0  0  0  0  0  0  0  0  0  0  0  0
    9.8793  -13.9762   28.4233 O   0  0  0  0  0  0  0  0  0  0  0  0
  2  1  1  6
  2  3  1  0
  4  3  1  0
  5  2  1  0
  6  5  2  0
  8  7  1  1
  8  9  1  0
  9  5  1  0
 10  8  1  0
 10 12  1  0
 11 10  2  0
 12 16  1  0
 13 12  1  0
 13 14  1  0
 14 15  1  0
 16 15  1  0
 16 17  1  1
 17 19  1  0
 18 17  2  0
M  END
$$$$
