CAP.pdb
     RDKit          3D

 19 19  0  0  1  0  0  0  0  0999 V2000
    7.3150  -16.5076   19.1905 N   0  0  0  0  0  0  0  0  0  0  0  0
    8.1399  -16.1989   20.3178 C   0  0  1  0  0  0  0  0  0  0  0  0
    9.0490  -15.0373   19.9702 C   0  0  0  0  0  0  0  0  0  0  0  0
    8.0312  -13.5784   19.6663 S   0  0  0  0  0  0  0  0  0  0  0  0
    7.3608  -15.8058   21.5171 C   0  0  0  0  0  0  0  0  0  0  0  0
    6.1141  -15.8640   21.4570 O   0  0  0  0  0  0  0  0  0  0  0  0
    6.6457  -16.6747   24.3251 C   0  0  0  0  0  0  0  0  0  0  0  0
    7.2477  -15.3048   23.9948 C   0  0  2  0  0  0  0  0  0  0  0  0
    7.9635  -15.3669   22.7295 N   0  0  0  0  0  0  0  0  0  0  0  0
    8.0885  -14.8460   25.0975 C   0  0  0  0  0  0  0  0  0  0  0  0
    9.2460  -15.3210   25.3347 O   0  0  0  0  0  0  0  0  0  0  0  0
    7.6293  -13.8217   25.9727 N   0  0  0  0  0  0  0  0  0  0  0  0
    6.2702  -13.2527   25.8972 C   0  0  0  0  0  0  0  0  0  0  0  0
    6.4815  -11.8799   26.5582 C   0  0  0  0  0  0  0  0  0  0  0  0
    7.3564  -12.3048   27.7115 C   0  0  0  0  0  0  0  0  0  0  0  0
    8.3845  -13.1679   27.0292 C   0  0  1  0  0  0  0  0  0  0  0  0
    8.9697  -14.1613   27.9662 C   0  0  0  0  0  0  0  0  0  0  0  0
    9.9209  -13.8003   28.6957 O   0  0  0  0  0  0  0  0  0  0  0  0
    8.5216  -15.4637   28.0775 O   0  0  0  0  0  0  0  0  0  0  0  0
  2  1  1  6
  2  3  1  0
  4  3  1  0
  5  2  1  0
  6  5  2  0
  8  7  1  1
  8  9  1  0
  9  5  1  0
 10  8  1  0
 10 12  1  0
 11 10  2  0
 12 16  1  0
 13 12  1  0
 13 14  1  0
 14 15  1  0
 16 15  1  0
 16 17  1  1
 17 19  1  0
 18 17  2  0
M  END
$$$$
