CAP.pdb
     RDKit          3D

 19 19  0  0  1  0  0  0  0  0999 V2000
    7.3362  -15.6431   19.1156 N   0  0  0  0  0  0  0  0  0  0  0  0
    7.8656  -14.7111   20.0630 C   0  0  1  0  0  0  0  0  0  0  0  0
    7.6108  -13.2997   19.5734 C   0  0  0  0  0  0  0  0  0  0  0  0
    8.9944  -12.7910   18.5324 S   0  0  0  0  0  0  0  0  0  0  0  0
    7.2452  -14.8313   21.4048 C   0  0  0  0  0  0  0  0  0  0  0  0
    6.0196  -14.6119   21.5110 O   0  0  0  0  0  0  0  0  0  0  0  0
    7.0495  -16.7136   24.2448 C   0  0  0  0  0  0  0  0  0  0  0  0
    7.3734  -15.2571   23.8958 C   0  0  2  0  0  0  0  0  0  0  0  0
    7.9767  -15.1837   22.5737 N   0  0  0  0  0  0  0  0  0  0  0  0
    8.2140  -14.6662   24.9339 C   0  0  0  0  0  0  0  0  0  0  0  0
    9.4522  -14.9340   25.0632 O   0  0  0  0  0  0  0  0  0  0  0  0
    7.6616  -13.7433   25.8662 N   0  0  0  0  0  0  0  0  0  0  0  0
    6.2782  -13.2394   25.7716 C   0  0  0  0  0  0  0  0  0  0  0  0
    6.3852  -11.9179   26.5516 C   0  0  0  0  0  0  0  0  0  0  0  0
    7.2303  -12.3932   27.7074 C   0  0  0  0  0  0  0  0  0  0  0  0
    8.3329  -13.1430   27.0077 C   0  0  1  0  0  0  0  0  0  0  0  0
    8.9294  -14.1806   27.8881 C   0  0  0  0  0  0  0  0  0  0  0  0
    8.4756  -15.3456   27.8236 O   0  0  0  0  0  0  0  0  0  0  0  0
    9.9588  -13.9307   28.7754 O   0  0  0  0  0  0  0  0  0  0  0  0
  2  1  1  6
  2  3  1  0
  4  3  1  0
  5  2  1  0
  6  5  2  0
  8  7  1  1
  8  9  1  0
  9  5  1  0
 10  8  1  0
 10 12  1  0
 11 10  2  0
 12 16  1  0
 13 12  1  0
 13 14  1  0
 14 15  1  0
 16 15  1  0
 16 17  1  1
 17 19  1  0
 18 17  2  0
M  END
$$$$
