CAP.pdb
     RDKit          3D

 19 19  0  0  1  0  0  0  0  0999 V2000
    7.6725  -15.9760   18.9237 N   0  0  0  0  0  0  0  0  0  0  0  0
    8.1182  -14.9808   19.8497 C   0  0  1  0  0  0  0  0  0  0  0  0
    7.9637  -13.6092   19.2239 C   0  0  0  0  0  0  0  0  0  0  0  0
    8.4574  -12.3640   20.4331 S   0  0  0  0  0  0  0  0  0  0  0  0
    7.3452  -14.9777   21.1155 C   0  0  0  0  0  0  0  0  0  0  0  0
    6.1323  -15.2742   21.0679 O   0  0  0  0  0  0  0  0  0  0  0  0
    6.8985  -16.4015   23.7574 C   0  0  0  0  0  0  0  0  0  0  0  0
    7.2467  -14.9137   23.6432 C   0  0  2  0  0  0  0  0  0  0  0  0
    7.9172  -14.6544   22.3780 N   0  0  0  0  0  0  0  0  0  0  0  0
    8.0360  -14.4920   24.7975 C   0  0  0  0  0  0  0  0  0  0  0  0
    9.2335  -14.8751   24.9996 O   0  0  0  0  0  0  0  0  0  0  0  0
    7.4771  -13.6123   25.7669 N   0  0  0  0  0  0  0  0  0  0  0  0
    6.0988  -13.0935   25.6784 C   0  0  0  0  0  0  0  0  0  0  0  0
    6.2041  -11.8132   26.5246 C   0  0  0  0  0  0  0  0  0  0  0  0
    7.0293  -12.3520   27.6669 C   0  0  0  0  0  0  0  0  0  0  0  0
    8.1364  -13.0746   26.9461 C   0  0  1  0  0  0  0  0  0  0  0  0
    8.7129  -14.1593   27.7818 C   0  0  0  0  0  0  0  0  0  0  0  0
    8.2236  -15.3075   27.6839 O   0  0  0  0  0  0  0  0  0  0  0  0
    9.7608  -13.9709   28.6626 O   0  0  0  0  0  0  0  0  0  0  0  0
  2  1  1  6
  2  3  1  0
  4  3  1  0
  5  2  1  0
  6  5  2  0
  8  7  1  1
  8  9  1  0
  9  5  1  0
 10  8  1  0
 10 12  1  0
 11 10  2  0
 12 16  1  0
 13 12  1  0
 13 14  1  0
 14 15  1  0
 16 15  1  0
 16 17  1  1
 17 19  1  0
 18 17  2  0
M  END
$$$$
