CAP.pdb
     RDKit          3D

 19 19  0  0  1  0  0  0  0  0999 V2000
    7.8831  -16.1764   19.0055 N   0  0  0  0  0  0  0  0  0  0  0  0
    8.2083  -15.0677   19.8491 C   0  0  1  0  0  0  0  0  0  0  0  0
    7.9346  -13.7756   19.1059 C   0  0  0  0  0  0  0  0  0  0  0  0
    8.3038  -12.3901   20.2016 S   0  0  0  0  0  0  0  0  0  0  0  0
    7.4102  -15.0354   21.0988 C   0  0  0  0  0  0  0  0  0  0  0  0
    6.1831  -15.2584   21.0223 O   0  0  0  0  0  0  0  0  0  0  0  0
    6.8180  -16.4278   23.7510 C   0  0  0  0  0  0  0  0  0  0  0  0
    7.2484  -14.9628   23.6230 C   0  0  2  0  0  0  0  0  0  0  0  0
    7.9734  -14.7633   22.3773 N   0  0  0  0  0  0  0  0  0  0  0  0
    8.0201  -14.5611   24.7962 C   0  0  0  0  0  0  0  0  0  0  0  0
    9.1955  -14.9882   25.0361 O   0  0  0  0  0  0  0  0  0  0  0  0
    7.4682  -13.6514   25.7417 N   0  0  0  0  0  0  0  0  0  0  0  0
    6.1059  -13.0981   25.6210 C   0  0  0  0  0  0  0  0  0  0  0  0
    6.2307  -11.8075   26.4486 C   0  0  0  0  0  0  0  0  0  0  0  0
    7.0217  -12.3491   27.6135 C   0  0  0  0  0  0  0  0  0  0  0  0
    8.1214  -13.1121   26.9235 C   0  0  1  0  0  0  0  0  0  0  0  0
    8.6546  -14.1979   27.7862 C   0  0  0  0  0  0  0  0  0  0  0  0
    8.1437  -15.3368   27.6904 O   0  0  0  0  0  0  0  0  0  0  0  0
    9.6847  -14.0201   28.6900 O   0  0  0  0  0  0  0  0  0  0  0  0
  2  1  1  6
  2  3  1  0
  4  3  1  0
  5  2  1  0
  6  5  2  0
  8  7  1  1
  8  9  1  0
  9  5  1  0
 10  8  1  0
 10 12  1  0
 11 10  2  0
 12 16  1  0
 13 12  1  0
 13 14  1  0
 14 15  1  0
 16 15  1  0
 16 17  1  1
 17 19  1  0
 18 17  2  0
M  END
$$$$
