CAP.pdb
     RDKit          3D

 19 19  0  0  1  0  0  0  0  0999 V2000
    8.7685  -16.6663   19.6600 N   0  0  0  0  0  0  0  0  0  0  0  0
    9.3571  -16.7214   20.9627 C   0  0  1  0  0  0  0  0  0  0  0  0
   10.6875  -15.9959   20.9424 C   0  0  0  0  0  0  0  0  0  0  0  0
   11.4642  -16.1689   22.5621 S   0  0  0  0  0  0  0  0  0  0  0  0
    8.5204  -16.0792   22.0055 C   0  0  0  0  0  0  0  0  0  0  0  0
    8.1237  -14.9109   21.8081 O   0  0  0  0  0  0  0  0  0  0  0  0
    6.7199  -17.1222   25.1647 C   0  0  0  0  0  0  0  0  0  0  0  0
    7.3820  -16.0730   24.2653 C   0  0  2  0  0  0  0  0  0  0  0  0
    8.1487  -16.7281   23.2164 N   0  0  0  0  0  0  0  0  0  0  0  0
    8.1899  -15.1594   25.0689 C   0  0  0  0  0  0  0  0  0  0  0  0
    9.4479  -15.2897   25.2176 O   0  0  0  0  0  0  0  0  0  0  0  0
    7.5809  -14.0588   25.7351 N   0  0  0  0  0  0  0  0  0  0  0  0
    6.1766  -13.6647   25.5130 C   0  0  0  0  0  0  0  0  0  0  0  0
    6.2093  -12.1850   25.9318 C   0  0  0  0  0  0  0  0  0  0  0  0
    7.0593  -12.3090   27.1721 C   0  0  0  0  0  0  0  0  0  0  0  0
    8.2063  -13.1560   26.6880 C   0  0  1  0  0  0  0  0  0  0  0  0
    8.8386  -13.9054   27.8042 C   0  0  0  0  0  0  0  0  0  0  0  0
    9.7471  -13.3432   28.4567 O   0  0  0  0  0  0  0  0  0  0  0  0
    8.4791  -15.1906   28.1626 O   0  0  0  0  0  0  0  0  0  0  0  0
  2  1  1  6
  2  3  1  0
  4  3  1  0
  5  2  1  0
  6  5  2  0
  8  7  1  1
  8  9  1  0
  9  5  1  0
 10  8  1  0
 10 12  1  0
 11 10  2  0
 12 16  1  0
 13 12  1  0
 13 14  1  0
 14 15  1  0
 16 15  1  0
 16 17  1  1
 17 19  1  0
 18 17  2  0
M  END
$$$$
