CAP.pdb
     RDKit          3D

 19 19  0  0  1  0  0  0  0  0999 V2000
    7.6369  -15.0882   18.6428 N   0  0  0  0  0  0  0  0  0  0  0  0
    8.1994  -14.3943   19.7603 C   0  0  1  0  0  0  0  0  0  0  0  0
    8.1560  -12.9025   19.4971 C   0  0  0  0  0  0  0  0  0  0  0  0
    9.7916  -12.3636   18.9576 S   0  0  0  0  0  0  0  0  0  0  0  0
    7.4660  -14.6405   21.0257 C   0  0  0  0  0  0  0  0  0  0  0  0
    6.2608  -14.9633   20.9570 O   0  0  0  0  0  0  0  0  0  0  0  0
    7.2434  -16.5125   23.4821 C   0  0  0  0  0  0  0  0  0  0  0  0
    7.4260  -14.9919   23.5312 C   0  0  2  0  0  0  0  0  0  0  0  0
    8.0674  -14.5272   22.3106 N   0  0  0  0  0  0  0  0  0  0  0  0
    8.1608  -14.6124   24.7352 C   0  0  0  0  0  0  0  0  0  0  0  0
    9.3123  -15.0739   25.0225 O   0  0  0  0  0  0  0  0  0  0  0  0
    7.5978  -13.6863   25.6579 N   0  0  0  0  0  0  0  0  0  0  0  0
    6.2493  -13.1108   25.4942 C   0  0  0  0  0  0  0  0  0  0  0  0
    6.3726  -11.8162   26.3158 C   0  0  0  0  0  0  0  0  0  0  0  0
    7.1204  -12.3624   27.5068 C   0  0  0  0  0  0  0  0  0  0  0  0
    8.2261  -13.1493   26.8542 C   0  0  1  0  0  0  0  0  0  0  0  0
    8.7155  -14.2374   27.7396 C   0  0  0  0  0  0  0  0  0  0  0  0
    8.1650  -15.3591   27.6611 O   0  0  0  0  0  0  0  0  0  0  0  0
    9.7463  -14.0799   28.6463 O   0  0  0  0  0  0  0  0  0  0  0  0
  2  1  1  6
  2  3  1  0
  4  3  1  0
  5  2  1  0
  6  5  2  0
  8  7  1  6
  8  9  1  0
  9  5  1  0
 10  8  1  0
 10 12  1  0
 11 10  2  0
 12 16  1  0
 13 12  1  0
 13 14  1  0
 14 15  1  0
 16 15  1  0
 16 17  1  1
 17 19  1  0
 18 17  2  0
M  END
$$$$
