CAP.pdb
     RDKit          3D

 19 19  0  0  1  0  0  0  0  0999 V2000
    8.0968  -15.2984   18.5765 N   0  0  0  0  0  0  0  0  0  0  0  0
    8.7758  -14.9786   19.7944 C   0  0  1  0  0  0  0  0  0  0  0  0
    9.4406  -13.6238   19.6565 C   0  0  0  0  0  0  0  0  0  0  0  0
    8.1589  -12.3697   19.4541 S   0  0  0  0  0  0  0  0  0  0  0  0
    7.8671  -14.9071   20.9644 C   0  0  0  0  0  0  0  0  0  0  0  0
    6.6415  -15.0544   20.7705 O   0  0  0  0  0  0  0  0  0  0  0  0
    7.1793  -16.4631   23.5198 C   0  0  0  0  0  0  0  0  0  0  0  0
    7.5166  -14.9692   23.4696 C   0  0  2  0  0  0  0  0  0  0  0  0
    8.3227  -14.6795   22.2934 N   0  0  0  0  0  0  0  0  0  0  0  0
    8.1633  -14.5577   24.7129 C   0  0  0  0  0  0  0  0  0  0  0  0
    9.3434  -14.9120   25.0342 O   0  0  0  0  0  0  0  0  0  0  0  0
    7.4758  -13.7218   25.6374 N   0  0  0  0  0  0  0  0  0  0  0  0
    6.0898  -13.2625   25.4256 C   0  0  0  0  0  0  0  0  0  0  0  0
    6.0563  -11.9950   26.2966 C   0  0  0  0  0  0  0  0  0  0  0  0
    6.7936  -12.5184   27.5043 C   0  0  0  0  0  0  0  0  0  0  0  0
    7.9955  -13.1781   26.8817 C   0  0  1  0  0  0  0  0  0  0  0  0
    8.5393  -14.2519   27.7526 C   0  0  0  0  0  0  0  0  0  0  0  0
    8.0967  -15.4141   27.6080 O   0  0  0  0  0  0  0  0  0  0  0  0
    9.5078  -14.0389   28.7149 O   0  0  0  0  0  0  0  0  0  0  0  0
  2  1  1  6
  2  3  1  0
  4  3  1  0
  5  2  1  0
  6  5  2  0
  8  7  1  1
  8  9  1  0
  9  5  1  0
 10  8  1  0
 10 12  1  0
 11 10  2  0
 12 16  1  0
 13 12  1  0
 13 14  1  0
 14 15  1  0
 16 15  1  0
 16 17  1  1
 17 19  1  0
 18 17  2  0
M  END
$$$$
