ASD.pdb
     RDKit          3D

 20 19  0  0  1  0  0  0  0  0999 V2000
   19.1891  -11.9255  -17.8176 C   0  0  0  0  0  0  0  0  0  0  0  0
   19.8966  -10.6244  -18.1273 C   0  0  2  0  0  0  0  0  0  0  0  0
   21.1915  -10.8412  -18.7255 N   0  0  0  0  0  0  0  0  0  0  0  0
   19.9788   -9.8310  -16.8818 C   0  0  0  0  0  0  0  0  0  0  0  0
   18.9054   -9.5700  -16.2775 O   0  0  0  0  0  0  0  0  0  0  0  0
   22.1425  -10.0136  -13.5959 O   0  0  0  0  0  0  0  0  0  0  0  0
   22.3756   -8.8827  -14.3408 C   0  0  0  0  0  0  0  0  0  0  0  0
   21.1451   -8.4893  -15.1750 C   0  0  2  0  0  0  0  0  0  0  0  0
   21.1798   -9.3506  -16.3308 N   0  0  0  0  0  0  0  0  0  0  0  0
   21.2459   -7.0598  -15.5509 C   0  0  0  0  0  0  0  0  0  0  0  0
   21.9553   -6.7681  -16.5464 O   0  0  0  0  0  0  0  0  0  0  0  0
   20.5808   -6.0322  -14.8376 N   0  0  0  0  0  0  0  0  0  0  0  0
   20.5944   -4.6362  -15.2313 C   0  0  1  0  0  0  0  0  0  0  0  0
   19.3704   -3.9103  -14.7205 C   0  0  0  0  0  0  0  0  0  0  0  0
   19.3182   -2.4871  -15.0755 C   0  0  0  0  0  0  0  0  0  0  0  0
   19.8416   -2.1003  -16.1435 O   0  0  0  0  0  0  0  0  0  0  0  0
   21.8702   -4.0697  -14.7573 C   0  0  0  0  0  0  0  0  0  0  0  0
   22.6405   -3.2069  -15.5140 O   0  0  0  0  0  0  0  0  0  0  0  0
   18.7080   -1.5379  -14.2724 O   0  0  0  0  0  0  0  0  0  0  0  0
   22.2827   -4.3790  -13.6176 O   0  0  0  0  0  0  0  0  0  0  0  0
  2  1  1  1
  2  3  1  0
  4  2  1  0
  4  5  2  0
  6  7  1  0
  8  7  1  1
  8  9  1  0
  9  4  1  0
 10  8  1  0
 11 10  2  0
 12 10  1  0
 13 17  1  0
 13 12  1  0
 13 14  1  1
 15 14  1  0
 15 16  2  0
 17 18  1  0
 19 15  1  0
 20 17  2  0
M  END
$$$$
