ASD.pdb
     RDKit          3D

 20 19  0  0  1  0  0  0  0  0999 V2000
   17.9436  -12.0935  -15.8342 C   0  0  0  0  0  0  0  0  0  0  0  0
   18.4688  -10.9145  -16.6239 C   0  0  2  0  0  0  0  0  0  0  0  0
   19.4342  -11.3156  -17.6181 N   0  0  0  0  0  0  0  0  0  0  0  0
   19.0199   -9.9251  -15.6727 C   0  0  0  0  0  0  0  0  0  0  0  0
   18.2614   -9.4953  -14.7642 O   0  0  0  0  0  0  0  0  0  0  0  0
   23.0200   -8.7387  -15.5701 O   0  0  0  0  0  0  0  0  0  0  0  0
   22.2280   -8.7895  -14.4484 C   0  0  0  0  0  0  0  0  0  0  0  0
   20.7658   -8.4384  -14.7699 C   0  0  2  0  0  0  0  0  0  0  0  0
   20.3368   -9.4350  -15.7194 N   0  0  0  0  0  0  0  0  0  0  0  0
   20.7051   -7.0726  -15.3406 C   0  0  0  0  0  0  0  0  0  0  0  0
   20.8256   -6.9560  -16.5861 O   0  0  0  0  0  0  0  0  0  0  0  0
   20.5190   -5.9171  -14.5421 N   0  0  0  0  0  0  0  0  0  0  0  0
   20.4608   -4.5686  -15.0734 C   0  0  1  0  0  0  0  0  0  0  0  0
   19.5425   -3.6940  -14.2502 C   0  0  0  0  0  0  0  0  0  0  0  0
   19.4143   -2.3175  -14.7434 C   0  0  0  0  0  0  0  0  0  0  0  0
   20.0550   -1.4015  -14.1825 O   0  0  0  0  0  0  0  0  0  0  0  0
   21.8488   -4.0778  -15.1498 C   0  0  0  0  0  0  0  0  0  0  0  0
   22.3213   -3.3098  -16.1973 O   0  0  0  0  0  0  0  0  0  0  0  0
   18.6056   -1.9796  -15.8158 O   0  0  0  0  0  0  0  0  0  0  0  0
   22.6434   -4.3653  -14.2274 O   0  0  0  0  0  0  0  0  0  0  0  0
  2  1  1  1
  2  3  1  0
  4  2  1  0
  4  5  2  0
  6  7  1  0
  8  7  1  6
  8  9  1  0
  9  4  1  0
 10  8  1  0
 11 10  2  0
 12 10  1  0
 13 17  1  0
 13 12  1  0
 13 14  1  1
 15 14  1  0
 15 16  2  0
 17 18  1  0
 19 15  1  0
 20 17  2  0
M  END
$$$$
