ASD.pdb
     RDKit          3D

 20 19  0  0  1  0  0  0  0  0999 V2000
   20.6697  -11.8654  -19.3775 C   0  0  0  0  0  0  0  0  0  0  0  0
   21.6053  -10.6803  -19.2805 C   0  0  2  0  0  0  0  0  0  0  0  0
   22.9809  -11.0572  -19.4981 N   0  0  0  0  0  0  0  0  0  0  0  0
   21.4014  -10.0320  -17.9669 C   0  0  0  0  0  0  0  0  0  0  0  0
   20.2669   -9.5446  -17.7202 O   0  0  0  0  0  0  0  0  0  0  0  0
   22.6134  -11.3015  -14.4257 O   0  0  0  0  0  0  0  0  0  0  0  0
   23.0119  -10.0138  -14.6926 C   0  0  0  0  0  0  0  0  0  0  0  0
   22.0776   -9.3289  -15.7038 C   0  0  2  0  0  0  0  0  0  0  0  0
   22.3944   -9.9262  -16.9773 N   0  0  0  0  0  0  0  0  0  0  0  0
   22.3381   -7.8704  -15.7002 C   0  0  0  0  0  0  0  0  0  0  0  0
   23.3664   -7.4610  -16.2955 O   0  0  0  0  0  0  0  0  0  0  0  0
   21.4813   -6.9415  -15.0596 N   0  0  0  0  0  0  0  0  0  0  0  0
   21.6297   -5.5022  -15.1611 C   0  0  1  0  0  0  0  0  0  0  0  0
   20.3458   -4.8495  -15.6209 C   0  0  0  0  0  0  0  0  0  0  0  0
   20.3893   -3.3827  -15.6520 C   0  0  0  0  0  0  0  0  0  0  0  0
   21.4547   -2.8059  -15.9626 O   0  0  0  0  0  0  0  0  0  0  0  0
   22.1091   -5.0273  -13.8504 C   0  0  0  0  0  0  0  0  0  0  0  0
   22.2633   -5.8583  -12.7567 O   0  0  0  0  0  0  0  0  0  0  0  0
   19.2909   -2.5954  -15.3491 O   0  0  0  0  0  0  0  0  0  0  0  0
   22.3920   -3.8167  -13.7125 O   0  0  0  0  0  0  0  0  0  0  0  0
  2  1  1  1
  2  3  1  0
  4  2  1  0
  4  5  2  0
  6  7  1  0
  8  7  1  1
  8  9  1  0
  9  4  1  0
 10  8  1  0
 11 10  2  0
 12 10  1  0
 13 17  1  0
 13 12  1  0
 13 14  1  1
 15 14  1  0
 15 16  2  0
 17 18  1  0
 19 15  1  0
 20 17  2  0
M  END
$$$$
