ASD.pdb
     RDKit          3D

 20 19  0  0  1  0  0  0  0  0999 V2000
   13.9246   -9.7313  -14.7364 C   0  0  0  0  0  0  0  0  0  0  0  0
   15.4111  -10.0107  -14.7808 C   0  0  2  0  0  0  0  0  0  0  0  0
   15.7264  -11.3393  -14.3151 N   0  0  0  0  0  0  0  0  0  0  0  0
   16.1055   -8.9626  -14.0017 C   0  0  0  0  0  0  0  0  0  0  0  0
   15.9160   -7.7618  -14.3296 O   0  0  0  0  0  0  0  0  0  0  0  0
   17.0140   -8.8030  -10.1330 O   0  0  0  0  0  0  0  0  0  0  0  0
   18.1188   -8.6436  -10.9344 C   0  0  0  0  0  0  0  0  0  0  0  0
   17.7341   -8.1515  -12.3395 C   0  0  2  0  0  0  0  0  0  0  0  0
   16.9631   -9.2234  -12.9186 N   0  0  0  0  0  0  0  0  0  0  0  0
   18.9659   -7.8778  -13.1159 C   0  0  0  0  0  0  0  0  0  0  0  0
   19.4153   -8.8017  -13.8397 O   0  0  0  0  0  0  0  0  0  0  0  0
   19.6393   -6.6322  -13.0690 N   0  0  0  0  0  0  0  0  0  0  0  0
   20.8553   -6.3429  -13.8050 C   0  0  1  0  0  0  0  0  0  0  0  0
   20.5648   -6.0933  -15.2676 C   0  0  0  0  0  0  0  0  0  0  0  0
   21.7352   -5.6932  -16.0578 C   0  0  0  0  0  0  0  0  0  0  0  0
   21.5760   -4.9862  -17.0772 O   0  0  0  0  0  0  0  0  0  0  0  0
   21.5113   -5.2133  -13.1216 C   0  0  0  0  0  0  0  0  0  0  0  0
   22.8666   -4.9586  -13.2153 O   0  0  0  0  0  0  0  0  0  0  0  0
   23.0263   -6.0666  -15.7237 O   0  0  0  0  0  0  0  0  0  0  0  0
   20.8163   -4.4440  -12.4218 O   0  0  0  0  0  0  0  0  0  0  0  0
  2  1  1  1
  2  3  1  0
  4  2  1  0
  4  5  2  0
  6  7  1  0
  8  7  1  1
  8  9  1  0
  9  4  1  0
 10  8  1  0
 11 10  2  0
 12 10  1  0
 13 17  1  0
 13 12  1  0
 13 14  1  6
 15 14  1  0
 15 16  2  0
 17 18  1  0
 19 15  1  0
 20 17  2  0
M  END
$$$$
