ASD.pdb
     RDKit          3D

 20 19  0  0  1  0  0  0  0  0999 V2000
   27.3763  -18.8763  -15.7752 C   0  0  0  0  0  0  0  0  0  0  0  0
   27.8426  -20.1945  -15.1971 C   0  0  2  0  0  0  0  0  0  0  0  0
   28.3308  -21.0906  -16.2169 N   0  0  0  0  0  0  0  0  0  0  0  0
   26.7302  -20.7815  -14.4190 C   0  0  0  0  0  0  0  0  0  0  0  0
   25.9214  -21.5340  -15.0231 O   0  0  0  0  0  0  0  0  0  0  0  0
   25.6714  -21.9661  -10.1654 O   0  0  0  0  0  0  0  0  0  0  0  0
   25.5548  -20.8112  -10.9008 C   0  0  0  0  0  0  0  0  0  0  0  0
   25.3600  -21.1084  -12.3968 C   0  0  2  0  0  0  0  0  0  0  0  0
   26.5198  -20.5520  -13.0480 N   0  0  0  0  0  0  0  0  0  0  0  0
   24.1075  -20.4692  -12.8633 C   0  0  0  0  0  0  0  0  0  0  0  0
   24.1532  -19.2499  -13.1645 O   0  0  0  0  0  0  0  0  0  0  0  0
   22.8846  -21.1753  -12.9782 N   0  0  0  0  0  0  0  0  0  0  0  0
   21.6573  -20.5890  -13.4823 C   0  0  1  0  0  0  0  0  0  0  0  0
   21.6302  -20.5887  -14.9940 C   0  0  0  0  0  0  0  0  0  0  0  0
   20.3648  -20.1268  -15.5769 C   0  0  0  0  0  0  0  0  0  0  0  0
   19.9795  -18.9567  -15.3609 O   0  0  0  0  0  0  0  0  0  0  0  0
   20.5429  -21.3279  -12.8616 C   0  0  0  0  0  0  0  0  0  0  0  0
   19.3256  -20.7459  -12.5616 O   0  0  0  0  0  0  0  0  0  0  0  0
   19.5653  -20.9367  -16.3663 O   0  0  0  0  0  0  0  0  0  0  0  0
   20.6974  -22.5392  -12.5902 O   0  0  0  0  0  0  0  0  0  0  0  0
  2  1  1  6
  2  3  1  0
  4  2  1  0
  4  5  2  0
  6  7  1  0
  8  7  1  1
  8  9  1  0
  9  4  1  0
 10  8  1  0
 11 10  2  0
 12 10  1  0
 13 17  1  0
 13 12  1  0
 13 14  1  6
 15 14  1  0
 15 16  2  0
 17 18  1  0
 19 15  1  0
 20 17  2  0
M  END
$$$$
