ASD.pdb
     RDKit          3D

 20 19  0  0  1  0  0  0  0  0999 V2000
   18.6857  -10.2498  -19.5273 C   0  0  0  0  0  0  0  0  0  0  0  0
   19.6107  -11.1165  -18.7011 C   0  0  2  0  0  0  0  0  0  0  0  0
   19.0587  -12.4289  -18.4682 N   0  0  0  0  0  0  0  0  0  0  0  0
   19.9158  -10.4035  -17.4417 C   0  0  0  0  0  0  0  0  0  0  0  0
   19.0254  -10.3722  -16.5519 O   0  0  0  0  0  0  0  0  0  0  0  0
   23.7188   -9.6160  -16.2182 O   0  0  0  0  0  0  0  0  0  0  0  0
   22.6630   -9.8369  -15.3669 C   0  0  0  0  0  0  0  0  0  0  0  0
   21.3730   -9.1752  -15.8793 C   0  0  2  0  0  0  0  0  0  0  0  0
   21.1369   -9.7594  -17.1762 N   0  0  0  0  0  0  0  0  0  0  0  0
   21.5755   -7.7101  -15.9645 C   0  0  0  0  0  0  0  0  0  0  0  0
   21.9596   -7.2382  -17.0641 O   0  0  0  0  0  0  0  0  0  0  0  0
   21.3540   -6.8418  -14.8671 N   0  0  0  0  0  0  0  0  0  0  0  0
   21.5761   -5.4091  -14.9126 C   0  0  1  0  0  0  0  0  0  0  0  0
   20.3349   -4.6759  -15.3686 C   0  0  0  0  0  0  0  0  0  0  0  0
   20.4496   -3.2130  -15.3366 C   0  0  0  0  0  0  0  0  0  0  0  0
   21.5835   -2.6852  -15.3331 O   0  0  0  0  0  0  0  0  0  0  0  0
   22.0549   -5.0070  -13.5776 C   0  0  0  0  0  0  0  0  0  0  0  0
   22.4427   -3.7160  -13.2720 O   0  0  0  0  0  0  0  0  0  0  0  0
   19.3459   -2.3767  -15.3096 O   0  0  0  0  0  0  0  0  0  0  0  0
   22.1165   -5.8683  -12.6726 O   0  0  0  0  0  0  0  0  0  0  0  0
  2  1  1  1
  2  3  1  0
  4  2  1  0
  4  5  2  0
  6  7  1  0
  8  7  1  6
  8  9  1  0
  9  4  1  0
 10  8  1  0
 11 10  2  0
 12 10  1  0
 13 17  1  0
 13 12  1  0
 13 14  1  1
 15 14  1  0
 15 16  2  0
 17 18  1  0
 19 15  1  0
 20 17  2  0
M  END
$$$$
