ASD.pdb
     RDKit          3D

 20 19  0  0  1  0  0  0  0  0999 V2000
   20.1961  -10.5707  -18.8746 C   0  0  0  0  0  0  0  0  0  0  0  0
   21.3173  -10.0109  -18.0266 C   0  0  2  0  0  0  0  0  0  0  0  0
   21.9792  -11.0370  -17.2582 N   0  0  0  0  0  0  0  0  0  0  0  0
   20.7639   -8.9380  -17.1720 C   0  0  0  0  0  0  0  0  0  0  0  0
   19.5501   -8.6361  -17.3173 O   0  0  0  0  0  0  0  0  0  0  0  0
   22.8039   -7.3335  -13.9904 O   0  0  0  0  0  0  0  0  0  0  0  0
   21.4302   -7.3619  -14.0081 C   0  0  0  0  0  0  0  0  0  0  0  0
   20.8777   -7.1951  -15.4334 C   0  0  2  0  0  0  0  0  0  0  0  0
   21.5079   -8.2350  -16.2082 N   0  0  0  0  0  0  0  0  0  0  0  0
   21.2250   -5.8461  -15.9377 C   0  0  0  0  0  0  0  0  0  0  0  0
   22.1903   -5.7539  -16.7373 O   0  0  0  0  0  0  0  0  0  0  0  0
   20.5172   -4.6801  -15.5546 N   0  0  0  0  0  0  0  0  0  0  0  0
   20.8606   -3.3433  -16.0007 C   0  0  1  0  0  0  0  0  0  0  0  0
   20.1146   -2.9781  -17.2641 C   0  0  0  0  0  0  0  0  0  0  0  0
   20.3030   -1.5888  -17.6986 C   0  0  0  0  0  0  0  0  0  0  0  0
   19.3082   -0.9100  -18.0358 O   0  0  0  0  0  0  0  0  0  0  0  0
   20.6048   -2.4347  -14.8682 C   0  0  0  0  0  0  0  0  0  0  0  0
   21.1654   -1.1752  -14.7695 O   0  0  0  0  0  0  0  0  0  0  0  0
   21.5481   -0.9849  -17.7539 O   0  0  0  0  0  0  0  0  0  0  0  0
   19.8460   -2.8134  -13.9488 O   0  0  0  0  0  0  0  0  0  0  0  0
  2  1  1  1
  2  3  1  0
  4  2  1  0
  4  5  2  0
  6  7  1  0
  8  7  1  1
  8  9  1  0
  9  4  1  0
 10  8  1  0
 11 10  2  0
 12 10  1  0
 13 17  1  0
 13 12  1  0
 13 14  1  6
 15 14  1  0
 15 16  2  0
 17 18  1  0
 19 15  1  0
 20 17  2  0
M  END
$$$$
