ASD.pdb
     RDKit          3D

 20 19  0  0  1  0  0  0  0  0999 V2000
   14.2442   -7.5415   -7.8617 C   0  0  0  0  0  0  0  0  0  0  0  0
   15.5058   -6.9266   -8.4270 C   0  0  2  0  0  0  0  0  0  0  0  0
   15.4290   -5.4870   -8.4818 N   0  0  0  0  0  0  0  0  0  0  0  0
   15.7621   -7.5265   -9.7544 C   0  0  0  0  0  0  0  0  0  0  0  0
   15.8818   -8.7781   -9.8221 O   0  0  0  0  0  0  0  0  0  0  0  0
   14.8021   -5.7462  -13.1193 O   0  0  0  0  0  0  0  0  0  0  0  0
   15.0858   -7.0903  -13.1546 C   0  0  0  0  0  0  0  0  0  0  0  0
   16.2135   -7.4581  -12.1762 C   0  0  2  0  0  0  0  0  0  0  0  0
   15.8802   -6.7871  -10.9443 N   0  0  0  0  0  0  0  0  0  0  0  0
   17.5082   -6.9908  -12.7243 C   0  0  0  0  0  0  0  0  0  0  0  0
   17.8877   -5.8333  -12.4153 O   0  0  0  0  0  0  0  0  0  0  0  0
   18.3155   -7.7922  -13.5689 N   0  0  0  0  0  0  0  0  0  0  0  0
   19.5203   -7.3177  -14.2228 C   0  0  1  0  0  0  0  0  0  0  0  0
   20.3258   -8.4655  -14.7881 C   0  0  0  0  0  0  0  0  0  0  0  0
   21.5070   -8.0557  -15.5569 C   0  0  0  0  0  0  0  0  0  0  0  0
   22.3653   -7.3212  -15.0202 O   0  0  0  0  0  0  0  0  0  0  0  0
   19.0995   -6.3261  -15.2292 C   0  0  0  0  0  0  0  0  0  0  0  0
   19.7677   -5.1347  -15.4404 O   0  0  0  0  0  0  0  0  0  0  0  0
   21.7196   -8.4492  -16.8677 O   0  0  0  0  0  0  0  0  0  0  0  0
   18.0912   -6.5660  -15.9296 O   0  0  0  0  0  0  0  0  0  0  0  0
  2  1  1  6
  2  3  1  0
  4  2  1  0
  4  5  2  0
  6  7  1  0
  8  7  1  6
  8  9  1  0
  9  4  1  0
 10  8  1  0
 11 10  2  0
 12 10  1  0
 13 17  1  0
 13 12  1  0
 13 14  1  6
 15 14  1  0
 15 16  2  0
 17 18  1  0
 19 15  1  0
 20 17  2  0
M  END
$$$$
