ASD.pdb
     RDKit          3D

 20 19  0  0  1  0  0  0  0  0999 V2000
   20.6464   -5.2671  -17.2425 C   0  0  0  0  0  0  0  0  0  0  0  0
   20.1946   -6.4947  -16.4821 C   0  0  2  0  0  0  0  0  0  0  0  0
   19.9296   -7.6084  -17.3601 N   0  0  0  0  0  0  0  0  0  0  0  0
   19.0162   -6.1297  -15.6661 C   0  0  0  0  0  0  0  0  0  0  0  0
   18.1555   -5.3688  -16.1815 O   0  0  0  0  0  0  0  0  0  0  0  0
   15.5809   -8.1936  -14.2170 O   0  0  0  0  0  0  0  0  0  0  0  0
   16.8278   -7.8520  -14.6827 C   0  0  0  0  0  0  0  0  0  0  0  0
   17.4508   -6.7156  -13.8552 C   0  0  2  0  0  0  0  0  0  0  0  0
   18.7974   -6.5792  -14.3521 N   0  0  0  0  0  0  0  0  0  0  0  0
   17.4284   -7.0862  -12.4209 C   0  0  0  0  0  0  0  0  0  0  0  0
   18.2783   -7.9217  -12.0220 O   0  0  0  0  0  0  0  0  0  0  0  0
   16.4978   -6.5390  -11.5035 N   0  0  0  0  0  0  0  0  0  0  0  0
   16.5203   -6.8005  -10.0769 C   0  0  1  0  0  0  0  0  0  0  0  0
   15.7531   -5.7447   -9.3136 C   0  0  0  0  0  0  0  0  0  0  0  0
   16.4661   -4.4711   -9.1589 C   0  0  0  0  0  0  0  0  0  0  0  0
   17.6552   -4.3826   -9.5363 O   0  0  0  0  0  0  0  0  0  0  0  0
   16.0107   -8.1703   -9.8843 C   0  0  0  0  0  0  0  0  0  0  0  0
   16.3125   -8.9391   -8.7760 O   0  0  0  0  0  0  0  0  0  0  0  0
   15.8764   -3.3462   -8.6067 O   0  0  0  0  0  0  0  0  0  0  0  0
   15.2693   -8.6684  -10.7601 O   0  0  0  0  0  0  0  0  0  0  0  0
  2  1  1  6
  2  3  1  0
  4  2  1  0
  4  5  2  0
  6  7  1  0
  8  7  1  6
  8  9  1  0
  9  4  1  0
 10  8  1  0
 11 10  2  0
 12 10  1  0
 13 17  1  0
 13 12  1  0
 13 14  1  1
 15 14  1  0
 15 16  2  0
 17 18  1  0
 19 15  1  0
 20 17  2  0
M  END
$$$$
