ASD.pdb
     RDKit          3D

 20 19  0  0  1  0  0  0  0  0999 V2000
   18.2597  -12.4370  -17.1759 C   0  0  0  0  0  0  0  0  0  0  0  0
   19.0817  -11.2731  -17.6850 C   0  0  2  0  0  0  0  0  0  0  0  0
   20.1597  -11.7050  -18.5410 N   0  0  0  0  0  0  0  0  0  0  0  0
   19.5642  -10.4990  -16.5208 C   0  0  0  0  0  0  0  0  0  0  0  0
   18.7052  -10.0221  -15.7333 O   0  0  0  0  0  0  0  0  0  0  0  0
   23.5633  -10.0908  -15.5840 O   0  0  0  0  0  0  0  0  0  0  0  0
   22.6118  -10.0548  -14.5933 C   0  0  0  0  0  0  0  0  0  0  0  0
   21.2879   -9.4585  -15.0996 C   0  0  2  0  0  0  0  0  0  0  0  0
   20.9212  -10.2627  -16.2387 N   0  0  0  0  0  0  0  0  0  0  0  0
   21.5013   -8.0407  -15.4729 C   0  0  0  0  0  0  0  0  0  0  0  0
   21.8890   -7.7988  -16.6437 O   0  0  0  0  0  0  0  0  0  0  0  0
   21.2863   -6.9707  -14.5695 N   0  0  0  0  0  0  0  0  0  0  0  0
   21.4837   -5.5744  -14.9092 C   0  0  1  0  0  0  0  0  0  0  0  0
   20.1702   -4.8964  -15.2272 C   0  0  0  0  0  0  0  0  0  0  0  0
   20.2903   -3.4746  -15.5714 C   0  0  0  0  0  0  0  0  0  0  0  0
   21.0891   -2.7533  -14.9343 O   0  0  0  0  0  0  0  0  0  0  0  0
   22.2207   -4.9610  -13.7895 C   0  0  0  0  0  0  0  0  0  0  0  0
   22.8597   -3.7392  -13.8857 O   0  0  0  0  0  0  0  0  0  0  0  0
   19.5502   -2.8849  -16.5827 O   0  0  0  0  0  0  0  0  0  0  0  0
   22.2755   -5.5679  -12.6971 O   0  0  0  0  0  0  0  0  0  0  0  0
  2  1  1  1
  2  3  1  0
  4  2  1  0
  4  5  2  0
  6  7  1  0
  8  7  1  6
  8  9  1  0
  9  4  1  0
 10  8  1  0
 11 10  2  0
 12 10  1  0
 13 17  1  0
 13 12  1  0
 13 14  1  1
 15 14  1  0
 15 16  2  0
 17 18  1  0
 19 15  1  0
 20 17  2  0
M  END
$$$$
