DLQ.pdb
     RDKit          3D

 26 25  0  0  1  0  0  0  0  0999 V2000
   10.6886  -17.2754   15.4755 N   0  0  0  0  0  0  0  0  0  0  0  0
    9.5949  -17.3064   16.3966 C   0  0  1  0  0  0  0  0  0  0  0  0
    8.9997  -18.6754   16.6258 C   0  0  0  0  0  0  0  0  0  0  0  0
    8.5057  -19.1608   15.3157 C   0  0  0  0  0  0  0  0  0  0  0  0
    8.8878  -18.5698   14.2560 O   0  0  0  0  0  0  0  0  0  0  0  0
    9.9803  -16.6436   17.6492 C   0  0  0  0  0  0  0  0  0  0  0  0
   11.1747  -16.4830   18.0182 O   0  0  0  0  0  0  0  0  0  0  0  0
    7.6376  -20.2388   15.2552 O   0  0  0  0  0  0  0  0  0  0  0  0
    6.3872  -12.9117   19.7812 C   0  0  0  0  0  0  0  0  0  0  0  0
    7.7252  -13.4964   19.2383 C   0  0  1  0  0  0  0  0  0  0  0  0
    8.6969  -12.3235   19.4165 C   0  0  0  0  0  0  0  0  0  0  0  0
    8.0960  -14.6535   20.0818 C   0  0  0  0  0  0  0  0  0  0  0  0
    9.3149  -15.4347   19.7835 C   0  0  2  0  0  0  0  0  0  0  0  0
    8.9803  -16.1515   18.5058 N   0  0  0  0  0  0  0  0  0  0  0  0
    9.7130  -16.4796   20.7398 C   0  0  0  0  0  0  0  0  0  0  0  0
    9.4173  -17.6795   20.4748 O   0  0  0  0  0  0  0  0  0  0  0  0
   14.5755  -18.1089   20.1582 N   0  0  0  0  0  0  0  0  0  0  0  0
   14.4548  -18.8624   21.3397 C   0  0  0  0  0  0  0  0  0  0  0  0
   15.2672  -19.7841   21.5682 O   0  0  0  0  0  0  0  0  0  0  0  0
   13.3719  -18.5604   22.2973 C   0  0  0  0  0  0  0  0  0  0  0  0
   12.4238  -17.5816   21.6583 C   0  0  0  0  0  0  0  0  0  0  0  0
   11.2574  -17.2612   22.5862 C   0  0  2  0  0  0  0  0  0  0  0  0
   10.4014  -16.2578   21.9380 N   0  0  0  0  0  0  0  0  0  0  0  0
   11.7733  -16.6564   23.8196 C   0  0  0  0  0  0  0  0  0  0  0  0
   12.3484  -17.3680   24.8729 O   0  0  0  0  0  0  0  0  0  0  0  0
   11.6979  -15.3846   23.9608 O   0  0  0  0  0  0  0  0  0  0  0  0
  2  1  1  6
  2  3  1  0
  3  4  1  0
  4  8  1  0
  5  4  2  0
  6 14  1  0
  6  2  1  0
  7  6  2  0
 10  9  1  1
 10 12  1  0
 10 11  1  0
 13 12  1  1
 13 14  1  0
 15 13  1  0
 16 15  2  0
 17 18  1  0
 18 20  1  0
 19 18  2  0
 20 21  1  0
 22 21  1  6
 22 23  1  0
 23 15  1  0
 24 22  1  0
 24 25  1  0
 26 24  2  0
M  END
$$$$
