DLQ.pdb
     RDKit          3D

 26 25  0  0  1  0  0  0  0  0999 V2000
    9.6189  -18.5396   19.8390 N   0  0  0  0  0  0  0  0  0  0  0  0
   10.7321  -17.6538   19.6920 C   0  0  1  0  0  0  0  0  0  0  0  0
   11.0166  -17.2260   18.2718 C   0  0  0  0  0  0  0  0  0  0  0  0
   11.4889  -18.4257   17.5414 C   0  0  0  0  0  0  0  0  0  0  0  0
   11.9832  -18.2834   16.3779 O   0  0  0  0  0  0  0  0  0  0  0  0
   10.5838  -16.5126   20.6044 C   0  0  0  0  0  0  0  0  0  0  0  0
   11.5496  -15.8166   21.0185 O   0  0  0  0  0  0  0  0  0  0  0  0
   11.3855  -19.6795   18.1217 O   0  0  0  0  0  0  0  0  0  0  0  0
    6.1577  -13.4144   19.9022 C   0  0  0  0  0  0  0  0  0  0  0  0
    7.6419  -13.8447   20.0997 C   0  0  1  0  0  0  0  0  0  0  0  0
    8.3946  -12.5161   19.9597 C   0  0  0  0  0  0  0  0  0  0  0  0
    7.7773  -14.4156   21.4576 C   0  0  0  0  0  0  0  0  0  0  0  0
    9.0787  -14.9426   21.9194 C   0  0  2  0  0  0  0  0  0  0  0  0
    9.3030  -16.1543   21.0593 N   0  0  0  0  0  0  0  0  0  0  0  0
    9.1757  -15.4121   23.3105 C   0  0  0  0  0  0  0  0  0  0  0  0
    8.7764  -14.6447   24.2319 O   0  0  0  0  0  0  0  0  0  0  0  0
    8.2915  -20.0771   26.9044 N   0  0  0  0  0  0  0  0  0  0  0  0
    7.2499  -19.1322   26.8815 C   0  0  0  0  0  0  0  0  0  0  0  0
    6.3534  -19.1825   27.7507 O   0  0  0  0  0  0  0  0  0  0  0  0
    7.2233  -18.0922   25.8334 C   0  0  0  0  0  0  0  0  0  0  0  0
    8.3696  -18.3321   24.8883 C   0  0  0  0  0  0  0  0  0  0  0  0
    9.4344  -17.2504   25.0307 C   0  0  2  0  0  0  0  0  0  0  0  0
    9.6807  -16.6548   23.7099 N   0  0  0  0  0  0  0  0  0  0  0  0
   10.6927  -17.8657   25.4679 C   0  0  0  0  0  0  0  0  0  0  0  0
   10.9409  -18.3353   26.7581 O   0  0  0  0  0  0  0  0  0  0  0  0
   11.6462  -17.9884   24.6201 O   0  0  0  0  0  0  0  0  0  0  0  0
  2  1  1  6
  2  3  1  0
  3  4  1  0
  4  8  1  0
  5  4  2  0
  6 14  1  0
  6  2  1  0
  7  6  2  0
 10  9  1  1
 10 12  1  0
 10 11  1  0
 13 12  1  1
 13 14  1  0
 15 13  1  0
 16 15  2  0
 17 18  1  0
 18 20  1  0
 19 18  2  0
 20 21  1  0
 22 21  1  6
 22 23  1  0
 23 15  1  0
 24 22  1  0
 24 25  1  0
 26 24  2  0
M  END
$$$$
