DLQ.pdb
     RDKit          3D

 26 25  0  0  1  0  0  0  0  0999 V2000
    8.3640  -15.6356   20.6203 N   0  0  0  0  0  0  0  0  0  0  0  0
    9.3174  -16.3862   21.3774 C   0  0  1  0  0  0  0  0  0  0  0  0
   10.6550  -16.5735   20.7020 C   0  0  0  0  0  0  0  0  0  0  0  0
   10.3880  -17.1152   19.3487 C   0  0  0  0  0  0  0  0  0  0  0  0
    9.2550  -16.9004   18.8119 O   0  0  0  0  0  0  0  0  0  0  0  0
    9.4425  -15.8162   22.7251 C   0  0  0  0  0  0  0  0  0  0  0  0
   10.5052  -15.8451   23.4022 O   0  0  0  0  0  0  0  0  0  0  0  0
   11.3608  -17.8475   18.6877 O   0  0  0  0  0  0  0  0  0  0  0  0
    7.8443  -11.9923   26.3913 C   0  0  0  0  0  0  0  0  0  0  0  0
    6.8265  -13.1291   26.0773 C   0  0  1  0  0  0  0  0  0  0  0  0
    5.5001  -12.3672   25.9692 C   0  0  0  0  0  0  0  0  0  0  0  0
    7.2134  -13.7491   24.7912 C   0  0  0  0  0  0  0  0  0  0  0  0
    8.3772  -14.6577   24.7207 C   0  0  2  0  0  0  0  0  0  0  0  0
    8.3287  -15.1980   23.3193 N   0  0  0  0  0  0  0  0  0  0  0  0
    8.3864  -15.8330   25.6059 C   0  0  0  0  0  0  0  0  0  0  0  0
    7.3896  -16.6095   25.5824 O   0  0  0  0  0  0  0  0  0  0  0  0
   11.9800  -19.7500   24.3433 N   0  0  0  0  0  0  0  0  0  0  0  0
   11.7567  -20.3311   25.6046 C   0  0  0  0  0  0  0  0  0  0  0  0
   12.2318  -21.4594   25.8557 O   0  0  0  0  0  0  0  0  0  0  0  0
   10.9645  -19.6064   26.6184 C   0  0  0  0  0  0  0  0  0  0  0  0
   10.5109  -18.2979   26.0294 C   0  0  0  0  0  0  0  0  0  0  0  0
    9.6346  -17.5280   27.0110 C   0  0  2  0  0  0  0  0  0  0  0  0
    9.4194  -16.1718   26.4872 N   0  0  0  0  0  0  0  0  0  0  0  0
   10.3450  -17.3901   28.2874 C   0  0  0  0  0  0  0  0  0  0  0  0
   10.8060  -16.1827   28.8133 O   0  0  0  0  0  0  0  0  0  0  0  0
   10.5707  -18.4420   28.9841 O   0  0  0  0  0  0  0  0  0  0  0  0
  2  1  1  6
  2  3  1  0
  3  4  1  0
  4  8  1  0
  5  4  2  0
  6 14  1  0
  6  2  1  0
  7  6  2  0
 10  9  1  6
 10 12  1  0
 10 11  1  0
 13 12  1  1
 13 14  1  0
 15 13  1  0
 16 15  2  0
 17 18  1  0
 18 20  1  0
 19 18  2  0
 20 21  1  0
 22 21  1  6
 22 23  1  0
 23 15  1  0
 24 22  1  0
 24 25  1  0
 26 24  2  0
M  END
$$$$
