DLQ.pdb
     RDKit          3D

 26 25  0  0  1  0  0  0  0  0999 V2000
    9.7777  -15.6606   20.0742 N   0  0  0  0  0  0  0  0  0  0  0  0
    8.7635  -16.0169   21.0175 C   0  0  1  0  0  0  0  0  0  0  0  0
    8.3831  -17.4784   21.0153 C   0  0  0  0  0  0  0  0  0  0  0  0
    7.8724  -17.7940   19.6605 C   0  0  0  0  0  0  0  0  0  0  0  0
    8.5884  -18.5002   18.8815 O   0  0  0  0  0  0  0  0  0  0  0  0
    9.1350  -15.5342   22.3538 C   0  0  0  0  0  0  0  0  0  0  0  0
   10.3232  -15.4653   22.7685 O   0  0  0  0  0  0  0  0  0  0  0  0
    6.6358  -17.3191   19.2547 O   0  0  0  0  0  0  0  0  0  0  0  0
    8.3117  -12.1663   26.5535 C   0  0  0  0  0  0  0  0  0  0  0  0
    7.1964  -13.2373   26.3636 C   0  0  1  0  0  0  0  0  0  0  0  0
    5.9135  -12.4162   26.5409 C   0  0  0  0  0  0  0  0  0  0  0  0
    7.3158  -13.7865   24.9953 C   0  0  0  0  0  0  0  0  0  0  0  0
    8.4424  -14.6764   24.6438 C   0  0  2  0  0  0  0  0  0  0  0  0
    8.1280  -15.1202   23.2429 N   0  0  0  0  0  0  0  0  0  0  0  0
    8.6152  -15.9093   25.4281 C   0  0  0  0  0  0  0  0  0  0  0  0
    7.6450  -16.7161   25.4991 O   0  0  0  0  0  0  0  0  0  0  0  0
   12.1092  -20.5826   24.1056 N   0  0  0  0  0  0  0  0  0  0  0  0
   12.1264  -19.1795   24.2028 C   0  0  0  0  0  0  0  0  0  0  0  0
   13.1413  -18.5491   23.8362 O   0  0  0  0  0  0  0  0  0  0  0  0
   10.9495  -18.4647   24.7363 C   0  0  0  0  0  0  0  0  0  0  0  0
   11.1189  -18.3013   26.2227 C   0  0  0  0  0  0  0  0  0  0  0  0
    9.9418  -17.5464   26.8300 C   0  0  2  0  0  0  0  0  0  0  0  0
    9.7793  -16.2729   26.1148 N   0  0  0  0  0  0  0  0  0  0  0  0
   10.2463  -17.2205   28.2279 C   0  0  0  0  0  0  0  0  0  0  0  0
   10.2062  -18.1326   29.2829 O   0  0  0  0  0  0  0  0  0  0  0  0
   10.5726  -16.0166   28.5232 O   0  0  0  0  0  0  0  0  0  0  0  0
  2  1  1  6
  2  3  1  0
  3  4  1  0
  4  8  1  0
  5  4  2  0
  6 14  1  0
  6  2  1  0
  7  6  2  0
 10  9  1  6
 10 12  1  0
 10 11  1  0
 13 12  1  1
 13 14  1  0
 15 13  1  0
 16 15  2  0
 17 18  1  0
 18 20  1  0
 19 18  2  0
 20 21  1  0
 22 21  1  6
 22 23  1  0
 23 15  1  0
 24 22  1  0
 24 25  1  0
 26 24  2  0
M  END
$$$$
