DLQ.pdb
     RDKit          3D

 26 25  0  0  1  0  0  0  0  0999 V2000
    7.4834  -16.0455   21.0818 N   0  0  0  0  0  0  0  0  0  0  0  0
    8.8081  -16.3137   21.5495 C   0  0  1  0  0  0  0  0  0  0  0  0
    9.9067  -15.9547   20.5775 C   0  0  0  0  0  0  0  0  0  0  0  0
    9.6005  -16.6413   19.3005 C   0  0  0  0  0  0  0  0  0  0  0  0
    9.1515  -17.8311   19.3332 O   0  0  0  0  0  0  0  0  0  0  0  0
    9.0030  -15.7015   22.8701 C   0  0  0  0  0  0  0  0  0  0  0  0
   10.1274  -15.5785   23.4262 O   0  0  0  0  0  0  0  0  0  0  0  0
    9.8076  -15.9923   18.0941 O   0  0  0  0  0  0  0  0  0  0  0  0
    7.9897  -11.8179   26.4835 C   0  0  0  0  0  0  0  0  0  0  0  0
    6.8103  -12.8112   26.2615 C   0  0  1  0  0  0  0  0  0  0  0  0
    5.6028  -11.8730   26.1463 C   0  0  0  0  0  0  0  0  0  0  0  0
    7.0604  -13.5463   25.0025 C   0  0  0  0  0  0  0  0  0  0  0  0
    8.0128  -14.6764   24.9744 C   0  0  2  0  0  0  0  0  0  0  0  0
    7.8892  -15.2177   23.5780 N   0  0  0  0  0  0  0  0  0  0  0  0
    7.7566  -15.8138   25.8720 C   0  0  0  0  0  0  0  0  0  0  0  0
    6.5596  -16.1761   26.0546 O   0  0  0  0  0  0  0  0  0  0  0  0
    6.4867  -20.0651   24.3281 N   0  0  0  0  0  0  0  0  0  0  0  0
    7.0938  -20.8368   25.3352 C   0  0  0  0  0  0  0  0  0  0  0  0
    6.7128  -22.0118   25.5246 O   0  0  0  0  0  0  0  0  0  0  0  0
    8.1722  -20.2542   26.1588 C   0  0  0  0  0  0  0  0  0  0  0  0
    8.3503  -18.8118   25.7679 C   0  0  0  0  0  0  0  0  0  0  0  0
    8.5655  -17.9328   26.9948 C   0  0  2  0  0  0  0  0  0  0  0  0
    8.7386  -16.5417   26.5534 N   0  0  0  0  0  0  0  0  0  0  0  0
    9.8097  -18.3316   27.6626 C   0  0  0  0  0  0  0  0  0  0  0  0
    9.8990  -19.3009   28.6622 O   0  0  0  0  0  0  0  0  0  0  0  0
   10.9042  -17.7594   27.3197 O   0  0  0  0  0  0  0  0  0  0  0  0
  2  1  1  6
  2  3  1  0
  3  4  1  0
  4  8  1  0
  5  4  2  0
  6 14  1  0
  6  2  1  0
  7  6  2  0
 10  9  1  6
 10 12  1  0
 10 11  1  0
 13 12  1  1
 13 14  1  0
 15 13  1  0
 16 15  2  0
 17 18  1  0
 18 20  1  0
 19 18  2  0
 20 21  1  0
 22 21  1  6
 22 23  1  0
 23 15  1  0
 24 22  1  0
 24 25  1  0
 26 24  2  0
M  END
$$$$
