DLQ.pdb
     RDKit          3D

 26 25  0  0  1  0  0  0  0  0999 V2000
    6.9777  -16.5921   22.9731 N   0  0  0  0  0  0  0  0  0  0  0  0
    8.2954  -16.2006   22.5781 C   0  0  1  0  0  0  0  0  0  0  0  0
    8.3822  -15.5596   21.2135 C   0  0  0  0  0  0  0  0  0  0  0  0
    7.9676  -16.5821   20.2243 C   0  0  0  0  0  0  0  0  0  0  0  0
    7.6242  -17.7352   20.6376 O   0  0  0  0  0  0  0  0  0  0  0  0
    8.9046  -15.3738   23.6279 C   0  0  0  0  0  0  0  0  0  0  0  0
   10.0909  -14.9502   23.5860 O   0  0  0  0  0  0  0  0  0  0  0  0
    7.9618  -16.2804   18.8721 O   0  0  0  0  0  0  0  0  0  0  0  0
    5.6622  -11.9638   26.0150 C   0  0  0  0  0  0  0  0  0  0  0  0
    6.9020  -12.5922   25.3116 C   0  0  1  0  0  0  0  0  0  0  0  0
    7.6606  -11.3577   24.8096 C   0  0  0  0  0  0  0  0  0  0  0  0
    7.6752  -13.3403   26.3268 C   0  0  0  0  0  0  0  0  0  0  0  0
    8.7455  -14.2721   25.9127 C   0  0  2  0  0  0  0  0  0  0  0  0
    8.1446  -15.0207   24.7565 N   0  0  0  0  0  0  0  0  0  0  0  0
    9.1757  -15.2969   26.8768 C   0  0  0  0  0  0  0  0  0  0  0  0
    8.6705  -15.2807   28.0352 O   0  0  0  0  0  0  0  0  0  0  0  0
    6.4621  -19.9285   27.3807 N   0  0  0  0  0  0  0  0  0  0  0  0
    7.7114  -20.4987   27.0764 C   0  0  0  0  0  0  0  0  0  0  0  0
    7.7588  -21.5991   26.4859 O   0  0  0  0  0  0  0  0  0  0  0  0
    8.9531  -19.7956   27.4566 C   0  0  0  0  0  0  0  0  0  0  0  0
    8.8987  -18.3941   26.9110 C   0  0  0  0  0  0  0  0  0  0  0  0
   10.1331  -17.5977   27.3184 C   0  0  2  0  0  0  0  0  0  0  0  0
   10.1118  -16.3050   26.6197 N   0  0  0  0  0  0  0  0  0  0  0  0
   11.3362  -18.3096   26.8724 C   0  0  0  0  0  0  0  0  0  0  0  0
   11.9336  -19.3671   27.5590 O   0  0  0  0  0  0  0  0  0  0  0  0
   11.8956  -17.9486   25.7770 O   0  0  0  0  0  0  0  0  0  0  0  0
  2  1  1  1
  2  3  1  0
  3  4  1  0
  4  8  1  0
  5  4  2  0
  6 14  1  0
  6  2  1  0
  7  6  2  0
 10  9  1  1
 10 12  1  0
 10 11  1  0
 13 12  1  1
 13 14  1  0
 15 13  1  0
 16 15  2  0
 17 18  1  0
 18 20  1  0
 19 18  2  0
 20 21  1  0
 22 21  1  6
 22 23  1  0
 23 15  1  0
 24 22  1  0
 24 25  1  0
 26 24  2  0
M  END
$$$$
