DLQ.pdb
     RDKit          3D

 26 25  0  0  1  0  0  0  0  0999 V2000
    9.7734  -16.2597   20.6900 N   0  0  0  0  0  0  0  0  0  0  0  0
    8.8783  -16.6252   21.7439 C   0  0  1  0  0  0  0  0  0  0  0  0
    8.8218  -18.1048   22.0409 C   0  0  0  0  0  0  0  0  0  0  0  0
    8.4611  -18.7897   20.7773 C   0  0  0  0  0  0  0  0  0  0  0  0
    8.3315  -18.0984   19.7173 O   0  0  0  0  0  0  0  0  0  0  0  0
    9.1631  -15.8217   22.9397 C   0  0  0  0  0  0  0  0  0  0  0  0
   10.3266  -15.5703   23.3541 O   0  0  0  0  0  0  0  0  0  0  0  0
    8.2648  -20.1610   20.7604 O   0  0  0  0  0  0  0  0  0  0  0  0
    5.6590  -12.3843   26.5517 C   0  0  0  0  0  0  0  0  0  0  0  0
    7.0103  -12.3743   25.7766 C   0  0  1  0  0  0  0  0  0  0  0  0
    8.0435  -12.3997   26.9095 C   0  0  0  0  0  0  0  0  0  0  0  0
    7.0718  -13.5965   24.9457 C   0  0  0  0  0  0  0  0  0  0  0  0
    8.3254  -14.3742   24.8536 C   0  0  2  0  0  0  0  0  0  0  0  0
    8.0960  -15.2911   23.6851 N   0  0  0  0  0  0  0  0  0  0  0  0
    8.6792  -15.2448   25.9858 C   0  0  0  0  0  0  0  0  0  0  0  0
    7.9206  -16.2197   26.2528 O   0  0  0  0  0  0  0  0  0  0  0  0
   14.0376  -17.3633   25.9178 N   0  0  0  0  0  0  0  0  0  0  0  0
   13.6948  -17.9639   27.1426 C   0  0  0  0  0  0  0  0  0  0  0  0
   14.4608  -18.8120   27.6484 O   0  0  0  0  0  0  0  0  0  0  0  0
   12.4364  -17.5896   27.8186 C   0  0  0  0  0  0  0  0  0  0  0  0
   11.7228  -16.5676   26.9752 C   0  0  0  0  0  0  0  0  0  0  0  0
   10.3919  -16.1697   27.6034 C   0  0  2  0  0  0  0  0  0  0  0  0
    9.8008  -15.0848   26.8075 N   0  0  0  0  0  0  0  0  0  0  0  0
   10.6330  -15.6360   28.9488 C   0  0  0  0  0  0  0  0  0  0  0  0
   10.4306  -14.3075   29.3241 O   0  0  0  0  0  0  0  0  0  0  0  0
   11.0626  -16.4296   29.8590 O   0  0  0  0  0  0  0  0  0  0  0  0
  2  1  1  6
  2  3  1  0
  3  4  1  0
  4  8  1  0
  5  4  2  0
  6 14  1  0
  6  2  1  0
  7  6  2  0
 10  9  1  1
 10 12  1  0
 10 11  1  0
 13 12  1  1
 13 14  1  0
 15 13  1  0
 16 15  2  0
 17 18  1  0
 18 20  1  0
 19 18  2  0
 20 21  1  0
 22 21  1  6
 22 23  1  0
 23 15  1  0
 24 22  1  0
 24 25  1  0
 26 24  2  0
M  END
$$$$
