DLQ.pdb
     RDKit          3D

 26 25  0  0  1  0  0  0  0  0999 V2000
   10.7165  -18.5217   19.4439 N   0  0  0  0  0  0  0  0  0  0  0  0
   11.8534  -17.6566   19.5105 C   0  0  1  0  0  0  0  0  0  0  0  0
   12.5765  -17.4606   18.1992 C   0  0  0  0  0  0  0  0  0  0  0  0
   13.1221  -18.7795   17.8008 C   0  0  0  0  0  0  0  0  0  0  0  0
   14.0351  -19.3085   18.5115 O   0  0  0  0  0  0  0  0  0  0  0  0
   11.4749  -16.3849   20.1399 C   0  0  0  0  0  0  0  0  0  0  0  0
   12.3043  -15.5042   20.4940 O   0  0  0  0  0  0  0  0  0  0  0  0
   12.6436  -19.4174   16.6679 O   0  0  0  0  0  0  0  0  0  0  0  0
    8.1788  -12.0817   20.4903 C   0  0  0  0  0  0  0  0  0  0  0  0
    7.5390  -13.4290   20.9401 C   0  0  1  0  0  0  0  0  0  0  0  0
    6.1652  -13.3879   20.2601 C   0  0  0  0  0  0  0  0  0  0  0  0
    8.3786  -14.5312   20.4222 C   0  0  0  0  0  0  0  0  0  0  0  0
    9.6734  -14.8472   21.0615 C   0  0  2  0  0  0  0  0  0  0  0  0
   10.1169  -16.1078   20.3742 N   0  0  0  0  0  0  0  0  0  0  0  0
    9.6731  -15.1515   22.5011 C   0  0  0  0  0  0  0  0  0  0  0  0
    9.3648  -14.2298   23.3090 O   0  0  0  0  0  0  0  0  0  0  0  0
    6.8440  -19.7038   24.7789 N   0  0  0  0  0  0  0  0  0  0  0  0
    7.3382  -19.2002   25.9956 C   0  0  0  0  0  0  0  0  0  0  0  0
    6.8940  -19.6493   27.0740 O   0  0  0  0  0  0  0  0  0  0  0  0
    8.3739  -18.1476   25.9895 C   0  0  0  0  0  0  0  0  0  0  0  0
    8.5947  -17.6981   24.5703 C   0  0  0  0  0  0  0  0  0  0  0  0
    9.7686  -16.7299   24.4771 C   0  0  2  0  0  0  0  0  0  0  0  0
    9.9905  -16.3929   23.0639 N   0  0  0  0  0  0  0  0  0  0  0  0
   10.9841  -17.3968   24.9576 C   0  0  0  0  0  0  0  0  0  0  0  0
   11.5279  -17.2345   26.2322 O   0  0  0  0  0  0  0  0  0  0  0  0
   11.6078  -18.1877   24.1649 O   0  0  0  0  0  0  0  0  0  0  0  0
  2  1  1  6
  2  3  1  0
  3  4  1  0
  4  8  1  0
  5  4  2  0
  6 14  1  0
  6  2  1  0
  7  6  2  0
 10  9  1  6
 10 12  1  0
 10 11  1  0
 13 12  1  6
 13 14  1  0
 15 13  1  0
 16 15  2  0
 17 18  1  0
 18 20  1  0
 19 18  2  0
 20 21  1  0
 22 21  1  6
 22 23  1  0
 23 15  1  0
 24 22  1  0
 24 25  1  0
 26 24  2  0
M  END
$$$$
