DLQ.pdb
     RDKit          3D

 26 25  0  0  1  0  0  0  0  0999 V2000
   10.6240  -17.7206   17.7026 N   0  0  0  0  0  0  0  0  0  0  0  0
    9.7822  -17.8320   18.8535 C   0  0  1  0  0  0  0  0  0  0  0  0
    9.8298  -19.1742   19.5442 C   0  0  0  0  0  0  0  0  0  0  0  0
    8.5270  -19.3605   20.2253 C   0  0  0  0  0  0  0  0  0  0  0  0
    8.3706  -18.8870   21.3956 O   0  0  0  0  0  0  0  0  0  0  0  0
   10.0449  -16.7168   19.7722 C   0  0  0  0  0  0  0  0  0  0  0  0
   11.1999  -16.2961   20.0511 O   0  0  0  0  0  0  0  0  0  0  0  0
    7.5023  -20.0452   19.5924 O   0  0  0  0  0  0  0  0  0  0  0  0
    6.4358  -12.5885   19.8712 C   0  0  0  0  0  0  0  0  0  0  0  0
    7.8049  -13.3302   19.8224 C   0  0  1  0  0  0  0  0  0  0  0  0
    8.8035  -12.1756   19.6772 C   0  0  0  0  0  0  0  0  0  0  0  0
    7.9802  -14.0544   21.1003 C   0  0  0  0  0  0  0  0  0  0  0  0
    9.1715  -14.9010   21.3212 C   0  0  2  0  0  0  0  0  0  0  0  0
    8.9653  -16.0635   20.3915 N   0  0  0  0  0  0  0  0  0  0  0  0
    9.3625  -15.4834   22.6589 C   0  0  0  0  0  0  0  0  0  0  0  0
    9.6177  -14.7050   23.6213 O   0  0  0  0  0  0  0  0  0  0  0  0
    6.8256  -20.7114   24.3032 N   0  0  0  0  0  0  0  0  0  0  0  0
    6.2272  -19.4758   23.9977 C   0  0  0  0  0  0  0  0  0  0  0  0
    5.0132  -19.4352   23.7038 O   0  0  0  0  0  0  0  0  0  0  0  0
    7.0356  -18.2402   24.0254 C   0  0  0  0  0  0  0  0  0  0  0  0
    8.4407  -18.5937   24.4326 C   0  0  0  0  0  0  0  0  0  0  0  0
    9.3630  -17.3842   24.3300 C   0  0  2  0  0  0  0  0  0  0  0  0
    9.2858  -16.8471   22.9641 N   0  0  0  0  0  0  0  0  0  0  0  0
   10.7492  -17.8138   24.5470 C   0  0  0  0  0  0  0  0  0  0  0  0
   11.7513  -17.7832   23.5767 O   0  0  0  0  0  0  0  0  0  0  0  0
   11.0842  -18.2542   25.7032 O   0  0  0  0  0  0  0  0  0  0  0  0
  2  1  1  6
  2  3  1  0
  3  4  1  0
  4  8  1  0
  5  4  2  0
  6 14  1  0
  6  2  1  0
  7  6  2  0
 10  9  1  1
 10 12  1  0
 10 11  1  0
 13 12  1  1
 13 14  1  0
 15 13  1  0
 16 15  2  0
 17 18  1  0
 18 20  1  0
 19 18  2  0
 20 21  1  0
 22 21  1  6
 22 23  1  0
 23 15  1  0
 24 22  1  0
 24 25  1  0
 26 24  2  0
M  END
$$$$
