DLQ.pdb
     RDKit          3D

 26 25  0  0  1  0  0  0  0  0999 V2000
    7.7220  -16.4440   21.2680 N   0  0  0  0  0  0  0  0  0  0  0  0
    9.1313  -16.2300   21.3852 C   0  0  1  0  0  0  0  0  0  0  0  0
    9.7750  -15.5843   20.1813 C   0  0  0  0  0  0  0  0  0  0  0  0
    9.6566  -16.5425   19.0571 C   0  0  0  0  0  0  0  0  0  0  0  0
   10.5408  -17.4472   18.9232 O   0  0  0  0  0  0  0  0  0  0  0  0
    9.4236  -15.5120   22.6325 C   0  0  0  0  0  0  0  0  0  0  0  0
   10.5695  -15.0911   22.9465 O   0  0  0  0  0  0  0  0  0  0  0  0
    8.5992  -16.4443   18.1674 O   0  0  0  0  0  0  0  0  0  0  0  0
    8.0870  -11.7842   26.3470 C   0  0  0  0  0  0  0  0  0  0  0  0
    7.2184  -13.0771   26.3743 C   0  0  1  0  0  0  0  0  0  0  0  0
    5.7960  -12.5192   26.5046 C   0  0  0  0  0  0  0  0  0  0  0  0
    7.4166  -13.7902   25.0936 C   0  0  0  0  0  0  0  0  0  0  0  0
    8.6361  -14.5945   24.8680 C   0  0  2  0  0  0  0  0  0  0  0  0
    8.3853  -15.2673   23.5478 N   0  0  0  0  0  0  0  0  0  0  0  0
    8.9329  -15.6753   25.8213 C   0  0  0  0  0  0  0  0  0  0  0  0
    8.0419  -16.5447   26.0391 O   0  0  0  0  0  0  0  0  0  0  0  0
   13.7880  -19.0193   26.1632 N   0  0  0  0  0  0  0  0  0  0  0  0
   12.8094  -18.7556   25.1879 C   0  0  0  0  0  0  0  0  0  0  0  0
   13.0000  -19.1235   24.0089 O   0  0  0  0  0  0  0  0  0  0  0  0
   11.5690  -18.0474   25.5632 C   0  0  0  0  0  0  0  0  0  0  0  0
   11.6558  -17.6617   27.0153 C   0  0  0  0  0  0  0  0  0  0  0  0
   10.3997  -16.9232   27.4634 C   0  0  2  0  0  0  0  0  0  0  0  0
   10.1357  -15.8272   26.5206 N   0  0  0  0  0  0  0  0  0  0  0  0
   10.6398  -16.3143   28.7767 C   0  0  0  0  0  0  0  0  0  0  0  0
   10.6953  -17.0181   29.9802 O   0  0  0  0  0  0  0  0  0  0  0  0
   10.8113  -15.0460   28.8461 O   0  0  0  0  0  0  0  0  0  0  0  0
  2  1  1  6
  2  3  1  0
  3  4  1  0
  4  8  1  0
  5  4  2  0
  6 14  1  0
  6  2  1  0
  7  6  2  0
 10  9  1  6
 10 12  1  0
 10 11  1  0
 13 12  1  1
 13 14  1  0
 15 13  1  0
 16 15  2  0
 17 18  1  0
 18 20  1  0
 19 18  2  0
 20 21  1  0
 22 21  1  6
 22 23  1  0
 23 15  1  0
 24 22  1  0
 24 25  1  0
 26 24  2  0
M  END
$$$$
