DLQ.pdb
     RDKit          3D

 26 25  0  0  1  0  0  0  0  0999 V2000
    7.9520  -15.6783   21.1192 N   0  0  0  0  0  0  0  0  0  0  0  0
    9.1705  -16.1498   21.7008 C   0  0  1  0  0  0  0  0  0  0  0  0
   10.4199  -15.7831   20.9357 C   0  0  0  0  0  0  0  0  0  0  0  0
   10.3251  -16.4347   19.6082 C   0  0  0  0  0  0  0  0  0  0  0  0
    9.2044  -16.4466   19.0065 O   0  0  0  0  0  0  0  0  0  0  0  0
    9.2366  -15.7480   23.1119 C   0  0  0  0  0  0  0  0  0  0  0  0
   10.3121  -15.6409   23.7602 O   0  0  0  0  0  0  0  0  0  0  0  0
   11.4432  -17.0239   19.0406 O   0  0  0  0  0  0  0  0  0  0  0  0
    5.7338  -11.9374   25.6039 C   0  0  0  0  0  0  0  0  0  0  0  0
    7.0750  -12.6233   25.2068 C   0  0  1  0  0  0  0  0  0  0  0  0
    8.0479  -12.0881   26.2644 C   0  0  0  0  0  0  0  0  0  0  0  0
    6.8916  -14.0871   25.3158 C   0  0  0  0  0  0  0  0  0  0  0  0
    8.0561  -14.9936   25.2325 C   0  0  2  0  0  0  0  0  0  0  0  0
    8.0474  -15.4618   23.8045 N   0  0  0  0  0  0  0  0  0  0  0  0
    8.0389  -16.2124   26.0566 C   0  0  0  0  0  0  0  0  0  0  0  0
    7.1088  -17.0480   25.8724 O   0  0  0  0  0  0  0  0  0  0  0  0
   11.4558  -19.2615   23.8288 N   0  0  0  0  0  0  0  0  0  0  0  0
   11.4644  -20.1302   24.9350 C   0  0  0  0  0  0  0  0  0  0  0  0
   12.0278  -21.2417   24.8410 O   0  0  0  0  0  0  0  0  0  0  0  0
   10.8089  -19.7238   26.1944 C   0  0  0  0  0  0  0  0  0  0  0  0
   10.2250  -18.3489   26.0110 C   0  0  0  0  0  0  0  0  0  0  0  0
    9.4962  -17.8895   27.2686 C   0  0  2  0  0  0  0  0  0  0  0  0
    8.9777  -16.5328   27.0438 N   0  0  0  0  0  0  0  0  0  0  0  0
   10.4524  -17.8075   28.3785 C   0  0  0  0  0  0  0  0  0  0  0  0
   11.2440  -16.6947   28.6643 O   0  0  0  0  0  0  0  0  0  0  0  0
   10.5875  -18.8207   29.1520 O   0  0  0  0  0  0  0  0  0  0  0  0
  2  1  1  6
  2  3  1  0
  3  4  1  0
  4  8  1  0
  5  4  2  0
  6 14  1  0
  6  2  1  0
  7  6  2  0
 10  9  1  1
 10 12  1  0
 10 11  1  0
 13 12  1  1
 13 14  1  0
 15 13  1  0
 16 15  2  0
 17 18  1  0
 18 20  1  0
 19 18  2  0
 20 21  1  0
 22 21  1  6
 22 23  1  0
 23 15  1  0
 24 22  1  0
 24 25  1  0
 26 24  2  0
M  END
$$$$
