DLQ.pdb
     RDKit          3D

 26 25  0  0  1  0  0  0  0  0999 V2000
    7.4843  -17.0607   21.7183 N   0  0  0  0  0  0  0  0  0  0  0  0
    8.7983  -16.5109   21.5896 C   0  0  1  0  0  0  0  0  0  0  0  0
    9.0972  -15.8954   20.2433 C   0  0  0  0  0  0  0  0  0  0  0  0
    8.8992  -16.9546   19.2260 C   0  0  0  0  0  0  0  0  0  0  0  0
    9.5139  -18.0602   19.3605 O   0  0  0  0  0  0  0  0  0  0  0  0
    9.0629  -15.5884   22.7013 C   0  0  0  0  0  0  0  0  0  0  0  0
   10.1410  -14.9505   22.8409 O   0  0  0  0  0  0  0  0  0  0  0  0
    8.0602  -16.7342   18.1459 O   0  0  0  0  0  0  0  0  0  0  0  0
    5.3750  -12.5345   26.3984 C   0  0  0  0  0  0  0  0  0  0  0  0
    6.7647  -12.5178   25.6947 C   0  0  1  0  0  0  0  0  0  0  0  0
    7.7351  -12.4151   26.8776 C   0  0  0  0  0  0  0  0  0  0  0  0
    6.9224  -13.7922   24.9603 C   0  0  0  0  0  0  0  0  0  0  0  0
    8.2599  -14.4007   24.7999 C   0  0  2  0  0  0  0  0  0  0  0  0
    8.0755  -15.3872   23.6813 N   0  0  0  0  0  0  0  0  0  0  0  0
    8.8054  -15.1695   25.9297 C   0  0  0  0  0  0  0  0  0  0  0  0
    9.0372  -14.5611   27.0129 O   0  0  0  0  0  0  0  0  0  0  0  0
    6.8362  -20.1124   28.3944 N   0  0  0  0  0  0  0  0  0  0  0  0
    6.9724  -19.9850   27.0003 C   0  0  0  0  0  0  0  0  0  0  0  0
    6.2638  -20.6850   26.2456 O   0  0  0  0  0  0  0  0  0  0  0  0
    7.9492  -19.0289   26.4412 C   0  0  0  0  0  0  0  0  0  0  0  0
    8.5379  -18.2269   27.5704 C   0  0  0  0  0  0  0  0  0  0  0  0
    9.6202  -17.2794   27.0652 C   0  0  2  0  0  0  0  0  0  0  0  0
    9.0958  -16.5384   25.9094 N   0  0  0  0  0  0  0  0  0  0  0  0
   10.7661  -18.0638   26.5911 C   0  0  0  0  0  0  0  0  0  0  0  0
   11.1987  -18.1163   25.2657 O   0  0  0  0  0  0  0  0  0  0  0  0
   11.4299  -18.7596   27.4386 O   0  0  0  0  0  0  0  0  0  0  0  0
  2  1  1  6
  2  3  1  0
  3  4  1  0
  4  8  1  0
  5  4  2  0
  6 14  1  0
  6  2  1  0
  7  6  2  0
 10  9  1  1
 10 12  1  0
 10 11  1  0
 13 12  1  1
 13 14  1  0
 15 13  1  0
 16 15  2  0
 17 18  1  0
 18 20  1  0
 19 18  2  0
 20 21  1  0
 22 21  1  6
 22 23  1  0
 23 15  1  0
 24 22  1  0
 24 25  1  0
 26 24  2  0
M  END
$$$$
