MKM.pdb
     RDKit          3D

 26 25  0  0  1  0  0  0  0  0999 V2000
   26.4198  -18.7355   -6.6500 C   0  0  0  0  0  0  0  0  0  0  0  0
   27.6373  -20.0617   -6.4489 S   0  0  0  0  0  0  0  0  0  0  0  0
   27.8042  -21.0248   -8.0052 C   0  0  0  0  0  0  0  0  0  0  0  0
   26.9642  -20.3286   -9.0234 C   0  0  0  0  0  0  0  0  0  0  0  0
   26.3042  -21.1975  -10.0375 C   0  0  2  0  0  0  0  0  0  0  0  0
   27.3671  -22.1228  -10.4993 N   0  0  0  0  0  0  0  0  0  0  0  0
   25.7898  -20.5246  -11.2337 C   0  0  0  0  0  0  0  0  0  0  0  0
   24.8225  -19.6848  -11.1406 O   0  0  0  0  0  0  0  0  0  0  0  0
   26.2579  -20.6929  -12.5642 N   0  0  0  0  0  0  0  0  0  0  0  0
   25.5902  -20.0884  -13.7088 C   0  0  1  0  0  0  0  0  0  0  0  0
   26.6047  -20.2664  -14.8444 C   0  0  0  0  0  0  0  0  0  0  0  0
   26.4817  -19.2926  -15.9508 C   0  0  0  0  0  0  0  0  0  0  0  0
   27.9226  -18.9405  -16.3720 C   0  0  0  0  0  0  0  0  0  0  0  0
   27.8967  -17.9618  -17.5262 C   0  0  0  0  0  0  0  0  0  0  0  0
   27.2816  -18.6425  -18.6508 N   0  0  0  0  0  0  0  0  0  0  0  0
   24.3073  -20.6928  -14.0499 C   0  0  0  0  0  0  0  0  0  0  0  0
   24.2438  -21.9704  -14.0599 O   0  0  0  0  0  0  0  0  0  0  0  0
   19.8818  -22.3386  -10.8535 C   0  0  0  0  0  0  0  0  0  0  0  0
   18.7964  -21.6746  -12.1201 S   0  0  0  0  0  0  0  0  0  0  0  0
   19.7186  -21.4303  -13.6677 C   0  0  0  0  0  0  0  0  0  0  0  0
   21.0790  -20.8081  -13.3462 C   0  0  0  0  0  0  0  0  0  0  0  0
   21.9039  -20.7733  -14.6192 C   0  0  2  0  0  0  0  0  0  0  0  0
   23.1171  -20.0214  -14.3724 N   0  0  0  0  0  0  0  0  0  0  0  0
   21.1717  -20.1635  -15.7328 C   0  0  0  0  0  0  0  0  0  0  0  0
   21.3190  -18.8019  -16.0257 O   0  0  0  0  0  0  0  0  0  0  0  0
   20.4034  -20.8490  -16.4397 O   0  0  0  0  0  0  0  0  0  0  0  0
  2  1  1  0
  3  2  1  0
  4  3  1  0
  4  5  1  0
  5  7  1  0
  5  6  1  6
  7  8  2  0
  9 10  1  0
  9  7  1  0
 10 11  1  6
 11 12  1  0
 12 13  1  0
 13 14  1  0
 14 15  1  0
 16 17  2  0
 16 10  1  0
 18 19  1  0
 19 20  1  0
 20 21  1  0
 22 21  1  1
 22 24  1  0
 22 23  1  0
 23 16  1  0
 24 25  1  0
 26 24  2  0
M  END
$$$$
