MKM.pdb
     RDKit          3D

 26 25  0  0  1  0  0  0  0  0999 V2000
   22.6796  -21.8942   -6.5342 C   0  0  0  0  0  0  0  0  0  0  0  0
   24.0677  -21.3664   -7.5716 S   0  0  0  0  0  0  0  0  0  0  0  0
   23.4580  -20.4827   -9.0632 C   0  0  0  0  0  0  0  0  0  0  0  0
   24.6689  -20.0488   -9.8198 C   0  0  0  0  0  0  0  0  0  0  0  0
   24.7637  -20.5128  -11.2322 C   0  0  2  0  0  0  0  0  0  0  0  0
   24.8478  -21.9908  -11.1452 N   0  0  0  0  0  0  0  0  0  0  0  0
   25.9428  -20.0723  -11.9831 C   0  0  0  0  0  0  0  0  0  0  0  0
   26.2100  -18.8212  -12.0967 O   0  0  0  0  0  0  0  0  0  0  0  0
   26.8869  -20.9073  -12.6383 N   0  0  0  0  0  0  0  0  0  0  0  0
   27.8721  -20.3856  -13.5757 C   0  0  1  0  0  0  0  0  0  0  0  0
   29.1301  -21.2017  -13.2569 C   0  0  0  0  0  0  0  0  0  0  0  0
   29.6598  -21.0243  -11.8873 C   0  0  0  0  0  0  0  0  0  0  0  0
   30.9853  -21.8103  -11.8370 C   0  0  0  0  0  0  0  0  0  0  0  0
   31.6655  -21.5873  -10.5034 C   0  0  0  0  0  0  0  0  0  0  0  0
   32.9082  -22.3367  -10.5262 N   0  0  0  0  0  0  0  0  0  0  0  0
   27.5009  -20.5180  -14.9800 C   0  0  0  0  0  0  0  0  0  0  0  0
   26.3916  -21.0986  -15.2425 O   0  0  0  0  0  0  0  0  0  0  0  0
   23.9726  -17.8429  -19.8686 C   0  0  0  0  0  0  0  0  0  0  0  0
   24.8336  -18.6239  -18.5004 S   0  0  0  0  0  0  0  0  0  0  0  0
   26.1372  -17.5231  -17.8726 C   0  0  0  0  0  0  0  0  0  0  0  0
   26.8359  -18.1987  -16.6909 C   0  0  0  0  0  0  0  0  0  0  0  0
   27.5538  -19.4345  -17.2004 C   0  0  2  0  0  0  0  0  0  0  0  0
   28.2335  -20.0733  -16.0922 N   0  0  0  0  0  0  0  0  0  0  0  0
   28.5273  -19.1128  -18.2478 C   0  0  0  0  0  0  0  0  0  0  0  0
   28.3378  -19.5581  -19.5620 O   0  0  0  0  0  0  0  0  0  0  0  0
   29.5433  -18.4354  -17.9850 O   0  0  0  0  0  0  0  0  0  0  0  0
  2  1  1  0
  3  2  1  0
  4  3  1  0
  4  5  1  0
  5  7  1  0
  5  6  1  1
  7  8  2  0
  9 10  1  0
  9  7  1  0
 10 11  1  6
 11 12  1  0
 12 13  1  0
 13 14  1  0
 14 15  1  0
 16 17  2  0
 16 10  1  0
 18 19  1  0
 19 20  1  0
 20 21  1  0
 22 21  1  1
 22 24  1  0
 22 23  1  0
 23 16  1  0
 24 25  1  0
 26 24  2  0
M  END
$$$$
