MKM.pdb
     RDKit          3D

 26 25  0  0  1  0  0  0  0  0999 V2000
   10.3337  -10.7136  -16.8735 C   0  0  0  0  0  0  0  0  0  0  0  0
   11.9882  -10.4535  -16.1833 S   0  0  0  0  0  0  0  0  0  0  0  0
   13.0934  -11.8580  -16.6115 C   0  0  0  0  0  0  0  0  0  0  0  0
   14.3718  -11.6269  -15.8772 C   0  0  0  0  0  0  0  0  0  0  0  0
   15.4815  -12.5755  -16.1733 C   0  0  2  0  0  0  0  0  0  0  0  0
   15.2783  -13.7073  -15.2368 N   0  0  0  0  0  0  0  0  0  0  0  0
   16.8405  -12.0796  -15.9381 C   0  0  0  0  0  0  0  0  0  0  0  0
   17.3302  -12.0664  -14.7508 O   0  0  0  0  0  0  0  0  0  0  0  0
   17.7402  -11.5845  -16.9195 N   0  0  0  0  0  0  0  0  0  0  0  0
   19.1136  -11.2160  -16.6042 C   0  0  1  0  0  0  0  0  0  0  0  0
   19.9182  -11.8347  -17.7532 C   0  0  0  0  0  0  0  0  0  0  0  0
   20.9190  -12.8437  -17.3431 C   0  0  0  0  0  0  0  0  0  0  0  0
   20.1655  -14.1868  -17.2689 C   0  0  0  0  0  0  0  0  0  0  0  0
   21.1026  -15.2770  -16.7955 C   0  0  0  0  0  0  0  0  0  0  0  0
   20.2925  -16.4510  -16.5273 N   0  0  0  0  0  0  0  0  0  0  0  0
   19.3488   -9.7795  -16.5110 C   0  0  0  0  0  0  0  0  0  0  0  0
   18.6750   -9.0219  -17.2911 O   0  0  0  0  0  0  0  0  0  0  0  0
   22.4657   -3.3460  -13.1851 C   0  0  0  0  0  0  0  0  0  0  0  0
   22.3851   -5.1395  -13.2002 S   0  0  0  0  0  0  0  0  0  0  0  0
   21.3940   -5.7083  -14.6142 C   0  0  0  0  0  0  0  0  0  0  0  0
   21.2533   -7.2304  -14.5461 C   0  0  0  0  0  0  0  0  0  0  0  0
   20.3681   -7.6824  -15.6926 C   0  0  2  0  0  0  0  0  0  0  0  0
   20.2432   -9.1249  -15.6491 N   0  0  0  0  0  0  0  0  0  0  0  0
   20.9064   -7.2799  -16.9951 C   0  0  0  0  0  0  0  0  0  0  0  0
   20.4691   -6.1040  -17.6176 O   0  0  0  0  0  0  0  0  0  0  0  0
   21.7650   -7.9799  -17.5720 O   0  0  0  0  0  0  0  0  0  0  0  0
  2  1  1  0
  3  2  1  0
  4  3  1  0
  4  5  1  0
  5  7  1  0
  5  6  1  1
  7  8  2  0
  9 10  1  0
  9  7  1  0
 10 11  1  6
 11 12  1  0
 12 13  1  0
 13 14  1  0
 14 15  1  0
 16 17  2  0
 16 10  1  0
 18 19  1  0
 19 20  1  0
 20 21  1  0
 22 21  1  1
 22 24  1  0
 22 23  1  0
 23 16  1  0
 24 25  1  0
 26 24  2  0
M  END
$$$$
