MKM.pdb
     RDKit          3D

 26 25  0  0  1  0  0  0  0  0999 V2000
   16.2674  -20.1322  -11.3111 C   0  0  0  0  0  0  0  0  0  0  0  0
   17.1072  -18.5438  -11.5421 S   0  0  0  0  0  0  0  0  0  0  0  0
   18.0731  -18.5469  -13.1056 C   0  0  0  0  0  0  0  0  0  0  0  0
   19.2452  -19.4412  -12.8746 C   0  0  0  0  0  0  0  0  0  0  0  0
   19.9495  -19.9307  -14.0925 C   0  0  2  0  0  0  0  0  0  0  0  0
   19.0114  -20.8953  -14.7160 N   0  0  0  0  0  0  0  0  0  0  0  0
   21.2044  -20.6547  -13.8706 C   0  0  0  0  0  0  0  0  0  0  0  0
   21.2376  -21.6705  -13.0853 O   0  0  0  0  0  0  0  0  0  0  0  0
   22.4651  -20.3575  -14.4537 N   0  0  0  0  0  0  0  0  0  0  0  0
   23.6776  -21.0852  -14.1046 C   0  0  1  0  0  0  0  0  0  0  0  0
   24.4764  -21.0894  -15.4131 C   0  0  0  0  0  0  0  0  0  0  0  0
   25.7568  -21.8281  -15.3614 C   0  0  0  0  0  0  0  0  0  0  0  0
   25.4019  -23.3131  -15.5763 C   0  0  0  0  0  0  0  0  0  0  0  0
   26.6686  -24.1341  -15.6871 C   0  0  0  0  0  0  0  0  0  0  0  0
   26.2693  -25.5261  -15.7833 N   0  0  0  0  0  0  0  0  0  0  0  0
   24.4491  -20.4904  -13.0191 C   0  0  0  0  0  0  0  0  0  0  0  0
   24.5008  -19.2133  -12.9660 O   0  0  0  0  0  0  0  0  0  0  0  0
   26.5884  -19.3815   -6.8343 C   0  0  0  0  0  0  0  0  0  0  0  0
   27.6847  -20.5958   -7.5737 S   0  0  0  0  0  0  0  0  0  0  0  0
   27.7092  -20.3970   -9.3807 C   0  0  0  0  0  0  0  0  0  0  0  0
   26.4109  -20.9592   -9.9632 C   0  0  0  0  0  0  0  0  0  0  0  0
   26.3404  -20.5819  -11.4312 C   0  0  2  0  0  0  0  0  0  0  0  0
   25.1508  -21.1707  -12.0110 N   0  0  0  0  0  0  0  0  0  0  0  0
   27.5196  -21.0368  -12.1734 C   0  0  0  0  0  0  0  0  0  0  0  0
   28.6266  -20.1959  -12.3432 O   0  0  0  0  0  0  0  0  0  0  0  0
   27.5564  -22.1834  -12.6674 O   0  0  0  0  0  0  0  0  0  0  0  0
  2  1  1  0
  3  2  1  0
  4  3  1  0
  4  5  1  0
  5  7  1  0
  5  6  1  1
  7  8  2  0
  9 10  1  0
  9  7  1  0
 10 11  1  6
 11 12  1  0
 12 13  1  0
 13 14  1  0
 14 15  1  0
 16 17  2  0
 16 10  1  0
 18 19  1  0
 19 20  1  0
 20 21  1  0
 22 21  1  1
 22 24  1  0
 22 23  1  0
 23 16  1  0
 24 25  1  0
 26 24  2  0
M  END
$$$$
