MKM.pdb
     RDKit          3D

 26 25  0  0  1  0  0  0  0  0999 V2000
   25.3201  -19.5529   -7.5303 C   0  0  0  0  0  0  0  0  0  0  0  0
   26.9383  -20.2899   -7.1842 S   0  0  0  0  0  0  0  0  0  0  0  0
   27.6596  -21.0088   -8.7141 C   0  0  0  0  0  0  0  0  0  0  0  0
   26.5990  -20.9225   -9.7604 C   0  0  0  0  0  0  0  0  0  0  0  0
   26.9171  -21.5506  -11.0732 C   0  0  2  0  0  0  0  0  0  0  0  0
   28.0865  -20.7962  -11.5856 N   0  0  0  0  0  0  0  0  0  0  0  0
   25.8797  -21.4612  -12.1047 C   0  0  0  0  0  0  0  0  0  0  0  0
   25.6243  -20.3380  -12.6728 O   0  0  0  0  0  0  0  0  0  0  0  0
   25.0744  -22.5274  -12.5866 N   0  0  0  0  0  0  0  0  0  0  0  0
   24.0450  -22.3323  -13.5985 C   0  0  1  0  0  0  0  0  0  0  0  0
   23.5441  -23.7552  -13.8720 C   0  0  0  0  0  0  0  0  0  0  0  0
   23.2056  -24.0381  -15.2838 C   0  0  0  0  0  0  0  0  0  0  0  0
   24.3407  -24.9306  -15.8245 C   0  0  0  0  0  0  0  0  0  0  0  0
   24.0516  -25.3186  -17.2586 C   0  0  0  0  0  0  0  0  0  0  0  0
   25.2478  -25.9544  -17.7794 N   0  0  0  0  0  0  0  0  0  0  0  0
   22.9510  -21.4591  -13.1885 C   0  0  0  0  0  0  0  0  0  0  0  0
   23.0390  -20.9076  -12.0376 O   0  0  0  0  0  0  0  0  0  0  0  0
   25.5192  -17.3059  -15.5001 C   0  0  0  0  0  0  0  0  0  0  0  0
   24.1679  -17.4992  -16.6663 S   0  0  0  0  0  0  0  0  0  0  0  0
   22.6586  -18.0148  -15.7935 C   0  0  0  0  0  0  0  0  0  0  0  0
   22.8739  -19.4102  -15.2040 C   0  0  0  0  0  0  0  0  0  0  0  0
   21.6138  -19.8183  -14.4638 C   0  0  2  0  0  0  0  0  0  0  0  0
   21.7961  -21.1504  -13.9250 N   0  0  0  0  0  0  0  0  0  0  0  0
   20.4349  -19.8030  -15.3346 C   0  0  0  0  0  0  0  0  0  0  0  0
   19.5715  -18.7004  -15.3507 O   0  0  0  0  0  0  0  0  0  0  0  0
   20.1805  -20.7744  -16.0774 O   0  0  0  0  0  0  0  0  0  0  0  0
  2  1  1  0
  3  2  1  0
  4  3  1  0
  4  5  1  0
  5  7  1  0
  5  6  1  6
  7  8  2  0
  9 10  1  0
  9  7  1  0
 10 11  1  1
 11 12  1  0
 12 13  1  0
 13 14  1  0
 14 15  1  0
 16 17  2  0
 16 10  1  0
 18 19  1  0
 19 20  1  0
 20 21  1  0
 22 21  1  6
 22 24  1  0
 22 23  1  0
 23 16  1  0
 24 25  1  0
 26 24  2  0
M  END
$$$$
