MKM.pdb
     RDKit          3D

 26 25  0  0  1  0  0  0  0  0999 V2000
   22.7824  -20.8868   -9.0911 C   0  0  0  0  0  0  0  0  0  0  0  0
   24.1931  -21.9300   -8.6405 S   0  0  0  0  0  0  0  0  0  0  0  0
   25.7651  -20.9909   -8.7966 C   0  0  0  0  0  0  0  0  0  0  0  0
   25.7915  -20.4420  -10.1840 C   0  0  0  0  0  0  0  0  0  0  0  0
   25.7827  -21.4422  -11.2878 C   0  0  2  0  0  0  0  0  0  0  0  0
   27.1420  -22.0351  -11.2786 N   0  0  0  0  0  0  0  0  0  0  0  0
   25.5670  -20.9170  -12.6391 C   0  0  0  0  0  0  0  0  0  0  0  0
   26.5198  -20.3257  -13.2654 O   0  0  0  0  0  0  0  0  0  0  0  0
   24.3634  -20.9874  -13.3900 N   0  0  0  0  0  0  0  0  0  0  0  0
   24.2743  -20.5214  -14.7672 C   0  0  1  0  0  0  0  0  0  0  0  0
   23.0386  -21.2504  -15.3076 C   0  0  0  0  0  0  0  0  0  0  0  0
   22.7141  -20.9660  -16.7224 C   0  0  0  0  0  0  0  0  0  0  0  0
   23.8914  -21.5190  -17.5501 C   0  0  0  0  0  0  0  0  0  0  0  0
   23.6714  -21.2245  -19.0183 C   0  0  0  0  0  0  0  0  0  0  0  0
   24.7906  -21.7987  -19.7424 N   0  0  0  0  0  0  0  0  0  0  0  0
   24.1367  -19.0764  -14.9095 C   0  0  0  0  0  0  0  0  0  0  0  0
   23.1719  -18.5136  -14.2859 O   0  0  0  0  0  0  0  0  0  0  0  0
   26.8696  -11.9128  -16.6486 C   0  0  0  0  0  0  0  0  0  0  0  0
   27.1893  -13.6780  -16.5775 S   0  0  0  0  0  0  0  0  0  0  0  0
   25.6603  -14.5738  -16.1713 C   0  0  0  0  0  0  0  0  0  0  0  0
   25.9753  -16.0651  -16.0369 C   0  0  0  0  0  0  0  0  0  0  0  0
   24.6937  -16.7964  -15.6830 C   0  0  2  0  0  0  0  0  0  0  0  0
   24.9557  -18.2209  -15.6637 N   0  0  0  0  0  0  0  0  0  0  0  0
   23.6171  -16.5127  -16.6362 C   0  0  0  0  0  0  0  0  0  0  0  0
   22.6677  -15.5186  -16.3681 O   0  0  0  0  0  0  0  0  0  0  0  0
   23.5286  -17.1537  -17.7044 O   0  0  0  0  0  0  0  0  0  0  0  0
  2  1  1  0
  3  2  1  0
  4  3  1  0
  4  5  1  0
  5  7  1  0
  5  6  1  6
  7  8  2  0
  9 10  1  0
  9  7  1  0
 10 11  1  1
 11 12  1  0
 12 13  1  0
 13 14  1  0
 14 15  1  0
 16 17  2  0
 16 10  1  0
 18 19  1  0
 19 20  1  0
 20 21  1  0
 22 21  1  6
 22 24  1  0
 22 23  1  0
 23 16  1  0
 24 25  1  0
 26 24  2  0
M  END
$$$$
