MKM.pdb
     RDKit          3D

 26 25  0  0  1  0  0  0  0  0999 V2000
   26.8381  -23.1201  -17.2623 C   0  0  0  0  0  0  0  0  0  0  0  0
   28.5713  -22.6573  -17.0105 S   0  0  0  0  0  0  0  0  0  0  0  0
   29.4559  -23.9614  -16.0649 C   0  0  0  0  0  0  0  0  0  0  0  0
   29.8745  -24.9921  -17.0597 C   0  0  0  0  0  0  0  0  0  0  0  0
   28.9112  -26.1021  -17.3023 C   0  0  2  0  0  0  0  0  0  0  0  0
   28.6060  -26.6457  -15.9567 N   0  0  0  0  0  0  0  0  0  0  0  0
   29.4035  -27.2263  -18.1035 C   0  0  0  0  0  0  0  0  0  0  0  0
   29.8533  -27.0297  -19.2904 O   0  0  0  0  0  0  0  0  0  0  0  0
   29.4516  -28.5891  -17.7060 N   0  0  0  0  0  0  0  0  0  0  0  0
   29.9924  -29.6340  -18.5647 C   0  0  1  0  0  0  0  0  0  0  0  0
   30.3009  -30.7722  -17.5850 C   0  0  0  0  0  0  0  0  0  0  0  0
   30.7242  -32.0417  -18.2151 C   0  0  0  0  0  0  0  0  0  0  0  0
   32.0632  -32.4218  -17.5520 C   0  0  0  0  0  0  0  0  0  0  0  0
   31.8334  -33.4878  -16.5024 C   0  0  0  0  0  0  0  0  0  0  0  0
   33.1339  -33.8537  -15.9720 N   0  0  0  0  0  0  0  0  0  0  0  0
   29.0887  -30.0784  -19.6198 C   0  0  0  0  0  0  0  0  0  0  0  0
   27.8872  -30.3612  -19.2839 O   0  0  0  0  0  0  0  0  0  0  0  0
   26.3715  -29.4510  -26.8506 C   0  0  0  0  0  0  0  0  0  0  0  0
   27.4481  -28.8702  -25.5365 S   0  0  0  0  0  0  0  0  0  0  0  0
   27.3104  -29.9607  -24.0883 C   0  0  0  0  0  0  0  0  0  0  0  0
   28.3500  -29.5421  -23.0466 C   0  0  0  0  0  0  0  0  0  0  0  0
   28.3452  -30.5649  -21.9258 C   0  0  2  0  0  0  0  0  0  0  0  0
   29.3925  -30.2323  -20.9820 N   0  0  0  0  0  0  0  0  0  0  0  0
   28.5538  -31.9276  -22.4235 C   0  0  0  0  0  0  0  0  0  0  0  0
   29.8207  -32.5223  -22.3713 O   0  0  0  0  0  0  0  0  0  0  0  0
   27.6039  -32.5815  -22.9032 O   0  0  0  0  0  0  0  0  0  0  0  0
  2  1  1  0
  3  2  1  0
  4  3  1  0
  4  5  1  0
  5  7  1  0
  5  6  1  1
  7  8  2  0
  9 10  1  0
  9  7  1  0
 10 11  1  1
 11 12  1  0
 12 13  1  0
 13 14  1  0
 14 15  1  0
 16 17  2  0
 16 10  1  0
 18 19  1  0
 19 20  1  0
 20 21  1  0
 22 21  1  6
 22 24  1  0
 22 23  1  0
 23 16  1  0
 24 25  1  0
 26 24  2  0
M  END
$$$$
