MKM.pdb
     RDKit          3D

 26 25  0  0  1  0  0  0  0  0999 V2000
   27.4477  -11.8850  -14.8727 C   0  0  0  0  0  0  0  0  0  0  0  0
   27.8019  -13.3624  -15.8593 S   0  0  0  0  0  0  0  0  0  0  0  0
   28.2957  -12.8944  -17.5664 C   0  0  0  0  0  0  0  0  0  0  0  0
   27.1401  -12.1526  -18.1506 C   0  0  0  0  0  0  0  0  0  0  0  0
   25.9035  -12.9467  -18.3938 C   0  0  2  0  0  0  0  0  0  0  0  0
   26.2551  -13.8759  -19.4948 N   0  0  0  0  0  0  0  0  0  0  0  0
   24.7270  -12.1964  -18.8422 C   0  0  0  0  0  0  0  0  0  0  0  0
   24.6399  -11.7917  -20.0581 O   0  0  0  0  0  0  0  0  0  0  0  0
   23.6005  -11.8418  -18.0529 N   0  0  0  0  0  0  0  0  0  0  0  0
   22.4348  -11.1718  -18.6130 C   0  0  1  0  0  0  0  0  0  0  0  0
   21.2623  -12.0195  -18.1058 C   0  0  0  0  0  0  0  0  0  0  0  0
   20.9770  -13.2323  -18.9030 C   0  0  0  0  0  0  0  0  0  0  0  0
   19.7118  -13.8612  -18.2857 C   0  0  0  0  0  0  0  0  0  0  0  0
   19.3554  -15.1323  -19.0259 C   0  0  0  0  0  0  0  0  0  0  0  0
   18.2155  -15.7187  -18.3453 N   0  0  0  0  0  0  0  0  0  0  0  0
   22.2876   -9.7771  -18.2124 C   0  0  0  0  0  0  0  0  0  0  0  0
   22.6572   -9.4636  -17.0285 O   0  0  0  0  0  0  0  0  0  0  0  0
   22.8531   -3.3635  -21.1389 C   0  0  0  0  0  0  0  0  0  0  0  0
   21.2858   -3.7950  -20.3769 S   0  0  0  0  0  0  0  0  0  0  0  0
   21.5539   -4.9815  -19.0257 C   0  0  0  0  0  0  0  0  0  0  0  0
   21.5169   -6.4020  -19.5930 C   0  0  0  0  0  0  0  0  0  0  0  0
   21.7391   -7.3797  -18.4540 C   0  0  2  0  0  0  0  0  0  0  0  0
   21.7796   -8.7245  -18.9906 N   0  0  0  0  0  0  0  0  0  0  0  0
   20.6842   -7.2921  -17.4402 C   0  0  0  0  0  0  0  0  0  0  0  0
   20.7796   -6.3752  -16.3858 O   0  0  0  0  0  0  0  0  0  0  0  0
   19.6818   -8.0348  -17.4999 O   0  0  0  0  0  0  0  0  0  0  0  0
  2  1  1  0
  3  2  1  0
  4  3  1  0
  4  5  1  0
  5  7  1  0
  5  6  1  6
  7  8  2  0
  9 10  1  0
  9  7  1  0
 10 11  1  1
 11 12  1  0
 12 13  1  0
 13 14  1  0
 14 15  1  0
 16 17  2  0
 16 10  1  0
 18 19  1  0
 19 20  1  0
 20 21  1  0
 22 21  1  6
 22 24  1  0
 22 23  1  0
 23 16  1  0
 24 25  1  0
 26 24  2  0
M  END
$$$$
