MKM.pdb
     RDKit          3D

 26 25  0  0  1  0  0  0  0  0999 V2000
   29.2922  -20.9004   -7.7577 C   0  0  0  0  0  0  0  0  0  0  0  0
   28.5110  -19.3547   -7.2267 S   0  0  0  0  0  0  0  0  0  0  0  0
   26.6945  -19.4247   -7.4963 C   0  0  0  0  0  0  0  0  0  0  0  0
   26.4908  -20.0715   -8.8257 C   0  0  0  0  0  0  0  0  0  0  0  0
   25.0781  -20.2294   -9.2712 C   0  0  2  0  0  0  0  0  0  0  0  0
   24.5256  -21.3091   -8.4177 N   0  0  0  0  0  0  0  0  0  0  0  0
   24.8781  -20.6532  -10.6599 C   0  0  0  0  0  0  0  0  0  0  0  0
   25.2142  -21.8355  -11.0325 O   0  0  0  0  0  0  0  0  0  0  0  0
   24.3220  -19.8734  -11.7088 N   0  0  0  0  0  0  0  0  0  0  0  0
   24.1095  -20.4048  -13.0482 C   0  0  1  0  0  0  0  0  0  0  0  0
   22.8627  -19.6553  -13.5321 C   0  0  0  0  0  0  0  0  0  0  0  0
   22.4132  -20.0056  -14.8970 C   0  0  0  0  0  0  0  0  0  0  0  0
   21.7540  -21.3950  -14.7860 C   0  0  0  0  0  0  0  0  0  0  0  0
   21.2791  -21.8497  -16.1493 C   0  0  0  0  0  0  0  0  0  0  0  0
   20.6724  -23.1569  -15.9772 N   0  0  0  0  0  0  0  0  0  0  0  0
   25.2292  -20.2084  -13.9621 C   0  0  0  0  0  0  0  0  0  0  0  0
   25.7878  -19.0576  -13.9682 O   0  0  0  0  0  0  0  0  0  0  0  0
   29.7819  -24.2415  -15.9627 C   0  0  0  0  0  0  0  0  0  0  0  0
   29.8184  -23.1037  -17.3509 S   0  0  0  0  0  0  0  0  0  0  0  0
   28.8203  -21.6306  -16.9777 C   0  0  0  0  0  0  0  0  0  0  0  0
   27.7229  -22.0097  -15.9812 C   0  0  0  0  0  0  0  0  0  0  0  0
   26.8668  -20.7842  -15.7209 C   0  0  2  0  0  0  0  0  0  0  0  0
   25.7714  -21.1533  -14.8478 N   0  0  0  0  0  0  0  0  0  0  0  0
   26.3302  -20.2145  -16.9602 C   0  0  0  0  0  0  0  0  0  0  0  0
   27.0375  -19.2284  -17.6593 O   0  0  0  0  0  0  0  0  0  0  0  0
   25.2319  -20.5996  -17.4136 O   0  0  0  0  0  0  0  0  0  0  0  0
  2  1  1  0
  3  2  1  0
  4  3  1  0
  4  5  1  0
  5  7  1  0
  5  6  1  1
  7  8  2  0
  9 10  1  0
  9  7  1  0
 10 11  1  6
 11 12  1  0
 12 13  1  0
 13 14  1  0
 14 15  1  0
 16 17  2  0
 16 10  1  0
 18 19  1  0
 19 20  1  0
 20 21  1  0
 22 21  1  6
 22 24  1  0
 22 23  1  0
 23 16  1  0
 24 25  1  0
 26 24  2  0
M  END
$$$$
