MKM.pdb
     RDKit          3D

 26 25  0  0  1  0  0  0  0  0999 V2000
   26.9371  -13.9134  -14.8557 C   0  0  0  0  0  0  0  0  0  0  0  0
   27.6232  -14.7785  -16.2918 S   0  0  0  0  0  0  0  0  0  0  0  0
   28.0977  -16.4964  -15.8433 C   0  0  0  0  0  0  0  0  0  0  0  0
   27.0390  -16.9979  -14.9188 C   0  0  0  0  0  0  0  0  0  0  0  0
   26.5753  -18.3952  -15.1455 C   0  0  2  0  0  0  0  0  0  0  0  0
   25.5613  -18.2924  -16.2228 N   0  0  0  0  0  0  0  0  0  0  0  0
   25.9151  -19.0524  -14.0139 C   0  0  0  0  0  0  0  0  0  0  0  0
   24.8670  -18.5333  -13.4832 O   0  0  0  0  0  0  0  0  0  0  0  0
   26.3116  -20.2679  -13.3950 N   0  0  0  0  0  0  0  0  0  0  0  0
   25.6197  -20.8156  -12.2362 C   0  0  1  0  0  0  0  0  0  0  0  0
   25.3889  -22.2812  -12.6225 C   0  0  0  0  0  0  0  0  0  0  0  0
   24.3405  -22.5011  -13.6424 C   0  0  0  0  0  0  0  0  0  0  0  0
   23.0175  -22.0351  -13.0022 C   0  0  0  0  0  0  0  0  0  0  0  0
   21.8667  -22.2985  -13.9492 C   0  0  0  0  0  0  0  0  0  0  0  0
   20.6795  -21.7138  -13.3532 N   0  0  0  0  0  0  0  0  0  0  0  0
   26.3606  -20.7120  -10.9841 C   0  0  0  0  0  0  0  0  0  0  0  0
   27.5107  -21.2700  -10.9338 O   0  0  0  0  0  0  0  0  0  0  0  0
   29.0947  -19.2081   -3.9987 C   0  0  0  0  0  0  0  0  0  0  0  0
   28.5693  -18.6376   -5.6179 S   0  0  0  0  0  0  0  0  0  0  0  0
   27.5168  -19.8905   -6.4104 C   0  0  0  0  0  0  0  0  0  0  0  0
   27.1557  -19.4204   -7.8210 C   0  0  0  0  0  0  0  0  0  0  0  0
   26.3995  -20.5350   -8.5196 C   0  0  2  0  0  0  0  0  0  0  0  0
   25.9488  -20.0591   -9.8113 N   0  0  0  0  0  0  0  0  0  0  0  0
   25.2454  -20.9901   -7.7391 C   0  0  0  0  0  0  0  0  0  0  0  0
   23.9532  -20.9401   -8.2770 O   0  0  0  0  0  0  0  0  0  0  0  0
   25.3955  -21.4304   -6.5800 O   0  0  0  0  0  0  0  0  0  0  0  0
  2  1  1  0
  3  2  1  0
  4  3  1  0
  4  5  1  0
  5  7  1  0
  5  6  1  6
  7  8  2  0
  9 10  1  0
  9  7  1  0
 10 11  1  6
 11 12  1  0
 12 13  1  0
 13 14  1  0
 14 15  1  0
 16 17  2  0
 16 10  1  0
 18 19  1  0
 19 20  1  0
 20 21  1  0
 22 21  1  1
 22 24  1  0
 22 23  1  0
 23 16  1  0
 24 25  1  0
 26 24  2  0
M  END
$$$$
