MKM.pdb
     RDKit          3D

 26 25  0  0  1  0  0  0  0  0999 V2000
   19.5080  -19.4705  -16.6803 C   0  0  0  0  0  0  0  0  0  0  0  0
   19.9806  -17.7638  -17.0618 S   0  0  0  0  0  0  0  0  0  0  0  0
   19.3391  -16.6152  -15.7786 C   0  0  0  0  0  0  0  0  0  0  0  0
   19.8094  -15.2516  -16.1612 C   0  0  0  0  0  0  0  0  0  0  0  0
   18.9956  -14.5379  -17.1847 C   0  0  2  0  0  0  0  0  0  0  0  0
   19.3697  -15.1636  -18.4761 N   0  0  0  0  0  0  0  0  0  0  0  0
   19.2480  -13.1015  -17.3296 C   0  0  0  0  0  0  0  0  0  0  0  0
   20.3259  -12.6851  -17.8904 O   0  0  0  0  0  0  0  0  0  0  0  0
   18.3959  -12.0475  -16.9044 N   0  0  0  0  0  0  0  0  0  0  0  0
   18.7664  -10.6446  -17.0321 C   0  0  1  0  0  0  0  0  0  0  0  0
   17.5085   -9.9030  -16.5650 C   0  0  0  0  0  0  0  0  0  0  0  0
   17.6393   -8.4312  -16.4980 C   0  0  0  0  0  0  0  0  0  0  0  0
   17.3040   -7.9081  -17.9091 C   0  0  0  0  0  0  0  0  0  0  0  0
   17.4425   -6.4013  -17.9457 C   0  0  0  0  0  0  0  0  0  0  0  0
   17.1028   -5.9729  -19.2902 N   0  0  0  0  0  0  0  0  0  0  0  0
   19.9309  -10.2521  -16.2464 C   0  0  0  0  0  0  0  0  0  0  0  0
   19.9763  -10.6410  -15.0285 O   0  0  0  0  0  0  0  0  0  0  0  0
   27.2338  -10.9551  -14.7975 C   0  0  0  0  0  0  0  0  0  0  0  0
   25.9273  -10.8955  -16.0275 S   0  0  0  0  0  0  0  0  0  0  0  0
   24.5154   -9.9417  -15.3933 C   0  0  0  0  0  0  0  0  0  0  0  0
   23.3387  -10.0876  -16.3603 C   0  0  0  0  0  0  0  0  0  0  0  0
   22.1670   -9.2933  -15.8139 C   0  0  2  0  0  0  0  0  0  0  0  0
   21.0236   -9.4855  -16.6820 N   0  0  0  0  0  0  0  0  0  0  0  0
   22.4695   -7.8624  -15.7176 C   0  0  0  0  0  0  0  0  0  0  0  0
   22.9497   -7.3114  -14.5228 O   0  0  0  0  0  0  0  0  0  0  0  0
   22.3036   -7.1100  -16.7005 O   0  0  0  0  0  0  0  0  0  0  0  0
  2  1  1  0
  3  2  1  0
  4  3  1  0
  4  5  1  0
  5  7  1  0
  5  6  1  6
  7  8  2  0
  9 10  1  0
  9  7  1  0
 10 11  1  1
 11 12  1  0
 12 13  1  0
 13 14  1  0
 14 15  1  0
 16 17  2  0
 16 10  1  0
 18 19  1  0
 19 20  1  0
 20 21  1  0
 22 21  1  6
 22 24  1  0
 22 23  1  0
 23 16  1  0
 24 25  1  0
 26 24  2  0
M  END
$$$$
