MKM.pdb
     RDKit          3D

 26 25  0  0  1  0  0  0  0  0999 V2000
   21.0373  -30.4700   -9.1709 C   0  0  0  0  0  0  0  0  0  0  0  0
   19.3035  -30.8320   -9.5508 S   0  0  0  0  0  0  0  0  0  0  0  0
   18.3401  -29.2751   -9.7108 C   0  0  0  0  0  0  0  0  0  0  0  0
   18.6784  -28.4460   -8.5170 C   0  0  0  0  0  0  0  0  0  0  0  0
   18.0612  -27.0915   -8.4602 C   0  0  2  0  0  0  0  0  0  0  0  0
   18.8819  -26.2579   -9.3717 N   0  0  0  0  0  0  0  0  0  0  0  0
   18.0792  -26.4234   -7.1558 C   0  0  0  0  0  0  0  0  0  0  0  0
   19.1417  -25.8299   -6.7452 O   0  0  0  0  0  0  0  0  0  0  0  0
   17.0017  -26.3422   -6.2339 N   0  0  0  0  0  0  0  0  0  0  0  0
   17.1056  -25.6195   -4.9736 C   0  0  1  0  0  0  0  0  0  0  0  0
   15.6668  -25.1607   -4.7095 C   0  0  0  0  0  0  0  0  0  0  0  0
   15.3802  -23.7577   -5.0798 C   0  0  0  0  0  0  0  0  0  0  0  0
   13.8895  -23.5277   -4.7603 C   0  0  0  0  0  0  0  0  0  0  0  0
   13.5129  -22.0940   -5.0661 C   0  0  0  0  0  0  0  0  0  0  0  0
   12.1192  -21.9293   -4.6959 N   0  0  0  0  0  0  0  0  0  0  0  0
   17.6174  -26.4125   -3.8615 C   0  0  0  0  0  0  0  0  0  0  0  0
   17.3208  -27.6567   -3.8415 O   0  0  0  0  0  0  0  0  0  0  0  0
   20.8212  -25.8098    2.8853 C   0  0  0  0  0  0  0  0  0  0  0  0
   21.4941  -26.3012    1.2951 S   0  0  0  0  0  0  0  0  0  0  0  0
   20.2025  -27.0889    0.2867 C   0  0  0  0  0  0  0  0  0  0  0  0
   19.9523  -26.2372   -0.9595 C   0  0  0  0  0  0  0  0  0  0  0  0
   18.8413  -26.8824   -1.7667 C   0  0  2  0  0  0  0  0  0  0  0  0
   18.4107  -25.9584   -2.7958 N   0  0  0  0  0  0  0  0  0  0  0  0
   17.6944  -27.2479   -0.9304 C   0  0  0  0  0  0  0  0  0  0  0  0
   17.6227  -28.5092   -0.3259 O   0  0  0  0  0  0  0  0  0  0  0  0
   16.7610  -26.4394   -0.7431 O   0  0  0  0  0  0  0  0  0  0  0  0
  2  1  1  0
  3  2  1  0
  4  3  1  0
  4  5  1  0
  5  7  1  0
  5  6  1  6
  7  8  2  0
  9 10  1  0
  9  7  1  0
 10 11  1  1
 11 12  1  0
 12 13  1  0
 13 14  1  0
 14 15  1  0
 16 17  2  0
 16 10  1  0
 18 19  1  0
 19 20  1  0
 20 21  1  0
 22 21  1  1
 22 24  1  0
 22 23  1  0
 23 16  1  0
 24 25  1  0
 26 24  2  0
M  END
$$$$
