MKM.pdb
     RDKit          3D

 26 25  0  0  1  0  0  0  0  0999 V2000
   27.9478  -12.1371  -14.8898 C   0  0  0  0  0  0  0  0  0  0  0  0
   27.0838  -13.6268  -15.4517 S   0  0  0  0  0  0  0  0  0  0  0  0
   26.9361  -13.6339  -17.2835 C   0  0  0  0  0  0  0  0  0  0  0  0
   25.8747  -12.6417  -17.6242 C   0  0  0  0  0  0  0  0  0  0  0  0
   24.4948  -12.9724  -17.1709 C   0  0  2  0  0  0  0  0  0  0  0  0
   24.0670  -14.0987  -18.0355 N   0  0  0  0  0  0  0  0  0  0  0  0
   23.4883  -11.9191  -17.3313 C   0  0  0  0  0  0  0  0  0  0  0  0
   23.1952  -11.4739  -18.4998 O   0  0  0  0  0  0  0  0  0  0  0  0
   22.7486  -11.2931  -16.2927 N   0  0  0  0  0  0  0  0  0  0  0  0
   21.8312  -10.1899  -16.5436 C   0  0  1  0  0  0  0  0  0  0  0  0
   20.5365  -10.6443  -15.8597 C   0  0  0  0  0  0  0  0  0  0  0  0
   19.3984   -9.7089  -15.9915 C   0  0  0  0  0  0  0  0  0  0  0  0
   18.2378  -10.3330  -15.1911 C   0  0  0  0  0  0  0  0  0  0  0  0
   17.0187   -9.4396  -15.2710 C   0  0  0  0  0  0  0  0  0  0  0  0
   15.9338  -10.1352  -14.6035 N   0  0  0  0  0  0  0  0  0  0  0  0
   22.2768   -8.9020  -16.0237 C   0  0  0  0  0  0  0  0  0  0  0  0
   22.7647   -8.8826  -14.8413 O   0  0  0  0  0  0  0  0  0  0  0  0
   24.3115   -1.3338  -16.7973 C   0  0  0  0  0  0  0  0  0  0  0  0
   23.5744   -2.7775  -17.5692 S   0  0  0  0  0  0  0  0  0  0  0  0
   23.3885   -4.1120  -16.3485 C   0  0  0  0  0  0  0  0  0  0  0  0
   22.8311   -5.3541  -17.0467 C   0  0  0  0  0  0  0  0  0  0  0  0
   22.7261   -6.4720  -16.0261 C   0  0  2  0  0  0  0  0  0  0  0  0
   22.2308   -7.6637  -16.6839 N   0  0  0  0  0  0  0  0  0  0  0  0
   21.8341   -6.1224  -14.9169 C   0  0  0  0  0  0  0  0  0  0  0  0
   20.4524   -6.3279  -15.0178 O   0  0  0  0  0  0  0  0  0  0  0  0
   22.2921   -5.6346  -13.8622 O   0  0  0  0  0  0  0  0  0  0  0  0
  2  1  1  0
  3  2  1  0
  4  3  1  0
  4  5  1  0
  5  7  1  0
  5  6  1  6
  7  8  2  0
  9 10  1  0
  9  7  1  0
 10 11  1  1
 11 12  1  0
 12 13  1  0
 13 14  1  0
 14 15  1  0
 16 17  2  0
 16 10  1  0
 18 19  1  0
 19 20  1  0
 20 21  1  0
 22 21  1  6
 22 24  1  0
 22 23  1  0
 23 16  1  0
 24 25  1  0
 26 24  2  0
M  END
$$$$
