IVI.pdb
     RDKit          3D

 24 23  0  0  1  0  0  0  0  0999 V2000
    8.1425  -12.5297   18.3511 C   0  0  0  0  0  0  0  0  0  0  0  0
    7.9899  -14.0203   18.6373 C   0  0  0  0  0  0  0  0  0  0  0  0
    7.4827  -14.2800   20.0100 C   0  0  2  0  0  0  0  0  0  0  0  0
    8.3784  -13.7141   21.0911 C   0  0  0  0  0  0  0  0  0  0  0  0
    7.2913  -15.7508   20.2407 C   0  0  2  0  0  0  0  0  0  0  0  0
    6.3074  -16.2958   19.3014 N   0  0  0  0  0  0  0  0  0  0  0  0
    7.0076  -16.1363   21.6144 C   0  0  0  0  0  0  0  0  0  0  0  0
    5.8923  -15.8924   22.1246 O   0  0  0  0  0  0  0  0  0  0  0  0
    7.6525  -18.7338   25.6937 C   0  0  0  0  0  0  0  0  0  0  0  0
    7.7834  -18.5106   24.2243 C   0  0  1  0  0  0  0  0  0  0  0  0
    6.8489  -19.3539   23.4043 C   0  0  0  0  0  0  0  0  0  0  0  0
    7.6570  -17.0273   23.8610 C   0  0  2  0  0  0  0  0  0  0  0  0
    7.9435  -16.8027   22.4695 N   0  0  0  0  0  0  0  0  0  0  0  0
    8.5694  -16.2071   24.7005 C   0  0  0  0  0  0  0  0  0  0  0  0
    9.8145  -16.1250   24.4385 O   0  0  0  0  0  0  0  0  0  0  0  0
    6.1116  -12.0567   26.9272 C   0  0  0  0  0  0  0  0  0  0  0  0
    7.1531  -12.9357   26.3095 C   0  0  0  0  0  0  0  0  0  0  0  0
    8.0195  -13.6355   27.3347 C   0  0  2  0  0  0  0  0  0  0  0  0
    8.8202  -12.6151   28.1097 C   0  0  0  0  0  0  0  0  0  0  0  0
    8.9521  -14.6346   26.6364 C   0  0  2  0  0  0  0  0  0  0  0  0
    8.1110  -15.4856   25.8174 N   0  0  0  0  0  0  0  0  0  0  0  0
    9.6032  -15.4101   27.7320 C   0  0  0  0  0  0  0  0  0  0  0  0
    8.9611  -16.4739   28.3085 O   0  0  0  0  0  0  0  0  0  0  0  0
   10.7515  -15.0994   28.1437 O   0  0  0  0  0  0  0  0  0  0  0  0
  2  3  1  0
  2  1  1  0
  3  4  1  1
  5  3  1  0
  5  6  1  6
  5  7  1  0
  7  8  2  0
 10 11  1  6
 10 12  1  0
 10  9  1  0
 13  7  1  0
 12 13  1  6
 14 12  1  0
 14 15  2  0
 17 18  1  0
 17 16  1  0
 18 20  1  0
 18 19  1  6
 20 22  1  0
 20 21  1  6
 21 14  1  0
 22 23  1  0
 24 22  2  0
M  END
$$$$
