IVI.pdb
     RDKit          3D

 24 23  0  0  1  0  0  0  0  0999 V2000
    7.1062  -20.4248   28.1144 C   0  0  0  0  0  0  0  0  0  0  0  0
    6.7963  -20.4483   26.6210 C   0  0  0  0  0  0  0  0  0  0  0  0
    7.4605  -19.3366   25.8917 C   0  0  2  0  0  0  0  0  0  0  0  0
    7.2220  -17.9833   26.5265 C   0  0  0  0  0  0  0  0  0  0  0  0
    7.0201  -19.2987   24.4572 C   0  0  2  0  0  0  0  0  0  0  0  0
    7.1509  -20.6228   23.8430 N   0  0  0  0  0  0  0  0  0  0  0  0
    7.6274  -18.2564   23.6441 C   0  0  0  0  0  0  0  0  0  0  0  0
    8.7691  -18.4142   23.1593 O   0  0  0  0  0  0  0  0  0  0  0  0
    7.2650  -14.0764   20.9942 C   0  0  0  0  0  0  0  0  0  0  0  0
    6.6535  -15.2784   21.6322 C   0  0  1  0  0  0  0  0  0  0  0  0
    6.0094  -16.2157   20.6507 C   0  0  0  0  0  0  0  0  0  0  0  0
    7.6522  -16.0152   22.5310 C   0  0  2  0  0  0  0  0  0  0  0  0
    6.9961  -17.0075   23.3395 N   0  0  0  0  0  0  0  0  0  0  0  0
    8.3738  -15.0526   23.4043 C   0  0  0  0  0  0  0  0  0  0  0  0
    8.8865  -13.9856   22.9306 O   0  0  0  0  0  0  0  0  0  0  0  0
    6.9337  -11.1934   27.0032 C   0  0  0  0  0  0  0  0  0  0  0  0
    8.0507  -12.1749   26.8361 C   0  0  0  0  0  0  0  0  0  0  0  0
    7.7322  -13.2686   25.8392 C   0  0  2  0  0  0  0  0  0  0  0  0
    6.4843  -14.0043   26.2686 C   0  0  0  0  0  0  0  0  0  0  0  0
    8.9177  -14.2371   25.7294 C   0  0  2  0  0  0  0  0  0  0  0  0
    8.5271  -15.2666   24.7859 N   0  0  0  0  0  0  0  0  0  0  0  0
    9.1048  -14.8002   27.0982 C   0  0  0  0  0  0  0  0  0  0  0  0
    8.8256  -16.1167   27.3535 O   0  0  0  0  0  0  0  0  0  0  0  0
    9.5217  -14.0752   28.0392 O   0  0  0  0  0  0  0  0  0  0  0  0
  2  3  1  0
  2  1  1  0
  3  4  1  1
  5  3  1  0
  5  6  1  6
  5  7  1  0
  7  8  2  0
 10 11  1  6
 10 12  1  0
 10  9  1  0
 13  7  1  0
 12 13  1  1
 14 12  1  0
 14 15  2  0
 17 18  1  0
 17 16  1  0
 18 20  1  0
 18 19  1  1
 20 22  1  0
 20 21  1  6
 21 14  1  0
 22 23  1  0
 24 22  2  0
M  END
$$$$
