IVI.pdb
     RDKit          3D

 24 23  0  0  1  0  0  0  0  0999 V2000
    6.9254  -20.8131   27.4184 C   0  0  0  0  0  0  0  0  0  0  0  0
    6.6604  -20.6024   25.9311 C   0  0  0  0  0  0  0  0  0  0  0  0
    7.3286  -19.3820   25.4085 C   0  0  2  0  0  0  0  0  0  0  0  0
    6.9624  -18.1295   26.1755 C   0  0  0  0  0  0  0  0  0  0  0  0
    7.0190  -19.1836   23.9532 C   0  0  2  0  0  0  0  0  0  0  0  0
    7.1749  -20.4411   23.2172 N   0  0  0  0  0  0  0  0  0  0  0  0
    7.7195  -18.0830   23.3095 C   0  0  0  0  0  0  0  0  0  0  0  0
    8.9141  -18.2077   22.9621 O   0  0  0  0  0  0  0  0  0  0  0  0
    7.7111  -13.5224   21.2942 C   0  0  0  0  0  0  0  0  0  0  0  0
    6.9859  -14.7708   21.6708 C   0  0  1  0  0  0  0  0  0  0  0  0
    6.3166  -15.4488   20.5093 C   0  0  0  0  0  0  0  0  0  0  0  0
    7.8884  -15.7434   22.4373 C   0  0  2  0  0  0  0  0  0  0  0  0
    7.1259  -16.8102   23.0283 N   0  0  0  0  0  0  0  0  0  0  0  0
    8.6486  -15.0245   23.4933 C   0  0  0  0  0  0  0  0  0  0  0  0
    9.5714  -14.1963   23.1963 O   0  0  0  0  0  0  0  0  0  0  0  0
    6.2212  -11.9405   26.1927 C   0  0  0  0  0  0  0  0  0  0  0  0
    7.3377  -12.7455   25.6060 C   0  0  0  0  0  0  0  0  0  0  0  0
    8.0206  -13.6367   26.6213 C   0  0  2  0  0  0  0  0  0  0  0  0
    8.6584  -12.7900   27.6980 C   0  0  0  0  0  0  0  0  0  0  0  0
    9.0753  -14.5085   25.9262 C   0  0  2  0  0  0  0  0  0  0  0  0
    8.3919  -15.2185   24.8625 N   0  0  0  0  0  0  0  0  0  0  0  0
    9.5725  -15.4487   26.9723 C   0  0  0  0  0  0  0  0  0  0  0  0
    9.1769  -16.7601   26.9744 O   0  0  0  0  0  0  0  0  0  0  0  0
   10.3626  -15.0522   27.8686 O   0  0  0  0  0  0  0  0  0  0  0  0
  2  3  1  0
  2  1  1  0
  3  4  1  1
  5  3  1  0
  5  6  1  6
  5  7  1  0
  7  8  2  0
 10 11  1  6
 10 12  1  0
 10  9  1  0
 13  7  1  0
 12 13  1  1
 14 12  1  0
 14 15  2  0
 17 18  1  0
 17 16  1  0
 18 20  1  0
 18 19  1  1
 20 22  1  0
 20 21  1  6
 21 14  1  0
 22 23  1  0
 24 22  2  0
M  END
$$$$
