IVI.pdb
     RDKit          3D

 24 23  0  0  1  0  0  0  0  0999 V2000
    5.7567  -10.2761   26.8783 C   0  0  0  0  0  0  0  0  0  0  0  0
    5.2810  -11.5848   26.2555 C   0  0  0  0  0  0  0  0  0  0  0  0
    6.3955  -12.5457   26.0471 C   0  0  2  0  0  0  0  0  0  0  0  0
    7.5202  -11.9781   25.2079 C   0  0  0  0  0  0  0  0  0  0  0  0
    5.8976  -13.8153   25.4198 C   0  0  2  0  0  0  0  0  0  0  0  0
    4.8794  -14.4432   26.2662 N   0  0  0  0  0  0  0  0  0  0  0  0
    6.9283  -14.7581   25.0138 C   0  0  0  0  0  0  0  0  0  0  0  0
    7.3450  -15.6255   25.8122 O   0  0  0  0  0  0  0  0  0  0  0  0
    9.8716  -16.7280   21.4904 C   0  0  0  0  0  0  0  0  0  0  0  0
    8.8669  -15.6931   21.8718 C   0  0  1  0  0  0  0  0  0  0  0  0
    7.6271  -15.7201   21.0239 C   0  0  0  0  0  0  0  0  0  0  0  0
    8.5215  -15.7583   23.3633 C   0  0  2  0  0  0  0  0  0  0  0  0
    7.5326  -14.7750   23.7154 N   0  0  0  0  0  0  0  0  0  0  0  0
    9.7422  -15.5609   24.1885 C   0  0  0  0  0  0  0  0  0  0  0  0
   10.5356  -14.5863   23.9732 O   0  0  0  0  0  0  0  0  0  0  0  0
   10.3137  -13.8564   28.6707 C   0  0  0  0  0  0  0  0  0  0  0  0
   10.5939  -14.4324   27.3185 C   0  0  0  0  0  0  0  0  0  0  0  0
   11.0251  -15.8825   27.3716 C   0  0  2  0  0  0  0  0  0  0  0  0
   12.2332  -16.0242   28.2680 C   0  0  0  0  0  0  0  0  0  0  0  0
   11.3421  -16.3857   25.9568 C   0  0  2  0  0  0  0  0  0  0  0  0
   10.0825  -16.4308   25.2399 N   0  0  0  0  0  0  0  0  0  0  0  0
   11.9128  -17.7526   26.1349 C   0  0  0  0  0  0  0  0  0  0  0  0
   11.0905  -18.8298   26.3342 O   0  0  0  0  0  0  0  0  0  0  0  0
   13.1577  -17.9374   26.1049 O   0  0  0  0  0  0  0  0  0  0  0  0
  2  3  1  0
  2  1  1  0
  3  4  1  6
  5  3  1  0
  5  6  1  1
  5  7  1  0
  7  8  2  0
 10 11  1  6
 10 12  1  0
 10  9  1  0
 13  7  1  0
 12 13  1  1
 14 12  1  0
 14 15  2  0
 17 18  1  0
 17 16  1  0
 18 20  1  0
 18 19  1  1
 20 22  1  0
 20 21  1  6
 21 14  1  0
 22 23  1  0
 24 22  2  0
M  END
$$$$
