IVI.pdb
     RDKit          3D

 24 23  0  0  1  0  0  0  0  0999 V2000
    8.0328  -12.1681   18.8039 C   0  0  0  0  0  0  0  0  0  0  0  0
    7.8846  -13.6753   18.9866 C   0  0  0  0  0  0  0  0  0  0  0  0
    7.4081  -14.0321   20.3484 C   0  0  2  0  0  0  0  0  0  0  0  0
    8.2921  -13.4859   21.4492 C   0  0  0  0  0  0  0  0  0  0  0  0
    7.2858  -15.5205   20.5000 C   0  0  2  0  0  0  0  0  0  0  0  0
    6.3503  -16.0638   19.5115 N   0  0  0  0  0  0  0  0  0  0  0  0
    6.9932  -15.9899   21.8454 C   0  0  0  0  0  0  0  0  0  0  0  0
    5.9038  -15.7107   22.3920 O   0  0  0  0  0  0  0  0  0  0  0  0
    7.5559  -18.8400   25.7736 C   0  0  0  0  0  0  0  0  0  0  0  0
    7.7160  -18.5555   24.3178 C   0  0  1  0  0  0  0  0  0  0  0  0
    6.7763  -19.3398   23.4468 C   0  0  0  0  0  0  0  0  0  0  0  0
    7.6294  -17.0551   24.0187 C   0  0  2  0  0  0  0  0  0  0  0  0
    7.8915  -16.7816   22.6312 N   0  0  0  0  0  0  0  0  0  0  0  0
    8.5864  -16.2996   24.8692 C   0  0  0  0  0  0  0  0  0  0  0  0
    9.8108  -16.1741   24.5362 O   0  0  0  0  0  0  0  0  0  0  0  0
    6.3164  -12.2050   27.2856 C   0  0  0  0  0  0  0  0  0  0  0  0
    7.3143  -13.1082   26.6320 C   0  0  0  0  0  0  0  0  0  0  0  0
    8.1655  -13.8672   27.6274 C   0  0  2  0  0  0  0  0  0  0  0  0
    8.9975  -12.8970   28.4333 C   0  0  0  0  0  0  0  0  0  0  0  0
    9.0670  -14.8664   26.8895 C   0  0  2  0  0  0  0  0  0  0  0  0
    8.1949  -15.6895   26.0744 N   0  0  0  0  0  0  0  0  0  0  0  0
    9.7310  -15.6717   27.9555 C   0  0  0  0  0  0  0  0  0  0  0  0
    9.1243  -16.7903   28.4626 O   0  0  0  0  0  0  0  0  0  0  0  0
   10.8579  -15.3365   28.4053 O   0  0  0  0  0  0  0  0  0  0  0  0
  2  3  1  0
  2  1  1  0
  3  4  1  1
  5  3  1  0
  5  6  1  6
  5  7  1  0
  7  8  2  0
 10 11  1  6
 10 12  1  0
 10  9  1  0
 13  7  1  0
 12 13  1  6
 14 12  1  0
 14 15  2  0
 17 18  1  0
 17 16  1  0
 18 20  1  0
 18 19  1  6
 20 22  1  0
 20 21  1  6
 21 14  1  0
 22 23  1  0
 24 22  2  0
M  END
$$$$
