IVI.pdb
     RDKit          3D

 24 23  0  0  1  0  0  0  0  0999 V2000
    6.5623  -22.2484   24.8501 C   0  0  0  0  0  0  0  0  0  0  0  0
    7.2217  -21.5318   23.6761 C   0  0  0  0  0  0  0  0  0  0  0  0
    7.5747  -20.1255   24.0026 C   0  0  2  0  0  0  0  0  0  0  0  0
    6.3954  -19.3170   24.4994 C   0  0  0  0  0  0  0  0  0  0  0  0
    8.1862  -19.4378   22.8167 C   0  0  2  0  0  0  0  0  0  0  0  0
    9.3257  -20.2054   22.3070 N   0  0  0  0  0  0  0  0  0  0  0  0
    8.5149  -18.0338   23.0091 C   0  0  0  0  0  0  0  0  0  0  0  0
    9.5590  -17.7035   23.6127 O   0  0  0  0  0  0  0  0  0  0  0  0
    7.7398  -13.2128   22.0772 C   0  0  0  0  0  0  0  0  0  0  0  0
    7.6081  -14.6488   21.6943 C   0  0  1  0  0  0  0  0  0  0  0  0
    8.3014  -14.9918   20.4065 C   0  0  0  0  0  0  0  0  0  0  0  0
    8.0472  -15.5821   22.8275 C   0  0  2  0  0  0  0  0  0  0  0  0
    7.7038  -16.9494   22.5427 N   0  0  0  0  0  0  0  0  0  0  0  0
    7.4274  -15.1659   24.1131 C   0  0  0  0  0  0  0  0  0  0  0  0
    6.1852  -15.3453   24.3372 O   0  0  0  0  0  0  0  0  0  0  0  0
   10.9081  -14.2830   28.4261 C   0  0  0  0  0  0  0  0  0  0  0  0
    9.7446  -14.7428   27.6054 C   0  0  0  0  0  0  0  0  0  0  0  0
    8.7883  -13.6225   27.2560 C   0  0  2  0  0  0  0  0  0  0  0  0
    8.2782  -12.9725   28.5210 C   0  0  0  0  0  0  0  0  0  0  0  0
    7.6213  -14.1718   26.4242 C   0  0  2  0  0  0  0  0  0  0  0  0
    8.1722  -14.5581   25.1397 N   0  0  0  0  0  0  0  0  0  0  0  0
    6.6606  -13.0392   26.2827 C   0  0  0  0  0  0  0  0  0  0  0  0
    5.4955  -13.0205   27.0029 O   0  0  0  0  0  0  0  0  0  0  0  0
    6.9051  -12.0839   25.5002 O   0  0  0  0  0  0  0  0  0  0  0  0
  2  3  1  0
  2  1  1  0
  3  4  1  6
  5  3  1  0
  5  6  1  1
  5  7  1  0
  7  8  2  0
 10 11  1  6
 10 12  1  0
 10  9  1  0
 13  7  1  0
 12 13  1  6
 14 12  1  0
 14 15  2  0
 17 18  1  0
 17 16  1  0
 18 20  1  0
 18 19  1  1
 20 22  1  0
 20 21  1  6
 21 14  1  0
 22 23  1  0
 24 22  2  0
M  END
$$$$
