IVI.pdb
     RDKit          3D

 24 23  0  0  1  0  0  0  0  0999 V2000
    8.0308  -12.1428   18.1444 C   0  0  0  0  0  0  0  0  0  0  0  0
    8.1894  -13.6415   18.3801 C   0  0  0  0  0  0  0  0  0  0  0  0
    7.5402  -14.0838   19.6418 C   0  0  2  0  0  0  0  0  0  0  0  0
    8.0398  -13.3375   20.8603 C   0  0  0  0  0  0  0  0  0  0  0  0
    7.7250  -15.5588   19.8505 C   0  0  2  0  0  0  0  0  0  0  0  0
    7.0980  -16.3154   18.7633 N   0  0  0  0  0  0  0  0  0  0  0  0
    7.3353  -16.0585   21.1599 C   0  0  0  0  0  0  0  0  0  0  0  0
    6.1333  -16.0651   21.5047 O   0  0  0  0  0  0  0  0  0  0  0  0
    7.7813  -18.6685   25.2220 C   0  0  0  0  0  0  0  0  0  0  0  0
    8.0286  -18.3679   23.7816 C   0  0  1  0  0  0  0  0  0  0  0  0
    7.2303  -19.2284   22.8441 C   0  0  0  0  0  0  0  0  0  0  0  0
    7.8363  -16.8800   23.4701 C   0  0  2  0  0  0  0  0  0  0  0  0
    8.2573  -16.5666   22.1309 N   0  0  0  0  0  0  0  0  0  0  0  0
    8.5892  -16.0441   24.4419 C   0  0  0  0  0  0  0  0  0  0  0  0
    9.8639  -16.0138   24.4401 O   0  0  0  0  0  0  0  0  0  0  0  0
    5.9686  -11.7223   26.3029 C   0  0  0  0  0  0  0  0  0  0  0  0
    7.0487  -12.6566   25.8566 C   0  0  0  0  0  0  0  0  0  0  0  0
    7.6201  -13.4833   26.9886 C   0  0  2  0  0  0  0  0  0  0  0  0
    8.2802  -12.5766   28.0012 C   0  0  0  0  0  0  0  0  0  0  0  0
    8.6294  -14.4990   26.4364 C   0  0  2  0  0  0  0  0  0  0  0  0
    7.9408  -15.2504   25.4050 N   0  0  0  0  0  0  0  0  0  0  0  0
    8.9934  -15.3719   27.5903 C   0  0  0  0  0  0  0  0  0  0  0  0
    8.1408  -16.3565   28.0145 O   0  0  0  0  0  0  0  0  0  0  0  0
   10.0886  -15.2176   28.1916 O   0  0  0  0  0  0  0  0  0  0  0  0
  2  3  1  0
  2  1  1  0
  3  4  1  1
  5  3  1  0
  5  6  1  6
  5  7  1  0
  7  8  2  0
 10 11  1  6
 10 12  1  0
 10  9  1  0
 13  7  1  0
 12 13  1  6
 14 12  1  0
 14 15  2  0
 17 18  1  0
 17 16  1  0
 18 20  1  0
 18 19  1  1
 20 22  1  0
 20 21  1  6
 21 14  1  0
 22 23  1  0
 24 22  2  0
M  END
$$$$
