IVI.pdb
     RDKit          3D

 24 23  0  0  1  0  0  0  0  0999 V2000
    8.7797  -21.7442   22.3585 C   0  0  0  0  0  0  0  0  0  0  0  0
    9.3531  -20.6310   21.4874 C   0  0  0  0  0  0  0  0  0  0  0  0
    9.3289  -19.3123   22.1726 C   0  0  2  0  0  0  0  0  0  0  0  0
    7.9770  -18.9750   22.7642 C   0  0  0  0  0  0  0  0  0  0  0  0
    9.7518  -18.2158   21.2388 C   0  0  2  0  0  0  0  0  0  0  0  0
   11.0975  -18.4725   20.7188 N   0  0  0  0  0  0  0  0  0  0  0  0
    9.6154  -16.8642   21.7593 C   0  0  0  0  0  0  0  0  0  0  0  0
   10.5104  -16.3675   22.4775 O   0  0  0  0  0  0  0  0  0  0  0  0
    7.2649  -12.4814   21.8987 C   0  0  0  0  0  0  0  0  0  0  0  0
    7.6308  -13.7404   21.1865 C   0  0  1  0  0  0  0  0  0  0  0  0
    8.3777  -13.5082   19.9040 C   0  0  0  0  0  0  0  0  0  0  0  0
    8.3846  -14.7122   22.1005 C   0  0  2  0  0  0  0  0  0  0  0  0
    8.4888  -16.0172   21.5050 N   0  0  0  0  0  0  0  0  0  0  0  0
    7.7083  -14.8148   23.4204 C   0  0  0  0  0  0  0  0  0  0  0  0
    6.5976  -15.4276   23.5486 O   0  0  0  0  0  0  0  0  0  0  0  0
   10.7498  -14.2627   28.0257 C   0  0  0  0  0  0  0  0  0  0  0  0
    9.6615  -14.7292   27.1109 C   0  0  0  0  0  0  0  0  0  0  0  0
    8.5878  -13.6855   26.8894 C   0  0  2  0  0  0  0  0  0  0  0  0
    7.9068  -13.3662   28.1999 C   0  0  0  0  0  0  0  0  0  0  0  0
    7.5675  -14.1949   25.8623 C   0  0  2  0  0  0  0  0  0  0  0  0
    8.2533  -14.2466   24.5858 N   0  0  0  0  0  0  0  0  0  0  0  0
    6.4720  -13.1823   25.8476 C   0  0  0  0  0  0  0  0  0  0  0  0
    6.5962  -12.0330   25.1127 O   0  0  0  0  0  0  0  0  0  0  0  0
    5.4175  -13.3677   26.5097 O   0  0  0  0  0  0  0  0  0  0  0  0
  2  3  1  0
  2  1  1  0
  3  4  1  6
  5  3  1  0
  5  6  1  1
  5  7  1  0
  7  8  2  0
 10 11  1  6
 10 12  1  0
 10  9  1  0
 13  7  1  0
 12 13  1  6
 14 12  1  0
 14 15  2  0
 17 18  1  0
 17 16  1  0
 18 20  1  0
 18 19  1  1
 20 22  1  0
 20 21  1  6
 21 14  1  0
 22 23  1  0
 24 22  2  0
M  END
$$$$
