IVI.pdb
     RDKit          3D

 24 23  0  0  1  0  0  0  0  0999 V2000
    7.1759  -20.5718   28.4137 C   0  0  0  0  0  0  0  0  0  0  0  0
    6.8435  -20.5250   26.9256 C   0  0  0  0  0  0  0  0  0  0  0  0
    7.5286  -19.4033   26.2318 C   0  0  2  0  0  0  0  0  0  0  0  0
    7.3432  -18.0721   26.9281 C   0  0  0  0  0  0  0  0  0  0  0  0
    7.0640  -19.2903   24.8089 C   0  0  2  0  0  0  0  0  0  0  0  0
    7.1398  -20.5906   24.1374 N   0  0  0  0  0  0  0  0  0  0  0  0
    7.6910  -18.2347   24.0286 C   0  0  0  0  0  0  0  0  0  0  0  0
    8.8460  -18.3830   23.5730 O   0  0  0  0  0  0  0  0  0  0  0  0
    7.4709  -13.8648   21.6611 C   0  0  0  0  0  0  0  0  0  0  0  0
    6.8226  -15.1162   22.1507 C   0  0  1  0  0  0  0  0  0  0  0  0
    6.2247  -15.9504   21.0537 C   0  0  0  0  0  0  0  0  0  0  0  0
    7.7713  -15.9440   23.0240 C   0  0  2  0  0  0  0  0  0  0  0  0
    7.0655  -16.9825   23.7255 N   0  0  0  0  0  0  0  0  0  0  0  0
    8.4768  -15.0700   23.9979 C   0  0  0  0  0  0  0  0  0  0  0  0
    8.9409  -13.9340   23.6518 O   0  0  0  0  0  0  0  0  0  0  0  0
    6.1053  -12.2819   26.4167 C   0  0  0  0  0  0  0  0  0  0  0  0
    7.3052  -13.0132   25.9024 C   0  0  0  0  0  0  0  0  0  0  0  0
    8.0057  -13.8246   26.9712 C   0  0  2  0  0  0  0  0  0  0  0  0
    8.4605  -12.9145   28.0883 C   0  0  0  0  0  0  0  0  0  0  0  0
    9.2016  -14.5693   26.3624 C   0  0  2  0  0  0  0  0  0  0  0  0
    8.6674  -15.4471   25.3393 N   0  0  0  0  0  0  0  0  0  0  0  0
    9.8033  -15.3481   27.4837 C   0  0  0  0  0  0  0  0  0  0  0  0
   10.8424  -14.8312   28.2113 O   0  0  0  0  0  0  0  0  0  0  0  0
    9.3660  -16.4911   27.7787 O   0  0  0  0  0  0  0  0  0  0  0  0
  2  3  1  0
  2  1  1  0
  3  4  1  1
  5  3  1  0
  5  6  1  6
  5  7  1  0
  7  8  2  0
 10 11  1  6
 10 12  1  0
 10  9  1  0
 13  7  1  0
 12 13  1  1
 14 12  1  0
 14 15  2  0
 17 18  1  0
 17 16  1  0
 18 20  1  0
 18 19  1  1
 20 22  1  0
 20 21  1  6
 21 14  1  0
 22 23  1  0
 24 22  2  0
M  END
$$$$
