IVI.pdb
     RDKit          3D

 24 23  0  0  1  0  0  0  0  0999 V2000
   10.2784  -17.2654   17.4376 C   0  0  0  0  0  0  0  0  0  0  0  0
    9.3786  -18.1828   18.2596 C   0  0  0  0  0  0  0  0  0  0  0  0
    8.7573  -17.4767   19.4104 C   0  0  2  0  0  0  0  0  0  0  0  0
    9.7666  -16.7658   20.2864 C   0  0  0  0  0  0  0  0  0  0  0  0
    7.9507  -18.4254   20.2486 C   0  0  2  0  0  0  0  0  0  0  0  0
    6.8604  -19.0084   19.4620 N   0  0  0  0  0  0  0  0  0  0  0  0
    7.4844  -17.8945   21.5202 C   0  0  0  0  0  0  0  0  0  0  0  0
    6.5102  -17.1118   21.5620 O   0  0  0  0  0  0  0  0  0  0  0  0
    6.9197  -18.3556   26.3676 C   0  0  0  0  0  0  0  0  0  0  0  0
    7.2979  -18.8670   25.0180 C   0  0  1  0  0  0  0  0  0  0  0  0
    6.3452  -19.8952   24.4779 C   0  0  0  0  0  0  0  0  0  0  0  0
    7.5109  -17.7265   24.0169 C   0  0  2  0  0  0  0  0  0  0  0  0
    8.0765  -18.2092   22.7857 N   0  0  0  0  0  0  0  0  0  0  0  0
    8.3933  -16.6816   24.5995 C   0  0  0  0  0  0  0  0  0  0  0  0
    9.6457  -16.8759   24.7389 O   0  0  0  0  0  0  0  0  0  0  0  0
    5.9502  -11.8469   26.4699 C   0  0  0  0  0  0  0  0  0  0  0  0
    6.6771  -13.1541   26.4267 C   0  0  0  0  0  0  0  0  0  0  0  0
    7.9290  -13.1063   25.5770 C   0  0  2  0  0  0  0  0  0  0  0  0
    7.5594  -12.8386   24.1366 C   0  0  0  0  0  0  0  0  0  0  0  0
    8.6947  -14.4308   25.6994 C   0  0  2  0  0  0  0  0  0  0  0  0
    7.8973  -15.4358   25.0236 N   0  0  0  0  0  0  0  0  0  0  0  0
    8.7877  -14.7074   27.1625 C   0  0  0  0  0  0  0  0  0  0  0  0
    9.8091  -14.1795   27.9072 O   0  0  0  0  0  0  0  0  0  0  0  0
    7.9302  -15.4295   27.7351 O   0  0  0  0  0  0  0  0  0  0  0  0
  2  3  1  0
  2  1  1  0
  3  4  1  1
  5  3  1  0
  5  6  1  6
  5  7  1  0
  7  8  2  0
 10 11  1  6
 10 12  1  0
 10  9  1  0
 13  7  1  0
 12 13  1  6
 14 12  1  0
 14 15  2  0
 17 18  1  0
 17 16  1  0
 18 20  1  0
 18 19  1  6
 20 22  1  0
 20 21  1  6
 21 14  1  0
 22 23  1  0
 24 22  2  0
M  END
$$$$
