VVM.pdb
     RDKit          3D

 23 22  0  0  1  0  0  0  0  0999 V2000
    6.3396  -15.6180   19.9160 C   0  0  0  0  0  0  0  0  0  0  0  0
    7.5542  -16.5187   19.9678 C   0  0  2  0  0  0  0  0  0  0  0  0
    7.1409  -17.8265   19.2812 C   0  0  0  0  0  0  0  0  0  0  0  0
    7.9700  -16.8560   21.3796 C   0  0  2  0  0  0  0  0  0  0  0  0
    6.9618  -17.6340   22.0682 N   0  0  0  0  0  0  0  0  0  0  0  0
    8.3058  -15.6714   22.1866 C   0  0  0  0  0  0  0  0  0  0  0  0
    9.2466  -14.8853   21.8225 O   0  0  0  0  0  0  0  0  0  0  0  0
    7.1886  -12.4004   25.7104 C   0  0  0  0  0  0  0  0  0  0  0  0
    6.8916  -13.7186   24.9964 C   0  0  2  0  0  0  0  0  0  0  0  0
    6.4374  -14.7164   26.0049 C   0  0  0  0  0  0  0  0  0  0  0  0
    8.0931  -14.1326   24.1810 C   0  0  2  0  0  0  0  0  0  0  0  0
    7.6504  -15.3037   23.3900 N   0  0  0  0  0  0  0  0  0  0  0  0
    9.2822  -14.4582   24.9635 C   0  0  0  0  0  0  0  0  0  0  0  0
    9.6758  -13.6697   25.8907 O   0  0  0  0  0  0  0  0  0  0  0  0
   11.1328  -13.0340   28.8579 C   0  0  0  0  0  0  0  0  0  0  0  0
   10.0344  -14.4307   29.0245 S   0  0  0  0  0  0  0  0  0  0  0  0
   10.6920  -15.9325   28.3298 C   0  0  0  0  0  0  0  0  0  0  0  0
   10.1062  -16.4009   27.0511 C   0  0  0  0  0  0  0  0  0  0  0  0
   10.9016  -16.2059   25.8122 C   0  0  2  0  0  0  0  0  0  0  0  0
   10.0668  -15.6182   24.7782 N   0  0  0  0  0  0  0  0  0  0  0  0
   11.6461  -17.3712   25.3422 C   0  0  0  0  0  0  0  0  0  0  0  0
   11.2111  -17.9965   24.3151 O   0  0  0  0  0  0  0  0  0  0  0  0
   12.7922  -17.8801   25.9042 O   0  0  0  0  0  0  0  0  0  0  0  0
  2  1  1  1
  2  3  1  0
  4  2  1  0
  4  6  1  0
  4  5  1  1
  6  7  2  0
  9 11  1  0
  9  8  1  1
 10  9  1  0
 11 13  1  0
 12  6  1  0
 11 12  1  1
 13 14  2  0
 16 15  1  0
 17 18  1  0
 17 16  1  0
 19 18  1  1
 19 21  1  0
 20 19  1  0
 20 13  1  0
 21 22  2  0
 21 23  1  0
M  END
$$$$
