VVM.pdb
     RDKit          3D

 23 22  0  0  1  0  0  0  0  0999 V2000
    8.1862  -19.9633   24.6462 C   0  0  0  0  0  0  0  0  0  0  0  0
    6.8968  -19.6102   23.9377 C   0  0  2  0  0  0  0  0  0  0  0  0
    6.0117  -20.8601   24.0217 C   0  0  0  0  0  0  0  0  0  0  0  0
    7.1027  -19.2943   22.4756 C   0  0  2  0  0  0  0  0  0  0  0  0
    7.6229  -20.4310   21.7455 N   0  0  0  0  0  0  0  0  0  0  0  0
    7.9745  -18.1298   22.2485 C   0  0  0  0  0  0  0  0  0  0  0  0
    9.2416  -18.2775   22.1574 O   0  0  0  0  0  0  0  0  0  0  0  0
    6.5895  -14.0535   22.1168 C   0  0  0  0  0  0  0  0  0  0  0  0
    7.6843  -14.6014   21.2019 C   0  0  2  0  0  0  0  0  0  0  0  0
    7.0625  -15.0356   19.9198 C   0  0  0  0  0  0  0  0  0  0  0  0
    8.4631  -15.6700   21.9309 C   0  0  2  0  0  0  0  0  0  0  0  0
    7.5163  -16.7938   22.1152 N   0  0  0  0  0  0  0  0  0  0  0  0
    9.0241  -15.2525   23.2128 C   0  0  0  0  0  0  0  0  0  0  0  0
    9.8557  -14.2818   23.2635 O   0  0  0  0  0  0  0  0  0  0  0  0
    7.2701  -11.4060   27.4201 C   0  0  0  0  0  0  0  0  0  0  0  0
    6.1486  -12.7086   26.9401 S   0  0  0  0  0  0  0  0  0  0  0  0
    6.9766  -14.1944   26.4135 C   0  0  0  0  0  0  0  0  0  0  0  0
    8.4086  -14.0789   26.0480 C   0  0  0  0  0  0  0  0  0  0  0  0
    9.1473  -15.3294   25.7379 C   0  0  2  0  0  0  0  0  0  0  0  0
    8.7133  -15.8522   24.4534 N   0  0  0  0  0  0  0  0  0  0  0  0
    9.1523  -16.3443   26.7880 C   0  0  0  0  0  0  0  0  0  0  0  0
    8.5108  -17.4317   26.5852 O   0  0  0  0  0  0  0  0  0  0  0  0
    9.7880  -16.2492   28.0026 O   0  0  0  0  0  0  0  0  0  0  0  0
  2  1  1  6
  2  3  1  0
  4  2  1  0
  4  6  1  0
  4  5  1  6
  6  7  2  0
  9 11  1  0
  9  8  1  1
 10  9  1  0
 11 13  1  0
 12  6  1  0
 11 12  1  1
 13 14  2  0
 16 15  1  0
 17 18  1  0
 17 16  1  0
 19 18  1  1
 19 21  1  0
 20 19  1  0
 20 13  1  0
 21 22  2  0
 21 23  1  0
M  END
$$$$
