VVM.pdb
     RDKit          3D

 23 22  0  0  1  0  0  0  0  0999 V2000
    4.6611  -18.9237   23.0770 C   0  0  0  0  0  0  0  0  0  0  0  0
    4.0506  -18.0494   22.0037 C   0  0  2  0  0  0  0  0  0  0  0  0
    2.8856  -18.8544   21.4140 C   0  0  0  0  0  0  0  0  0  0  0  0
    5.0127  -17.7487   20.8796 C   0  0  2  0  0  0  0  0  0  0  0  0
    5.2451  -18.9072   20.0431 N   0  0  0  0  0  0  0  0  0  0  0  0
    6.3045  -17.2176   21.3450 C   0  0  0  0  0  0  0  0  0  0  0  0
    7.2797  -18.0082   21.5889 O   0  0  0  0  0  0  0  0  0  0  0  0
    7.2206  -13.0463   22.3979 C   0  0  0  0  0  0  0  0  0  0  0  0
    8.0251  -13.9519   21.4661 C   0  0  2  0  0  0  0  0  0  0  0  0
    7.5674  -13.7251   20.0668 C   0  0  0  0  0  0  0  0  0  0  0  0
    7.9330  -15.3803   21.9471 C   0  0  2  0  0  0  0  0  0  0  0  0
    6.5808  -15.8425   21.5585 N   0  0  0  0  0  0  0  0  0  0  0  0
    8.1474  -15.5593   23.3804 C   0  0  0  0  0  0  0  0  0  0  0  0
    7.1628  -15.4714   24.1922 O   0  0  0  0  0  0  0  0  0  0  0  0
    6.5308  -19.7837   26.2124 C   0  0  0  0  0  0  0  0  0  0  0  0
    8.0317  -19.6686   27.1709 S   0  0  0  0  0  0  0  0  0  0  0  0
    8.9100  -18.1391   26.9259 C   0  0  0  0  0  0  0  0  0  0  0  0
    8.7635  -17.4773   25.6075 C   0  0  0  0  0  0  0  0  0  0  0  0
    9.5702  -16.2568   25.3518 C   0  0  2  0  0  0  0  0  0  0  0  0
    9.4004  -15.8343   23.9719 N   0  0  0  0  0  0  0  0  0  0  0  0
   10.9728  -16.3235   25.7533 C   0  0  0  0  0  0  0  0  0  0  0  0
   11.8691  -16.2545   24.8440 O   0  0  0  0  0  0  0  0  0  0  0  0
   11.4413  -16.4588   27.0381 O   0  0  0  0  0  0  0  0  0  0  0  0
  2  1  1  1
  2  3  1  0
  4  2  1  0
  4  6  1  0
  4  5  1  1
  6  7  2  0
  9 11  1  0
  9  8  1  1
 10  9  1  0
 11 13  1  0
 12  6  1  0
 11 12  1  1
 13 14  2  0
 16 15  1  0
 17 18  1  0
 17 16  1  0
 19 18  1  6
 19 21  1  0
 20 19  1  0
 20 13  1  0
 21 22  2  0
 21 23  1  0
M  END
$$$$
