VVM.pdb
     RDKit          3D

 23 22  0  0  1  0  0  0  0  0999 V2000
    9.3347  -20.9639   20.8904 C   0  0  0  0  0  0  0  0  0  0  0  0
    9.6229  -19.5205   21.2407 C   0  0  2  0  0  0  0  0  0  0  0  0
    8.9702  -19.2783   22.6075 C   0  0  0  0  0  0  0  0  0  0  0  0
    9.0073  -18.5491   20.2624 C   0  0  2  0  0  0  0  0  0  0  0  0
    9.4119  -18.8251   18.9001 N   0  0  0  0  0  0  0  0  0  0  0  0
    9.2963  -17.1409   20.5799 C   0  0  0  0  0  0  0  0  0  0  0  0
   10.5047  -16.7325   20.6715 O   0  0  0  0  0  0  0  0  0  0  0  0
    7.6851  -12.4767   21.2229 C   0  0  0  0  0  0  0  0  0  0  0  0
    7.4597  -13.9226   20.7823 C   0  0  2  0  0  0  0  0  0  0  0  0
    6.1890  -14.4133   21.3854 C   0  0  0  0  0  0  0  0  0  0  0  0
    8.6832  -14.7457   21.1070 C   0  0  2  0  0  0  0  0  0  0  0  0
    8.3096  -16.1466   20.8051 N   0  0  0  0  0  0  0  0  0  0  0  0
    9.1568  -14.6231   22.4828 C   0  0  0  0  0  0  0  0  0  0  0  0
    9.7317  -13.5480   22.8700 O   0  0  0  0  0  0  0  0  0  0  0  0
    6.1395  -11.3021   25.9164 C   0  0  0  0  0  0  0  0  0  0  0  0
    7.2019  -12.4168   26.8184 S   0  0  0  0  0  0  0  0  0  0  0  0
    7.0442  -14.1139   26.3032 C   0  0  0  0  0  0  0  0  0  0  0  0
    7.5448  -14.4611   24.9518 C   0  0  0  0  0  0  0  0  0  0  0  0
    8.7167  -15.3688   24.8593 C   0  0  2  0  0  0  0  0  0  0  0  0
    9.0278  -15.6309   23.4642 N   0  0  0  0  0  0  0  0  0  0  0  0
    8.6439  -16.5879   25.6602 C   0  0  0  0  0  0  0  0  0  0  0  0
    9.3631  -16.6662   26.7145 O   0  0  0  0  0  0  0  0  0  0  0  0
    7.8659  -17.6881   25.3906 O   0  0  0  0  0  0  0  0  0  0  0  0
  2  1  1  6
  2  3  1  0
  4  2  1  0
  4  6  1  0
  4  5  1  6
  6  7  2  0
  9 11  1  0
  9  8  1  1
 10  9  1  0
 11 13  1  0
 12  6  1  0
 11 12  1  1
 13 14  2  0
 16 15  1  0
 17 18  1  0
 17 16  1  0
 19 18  1  6
 19 21  1  0
 20 19  1  0
 20 13  1  0
 21 22  2  0
 21 23  1  0
M  END
$$$$
