VVM.pdb
     RDKit          3D

 23 22  0  0  1  0  0  0  0  0999 V2000
    8.0826  -15.7215   19.0075 C   0  0  0  0  0  0  0  0  0  0  0  0
    9.2225  -16.7105   18.8994 C   0  0  2  0  0  0  0  0  0  0  0  0
    8.7589  -17.7838   17.9065 C   0  0  0  0  0  0  0  0  0  0  0  0
    9.5227  -17.3995   20.2090 C   0  0  2  0  0  0  0  0  0  0  0  0
    8.4583  -18.2983   20.6028 N   0  0  0  0  0  0  0  0  0  0  0  0
    9.8004  -16.4623   21.3099 C   0  0  0  0  0  0  0  0  0  0  0  0
   10.7513  -15.6127   21.2128 O   0  0  0  0  0  0  0  0  0  0  0  0
    7.2357  -15.9724   24.6275 C   0  0  0  0  0  0  0  0  0  0  0  0
    8.1253  -14.8634   24.0667 C   0  0  2  0  0  0  0  0  0  0  0  0
    7.3612  -14.1172   23.0283 C   0  0  0  0  0  0  0  0  0  0  0  0
    9.4338  -15.4542   23.5990 C   0  0  2  0  0  0  0  0  0  0  0  0
    9.0753  -16.4125   22.5283 N   0  0  0  0  0  0  0  0  0  0  0  0
   10.2157  -16.1136   24.6410 C   0  0  0  0  0  0  0  0  0  0  0  0
   10.0245  -17.3516   24.9002 O   0  0  0  0  0  0  0  0  0  0  0  0
   16.2768  -16.4497   24.7981 C   0  0  0  0  0  0  0  0  0  0  0  0
   16.0306  -15.6881   26.3932 S   0  0  0  0  0  0  0  0  0  0  0  0
   14.4668  -16.1002   27.1383 C   0  0  0  0  0  0  0  0  0  0  0  0
   13.2707  -15.3737   26.6492 C   0  0  0  0  0  0  0  0  0  0  0  0
   12.0378  -16.1616   26.3947 C   0  0  2  0  0  0  0  0  0  0  0  0
   11.2078  -15.4760   25.4186 N   0  0  0  0  0  0  0  0  0  0  0  0
   11.2906  -16.5770   27.5787 C   0  0  0  0  0  0  0  0  0  0  0  0
   10.1974  -15.9720   27.8507 O   0  0  0  0  0  0  0  0  0  0  0  0
   11.6501  -17.5733   28.4543 O   0  0  0  0  0  0  0  0  0  0  0  0
  2  1  1  1
  2  3  1  0
  4  2  1  0
  4  6  1  0
  4  5  1  1
  6  7  2  0
  9 11  1  0
  9  8  1  6
 10  9  1  0
 11 13  1  0
 12  6  1  0
 11 12  1  6
 13 14  2  0
 16 15  1  0
 17 18  1  0
 17 16  1  0
 19 18  1  1
 19 21  1  0
 20 19  1  0
 20 13  1  0
 21 22  2  0
 21 23  1  0
M  END
$$$$
