VVM.pdb
     RDKit          3D

 23 22  0  0  1  0  0  0  0  0999 V2000
    4.5850  -20.8304   23.1763 C   0  0  0  0  0  0  0  0  0  0  0  0
    5.8318  -19.9845   23.0381 C   0  0  2  0  0  0  0  0  0  0  0  0
    5.9938  -19.2482   24.3739 C   0  0  0  0  0  0  0  0  0  0  0  0
    5.7110  -18.9410   21.9535 C   0  0  2  0  0  0  0  0  0  0  0  0
    5.4698  -19.5360   20.6560 N   0  0  0  0  0  0  0  0  0  0  0  0
    6.8796  -18.0494   21.8703 C   0  0  0  0  0  0  0  0  0  0  0  0
    8.0348  -18.5205   21.5887 O   0  0  0  0  0  0  0  0  0  0  0  0
    6.7981  -13.7039   22.1300 C   0  0  0  0  0  0  0  0  0  0  0  0
    7.7187  -14.5838   21.2851 C   0  0  2  0  0  0  0  0  0  0  0  0
    7.0717  -14.8227   19.9647 C   0  0  0  0  0  0  0  0  0  0  0  0
    8.0755  -15.8302   22.0591 C   0  0  2  0  0  0  0  0  0  0  0  0
    6.8407  -16.6475   22.0845 N   0  0  0  0  0  0  0  0  0  0  0  0
    8.5640  -15.5913   23.4142 C   0  0  0  0  0  0  0  0  0  0  0  0
    7.8281  -14.9796   24.2631 O   0  0  0  0  0  0  0  0  0  0  0  0
   10.7114  -13.7065   29.6876 C   0  0  0  0  0  0  0  0  0  0  0  0
   10.0058  -14.0524   28.0853 S   0  0  0  0  0  0  0  0  0  0  0  0
   10.0386  -15.7807   27.6579 C   0  0  0  0  0  0  0  0  0  0  0  0
    9.6319  -16.1458   26.2800 C   0  0  0  0  0  0  0  0  0  0  0  0
   10.4010  -15.5601   25.1526 C   0  0  2  0  0  0  0  0  0  0  0  0
    9.8315  -15.9960   23.8887 N   0  0  0  0  0  0  0  0  0  0  0  0
   11.8498  -15.7359   25.2095 C   0  0  0  0  0  0  0  0  0  0  0  0
   12.3797  -16.6500   24.4893 O   0  0  0  0  0  0  0  0  0  0  0  0
   12.7242  -15.0050   25.9774 O   0  0  0  0  0  0  0  0  0  0  0  0
  2  1  1  1
  2  3  1  0
  4  2  1  0
  4  6  1  0
  4  5  1  6
  6  7  2  0
  9 11  1  0
  9  8  1  1
 10  9  1  0
 11 13  1  0
 12  6  1  0
 11 12  1  1
 13 14  2  0
 16 15  1  0
 17 18  1  0
 17 16  1  0
 19 18  1  1
 19 21  1  0
 20 19  1  0
 20 13  1  0
 21 22  2  0
 21 23  1  0
M  END
$$$$
