VVM.pdb
     RDKit          3D

 23 22  0  0  1  0  0  0  0  0999 V2000
    7.7140  -21.2854   20.3694 C   0  0  0  0  0  0  0  0  0  0  0  0
    8.2187  -19.9670   20.9137 C   0  0  2  0  0  0  0  0  0  0  0  0
    7.2062  -19.5348   21.9818 C   0  0  0  0  0  0  0  0  0  0  0  0
    8.2655  -18.8827   19.8640 C   0  0  2  0  0  0  0  0  0  0  0  0
    9.1302  -19.2380   18.7586 N   0  0  0  0  0  0  0  0  0  0  0  0
    8.6720  -17.5723   20.3980 C   0  0  0  0  0  0  0  0  0  0  0  0
    9.8436  -17.4058   20.8829 O   0  0  0  0  0  0  0  0  0  0  0  0
    8.1634  -12.6925   20.6599 C   0  0  0  0  0  0  0  0  0  0  0  0
    7.6881  -14.0592   20.1681 C   0  0  2  0  0  0  0  0  0  0  0  0
    6.1987  -14.0655   20.1401 C   0  0  0  0  0  0  0  0  0  0  0  0
    8.3181  -15.1447   21.0077 C   0  0  2  0  0  0  0  0  0  0  0  0
    7.8433  -16.4211   20.4259 N   0  0  0  0  0  0  0  0  0  0  0  0
    8.0032  -15.0782   22.4320 C   0  0  0  0  0  0  0  0  0  0  0  0
    6.9309  -15.6148   22.8778 O   0  0  0  0  0  0  0  0  0  0  0  0
    6.9920  -11.1415   27.7921 C   0  0  0  0  0  0  0  0  0  0  0  0
    6.2097  -11.9306   26.3956 S   0  0  0  0  0  0  0  0  0  0  0  0
    6.5474  -13.6758   26.2907 C   0  0  0  0  0  0  0  0  0  0  0  0
    7.0278  -14.1959   24.9883 C   0  0  0  0  0  0  0  0  0  0  0  0
    8.4905  -14.3863   24.8156 C   0  0  2  0  0  0  0  0  0  0  0  0
    8.8155  -14.4477   23.4006 N   0  0  0  0  0  0  0  0  0  0  0  0
    9.0860  -15.4794   25.5794 C   0  0  0  0  0  0  0  0  0  0  0  0
    9.7245  -15.1952   26.6502 O   0  0  0  0  0  0  0  0  0  0  0  0
    9.0326  -16.8145   25.2580 O   0  0  0  0  0  0  0  0  0  0  0  0
  2  1  1  6
  2  3  1  0
  4  2  1  0
  4  6  1  0
  4  5  1  6
  6  7  2  0
  9 11  1  0
  9  8  1  1
 10  9  1  0
 11 13  1  0
 12  6  1  0
 11 12  1  6
 13 14  2  0
 16 15  1  0
 17 18  1  0
 17 16  1  0
 19 18  1  6
 19 21  1  0
 20 19  1  0
 20 13  1  0
 21 22  2  0
 21 23  1  0
M  END
$$$$
