VVM.pdb
     RDKit          3D

 23 22  0  0  1  0  0  0  0  0999 V2000
    8.2558  -20.1833   24.3600 C   0  0  0  0  0  0  0  0  0  0  0  0
    6.8782  -19.6743   23.9962 C   0  0  2  0  0  0  0  0  0  0  0  0
    5.9176  -20.8463   24.2340 C   0  0  0  0  0  0  0  0  0  0  0  0
    6.7672  -19.2810   22.5426 C   0  0  2  0  0  0  0  0  0  0  0  0
    6.9838  -20.4080   21.6601 N   0  0  0  0  0  0  0  0  0  0  0  0
    7.6751  -18.1855   22.1647 C   0  0  0  0  0  0  0  0  0  0  0  0
    8.8756  -18.4355   21.8013 O   0  0  0  0  0  0  0  0  0  0  0  0
    6.6809  -13.9528   22.3191 C   0  0  0  0  0  0  0  0  0  0  0  0
    7.5775  -14.6177   21.2753 C   0  0  2  0  0  0  0  0  0  0  0  0
    6.7444  -14.9915   20.0982 C   0  0  0  0  0  0  0  0  0  0  0  0
    8.3344  -15.7580   21.9130 C   0  0  2  0  0  0  0  0  0  0  0  0
    7.3242  -16.8108   22.1668 N   0  0  0  0  0  0  0  0  0  0  0  0
    9.0402  -15.4127   23.1438 C   0  0  0  0  0  0  0  0  0  0  0  0
    9.9040  -14.4692   23.1449 O   0  0  0  0  0  0  0  0  0  0  0  0
    7.6575  -11.4323   27.1089 C   0  0  0  0  0  0  0  0  0  0  0  0
    6.4923  -12.7531   26.8217 S   0  0  0  0  0  0  0  0  0  0  0  0
    7.2689  -14.3055   26.4249 C   0  0  0  0  0  0  0  0  0  0  0  0
    8.6813  -14.2617   25.9771 C   0  0  0  0  0  0  0  0  0  0  0  0
    9.3448  -15.5498   25.6509 C   0  0  2  0  0  0  0  0  0  0  0  0
    8.8415  -16.0565   24.3854 N   0  0  0  0  0  0  0  0  0  0  0  0
    9.3339  -16.5583   26.7073 C   0  0  0  0  0  0  0  0  0  0  0  0
    8.5264  -17.5437   26.5983 O   0  0  0  0  0  0  0  0  0  0  0  0
   10.1186  -16.5571   27.8354 O   0  0  0  0  0  0  0  0  0  0  0  0
  2  1  1  6
  2  3  1  0
  4  2  1  0
  4  6  1  0
  4  5  1  6
  6  7  2  0
  9 11  1  0
  9  8  1  1
 10  9  1  0
 11 13  1  0
 12  6  1  0
 11 12  1  1
 13 14  2  0
 16 15  1  0
 17 18  1  0
 17 16  1  0
 19 18  1  1
 19 21  1  0
 20 19  1  0
 20 13  1  0
 21 22  2  0
 21 23  1  0
M  END
$$$$
