VVM.pdb
     RDKit          3D

 23 22  0  0  1  0  0  0  0  0999 V2000
    8.5525  -17.4352   20.4850 C   0  0  0  0  0  0  0  0  0  0  0  0
    7.1506  -16.8855   20.6318 C   0  0  2  0  0  0  0  0  0  0  0  0
    6.3845  -17.3413   19.3836 C   0  0  0  0  0  0  0  0  0  0  0  0
    7.1165  -15.3763   20.6625 C   0  0  2  0  0  0  0  0  0  0  0  0
    7.6605  -14.7990   19.4514 N   0  0  0  0  0  0  0  0  0  0  0  0
    7.8075  -14.8016   21.8285 C   0  0  0  0  0  0  0  0  0  0  0  0
    9.0667  -14.5814   21.7913 O   0  0  0  0  0  0  0  0  0  0  0  0
    7.7133  -12.6750   26.2939 C   0  0  0  0  0  0  0  0  0  0  0  0
    6.9664  -13.3981   25.1737 C   0  0  2  0  0  0  0  0  0  0  0  0
    5.9839  -14.3373   25.7834 C   0  0  0  0  0  0  0  0  0  0  0  0
    7.9611  -14.0332   24.2319 C   0  0  2  0  0  0  0  0  0  0  0  0
    7.1746  -14.4528   23.0494 N   0  0  0  0  0  0  0  0  0  0  0  0
    8.6974  -15.1641   24.7897 C   0  0  0  0  0  0  0  0  0  0  0  0
    8.2313  -16.3503   24.6796 O   0  0  0  0  0  0  0  0  0  0  0  0
   11.0643  -12.8335   29.3134 C   0  0  0  0  0  0  0  0  0  0  0  0
   10.0889  -14.2826   28.9481 S   0  0  0  0  0  0  0  0  0  0  0  0
   11.0689  -15.6922   28.4757 C   0  0  0  0  0  0  0  0  0  0  0  0
   11.5801  -15.7266   27.0846 C   0  0  0  0  0  0  0  0  0  0  0  0
   10.6558  -16.1899   26.0184 C   0  0  2  0  0  0  0  0  0  0  0  0
    9.9324  -15.0567   25.4669 N   0  0  0  0  0  0  0  0  0  0  0  0
    9.7776  -17.3013   26.3741 C   0  0  0  0  0  0  0  0  0  0  0  0
    8.6068  -17.0341   26.8131 O   0  0  0  0  0  0  0  0  0  0  0  0
   10.0871  -18.6374   26.2866 O   0  0  0  0  0  0  0  0  0  0  0  0
  2  1  1  6
  2  3  1  0
  4  2  1  0
  4  6  1  0
  4  5  1  6
  6  7  2  0
  9 11  1  0
  9  8  1  1
 10  9  1  0
 11 13  1  0
 12  6  1  0
 11 12  1  6
 13 14  2  0
 16 15  1  0
 17 18  1  0
 17 16  1  0
 19 18  1  1
 19 21  1  0
 20 19  1  0
 20 13  1  0
 21 22  2  0
 21 23  1  0
M  END
$$$$
