VVM.pdb
     RDKit          3D

 23 22  0  0  1  0  0  0  0  0999 V2000
   10.1591  -18.9491   21.5939 C   0  0  0  0  0  0  0  0  0  0  0  0
    8.8208  -18.8767   20.8919 C   0  0  2  0  0  0  0  0  0  0  0  0
    8.5726  -20.2736   20.3090 C   0  0  0  0  0  0  0  0  0  0  0  0
    8.8171  -17.8959   19.7440 C   0  0  2  0  0  0  0  0  0  0  0  0
    9.6070  -18.3689   18.6268 N   0  0  0  0  0  0  0  0  0  0  0  0
    9.2730  -16.5494   20.1269 C   0  0  0  0  0  0  0  0  0  0  0  0
   10.5135  -16.2443   20.0666 O   0  0  0  0  0  0  0  0  0  0  0  0
    6.6953  -13.1846   21.1435 C   0  0  0  0  0  0  0  0  0  0  0  0
    8.0030  -13.1755   20.3526 C   0  0  2  0  0  0  0  0  0  0  0  0
    7.6905  -13.3789   18.9104 C   0  0  0  0  0  0  0  0  0  0  0  0
    8.9603  -14.1794   20.9489 C   0  0  2  0  0  0  0  0  0  0  0  0
    8.4217  -15.5084   20.5789 N   0  0  0  0  0  0  0  0  0  0  0  0
    9.1332  -14.0772   22.3952 C   0  0  0  0  0  0  0  0  0  0  0  0
    9.2371  -12.9290   22.9494 O   0  0  0  0  0  0  0  0  0  0  0  0
    6.3914  -12.0231   27.7316 C   0  0  0  0  0  0  0  0  0  0  0  0
    7.2461  -12.6778   26.3084 S   0  0  0  0  0  0  0  0  0  0  0  0
    6.5342  -14.1886   25.6909 C   0  0  0  0  0  0  0  0  0  0  0  0
    7.1616  -14.7926   24.4913 C   0  0  0  0  0  0  0  0  0  0  0  0
    8.5836  -15.2096   24.5891 C   0  0  2  0  0  0  0  0  0  0  0  0
    9.1964  -15.1832   23.2717 N   0  0  0  0  0  0  0  0  0  0  0  0
    8.8343  -16.4586   25.3033 C   0  0  0  0  0  0  0  0  0  0  0  0
    8.6058  -17.5614   24.6978 O   0  0  0  0  0  0  0  0  0  0  0  0
    9.2992  -16.5752   26.5913 O   0  0  0  0  0  0  0  0  0  0  0  0
  2  1  1  6
  2  3  1  0
  4  2  1  0
  4  6  1  0
  4  5  1  6
  6  7  2  0
  9 11  1  0
  9  8  1  1
 10  9  1  0
 11 13  1  0
 12  6  1  0
 11 12  1  1
 13 14  2  0
 16 15  1  0
 17 18  1  0
 17 16  1  0
 19 18  1  6
 19 21  1  0
 20 19  1  0
 20 13  1  0
 21 22  2  0
 21 23  1  0
M  END
$$$$
