VVM.pdb
     RDKit          3D

 23 22  0  0  1  0  0  0  0  0999 V2000
    5.4764  -20.6832   24.9901 C   0  0  0  0  0  0  0  0  0  0  0  0
    6.5570  -19.7734   24.4480 C   0  0  2  0  0  0  0  0  0  0  0  0
    6.7876  -18.7033   25.5224 C   0  0  0  0  0  0  0  0  0  0  0  0
    6.1414  -19.0656   23.1807 C   0  0  2  0  0  0  0  0  0  0  0  0
    5.7980  -19.9988   22.1285 N   0  0  0  0  0  0  0  0  0  0  0  0
    7.1547  -18.1212   22.6818 C   0  0  0  0  0  0  0  0  0  0  0  0
    8.2167  -18.5513   22.1137 O   0  0  0  0  0  0  0  0  0  0  0  0
    6.7113  -13.8303   22.5372 C   0  0  0  0  0  0  0  0  0  0  0  0
    7.5205  -14.7046   21.5799 C   0  0  2  0  0  0  0  0  0  0  0  0
    6.6359  -15.1324   20.4603 C   0  0  0  0  0  0  0  0  0  0  0  0
    8.1692  -15.8297   22.3502 C   0  0  2  0  0  0  0  0  0  0  0  0
    7.0573  -16.7091   22.7783 N   0  0  0  0  0  0  0  0  0  0  0  0
    8.9643  -15.4067   23.4996 C   0  0  0  0  0  0  0  0  0  0  0  0
    8.4866  -14.5640   24.3351 O   0  0  0  0  0  0  0  0  0  0  0  0
   10.3677  -12.9000   28.2617 C   0  0  0  0  0  0  0  0  0  0  0  0
    9.9898  -14.6065   28.6218 S   0  0  0  0  0  0  0  0  0  0  0  0
   10.7938  -15.7544   27.5235 C   0  0  0  0  0  0  0  0  0  0  0  0
   10.1908  -15.9451   26.1827 C   0  0  0  0  0  0  0  0  0  0  0  0
   10.9964  -15.5520   24.9986 C   0  0  2  0  0  0  0  0  0  0  0  0
   10.2693  -15.8687   23.7810 N   0  0  0  0  0  0  0  0  0  0  0  0
   12.3742  -16.0358   24.9754 C   0  0  0  0  0  0  0  0  0  0  0  0
   12.6964  -16.9108   24.1004 O   0  0  0  0  0  0  0  0  0  0  0  0
   13.3850  -15.6410   25.8186 O   0  0  0  0  0  0  0  0  0  0  0  0
  2  1  1  1
  2  3  1  0
  4  2  1  0
  4  6  1  0
  4  5  1  6
  6  7  2  0
  9 11  1  0
  9  8  1  1
 10  9  1  0
 11 13  1  0
 12  6  1  0
 11 12  1  1
 13 14  2  0
 16 15  1  0
 17 18  1  0
 17 16  1  0
 19 18  1  1
 19 21  1  0
 20 19  1  0
 20 13  1  0
 21 22  2  0
 21 23  1  0
M  END
$$$$
