VVM.pdb
     RDKit          3D

 23 22  0  0  1  0  0  0  0  0999 V2000
   11.3389  -21.1007   20.0231 C   0  0  0  0  0  0  0  0  0  0  0  0
   11.4630  -19.8237   20.8249 C   0  0  2  0  0  0  0  0  0  0  0  0
   10.7272  -20.0802   22.1461 C   0  0  0  0  0  0  0  0  0  0  0  0
   10.7975  -18.6466   20.1530 C   0  0  2  0  0  0  0  0  0  0  0  0
   11.4401  -18.3047   18.9016 N   0  0  0  0  0  0  0  0  0  0  0  0
   10.7294  -17.4500   21.0079 C   0  0  0  0  0  0  0  0  0  0  0  0
   11.7918  -16.7997   21.2975 O   0  0  0  0  0  0  0  0  0  0  0  0
    8.1029  -13.8403   23.1392 C   0  0  0  0  0  0  0  0  0  0  0  0
    8.2375  -15.0293   22.1886 C   0  0  2  0  0  0  0  0  0  0  0  0
    7.0301  -15.8908   22.3272 C   0  0  0  0  0  0  0  0  0  0  0  0
    9.5540  -15.7263   22.4355 C   0  0  2  0  0  0  0  0  0  0  0  0
    9.5356  -16.9263   21.5677 N   0  0  0  0  0  0  0  0  0  0  0  0
    9.7990  -16.0988   23.8260 C   0  0  0  0  0  0  0  0  0  0  0  0
    8.9972  -16.8930   24.4282 O   0  0  0  0  0  0  0  0  0  0  0  0
    8.8304  -12.3285   28.2924 C   0  0  0  0  0  0  0  0  0  0  0  0
   10.0207  -13.3386   29.1569 S   0  0  0  0  0  0  0  0  0  0  0  0
   10.4933  -14.7999   28.2559 C   0  0  0  0  0  0  0  0  0  0  0  0
   10.5790  -14.6879   26.7802 C   0  0  0  0  0  0  0  0  0  0  0  0
   11.0370  -15.8791   26.0206 C   0  0  2  0  0  0  0  0  0  0  0  0
   10.8917  -15.6398   24.5947 N   0  0  0  0  0  0  0  0  0  0  0  0
   10.4709  -17.1587   26.4389 C   0  0  0  0  0  0  0  0  0  0  0  0
    9.2457  -17.4001   26.1638 O   0  0  0  0  0  0  0  0  0  0  0  0
   11.1334  -18.1540   27.1165 O   0  0  0  0  0  0  0  0  0  0  0  0
  2  1  1  6
  2  3  1  0
  4  2  1  0
  4  6  1  0
  4  5  1  6
  6  7  2  0
  9 11  1  0
  9  8  1  1
 10  9  1  0
 11 13  1  0
 12  6  1  0
 11 12  1  6
 13 14  2  0
 16 15  1  0
 17 18  1  0
 17 16  1  0
 19 18  1  1
 19 21  1  0
 20 19  1  0
 20 13  1  0
 21 22  2  0
 21 23  1  0
M  END
$$$$
