VVM.pdb
     RDKit          3D

 23 22  0  0  1  0  0  0  0  0999 V2000
   11.6518  -19.8345   20.8726 C   0  0  0  0  0  0  0  0  0  0  0  0
   10.2621  -19.7840   20.2765 C   0  0  2  0  0  0  0  0  0  0  0  0
   10.2057  -20.9119   19.2385 C   0  0  0  0  0  0  0  0  0  0  0  0
    9.9836  -18.4865   19.5562 C   0  0  2  0  0  0  0  0  0  0  0  0
   10.9204  -18.2561   18.4768 N   0  0  0  0  0  0  0  0  0  0  0  0
    9.9722  -17.3157   20.4487 C   0  0  0  0  0  0  0  0  0  0  0  0
   11.0226  -16.6005   20.5922 O   0  0  0  0  0  0  0  0  0  0  0  0
    7.3997  -14.4020   20.6359 C   0  0  0  0  0  0  0  0  0  0  0  0
    7.5683  -15.0495   22.0099 C   0  0  2  0  0  0  0  0  0  0  0  0
    7.2960  -14.0257   23.0572 C   0  0  0  0  0  0  0  0  0  0  0  0
    8.9245  -15.7080   22.0943 C   0  0  2  0  0  0  0  0  0  0  0  0
    8.8485  -16.8869   21.2013 N   0  0  0  0  0  0  0  0  0  0  0  0
    9.3302  -16.1051   23.4397 C   0  0  0  0  0  0  0  0  0  0  0  0
    8.7523  -17.0876   24.0203 O   0  0  0  0  0  0  0  0  0  0  0  0
    8.0535  -13.4086   28.6976 C   0  0  0  0  0  0  0  0  0  0  0  0
    9.7154  -13.9290   29.0875 S   0  0  0  0  0  0  0  0  0  0  0  0
   10.3639  -15.1330   27.9471 C   0  0  0  0  0  0  0  0  0  0  0  0
   10.2340  -14.8352   26.5008 C   0  0  0  0  0  0  0  0  0  0  0  0
   10.7213  -15.8548   25.5372 C   0  0  2  0  0  0  0  0  0  0  0  0
   10.3495  -15.4725   24.1854 N   0  0  0  0  0  0  0  0  0  0  0  0
   10.3781  -17.2402   25.8466 C   0  0  0  0  0  0  0  0  0  0  0  0
    9.1443  -17.5761   25.8424 O   0  0  0  0  0  0  0  0  0  0  0  0
   11.2647  -18.2448   26.1519 O   0  0  0  0  0  0  0  0  0  0  0  0
  2  1  1  6
  2  3  1  0
  4  2  1  0
  4  6  1  0
  4  5  1  6
  6  7  2  0
  9 11  1  0
  9  8  1  6
 10  9  1  0
 11 13  1  0
 12  6  1  0
 11 12  1  6
 13 14  2  0
 16 15  1  0
 17 18  1  0
 17 16  1  0
 19 18  1  1
 19 21  1  0
 20 19  1  0
 20 13  1  0
 21 22  2  0
 21 23  1  0
M  END
$$$$
