VVM.pdb
     RDKit          3D

 23 22  0  0  1  0  0  0  0  0999 V2000
    6.8477  -14.2594   18.4239 C   0  0  0  0  0  0  0  0  0  0  0  0
    7.6636  -13.1970   19.1273 C   0  0  2  0  0  0  0  0  0  0  0  0
    8.1257  -12.2254   18.0341 C   0  0  0  0  0  0  0  0  0  0  0  0
    8.8984  -13.7559   19.7928 C   0  0  2  0  0  0  0  0  0  0  0  0
    9.7435  -14.4647   18.8551 N   0  0  0  0  0  0  0  0  0  0  0  0
    8.5973  -14.6333   20.9360 C   0  0  0  0  0  0  0  0  0  0  0  0
    7.7494  -14.2733   21.8231 O   0  0  0  0  0  0  0  0  0  0  0  0
   10.9386  -17.9904   22.0328 C   0  0  0  0  0  0  0  0  0  0  0  0
    9.4142  -18.0972   22.0531 C   0  0  2  0  0  0  0  0  0  0  0  0
    8.9640  -18.7484   20.7913 C   0  0  0  0  0  0  0  0  0  0  0  0
    8.8165  -16.7367   22.3211 C   0  0  2  0  0  0  0  0  0  0  0  0
    9.1903  -15.9034   21.1552 N   0  0  0  0  0  0  0  0  0  0  0  0
    9.2539  -16.1094   23.5650 C   0  0  0  0  0  0  0  0  0  0  0  0
   10.4463  -15.6586   23.6716 O   0  0  0  0  0  0  0  0  0  0  0  0
    6.4117  -11.2305   26.2351 C   0  0  0  0  0  0  0  0  0  0  0  0
    6.9592  -12.0143   27.7420 S   0  0  0  0  0  0  0  0  0  0  0  0
    8.0502  -13.3937   27.4640 C   0  0  0  0  0  0  0  0  0  0  0  0
    7.8757  -14.1521   26.2023 C   0  0  0  0  0  0  0  0  0  0  0  0
    8.8504  -15.2319   25.9027 C   0  0  2  0  0  0  0  0  0  0  0  0
    8.4390  -15.9492   24.7078 N   0  0  0  0  0  0  0  0  0  0  0  0
    9.1754  -16.1237   27.0127 C   0  0  0  0  0  0  0  0  0  0  0  0
    9.7368  -15.6257   28.0480 O   0  0  0  0  0  0  0  0  0  0  0  0
    8.9374  -17.4763   27.0605 O   0  0  0  0  0  0  0  0  0  0  0  0
  2  1  1  6
  2  3  1  0
  4  2  1  0
  4  6  1  0
  4  5  1  6
  6  7  2  0
  9 11  1  0
  9  8  1  6
 10  9  1  0
 11 13  1  0
 12  6  1  0
 11 12  1  6
 13 14  2  0
 16 15  1  0
 17 18  1  0
 17 16  1  0
 19 18  1  1
 19 21  1  0
 20 19  1  0
 20 13  1  0
 21 22  2  0
 21 23  1  0
M  END
$$$$
