TVP.pdb
     RDKit          3D

 22 22  0  0  1  0  0  0  0  0999 V2000
   24.3923  -19.6950  -13.4473 C   0  0  0  0  0  0  0  0  0  0  0  0
   24.5075  -20.3084  -12.0682 C   0  0  1  0  0  0  0  0  0  0  0  0
   23.8220  -21.5203  -11.9960 O   0  0  0  0  0  0  0  0  0  0  0  0
   25.9829  -20.5358  -11.8165 C   0  0  2  0  0  0  0  0  0  0  0  0
   26.5732  -21.4069  -12.7789 N   0  0  0  0  0  0  0  0  0  0  0  0
   26.1649  -21.1584  -10.4321 C   0  0  0  0  0  0  0  0  0  0  0  0
   26.3789  -22.4019  -10.4053 O   0  0  0  0  0  0  0  0  0  0  0  0
   28.1151  -19.1612   -7.5610 C   0  0  0  0  0  0  0  0  0  0  0  0
   26.6669  -19.3262   -7.2088 C   0  0  2  0  0  0  0  0  0  0  0  0
   26.4863  -19.3019   -5.7263 C   0  0  0  0  0  0  0  0  0  0  0  0
   26.1234  -20.5877   -7.8931 C   0  0  2  0  0  0  0  0  0  0  0  0
   26.0855  -20.3445   -9.3374 N   0  0  0  0  0  0  0  0  0  0  0  0
   24.6864  -20.7601   -7.5116 C   0  0  0  0  0  0  0  0  0  0  0  0
   23.8274  -20.0783   -8.1127 O   0  0  0  0  0  0  0  0  0  0  0  0
   24.3165  -21.6542   -6.5224 N   0  0  0  0  0  0  0  0  0  0  0  0
   25.2300  -22.3147   -5.5672 C   0  0  0  0  0  0  0  0  0  0  0  0
   24.4751  -23.4736   -5.0133 C   0  0  0  0  0  0  0  0  0  0  0  0
   23.1902  -23.5371   -5.8278 C   0  0  0  0  0  0  0  0  0  0  0  0
   22.9837  -22.0728   -6.1541 C   0  0  1  0  0  0  0  0  0  0  0  0
   22.6920  -21.3707   -4.8567 C   0  0  0  0  0  0  0  0  0  0  0  0
   23.6176  -20.6174   -4.1874 O   0  0  0  0  0  0  0  0  0  0  0  0
   21.5351  -21.4826   -4.3613 O   0  0  0  0  0  0  0  0  0  0  0  0
  2  1  1  6
  2  4  1  0
  3  2  1  0
  4  6  1  0
  4  5  1  6
  6  7  2  0
  9  8  1  1
  9 11  1  0
 10  9  1  0
 11 13  1  0
 12  6  1  0
 11 12  1  6
 13 14  2  0
 13 15  1  0
 15 16  1  0
 15 19  1  0
 16 17  1  0
 17 18  1  0
 19 18  1  0
 19 20  1  1
 20 21  1  0
 22 20  2  0
M  END
$$$$
