TVP.pdb
     RDKit          3D

 22 22  0  0  1  0  0  0  0  0999 V2000
   23.1978  -19.6479   -9.6629 C   0  0  0  0  0  0  0  0  0  0  0  0
   23.0331  -20.4969  -10.9052 C   0  0  1  0  0  0  0  0  0  0  0  0
   22.0930  -19.9438  -11.7735 O   0  0  0  0  0  0  0  0  0  0  0  0
   24.3881  -20.5482  -11.5784 C   0  0  2  0  0  0  0  0  0  0  0  0
   24.3512  -21.2334  -12.8284 N   0  0  0  0  0  0  0  0  0  0  0  0
   25.3749  -21.2740  -10.6636 C   0  0  0  0  0  0  0  0  0  0  0  0
   25.1635  -22.5050  -10.4828 O   0  0  0  0  0  0  0  0  0  0  0  0
   29.9490  -20.9518   -8.9745 C   0  0  0  0  0  0  0  0  0  0  0  0
   28.8190  -20.6880   -9.9243 C   0  0  2  0  0  0  0  0  0  0  0  0
   28.9740  -19.3435  -10.5562 C   0  0  0  0  0  0  0  0  0  0  0  0
   27.4868  -20.8940   -9.1908 C   0  0  2  0  0  0  0  0  0  0  0  0
   26.3997  -20.5569  -10.1133 N   0  0  0  0  0  0  0  0  0  0  0  0
   27.3749  -19.8729   -8.1021 C   0  0  0  0  0  0  0  0  0  0  0  0
   26.7795  -18.8020   -8.3525 O   0  0  0  0  0  0  0  0  0  0  0  0
   27.9121  -20.1091   -6.8490 N   0  0  0  0  0  0  0  0  0  0  0  0
   28.9003  -21.1551   -6.5141 C   0  0  0  0  0  0  0  0  0  0  0  0
   28.8463  -21.3105   -5.0333 C   0  0  0  0  0  0  0  0  0  0  0  0
   27.6709  -20.4521   -4.5861 C   0  0  0  0  0  0  0  0  0  0  0  0
   27.6984  -19.3584   -5.6332 C   0  0  1  0  0  0  0  0  0  0  0  0
   28.9667  -18.5789   -5.4206 C   0  0  0  0  0  0  0  0  0  0  0  0
   29.1658  -17.7482   -4.3518 O   0  0  0  0  0  0  0  0  0  0  0  0
   29.8932  -18.6977   -6.2714 O   0  0  0  0  0  0  0  0  0  0  0  0
  2  1  1  1
  2  4  1  0
  3  2  1  0
  4  6  1  0
  4  5  1  6
  6  7  2  0
  9  8  1  1
  9 11  1  0
 10  9  1  0
 11 13  1  0
 12  6  1  0
 11 12  1  6
 13 14  2  0
 13 15  1  0
 15 16  1  0
 15 19  1  0
 16 17  1  0
 17 18  1  0
 19 18  1  0
 19 20  1  1
 20 21  1  0
 22 20  2  0
M  END
$$$$
