TVP.pdb
     RDKit          3D

 22 22  0  0  1  0  0  0  0  0999 V2000
   20.0509  -11.3656  -19.9840 C   0  0  0  0  0  0  0  0  0  0  0  0
   19.7510  -12.8375  -19.7968 C   0  0  1  0  0  0  0  0  0  0  0  0
   19.8145  -13.5236  -21.0088 O   0  0  0  0  0  0  0  0  0  0  0  0
   20.7980  -13.3758  -18.8451 C   0  0  2  0  0  0  0  0  0  0  0  0
   20.7151  -14.7905  -18.6854 N   0  0  0  0  0  0  0  0  0  0  0  0
   20.6090  -12.7275  -17.4735 C   0  0  0  0  0  0  0  0  0  0  0  0
   19.6075  -13.1130  -16.8093 O   0  0  0  0  0  0  0  0  0  0  0  0
   23.4536  -12.2727  -14.9586 C   0  0  0  0  0  0  0  0  0  0  0  0
   23.0702  -10.8993  -15.4226 C   0  0  2  0  0  0  0  0  0  0  0  0
   23.3634   -9.8909  -14.3602 C   0  0  0  0  0  0  0  0  0  0  0  0
   21.6100  -10.9171  -15.8942 C   0  0  2  0  0  0  0  0  0  0  0  0
   21.5181  -11.7925  -17.0653 N   0  0  0  0  0  0  0  0  0  0  0  0
   21.2585   -9.5607  -16.4206 C   0  0  0  0  0  0  0  0  0  0  0  0
   21.8651   -9.1412  -17.4306 O   0  0  0  0  0  0  0  0  0  0  0  0
   20.2842   -8.7920  -15.8088 N   0  0  0  0  0  0  0  0  0  0  0  0
   19.5809   -9.1251  -14.5528 C   0  0  0  0  0  0  0  0  0  0  0  0
   18.3638   -8.2662  -14.5249 C   0  0  0  0  0  0  0  0  0  0  0  0
   18.3246   -7.5876  -15.8873 C   0  0  0  0  0  0  0  0  0  0  0  0
   19.8026   -7.4877  -16.2017 C   0  0  1  0  0  0  0  0  0  0  0  0
   20.3990   -6.5292  -15.2082 C   0  0  0  0  0  0  0  0  0  0  0  0
   20.2797   -5.1703  -15.3130 O   0  0  0  0  0  0  0  0  0  0  0  0
   21.0415   -7.0033  -14.2290 O   0  0  0  0  0  0  0  0  0  0  0  0
  2  1  1  6
  2  4  1  0
  3  2  1  0
  4  6  1  0
  4  5  1  1
  6  7  2  0
  9  8  1  1
  9 11  1  0
 10  9  1  0
 11 13  1  0
 12  6  1  0
 11 12  1  6
 13 14  2  0
 13 15  1  0
 15 16  1  0
 15 19  1  0
 16 17  1  0
 17 18  1  0
 19 18  1  0
 19 20  1  1
 20 21  1  0
 22 20  2  0
M  END
$$$$
