TVP.pdb
     RDKit          3D

 22 22  0  0  1  0  0  0  0  0999 V2000
   18.1374  -19.2486    4.8915 C   0  0  0  0  0  0  0  0  0  0  0  0
   17.7352  -19.7466    3.5199 C   0  0  1  0  0  0  0  0  0  0  0  0
   17.5873  -21.1328    3.5096 O   0  0  0  0  0  0  0  0  0  0  0  0
   16.4142  -19.0855    3.1885 C   0  0  2  0  0  0  0  0  0  0  0  0
   15.8102  -19.6292    2.0167 N   0  0  0  0  0  0  0  0  0  0  0  0
   16.6451  -17.5917    2.9590 C   0  0  0  0  0  0  0  0  0  0  0  0
   17.0233  -17.2588    1.8019 O   0  0  0  0  0  0  0  0  0  0  0  0
   14.8596  -15.5827    5.9862 C   0  0  0  0  0  0  0  0  0  0  0  0
   15.1228  -14.8173    4.7238 C   0  0  2  0  0  0  0  0  0  0  0  0
   13.9611  -14.9354    3.7924 C   0  0  0  0  0  0  0  0  0  0  0  0
   16.4616  -15.2740    4.1286 C   0  0  2  0  0  0  0  0  0  0  0  0
   16.4312  -16.7331    4.0002 N   0  0  0  0  0  0  0  0  0  0  0  0
   17.5451  -15.0154    5.1284 C   0  0  0  0  0  0  0  0  0  0  0  0
   17.9410  -15.9692    5.8336 O   0  0  0  0  0  0  0  0  0  0  0  0
   18.0982  -13.7546    5.2661 N   0  0  0  0  0  0  0  0  0  0  0  0
   17.5986  -12.5165    4.6332 C   0  0  0  0  0  0  0  0  0  0  0  0
   18.7205  -11.5386    4.7046 C   0  0  0  0  0  0  0  0  0  0  0  0
   19.9085  -12.3341    5.2281 C   0  0  0  0  0  0  0  0  0  0  0  0
   19.2091  -13.3563    6.0995 C   0  0  1  0  0  0  0  0  0  0  0  0
   18.5936  -12.6061    7.2484 C   0  0  0  0  0  0  0  0  0  0  0  0
   17.2532  -12.3491    7.3437 O   0  0  0  0  0  0  0  0  0  0  0  0
   19.3527  -12.1935    8.1704 O   0  0  0  0  0  0  0  0  0  0  0  0
  2  1  1  1
  2  4  1  0
  3  2  1  0
  4  6  1  0
  4  5  1  6
  6  7  2  0
  9  8  1  1
  9 11  1  0
 10  9  1  0
 11 13  1  0
 12  6  1  0
 11 12  1  1
 13 14  2  0
 13 15  1  0
 15 16  1  0
 15 19  1  0
 16 17  1  0
 17 18  1  0
 19 18  1  0
 19 20  1  1
 20 21  1  0
 22 20  2  0
M  END
$$$$
