TVP.pdb
     RDKit          3D

 22 22  0  0  1  0  0  0  0  0999 V2000
   16.9824   -9.1495  -13.4113 C   0  0  0  0  0  0  0  0  0  0  0  0
   16.0044  -10.3049  -13.4061 C   0  0  1  0  0  0  0  0  0  0  0  0
   16.6061  -11.4775  -13.8607 O   0  0  0  0  0  0  0  0  0  0  0  0
   15.5496  -10.4818  -11.9730 C   0  0  2  0  0  0  0  0  0  0  0  0
   14.8968  -11.7312  -11.7576 N   0  0  0  0  0  0  0  0  0  0  0  0
   14.5711   -9.3627  -11.6161 C   0  0  0  0  0  0  0  0  0  0  0  0
   13.4100   -9.4637  -12.1002 O   0  0  0  0  0  0  0  0  0  0  0  0
   16.0094   -7.1547   -8.4643 C   0  0  0  0  0  0  0  0  0  0  0  0
   14.5570   -7.0354   -8.8180 C   0  0  2  0  0  0  0  0  0  0  0  0
   13.7556   -8.0536   -8.0750 C   0  0  0  0  0  0  0  0  0  0  0  0
   14.4041   -7.0984  -10.3437 C   0  0  2  0  0  0  0  0  0  0  0  0
   15.0090   -8.3475  -10.8129 N   0  0  0  0  0  0  0  0  0  0  0  0
   15.2512   -6.0270  -10.9561 C   0  0  0  0  0  0  0  0  0  0  0  0
   16.4740   -6.2470  -11.0986 O   0  0  0  0  0  0  0  0  0  0  0  0
   14.6953   -4.8256  -11.3589 N   0  0  0  0  0  0  0  0  0  0  0  0
   13.3064   -4.3877  -11.1095 C   0  0  0  0  0  0  0  0  0  0  0  0
   13.0481   -3.2784  -12.0699 C   0  0  0  0  0  0  0  0  0  0  0  0
   14.2710   -3.2443  -12.9763 C   0  0  0  0  0  0  0  0  0  0  0  0
   15.3479   -3.7219  -12.0248 C   0  0  1  0  0  0  0  0  0  0  0  0
   15.5052   -2.6604  -10.9712 C   0  0  0  0  0  0  0  0  0  0  0  0
   16.2165   -1.5084  -11.1682 O   0  0  0  0  0  0  0  0  0  0  0  0
   14.9529   -2.8425   -9.8496 O   0  0  0  0  0  0  0  0  0  0  0  0
  2  1  1  1
  2  4  1  0
  3  2  1  0
  4  6  1  0
  4  5  1  6
  6  7  2  0
  9  8  1  6
  9 11  1  0
 10  9  1  0
 11 13  1  0
 12  6  1  0
 11 12  1  6
 13 14  2  0
 13 15  1  0
 15 16  1  0
 15 19  1  0
 16 17  1  0
 17 18  1  0
 19 18  1  0
 19 20  1  1
 20 21  1  0
 22 20  2  0
M  END
$$$$
