TVP.pdb
     RDKit          3D

 22 22  0  0  1  0  0  0  0  0999 V2000
   22.2693  -20.4648  -17.8731 C   0  0  0  0  0  0  0  0  0  0  0  0
   23.6333  -20.9917  -18.2641 C   0  0  1  0  0  0  0  0  0  0  0  0
   23.5651  -21.7531  -19.4300 O   0  0  0  0  0  0  0  0  0  0  0  0
   24.5170  -19.7833  -18.4893 C   0  0  2  0  0  0  0  0  0  0  0  0
   25.1073  -19.7728  -19.7874 N   0  0  0  0  0  0  0  0  0  0  0  0
   25.6405  -19.7839  -17.4525 C   0  0  0  0  0  0  0  0  0  0  0  0
   26.7426  -20.2718  -17.8270 O   0  0  0  0  0  0  0  0  0  0  0  0
   24.8038  -17.0915  -14.5787 C   0  0  0  0  0  0  0  0  0  0  0  0
   26.2126  -17.5998  -14.6525 C   0  0  2  0  0  0  0  0  0  0  0  0
   27.0208  -16.7582  -15.5851 C   0  0  0  0  0  0  0  0  0  0  0  0
   26.1906  -19.0934  -15.0042 C   0  0  2  0  0  0  0  0  0  0  0  0
   25.3830  -19.2667  -16.2142 N   0  0  0  0  0  0  0  0  0  0  0  0
   25.4273  -19.8253  -13.9449 C   0  0  0  0  0  0  0  0  0  0  0  0
   24.1985  -19.9916  -14.1075 O   0  0  0  0  0  0  0  0  0  0  0  0
   26.0650  -20.3097  -12.8165 N   0  0  0  0  0  0  0  0  0  0  0  0
   27.4135  -19.9241  -12.3517 C   0  0  0  0  0  0  0  0  0  0  0  0
   27.8355  -20.9849  -11.3944 C   0  0  0  0  0  0  0  0  0  0  0  0
   26.7582  -22.0566  -11.4882 C   0  0  0  0  0  0  0  0  0  0  0  0
   25.5432  -21.2153  -11.8190 C   0  0  1  0  0  0  0  0  0  0  0  0
   25.2611  -20.3592  -10.6153 C   0  0  0  0  0  0  0  0  0  0  0  0
   24.5788  -20.8097   -9.5183 O   0  0  0  0  0  0  0  0  0  0  0  0
   25.6750  -19.1654  -10.6183 O   0  0  0  0  0  0  0  0  0  0  0  0
  2  1  1  6
  2  4  1  0
  3  2  1  0
  4  6  1  0
  4  5  1  6
  6  7  2  0
  9  8  1  6
  9 11  1  0
 10  9  1  0
 11 13  1  0
 12  6  1  0
 11 12  1  6
 13 14  2  0
 13 15  1  0
 15 16  1  0
 15 19  1  0
 16 17  1  0
 17 18  1  0
 19 18  1  0
 19 20  1  1
 20 21  1  0
 22 20  2  0
M  END
$$$$
