TVP.pdb
     RDKit          3D

 22 22  0  0  1  0  0  0  0  0999 V2000
   18.8649  -13.7677  -20.3004 C   0  0  0  0  0  0  0  0  0  0  0  0
   19.0184  -13.1012  -18.9501 C   0  0  1  0  0  0  0  0  0  0  0  0
   17.8367  -13.1743  -18.2139 O   0  0  0  0  0  0  0  0  0  0  0  0
   20.1232  -13.8398  -18.2249 C   0  0  2  0  0  0  0  0  0  0  0  0
   19.8176  -15.2179  -18.0228 N   0  0  0  0  0  0  0  0  0  0  0  0
   20.3445  -13.1931  -16.8574 C   0  0  0  0  0  0  0  0  0  0  0  0
   19.7014  -13.6948  -15.8943 O   0  0  0  0  0  0  0  0  0  0  0  0
   23.6791  -10.8304  -17.0385 C   0  0  0  0  0  0  0  0  0  0  0  0
   23.2223  -11.3101  -15.6932 C   0  0  2  0  0  0  0  0  0  0  0  0
   23.8525  -12.6249  -15.3686 C   0  0  0  0  0  0  0  0  0  0  0  0
   21.6882  -11.3159  -15.6555 C   0  0  2  0  0  0  0  0  0  0  0  0
   21.2063  -12.1362  -16.7696 N   0  0  0  0  0  0  0  0  0  0  0  0
   21.1946   -9.9389  -15.9726 C   0  0  0  0  0  0  0  0  0  0  0  0
   21.0817   -9.6115  -17.1743 O   0  0  0  0  0  0  0  0  0  0  0  0
   20.8668   -9.0518  -14.9624 N   0  0  0  0  0  0  0  0  0  0  0  0
   21.1326   -9.2441  -13.5218 C   0  0  0  0  0  0  0  0  0  0  0  0
   20.2449   -8.2824  -12.8098 C   0  0  0  0  0  0  0  0  0  0  0  0
   19.3532   -7.6885  -13.8916 C   0  0  0  0  0  0  0  0  0  0  0  0
   20.2805   -7.7374  -15.0879 C   0  0  1  0  0  0  0  0  0  0  0  0
   21.4028   -6.7749  -14.8130 C   0  0  0  0  0  0  0  0  0  0  0  0
   21.2580   -5.4160  -14.8790 O   0  0  0  0  0  0  0  0  0  0  0  0
   22.5345   -7.2454  -14.5060 O   0  0  0  0  0  0  0  0  0  0  0  0
  2  1  1  6
  2  4  1  0
  3  2  1  0
  4  6  1  0
  4  5  1  1
  6  7  2  0
  9  8  1  6
  9 11  1  0
 10  9  1  0
 11 13  1  0
 12  6  1  0
 11 12  1  6
 13 14  2  0
 13 15  1  0
 15 16  1  0
 15 19  1  0
 16 17  1  0
 17 18  1  0
 19 18  1  0
 19 20  1  1
 20 21  1  0
 22 20  2  0
M  END
$$$$
