TVP.pdb
     RDKit          3D

 22 22  0  0  1  0  0  0  0  0999 V2000
   28.4740  -17.8683  -16.1863 C   0  0  0  0  0  0  0  0  0  0  0  0
   27.4322  -18.8637  -15.7225 C   0  0  1  0  0  0  0  0  0  0  0  0
   26.6576  -19.3175  -16.7891 O   0  0  0  0  0  0  0  0  0  0  0  0
   28.1846  -20.0223  -15.1032 C   0  0  2  0  0  0  0  0  0  0  0  0
   28.9332  -20.7635  -16.0643 N   0  0  0  0  0  0  0  0  0  0  0  0
   27.1860  -20.9706  -14.4393 C   0  0  0  0  0  0  0  0  0  0  0  0
   26.9640  -22.0563  -15.0434 O   0  0  0  0  0  0  0  0  0  0  0  0
   27.0170  -21.0544  -10.4438 C   0  0  0  0  0  0  0  0  0  0  0  0
   25.7043  -20.5959  -11.0054 C   0  0  2  0  0  0  0  0  0  0  0  0
   24.5894  -20.9495  -10.0765 C   0  0  0  0  0  0  0  0  0  0  0  0
   25.5446  -21.1502  -12.4275 C   0  0  2  0  0  0  0  0  0  0  0  0
   26.6113  -20.5884  -13.2599 N   0  0  0  0  0  0  0  0  0  0  0  0
   24.2862  -20.5974  -13.0201 C   0  0  0  0  0  0  0  0  0  0  0  0
   24.1918  -19.3584  -13.1616 O   0  0  0  0  0  0  0  0  0  0  0  0
   23.2552  -21.4356  -13.4063 N   0  0  0  0  0  0  0  0  0  0  0  0
   23.1353  -22.8702  -13.0737 C   0  0  0  0  0  0  0  0  0  0  0  0
   22.1443  -23.4317  -14.0342 C   0  0  0  0  0  0  0  0  0  0  0  0
   21.8632  -22.3055  -15.0194 C   0  0  0  0  0  0  0  0  0  0  0  0
   22.0542  -21.0928  -14.1326 C   0  0  1  0  0  0  0  0  0  0  0  0
   20.9517  -21.1187  -13.1101 C   0  0  0  0  0  0  0  0  0  0  0  0
   21.1135  -21.6156  -11.8457 O   0  0  0  0  0  0  0  0  0  0  0  0
   19.8210  -20.6586  -13.4360 O   0  0  0  0  0  0  0  0  0  0  0  0
  2  1  1  6
  2  4  1  0
  3  2  1  0
  4  6  1  0
  4  5  1  6
  6  7  2  0
  9  8  1  1
  9 11  1  0
 10  9  1  0
 11 13  1  0
 12  6  1  0
 11 12  1  6
 13 14  2  0
 13 15  1  0
 15 16  1  0
 15 19  1  0
 16 17  1  0
 17 18  1  0
 19 18  1  0
 19 20  1  1
 20 21  1  0
 22 20  2  0
M  END
$$$$
