TVP.pdb
     RDKit          3D

 22 22  0  0  1  0  0  0  0  0999 V2000
   20.3264  -23.0627  -14.3758 C   0  0  0  0  0  0  0  0  0  0  0  0
   21.4323  -22.0313  -14.4427 C   0  0  1  0  0  0  0  0  0  0  0  0
   21.2480  -21.1626  -15.5175 O   0  0  0  0  0  0  0  0  0  0  0  0
   21.3839  -21.2583  -13.1420 C   0  0  2  0  0  0  0  0  0  0  0  0
   20.2609  -20.3824  -13.0687 N   0  0  0  0  0  0  0  0  0  0  0  0
   22.6549  -20.4190  -13.0102 C   0  0  0  0  0  0  0  0  0  0  0  0
   22.5201  -19.1754  -13.1781 O   0  0  0  0  0  0  0  0  0  0  0  0
   25.1201  -20.9430  -10.1097 C   0  0  0  0  0  0  0  0  0  0  0  0
   25.8230  -21.3558  -11.3684 C   0  0  2  0  0  0  0  0  0  0  0  0
   27.2991  -21.1814  -11.2206 C   0  0  0  0  0  0  0  0  0  0  0  0
   25.2112  -20.6016  -12.5566 C   0  0  2  0  0  0  0  0  0  0  0  0
   23.8291  -21.0573  -12.7251 N   0  0  0  0  0  0  0  0  0  0  0  0
   25.8990  -21.0422  -13.8109 C   0  0  0  0  0  0  0  0  0  0  0  0
   25.6715  -22.1953  -14.2381 O   0  0  0  0  0  0  0  0  0  0  0  0
   26.7609  -20.1942  -14.4837 N   0  0  0  0  0  0  0  0  0  0  0  0
   27.5599  -19.1108  -13.8746 C   0  0  0  0  0  0  0  0  0  0  0  0
   27.9717  -18.2240  -14.9988 C   0  0  0  0  0  0  0  0  0  0  0  0
   27.2222  -18.7501  -16.2152 C   0  0  0  0  0  0  0  0  0  0  0  0
   27.1288  -20.2241  -15.8805 C   0  0  1  0  0  0  0  0  0  0  0  0
   28.5295  -20.7706  -15.9098 C   0  0  0  0  0  0  0  0  0  0  0  0
   29.2154  -21.0130  -17.0685 O   0  0  0  0  0  0  0  0  0  0  0  0
   29.0999  -21.0175  -14.8098 O   0  0  0  0  0  0  0  0  0  0  0  0
  2  1  1  1
  2  4  1  0
  3  2  1  0
  4  6  1  0
  4  5  1  6
  6  7  2  0
  9  8  1  1
  9 11  1  0
 10  9  1  0
 11 13  1  0
 12  6  1  0
 11 12  1  6
 13 14  2  0
 13 15  1  0
 15 16  1  0
 15 19  1  0
 16 17  1  0
 17 18  1  0
 19 18  1  0
 19 20  1  1
 20 21  1  0
 22 20  2  0
M  END
$$$$
