WLE.pdb
     RDKit          3D

 32 33  0  0  1  0  0  0  0  0999 V2000
    8.3994  -18.3581   22.8458 N   0  0  0  0  0  0  0  0  0  0  0  0
    8.5629  -16.9642   22.4990 C   0  0  1  0  0  0  0  0  0  0  0  0
    7.3330  -16.3606   21.9024 C   0  0  0  0  0  0  0  0  0  0  0  0
    7.7196  -15.5683   20.6969 C   0  0  0  0  0  0  0  0  0  0  0  0
    8.0976  -16.0485   19.4675 C   0  0  0  0  0  0  0  0  0  0  0  0
    8.3644  -14.9866   18.6636 N   0  0  0  0  0  0  0  0  0  0  0  0
    8.1787  -13.8315   19.3079 C   0  0  0  0  0  0  0  0  0  0  0  0
    8.3130  -12.4951   18.9487 C   0  0  0  0  0  0  0  0  0  0  0  0
    8.0518  -11.4903   19.8375 C   0  0  0  0  0  0  0  0  0  0  0  0
    7.6502  -11.8849   21.1011 C   0  0  0  0  0  0  0  0  0  0  0  0
    7.5025  -13.1790   21.5055 C   0  0  0  0  0  0  0  0  0  0  0  0
    7.7690  -14.1900   20.5999 C   0  0  0  0  0  0  0  0  0  0  0  0
    9.0341  -16.1272   23.6236 C   0  0  0  0  0  0  0  0  0  0  0  0
   10.1531  -15.5722   23.5069 O   0  0  0  0  0  0  0  0  0  0  0  0
    5.7524  -12.9328   26.6085 C   0  0  0  0  0  0  0  0  0  0  0  0
    7.0022  -13.3215   25.7570 C   0  0  1  0  0  0  0  0  0  0  0  0
    7.7425  -12.0333   25.5897 C   0  0  0  0  0  0  0  0  0  0  0  0
    7.6842  -14.3808   26.5456 C   0  0  0  0  0  0  0  0  0  0  0  0
    8.7357  -15.1872   25.8872 C   0  0  2  0  0  0  0  0  0  0  0  0
    8.2656  -15.9558   24.7784 N   0  0  0  0  0  0  0  0  0  0  0  0
    9.4211  -16.0609   26.9044 C   0  0  0  0  0  0  0  0  0  0  0  0
    9.8121  -15.5568   27.9921 O   0  0  0  0  0  0  0  0  0  0  0  0
    9.6483  -17.4356   26.6930 N   0  0  0  0  0  0  0  0  0  0  0  0
   10.4049  -18.2378   27.6300 C   0  0  1  0  0  0  0  0  0  0  0  0
   10.2366  -19.7109   27.4497 C   0  0  0  0  0  0  0  0  0  0  0  0
    8.8124  -20.0953   27.1333 C   0  0  0  0  0  0  0  0  0  0  0  0
    8.7317  -21.5667   27.0062 C   0  0  0  0  0  0  0  0  0  0  0  0
    9.3766  -22.3150   27.8203 O   0  0  0  0  0  0  0  0  0  0  0  0
   11.8502  -17.8378   27.6091 C   0  0  0  0  0  0  0  0  0  0  0  0
   12.7279  -18.0362   28.6553 O   0  0  0  0  0  0  0  0  0  0  0  0
    7.9857  -22.2371   26.0427 O   0  0  0  0  0  0  0  0  0  0  0  0
   12.3068  -17.2844   26.5746 O   0  0  0  0  0  0  0  0  0  0  0  0
  2  1  1  1
  3  4  1  0
  3  2  1  0
  4  5  2  0
  6  5  1  0
  7  6  1  0
  8  7  2  0
  9  8  1  0
 10  9  2  0
 10 11  1  0
 11 12  2  0
 12  7  1  0
 12  4  1  0
 13  2  1  0
 13 14  2  0
 16 15  1  1
 16 18  1  0
 17 16  1  0
 19 18  1  1
 19 20  1  0
 19 21  1  0
 20 13  1  0
 21 23  1  0
 21 22  2  0
 23 24  1  0
 24 25  1  6
 24 29  1  0
 26 25  1  0
 27 26  1  0
 28 27  2  0
 29 32  2  0
 29 30  1  0
 31 27  1  0
M  END
$$$$
