WLE.pdb
     RDKit          3D

 32 33  0  0  1  0  0  0  0  0999 V2000
    5.7621  -19.8303   25.7521 N   0  0  0  0  0  0  0  0  0  0  0  0
    6.6172  -18.7572   26.2073 C   0  0  1  0  0  0  0  0  0  0  0  0
    7.9860  -19.2200   26.5883 C   0  0  0  0  0  0  0  0  0  0  0  0
    8.2558  -18.8186   28.0013 C   0  0  0  0  0  0  0  0  0  0  0  0
    7.8829  -19.4821   29.1440 C   0  0  0  0  0  0  0  0  0  0  0  0
    8.3294  -18.7692   30.2106 N   0  0  0  0  0  0  0  0  0  0  0  0
    8.9785  -17.6688   29.8211 C   0  0  0  0  0  0  0  0  0  0  0  0
    9.6080  -16.6305   30.4986 C   0  0  0  0  0  0  0  0  0  0  0  0
   10.2053  -15.6016   29.8259 C   0  0  0  0  0  0  0  0  0  0  0  0
   10.1432  -15.6602   28.4452 C   0  0  0  0  0  0  0  0  0  0  0  0
    9.5397  -16.6533   27.7316 C   0  0  0  0  0  0  0  0  0  0  0  0
    8.9374  -17.6910   28.4199 C   0  0  0  0  0  0  0  0  0  0  0  0
    6.7188  -17.6358   25.2484 C   0  0  0  0  0  0  0  0  0  0  0  0
    6.8083  -17.9187   24.0296 O   0  0  0  0  0  0  0  0  0  0  0  0
    6.6002  -12.3389   24.0713 C   0  0  0  0  0  0  0  0  0  0  0  0
    7.8986  -12.7953   24.8087 C   0  0  1  0  0  0  0  0  0  0  0  0
    8.3058  -11.5957   25.6031 C   0  0  0  0  0  0  0  0  0  0  0  0
    7.4928  -13.9971   25.5833 C   0  0  0  0  0  0  0  0  0  0  0  0
    7.1979  -15.2469   24.8481 C   0  0  2  0  0  0  0  0  0  0  0  0
    6.7155  -16.3055   25.6774 N   0  0  0  0  0  0  0  0  0  0  0  0
    8.4104  -15.6771   24.0654 C   0  0  0  0  0  0  0  0  0  0  0  0
    8.2676  -16.1140   22.8911 O   0  0  0  0  0  0  0  0  0  0  0  0
    9.7156  -15.6124   24.5929 N   0  0  0  0  0  0  0  0  0  0  0  0
   10.8492  -16.1849   23.8992 C   0  0  1  0  0  0  0  0  0  0  0  0
   11.0482  -15.6601   22.5150 C   0  0  0  0  0  0  0  0  0  0  0  0
   12.2924  -16.2097   21.8622 C   0  0  0  0  0  0  0  0  0  0  0  0
   12.1479  -16.1041   20.3940 C   0  0  0  0  0  0  0  0  0  0  0  0
   12.2990  -14.9717   19.8166 O   0  0  0  0  0  0  0  0  0  0  0  0
   12.0909  -16.0468   24.7289 C   0  0  0  0  0  0  0  0  0  0  0  0
   12.1280  -15.4789   25.9859 O   0  0  0  0  0  0  0  0  0  0  0  0
   11.8521  -17.1694   19.5502 O   0  0  0  0  0  0  0  0  0  0  0  0
   13.1785  -16.4742   24.2604 O   0  0  0  0  0  0  0  0  0  0  0  0
  2  1  1  6
  3  4  1  0
  3  2  1  0
  4  5  2  0
  6  5  1  0
  7  6  1  0
  8  7  2  0
  9  8  1  0
 10  9  2  0
 10 11  1  0
 11 12  2  0
 12  7  1  0
 12  4  1  0
 13  2  1  0
 13 14  2  0
 16 15  1  1
 16 18  1  0
 17 16  1  0
 19 18  1  1
 19 20  1  0
 19 21  1  0
 20 13  1  0
 21 23  1  0
 21 22  2  0
 23 24  1  0
 24 25  1  6
 24 29  1  0
 26 25  1  0
 27 26  1  0
 28 27  2  0
 29 32  2  0
 29 30  1  0
 31 27  1  0
M  END
$$$$
