WLE.pdb
     RDKit          3D

 32 33  0  0  1  0  0  0  0  0999 V2000
    9.2656  -16.2555   25.2198 N   0  0  0  0  0  0  0  0  0  0  0  0
    7.9661  -16.5316   24.6497 C   0  0  1  0  0  0  0  0  0  0  0  0
    6.8896  -15.6466   25.1890 C   0  0  0  0  0  0  0  0  0  0  0  0
    7.4704  -14.7715   26.2508 C   0  0  0  0  0  0  0  0  0  0  0  0
    8.4432  -15.0981   27.1629 C   0  0  0  0  0  0  0  0  0  0  0  0
    8.6719  -14.0102   27.9436 N   0  0  0  0  0  0  0  0  0  0  0  0
    7.8949  -12.9845   27.5860 C   0  0  0  0  0  0  0  0  0  0  0  0
    7.7404  -11.6839   28.0526 C   0  0  0  0  0  0  0  0  0  0  0  0
    6.8411  -10.8264   27.4834 C   0  0  0  0  0  0  0  0  0  0  0  0
    6.1045  -11.3308   26.4268 C   0  0  0  0  0  0  0  0  0  0  0  0
    6.2158  -12.5960   25.9301 C   0  0  0  0  0  0  0  0  0  0  0  0
    7.1282  -13.4577   26.5118 C   0  0  0  0  0  0  0  0  0  0  0  0
    7.9495  -16.4931   23.1714 C   0  0  0  0  0  0  0  0  0  0  0  0
    6.9931  -17.0550   22.5854 O   0  0  0  0  0  0  0  0  0  0  0  0
    8.1969  -12.3879   19.9074 C   0  0  0  0  0  0  0  0  0  0  0  0
    7.9033  -13.6782   20.7363 C   0  0  1  0  0  0  0  0  0  0  0  0
    6.5016  -14.0395   20.3616 C   0  0  0  0  0  0  0  0  0  0  0  0
    8.9653  -14.6373   20.3345 C   0  0  0  0  0  0  0  0  0  0  0  0
    9.0349  -15.9456   21.0223 C   0  0  2  0  0  0  0  0  0  0  0  0
    8.9596  -15.8550   22.4461 N   0  0  0  0  0  0  0  0  0  0  0  0
   10.2723  -16.6857   20.5880 C   0  0  0  0  0  0  0  0  0  0  0  0
   10.4807  -16.8780   19.3593 O   0  0  0  0  0  0  0  0  0  0  0  0
   11.2215  -17.1796   21.5051 N   0  0  0  0  0  0  0  0  0  0  0  0
   12.4048  -17.8906   21.0714 C   0  0  1  0  0  0  0  0  0  0  0  0
   13.6882  -17.2816   21.5330 C   0  0  0  0  0  0  0  0  0  0  0  0
   13.7771  -15.8099   21.2133 C   0  0  0  0  0  0  0  0  0  0  0  0
   15.0902  -15.3012   21.6658 C   0  0  0  0  0  0  0  0  0  0  0  0
   16.1680  -15.7957   21.1835 O   0  0  0  0  0  0  0  0  0  0  0  0
   12.3100  -19.3387   21.4502 C   0  0  0  0  0  0  0  0  0  0  0  0
   13.2175  -20.3046   21.0663 O   0  0  0  0  0  0  0  0  0  0  0  0
   15.2654  -14.2912   22.6056 O   0  0  0  0  0  0  0  0  0  0  0  0
   11.3442  -19.7116   22.1666 O   0  0  0  0  0  0  0  0  0  0  0  0
  2  1  1  1
  3  4  1  0
  3  2  1  0
  4  5  2  0
  6  5  1  0
  7  6  1  0
  8  7  2  0
  9  8  1  0
 10  9  2  0
 10 11  1  0
 11 12  2  0
 12  7  1  0
 12  4  1  0
 13  2  1  0
 13 14  2  0
 16 15  1  6
 16 18  1  0
 17 16  1  0
 19 18  1  6
 19 20  1  0
 19 21  1  0
 20 13  1  0
 21 23  1  0
 21 22  2  0
 23 24  1  0
 24 25  1  1
 24 29  1  0
 26 25  1  0
 27 26  1  0
 28 27  2  0
 29 32  2  0
 29 30  1  0
 31 27  1  0
M  END
$$$$
