WLE.pdb
     RDKit          3D

 32 33  0  0  1  0  0  0  0  0999 V2000
    7.0833  -17.0573   25.5446 N   0  0  0  0  0  0  0  0  0  0  0  0
    7.6339  -16.0123   24.7110 C   0  0  1  0  0  0  0  0  0  0  0  0
    8.8865  -15.4175   25.2678 C   0  0  0  0  0  0  0  0  0  0  0  0
    8.5333  -14.5466   26.4285 C   0  0  0  0  0  0  0  0  0  0  0  0
    8.8851  -14.7241   27.7436 C   0  0  0  0  0  0  0  0  0  0  0  0
    8.3529  -13.7029   28.4642 N   0  0  0  0  0  0  0  0  0  0  0  0
    7.6686  -12.8630   27.6832 C   0  0  0  0  0  0  0  0  0  0  0  0
    6.9512  -11.6956   27.9190 C   0  0  0  0  0  0  0  0  0  0  0  0
    6.3305  -11.0249   26.9027 C   0  0  0  0  0  0  0  0  0  0  0  0
    6.4613  -11.5765   25.6408 C   0  0  0  0  0  0  0  0  0  0  0  0
    7.1520  -12.7169   25.3542 C   0  0  0  0  0  0  0  0  0  0  0  0
    7.7772  -13.3898   26.3884 C   0  0  0  0  0  0  0  0  0  0  0  0
    7.8603  -16.4315   23.3109 C   0  0  0  0  0  0  0  0  0  0  0  0
    7.6832  -17.6412   23.0298 O   0  0  0  0  0  0  0  0  0  0  0  0
    8.1057  -12.5790   19.2398 C   0  0  0  0  0  0  0  0  0  0  0  0
    7.7133  -13.6175   20.3379 C   0  0  1  0  0  0  0  0  0  0  0  0
    6.2260  -13.7215   20.2244 C   0  0  0  0  0  0  0  0  0  0  0  0
    8.4911  -14.8384   20.0010 C   0  0  0  0  0  0  0  0  0  0  0  0
    8.5597  -15.9311   20.9964 C   0  0  2  0  0  0  0  0  0  0  0  0
    8.2572  -15.5181   22.3302 N   0  0  0  0  0  0  0  0  0  0  0  0
    9.9058  -16.6024   20.9258 C   0  0  0  0  0  0  0  0  0  0  0  0
   10.2577  -17.1757   19.8591 O   0  0  0  0  0  0  0  0  0  0  0  0
   10.8027  -16.6191   22.0126 N   0  0  0  0  0  0  0  0  0  0  0  0
   12.0894  -17.2762   21.9313 C   0  0  1  0  0  0  0  0  0  0  0  0
   13.2308  -16.4501   22.4270 C   0  0  0  0  0  0  0  0  0  0  0  0
   14.5315  -17.2142   22.4459 C   0  0  0  0  0  0  0  0  0  0  0  0
   15.6520  -16.2491   22.4770 C   0  0  0  0  0  0  0  0  0  0  0  0
   15.4157  -14.9998   22.6256 O   0  0  0  0  0  0  0  0  0  0  0  0
   12.0353  -18.6122   22.6105 C   0  0  0  0  0  0  0  0  0  0  0  0
   11.3479  -18.8634   23.7804 O   0  0  0  0  0  0  0  0  0  0  0  0
   16.9943  -16.5923   22.3561 O   0  0  0  0  0  0  0  0  0  0  0  0
   12.6522  -19.5780   22.0893 O   0  0  0  0  0  0  0  0  0  0  0  0
  2  1  1  1
  3  4  1  0
  3  2  1  0
  4  5  2  0
  6  5  1  0
  7  6  1  0
  8  7  2  0
  9  8  1  0
 10  9  2  0
 10 11  1  0
 11 12  2  0
 12  7  1  0
 12  4  1  0
 13  2  1  0
 13 14  2  0
 16 15  1  6
 16 18  1  0
 17 16  1  0
 19 18  1  6
 19 20  1  0
 19 21  1  0
 20 13  1  0
 21 23  1  0
 21 22  2  0
 23 24  1  0
 24 25  1  1
 24 29  1  0
 26 25  1  0
 27 26  1  0
 28 27  2  0
 29 32  2  0
 29 30  1  0
 31 27  1  0
M  END
$$$$
