WLE.pdb
     RDKit          3D

 32 33  0  0  1  0  0  0  0  0999 V2000
    5.8087  -17.1528   24.2626 N   0  0  0  0  0  0  0  0  0  0  0  0
    6.8184  -16.3381   23.6247 C   0  0  1  0  0  0  0  0  0  0  0  0
    7.7950  -15.7515   24.5917 C   0  0  0  0  0  0  0  0  0  0  0  0
    7.0525  -14.9114   25.5784 C   0  0  0  0  0  0  0  0  0  0  0  0
    6.0442  -15.3079   26.4217 C   0  0  0  0  0  0  0  0  0  0  0  0
    5.6512  -14.2282   27.1462 N   0  0  0  0  0  0  0  0  0  0  0  0
    6.3549  -13.1414   26.8180 C   0  0  0  0  0  0  0  0  0  0  0  0
    6.3436  -11.8195   27.2488 C   0  0  0  0  0  0  0  0  0  0  0  0
    7.1975  -10.8923   26.7205 C   0  0  0  0  0  0  0  0  0  0  0  0
    8.0622  -11.3493   25.7423 C   0  0  0  0  0  0  0  0  0  0  0  0
    8.1152  -12.6325   25.2836 C   0  0  0  0  0  0  0  0  0  0  0  0
    7.2475  -13.5648   25.8233 C   0  0  0  0  0  0  0  0  0  0  0  0
    7.5459  -17.0382   22.5440 C   0  0  0  0  0  0  0  0  0  0  0  0
    6.9826  -18.0212   22.0053 O   0  0  0  0  0  0  0  0  0  0  0  0
    6.9803  -13.9235   18.9746 C   0  0  0  0  0  0  0  0  0  0  0  0
    8.3681  -13.7569   19.6705 C   0  0  1  0  0  0  0  0  0  0  0  0
    8.4960  -12.2815   19.8771 C   0  0  0  0  0  0  0  0  0  0  0  0
    8.2811  -14.5931   20.8962 C   0  0  0  0  0  0  0  0  0  0  0  0
    9.0105  -15.8801   20.9284 C   0  0  2  0  0  0  0  0  0  0  0  0
    8.8160  -16.6250   22.1319 N   0  0  0  0  0  0  0  0  0  0  0  0
   10.4742  -15.6442   20.6642 C   0  0  0  0  0  0  0  0  0  0  0  0
   10.8385  -15.2065   19.5391 O   0  0  0  0  0  0  0  0  0  0  0  0
   11.4690  -15.8935   21.6307 N   0  0  0  0  0  0  0  0  0  0  0  0
   12.5978  -16.7574   21.3599 C   0  0  1  0  0  0  0  0  0  0  0  0
   13.4022  -16.3573   20.1666 C   0  0  0  0  0  0  0  0  0  0  0  0
   13.7935  -14.9005   20.1958 C   0  0  0  0  0  0  0  0  0  0  0  0
   14.6973  -14.6258   19.0577 C   0  0  0  0  0  0  0  0  0  0  0  0
   14.2964  -13.8972   18.0845 O   0  0  0  0  0  0  0  0  0  0  0  0
   13.4527  -16.8959   22.5843 C   0  0  0  0  0  0  0  0  0  0  0  0
   13.2176  -16.2410   23.7759 O   0  0  0  0  0  0  0  0  0  0  0  0
   15.9976  -15.1067   18.9469 O   0  0  0  0  0  0  0  0  0  0  0  0
   14.4539  -17.6577   22.5365 O   0  0  0  0  0  0  0  0  0  0  0  0
  2  1  1  1
  3  4  1  0
  3  2  1  0
  4  5  2  0
  6  5  1  0
  7  6  1  0
  8  7  2  0
  9  8  1  0
 10  9  2  0
 10 11  1  0
 11 12  2  0
 12  7  1  0
 12  4  1  0
 13  2  1  0
 13 14  2  0
 16 15  1  6
 16 18  1  0
 17 16  1  0
 19 18  1  1
 19 20  1  0
 19 21  1  0
 20 13  1  0
 21 23  1  0
 21 22  2  0
 23 24  1  0
 24 25  1  6
 24 29  1  0
 26 25  1  0
 27 26  1  0
 28 27  2  0
 29 32  2  0
 29 30  1  0
 31 27  1  0
M  END
$$$$
