WLE.pdb
     RDKit          3D

 32 33  0  0  1  0  0  0  0  0999 V2000
    6.3171  -18.3074   24.5294 N   0  0  0  0  0  0  0  0  0  0  0  0
    6.8404  -16.9622   24.4468 C   0  0  1  0  0  0  0  0  0  0  0  0
    7.3292  -16.4421   25.7596 C   0  0  0  0  0  0  0  0  0  0  0  0
    6.5712  -15.2011   26.1000 C   0  0  0  0  0  0  0  0  0  0  0  0
    5.2184  -15.0764   26.2982 C   0  0  0  0  0  0  0  0  0  0  0  0
    4.9522  -13.7756   26.5850 N   0  0  0  0  0  0  0  0  0  0  0  0
    6.0674  -13.0407   26.5849 C   0  0  0  0  0  0  0  0  0  0  0  0
    6.3348  -11.6948   26.8091 C   0  0  0  0  0  0  0  0  0  0  0  0
    7.6074  -11.2014   26.7387 C   0  0  0  0  0  0  0  0  0  0  0  0
    8.5987  -12.1168   26.4338 C   0  0  0  0  0  0  0  0  0  0  0  0
    8.3921  -13.4453   26.2051 C   0  0  0  0  0  0  0  0  0  0  0  0
    7.1012  -13.9367   26.2781 C   0  0  0  0  0  0  0  0  0  0  0  0
    7.8949  -16.8006   23.4224 C   0  0  0  0  0  0  0  0  0  0  0  0
    8.6314  -17.7879   23.1848 O   0  0  0  0  0  0  0  0  0  0  0  0
    6.6272  -14.1454   20.9676 C   0  0  0  0  0  0  0  0  0  0  0  0
    7.9070  -13.9783   20.0887 C   0  0  1  0  0  0  0  0  0  0  0  0
    7.7495  -12.6255   19.4715 C   0  0  0  0  0  0  0  0  0  0  0  0
    9.0414  -14.1480   21.0339 C   0  0  0  0  0  0  0  0  0  0  0  0
    9.1366  -15.4061   21.8069 C   0  0  2  0  0  0  0  0  0  0  0  0
    8.0703  -15.5941   22.7390 N   0  0  0  0  0  0  0  0  0  0  0  0
   10.4769  -15.4864   22.4887 C   0  0  0  0  0  0  0  0  0  0  0  0
   10.9211  -14.4791   23.1038 O   0  0  0  0  0  0  0  0  0  0  0  0
   11.2682  -16.6524   22.4707 N   0  0  0  0  0  0  0  0  0  0  0  0
   12.5955  -16.6838   23.0462 C   0  0  1  0  0  0  0  0  0  0  0  0
   12.7105  -17.5275   24.2734 C   0  0  0  0  0  0  0  0  0  0  0  0
   11.8818  -18.7855   24.1894 C   0  0  0  0  0  0  0  0  0  0  0  0
   12.1628  -19.6228   25.3759 C   0  0  0  0  0  0  0  0  0  0  0  0
   11.4688  -20.6761   25.5937 O   0  0  0  0  0  0  0  0  0  0  0  0
   13.6040  -17.0750   22.0074 C   0  0  0  0  0  0  0  0  0  0  0  0
   13.2841  -17.5350   20.7464 O   0  0  0  0  0  0  0  0  0  0  0  0
   13.1555  -19.3577   26.3131 O   0  0  0  0  0  0  0  0  0  0  0  0
   14.8271  -16.9815   22.2905 O   0  0  0  0  0  0  0  0  0  0  0  0
  2  1  1  1
  3  4  1  0
  3  2  1  0
  4  5  2  0
  6  5  1  0
  7  6  1  0
  8  7  2  0
  9  8  1  0
 10  9  2  0
 10 11  1  0
 11 12  2  0
 12  7  1  0
 12  4  1  0
 13  2  1  0
 13 14  2  0
 16 15  1  1
 16 18  1  0
 17 16  1  0
 19 18  1  1
 19 20  1  0
 19 21  1  0
 20 13  1  0
 21 23  1  0
 21 22  2  0
 23 24  1  0
 24 25  1  1
 24 29  1  0
 26 25  1  0
 27 26  1  0
 28 27  2  0
 29 32  2  0
 29 30  1  0
 31 27  1  0
M  END
$$$$
