WLE.pdb
     RDKit          3D

 32 33  0  0  1  0  0  0  0  0999 V2000
    6.6782  -18.0642   24.9600 N   0  0  0  0  0  0  0  0  0  0  0  0
    7.2197  -16.7470   24.7114 C   0  0  1  0  0  0  0  0  0  0  0  0
    8.4431  -16.4545   25.5180 C   0  0  0  0  0  0  0  0  0  0  0  0
    8.0494  -15.6686   26.7253 C   0  0  0  0  0  0  0  0  0  0  0  0
    8.1288  -16.0594   28.0391 C   0  0  0  0  0  0  0  0  0  0  0  0
    7.6650  -15.0422   28.8106 N   0  0  0  0  0  0  0  0  0  0  0  0
    7.2852  -14.0016   28.0645 C   0  0  0  0  0  0  0  0  0  0  0  0
    6.7522  -12.7507   28.3551 C   0  0  0  0  0  0  0  0  0  0  0  0
    6.4458  -11.8608   27.3641 C   0  0  0  0  0  0  0  0  0  0  0  0
    6.6975  -12.2806   26.0703 C   0  0  0  0  0  0  0  0  0  0  0  0
    7.2181  -13.4942   25.7299 C   0  0  0  0  0  0  0  0  0  0  0  0
    7.5254  -14.3893   26.7388 C   0  0  0  0  0  0  0  0  0  0  0  0
    7.4889  -16.4792   23.2820 C   0  0  0  0  0  0  0  0  0  0  0  0
    7.5644  -17.4649   22.5096 O   0  0  0  0  0  0  0  0  0  0  0  0
    7.0248  -13.3539   18.9627 C   0  0  0  0  0  0  0  0  0  0  0  0
    8.3706  -13.0815   19.7062 C   0  0  1  0  0  0  0  0  0  0  0  0
    8.6349  -11.6307   19.4587 C   0  0  0  0  0  0  0  0  0  0  0  0
    8.1128  -13.4776   21.1153 C   0  0  0  0  0  0  0  0  0  0  0  0
    7.9395  -14.9138   21.4265 C   0  0  2  0  0  0  0  0  0  0  0  0
    7.6541  -15.1772   22.8014 N   0  0  0  0  0  0  0  0  0  0  0  0
    9.1464  -15.6860   20.9628 C   0  0  0  0  0  0  0  0  0  0  0  0
    9.0487  -16.4471   19.9621 O   0  0  0  0  0  0  0  0  0  0  0  0
   10.3974  -15.5952   21.6052 N   0  0  0  0  0  0  0  0  0  0  0  0
   11.4863  -16.4937   21.2875 C   0  0  1  0  0  0  0  0  0  0  0  0
   12.3332  -16.0474   20.1410 C   0  0  0  0  0  0  0  0  0  0  0  0
   12.7820  -14.6136   20.2780 C   0  0  0  0  0  0  0  0  0  0  0  0
   13.6756  -14.2825   19.1469 C   0  0  0  0  0  0  0  0  0  0  0  0
   13.2032  -14.2086   17.9594 O   0  0  0  0  0  0  0  0  0  0  0  0
   12.3088  -16.7677   22.5113 C   0  0  0  0  0  0  0  0  0  0  0  0
   12.0330  -16.2598   23.7643 O   0  0  0  0  0  0  0  0  0  0  0  0
   15.0387  -14.0325   19.2634 O   0  0  0  0  0  0  0  0  0  0  0  0
   13.3202  -17.5096   22.4032 O   0  0  0  0  0  0  0  0  0  0  0  0
  2  1  1  6
  3  4  1  0
  3  2  1  0
  4  5  2  0
  6  5  1  0
  7  6  1  0
  8  7  2  0
  9  8  1  0
 10  9  2  0
 10 11  1  0
 11 12  2  0
 12  7  1  0
 12  4  1  0
 13  2  1  0
 13 14  2  0
 16 15  1  6
 16 18  1  0
 17 16  1  0
 19 18  1  1
 19 20  1  0
 19 21  1  0
 20 13  1  0
 21 23  1  0
 21 22  2  0
 23 24  1  0
 24 25  1  6
 24 29  1  0
 26 25  1  0
 27 26  1  0
 28 27  2  0
 29 32  2  0
 29 30  1  0
 31 27  1  0
M  END
$$$$
