WLE.pdb
     RDKit          3D

 32 33  0  0  1  0  0  0  0  0999 V2000
    5.9261  -17.8550   24.2527 N   0  0  0  0  0  0  0  0  0  0  0  0
    6.8161  -16.7319   24.0614 C   0  0  1  0  0  0  0  0  0  0  0  0
    7.7242  -16.4990   25.2250 C   0  0  0  0  0  0  0  0  0  0  0  0
    7.0922  -15.5011   26.1388 C   0  0  0  0  0  0  0  0  0  0  0  0
    6.1288  -15.7316   27.0894 C   0  0  0  0  0  0  0  0  0  0  0  0
    5.8375  -14.5486   27.6902 N   0  0  0  0  0  0  0  0  0  0  0  0
    6.5653  -13.5524   27.1787 C   0  0  0  0  0  0  0  0  0  0  0  0
    6.6448  -12.1878   27.4329 C   0  0  0  0  0  0  0  0  0  0  0  0
    7.5009  -11.3832   26.7345 C   0  0  0  0  0  0  0  0  0  0  0  0
    8.2728  -12.0074   25.7711 C   0  0  0  0  0  0  0  0  0  0  0  0
    8.2346  -13.3395   25.4816 C   0  0  0  0  0  0  0  0  0  0  0  0
    7.3654  -14.1469   26.1928 C   0  0  0  0  0  0  0  0  0  0  0  0
    7.6110  -16.8137   22.8168 C   0  0  0  0  0  0  0  0  0  0  0  0
    7.8735  -17.9553   22.3680 O   0  0  0  0  0  0  0  0  0  0  0  0
    7.3737  -12.8214   20.8825 C   0  0  0  0  0  0  0  0  0  0  0  0
    7.8794  -13.7613   19.7428 C   0  0  1  0  0  0  0  0  0  0  0  0
    8.1221  -12.8383   18.5917 C   0  0  0  0  0  0  0  0  0  0  0  0
    9.0732  -14.4397   20.3119 C   0  0  0  0  0  0  0  0  0  0  0  0
    8.8895  -15.7369   20.9995 C   0  0  2  0  0  0  0  0  0  0  0  0
    8.0571  -15.6643   22.1584 N   0  0  0  0  0  0  0  0  0  0  0  0
   10.2318  -16.3346   21.3294 C   0  0  0  0  0  0  0  0  0  0  0  0
   10.9125  -16.8732   20.4146 O   0  0  0  0  0  0  0  0  0  0  0  0
   10.7695  -16.3188   22.6320 N   0  0  0  0  0  0  0  0  0  0  0  0
   11.9706  -17.0507   22.9715 C   0  0  1  0  0  0  0  0  0  0  0  0
   13.2109  -16.2186   22.9851 C   0  0  0  0  0  0  0  0  0  0  0  0
   13.6412  -15.8004   21.6009 C   0  0  0  0  0  0  0  0  0  0  0  0
   15.0420  -15.3289   21.6581 C   0  0  0  0  0  0  0  0  0  0  0  0
   15.4024  -14.5050   22.5691 O   0  0  0  0  0  0  0  0  0  0  0  0
   11.7829  -17.7880   24.2640 C   0  0  0  0  0  0  0  0  0  0  0  0
   12.6923  -18.6837   24.7883 O   0  0  0  0  0  0  0  0  0  0  0  0
   16.0437  -15.7182   20.7754 O   0  0  0  0  0  0  0  0  0  0  0  0
   10.7312  -17.5852   24.9256 O   0  0  0  0  0  0  0  0  0  0  0  0
  2  1  1  1
  3  4  1  0
  3  2  1  0
  4  5  2  0
  6  5  1  0
  7  6  1  0
  8  7  2  0
  9  8  1  0
 10  9  2  0
 10 11  1  0
 11 12  2  0
 12  7  1  0
 12  4  1  0
 13  2  1  0
 13 14  2  0
 16 15  1  1
 16 18  1  0
 17 16  1  0
 19 18  1  1
 19 20  1  0
 19 21  1  0
 20 13  1  0
 21 23  1  0
 21 22  2  0
 23 24  1  0
 24 25  1  1
 24 29  1  0
 26 25  1  0
 27 26  1  0
 28 27  2  0
 29 32  2  0
 29 30  1  0
 31 27  1  0
M  END
$$$$
