WLE.pdb
     RDKit          3D

 32 33  0  0  1  0  0  0  0  0999 V2000
    6.1264  -18.1611   24.4781 N   0  0  0  0  0  0  0  0  0  0  0  0
    6.7854  -16.8772   24.3935 C   0  0  1  0  0  0  0  0  0  0  0  0
    7.4491  -16.4739   25.6701 C   0  0  0  0  0  0  0  0  0  0  0  0
    6.7974  -15.2315   26.1820 C   0  0  0  0  0  0  0  0  0  0  0  0
    5.5407  -15.1087   26.7211 C   0  0  0  0  0  0  0  0  0  0  0  0
    5.3498  -13.8056   27.0538 N   0  0  0  0  0  0  0  0  0  0  0  0
    6.4230  -13.0673   26.7586 C   0  0  0  0  0  0  0  0  0  0  0  0
    6.7313  -11.7182   26.8927 C   0  0  0  0  0  0  0  0  0  0  0  0
    7.9399  -11.2218   26.4915 C   0  0  0  0  0  0  0  0  0  0  0  0
    8.8244  -12.1375   25.9505 C   0  0  0  0  0  0  0  0  0  0  0  0
    8.5735  -13.4691   25.7962 C   0  0  0  0  0  0  0  0  0  0  0  0
    7.3479  -13.9636   26.2046 C   0  0  0  0  0  0  0  0  0  0  0  0
    7.7511  -16.7815   23.2774 C   0  0  0  0  0  0  0  0  0  0  0  0
    8.4183  -17.8059   22.9958 O   0  0  0  0  0  0  0  0  0  0  0  0
    7.9539  -12.1905   19.8358 C   0  0  0  0  0  0  0  0  0  0  0  0
    7.6220  -13.6248   20.3559 C   0  0  1  0  0  0  0  0  0  0  0  0
    7.0390  -14.3169   19.1656 C   0  0  0  0  0  0  0  0  0  0  0  0
    8.9153  -14.1535   20.8629 C   0  0  0  0  0  0  0  0  0  0  0  0
    8.9240  -15.4641   21.5496 C   0  0  2  0  0  0  0  0  0  0  0  0
    7.9198  -15.5956   22.5573 N   0  0  0  0  0  0  0  0  0  0  0  0
   10.2953  -15.7391   22.1078 C   0  0  0  0  0  0  0  0  0  0  0  0
   10.7460  -15.0101   23.0328 O   0  0  0  0  0  0  0  0  0  0  0  0
   11.1091  -16.7890   21.6370 N   0  0  0  0  0  0  0  0  0  0  0  0
   12.3887  -17.0931   22.2402 C   0  0  1  0  0  0  0  0  0  0  0  0
   12.4793  -18.4646   22.8247 C   0  0  0  0  0  0  0  0  0  0  0  0
   13.3848  -18.5203   24.0301 C   0  0  0  0  0  0  0  0  0  0  0  0
   13.4391  -19.9138   24.5228 C   0  0  0  0  0  0  0  0  0  0  0  0
   14.2633  -20.2327   25.4490 O   0  0  0  0  0  0  0  0  0  0  0  0
   13.4986  -16.8306   21.2662 C   0  0  0  0  0  0  0  0  0  0  0  0
   14.6885  -16.2115   21.5904 O   0  0  0  0  0  0  0  0  0  0  0  0
   12.6408  -20.9505   24.0515 O   0  0  0  0  0  0  0  0  0  0  0  0
   13.3490  -17.1950   20.0705 O   0  0  0  0  0  0  0  0  0  0  0  0
  2  1  1  1
  3  4  1  0
  3  2  1  0
  4  5  2  0
  6  5  1  0
  7  6  1  0
  8  7  2  0
  9  8  1  0
 10  9  2  0
 10 11  1  0
 11 12  2  0
 12  7  1  0
 12  4  1  0
 13  2  1  0
 13 14  2  0
 16 15  1  6
 16 18  1  0
 17 16  1  0
 19 18  1  1
 19 20  1  0
 19 21  1  0
 20 13  1  0
 21 23  1  0
 21 22  2  0
 23 24  1  0
 24 25  1  6
 24 29  1  0
 26 25  1  0
 27 26  1  0
 28 27  2  0
 29 32  2  0
 29 30  1  0
 31 27  1  0
M  END
$$$$
