WLE.pdb
     RDKit          3D

 32 33  0  0  1  0  0  0  0  0999 V2000
    6.8684  -18.4864   26.8610 N   0  0  0  0  0  0  0  0  0  0  0  0
    7.7097  -17.5141   26.2001 C   0  0  1  0  0  0  0  0  0  0  0  0
    9.1641  -17.8480   26.2786 C   0  0  0  0  0  0  0  0  0  0  0  0
    9.7403  -17.2127   27.5013 C   0  0  0  0  0  0  0  0  0  0  0  0
   10.1511  -17.8375   28.6527 C   0  0  0  0  0  0  0  0  0  0  0  0
   10.6069  -16.8866   29.5091 N   0  0  0  0  0  0  0  0  0  0  0  0
   10.5149  -15.6667   28.9731 C   0  0  0  0  0  0  0  0  0  0  0  0
   10.8337  -14.3901   29.4223 C   0  0  0  0  0  0  0  0  0  0  0  0
   10.6241  -13.2885   28.6409 C   0  0  0  0  0  0  0  0  0  0  0  0
   10.0814  -13.5240   27.3905 C   0  0  0  0  0  0  0  0  0  0  0  0
    9.7508  -14.7532   26.9009 C   0  0  0  0  0  0  0  0  0  0  0  0
    9.9659  -15.8630   27.6981 C   0  0  0  0  0  0  0  0  0  0  0  0
    7.3305  -17.2647   24.7925 C   0  0  0  0  0  0  0  0  0  0  0  0
    6.8031  -18.2084   24.1561 O   0  0  0  0  0  0  0  0  0  0  0  0
    7.1214  -12.0194   22.6751 C   0  0  0  0  0  0  0  0  0  0  0  0
    7.2542  -13.3711   23.4455 C   0  0  1  0  0  0  0  0  0  0  0  0
    6.1440  -13.3294   24.4461 C   0  0  0  0  0  0  0  0  0  0  0  0
    7.1607  -14.4178   22.3944 C   0  0  0  0  0  0  0  0  0  0  0  0
    7.3650  -15.8310   22.7826 C   0  0  2  0  0  0  0  0  0  0  0  0
    7.5485  -16.0244   24.1862 N   0  0  0  0  0  0  0  0  0  0  0  0
    8.5093  -16.4159   21.9977 C   0  0  0  0  0  0  0  0  0  0  0  0
    8.4036  -16.5416   20.7474 O   0  0  0  0  0  0  0  0  0  0  0  0
    9.7099  -16.8346   22.6054 N   0  0  0  0  0  0  0  0  0  0  0  0
   10.7909  -17.4173   21.8400 C   0  0  1  0  0  0  0  0  0  0  0  0
   11.9170  -16.4774   21.5582 C   0  0  0  0  0  0  0  0  0  0  0  0
   12.6959  -16.1202   22.7999 C   0  0  0  0  0  0  0  0  0  0  0  0
   13.8384  -15.2625   22.4169 C   0  0  0  0  0  0  0  0  0  0  0  0
   14.0451  -14.9858   21.1843 O   0  0  0  0  0  0  0  0  0  0  0  0
   11.2712  -18.6783   22.4944 C   0  0  0  0  0  0  0  0  0  0  0  0
   12.1452  -19.5733   21.9120 O   0  0  0  0  0  0  0  0  0  0  0  0
   14.7441  -14.7056   23.3135 O   0  0  0  0  0  0  0  0  0  0  0  0
   10.8588  -18.9505   23.6523 O   0  0  0  0  0  0  0  0  0  0  0  0
  2  1  1  6
  3  4  1  0
  3  2  1  0
  4  5  2  0
  6  5  1  0
  7  6  1  0
  8  7  2  0
  9  8  1  0
 10  9  2  0
 10 11  1  0
 11 12  2  0
 12  7  1  0
 12  4  1  0
 13  2  1  0
 13 14  2  0
 16 15  1  6
 16 18  1  0
 17 16  1  0
 19 18  1  1
 19 20  1  0
 19 21  1  0
 20 13  1  0
 21 23  1  0
 21 22  2  0
 23 24  1  0
 24 25  1  1
 24 29  1  0
 26 25  1  0
 27 26  1  0
 28 27  2  0
 29 32  2  0
 29 30  1  0
 31 27  1  0
M  END
$$$$
