WLE.pdb
     RDKit          3D

 32 33  0  0  1  0  0  0  0  0999 V2000
    6.0282  -18.1405   23.8929 N   0  0  0  0  0  0  0  0  0  0  0  0
    6.7810  -16.9090   23.8119 C   0  0  1  0  0  0  0  0  0  0  0  0
    7.6142  -16.6506   25.0252 C   0  0  0  0  0  0  0  0  0  0  0  0
    7.0049  -15.5284   25.7997 C   0  0  0  0  0  0  0  0  0  0  0  0
    5.8138  -15.5347   26.4825 C   0  0  0  0  0  0  0  0  0  0  0  0
    5.6418  -14.3089   27.0420 N   0  0  0  0  0  0  0  0  0  0  0  0
    6.6648  -13.4984   26.7586 C   0  0  0  0  0  0  0  0  0  0  0  0
    6.9663  -12.1790   27.0775 C   0  0  0  0  0  0  0  0  0  0  0  0
    8.1156  -11.5856   26.6361 C   0  0  0  0  0  0  0  0  0  0  0  0
    8.9482  -12.3733   25.8616 C   0  0  0  0  0  0  0  0  0  0  0  0
    8.7014  -13.6702   25.5195 C   0  0  0  0  0  0  0  0  0  0  0  0
    7.5359  -14.2634   25.9702 C   0  0  0  0  0  0  0  0  0  0  0  0
    7.6216  -16.8094   22.5991 C   0  0  0  0  0  0  0  0  0  0  0  0
    7.8673  -17.8682   21.9729 O   0  0  0  0  0  0  0  0  0  0  0  0
    8.0257  -11.9690   19.7946 C   0  0  0  0  0  0  0  0  0  0  0  0
    7.6378  -13.3995   20.2857 C   0  0  1  0  0  0  0  0  0  0  0  0
    6.6597  -13.8818   19.2628 C   0  0  0  0  0  0  0  0  0  0  0  0
    8.9267  -14.1348   20.3693 C   0  0  0  0  0  0  0  0  0  0  0  0
    8.9359  -15.4795   20.9865 C   0  0  2  0  0  0  0  0  0  0  0  0
    8.1275  -15.5827   22.1599 N   0  0  0  0  0  0  0  0  0  0  0  0
   10.3538  -15.9051   21.2625 C   0  0  0  0  0  0  0  0  0  0  0  0
   11.2336  -15.7447   20.3734 O   0  0  0  0  0  0  0  0  0  0  0  0
   10.7478  -16.4820   22.4864 N   0  0  0  0  0  0  0  0  0  0  0  0
   12.1241  -16.8391   22.7547 C   0  0  1  0  0  0  0  0  0  0  0  0
   12.3966  -17.1986   24.1786 C   0  0  0  0  0  0  0  0  0  0  0  0
   11.8530  -16.1770   25.1466 C   0  0  0  0  0  0  0  0  0  0  0  0
   12.1534  -16.6186   26.5259 C   0  0  0  0  0  0  0  0  0  0  0  0
   13.1574  -17.3809   26.7487 O   0  0  0  0  0  0  0  0  0  0  0  0
   12.5750  -17.9168   21.8143 C   0  0  0  0  0  0  0  0  0  0  0  0
   13.8847  -18.3273   21.6714 O   0  0  0  0  0  0  0  0  0  0  0  0
   11.4132  -16.2634   27.6485 O   0  0  0  0  0  0  0  0  0  0  0  0
   11.7121  -18.4948   21.1028 O   0  0  0  0  0  0  0  0  0  0  0  0
  2  1  1  1
  3  4  1  0
  3  2  1  0
  4  5  2  0
  6  5  1  0
  7  6  1  0
  8  7  2  0
  9  8  1  0
 10  9  2  0
 10 11  1  0
 11 12  2  0
 12  7  1  0
 12  4  1  0
 13  2  1  0
 13 14  2  0
 16 15  1  6
 16 18  1  0
 17 16  1  0
 19 18  1  1
 19 20  1  0
 19 21  1  0
 20 13  1  0
 21 23  1  0
 21 22  2  0
 23 24  1  0
 24 25  1  1
 24 29  1  0
 26 25  1  0
 27 26  1  0
 28 27  2  0
 29 32  2  0
 29 30  1  0
 31 27  1  0
M  END
$$$$
