WLE.pdb
     RDKit          3D

 32 33  0  0  1  0  0  0  0  0999 V2000
   10.7771  -16.9614   21.3619 N   0  0  0  0  0  0  0  0  0  0  0  0
    9.6143  -16.2615   21.8602 C   0  0  1  0  0  0  0  0  0  0  0  0
    8.3276  -16.9250   21.4899 C   0  0  0  0  0  0  0  0  0  0  0  0
    7.6568  -16.1187   20.4268 C   0  0  0  0  0  0  0  0  0  0  0  0
    6.7908  -16.5666   19.4601 C   0  0  0  0  0  0  0  0  0  0  0  0
    6.4199  -15.5032   18.7005 N   0  0  0  0  0  0  0  0  0  0  0  0
    7.0017  -14.3780   19.1240 C   0  0  0  0  0  0  0  0  0  0  0  0
    6.9600  -13.0537   18.7025 C   0  0  0  0  0  0  0  0  0  0  0  0
    7.6809  -12.0822   19.3384 C   0  0  0  0  0  0  0  0  0  0  0  0
    8.4446  -12.4974   20.4145 C   0  0  0  0  0  0  0  0  0  0  0  0
    8.5218  -13.7808   20.8691 C   0  0  0  0  0  0  0  0  0  0  0  0
    7.7892  -14.7582   20.2199 C   0  0  0  0  0  0  0  0  0  0  0  0
    9.6499  -16.0214   23.3191 C   0  0  0  0  0  0  0  0  0  0  0  0
   10.5496  -16.5925   23.9811 O   0  0  0  0  0  0  0  0  0  0  0  0
    9.1238  -12.7427   27.4619 C   0  0  0  0  0  0  0  0  0  0  0  0
    7.7765  -13.4933   27.2181 C   0  0  1  0  0  0  0  0  0  0  0  0
    6.7313  -12.5057   27.6283 C   0  0  0  0  0  0  0  0  0  0  0  0
    7.8060  -13.8689   25.7803 C   0  0  0  0  0  0  0  0  0  0  0  0
    8.8533  -14.8047   25.3145 C   0  0  2  0  0  0  0  0  0  0  0  0
    8.7180  -15.1888   23.9451 N   0  0  0  0  0  0  0  0  0  0  0  0
    8.8993  -16.0097   26.2165 C   0  0  0  0  0  0  0  0  0  0  0  0
    7.8982  -16.7738   26.2821 O   0  0  0  0  0  0  0  0  0  0  0  0
   10.0260  -16.3269   27.0013 N   0  0  0  0  0  0  0  0  0  0  0  0
   10.1477  -17.5961   27.6854 C   0  0  1  0  0  0  0  0  0  0  0  0
   11.0919  -18.5536   27.0353 C   0  0  0  0  0  0  0  0  0  0  0  0
   11.2557  -19.8290   27.8243 C   0  0  0  0  0  0  0  0  0  0  0  0
   12.2421  -20.6918   27.1384 C   0  0  0  0  0  0  0  0  0  0  0  0
   11.8494  -21.5458   26.2694 O   0  0  0  0  0  0  0  0  0  0  0  0
   10.4858  -17.3782   29.1303 C   0  0  0  0  0  0  0  0  0  0  0  0
   10.4304  -18.3593   30.0991 O   0  0  0  0  0  0  0  0  0  0  0  0
   13.6144  -20.6552   27.3613 O   0  0  0  0  0  0  0  0  0  0  0  0
   10.8468  -16.2294   29.4975 O   0  0  0  0  0  0  0  0  0  0  0  0
  2  1  1  1
  3  4  1  0
  3  2  1  0
  4  5  2  0
  6  5  1  0
  7  6  1  0
  8  7  2  0
  9  8  1  0
 10  9  2  0
 10 11  1  0
 11 12  2  0
 12  7  1  0
 12  4  1  0
 13  2  1  0
 13 14  2  0
 16 15  1  6
 16 18  1  0
 17 16  1  0
 19 18  1  1
 19 20  1  0
 19 21  1  0
 20 13  1  0
 21 23  1  0
 21 22  2  0
 23 24  1  0
 24 25  1  6
 24 29  1  0
 26 25  1  0
 27 26  1  0
 28 27  2  0
 29 32  2  0
 29 30  1  0
 31 27  1  0
M  END
$$$$
