WLE.pdb
     RDKit          3D

 32 33  0  0  1  0  0  0  0  0999 V2000
    6.5212  -18.3862   24.9030 N   0  0  0  0  0  0  0  0  0  0  0  0
    6.9617  -17.1364   24.3249 C   0  0  1  0  0  0  0  0  0  0  0  0
    7.9118  -16.3877   25.2021 C   0  0  0  0  0  0  0  0  0  0  0  0
    7.2543  -15.1283   25.6624 C   0  0  0  0  0  0  0  0  0  0  0  0
    5.9211  -14.9289   25.9228 C   0  0  0  0  0  0  0  0  0  0  0  0
    5.7561  -13.6387   26.3144 N   0  0  0  0  0  0  0  0  0  0  0  0
    6.9191  -12.9819   26.3237 C   0  0  0  0  0  0  0  0  0  0  0  0
    7.2871  -11.6778   26.6350 C   0  0  0  0  0  0  0  0  0  0  0  0
    8.5877  -11.2666   26.5503 C   0  0  0  0  0  0  0  0  0  0  0  0
    9.5018  -12.2204   26.1400 C   0  0  0  0  0  0  0  0  0  0  0  0
    9.1955  -13.5109   25.8231 C   0  0  0  0  0  0  0  0  0  0  0  0
    7.8768  -13.9191   25.9113 C   0  0  0  0  0  0  0  0  0  0  0  0
    7.5417  -17.2834   22.9724 C   0  0  0  0  0  0  0  0  0  0  0  0
    7.9234  -18.4265   22.6240 O   0  0  0  0  0  0  0  0  0  0  0  0
    9.3631  -13.5610   20.1916 C   0  0  0  0  0  0  0  0  0  0  0  0
    7.8331  -13.8574   20.2888 C   0  0  1  0  0  0  0  0  0  0  0  0
    7.2061  -12.8214   19.4118 C   0  0  0  0  0  0  0  0  0  0  0  0
    7.6917  -15.2707   19.8509 C   0  0  0  0  0  0  0  0  0  0  0  0
    8.1361  -16.3437   20.7678 C   0  0  2  0  0  0  0  0  0  0  0  0
    7.6632  -16.1922   22.1074 N   0  0  0  0  0  0  0  0  0  0  0  0
    9.6371  -16.4591   20.7295 C   0  0  0  0  0  0  0  0  0  0  0  0
   10.2279  -16.4976   19.6162 O   0  0  0  0  0  0  0  0  0  0  0  0
   10.4224  -16.5265   21.8978 N   0  0  0  0  0  0  0  0  0  0  0  0
   11.8679  -16.5654   21.8453 C   0  0  1  0  0  0  0  0  0  0  0  0
   12.4852  -15.4137   21.1219 C   0  0  0  0  0  0  0  0  0  0  0  0
   13.9903  -15.5040   21.0696 C   0  0  0  0  0  0  0  0  0  0  0  0
   14.5000  -14.4597   20.1545 C   0  0  0  0  0  0  0  0  0  0  0  0
   15.7483  -14.1763   20.1400 O   0  0  0  0  0  0  0  0  0  0  0  0
   12.4347  -16.7222   23.2250 C   0  0  0  0  0  0  0  0  0  0  0  0
   11.8677  -16.1894   24.3646 O   0  0  0  0  0  0  0  0  0  0  0  0
   13.7121  -13.7298   19.2710 O   0  0  0  0  0  0  0  0  0  0  0  0
   13.4972  -17.3822   23.3679 O   0  0  0  0  0  0  0  0  0  0  0  0
  2  1  1  1
  3  4  1  0
  3  2  1  0
  4  5  2  0
  6  5  1  0
  7  6  1  0
  8  7  2  0
  9  8  1  0
 10  9  2  0
 10 11  1  0
 11 12  2  0
 12  7  1  0
 12  4  1  0
 13  2  1  0
 13 14  2  0
 16 15  1  6
 16 18  1  0
 17 16  1  0
 19 18  1  6
 19 20  1  0
 19 21  1  0
 20 13  1  0
 21 23  1  0
 21 22  2  0
 23 24  1  0
 24 25  1  1
 24 29  1  0
 26 25  1  0
 27 26  1  0
 28 27  2  0
 29 32  2  0
 29 30  1  0
 31 27  1  0
M  END
$$$$
