WLE.pdb
     RDKit          3D

 32 33  0  0  1  0  0  0  0  0999 V2000
    7.6617  -17.4743   21.7553 N   0  0  0  0  0  0  0  0  0  0  0  0
    9.0673  -17.2066   21.9621 C   0  0  1  0  0  0  0  0  0  0  0  0
    9.7082  -16.5126   20.8043 C   0  0  0  0  0  0  0  0  0  0  0  0
    8.7005  -15.6194   20.1584 C   0  0  0  0  0  0  0  0  0  0  0  0
    7.8706  -15.9194   19.1066 C   0  0  0  0  0  0  0  0  0  0  0  0
    7.1176  -14.8215   18.8369 N   0  0  0  0  0  0  0  0  0  0  0  0
    7.4142  -13.8148   19.6630 C   0  0  0  0  0  0  0  0  0  0  0  0
    6.9474  -12.5125   19.8021 C   0  0  0  0  0  0  0  0  0  0  0  0
    7.4481  -11.6762   20.7601 C   0  0  0  0  0  0  0  0  0  0  0  0
    8.4366  -12.2034   21.5715 C   0  0  0  0  0  0  0  0  0  0  0  0
    8.9302  -13.4713   21.4786 C   0  0  0  0  0  0  0  0  0  0  0  0
    8.4183  -14.3114   20.5062 C   0  0  0  0  0  0  0  0  0  0  0  0
    9.3495  -16.4620   23.2084 C   0  0  0  0  0  0  0  0  0  0  0  0
   10.5250  -16.0659   23.3961 O   0  0  0  0  0  0  0  0  0  0  0  0
    6.0614  -12.9026   26.1758 C   0  0  0  0  0  0  0  0  0  0  0  0
    7.3358  -13.4290   25.4431 C   0  0  1  0  0  0  0  0  0  0  0  0
    8.3902  -12.4241   25.7812 C   0  0  0  0  0  0  0  0  0  0  0  0
    7.5364  -14.8039   25.9708 C   0  0  0  0  0  0  0  0  0  0  0  0
    8.6402  -15.6200   25.4185 C   0  0  2  0  0  0  0  0  0  0  0  0
    8.3475  -16.2047   24.1482 N   0  0  0  0  0  0  0  0  0  0  0  0
    9.0507  -16.6679   26.4191 C   0  0  0  0  0  0  0  0  0  0  0  0
    8.1670  -17.3789   26.9703 O   0  0  0  0  0  0  0  0  0  0  0  0
   10.3962  -16.8933   26.7723 N   0  0  0  0  0  0  0  0  0  0  0  0
   10.7788  -17.9406   27.6945 C   0  0  1  0  0  0  0  0  0  0  0  0
   12.0859  -18.5894   27.3757 C   0  0  0  0  0  0  0  0  0  0  0  0
   12.2013  -18.9719   25.9209 C   0  0  0  0  0  0  0  0  0  0  0  0
   13.5268  -19.5872   25.6924 C   0  0  0  0  0  0  0  0  0  0  0  0
   14.5910  -18.9457   26.0000 O   0  0  0  0  0  0  0  0  0  0  0  0
   10.7415  -17.4315   29.1047 C   0  0  0  0  0  0  0  0  0  0  0  0
   10.9098  -18.2228   30.2226 O   0  0  0  0  0  0  0  0  0  0  0  0
   13.7281  -20.8531   25.1527 O   0  0  0  0  0  0  0  0  0  0  0  0
   10.5456  -16.2027   29.2962 O   0  0  0  0  0  0  0  0  0  0  0  0
  2  1  1  6
  3  4  1  0
  3  2  1  0
  4  5  2  0
  6  5  1  0
  7  6  1  0
  8  7  2  0
  9  8  1  0
 10  9  2  0
 10 11  1  0
 11 12  2  0
 12  7  1  0
 12  4  1  0
 13  2  1  0
 13 14  2  0
 16 15  1  1
 16 18  1  0
 17 16  1  0
 19 18  1  1
 19 20  1  0
 19 21  1  0
 20 13  1  0
 21 23  1  0
 21 22  2  0
 23 24  1  0
 24 25  1  6
 24 29  1  0
 26 25  1  0
 27 26  1  0
 28 27  2  0
 29 32  2  0
 29 30  1  0
 31 27  1  0
M  END
$$$$
