WLE.pdb
     RDKit          3D

 32 33  0  0  1  0  0  0  0  0999 V2000
    7.4354  -18.1522   23.4475 N   0  0  0  0  0  0  0  0  0  0  0  0
    7.8333  -17.0563   22.5927 C   0  0  1  0  0  0  0  0  0  0  0  0
    6.7303  -16.5729   21.7079 C   0  0  0  0  0  0  0  0  0  0  0  0
    7.3140  -15.7176   20.6317 C   0  0  0  0  0  0  0  0  0  0  0  0
    7.8579  -16.1292   19.4403 C   0  0  0  0  0  0  0  0  0  0  0  0
    8.2705  -15.0271   18.7618 N   0  0  0  0  0  0  0  0  0  0  0  0
    8.0222  -13.9111   19.4522 C   0  0  0  0  0  0  0  0  0  0  0  0
    8.2450  -12.5598   19.2125 C   0  0  0  0  0  0  0  0  0  0  0  0
    7.8816  -11.6069   20.1224 C   0  0  0  0  0  0  0  0  0  0  0  0
    7.2854  -12.0691   21.2819 C   0  0  0  0  0  0  0  0  0  0  0  0
    7.0438  -13.3806   21.5672 C   0  0  0  0  0  0  0  0  0  0  0  0
    7.4148  -14.3388   20.6412 C   0  0  0  0  0  0  0  0  0  0  0  0
    8.4182  -15.9150   23.3294 C   0  0  0  0  0  0  0  0  0  0  0  0
    9.4041  -15.3343   22.8152 O   0  0  0  0  0  0  0  0  0  0  0  0
    5.8957  -12.4074   26.7084 C   0  0  0  0  0  0  0  0  0  0  0  0
    6.9125  -12.8387   25.6047 C   0  0  1  0  0  0  0  0  0  0  0  0
    7.5019  -11.5491   25.1299 C   0  0  0  0  0  0  0  0  0  0  0  0
    7.8385  -13.7792   26.2882 C   0  0  0  0  0  0  0  0  0  0  0  0
    8.6580  -14.6922   25.4610 C   0  0  2  0  0  0  0  0  0  0  0  0
    7.8963  -15.4925   24.5552 N   0  0  0  0  0  0  0  0  0  0  0  0
    9.5230  -15.5476   26.3487 C   0  0  0  0  0  0  0  0  0  0  0  0
   10.3411  -14.9966   27.1344 O   0  0  0  0  0  0  0  0  0  0  0  0
    9.4587  -16.9554   26.3413 N   0  0  0  0  0  0  0  0  0  0  0  0
   10.2812  -17.7623   27.2165 C   0  0  1  0  0  0  0  0  0  0  0  0
    9.7679  -19.1482   27.4327 C   0  0  0  0  0  0  0  0  0  0  0  0
   10.6562  -19.9575   28.3449 C   0  0  0  0  0  0  0  0  0  0  0  0
   10.1891  -21.3609   28.3448 C   0  0  0  0  0  0  0  0  0  0  0  0
    8.9710  -21.6292   28.6327 O   0  0  0  0  0  0  0  0  0  0  0  0
   11.7027  -17.7653   26.7384 C   0  0  0  0  0  0  0  0  0  0  0  0
   12.7996  -17.9294   27.5593 O   0  0  0  0  0  0  0  0  0  0  0  0
   10.9875  -22.4597   28.0458 O   0  0  0  0  0  0  0  0  0  0  0  0
   11.9246  -17.6101   25.5089 O   0  0  0  0  0  0  0  0  0  0  0  0
  2  1  1  1
  3  4  1  0
  3  2  1  0
  4  5  2  0
  6  5  1  0
  7  6  1  0
  8  7  2  0
  9  8  1  0
 10  9  2  0
 10 11  1  0
 11 12  2  0
 12  7  1  0
 12  4  1  0
 13  2  1  0
 13 14  2  0
 16 15  1  1
 16 18  1  0
 17 16  1  0
 19 18  1  1
 19 20  1  0
 19 21  1  0
 20 13  1  0
 21 23  1  0
 21 22  2  0
 23 24  1  0
 24 25  1  6
 24 29  1  0
 26 25  1  0
 27 26  1  0
 28 27  2  0
 29 32  2  0
 29 30  1  0
 31 27  1  0
M  END
$$$$
