QYQ.pdb
     RDKit          3D

 31 31  0  0  1  0  0  0  0  0999 V2000
   26.6803  -27.4215  -16.8782 N   0  0  0  0  0  0  0  0  0  0  0  0
   26.6211  -26.2953  -17.7312 C   0  0  0  0  0  0  0  0  0  0  0  0
   25.6521  -26.1158  -18.5032 O   0  0  0  0  0  0  0  0  0  0  0  0
   27.7232  -25.3157  -17.7083 C   0  0  0  0  0  0  0  0  0  0  0  0
   27.6464  -24.4621  -16.4550 C   0  0  0  0  0  0  0  0  0  0  0  0
   28.0348  -23.0506  -16.8644 C   0  0  2  0  0  0  0  0  0  0  0  0
   29.3618  -23.0757  -17.3530 N   0  0  0  0  0  0  0  0  0  0  0  0
   27.9215  -22.1396  -15.6924 C   0  0  0  0  0  0  0  0  0  0  0  0
   28.6689  -22.3405  -14.6771 O   0  0  0  0  0  0  0  0  0  0  0  0
   27.7842  -16.6515  -19.8727 O   0  0  0  0  0  0  0  0  0  0  0  0
   27.7950  -17.2195  -18.6139 C   0  0  0  0  0  0  0  0  0  0  0  0
   26.9645  -16.7587  -17.6144 C   0  0  0  0  0  0  0  0  0  0  0  0
   27.0197  -17.3698  -16.3675 C   0  0  0  0  0  0  0  0  0  0  0  0
   27.8619  -18.4094  -16.0864 C   0  0  0  0  0  0  0  0  0  0  0  0
   27.9009  -19.0390  -14.7695 C   0  0  0  0  0  0  0  0  0  0  0  0
   26.9491  -20.1397  -14.4912 C   0  0  2  0  0  0  0  0  0  0  0  0
   27.0194  -21.0635  -15.6625 N   0  0  0  0  0  0  0  0  0  0  0  0
   25.5401  -19.8305  -14.3274 C   0  0  0  0  0  0  0  0  0  0  0  0
   25.1949  -18.9282  -13.4846 O   0  0  0  0  0  0  0  0  0  0  0  0
   28.6924  -18.8557  -17.1185 C   0  0  0  0  0  0  0  0  0  0  0  0
   28.6579  -18.2709  -18.3567 C   0  0  0  0  0  0  0  0  0  0  0  0
   21.2889  -16.5135  -16.2731 N   0  0  0  0  0  0  0  0  0  0  0  0
   21.8288  -17.3533  -17.2549 C   0  0  0  0  0  0  0  0  0  0  0  0
   21.5215  -17.1597  -18.4600 O   0  0  0  0  0  0  0  0  0  0  0  0
   22.7617  -18.4814  -16.9489 C   0  0  0  0  0  0  0  0  0  0  0  0
   23.0598  -18.5717  -15.4918 C   0  0  0  0  0  0  0  0  0  0  0  0
   23.1191  -20.0022  -14.9635 C   0  0  2  0  0  0  0  0  0  0  0  0
   24.5170  -20.4749  -15.0631 N   0  0  0  0  0  0  0  0  0  0  0  0
   22.2512  -20.9324  -15.6847 C   0  0  0  0  0  0  0  0  0  0  0  0
   22.6971  -21.6352  -16.6171 O   0  0  0  0  0  0  0  0  0  0  0  0
   20.8987  -21.1087  -15.4014 O   0  0  0  0  0  0  0  0  0  0  0  0
  2  1  1  0
  2  4  1  0
  3  2  2  0
  5  4  1  0
  6  5  1  0
  6  7  1  1
  8  9  2  0
  8  6  1  0
 10 11  1  0
 11 12  2  0
 12 13  1  0
 14 15  1  0
 14 13  2  0
 16 15  1  6
 16 17  1  0
 17  8  1  0
 18 16  1  0
 19 18  2  0
 20 14  1  0
 21 20  2  0
 21 11  1  0
 23 24  2  0
 23 22  1  0
 25 23  1  0
 27 26  1  6
 26 25  1  0
 27 28  1  0
 28 18  1  0
 29 27  1  0
 30 29  2  0
 31 29  1  0
M  END
$$$$
