QYQ.pdb
     RDKit          3D

 31 31  0  0  1  0  0  0  0  0999 V2000
   26.9626  -12.8454  -22.2677 N   0  0  0  0  0  0  0  0  0  0  0  0
   26.6235  -13.6320  -21.1426 C   0  0  0  0  0  0  0  0  0  0  0  0
   26.1873  -14.7982  -21.2734 O   0  0  0  0  0  0  0  0  0  0  0  0
   26.7879  -13.0650  -19.7913 C   0  0  0  0  0  0  0  0  0  0  0  0
   27.3019  -11.6388  -19.8750 C   0  0  0  0  0  0  0  0  0  0  0  0
   28.7549  -11.6721  -19.4294 C   0  0  2  0  0  0  0  0  0  0  0  0
   28.8033  -12.1426  -18.0965 N   0  0  0  0  0  0  0  0  0  0  0  0
   29.3411  -10.3072  -19.5285 C   0  0  0  0  0  0  0  0  0  0  0  0
   29.4120   -9.7450  -20.6724 O   0  0  0  0  0  0  0  0  0  0  0  0
   30.4904   -1.9292  -19.8914 O   0  0  0  0  0  0  0  0  0  0  0  0
   30.1903   -3.2423  -19.5863 C   0  0  0  0  0  0  0  0  0  0  0  0
   29.6948   -3.5934  -18.3484 C   0  0  0  0  0  0  0  0  0  0  0  0
   29.4111   -4.9308  -18.0992 C   0  0  0  0  0  0  0  0  0  0  0  0
   29.6013   -5.9162  -19.0276 C   0  0  0  0  0  0  0  0  0  0  0  0
   29.2931   -7.3152  -18.7450 C   0  0  0  0  0  0  0  0  0  0  0  0
   30.4213   -8.2513  -18.5311 C   0  0  2  0  0  0  0  0  0  0  0  0
   29.8207   -9.6129  -18.4057 N   0  0  0  0  0  0  0  0  0  0  0  0
   31.2603   -8.0897  -17.3573 C   0  0  0  0  0  0  0  0  0  0  0  0
   30.8549   -8.5553  -16.2338 O   0  0  0  0  0  0  0  0  0  0  0  0
   30.1047   -5.5312  -20.2736 C   0  0  0  0  0  0  0  0  0  0  0  0
   30.3927   -4.2198  -20.5453 C   0  0  0  0  0  0  0  0  0  0  0  0
   36.9544   -9.6261  -16.8633 N   0  0  0  0  0  0  0  0  0  0  0  0
   35.9052  -10.1914  -16.1283 C   0  0  0  0  0  0  0  0  0  0  0  0
   36.0238  -11.3701  -15.7028 O   0  0  0  0  0  0  0  0  0  0  0  0
   34.6358   -9.4650  -15.8164 C   0  0  0  0  0  0  0  0  0  0  0  0
   34.6384   -8.0836  -16.3747 C   0  0  0  0  0  0  0  0  0  0  0  0
   33.3291   -7.3300  -16.1581 C   0  0  2  0  0  0  0  0  0  0  0  0
   32.5197   -7.4446  -17.3906 N   0  0  0  0  0  0  0  0  0  0  0  0
   33.5106   -5.9144  -15.8396 C   0  0  0  0  0  0  0  0  0  0  0  0
   34.0255   -5.5605  -14.7570 O   0  0  0  0  0  0  0  0  0  0  0  0
   33.1382   -4.8749  -16.6890 O   0  0  0  0  0  0  0  0  0  0  0  0
  2  1  1  0
  2  4  1  0
  3  2  2  0
  5  4  1  0
  6  5  1  0
  6  7  1  1
  8  9  2  0
  8  6  1  0
 10 11  1  0
 11 12  2  0
 12 13  1  0
 14 15  1  0
 14 13  2  0
 16 15  1  1
 16 17  1  0
 17  8  1  0
 18 16  1  0
 19 18  2  0
 20 14  1  0
 21 20  2  0
 21 11  1  0
 23 24  2  0
 23 22  1  0
 25 23  1  0
 27 26  1  6
 26 25  1  0
 27 28  1  0
 28 18  1  0
 29 27  1  0
 30 29  2  0
 31 29  1  0
M  END
$$$$
