QYQ.pdb
     RDKit          3D

 31 31  0  0  1  0  0  0  0  0999 V2000
   12.1758   -8.2631  -16.1030 N   0  0  0  0  0  0  0  0  0  0  0  0
   11.9493   -9.5761  -16.5764 C   0  0  0  0  0  0  0  0  0  0  0  0
   11.0294   -9.8237  -17.3888 O   0  0  0  0  0  0  0  0  0  0  0  0
   12.8145  -10.6720  -16.1022 C   0  0  0  0  0  0  0  0  0  0  0  0
   13.7853  -10.1629  -15.0516 C   0  0  0  0  0  0  0  0  0  0  0  0
   15.1721  -10.6074  -15.4875 C   0  0  2  0  0  0  0  0  0  0  0  0
   15.1363  -11.9979  -15.7434 N   0  0  0  0  0  0  0  0  0  0  0  0
   16.1586  -10.2932  -14.4177 C   0  0  0  0  0  0  0  0  0  0  0  0
   16.4690  -11.2009  -13.5754 O   0  0  0  0  0  0  0  0  0  0  0  0
   23.0756   -6.2580  -10.5689 O   0  0  0  0  0  0  0  0  0  0  0  0
   22.0934   -6.8276  -11.3552 C   0  0  0  0  0  0  0  0  0  0  0  0
   22.0537   -8.1880  -11.5759 C   0  0  0  0  0  0  0  0  0  0  0  0
   21.0414   -8.7039  -12.3762 C   0  0  0  0  0  0  0  0  0  0  0  0
   20.0812   -7.9221  -12.9557 C   0  0  0  0  0  0  0  0  0  0  0  0
   19.0244   -8.4862  -13.7905 C   0  0  0  0  0  0  0  0  0  0  0  0
   17.6951   -8.7154  -13.1777 C   0  0  2  0  0  0  0  0  0  0  0  0
   16.7624   -9.0306  -14.3007 N   0  0  0  0  0  0  0  0  0  0  0  0
   17.0617   -7.6367  -12.4409 C   0  0  0  0  0  0  0  0  0  0  0  0
   16.5259   -6.6700  -13.0904 O   0  0  0  0  0  0  0  0  0  0  0  0
   20.1463   -6.5466  -12.7147 C   0  0  0  0  0  0  0  0  0  0  0  0
   21.1336   -6.0123  -11.9298 C   0  0  0  0  0  0  0  0  0  0  0  0
   13.7946   -8.2210   -7.3106 N   0  0  0  0  0  0  0  0  0  0  0  0
   13.2968   -7.9991   -8.6003 C   0  0  0  0  0  0  0  0  0  0  0  0
   12.1057   -8.3147   -8.8575 O   0  0  0  0  0  0  0  0  0  0  0  0
   14.1102   -7.4009   -9.7035 C   0  0  0  0  0  0  0  0  0  0  0  0
   15.4651   -6.9965   -9.2338 C   0  0  0  0  0  0  0  0  0  0  0  0
   16.3635   -6.4533  -10.3414 C   0  0  2  0  0  0  0  0  0  0  0  0
   16.9975   -7.6000  -11.0273 N   0  0  0  0  0  0  0  0  0  0  0  0
   17.4090   -5.5504   -9.8616 C   0  0  0  0  0  0  0  0  0  0  0  0
   18.5178   -5.9917   -9.4899 O   0  0  0  0  0  0  0  0  0  0  0  0
   17.2624   -4.1673   -9.7824 O   0  0  0  0  0  0  0  0  0  0  0  0
  2  1  1  0
  2  4  1  0
  3  2  2  0
  5  4  1  0
  6  5  1  0
  6  7  1  1
  8  9  2  0
  8  6  1  0
 10 11  1  0
 11 12  2  0
 12 13  1  0
 14 15  1  0
 14 13  2  0
 16 15  1  6
 16 17  1  0
 17  8  1  0
 18 16  1  0
 19 18  2  0
 20 14  1  0
 21 20  2  0
 21 11  1  0
 23 24  2  0
 23 22  1  0
 25 23  1  0
 27 26  1  1
 26 25  1  0
 27 28  1  0
 28 18  1  0
 29 27  1  0
 30 29  2  0
 31 29  1  0
M  END
$$$$
