QYQ.pdb
     RDKit          3D

 31 31  0  0  1  0  0  0  0  0999 V2000
   25.5220   -6.6656  -21.2495 N   0  0  0  0  0  0  0  0  0  0  0  0
   25.2991   -7.8502  -21.9887 C   0  0  0  0  0  0  0  0  0  0  0  0
   25.5173   -7.8975  -23.2207 O   0  0  0  0  0  0  0  0  0  0  0  0
   24.8003   -9.0506  -21.2925 C   0  0  0  0  0  0  0  0  0  0  0  0
   23.7557   -8.6674  -20.2595 C   0  0  0  0  0  0  0  0  0  0  0  0
   23.3954   -9.9404  -19.5108 C   0  0  2  0  0  0  0  0  0  0  0  0
   22.8954  -10.8805  -20.4416 N   0  0  0  0  0  0  0  0  0  0  0  0
   22.3768   -9.6375  -18.4681 C   0  0  0  0  0  0  0  0  0  0  0  0
   21.1402   -9.7834  -18.7494 O   0  0  0  0  0  0  0  0  0  0  0  0
   20.4152  -15.2692  -16.3797 O   0  0  0  0  0  0  0  0  0  0  0  0
   20.7437  -13.9653  -16.0647 C   0  0  0  0  0  0  0  0  0  0  0  0
   19.7723  -13.0408  -15.7442 C   0  0  0  0  0  0  0  0  0  0  0  0
   20.1632  -11.7433  -15.4359 C   0  0  0  0  0  0  0  0  0  0  0  0
   21.4699  -11.3413  -15.4357 C   0  0  0  0  0  0  0  0  0  0  0  0
   21.8582   -9.9731  -15.1052 C   0  0  0  0  0  0  0  0  0  0  0  0
   21.6902   -8.9277  -16.1415 C   0  0  2  0  0  0  0  0  0  0  0  0
   22.7277   -9.1957  -17.1819 N   0  0  0  0  0  0  0  0  0  0  0  0
   21.8634   -7.5341  -15.7735 C   0  0  0  0  0  0  0  0  0  0  0  0
   23.0455   -7.0388  -15.7504 O   0  0  0  0  0  0  0  0  0  0  0  0
   22.4330  -12.2996  -15.7644 C   0  0  0  0  0  0  0  0  0  0  0  0
   22.0748  -13.5854  -16.0724 C   0  0  0  0  0  0  0  0  0  0  0  0
   24.3385   -3.7589  -15.8526 N   0  0  0  0  0  0  0  0  0  0  0  0
   23.3244   -2.8249  -16.0976 C   0  0  0  0  0  0  0  0  0  0  0  0
   23.5962   -1.5976  -16.0326 O   0  0  0  0  0  0  0  0  0  0  0  0
   21.9191   -3.2079  -16.4365 C   0  0  0  0  0  0  0  0  0  0  0  0
   21.7396   -4.6868  -16.4581 C   0  0  0  0  0  0  0  0  0  0  0  0
   21.0123   -5.2362  -15.2340 C   0  0  2  0  0  0  0  0  0  0  0  0
   20.7824   -6.6823  -15.4425 N   0  0  0  0  0  0  0  0  0  0  0  0
   19.7298   -4.5852  -14.9700 C   0  0  0  0  0  0  0  0  0  0  0  0
   18.6662   -5.0498  -15.4338 O   0  0  0  0  0  0  0  0  0  0  0  0
   19.5899   -3.4307  -14.2030 O   0  0  0  0  0  0  0  0  0  0  0  0
  2  1  1  0
  2  4  1  0
  3  2  2  0
  5  4  1  0
  6  5  1  0
  6  7  1  6
  8  9  2  0
  8  6  1  0
 10 11  1  0
 11 12  2  0
 12 13  1  0
 14 15  1  0
 14 13  2  0
 16 15  1  1
 16 17  1  0
 17  8  1  0
 18 16  1  0
 19 18  2  0
 20 14  1  0
 21 20  2  0
 21 11  1  0
 23 24  2  0
 23 22  1  0
 25 23  1  0
 27 26  1  6
 26 25  1  0
 27 28  1  0
 28 18  1  0
 29 27  1  0
 30 29  2  0
 31 29  1  0
M  END
$$$$
