QYQ.pdb
     RDKit          3D

 31 31  0  0  1  0  0  0  0  0999 V2000
   26.1592  -15.1263  -22.5352 N   0  0  0  0  0  0  0  0  0  0  0  0
   25.3064  -14.0583  -22.1725 C   0  0  0  0  0  0  0  0  0  0  0  0
   25.2821  -12.9942  -22.8316 O   0  0  0  0  0  0  0  0  0  0  0  0
   24.4304  -14.2041  -20.9952 C   0  0  0  0  0  0  0  0  0  0  0  0
   24.5957  -15.5823  -20.3801 C   0  0  0  0  0  0  0  0  0  0  0  0
   24.7864  -15.3731  -18.8865 C   0  0  2  0  0  0  0  0  0  0  0  0
   26.0808  -14.8459  -18.6703 N   0  0  0  0  0  0  0  0  0  0  0  0
   24.6189  -16.6691  -18.1733 C   0  0  0  0  0  0  0  0  0  0  0  0
   24.5502  -17.7467  -18.8545 O   0  0  0  0  0  0  0  0  0  0  0  0
   29.1128  -22.3825  -16.8909 O   0  0  0  0  0  0  0  0  0  0  0  0
   28.2339  -21.3954  -16.4905 C   0  0  0  0  0  0  0  0  0  0  0  0
   27.0352  -21.7080  -15.8851 C   0  0  0  0  0  0  0  0  0  0  0  0
   26.1912  -20.6719  -15.5038 C   0  0  0  0  0  0  0  0  0  0  0  0
   26.4962  -19.3540  -15.7020 C   0  0  0  0  0  0  0  0  0  0  0  0
   25.5954  -18.2811  -15.2901 C   0  0  0  0  0  0  0  0  0  0  0  0
   24.3612  -18.0613  -16.0796 C   0  0  2  0  0  0  0  0  0  0  0  0
   24.5333  -16.7502  -16.7738 N   0  0  0  0  0  0  0  0  0  0  0  0
   23.0879  -17.9680  -15.3884 C   0  0  0  0  0  0  0  0  0  0  0  0
   22.5311  -16.8202  -15.2619 O   0  0  0  0  0  0  0  0  0  0  0  0
   27.7177  -19.0668  -16.3179 C   0  0  0  0  0  0  0  0  0  0  0  0
   28.5680  -20.0690  -16.7036 C   0  0  0  0  0  0  0  0  0  0  0  0
   17.4777  -17.6958  -15.8447 N   0  0  0  0  0  0  0  0  0  0  0  0
   18.0800  -18.8634  -16.3288 C   0  0  0  0  0  0  0  0  0  0  0  0
   17.4525  -19.5767  -17.1545 O   0  0  0  0  0  0  0  0  0  0  0  0
   19.4439  -19.3166  -15.9154 C   0  0  0  0  0  0  0  0  0  0  0  0
   20.1198  -18.3125  -15.0465 C   0  0  0  0  0  0  0  0  0  0  0  0
   21.1543  -18.9150  -14.1000 C   0  0  2  0  0  0  0  0  0  0  0  0
   22.4182  -19.0916  -14.8476 N   0  0  0  0  0  0  0  0  0  0  0  0
   20.7544  -20.2024  -13.5334 C   0  0  0  0  0  0  0  0  0  0  0  0
   21.3084  -21.2630  -13.8946 O   0  0  0  0  0  0  0  0  0  0  0  0
   19.7557  -20.3501  -12.5734 O   0  0  0  0  0  0  0  0  0  0  0  0
  2  1  1  0
  2  4  1  0
  3  2  2  0
  5  4  1  0
  6  5  1  0
  6  7  1  6
  8  9  2  0
  8  6  1  0
 10 11  1  0
 11 12  2  0
 12 13  1  0
 14 15  1  0
 14 13  2  0
 16 15  1  1
 16 17  1  0
 17  8  1  0
 18 16  1  0
 19 18  2  0
 20 14  1  0
 21 20  2  0
 21 11  1  0
 23 24  2  0
 23 22  1  0
 25 23  1  0
 27 26  1  6
 26 25  1  0
 27 28  1  0
 28 18  1  0
 29 27  1  0
 30 29  2  0
 31 29  1  0
M  END
$$$$
