QYQ.pdb
     RDKit          3D

 31 31  0  0  1  0  0  0  0  0999 V2000
   17.2547  -27.5204   -2.5212 N   0  0  0  0  0  0  0  0  0  0  0  0
   16.5761  -26.4720   -3.1844 C   0  0  0  0  0  0  0  0  0  0  0  0
   17.1421  -25.7887   -4.0677 O   0  0  0  0  0  0  0  0  0  0  0  0
   15.1755  -26.1807   -2.8265 C   0  0  0  0  0  0  0  0  0  0  0  0
   15.0759  -24.8342   -2.1321 C   0  0  0  0  0  0  0  0  0  0  0  0
   14.1470  -23.9762   -2.9757 C   0  0  2  0  0  0  0  0  0  0  0  0
   14.7397  -23.7915   -4.2465 N   0  0  0  0  0  0  0  0  0  0  0  0
   13.9243  -22.6672   -2.3025 C   0  0  0  0  0  0  0  0  0  0  0  0
   14.5005  -21.6264   -2.7656 O   0  0  0  0  0  0  0  0  0  0  0  0
   10.3504  -17.8573   -5.5148 O   0  0  0  0  0  0  0  0  0  0  0  0
   10.6132  -18.5749   -4.3644 C   0  0  0  0  0  0  0  0  0  0  0  0
   10.7633  -17.9446   -3.1473 C   0  0  0  0  0  0  0  0  0  0  0  0
   11.0267  -18.7192   -2.0239 C   0  0  0  0  0  0  0  0  0  0  0  0
   11.1440  -20.0805   -2.0710 C   0  0  0  0  0  0  0  0  0  0  0  0
   11.4180  -20.8750   -0.8769 C   0  0  0  0  0  0  0  0  0  0  0  0
   12.8284  -21.2000   -0.5605 C   0  0  2  0  0  0  0  0  0  0  0  0
   13.1006  -22.5348   -1.1726 N   0  0  0  0  0  0  0  0  0  0  0  0
   13.2300  -21.3233    0.8292 C   0  0  0  0  0  0  0  0  0  0  0  0
   13.7562  -22.4215    1.2298 O   0  0  0  0  0  0  0  0  0  0  0  0
   10.9873  -20.6923   -3.3180 C   0  0  0  0  0  0  0  0  0  0  0  0
   10.7271  -19.9523   -4.4410 C   0  0  0  0  0  0  0  0  0  0  0  0
   17.8068  -21.2579    3.2137 N   0  0  0  0  0  0  0  0  0  0  0  0
   17.1122  -21.1209    4.4217 C   0  0  0  0  0  0  0  0  0  0  0  0
   17.7466  -21.2147    5.5047 O   0  0  0  0  0  0  0  0  0  0  0  0
   15.6405  -20.8662    4.4989 C   0  0  0  0  0  0  0  0  0  0  0  0
   15.0207  -20.7945    3.1459 C   0  0  0  0  0  0  0  0  0  0  0  0
   13.5303  -20.4672    3.1686 C   0  0  2  0  0  0  0  0  0  0  0  0
   13.0762  -20.2801    1.7735 N   0  0  0  0  0  0  0  0  0  0  0  0
   13.2026  -19.2682    3.9390 C   0  0  0  0  0  0  0  0  0  0  0  0
   12.9232  -18.1931    3.3660 O   0  0  0  0  0  0  0  0  0  0  0  0
   13.1738  -19.2252    5.3311 O   0  0  0  0  0  0  0  0  0  0  0  0
  2  1  1  0
  2  4  1  0
  3  2  2  0
  5  4  1  0
  6  5  1  0
  6  7  1  6
  8  9  2  0
  8  6  1  0
 10 11  1  0
 11 12  2  0
 12 13  1  0
 14 15  1  0
 14 13  2  0
 16 15  1  1
 16 17  1  0
 17  8  1  0
 18 16  1  0
 19 18  2  0
 20 14  1  0
 21 20  2  0
 21 11  1  0
 23 24  2  0
 23 22  1  0
 25 23  1  0
 27 26  1  6
 26 25  1  0
 27 28  1  0
 28 18  1  0
 29 27  1  0
 30 29  2  0
 31 29  1  0
M  END
$$$$
