QYQ.pdb
     RDKit          3D

 31 31  0  0  1  0  0  0  0  0999 V2000
   37.4390  -26.7691    2.4210 N   0  0  0  0  0  0  0  0  0  0  0  0
   38.7802  -27.2169    2.4353 C   0  0  0  0  0  0  0  0  0  0  0  0
   39.3253  -27.6676    1.4023 O   0  0  0  0  0  0  0  0  0  0  0  0
   39.5484  -27.1503    3.6923 C   0  0  0  0  0  0  0  0  0  0  0  0
   38.6873  -26.5884    4.8095 C   0  0  0  0  0  0  0  0  0  0  0  0
   38.8666  -25.0791    4.7811 C   0  0  2  0  0  0  0  0  0  0  0  0
   40.1555  -24.7724    5.2761 N   0  0  0  0  0  0  0  0  0  0  0  0
   37.8146  -24.4335    5.6134 C   0  0  0  0  0  0  0  0  0  0  0  0
   38.0205  -24.2821    6.8642 O   0  0  0  0  0  0  0  0  0  0  0  0
   30.2854  -19.8336    7.2124 O   0  0  0  0  0  0  0  0  0  0  0  0
   31.3695  -20.4834    6.6558 C   0  0  0  0  0  0  0  0  0  0  0  0
   31.3165  -20.9956    5.3767 C   0  0  0  0  0  0  0  0  0  0  0  0
   32.4389  -21.6394    4.8698 C   0  0  0  0  0  0  0  0  0  0  0  0
   33.5956  -21.7883    5.5832 C   0  0  0  0  0  0  0  0  0  0  0  0
   34.7644  -22.4658    5.0292 C   0  0  0  0  0  0  0  0  0  0  0  0
   35.5582  -23.3384    5.9255 C   0  0  2  0  0  0  0  0  0  0  0  0
   36.5997  -23.9834    5.0713 N   0  0  0  0  0  0  0  0  0  0  0  0
   34.8958  -24.4297    6.6170 C   0  0  0  0  0  0  0  0  0  0  0  0
   34.9196  -25.6014    6.0973 O   0  0  0  0  0  0  0  0  0  0  0  0
   33.6206  -21.2594    6.8769 C   0  0  0  0  0  0  0  0  0  0  0  0
   32.5282  -20.6201    7.4007 C   0  0  0  0  0  0  0  0  0  0  0  0
   37.7464  -27.3446    8.8477 N   0  0  0  0  0  0  0  0  0  0  0  0
   36.6103  -28.1273    8.6087 C   0  0  0  0  0  0  0  0  0  0  0  0
   36.7576  -29.3373    8.2947 O   0  0  0  0  0  0  0  0  0  0  0  0
   35.2141  -27.6004    8.7066 C   0  0  0  0  0  0  0  0  0  0  0  0
   35.1936  -26.1513    9.0524 C   0  0  0  0  0  0  0  0  0  0  0  0
   33.8918  -25.4480    8.6787 C   0  0  2  0  0  0  0  0  0  0  0  0
   34.2242  -24.2672    7.8524 N   0  0  0  0  0  0  0  0  0  0  0  0
   33.1055  -25.0133    9.8325 C   0  0  0  0  0  0  0  0  0  0  0  0
   32.9726  -23.7993   10.0986 O   0  0  0  0  0  0  0  0  0  0  0  0
   32.4582  -25.8873   10.7030 O   0  0  0  0  0  0  0  0  0  0  0  0
  2  1  1  0
  2  4  1  0
  3  2  2  0
  5  4  1  0
  6  5  1  0
  6  7  1  1
  8  9  2  0
  8  6  1  0
 10 11  1  0
 11 12  2  0
 12 13  1  0
 14 15  1  0
 14 13  2  0
 16 15  1  6
 16 17  1  0
 17  8  1  0
 18 16  1  0
 19 18  2  0
 20 14  1  0
 21 20  2  0
 21 11  1  0
 23 24  2  0
 23 22  1  0
 25 23  1  0
 27 26  1  1
 26 25  1  0
 27 28  1  0
 28 18  1  0
 29 27  1  0
 30 29  2  0
 31 29  1  0
M  END
$$$$
