QYQ.pdb
     RDKit          3D

 31 31  0  0  1  0  0  0  0  0999 V2000
   30.2559  -23.2560  -16.5814 N   0  0  0  0  0  0  0  0  0  0  0  0
   29.9435  -22.9672  -17.9299 C   0  0  0  0  0  0  0  0  0  0  0  0
   30.8435  -22.7531  -18.7734 O   0  0  0  0  0  0  0  0  0  0  0  0
   28.5300  -22.9182  -18.3471 C   0  0  0  0  0  0  0  0  0  0  0  0
   27.6207  -23.2419  -17.1751 C   0  0  0  0  0  0  0  0  0  0  0  0
   26.8328  -21.9777  -16.8723 C   0  0  2  0  0  0  0  0  0  0  0  0
   27.7187  -20.8762  -16.9205 N   0  0  0  0  0  0  0  0  0  0  0  0
   26.2029  -22.0894  -15.5281 C   0  0  0  0  0  0  0  0  0  0  0  0
   25.3932  -23.0499  -15.3012 O   0  0  0  0  0  0  0  0  0  0  0  0
   25.0365  -20.0575   -6.8632 O   0  0  0  0  0  0  0  0  0  0  0  0
   25.4660  -20.2324   -8.1641 C   0  0  0  0  0  0  0  0  0  0  0  0
   25.7078  -19.1538   -8.9883 C   0  0  0  0  0  0  0  0  0  0  0  0
   26.1386  -19.3918  -10.2879 C   0  0  0  0  0  0  0  0  0  0  0  0
   26.3340  -20.6494  -10.7873 C   0  0  0  0  0  0  0  0  0  0  0  0
   26.7905  -20.8761  -12.1556 C   0  0  0  0  0  0  0  0  0  0  0  0
   25.7888  -21.2780  -13.1704 C   0  0  2  0  0  0  0  0  0  0  0  0
   26.4676  -21.1735  -14.4966 N   0  0  0  0  0  0  0  0  0  0  0  0
   24.5663  -20.5058  -13.3005 C   0  0  0  0  0  0  0  0  0  0  0  0
   24.5623  -19.4690  -14.0545 O   0  0  0  0  0  0  0  0  0  0  0  0
   26.0811  -21.7237   -9.9294 C   0  0  0  0  0  0  0  0  0  0  0  0
   25.6556  -21.5169   -8.6438 C   0  0  0  0  0  0  0  0  0  0  0  0
   19.5906  -19.3949  -17.2274 N   0  0  0  0  0  0  0  0  0  0  0  0
   20.1357  -20.2109  -16.2286 C   0  0  0  0  0  0  0  0  0  0  0  0
   20.3050  -21.4354  -16.4657 O   0  0  0  0  0  0  0  0  0  0  0  0
   20.5332  -19.7036  -14.8791 C   0  0  0  0  0  0  0  0  0  0  0  0
   21.8516  -20.2493  -14.4502 C   0  0  0  0  0  0  0  0  0  0  0  0
   22.1110  -20.1246  -12.9515 C   0  0  2  0  0  0  0  0  0  0  0  0
   23.3632  -20.8459  -12.6368 N   0  0  0  0  0  0  0  0  0  0  0  0
   21.0332  -20.6605  -12.1210 C   0  0  0  0  0  0  0  0  0  0  0  0
   21.0681  -21.8387  -11.7051 O   0  0  0  0  0  0  0  0  0  0  0  0
   19.9139  -19.9264  -11.7350 O   0  0  0  0  0  0  0  0  0  0  0  0
  2  1  1  0
  2  4  1  0
  3  2  2  0
  5  4  1  0
  6  5  1  0
  6  7  1  1
  8  9  2  0
  8  6  1  0
 10 11  1  0
 11 12  2  0
 12 13  1  0
 14 15  1  0
 14 13  2  0
 16 15  1  1
 16 17  1  0
 17  8  1  0
 18 16  1  0
 19 18  2  0
 20 14  1  0
 21 20  2  0
 21 11  1  0
 23 24  2  0
 23 22  1  0
 25 23  1  0
 27 26  1  6
 26 25  1  0
 27 28  1  0
 28 18  1  0
 29 27  1  0
 30 29  2  0
 31 29  1  0
M  END
$$$$
