QYQ.pdb
     RDKit          3D

 31 31  0  0  1  0  0  0  0  0999 V2000
   36.3164  -39.0376   -4.2402 N   0  0  0  0  0  0  0  0  0  0  0  0
   37.1926  -38.1568   -4.9154 C   0  0  0  0  0  0  0  0  0  0  0  0
   37.5574  -38.3794   -6.0921 O   0  0  0  0  0  0  0  0  0  0  0  0
   37.6840  -36.9543   -4.2174 C   0  0  0  0  0  0  0  0  0  0  0  0
   37.0541  -36.8475   -2.8401 C   0  0  0  0  0  0  0  0  0  0  0  0
   37.4469  -35.4878   -2.2853 C   0  0  2  0  0  0  0  0  0  0  0  0
   38.8211  -35.5204   -1.9527 N   0  0  0  0  0  0  0  0  0  0  0  0
   36.6212  -35.1782   -1.0858 C   0  0  0  0  0  0  0  0  0  0  0  0
   37.0830  -35.4537    0.0721 O   0  0  0  0  0  0  0  0  0  0  0  0
   39.0247  -30.3226    2.8757 O   0  0  0  0  0  0  0  0  0  0  0  0
   37.9625  -30.8939    2.2029 C   0  0  0  0  0  0  0  0  0  0  0  0
   36.8350  -31.3167    2.8746 C   0  0  0  0  0  0  0  0  0  0  0  0
   35.7979  -31.8843    2.1441 C   0  0  0  0  0  0  0  0  0  0  0  0
   35.8450  -32.0427    0.7869 C   0  0  0  0  0  0  0  0  0  0  0  0
   34.7417  -32.6390    0.0390 C   0  0  0  0  0  0  0  0  0  0  0  0
   34.6184  -34.1153    0.0309 C   0  0  2  0  0  0  0  0  0  0  0  0
   35.3484  -34.5923   -1.1815 N   0  0  0  0  0  0  0  0  0  0  0  0
   33.2981  -34.7132   -0.0531 C   0  0  0  0  0  0  0  0  0  0  0  0
   32.7285  -34.8055   -1.1979 O   0  0  0  0  0  0  0  0  0  0  0  0
   37.0002  -31.6052    0.1325 C   0  0  0  0  0  0  0  0  0  0  0  0
   38.0370  -31.0424    0.8287 C   0  0  0  0  0  0  0  0  0  0  0  0
   30.1068  -38.1007    4.3741 N   0  0  0  0  0  0  0  0  0  0  0  0
   29.2052  -37.9471    3.3139 C   0  0  0  0  0  0  0  0  0  0  0  0
   28.0553  -38.4495    3.4129 O   0  0  0  0  0  0  0  0  0  0  0  0
   29.5352  -37.2108    2.0548 C   0  0  0  0  0  0  0  0  0  0  0  0
   30.8998  -36.6146    2.1051 C   0  0  0  0  0  0  0  0  0  0  0  0
   31.2054  -35.6784    0.9393 C   0  0  2  0  0  0  0  0  0  0  0  0
   32.6025  -35.2120    1.0742 N   0  0  0  0  0  0  0  0  0  0  0  0
   30.3216  -34.5154    0.8711 C   0  0  0  0  0  0  0  0  0  0  0  0
   29.2704  -34.5463    0.1955 O   0  0  0  0  0  0  0  0  0  0  0  0
   30.5681  -33.3146    1.5329 O   0  0  0  0  0  0  0  0  0  0  0  0
  2  1  1  0
  2  4  1  0
  3  2  2  0
  5  4  1  0
  6  5  1  0
  6  7  1  1
  8  9  2  0
  8  6  1  0
 10 11  1  0
 11 12  2  0
 12 13  1  0
 14 15  1  0
 14 13  2  0
 16 15  1  6
 16 17  1  0
 17  8  1  0
 18 16  1  0
 19 18  2  0
 20 14  1  0
 21 20  2  0
 21 11  1  0
 23 24  2  0
 23 22  1  0
 25 23  1  0
 27 26  1  1
 26 25  1  0
 27 28  1  0
 28 18  1  0
 29 27  1  0
 30 29  2  0
 31 29  1  0
M  END
$$$$
