QYQ.pdb
     RDKit          3D

 31 31  0  0  1  0  0  0  0  0999 V2000
   27.4176  -21.9130  -20.8623 N   0  0  0  0  0  0  0  0  0  0  0  0
   28.5773  -21.1396  -20.6245 C   0  0  0  0  0  0  0  0  0  0  0  0
   29.3039  -20.7520  -21.5675 O   0  0  0  0  0  0  0  0  0  0  0  0
   28.9347  -20.7847  -19.2385 C   0  0  0  0  0  0  0  0  0  0  0  0
   27.9271  -21.3708  -18.2657 C   0  0  0  0  0  0  0  0  0  0  0  0
   28.7164  -21.8586  -17.0616 C   0  0  2  0  0  0  0  0  0  0  0  0
   29.3507  -23.0751  -17.4055 N   0  0  0  0  0  0  0  0  0  0  0  0
   27.7989  -22.0509  -15.9051 C   0  0  0  0  0  0  0  0  0  0  0  0
   27.2327  -23.1838  -15.7452 O   0  0  0  0  0  0  0  0  0  0  0  0
   24.3833  -20.1685   -7.8350 O   0  0  0  0  0  0  0  0  0  0  0  0
   25.0878  -20.2320   -9.0212 C   0  0  0  0  0  0  0  0  0  0  0  0
   26.2140  -21.0182   -9.1426 C   0  0  0  0  0  0  0  0  0  0  0  0
   26.8817  -21.0420  -10.3612 C   0  0  0  0  0  0  0  0  0  0  0  0
   26.4716  -20.3199  -11.4472 C   0  0  0  0  0  0  0  0  0  0  0  0
   27.1870  -20.3626  -12.7195 C   0  0  0  0  0  0  0  0  0  0  0  0
   26.6822  -21.2698  -13.7764 C   0  0  2  0  0  0  0  0  0  0  0  0
   27.5324  -21.0280  -14.9802 N   0  0  0  0  0  0  0  0  0  0  0  0
   25.3126  -21.1258  -14.2358 C   0  0  0  0  0  0  0  0  0  0  0  0
   25.0443  -20.2433  -15.1261 O   0  0  0  0  0  0  0  0  0  0  0  0
   25.3271  -19.5318  -11.2952 C   0  0  0  0  0  0  0  0  0  0  0  0
   24.6503  -19.4903  -10.1050 C   0  0  0  0  0  0  0  0  0  0  0  0
   21.0450  -25.1791  -15.4185 N   0  0  0  0  0  0  0  0  0  0  0  0
   20.2044  -24.0882  -15.1656 C   0  0  0  0  0  0  0  0  0  0  0  0
   19.0221  -24.1160  -15.5965 O   0  0  0  0  0  0  0  0  0  0  0  0
   20.6372  -22.8768  -14.4030 C   0  0  0  0  0  0  0  0  0  0  0  0
   22.0617  -22.9722  -13.9768 C   0  0  0  0  0  0  0  0  0  0  0  0
   22.8722  -21.7088  -14.2521 C   0  0  2  0  0  0  0  0  0  0  0  0
   24.2476  -21.9230  -13.7522 N   0  0  0  0  0  0  0  0  0  0  0  0
   22.3213  -20.5079  -13.6253 C   0  0  0  0  0  0  0  0  0  0  0  0
   22.5487  -20.2485  -12.4239 O   0  0  0  0  0  0  0  0  0  0  0  0
   21.5237  -19.5813  -14.2931 O   0  0  0  0  0  0  0  0  0  0  0  0
  2  1  1  0
  2  4  1  0
  3  2  2  0
  5  4  1  0
  6  5  1  0
  6  7  1  6
  8  9  2  0
  8  6  1  0
 10 11  1  0
 11 12  2  0
 12 13  1  0
 14 15  1  0
 14 13  2  0
 16 15  1  1
 16 17  1  0
 17  8  1  0
 18 16  1  0
 19 18  2  0
 20 14  1  0
 21 20  2  0
 21 11  1  0
 23 24  2  0
 23 22  1  0
 25 23  1  0
 27 26  1  1
 26 25  1  0
 27 28  1  0
 28 18  1  0
 29 27  1  0
 30 29  2  0
 31 29  1  0
M  END
$$$$
