QYQ.pdb
     RDKit          3D

 31 31  0  0  1  0  0  0  0  0999 V2000
   19.5688  -14.8667  -15.4611 N   0  0  0  0  0  0  0  0  0  0  0  0
   19.6218  -14.9042  -16.8736 C   0  0  0  0  0  0  0  0  0  0  0  0
   19.1752  -15.8827  -17.5144 O   0  0  0  0  0  0  0  0  0  0  0  0
   20.2149  -13.7678  -17.6026 C   0  0  0  0  0  0  0  0  0  0  0  0
   20.7417  -12.7304  -16.6271 C   0  0  0  0  0  0  0  0  0  0  0  0
   20.6321  -11.3829  -17.3222 C   0  0  2  0  0  0  0  0  0  0  0  0
   21.1909  -11.5004  -18.6161 N   0  0  0  0  0  0  0  0  0  0  0  0
   21.3521  -10.3494  -16.5286 C   0  0  0  0  0  0  0  0  0  0  0  0
   21.0414  -10.1827  -15.3017 O   0  0  0  0  0  0  0  0  0  0  0  0
   26.9438   -3.7393  -18.2782 O   0  0  0  0  0  0  0  0  0  0  0  0
   26.3460   -4.9270  -17.9049 C   0  0  0  0  0  0  0  0  0  0  0  0
   26.3255   -6.0144  -18.7524 C   0  0  0  0  0  0  0  0  0  0  0  0
   25.7092   -7.1832  -18.3219 C   0  0  0  0  0  0  0  0  0  0  0  0
   25.1213   -7.3041  -17.0936 C   0  0  0  0  0  0  0  0  0  0  0  0
   24.4821   -8.5434  -16.6605 C   0  0  0  0  0  0  0  0  0  0  0  0
   23.0523   -8.4964  -16.2754 C   0  0  2  0  0  0  0  0  0  0  0  0
   22.3641   -9.5482  -17.0822 N   0  0  0  0  0  0  0  0  0  0  0  0
   22.2984   -7.2775  -16.5066 C   0  0  0  0  0  0  0  0  0  0  0  0
   21.7503   -7.0922  -17.6505 O   0  0  0  0  0  0  0  0  0  0  0  0
   25.1571   -6.1858  -16.2555 C   0  0  0  0  0  0  0  0  0  0  0  0
   25.7580   -5.0216  -16.6553 C   0  0  0  0  0  0  0  0  0  0  0  0
   17.1550   -6.7895  -16.1513 N   0  0  0  0  0  0  0  0  0  0  0  0
   17.3497   -5.4029  -16.1594 C   0  0  0  0  0  0  0  0  0  0  0  0
   16.3511   -4.6470  -16.2841 O   0  0  0  0  0  0  0  0  0  0  0  0
   18.6940   -4.7612  -16.0267 C   0  0  0  0  0  0  0  0  0  0  0  0
   19.7840   -5.7739  -15.9462 C   0  0  0  0  0  0  0  0  0  0  0  0
   21.1707   -5.1703  -15.7423 C   0  0  2  0  0  0  0  0  0  0  0  0
   22.1286   -6.2754  -15.5214 N   0  0  0  0  0  0  0  0  0  0  0  0
   21.2488   -4.2423  -14.6149 C   0  0  0  0  0  0  0  0  0  0  0  0
   21.7826   -4.5840  -13.5376 O   0  0  0  0  0  0  0  0  0  0  0  0
   20.7521   -2.9411  -14.6462 O   0  0  0  0  0  0  0  0  0  0  0  0
  2  1  1  0
  2  4  1  0
  3  2  2  0
  5  4  1  0
  6  5  1  0
  6  7  1  6
  8  9  2  0
  8  6  1  0
 10 11  1  0
 11 12  2  0
 12 13  1  0
 14 15  1  0
 14 13  2  0
 16 15  1  6
 16 17  1  0
 17  8  1  0
 18 16  1  0
 19 18  2  0
 20 14  1  0
 21 20  2  0
 21 11  1  0
 23 24  2  0
 23 22  1  0
 25 23  1  0
 27 26  1  1
 26 25  1  0
 27 28  1  0
 28 18  1  0
 29 27  1  0
 30 29  2  0
 31 29  1  0
M  END
$$$$
