NRG.pdb
     RDKit          3D

 24 23  0  0  1  0  0  0  0  0999 V2000
   14.0450  -20.6212    0.2854 N   0  0  0  0  0  0  0  0  0  0  0  0
   14.4135  -21.8350    0.9363 C   0  0  0  0  0  0  0  0  0  0  0  0
   14.8725  -21.8034    2.0915 O   0  0  0  0  0  0  0  0  0  0  0  0
   14.2517  -23.1200    0.2435 C   0  0  0  0  0  0  0  0  0  0  0  0
   13.7491  -22.9580   -1.1686 C   0  0  2  0  0  0  0  0  0  0  0  0
   12.2902  -22.9375   -1.2027 N   0  0  0  0  0  0  0  0  0  0  0  0
   14.2814  -24.0465   -2.0146 C   0  0  0  0  0  0  0  0  0  0  0  0
   13.8657  -25.2174   -1.9055 O   0  0  0  0  0  0  0  0  0  0  0  0
   18.6809  -24.2638   -9.8288 N   0  0  0  0  0  0  0  0  0  0  0  0
   18.6185  -25.6147   -9.3717 C   0  0  0  0  0  0  0  0  0  0  0  0
   19.0702  -26.5913  -10.0848 N   0  0  0  0  0  0  0  0  0  0  0  0
   18.0533  -25.9520   -8.1111 N   0  0  0  0  0  0  0  0  0  0  0  0
   17.5375  -24.9470   -7.2172 C   0  0  0  0  0  0  0  0  0  0  0  0
   16.9598  -25.4885   -5.9401 C   0  0  0  0  0  0  0  0  0  0  0  0
   16.4117  -24.3941   -5.0529 C   0  0  0  0  0  0  0  0  0  0  0  0
   15.8359  -24.9095   -3.7811 C   0  0  2  0  0  0  0  0  0  0  0  0
   15.3043  -23.8156   -3.0056 N   0  0  0  0  0  0  0  0  0  0  0  0
   16.8185  -25.7087   -2.9936 C   0  0  0  0  0  0  0  0  0  0  0  0
   17.6602  -25.2219   -2.2335 O   0  0  0  0  0  0  0  0  0  0  0  0
   18.9399  -27.5709   -9.7937 N   0  0  0  0  0  0  0  0  0  0  0  0
   16.7815  -27.1281   -3.1287 C   0  0  0  0  0  0  0  0  0  0  0  0
   17.7279  -27.9875   -2.4437 C   0  0  0  0  0  0  0  0  0  0  0  0
   18.9783  -28.1618   -3.1982 O   0  0  0  0  0  0  0  0  0  0  0  0
   19.1514  -27.4660   -4.2283 O   0  0  0  0  0  0  0  0  0  0  0  0
  1  2  1  0
  2  3  2  0
  4  2  1  0
  5  4  1  0
  5  6  1  1
  7  5  1  0
  7  8  2  0
  9 10  1  0
 10 12  1  0
 11 10  2  0
 12 13  1  0
 13 14  1  0
 15 14  1  0
 16 15  1  6
 16 17  1  0
 17  7  1  0
 18 20  1  0
 18 16  1  0
 19 18  2  0
 21 22  1  0
 21 20  1  0
 22 24  1  0
 23 22  2  0
M  END
$$$$
