NRG.pdb
     RDKit          3D

 24 23  0  0  1  0  0  0  0  0999 V2000
   20.0824   -7.5868  -19.4424 N   0  0  0  0  0  0  0  0  0  0  0  0
   20.7941   -8.4853  -20.2902 C   0  0  0  0  0  0  0  0  0  0  0  0
   21.1917   -8.1016  -21.4042 O   0  0  0  0  0  0  0  0  0  0  0  0
   21.0569   -9.8613  -19.8489 C   0  0  0  0  0  0  0  0  0  0  0  0
   20.4262  -10.1728  -18.5154 C   0  0  2  0  0  0  0  0  0  0  0  0
   21.3085   -9.7858  -17.4192 N   0  0  0  0  0  0  0  0  0  0  0  0
   20.0965  -11.6116  -18.4445 C   0  0  0  0  0  0  0  0  0  0  0  0
   19.2994  -12.1364  -19.2475 O   0  0  0  0  0  0  0  0  0  0  0  0
   24.0354  -18.7462  -17.8788 N   0  0  0  0  0  0  0  0  0  0  0  0
   22.8845  -19.2380  -17.1923 C   0  0  0  0  0  0  0  0  0  0  0  0
   22.5138  -20.4706  -17.2909 N   0  0  0  0  0  0  0  0  0  0  0  0
   22.0880  -18.3950  -16.3693 N   0  0  0  0  0  0  0  0  0  0  0  0
   22.2872  -16.9690  -16.3256 C   0  0  0  0  0  0  0  0  0  0  0  0
   21.1179  -16.1627  -16.8160 C   0  0  0  0  0  0  0  0  0  0  0  0
   21.4275  -14.6842  -16.8711 C   0  0  0  0  0  0  0  0  0  0  0  0
   20.2878  -13.8690  -17.3723 C   0  0  2  0  0  0  0  0  0  0  0  0
   20.6745  -12.4815  -17.4490 N   0  0  0  0  0  0  0  0  0  0  0  0
   19.0557  -14.0466  -16.5507 C   0  0  0  0  0  0  0  0  0  0  0  0
   18.8315  -13.4467  -15.4957 O   0  0  0  0  0  0  0  0  0  0  0  0
   21.7168  -20.8342  -16.7487 N   0  0  0  0  0  0  0  0  0  0  0  0
   18.0736  -14.9701  -17.0161 C   0  0  0  0  0  0  0  0  0  0  0  0
   16.8546  -15.2302  -16.2745 C   0  0  0  0  0  0  0  0  0  0  0  0
   17.0629  -16.1672  -15.1601 O   0  0  0  0  0  0  0  0  0  0  0  0
   18.2112  -16.6458  -14.9944 O   0  0  0  0  0  0  0  0  0  0  0  0
  1  2  1  0
  2  3  2  0
  4  2  1  0
  5  4  1  0
  5  6  1  1
  7  5  1  0
  7  8  2  0
  9 10  1  0
 10 12  1  0
 11 10  2  0
 12 13  1  0
 13 14  1  0
 15 14  1  0
 16 15  1  1
 16 17  1  0
 17  7  1  0
 18 20  1  0
 18 16  1  0
 19 18  2  0
 21 22  1  0
 21 20  1  0
 22 24  1  0
 23 22  2  0
M  END
$$$$
