NRG.pdb
     RDKit          3D

 24 23  0  0  1  0  0  0  0  0999 V2000
   30.7112  -22.6043  -19.8313 N   0  0  0  0  0  0  0  0  0  0  0  0
   30.4952  -21.6087  -18.8340 C   0  0  0  0  0  0  0  0  0  0  0  0
   31.4605  -20.9759  -18.3715 O   0  0  0  0  0  0  0  0  0  0  0  0
   29.1352  -21.3313  -18.3534 C   0  0  0  0  0  0  0  0  0  0  0  0
   28.9402  -21.7191  -16.9096 C   0  0  2  0  0  0  0  0  0  0  0  0
   28.9734  -23.1695  -16.7511 N   0  0  0  0  0  0  0  0  0  0  0  0
   27.6644  -21.1631  -16.4126 C   0  0  0  0  0  0  0  0  0  0  0  0
   26.5680  -21.5388  -16.8735 O   0  0  0  0  0  0  0  0  0  0  0  0
   24.3649  -24.2158  -13.1697 N   0  0  0  0  0  0  0  0  0  0  0  0
   23.6420  -23.1029  -12.6439 C   0  0  0  0  0  0  0  0  0  0  0  0
   22.3616  -23.0051  -12.7758 N   0  0  0  0  0  0  0  0  0  0  0  0
   24.2958  -22.0460  -11.9526 N   0  0  0  0  0  0  0  0  0  0  0  0
   25.7319  -21.9620  -11.8776 C   0  0  0  0  0  0  0  0  0  0  0  0
   26.3972  -21.5360  -13.1559 C   0  0  0  0  0  0  0  0  0  0  0  0
   26.2403  -20.0550  -13.4144 C   0  0  0  0  0  0  0  0  0  0  0  0
   26.3541  -19.7004  -14.8553 C   0  0  2  0  0  0  0  0  0  0  0  0
   27.6181  -20.1618  -15.3748 N   0  0  0  0  0  0  0  0  0  0  0  0
   26.1647  -18.2413  -15.0995 C   0  0  0  0  0  0  0  0  0  0  0  0
   26.8999  -17.3596  -14.6464 O   0  0  0  0  0  0  0  0  0  0  0  0
   21.8425  -22.2089  -12.3785 N   0  0  0  0  0  0  0  0  0  0  0  0
   25.0615  -17.8405  -15.9097 C   0  0  0  0  0  0  0  0  0  0  0  0
   24.8216  -16.4495  -16.2430 C   0  0  0  0  0  0  0  0  0  0  0  0
   23.5062  -15.9792  -15.7831 O   0  0  0  0  0  0  0  0  0  0  0  0
   22.7407  -16.8060  -15.2303 O   0  0  0  0  0  0  0  0  0  0  0  0
  1  2  1  0
  2  3  2  0
  4  2  1  0
  5  4  1  0
  5  6  1  6
  7  5  1  0
  7  8  2  0
  9 10  1  0
 10 12  1  0
 11 10  2  0
 12 13  1  0
 13 14  1  0
 15 14  1  0
 16 15  1  1
 16 17  1  0
 17  7  1  0
 18 20  1  0
 18 16  1  0
 19 18  2  0
 21 22  1  0
 21 20  1  0
 22 24  1  0
 23 22  2  0
M  END
$$$$
