NRG.pdb
     RDKit          3D

 24 23  0  0  1  0  0  0  0  0999 V2000
   27.6590  -21.4304  -15.1586 N   0  0  0  0  0  0  0  0  0  0  0  0
   27.2379  -20.0690  -15.2008 C   0  0  0  0  0  0  0  0  0  0  0  0
   28.0007  -19.1989  -15.6561 O   0  0  0  0  0  0  0  0  0  0  0  0
   25.9061  -19.6949  -14.7072 C   0  0  0  0  0  0  0  0  0  0  0  0
   25.1119  -20.8823  -14.2253 C   0  0  2  0  0  0  0  0  0  0  0  0
   25.0258  -21.9063  -15.2617 N   0  0  0  0  0  0  0  0  0  0  0  0
   23.7652  -20.4430  -13.8045 C   0  0  0  0  0  0  0  0  0  0  0  0
   23.6073  -19.6475  -12.8569 O   0  0  0  0  0  0  0  0  0  0  0  0
   16.8264  -16.1362  -14.5911 N   0  0  0  0  0  0  0  0  0  0  0  0
   16.5592  -17.4888  -14.2214 C   0  0  0  0  0  0  0  0  0  0  0  0
   15.4840  -18.0938  -14.6015 N   0  0  0  0  0  0  0  0  0  0  0  0
   17.4610  -18.2353  -13.4140 N   0  0  0  0  0  0  0  0  0  0  0  0
   18.8054  -18.5227  -13.8445 C   0  0  0  0  0  0  0  0  0  0  0  0
   18.9640  -19.8398  -14.5501 C   0  0  0  0  0  0  0  0  0  0  0  0
   20.3856  -20.0746  -15.0069 C   0  0  0  0  0  0  0  0  0  0  0  0
   21.2663  -20.5939  -13.9255 C   0  0  2  0  0  0  0  0  0  0  0  0
   22.5678  -20.9075  -14.4622 N   0  0  0  0  0  0  0  0  0  0  0  0
   20.6713  -21.7653  -13.2196 C   0  0  0  0  0  0  0  0  0  0  0  0
   20.7547  -22.9312  -13.6158 O   0  0  0  0  0  0  0  0  0  0  0  0
   15.2922  -19.0674  -14.3248 N   0  0  0  0  0  0  0  0  0  0  0  0
   19.9601  -21.5204  -12.0079 C   0  0  0  0  0  0  0  0  0  0  0  0
   19.4828  -22.6023  -11.1680 C   0  0  0  0  0  0  0  0  0  0  0  0
   18.0886  -22.9685  -11.4601 O   0  0  0  0  0  0  0  0  0  0  0  0
   17.5001  -22.3673  -12.3914 O   0  0  0  0  0  0  0  0  0  0  0  0
  1  2  1  0
  2  3  2  0
  4  2  1  0
  5  4  1  0
  5  6  1  6
  7  5  1  0
  7  8  2  0
  9 10  1  0
 10 12  1  0
 11 10  2  0
 12 13  1  0
 13 14  1  0
 15 14  1  0
 16 15  1  6
 16 17  1  0
 17  7  1  0
 18 20  1  0
 18 16  1  0
 19 18  2  0
 21 22  1  0
 21 20  1  0
 22 24  1  0
 23 22  2  0
M  END
$$$$
