NRG.pdb
     RDKit          3D

 24 23  0  0  1  0  0  0  0  0999 V2000
   31.2884  -10.3348  -17.4201 N   0  0  0  0  0  0  0  0  0  0  0  0
   30.4714   -9.1788  -17.2505 C   0  0  0  0  0  0  0  0  0  0  0  0
   30.9998   -8.0717  -17.0471 O   0  0  0  0  0  0  0  0  0  0  0  0
   29.0087   -9.2954  -17.3155 C   0  0  0  0  0  0  0  0  0  0  0  0
   28.5461  -10.7248  -17.4408 C   0  0  2  0  0  0  0  0  0  0  0  0
   28.9283  -11.2842  -18.7335 N   0  0  0  0  0  0  0  0  0  0  0  0
   27.0825  -10.7932  -17.2483 C   0  0  0  0  0  0  0  0  0  0  0  0
   26.2914  -10.5022  -18.1676 O   0  0  0  0  0  0  0  0  0  0  0  0
   21.9153  -17.1317  -14.5951 N   0  0  0  0  0  0  0  0  0  0  0  0
   21.0248  -16.0381  -14.8158 C   0  0  0  0  0  0  0  0  0  0  0  0
   19.7449  -16.1796  -14.7255 N   0  0  0  0  0  0  0  0  0  0  0  0
   21.5024  -14.7407  -15.1491 N   0  0  0  0  0  0  0  0  0  0  0  0
   22.9100  -14.4552  -15.2592 C   0  0  0  0  0  0  0  0  0  0  0  0
   23.2331  -13.0097  -15.5129 C   0  0  0  0  0  0  0  0  0  0  0  0
   24.7225  -12.7629  -15.5882 C   0  0  0  0  0  0  0  0  0  0  0  0
   25.0636  -11.3416  -15.8680 C   0  0  2  0  0  0  0  0  0  0  0  0
   26.4931  -11.1970  -15.9947 N   0  0  0  0  0  0  0  0  0  0  0  0
   24.5106  -10.4106  -14.8424 C   0  0  0  0  0  0  0  0  0  0  0  0
   25.0117  -10.2251  -13.7299 O   0  0  0  0  0  0  0  0  0  0  0  0
   19.1074  -15.3834  -14.8709 N   0  0  0  0  0  0  0  0  0  0  0  0
   23.3253   -9.6883  -15.1703 C   0  0  0  0  0  0  0  0  0  0  0  0
   22.7361   -8.7282  -14.2568 C   0  0  0  0  0  0  0  0  0  0  0  0
   21.4356   -8.2281  -14.7276 O   0  0  0  0  0  0  0  0  0  0  0  0
   21.0047   -8.6430  -15.8309 O   0  0  0  0  0  0  0  0  0  0  0  0
  1  2  1  0
  2  3  2  0
  4  2  1  0
  5  4  1  0
  5  6  1  6
  7  5  1  0
  7  8  2  0
  9 10  1  0
 10 12  1  0
 11 10  2  0
 12 13  1  0
 13 14  1  0
 15 14  1  0
 16 15  1  1
 16 17  1  0
 17  7  1  0
 18 20  1  0
 18 16  1  0
 19 18  2  0
 21 22  1  0
 21 20  1  0
 22 24  1  0
 23 22  2  0
M  END
$$$$
