NRG.pdb
     RDKit          3D

 24 23  0  0  1  0  0  0  0  0999 V2000
   16.5094  -19.0859  -16.4219 N   0  0  0  0  0  0  0  0  0  0  0  0
   16.4979  -17.9682  -15.5368 C   0  0  0  0  0  0  0  0  0  0  0  0
   15.4749  -17.2686  -15.4362 O   0  0  0  0  0  0  0  0  0  0  0  0
   17.6922  -17.6437  -14.7458 C   0  0  0  0  0  0  0  0  0  0  0  0
   18.8056  -18.6413  -14.9410 C   0  0  2  0  0  0  0  0  0  0  0  0
   18.6223  -19.8018  -14.0752 N   0  0  0  0  0  0  0  0  0  0  0  0
   20.1074  -17.9913  -14.6834 C   0  0  0  0  0  0  0  0  0  0  0  0
   20.6812  -18.0988  -13.5812 O   0  0  0  0  0  0  0  0  0  0  0  0
   27.3855  -20.9583  -15.0177 N   0  0  0  0  0  0  0  0  0  0  0  0
   27.7349  -19.5840  -14.8529 C   0  0  0  0  0  0  0  0  0  0  0  0
   28.9624  -19.2109  -14.7100 N   0  0  0  0  0  0  0  0  0  0  0  0
   26.7492  -18.5591  -14.8344 N   0  0  0  0  0  0  0  0  0  0  0  0
   25.3566  -18.8410  -15.0718 C   0  0  0  0  0  0  0  0  0  0  0  0
   24.4806  -17.6227  -15.1516 C   0  0  0  0  0  0  0  0  0  0  0  0
   23.0254  -17.9787  -15.3531 C   0  0  0  0  0  0  0  0  0  0  0  0
   22.1485  -16.7848  -15.4961 C   0  0  2  0  0  0  0  0  0  0  0  0
   20.7808  -17.2019  -15.6860 N   0  0  0  0  0  0  0  0  0  0  0  0
   22.5978  -15.8758  -16.5898 C   0  0  0  0  0  0  0  0  0  0  0  0
   22.5716  -16.1656  -17.7892 O   0  0  0  0  0  0  0  0  0  0  0  0
   29.2080  -18.2189  -14.5806 N   0  0  0  0  0  0  0  0  0  0  0  0
   23.0894  -14.5879  -16.2241 C   0  0  0  0  0  0  0  0  0  0  0  0
   23.5194  -13.6220  -17.2169 C   0  0  0  0  0  0  0  0  0  0  0  0
   24.0329  -12.3836  -16.6119 O   0  0  0  0  0  0  0  0  0  0  0  0
   24.0091  -12.2802  -15.3614 O   0  0  0  0  0  0  0  0  0  0  0  0
  1  2  1  0
  2  3  2  0
  4  2  1  0
  5  4  1  0
  5  6  1  1
  7  5  1  0
  7  8  2  0
  9 10  1  0
 10 12  1  0
 11 10  2  0
 12 13  1  0
 13 14  1  0
 15 14  1  0
 16 15  1  6
 16 17  1  0
 17  7  1  0
 18 20  1  0
 18 16  1  0
 19 18  2  0
 21 22  1  0
 21 20  1  0
 22 24  1  0
 23 22  2  0
M  END
$$$$
