NRG.pdb
     RDKit          3D

 24 23  0  0  1  0  0  0  0  0999 V2000
   28.1737  -20.7271  -15.6347 N   0  0  0  0  0  0  0  0  0  0  0  0
   27.6357  -22.0370  -15.4689 C   0  0  0  0  0  0  0  0  0  0  0  0
   28.2869  -23.0263  -15.8477 O   0  0  0  0  0  0  0  0  0  0  0  0
   26.3149  -22.2174  -14.8522 C   0  0  0  0  0  0  0  0  0  0  0  0
   25.6880  -20.9122  -14.4323 C   0  0  2  0  0  0  0  0  0  0  0  0
   26.4561  -20.2869  -13.3603 N   0  0  0  0  0  0  0  0  0  0  0  0
   24.2897  -21.1433  -14.0139 C   0  0  0  0  0  0  0  0  0  0  0  0
   23.4790  -21.7357  -14.7539 O   0  0  0  0  0  0  0  0  0  0  0  0
   18.2092  -22.5165   -8.4531 N   0  0  0  0  0  0  0  0  0  0  0  0
   19.4925  -22.9835   -8.0373 C   0  0  0  0  0  0  0  0  0  0  0  0
   19.6329  -24.0985   -7.4021 N   0  0  0  0  0  0  0  0  0  0  0  0
   20.6782  -22.2432   -8.2987 N   0  0  0  0  0  0  0  0  0  0  0  0
   20.6469  -20.9782   -8.9871 C   0  0  0  0  0  0  0  0  0  0  0  0
   20.8059  -21.0778  -10.4780 C   0  0  0  0  0  0  0  0  0  0  0  0
   22.2289  -20.8209  -10.9183 C   0  0  0  0  0  0  0  0  0  0  0  0
   22.3964  -20.8574  -12.3966 C   0  0  2  0  0  0  0  0  0  0  0  0
   23.7894  -20.6988  -12.7356 N   0  0  0  0  0  0  0  0  0  0  0  0
   21.5482  -19.8460  -13.0911 C   0  0  0  0  0  0  0  0  0  0  0  0
   21.5762  -18.6351  -12.8544 O   0  0  0  0  0  0  0  0  0  0  0  0
   20.5657  -24.4583   -7.1533 N   0  0  0  0  0  0  0  0  0  0  0  0
   20.6465  -20.3103  -14.0939 C   0  0  0  0  0  0  0  0  0  0  0  0
   19.7320  -19.4145  -14.7755 C   0  0  0  0  0  0  0  0  0  0  0  0
   18.3247  -19.6930  -14.4511 O   0  0  0  0  0  0  0  0  0  0  0  0
   18.0757  -20.6042  -13.6248 O   0  0  0  0  0  0  0  0  0  0  0  0
  1  2  1  0
  2  3  2  0
  4  2  1  0
  5  4  1  0
  5  6  1  1
  7  5  1  0
  7  8  2  0
  9 10  1  0
 10 12  1  0
 11 10  2  0
 12 13  1  0
 13 14  1  0
 15 14  1  0
 16 15  1  1
 16 17  1  0
 17  7  1  0
 18 20  1  0
 18 16  1  0
 19 18  2  0
 21 22  1  0
 21 20  1  0
 22 24  1  0
 23 22  2  0
M  END
$$$$
