NRG.pdb
     RDKit          3D

 24 23  0  0  1  0  0  0  0  0999 V2000
   27.0927  -18.0848  -17.3806 N   0  0  0  0  0  0  0  0  0  0  0  0
   25.7301  -18.3798  -17.0827 C   0  0  0  0  0  0  0  0  0  0  0  0
   24.8213  -17.7603  -17.6628 O   0  0  0  0  0  0  0  0  0  0  0  0
   25.4005  -19.4130  -16.0921 C   0  0  0  0  0  0  0  0  0  0  0  0
   26.6243  -19.9892  -15.4263 C   0  0  2  0  0  0  0  0  0  0  0  0
   27.3615  -20.8490  -16.3468 N   0  0  0  0  0  0  0  0  0  0  0  0
   26.2271  -20.7332  -14.2129 C   0  0  0  0  0  0  0  0  0  0  0  0
   25.6808  -21.8521  -14.2858 O   0  0  0  0  0  0  0  0  0  0  0  0
   32.0155  -21.4850   -8.8011 N   0  0  0  0  0  0  0  0  0  0  0  0
   31.9134  -22.2200  -10.0205 C   0  0  0  0  0  0  0  0  0  0  0  0
   32.8943  -22.9317  -10.4652 N   0  0  0  0  0  0  0  0  0  0  0  0
   30.7288  -22.2021  -10.8072 N   0  0  0  0  0  0  0  0  0  0  0  0
   29.4890  -21.6718  -10.3003 C   0  0  0  0  0  0  0  0  0  0  0  0
   28.3738  -21.6287  -11.3065 C   0  0  0  0  0  0  0  0  0  0  0  0
   27.1105  -21.0292  -10.7325 C   0  0  0  0  0  0  0  0  0  0  0  0
   26.0051  -20.9405  -11.7250 C   0  0  2  0  0  0  0  0  0  0  0  0
   26.4478  -20.2092  -12.8867 N   0  0  0  0  0  0  0  0  0  0  0  0
   24.7662  -20.3452  -11.1459 C   0  0  0  0  0  0  0  0  0  0  0  0
   24.7567  -19.4617  -10.2843 O   0  0  0  0  0  0  0  0  0  0  0  0
   32.8033  -23.4879  -11.3276 N   0  0  0  0  0  0  0  0  0  0  0  0
   23.5114  -20.8298  -11.6202 C   0  0  0  0  0  0  0  0  0  0  0  0
   22.2546  -20.2396  -11.2009 C   0  0  0  0  0  0  0  0  0  0  0  0
   21.0892  -20.9370  -11.7655 O   0  0  0  0  0  0  0  0  0  0  0  0
   21.2941  -21.8964  -12.5482 O   0  0  0  0  0  0  0  0  0  0  0  0
  1  2  1  0
  2  3  2  0
  4  2  1  0
  5  4  1  0
  5  6  1  6
  7  5  1  0
  7  8  2  0
  9 10  1  0
 10 12  1  0
 11 10  2  0
 12 13  1  0
 13 14  1  0
 15 14  1  0
 16 15  1  1
 16 17  1  0
 17  7  1  0
 18 20  1  0
 18 16  1  0
 19 18  2  0
 21 22  1  0
 21 20  1  0
 22 24  1  0
 23 22  2  0
M  END
$$$$
