NRG.pdb
     RDKit          3D

 24 23  0  0  1  0  0  0  0  0999 V2000
   30.6006  -15.6808  -17.2361 N   0  0  0  0  0  0  0  0  0  0  0  0
   29.3789  -16.0807  -17.8526 C   0  0  0  0  0  0  0  0  0  0  0  0
   29.3114  -16.1729  -19.0908 O   0  0  0  0  0  0  0  0  0  0  0  0
   28.2023  -16.3828  -17.0269 C   0  0  0  0  0  0  0  0  0  0  0  0
   27.2968  -17.4080  -17.6610 C   0  0  2  0  0  0  0  0  0  0  0  0
   26.5521  -16.8275  -18.7738 N   0  0  0  0  0  0  0  0  0  0  0  0
   26.3791  -17.9595  -16.6425 C   0  0  0  0  0  0  0  0  0  0  0  0
   25.5671  -17.2319  -16.0366 O   0  0  0  0  0  0  0  0  0  0  0  0
   23.2775  -25.3256  -14.1149 N   0  0  0  0  0  0  0  0  0  0  0  0
   22.0795  -24.5548  -14.0231 C   0  0  0  0  0  0  0  0  0  0  0  0
   21.0929  -24.9249  -13.2773 N   0  0  0  0  0  0  0  0  0  0  0  0
   21.9117  -23.3444  -14.7504 N   0  0  0  0  0  0  0  0  0  0  0  0
   22.9626  -22.8008  -15.5722 C   0  0  0  0  0  0  0  0  0  0  0  0
   23.6756  -21.6227  -14.9707 C   0  0  0  0  0  0  0  0  0  0  0  0
   24.6563  -20.9962  -15.9355 C   0  0  0  0  0  0  0  0  0  0  0  0
   25.4279  -19.8743  -15.3347 C   0  0  2  0  0  0  0  0  0  0  0  0
   26.3726  -19.3600  -16.2956 N   0  0  0  0  0  0  0  0  0  0  0  0
   26.1020  -20.2637  -14.0624 C   0  0  0  0  0  0  0  0  0  0  0  0
   26.9801  -21.1267  -13.9771 O   0  0  0  0  0  0  0  0  0  0  0  0
   20.2286  -24.3675  -13.2187 N   0  0  0  0  0  0  0  0  0  0  0  0
   25.7047  -19.5940  -12.8676 C   0  0  0  0  0  0  0  0  0  0  0  0
   25.0999  -20.3038  -11.7567 C   0  0  0  0  0  0  0  0  0  0  0  0
   26.0645  -21.1489  -11.0366 O   0  0  0  0  0  0  0  0  0  0  0  0
   26.7852  -21.9286  -11.7058 O   0  0  0  0  0  0  0  0  0  0  0  0
  1  2  1  0
  2  3  2  0
  4  2  1  0
  5  4  1  0
  5  6  1  6
  7  5  1  0
  7  8  2  0
  9 10  1  0
 10 12  1  0
 11 10  2  0
 12 13  1  0
 13 14  1  0
 15 14  1  0
 16 15  1  6
 16 17  1  0
 17  7  1  0
 18 20  1  0
 18 16  1  0
 19 18  2  0
 21 22  1  0
 21 20  1  0
 22 24  1  0
 23 22  2  0
M  END
$$$$
