VEE.pdb
     RDKit          3D

 26 25  0  0  1  0  0  0  0  0999 V2000
    6.0627  -11.1874   26.0199 C   0  0  0  0  0  0  0  0  0  0  0  0
    6.9882  -12.2932   25.6617 C   0  0  1  0  0  0  0  0  0  0  0  0
    7.8432  -12.7614   26.8164 C   0  0  0  0  0  0  0  0  0  0  0  0
    6.2262  -13.4411   25.0303 C   0  0  2  0  0  0  0  0  0  0  0  0
    5.4279  -13.9982   26.1453 N   0  0  0  0  0  0  0  0  0  0  0  0
    7.1438  -14.4935   24.5730 C   0  0  0  0  0  0  0  0  0  0  0  0
    7.5949  -15.3195   25.4193 O   0  0  0  0  0  0  0  0  0  0  0  0
    7.5891  -14.6874   23.2384 N   0  0  0  0  0  0  0  0  0  0  0  0
    8.5350  -15.7466   22.9262 C   0  0  1  0  0  0  0  0  0  0  0  0
    8.6031  -15.8229   21.4188 C   0  0  0  0  0  0  0  0  0  0  0  0
    7.3161  -16.2210   20.7909 C   0  0  0  0  0  0  0  0  0  0  0  0
    7.3797  -16.2038   19.3323 C   0  0  0  0  0  0  0  0  0  0  0  0
    7.0639  -15.2392   18.6005 O   0  0  0  0  0  0  0  0  0  0  0  0
    9.8734  -15.4737   23.5111 C   0  0  0  0  0  0  0  0  0  0  0  0
   10.0060  -14.4632   24.2400 O   0  0  0  0  0  0  0  0  0  0  0  0
    7.8277  -17.3405   18.6107 O   0  0  0  0  0  0  0  0  0  0  0  0
   10.9993  -16.3032   23.2804 N   0  0  0  0  0  0  0  0  0  0  0  0
   11.8784  -16.8172   24.3152 C   0  0  1  0  0  0  0  0  0  0  0  0
   11.1399  -17.3650   25.4774 C   0  0  0  0  0  0  0  0  0  0  0  0
   11.8944  -17.9805   26.5824 C   0  0  0  0  0  0  0  0  0  0  0  0
   11.1711  -18.6239   27.6714 C   0  0  0  0  0  0  0  0  0  0  0  0
   10.9755  -18.1105   28.7759 O   0  0  0  0  0  0  0  0  0  0  0  0
   13.0310  -17.5685   23.8209 C   0  0  0  0  0  0  0  0  0  0  0  0
   12.9392  -18.6005   23.0990 O   0  0  0  0  0  0  0  0  0  0  0  0
   10.6330  -19.9196   27.5191 O   0  0  0  0  0  0  0  0  0  0  0  0
   14.3099  -17.1451   24.1487 O   0  0  0  0  0  0  0  0  0  0  0  0
  2  4  1  0
  2  1  1  1
  3  2  1  0
  4  6  1  0
  4  5  1  1
  6  7  2  0
  8  6  1  0
  8  9  1  0
  9 14  1  0
  9 10  1  6
 11 10  1  0
 12 16  1  0
 12 11  1  0
 13 12  2  0
 14 15  2  0
 17 18  1  0
 17 14  1  0
 18 23  1  0
 18 19  1  1
 20 19  1  0
 21 22  2  0
 21 20  1  0
 23 24  2  0
 23 26  1  0
 25 21  1  0
M  END
$$$$
