VEE.pdb
     RDKit          3D

 26 25  0  0  1  0  0  0  0  0999 V2000
    8.5760  -12.3300   18.4877 C   0  0  0  0  0  0  0  0  0  0  0  0
    8.6773  -13.0690   19.7727 C   0  0  1  0  0  0  0  0  0  0  0  0
    7.8294  -12.4790   20.8757 C   0  0  0  0  0  0  0  0  0  0  0  0
    8.3781  -14.5402   19.5653 C   0  0  2  0  0  0  0  0  0  0  0  0
    6.9747  -14.5581   19.0951 N   0  0  0  0  0  0  0  0  0  0  0  0
    8.4285  -15.2720   20.8383 C   0  0  0  0  0  0  0  0  0  0  0  0
    7.6055  -14.9669   21.7502 O   0  0  0  0  0  0  0  0  0  0  0  0
    9.3311  -16.3200   21.1608 N   0  0  0  0  0  0  0  0  0  0  0  0
    9.2974  -16.9399   22.4756 C   0  0  1  0  0  0  0  0  0  0  0  0
    8.5796  -18.2582   22.3041 C   0  0  0  0  0  0  0  0  0  0  0  0
    8.5194  -19.0624   23.5526 C   0  0  0  0  0  0  0  0  0  0  0  0
    7.9415  -20.3854   23.3351 C   0  0  0  0  0  0  0  0  0  0  0  0
    7.6257  -20.8691   22.2251 O   0  0  0  0  0  0  0  0  0  0  0  0
   10.6653  -17.1401   23.0204 C   0  0  0  0  0  0  0  0  0  0  0  0
   11.5962  -17.3690   22.2137 O   0  0  0  0  0  0  0  0  0  0  0  0
    7.6866  -21.2558   24.4264 O   0  0  0  0  0  0  0  0  0  0  0  0
   10.9592  -17.0835   24.4059 N   0  0  0  0  0  0  0  0  0  0  0  0
   12.2773  -17.2747   24.9838 C   0  0  1  0  0  0  0  0  0  0  0  0
   13.2883  -16.3427   24.4313 C   0  0  0  0  0  0  0  0  0  0  0  0
   14.3007  -16.8555   23.4926 C   0  0  0  0  0  0  0  0  0  0  0  0
   15.3353  -15.9580   22.9955 C   0  0  0  0  0  0  0  0  0  0  0  0
   16.3513  -15.6513   23.6245 O   0  0  0  0  0  0  0  0  0  0  0  0
   12.2837  -17.5149   26.4259 C   0  0  0  0  0  0  0  0  0  0  0  0
   11.2552  -17.4400   27.1547 O   0  0  0  0  0  0  0  0  0  0  0  0
   15.2303  -15.3663   21.7187 O   0  0  0  0  0  0  0  0  0  0  0  0
   13.4743  -17.8457   27.0547 O   0  0  0  0  0  0  0  0  0  0  0  0
  2  4  1  0
  2  1  1  6
  3  2  1  0
  4  6  1  0
  4  5  1  1
  6  7  2  0
  8  6  1  0
  8  9  1  0
  9 14  1  0
  9 10  1  6
 11 10  1  0
 12 16  1  0
 12 11  1  0
 13 12  2  0
 14 15  2  0
 17 18  1  0
 17 14  1  0
 18 23  1  0
 18 19  1  1
 20 19  1  0
 21 22  2  0
 21 20  1  0
 23 24  2  0
 23 26  1  0
 25 21  1  0
M  END
$$$$
