VEE.pdb
     RDKit          3D

 26 25  0  0  1  0  0  0  0  0999 V2000
    7.2211  -12.0559   19.5436 C   0  0  0  0  0  0  0  0  0  0  0  0
    8.3911  -12.8932   19.9146 C   0  0  1  0  0  0  0  0  0  0  0  0
    8.1786  -13.7016   21.1736 C   0  0  0  0  0  0  0  0  0  0  0  0
    8.8072  -13.7711   18.7514 C   0  0  2  0  0  0  0  0  0  0  0  0
    7.7081  -14.7556   18.6338 N   0  0  0  0  0  0  0  0  0  0  0  0
   10.0356  -14.5135   19.0654 C   0  0  0  0  0  0  0  0  0  0  0  0
    9.9371  -15.6794   19.5479 O   0  0  0  0  0  0  0  0  0  0  0  0
   11.3628  -14.0450   18.8758 N   0  0  0  0  0  0  0  0  0  0  0  0
   12.4929  -14.9362   19.0821 C   0  0  1  0  0  0  0  0  0  0  0  0
   13.5956  -14.4386   18.1769 C   0  0  0  0  0  0  0  0  0  0  0  0
   14.8503  -15.2275   18.2893 C   0  0  0  0  0  0  0  0  0  0  0  0
   15.9029  -14.7269   17.4102 C   0  0  0  0  0  0  0  0  0  0  0  0
   16.4730  -15.3824   16.5095 O   0  0  0  0  0  0  0  0  0  0  0  0
   12.9281  -14.9468   20.5028 C   0  0  0  0  0  0  0  0  0  0  0  0
   13.1712  -13.8490   21.0557 O   0  0  0  0  0  0  0  0  0  0  0  0
   16.3737  -13.3933   17.5258 O   0  0  0  0  0  0  0  0  0  0  0  0
   13.0789  -16.1392   21.2541 N   0  0  0  0  0  0  0  0  0  0  0  0
   13.5806  -16.2058   22.6149 C   0  0  1  0  0  0  0  0  0  0  0  0
   13.0584  -17.3730   23.3640 C   0  0  0  0  0  0  0  0  0  0  0  0
   12.1970  -17.1466   24.5369 C   0  0  0  0  0  0  0  0  0  0  0  0
   11.7527  -18.2860   25.3289 C   0  0  0  0  0  0  0  0  0  0  0  0
   11.0961  -18.1965   26.3695 O   0  0  0  0  0  0  0  0  0  0  0  0
   14.9977  -15.8773   22.7609 C   0  0  0  0  0  0  0  0  0  0  0  0
   15.5017  -15.3947   23.8133 O   0  0  0  0  0  0  0  0  0  0  0  0
   12.0597  -19.6062   24.9364 O   0  0  0  0  0  0  0  0  0  0  0  0
   15.8599  -16.0985   21.6978 O   0  0  0  0  0  0  0  0  0  0  0  0
  2  4  1  0
  2  1  1  6
  3  2  1  0
  4  6  1  0
  4  5  1  1
  6  7  2  0
  8  6  1  0
  8  9  1  0
  9 14  1  0
  9 10  1  6
 11 10  1  0
 12 16  1  0
 12 11  1  0
 13 12  2  0
 14 15  2  0
 17 18  1  0
 17 14  1  0
 18 23  1  0
 18 19  1  6
 20 19  1  0
 21 22  2  0
 21 20  1  0
 23 24  2  0
 23 26  1  0
 25 21  1  0
M  END
$$$$
