VEE.pdb
     RDKit          3D

 26 25  0  0  1  0  0  0  0  0999 V2000
    9.2939  -12.4857   19.6548 C   0  0  0  0  0  0  0  0  0  0  0  0
    8.0630  -13.2887   19.8729 C   0  0  1  0  0  0  0  0  0  0  0  0
    6.7879  -12.5156   19.6280 C   0  0  0  0  0  0  0  0  0  0  0  0
    8.1081  -14.5640   19.0555 C   0  0  2  0  0  0  0  0  0  0  0  0
    6.9299  -15.3300   19.5203 N   0  0  0  0  0  0  0  0  0  0  0  0
    9.3050  -15.3532   19.3770 C   0  0  0  0  0  0  0  0  0  0  0  0
    9.3567  -15.9576   20.4879 O   0  0  0  0  0  0  0  0  0  0  0  0
   10.4439  -15.5150   18.5442 N   0  0  0  0  0  0  0  0  0  0  0  0
   11.5868  -16.2870   19.0045 C   0  0  1  0  0  0  0  0  0  0  0  0
   12.4052  -16.6063   17.7752 C   0  0  0  0  0  0  0  0  0  0  0  0
   11.7043  -17.5015   16.8179 C   0  0  0  0  0  0  0  0  0  0  0  0
   12.3089  -18.8289   16.7527 C   0  0  0  0  0  0  0  0  0  0  0  0
   13.5204  -19.0688   16.5515 O   0  0  0  0  0  0  0  0  0  0  0  0
   12.3889  -15.5332   20.0027 C   0  0  0  0  0  0  0  0  0  0  0  0
   11.9373  -14.4428   20.4234 O   0  0  0  0  0  0  0  0  0  0  0  0
   11.5200  -19.9962   16.9223 O   0  0  0  0  0  0  0  0  0  0  0  0
   13.6358  -15.9930   20.4957 N   0  0  0  0  0  0  0  0  0  0  0  0
   14.0050  -16.0480   21.8987 C   0  0  1  0  0  0  0  0  0  0  0  0
   12.8524  -16.3311   22.7861 C   0  0  0  0  0  0  0  0  0  0  0  0
   13.0703  -16.4203   24.2399 C   0  0  0  0  0  0  0  0  0  0  0  0
   11.9527  -16.7589   25.1114 C   0  0  0  0  0  0  0  0  0  0  0  0
   11.6825  -17.9036   25.4837 O   0  0  0  0  0  0  0  0  0  0  0  0
   15.2651  -16.7368   22.1728 C   0  0  0  0  0  0  0  0  0  0  0  0
   15.4774  -17.9498   21.8935 O   0  0  0  0  0  0  0  0  0  0  0  0
   11.0832  -15.7594   25.5976 O   0  0  0  0  0  0  0  0  0  0  0  0
   16.3033  -16.0412   22.7735 O   0  0  0  0  0  0  0  0  0  0  0  0
  2  4  1  0
  2  1  1  6
  3  2  1  0
  4  6  1  0
  4  5  1  1
  6  7  2  0
  8  6  1  0
  8  9  1  0
  9 14  1  0
  9 10  1  6
 11 10  1  0
 12 16  1  0
 12 11  1  0
 13 12  2  0
 14 15  2  0
 17 18  1  0
 17 14  1  0
 18 23  1  0
 18 19  1  1
 20 19  1  0
 21 22  2  0
 21 20  1  0
 23 24  2  0
 23 26  1  0
 25 21  1  0
M  END
$$$$
