VEE.pdb
     RDKit          3D

 26 25  0  0  1  0  0  0  0  0999 V2000
    7.9598  -11.6680   25.4117 C   0  0  0  0  0  0  0  0  0  0  0  0
    6.9151  -12.1717   26.3404 C   0  0  1  0  0  0  0  0  0  0  0  0
    6.1045  -11.0732   26.9885 C   0  0  0  0  0  0  0  0  0  0  0  0
    6.0274  -13.1835   25.6439 C   0  0  2  0  0  0  0  0  0  0  0  0
    5.1275  -13.6683   26.7145 N   0  0  0  0  0  0  0  0  0  0  0  0
    6.8107  -14.3323   25.1692 C   0  0  0  0  0  0  0  0  0  0  0  0
    7.3051  -15.1272   26.0211 O   0  0  0  0  0  0  0  0  0  0  0  0
    7.0770  -14.6544   23.8119 N   0  0  0  0  0  0  0  0  0  0  0  0
    7.9730  -15.7500   23.4791 C   0  0  1  0  0  0  0  0  0  0  0  0
    7.8343  -15.9737   21.9913 C   0  0  0  0  0  0  0  0  0  0  0  0
    8.6083  -15.0019   21.1754 C   0  0  0  0  0  0  0  0  0  0  0  0
    8.8181  -15.4666   19.8073 C   0  0  0  0  0  0  0  0  0  0  0  0
    8.8655  -14.7395   18.7900 O   0  0  0  0  0  0  0  0  0  0  0  0
    9.3784  -15.4373   23.8465 C   0  0  0  0  0  0  0  0  0  0  0  0
    9.6271  -14.3075   24.3276 O   0  0  0  0  0  0  0  0  0  0  0  0
    8.9913  -16.8467   19.5268 O   0  0  0  0  0  0  0  0  0  0  0  0
   10.4429  -16.3576   23.6763 N   0  0  0  0  0  0  0  0  0  0  0  0
   11.4170  -16.6990   24.6972 C   0  0  1  0  0  0  0  0  0  0  0  0
   10.8008  -16.9360   26.0239 C   0  0  0  0  0  0  0  0  0  0  0  0
   11.2874  -16.1761   27.1878 C   0  0  0  0  0  0  0  0  0  0  0  0
   11.0360  -16.6843   28.5301 C   0  0  0  0  0  0  0  0  0  0  0  0
   10.4725  -17.7541   28.7749 O   0  0  0  0  0  0  0  0  0  0  0  0
   12.4682  -17.6149   24.2575 C   0  0  0  0  0  0  0  0  0  0  0  0
   12.3617  -18.3774   23.2565 O   0  0  0  0  0  0  0  0  0  0  0  0
   11.4378  -15.9546   29.6691 O   0  0  0  0  0  0  0  0  0  0  0  0
   13.6610  -17.6694   24.9622 O   0  0  0  0  0  0  0  0  0  0  0  0
  2  4  1  0
  2  1  1  6
  3  2  1  0
  4  6  1  0
  4  5  1  1
  6  7  2  0
  8  6  1  0
  8  9  1  0
  9 14  1  0
  9 10  1  6
 11 10  1  0
 12 16  1  0
 12 11  1  0
 13 12  2  0
 14 15  2  0
 17 18  1  0
 17 14  1  0
 18 23  1  0
 18 19  1  1
 20 19  1  0
 21 22  2  0
 21 20  1  0
 23 24  2  0
 23 26  1  0
 25 21  1  0
M  END
$$$$
