VEE.pdb
     RDKit          3D

 26 25  0  0  1  0  0  0  0  0999 V2000
    9.7210  -14.7362   18.6413 C   0  0  0  0  0  0  0  0  0  0  0  0
    8.7029  -13.7104   18.9861 C   0  0  1  0  0  0  0  0  0  0  0  0
    8.2583  -12.8812   17.8036 C   0  0  0  0  0  0  0  0  0  0  0  0
    7.5248  -14.3477   19.6952 C   0  0  2  0  0  0  0  0  0  0  0  0
    6.6518  -13.2032   20.0402 N   0  0  0  0  0  0  0  0  0  0  0  0
    7.9464  -14.9787   20.9533 C   0  0  0  0  0  0  0  0  0  0  0  0
    8.4057  -14.2473   21.8785 O   0  0  0  0  0  0  0  0  0  0  0  0
    7.8881  -16.3666   21.2488 N   0  0  0  0  0  0  0  0  0  0  0  0
    8.3324  -16.8616   22.5417 C   0  0  1  0  0  0  0  0  0  0  0  0
    7.4369  -18.0311   22.8781 C   0  0  0  0  0  0  0  0  0  0  0  0
    7.1706  -18.1688   24.3339 C   0  0  0  0  0  0  0  0  0  0  0  0
    6.8477  -19.5412   24.7131 C   0  0  0  0  0  0  0  0  0  0  0  0
    5.8701  -20.2017   24.2960 O   0  0  0  0  0  0  0  0  0  0  0  0
    9.7605  -17.2708   22.5087 C   0  0  0  0  0  0  0  0  0  0  0  0
   10.2569  -17.5988   21.4060 O   0  0  0  0  0  0  0  0  0  0  0  0
    7.6648  -20.2540   25.6284 O   0  0  0  0  0  0  0  0  0  0  0  0
   10.5795  -17.3056   23.6650 N   0  0  0  0  0  0  0  0  0  0  0  0
   12.0261  -17.1832   23.6623 C   0  0  1  0  0  0  0  0  0  0  0  0
   12.5343  -16.3924   22.5166 C   0  0  0  0  0  0  0  0  0  0  0  0
   13.9811  -16.1423   22.4020 C   0  0  0  0  0  0  0  0  0  0  0  0
   14.5001  -15.4752   21.2152 C   0  0  0  0  0  0  0  0  0  0  0  0
   15.3294  -15.9683   20.4464 O   0  0  0  0  0  0  0  0  0  0  0  0
   12.6222  -16.9456   24.9758 C   0  0  0  0  0  0  0  0  0  0  0  0
   11.9745  -16.5257   25.9752 O   0  0  0  0  0  0  0  0  0  0  0  0
   14.0677  -14.1786   20.8643 O   0  0  0  0  0  0  0  0  0  0  0  0
   13.9747  -17.1872   25.1624 O   0  0  0  0  0  0  0  0  0  0  0  0
  2  4  1  0
  2  1  1  6
  3  2  1  0
  4  6  1  0
  4  5  1  1
  6  7  2  0
  8  6  1  0
  8  9  1  0
  9 14  1  0
  9 10  1  6
 11 10  1  0
 12 16  1  0
 12 11  1  0
 13 12  2  0
 14 15  2  0
 17 18  1  0
 17 14  1  0
 18 23  1  0
 18 19  1  6
 20 19  1  0
 21 22  2  0
 21 20  1  0
 23 24  2  0
 23 26  1  0
 25 21  1  0
M  END
$$$$
