VEE.pdb
     RDKit          3D

 26 25  0  0  1  0  0  0  0  0999 V2000
    7.5462  -11.9743   19.6050 C   0  0  0  0  0  0  0  0  0  0  0  0
    8.6712  -12.9279   19.7859 C   0  0  1  0  0  0  0  0  0  0  0  0
    8.5778  -13.7353   21.0598 C   0  0  0  0  0  0  0  0  0  0  0  0
    8.8133  -13.8200   18.5690 C   0  0  2  0  0  0  0  0  0  0  0  0
    7.5786  -14.6362   18.5764 N   0  0  0  0  0  0  0  0  0  0  0  0
    9.9517  -14.7367   18.7186 C   0  0  0  0  0  0  0  0  0  0  0  0
    9.7969  -15.7962   19.3935 O   0  0  0  0  0  0  0  0  0  0  0  0
   11.2468  -14.5528   18.1656 N   0  0  0  0  0  0  0  0  0  0  0  0
   12.3321  -15.4523   18.5218 C   0  0  1  0  0  0  0  0  0  0  0  0
   13.3082  -15.4158   17.3691 C   0  0  0  0  0  0  0  0  0  0  0  0
   12.7888  -16.0653   16.1373 C   0  0  0  0  0  0  0  0  0  0  0  0
   13.7596  -16.0472   15.0469 C   0  0  0  0  0  0  0  0  0  0  0  0
   14.9755  -16.3247   15.1492 O   0  0  0  0  0  0  0  0  0  0  0  0
   12.9857  -15.0438   19.7921 C   0  0  0  0  0  0  0  0  0  0  0  0
   13.2277  -13.8272   19.9688 O   0  0  0  0  0  0  0  0  0  0  0  0
   13.3670  -15.6950   13.7296 O   0  0  0  0  0  0  0  0  0  0  0  0
   13.3449  -15.9669   20.8060 N   0  0  0  0  0  0  0  0  0  0  0  0
   14.0248  -15.6211   22.0413 C   0  0  1  0  0  0  0  0  0  0  0  0
   13.4386  -16.2893   23.2270 C   0  0  0  0  0  0  0  0  0  0  0  0
   12.0683  -15.9439   23.6418 C   0  0  0  0  0  0  0  0  0  0  0  0
   11.5151  -16.5397   24.8509 C   0  0  0  0  0  0  0  0  0  0  0  0
   10.4006  -16.2761   25.3094 O   0  0  0  0  0  0  0  0  0  0  0  0
   15.4820  -15.5600   21.9409 C   0  0  0  0  0  0  0  0  0  0  0  0
   16.1445  -16.0937   21.0077 O   0  0  0  0  0  0  0  0  0  0  0  0
   12.2500  -17.4878   25.5942 O   0  0  0  0  0  0  0  0  0  0  0  0
   16.2027  -14.8833   22.9131 O   0  0  0  0  0  0  0  0  0  0  0  0
  2  4  1  0
  2  1  1  6
  3  2  1  0
  4  6  1  0
  4  5  1  1
  6  7  2  0
  8  6  1  0
  8  9  1  0
  9 14  1  0
  9 10  1  6
 11 10  1  0
 12 16  1  0
 12 11  1  0
 13 12  2  0
 14 15  2  0
 17 18  1  0
 17 14  1  0
 18 23  1  0
 18 19  1  1
 20 19  1  0
 21 22  2  0
 21 20  1  0
 23 24  2  0
 23 26  1  0
 25 21  1  0
M  END
$$$$
