VEE.pdb
     RDKit          3D

 26 25  0  0  1  0  0  0  0  0999 V2000
    9.0495  -12.8478   21.0544 C   0  0  0  0  0  0  0  0  0  0  0  0
    7.8033  -13.4312   20.4939 C   0  0  1  0  0  0  0  0  0  0  0  0
    7.0360  -12.4766   19.6088 C   0  0  0  0  0  0  0  0  0  0  0  0
    8.1000  -14.7359   19.7822 C   0  0  2  0  0  0  0  0  0  0  0  0
    6.7656  -15.2420   19.3895 N   0  0  0  0  0  0  0  0  0  0  0  0
    8.6919  -15.7153   20.7037 C   0  0  0  0  0  0  0  0  0  0  0  0
    7.9767  -16.1848   21.6365 O   0  0  0  0  0  0  0  0  0  0  0  0
   10.0235  -16.2066   20.6534 N   0  0  0  0  0  0  0  0  0  0  0  0
   10.5082  -17.1207   21.6749 C   0  0  1  0  0  0  0  0  0  0  0  0
   11.7192  -17.8078   21.0883 C   0  0  0  0  0  0  0  0  0  0  0  0
   12.3742  -18.7522   22.0308 C   0  0  0  0  0  0  0  0  0  0  0  0
   13.5656  -19.3726   21.4588 C   0  0  0  0  0  0  0  0  0  0  0  0
   14.3421  -18.8377   20.6361 O   0  0  0  0  0  0  0  0  0  0  0  0
   10.8528  -16.4042   22.9302 C   0  0  0  0  0  0  0  0  0  0  0  0
   11.3503  -15.2578   22.8401 O   0  0  0  0  0  0  0  0  0  0  0  0
   13.9410  -20.6932   21.8173 O   0  0  0  0  0  0  0  0  0  0  0  0
   10.6437  -16.9598   24.2174 N   0  0  0  0  0  0  0  0  0  0  0  0
   10.7786  -16.2338   25.4674 C   0  0  1  0  0  0  0  0  0  0  0  0
   10.0524  -14.9420   25.4635 C   0  0  0  0  0  0  0  0  0  0  0  0
    9.1451  -14.6249   26.5795 C   0  0  0  0  0  0  0  0  0  0  0  0
    8.5060  -13.3166   26.6323 C   0  0  0  0  0  0  0  0  0  0  0  0
    8.5639  -12.4769   25.7304 O   0  0  0  0  0  0  0  0  0  0  0  0
   10.6936  -17.0630   26.6684 C   0  0  0  0  0  0  0  0  0  0  0  0
   10.3572  -18.2802   26.6589 O   0  0  0  0  0  0  0  0  0  0  0  0
    7.7562  -12.9204   27.7603 O   0  0  0  0  0  0  0  0  0  0  0  0
   10.9945  -16.5059   27.9019 O   0  0  0  0  0  0  0  0  0  0  0  0
  2  4  1  0
  2  1  1  6
  3  2  1  0
  4  6  1  0
  4  5  1  1
  6  7  2  0
  8  6  1  0
  8  9  1  0
  9 14  1  0
  9 10  1  6
 11 10  1  0
 12 16  1  0
 12 11  1  0
 13 12  2  0
 14 15  2  0
 17 18  1  0
 17 14  1  0
 18 23  1  0
 18 19  1  1
 20 19  1  0
 21 22  2  0
 21 20  1  0
 23 24  2  0
 23 26  1  0
 25 21  1  0
M  END
$$$$
