VEE.pdb
     RDKit          3D

 26 25  0  0  1  0  0  0  0  0999 V2000
    8.8634  -13.2593   21.5033 C   0  0  0  0  0  0  0  0  0  0  0  0
    7.9231  -13.9979   20.6212 C   0  0  1  0  0  0  0  0  0  0  0  0
    6.8907  -13.1114   19.9643 C   0  0  0  0  0  0  0  0  0  0  0  0
    8.6852  -14.8183   19.5999 C   0  0  2  0  0  0  0  0  0  0  0  0
    7.6375  -15.6228   18.9320 N   0  0  0  0  0  0  0  0  0  0  0  0
    9.6088  -15.7522   20.2583 C   0  0  0  0  0  0  0  0  0  0  0  0
    9.1308  -16.7404   20.8883 O   0  0  0  0  0  0  0  0  0  0  0  0
   11.0260  -15.6594   20.2592 N   0  0  0  0  0  0  0  0  0  0  0  0
   11.8294  -16.6938   20.8907 C   0  0  1  0  0  0  0  0  0  0  0  0
   13.1914  -16.6287   20.2400 C   0  0  0  0  0  0  0  0  0  0  0  0
   14.1514  -17.6249   20.7832 C   0  0  0  0  0  0  0  0  0  0  0  0
   15.4550  -17.5554   20.1293 C   0  0  0  0  0  0  0  0  0  0  0  0
   15.9051  -18.3883   19.3110 O   0  0  0  0  0  0  0  0  0  0  0  0
   11.9257  -16.4902   22.3595 C   0  0  0  0  0  0  0  0  0  0  0  0
   12.2184  -15.3471   22.7807 O   0  0  0  0  0  0  0  0  0  0  0  0
   16.3443  -16.4816   20.3930 O   0  0  0  0  0  0  0  0  0  0  0  0
   11.7019  -17.5285   23.2980 N   0  0  0  0  0  0  0  0  0  0  0  0
   11.7017  -17.3590   24.7400 C   0  0  1  0  0  0  0  0  0  0  0  0
   10.6793  -18.1913   25.4168 C   0  0  0  0  0  0  0  0  0  0  0  0
   11.0955  -19.4325   26.0915 C   0  0  0  0  0  0  0  0  0  0  0  0
   10.2893  -20.6362   25.9363 C   0  0  0  0  0  0  0  0  0  0  0  0
    9.2272  -20.6865   25.3107 O   0  0  0  0  0  0  0  0  0  0  0  0
   13.0295  -17.2785   25.3464 C   0  0  0  0  0  0  0  0  0  0  0  0
   14.0711  -17.7639   24.8229 O   0  0  0  0  0  0  0  0  0  0  0  0
   10.6923  -21.8589   26.5141 O   0  0  0  0  0  0  0  0  0  0  0  0
   13.1820  -16.6375   26.5664 O   0  0  0  0  0  0  0  0  0  0  0  0
  2  4  1  0
  2  1  1  6
  3  2  1  0
  4  6  1  0
  4  5  1  1
  6  7  2  0
  8  6  1  0
  8  9  1  0
  9 14  1  0
  9 10  1  6
 11 10  1  0
 12 16  1  0
 12 11  1  0
 13 12  2  0
 14 15  2  0
 17 18  1  0
 17 14  1  0
 18 23  1  0
 18 19  1  1
 20 19  1  0
 21 22  2  0
 21 20  1  0
 23 24  2  0
 23 26  1  0
 25 21  1  0
M  END
$$$$
