VEE.pdb
     RDKit          3D

 26 25  0  0  1  0  0  0  0  0999 V2000
    9.3951  -12.6743   20.5093 C   0  0  0  0  0  0  0  0  0  0  0  0
    8.1971  -13.2761   19.8690 C   0  0  1  0  0  0  0  0  0  0  0  0
    7.1725  -12.2561   19.4291 C   0  0  0  0  0  0  0  0  0  0  0  0
    8.6045  -14.1858   18.7274 C   0  0  2  0  0  0  0  0  0  0  0  0
    7.3704  -14.9393   18.4110 N   0  0  0  0  0  0  0  0  0  0  0  0
    9.6170  -15.1568   19.1640 C   0  0  0  0  0  0  0  0  0  0  0  0
    9.2538  -16.1383   19.8759 O   0  0  0  0  0  0  0  0  0  0  0  0
   11.0032  -15.1082   18.8588 N   0  0  0  0  0  0  0  0  0  0  0  0
   11.8959  -16.1554   19.3283 C   0  0  1  0  0  0  0  0  0  0  0  0
   13.0317  -16.2210   18.3341 C   0  0  0  0  0  0  0  0  0  0  0  0
   14.0198  -17.2887   18.6389 C   0  0  0  0  0  0  0  0  0  0  0  0
   15.0879  -17.3585   17.6459 C   0  0  0  0  0  0  0  0  0  0  0  0
   14.9319  -17.3288   16.4047 O   0  0  0  0  0  0  0  0  0  0  0  0
   12.3971  -15.8725   20.6982 C   0  0  0  0  0  0  0  0  0  0  0  0
   12.6925  -14.6899   20.9881 O   0  0  0  0  0  0  0  0  0  0  0  0
   16.4451  -17.4704   18.0447 O   0  0  0  0  0  0  0  0  0  0  0  0
   12.5540  -16.8782   21.6847 N   0  0  0  0  0  0  0  0  0  0  0  0
   12.8947  -16.6325   23.0745 C   0  0  1  0  0  0  0  0  0  0  0  0
   11.9873  -17.3245   24.0200 C   0  0  0  0  0  0  0  0  0  0  0  0
   12.2658  -17.2538   25.4645 C   0  0  0  0  0  0  0  0  0  0  0  0
   11.3892  -17.9502   26.3970 C   0  0  0  0  0  0  0  0  0  0  0  0
   10.3723  -18.5664   26.0682 O   0  0  0  0  0  0  0  0  0  0  0  0
   14.3274  -16.6487   23.3650 C   0  0  0  0  0  0  0  0  0  0  0  0
   15.1405  -17.4618   22.8432 O   0  0  0  0  0  0  0  0  0  0  0  0
   11.6635  -17.9598   27.7812 O   0  0  0  0  0  0  0  0  0  0  0  0
   14.8497  -15.7288   24.2614 O   0  0  0  0  0  0  0  0  0  0  0  0
  2  4  1  0
  2  1  1  6
  3  2  1  0
  4  6  1  0
  4  5  1  1
  6  7  2  0
  8  6  1  0
  8  9  1  0
  9 14  1  0
  9 10  1  6
 11 10  1  0
 12 16  1  0
 12 11  1  0
 13 12  2  0
 14 15  2  0
 17 18  1  0
 17 14  1  0
 18 23  1  0
 18 19  1  1
 20 19  1  0
 21 22  2  0
 21 20  1  0
 23 24  2  0
 23 26  1  0
 25 21  1  0
M  END
$$$$
