VEE.pdb
     RDKit          3D

 26 25  0  0  1  0  0  0  0  0999 V2000
    8.3406  -12.2811   25.6859 C   0  0  0  0  0  0  0  0  0  0  0  0
    7.1924  -12.8344   26.4495 C   0  0  1  0  0  0  0  0  0  0  0  0
    6.3356  -11.7745   27.1021 C   0  0  0  0  0  0  0  0  0  0  0  0
    6.3679  -13.7581   25.5753 C   0  0  2  0  0  0  0  0  0  0  0  0
    5.4492  -14.4254   26.5248 N   0  0  0  0  0  0  0  0  0  0  0  0
    7.2096  -14.7979   24.9678 C   0  0  0  0  0  0  0  0  0  0  0  0
    7.6270  -15.7464   25.6945 O   0  0  0  0  0  0  0  0  0  0  0  0
    7.6139  -14.8520   23.6074 N   0  0  0  0  0  0  0  0  0  0  0  0
    8.4268  -15.9573   23.1262 C   0  0  1  0  0  0  0  0  0  0  0  0
    8.4556  -15.8376   21.6203 C   0  0  0  0  0  0  0  0  0  0  0  0
    9.2378  -16.9148   20.9592 C   0  0  0  0  0  0  0  0  0  0  0  0
    9.2417  -16.7871   19.5048 C   0  0  0  0  0  0  0  0  0  0  0  0
   10.1815  -16.3311   18.8158 O   0  0  0  0  0  0  0  0  0  0  0  0
    9.7990  -15.9142   23.6947 C   0  0  0  0  0  0  0  0  0  0  0  0
   10.3927  -14.8114   23.7254 O   0  0  0  0  0  0  0  0  0  0  0  0
    8.1202  -17.1935   18.7362 O   0  0  0  0  0  0  0  0  0  0  0  0
   10.4603  -17.0614   24.2003 N   0  0  0  0  0  0  0  0  0  0  0  0
   11.8095  -17.0737   24.7364 C   0  0  1  0  0  0  0  0  0  0  0  0
   11.9404  -17.9209   25.9452 C   0  0  0  0  0  0  0  0  0  0  0  0
   10.9312  -17.8108   27.0121 C   0  0  0  0  0  0  0  0  0  0  0  0
   10.9731  -18.7383   28.1350 C   0  0  0  0  0  0  0  0  0  0  0  0
   11.8021  -19.6434   28.2595 O   0  0  0  0  0  0  0  0  0  0  0  0
   12.8669  -17.1496   23.7297 C   0  0  0  0  0  0  0  0  0  0  0  0
   14.0897  -16.9584   23.9801 O   0  0  0  0  0  0  0  0  0  0  0  0
   10.0326  -18.6512   29.1835 O   0  0  0  0  0  0  0  0  0  0  0  0
   12.5353  -17.4470   22.4167 O   0  0  0  0  0  0  0  0  0  0  0  0
  2  4  1  0
  2  1  1  6
  3  2  1  0
  4  6  1  0
  4  5  1  1
  6  7  2  0
  8  6  1  0
  8  9  1  0
  9 14  1  0
  9 10  1  6
 11 10  1  0
 12 16  1  0
 12 11  1  0
 13 12  2  0
 14 15  2  0
 17 18  1  0
 17 14  1  0
 18 23  1  0
 18 19  1  1
 20 19  1  0
 21 22  2  0
 21 20  1  0
 23 24  2  0
 23 26  1  0
 25 21  1  0
M  END
$$$$
