VEE.pdb
     RDKit          3D

 26 25  0  0  1  0  0  0  0  0999 V2000
    8.3429  -12.0757   25.3045 C   0  0  0  0  0  0  0  0  0  0  0  0
    7.1348  -12.4687   26.0750 C   0  0  1  0  0  0  0  0  0  0  0  0
    6.3474  -11.2918   26.6027 C   0  0  0  0  0  0  0  0  0  0  0  0
    6.2635  -13.4020   25.2586 C   0  0  2  0  0  0  0  0  0  0  0  0
    5.2805  -13.9216   26.2357 N   0  0  0  0  0  0  0  0  0  0  0  0
    7.0400  -14.5455   24.7603 C   0  0  0  0  0  0  0  0  0  0  0  0
    7.3755  -15.4556   25.5733 O   0  0  0  0  0  0  0  0  0  0  0  0
    7.4642  -14.7426   23.4193 N   0  0  0  0  0  0  0  0  0  0  0  0
    8.2337  -15.9221   23.0582 C   0  0  1  0  0  0  0  0  0  0  0  0
    8.3134  -15.9304   21.5494 C   0  0  0  0  0  0  0  0  0  0  0  0
    9.1647  -17.0234   21.0110 C   0  0  0  0  0  0  0  0  0  0  0  0
    9.1556  -17.0683   19.5517 C   0  0  0  0  0  0  0  0  0  0  0  0
   10.0544  -16.6234   18.8034 O   0  0  0  0  0  0  0  0  0  0  0  0
    9.5888  -15.8980   23.6674 C   0  0  0  0  0  0  0  0  0  0  0  0
   10.2713  -14.8537   23.5518 O   0  0  0  0  0  0  0  0  0  0  0  0
    8.0689  -17.6504   18.8490 O   0  0  0  0  0  0  0  0  0  0  0  0
   10.1382  -17.0001   24.3693 N   0  0  0  0  0  0  0  0  0  0  0  0
   11.4670  -17.0339   24.9534 C   0  0  1  0  0  0  0  0  0  0  0  0
   11.5115  -17.7694   26.2392 C   0  0  0  0  0  0  0  0  0  0  0  0
   10.2519  -18.0568   26.9461 C   0  0  0  0  0  0  0  0  0  0  0  0
   10.2737  -18.9047   28.1308 C   0  0  0  0  0  0  0  0  0  0  0  0
   11.2801  -19.4744   28.5604 O   0  0  0  0  0  0  0  0  0  0  0  0
   12.5495  -17.2608   23.9974 C   0  0  0  0  0  0  0  0  0  0  0  0
   12.3667  -17.6371   22.8060 O   0  0  0  0  0  0  0  0  0  0  0  0
    9.1011  -19.1312   28.8825 O   0  0  0  0  0  0  0  0  0  0  0  0
   13.8620  -17.0584   24.3960 O   0  0  0  0  0  0  0  0  0  0  0  0
  2  4  1  0
  2  1  1  6
  3  2  1  0
  4  6  1  0
  4  5  1  1
  6  7  2  0
  8  6  1  0
  8  9  1  0
  9 14  1  0
  9 10  1  6
 11 10  1  0
 12 16  1  0
 12 11  1  0
 13 12  2  0
 14 15  2  0
 17 18  1  0
 17 14  1  0
 18 23  1  0
 18 19  1  1
 20 19  1  0
 21 22  2  0
 21 20  1  0
 23 24  2  0
 23 26  1  0
 25 21  1  0
M  END
$$$$
