VEE.pdb
     RDKit          3D

 26 25  0  0  1  0  0  0  0  0999 V2000
    7.6896  -11.8016   19.3794 C   0  0  0  0  0  0  0  0  0  0  0  0
    8.7309  -12.7887   19.7651 C   0  0  1  0  0  0  0  0  0  0  0  0
    8.4546  -13.4718   21.0844 C   0  0  0  0  0  0  0  0  0  0  0  0
    8.9501  -13.7933   18.6518 C   0  0  2  0  0  0  0  0  0  0  0  0
    7.6786  -14.5489   18.5948 N   0  0  0  0  0  0  0  0  0  0  0  0
   10.0149  -14.7431   19.0020 C   0  0  0  0  0  0  0  0  0  0  0  0
    9.7359  -15.7218   19.7546 O   0  0  0  0  0  0  0  0  0  0  0  0
   11.3657  -14.6761   18.5686 N   0  0  0  0  0  0  0  0  0  0  0  0
   12.3171  -15.7003   18.9686 C   0  0  1  0  0  0  0  0  0  0  0  0
   13.3748  -15.7402   17.8904 C   0  0  0  0  0  0  0  0  0  0  0  0
   14.3602  -16.8379   18.0730 C   0  0  0  0  0  0  0  0  0  0  0  0
   15.3357  -16.8961   16.9882 C   0  0  0  0  0  0  0  0  0  0  0  0
   15.3565  -17.7480   16.0719 O   0  0  0  0  0  0  0  0  0  0  0  0
   12.9144  -15.4027   20.2962 C   0  0  0  0  0  0  0  0  0  0  0  0
   13.2844  -14.2285   20.5290 O   0  0  0  0  0  0  0  0  0  0  0  0
   16.3796  -15.9394   16.8972 O   0  0  0  0  0  0  0  0  0  0  0  0
   13.0822  -16.3853   21.3039 N   0  0  0  0  0  0  0  0  0  0  0  0
   13.5395  -16.1189   22.6558 C   0  0  1  0  0  0  0  0  0  0  0  0
   12.9487  -17.0402   23.6549 C   0  0  0  0  0  0  0  0  0  0  0  0
   13.3386  -16.9117   25.0692 C   0  0  0  0  0  0  0  0  0  0  0  0
   12.7079  -17.7673   26.0659 C   0  0  0  0  0  0  0  0  0  0  0  0
   12.1553  -17.3539   27.0884 O   0  0  0  0  0  0  0  0  0  0  0  0
   14.9635  -15.8081   22.7696 C   0  0  0  0  0  0  0  0  0  0  0  0
   15.8629  -16.3774   22.0903 O   0  0  0  0  0  0  0  0  0  0  0  0
   12.6927  -19.1701   25.9126 O   0  0  0  0  0  0  0  0  0  0  0  0
   15.3775  -14.8360   23.6675 O   0  0  0  0  0  0  0  0  0  0  0  0
  2  4  1  0
  2  1  1  6
  3  2  1  0
  4  6  1  0
  4  5  1  1
  6  7  2  0
  8  6  1  0
  8  9  1  0
  9 14  1  0
  9 10  1  6
 11 10  1  0
 12 16  1  0
 12 11  1  0
 13 12  2  0
 14 15  2  0
 17 18  1  0
 17 14  1  0
 18 23  1  0
 18 19  1  1
 20 19  1  0
 21 22  2  0
 21 20  1  0
 23 24  2  0
 23 26  1  0
 25 21  1  0
M  END
$$$$
