VEE.pdb
     RDKit          3D

 26 25  0  0  1  0  0  0  0  0999 V2000
    7.1311  -12.5243   19.5450 C   0  0  0  0  0  0  0  0  0  0  0  0
    8.4984  -12.9771   19.1803 C   0  0  1  0  0  0  0  0  0  0  0  0
    9.5739  -12.4476   20.1003 C   0  0  0  0  0  0  0  0  0  0  0  0
    8.5480  -14.4882   19.0755 C   0  0  2  0  0  0  0  0  0  0  0  0
    8.1343  -14.9548   20.4179 N   0  0  0  0  0  0  0  0  0  0  0  0
    9.9224  -14.9551   18.8479 C   0  0  0  0  0  0  0  0  0  0  0  0
   10.1742  -15.6240   17.8033 O   0  0  0  0  0  0  0  0  0  0  0  0
   11.0322  -14.7248   19.7036 N   0  0  0  0  0  0  0  0  0  0  0  0
   12.1567  -15.6463   19.7124 C   0  0  1  0  0  0  0  0  0  0  0  0
   12.8738  -15.4522   18.3967 C   0  0  0  0  0  0  0  0  0  0  0  0
   13.5951  -14.1559   18.3052 C   0  0  0  0  0  0  0  0  0  0  0  0
   14.8150  -14.2528   17.5090 C   0  0  0  0  0  0  0  0  0  0  0  0
   14.8666  -14.4805   16.2796 O   0  0  0  0  0  0  0  0  0  0  0  0
   13.0638  -15.3905   20.8612 C   0  0  0  0  0  0  0  0  0  0  0  0
   13.1564  -14.2179   21.2926 O   0  0  0  0  0  0  0  0  0  0  0  0
   16.0900  -14.0864   18.1091 O   0  0  0  0  0  0  0  0  0  0  0  0
   13.8240  -16.4111   21.4854 N   0  0  0  0  0  0  0  0  0  0  0  0
   14.1669  -16.4467   22.8957 C   0  0  1  0  0  0  0  0  0  0  0  0
   13.3294  -17.3949   23.6675 C   0  0  0  0  0  0  0  0  0  0  0  0
   13.4655  -17.4445   25.1332 C   0  0  0  0  0  0  0  0  0  0  0  0
   12.5525  -18.2739   25.9088 C   0  0  0  0  0  0  0  0  0  0  0  0
   11.5414  -18.8119   25.4505 O   0  0  0  0  0  0  0  0  0  0  0  0
   15.6011  -16.4147   23.1773 C   0  0  0  0  0  0  0  0  0  0  0  0
   16.4031  -17.3305   22.8416 O   0  0  0  0  0  0  0  0  0  0  0  0
   12.7814  -18.5182   27.2797 O   0  0  0  0  0  0  0  0  0  0  0  0
   16.1377  -15.3277   23.8503 O   0  0  0  0  0  0  0  0  0  0  0  0
  2  4  1  0
  2  1  1  1
  3  2  1  0
  4  6  1  0
  4  5  1  1
  6  7  2  0
  8  6  1  0
  8  9  1  0
  9 14  1  0
  9 10  1  6
 11 10  1  0
 12 16  1  0
 12 11  1  0
 13 12  2  0
 14 15  2  0
 17 18  1  0
 17 14  1  0
 18 23  1  0
 18 19  1  6
 20 19  1  0
 21 22  2  0
 21 20  1  0
 23 24  2  0
 23 26  1  0
 25 21  1  0
M  END
$$$$
