VEE.pdb
     RDKit          3D

 26 25  0  0  1  0  0  0  0  0999 V2000
    6.8931  -12.6555   18.7142 C   0  0  0  0  0  0  0  0  0  0  0  0
    7.8698  -13.7736   18.7734 C   0  0  1  0  0  0  0  0  0  0  0  0
    8.8200  -13.8065   17.5988 C   0  0  0  0  0  0  0  0  0  0  0  0
    8.6145  -13.7600   20.0933 C   0  0  2  0  0  0  0  0  0  0  0  0
    9.3994  -12.5058   20.0495 N   0  0  0  0  0  0  0  0  0  0  0  0
    9.5666  -14.8763   20.1718 C   0  0  0  0  0  0  0  0  0  0  0  0
    9.1176  -16.0535   20.2920 O   0  0  0  0  0  0  0  0  0  0  0  0
   10.9819  -14.7683   20.1231 N   0  0  0  0  0  0  0  0  0  0  0  0
   11.8141  -15.9524   20.2619 C   0  0  1  0  0  0  0  0  0  0  0  0
   12.9001  -15.8315   19.2185 C   0  0  0  0  0  0  0  0  0  0  0  0
   13.6538  -14.5530   19.2988 C   0  0  0  0  0  0  0  0  0  0  0  0
   14.8822  -14.5807   18.5102 C   0  0  0  0  0  0  0  0  0  0  0  0
   16.0299  -14.3274   18.9399 O   0  0  0  0  0  0  0  0  0  0  0  0
   12.3907  -16.0579   21.6274 C   0  0  0  0  0  0  0  0  0  0  0  0
   12.5914  -15.0004   22.2686 O   0  0  0  0  0  0  0  0  0  0  0  0
   14.8536  -14.9145   17.1313 O   0  0  0  0  0  0  0  0  0  0  0  0
   12.7211  -17.2971   22.2311 N   0  0  0  0  0  0  0  0  0  0  0  0
   13.1998  -17.4564   23.5924 C   0  0  1  0  0  0  0  0  0  0  0  0
   12.2569  -18.2138   24.4487 C   0  0  0  0  0  0  0  0  0  0  0  0
   12.5461  -18.3541   25.8860 C   0  0  0  0  0  0  0  0  0  0  0  0
   11.6407  -19.1273   26.7259 C   0  0  0  0  0  0  0  0  0  0  0  0
   10.6077  -19.6675   26.3222 O   0  0  0  0  0  0  0  0  0  0  0  0
   14.6249  -17.7612   23.7078 C   0  0  0  0  0  0  0  0  0  0  0  0
   15.2097  -18.6513   23.0293 O   0  0  0  0  0  0  0  0  0  0  0  0
   11.9035  -19.3091   28.1004 O   0  0  0  0  0  0  0  0  0  0  0  0
   15.4024  -17.0466   24.6063 O   0  0  0  0  0  0  0  0  0  0  0  0
  2  4  1  0
  2  1  1  6
  3  2  1  0
  4  6  1  0
  4  5  1  6
  6  7  2  0
  8  6  1  0
  8  9  1  0
  9 14  1  0
  9 10  1  6
 11 10  1  0
 12 16  1  0
 12 11  1  0
 13 12  2  0
 14 15  2  0
 17 18  1  0
 17 14  1  0
 18 23  1  0
 18 19  1  6
 20 19  1  0
 21 22  2  0
 21 20  1  0
 23 24  2  0
 23 26  1  0
 25 21  1  0
M  END
$$$$
