IVG.pdb
     RDKit          3D

 20 19  0  0  1  0  0  0  0  0999 V2000
    6.5091  -20.0525   22.4853 C   0  0  0  0  0  0  0  0  0  0  0  0
    6.0146  -18.6316   22.3812 C   0  0  0  0  0  0  0  0  0  0  0  0
    6.8592  -17.7163   23.2261 C   0  0  2  0  0  0  0  0  0  0  0  0
    6.8500  -18.1033   24.6810 C   0  0  0  0  0  0  0  0  0  0  0  0
    6.3332  -16.2981   23.1346 C   0  0  2  0  0  0  0  0  0  0  0  0
    6.2669  -16.0003   21.7048 N   0  0  0  0  0  0  0  0  0  0  0  0
    7.2191  -15.3331   23.8214 C   0  0  0  0  0  0  0  0  0  0  0  0
    8.3096  -15.0404   23.2901 O   0  0  0  0  0  0  0  0  0  0  0  0
    7.4683  -12.0733   27.6145 C   0  0  0  0  0  0  0  0  0  0  0  0
    6.8186  -13.0113   26.6590 C   0  0  1  0  0  0  0  0  0  0  0  0
    5.7664  -12.2204   25.8692 C   0  0  0  0  0  0  0  0  0  0  0  0
    7.7146  -13.7355   25.7201 C   0  0  2  0  0  0  0  0  0  0  0  0
    6.8687  -14.7375   25.0521 N   0  0  0  0  0  0  0  0  0  0  0  0
    8.8822  -14.3943   26.3031 C   0  0  0  0  0  0  0  0  0  0  0  0
    9.9727  -13.7519   26.4229 O   0  0  0  0  0  0  0  0  0  0  0  0
    8.8887  -15.7367   26.7597 N   0  0  0  0  0  0  0  0  0  0  0  0
   10.0860  -16.2303   27.4113 C   0  0  0  0  0  0  0  0  0  0  0  0
    9.9717  -17.6114   27.8631 C   0  0  0  0  0  0  0  0  0  0  0  0
    8.9735  -18.2955   27.5615 O   0  0  0  0  0  0  0  0  0  0  0  0
   10.9676  -18.1750   28.6293 O   0  0  0  0  0  0  0  0  0  0  0  0
  1  2  1  0
  3  2  1  0
  3  5  1  0
  3  4  1  1
  5  7  1  0
  5  6  1  6
  7  8  2  0
  7 13  1  0
 10  9  1  6
 10 11  1  0
 12 14  1  0
 12 10  1  0
 12 13  1  1
 14 15  2  0
 16 14  1  0
 16 17  1  0
 17 18  1  0
 18 20  1  0
 19 18  2  0
M  END
$$$$
