IVG.pdb
     RDKit          3D

 20 19  0  0  1  0  0  0  0  0999 V2000
   10.5198  -13.9282   29.2731 C   0  0  0  0  0  0  0  0  0  0  0  0
    9.4179  -14.8408   28.7961 C   0  0  0  0  0  0  0  0  0  0  0  0
    9.5399  -15.0855   27.3162 C   0  0  2  0  0  0  0  0  0  0  0  0
    9.6284  -13.8071   26.5260 C   0  0  0  0  0  0  0  0  0  0  0  0
    8.3246  -15.8401   26.8161 C   0  0  2  0  0  0  0  0  0  0  0  0
    8.2379  -17.0349   27.6541 N   0  0  0  0  0  0  0  0  0  0  0  0
    8.4541  -16.2177   25.3919 C   0  0  0  0  0  0  0  0  0  0  0  0
    8.5741  -17.4257   25.1028 O   0  0  0  0  0  0  0  0  0  0  0  0
    7.6253  -14.5457   20.7816 C   0  0  0  0  0  0  0  0  0  0  0  0
    7.5740  -14.5942   22.2682 C   0  0  1  0  0  0  0  0  0  0  0  0
    6.1063  -14.7752   22.6800 C   0  0  0  0  0  0  0  0  0  0  0  0
    8.4148  -15.6241   22.9325 C   0  0  2  0  0  0  0  0  0  0  0  0
    8.4454  -15.2577   24.3574 N   0  0  0  0  0  0  0  0  0  0  0  0
    9.7825  -15.7738   22.4384 C   0  0  0  0  0  0  0  0  0  0  0  0
    9.9826  -16.2309   21.2690 O   0  0  0  0  0  0  0  0  0  0  0  0
   10.9373  -15.4359   23.1886 N   0  0  0  0  0  0  0  0  0  0  0  0
   12.2332  -15.6094   22.5622 C   0  0  0  0  0  0  0  0  0  0  0  0
   12.8773  -16.8714   22.9046 C   0  0  0  0  0  0  0  0  0  0  0  0
   12.2224  -17.7947   23.4280 O   0  0  0  0  0  0  0  0  0  0  0  0
   14.2184  -17.0562   22.6524 O   0  0  0  0  0  0  0  0  0  0  0  0
  1  2  1  0
  3  2  1  0
  3  5  1  0
  3  4  1  6
  5  7  1  0
  5  6  1  1
  7  8  2  0
  7 13  1  0
 10  9  1  6
 10 11  1  0
 12 14  1  0
 12 10  1  0
 12 13  1  1
 14 15  2  0
 16 14  1  0
 16 17  1  0
 17 18  1  0
 18 20  1  0
 19 18  2  0
M  END
$$$$
