IVG.pdb
     RDKit          3D

 20 19  0  0  1  0  0  0  0  0999 V2000
   11.5781  -15.1579   30.5679 C   0  0  0  0  0  0  0  0  0  0  0  0
   10.2898  -15.8217   30.1509 C   0  0  0  0  0  0  0  0  0  0  0  0
    9.9950  -15.5373   28.7027 C   0  0  2  0  0  0  0  0  0  0  0  0
    9.9556  -14.0628   28.4014 C   0  0  0  0  0  0  0  0  0  0  0  0
    8.6420  -16.1089   28.3297 C   0  0  2  0  0  0  0  0  0  0  0  0
    8.7460  -17.5459   28.5779 N   0  0  0  0  0  0  0  0  0  0  0  0
    8.3043  -15.8537   26.9125 C   0  0  0  0  0  0  0  0  0  0  0  0
    8.4202  -16.7879   26.0933 O   0  0  0  0  0  0  0  0  0  0  0  0
    5.6098  -12.9308   26.2059 C   0  0  0  0  0  0  0  0  0  0  0  0
    6.6327  -13.0760   25.1347 C   0  0  1  0  0  0  0  0  0  0  0  0
    7.6194  -11.9075   25.2684 C   0  0  0  0  0  0  0  0  0  0  0  0
    7.3768  -14.3617   25.0913 C   0  0  2  0  0  0  0  0  0  0  0  0
    7.8574  -14.5927   26.4630 N   0  0  0  0  0  0  0  0  0  0  0  0
    8.5023  -14.4379   24.1615 C   0  0  0  0  0  0  0  0  0  0  0  0
    9.5197  -13.6974   24.3430 O   0  0  0  0  0  0  0  0  0  0  0  0
    8.5455  -15.3031   23.0389 N   0  0  0  0  0  0  0  0  0  0  0  0
    9.7168  -15.2569   22.1859 C   0  0  0  0  0  0  0  0  0  0  0  0
    9.4341  -15.5916   20.7957 C   0  0  0  0  0  0  0  0  0  0  0  0
    8.2888  -15.9434   20.4497 O   0  0  0  0  0  0  0  0  0  0  0  0
   10.4320  -15.5223   19.8492 O   0  0  0  0  0  0  0  0  0  0  0  0
  1  2  1  0
  3  2  1  0
  3  5  1  0
  3  4  1  1
  5  7  1  0
  5  6  1  6
  7  8  2  0
  7 13  1  0
 10  9  1  1
 10 11  1  0
 12 14  1  0
 12 10  1  0
 12 13  1  1
 14 15  2  0
 16 14  1  0
 16 17  1  0
 17 18  1  0
 18 20  1  0
 19 18  2  0
M  END
$$$$
