IVG.pdb
     RDKit          3D

 20 19  0  0  1  0  0  0  0  0999 V2000
    6.6518  -21.6755   25.5906 C   0  0  0  0  0  0  0  0  0  0  0  0
    5.8116  -20.4574   25.3000 C   0  0  0  0  0  0  0  0  0  0  0  0
    6.6866  -19.2503   25.0943 C   0  0  2  0  0  0  0  0  0  0  0  0
    7.6060  -18.9997   26.2598 C   0  0  0  0  0  0  0  0  0  0  0  0
    5.8278  -18.0134   24.9249 C   0  0  2  0  0  0  0  0  0  0  0  0
    4.9602  -18.2968   23.7828 N   0  0  0  0  0  0  0  0  0  0  0  0
    6.6410  -16.8052   24.6670 C   0  0  0  0  0  0  0  0  0  0  0  0
    7.1552  -16.6608   23.5391 O   0  0  0  0  0  0  0  0  0  0  0  0
    7.9197  -12.2763   26.2754 C   0  0  0  0  0  0  0  0  0  0  0  0
    7.1935  -13.5751   26.3006 C   0  0  1  0  0  0  0  0  0  0  0  0
    5.7304  -13.3004   25.9258 C   0  0  0  0  0  0  0  0  0  0  0  0
    7.7376  -14.6616   25.4450 C   0  0  2  0  0  0  0  0  0  0  0  0
    6.8505  -15.8173   25.6529 N   0  0  0  0  0  0  0  0  0  0  0  0
    9.1225  -15.0600   25.6912 C   0  0  0  0  0  0  0  0  0  0  0  0
    9.5952  -14.9975   26.8698 O   0  0  0  0  0  0  0  0  0  0  0  0
   10.0040  -15.5259   24.6831 N   0  0  0  0  0  0  0  0  0  0  0  0
   11.3808  -15.7933   25.0503 C   0  0  0  0  0  0  0  0  0  0  0  0
   12.3244  -15.5665   23.9627 C   0  0  0  0  0  0  0  0  0  0  0  0
   11.9152  -15.3243   22.8098 O   0  0  0  0  0  0  0  0  0  0  0  0
   13.6801  -15.6179   24.1991 O   0  0  0  0  0  0  0  0  0  0  0  0
  1  2  1  0
  3  2  1  0
  3  5  1  0
  3  4  1  1
  5  7  1  0
  5  6  1  6
  7  8  2  0
  7 13  1  0
 10  9  1  6
 10 11  1  0
 12 14  1  0
 12 10  1  0
 12 13  1  1
 14 15  2  0
 16 14  1  0
 16 17  1  0
 17 18  1  0
 18 20  1  0
 19 18  2  0
M  END
$$$$
