IVG.pdb
     RDKit          3D

 20 19  0  0  1  0  0  0  0  0999 V2000
    9.9108  -20.1691   29.4751 C   0  0  0  0  0  0  0  0  0  0  0  0
    8.5960  -19.5388   29.0901 C   0  0  0  0  0  0  0  0  0  0  0  0
    8.7370  -18.7686   27.8048 C   0  0  2  0  0  0  0  0  0  0  0  0
    9.7561  -17.6649   27.9031 C   0  0  0  0  0  0  0  0  0  0  0  0
    7.4134  -18.1275   27.4396 C   0  0  2  0  0  0  0  0  0  0  0  0
    6.4862  -19.2396   27.2373 N   0  0  0  0  0  0  0  0  0  0  0  0
    7.5138  -17.3102   26.2109 C   0  0  0  0  0  0  0  0  0  0  0  0
    7.4799  -17.8876   25.1051 O   0  0  0  0  0  0  0  0  0  0  0  0
    7.3342  -12.6947   24.3435 C   0  0  0  0  0  0  0  0  0  0  0  0
    7.1997  -13.7642   25.3697 C   0  0  1  0  0  0  0  0  0  0  0  0
    5.7053  -13.9314   25.6783 C   0  0  0  0  0  0  0  0  0  0  0  0
    7.7974  -15.0846   25.0409 C   0  0  2  0  0  0  0  0  0  0  0  0
    7.6456  -15.9057   26.2527 N   0  0  0  0  0  0  0  0  0  0  0  0
    9.1986  -15.0856   24.6241 C   0  0  0  0  0  0  0  0  0  0  0  0
   10.1007  -14.7356   25.4488 O   0  0  0  0  0  0  0  0  0  0  0  0
    9.6399  -15.4601   23.3297 N   0  0  0  0  0  0  0  0  0  0  0  0
   11.0586  -15.3794   23.0421 C   0  0  0  0  0  0  0  0  0  0  0  0
   11.6046  -16.6055   22.4735 C   0  0  0  0  0  0  0  0  0  0  0  0
   11.5597  -17.6749   23.1136 O   0  0  0  0  0  0  0  0  0  0  0  0
   12.1765  -16.5941   21.2208 O   0  0  0  0  0  0  0  0  0  0  0  0
  1  2  1  0
  3  2  1  0
  3  5  1  0
  3  4  1  1
  5  7  1  0
  5  6  1  6
  7  8  2  0
  7 13  1  0
 10  9  1  6
 10 11  1  0
 12 14  1  0
 12 10  1  0
 12 13  1  1
 14 15  2  0
 16 14  1  0
 16 17  1  0
 17 18  1  0
 18 20  1  0
 19 18  2  0
M  END
$$$$
