IVG.pdb
     RDKit          3D

 20 19  0  0  1  0  0  0  0  0999 V2000
    7.5573  -16.1590   18.4639 C   0  0  0  0  0  0  0  0  0  0  0  0
    7.1608  -14.8658   19.1308 C   0  0  0  0  0  0  0  0  0  0  0  0
    7.7488  -14.7840   20.5137 C   0  0  2  0  0  0  0  0  0  0  0  0
    7.3818  -15.9687   21.3670 C   0  0  0  0  0  0  0  0  0  0  0  0
    7.2362  -13.5451   21.2199 C   0  0  2  0  0  0  0  0  0  0  0  0
    7.6046  -12.4252   20.3552 N   0  0  0  0  0  0  0  0  0  0  0  0
    7.8398  -13.3815   22.5602 C   0  0  0  0  0  0  0  0  0  0  0  0
    9.0380  -13.0415   22.6383 O   0  0  0  0  0  0  0  0  0  0  0  0
    7.0814  -12.8739   27.4236 C   0  0  0  0  0  0  0  0  0  0  0  0
    6.7498  -12.9067   25.9731 C   0  0  1  0  0  0  0  0  0  0  0  0
    6.5372  -11.4589   25.5089 C   0  0  0  0  0  0  0  0  0  0  0  0
    7.7252  -13.5845   25.0799 C   0  0  2  0  0  0  0  0  0  0  0  0
    7.1046  -13.5970   23.7455 N   0  0  0  0  0  0  0  0  0  0  0  0
    8.1176  -14.9439   25.4474 C   0  0  0  0  0  0  0  0  0  0  0  0
    7.2300  -15.8478   25.5545 O   0  0  0  0  0  0  0  0  0  0  0  0
    9.4550  -15.3415   25.7001 N   0  0  0  0  0  0  0  0  0  0  0  0
    9.7073  -16.7376   25.9986 C   0  0  0  0  0  0  0  0  0  0  0  0
    9.9871  -16.9870   27.4072 C   0  0  0  0  0  0  0  0  0  0  0  0
    9.9342  -16.0576   28.2372 O   0  0  0  0  0  0  0  0  0  0  0  0
   10.3134  -18.2545   27.8355 O   0  0  0  0  0  0  0  0  0  0  0  0
  1  2  1  0
  3  2  1  0
  3  5  1  0
  3  4  1  1
  5  7  1  0
  5  6  1  6
  7  8  2  0
  7 13  1  0
 10  9  1  1
 10 11  1  0
 12 14  1  0
 12 10  1  0
 12 13  1  6
 14 15  2  0
 16 14  1  0
 16 17  1  0
 17 18  1  0
 18 20  1  0
 19 18  2  0
M  END
$$$$
