IVG.pdb
     RDKit          3D

 20 19  0  0  1  0  0  0  0  0999 V2000
    7.3878  -12.0063   28.0933 C   0  0  0  0  0  0  0  0  0  0  0  0
    6.4737  -12.9129   27.3081 C   0  0  0  0  0  0  0  0  0  0  0  0
    7.2601  -13.7154   26.3068 C   0  0  2  0  0  0  0  0  0  0  0  0
    7.9668  -12.8474   25.3000 C   0  0  0  0  0  0  0  0  0  0  0  0
    6.3314  -14.6324   25.5368 C   0  0  2  0  0  0  0  0  0  0  0  0
    5.8318  -15.5927   26.5194 N   0  0  0  0  0  0  0  0  0  0  0  0
    7.0310  -15.3350   24.4392 C   0  0  0  0  0  0  0  0  0  0  0  0
    7.3154  -16.5410   24.5874 O   0  0  0  0  0  0  0  0  0  0  0  0
    8.3649  -13.1726   21.0277 C   0  0  0  0  0  0  0  0  0  0  0  0
    7.5874  -14.4352   20.9001 C   0  0  1  0  0  0  0  0  0  0  0  0
    7.9778  -15.0927   19.5689 C   0  0  0  0  0  0  0  0  0  0  0  0
    7.7230  -15.4180   22.0067 C   0  0  2  0  0  0  0  0  0  0  0  0
    7.3834  -14.6852   23.2369 N   0  0  0  0  0  0  0  0  0  0  0  0
    9.0299  -16.0540   22.1635 C   0  0  0  0  0  0  0  0  0  0  0  0
    9.3845  -16.9707   21.3570 O   0  0  0  0  0  0  0  0  0  0  0  0
    9.9600  -15.7137   23.1782 N   0  0  0  0  0  0  0  0  0  0  0  0
   11.2146  -16.4386   23.2254 C   0  0  0  0  0  0  0  0  0  0  0  0
   12.2806  -15.8010   22.4627 C   0  0  0  0  0  0  0  0  0  0  0  0
   12.1986  -15.7005   21.2224 O   0  0  0  0  0  0  0  0  0  0  0  0
   13.3911  -15.3024   23.1067 O   0  0  0  0  0  0  0  0  0  0  0  0
  1  2  1  0
  3  2  1  0
  3  5  1  0
  3  4  1  6
  5  7  1  0
  5  6  1  1
  7  8  2  0
  7 13  1  0
 10  9  1  1
 10 11  1  0
 12 14  1  0
 12 10  1  0
 12 13  1  1
 14 15  2  0
 16 14  1  0
 16 17  1  0
 17 18  1  0
 18 20  1  0
 19 18  2  0
M  END
$$$$
