IVG.pdb
     RDKit          3D

 20 19  0  0  1  0  0  0  0  0999 V2000
    9.9534  -13.8012   29.1378 C   0  0  0  0  0  0  0  0  0  0  0  0
    8.7206  -13.8736   28.2721 C   0  0  0  0  0  0  0  0  0  0  0  0
    8.9539  -14.7854   27.0978 C   0  0  2  0  0  0  0  0  0  0  0  0
   10.1664  -14.3936   26.2959 C   0  0  0  0  0  0  0  0  0  0  0  0
    7.7621  -14.7382   26.1631 C   0  0  2  0  0  0  0  0  0  0  0  0
    6.6140  -15.1322   26.9781 N   0  0  0  0  0  0  0  0  0  0  0  0
    7.9203  -15.6590   25.0164 C   0  0  0  0  0  0  0  0  0  0  0  0
    7.7063  -16.8756   25.1932 O   0  0  0  0  0  0  0  0  0  0  0  0
    6.4919  -14.6604   21.4843 C   0  0  0  0  0  0  0  0  0  0  0  0
    7.8718  -15.2137   21.4173 C   0  0  1  0  0  0  0  0  0  0  0  0
    8.8419  -14.0341   21.2620 C   0  0  0  0  0  0  0  0  0  0  0  0
    8.3021  -16.0746   22.5497 C   0  0  2  0  0  0  0  0  0  0  0  0
    8.3034  -15.2042   23.7364 N   0  0  0  0  0  0  0  0  0  0  0  0
    9.6049  -16.7255   22.4216 C   0  0  0  0  0  0  0  0  0  0  0  0
    9.7387  -17.7163   21.6361 O   0  0  0  0  0  0  0  0  0  0  0  0
   10.7655  -16.3212   23.1286 N   0  0  0  0  0  0  0  0  0  0  0  0
   11.9951  -17.0541   22.8985 C   0  0  0  0  0  0  0  0  0  0  0  0
   12.7242  -16.6055   21.7188 C   0  0  0  0  0  0  0  0  0  0  0  0
   12.3091  -15.6401   21.0473 O   0  0  0  0  0  0  0  0  0  0  0  0
   13.8813  -17.2454   21.3339 O   0  0  0  0  0  0  0  0  0  0  0  0
  1  2  1  0
  3  2  1  0
  3  5  1  0
  3  4  1  6
  5  7  1  0
  5  6  1  1
  7  8  2  0
  7 13  1  0
 10  9  1  1
 10 11  1  0
 12 14  1  0
 12 10  1  0
 12 13  1  1
 14 15  2  0
 16 14  1  0
 16 17  1  0
 17 18  1  0
 18 20  1  0
 19 18  2  0
M  END
$$$$
