IVG.pdb
     RDKit          3D

 20 19  0  0  1  0  0  0  0  0999 V2000
    7.7706  -11.5674   27.6237 C   0  0  0  0  0  0  0  0  0  0  0  0
    8.0393  -12.9953   27.2197 C   0  0  0  0  0  0  0  0  0  0  0  0
    7.2300  -13.3603   26.0044 C   0  0  2  0  0  0  0  0  0  0  0  0
    5.7475  -13.2927   26.2575 C   0  0  0  0  0  0  0  0  0  0  0  0
    7.5494  -14.7792   25.5790 C   0  0  2  0  0  0  0  0  0  0  0  0
    8.9724  -14.9584   25.8625 N   0  0  0  0  0  0  0  0  0  0  0  0
    7.2783  -15.0013   24.1420 C   0  0  0  0  0  0  0  0  0  0  0  0
    6.2124  -15.5617   23.8148 O   0  0  0  0  0  0  0  0  0  0  0  0
    8.0960  -13.2871   19.6306 C   0  0  0  0  0  0  0  0  0  0  0  0
    8.1292  -13.3856   21.1152 C   0  0  1  0  0  0  0  0  0  0  0  0
    7.1091  -12.3834   21.6736 C   0  0  0  0  0  0  0  0  0  0  0  0
    7.8879  -14.7299   21.7012 C   0  0  2  0  0  0  0  0  0  0  0  0
    8.1841  -14.6000   23.1368 N   0  0  0  0  0  0  0  0  0  0  0  0
    8.6608  -15.8380   21.1426 C   0  0  0  0  0  0  0  0  0  0  0  0
    8.4848  -16.1801   19.9309 O   0  0  0  0  0  0  0  0  0  0  0  0
    9.6220  -16.5812   21.8736 N   0  0  0  0  0  0  0  0  0  0  0  0
   10.2495  -17.7137   21.2212 C   0  0  0  0  0  0  0  0  0  0  0  0
   11.4092  -18.2263   21.9403 C   0  0  0  0  0  0  0  0  0  0  0  0
   11.6289  -17.8779   23.1174 O   0  0  0  0  0  0  0  0  0  0  0  0
   12.2751  -19.1024   21.3246 O   0  0  0  0  0  0  0  0  0  0  0  0
  1  2  1  0
  3  2  1  0
  3  5  1  0
  3  4  1  1
  5  7  1  0
  5  6  1  6
  7  8  2  0
  7 13  1  0
 10  9  1  6
 10 11  1  0
 12 14  1  0
 12 10  1  0
 12 13  1  1
 14 15  2  0
 16 14  1  0
 16 17  1  0
 17 18  1  0
 18 20  1  0
 19 18  2  0
M  END
$$$$
