IVG.pdb
     RDKit          3D

 20 19  0  0  1  0  0  0  0  0999 V2000
    7.9633  -12.0353   19.3448 C   0  0  0  0  0  0  0  0  0  0  0  0
    8.2799  -13.4809   19.6353 C   0  0  0  0  0  0  0  0  0  0  0  0
    7.6195  -13.9183   20.9149 C   0  0  2  0  0  0  0  0  0  0  0  0
    8.0758  -13.1142   22.1031 C   0  0  0  0  0  0  0  0  0  0  0  0
    7.9538  -15.3689   21.1984 C   0  0  2  0  0  0  0  0  0  0  0  0
    7.5786  -16.0974   19.9877 N   0  0  0  0  0  0  0  0  0  0  0  0
    7.2100  -15.8912   22.3654 C   0  0  0  0  0  0  0  0  0  0  0  0
    5.9692  -15.9968   22.2844 O   0  0  0  0  0  0  0  0  0  0  0  0
    5.5453  -17.8468   22.9600 C   0  0  0  0  0  0  0  0  0  0  0  0
    6.4672  -18.0974   24.1012 C   0  0  1  0  0  0  0  0  0  0  0  0
    7.5088  -19.1281   23.6436 C   0  0  0  0  0  0  0  0  0  0  0  0
    7.1515  -16.9119   24.6800 C   0  0  2  0  0  0  0  0  0  0  0  0
    7.8588  -16.2712   23.5598 N   0  0  0  0  0  0  0  0  0  0  0  0
    8.0926  -17.1642   25.7699 C   0  0  0  0  0  0  0  0  0  0  0  0
    7.6642  -17.6109   26.8805 O   0  0  0  0  0  0  0  0  0  0  0  0
    9.4900  -16.9420   25.6774 N   0  0  0  0  0  0  0  0  0  0  0  0
   10.3134  -17.2886   26.8192 C   0  0  0  0  0  0  0  0  0  0  0  0
   11.0576  -18.5292   26.6409 C   0  0  0  0  0  0  0  0  0  0  0  0
   10.8832  -19.2315   25.6252 O   0  0  0  0  0  0  0  0  0  0  0  0
   11.9624  -18.9381   27.5951 O   0  0  0  0  0  0  0  0  0  0  0  0
  1  2  1  0
  3  2  1  0
  3  5  1  0
  3  4  1  1
  5  7  1  0
  5  6  1  6
  7  8  2  0
  7 13  1  0
 10  9  1  6
 10 11  1  0
 12 14  1  0
 12 10  1  0
 12 13  1  6
 14 15  2  0
 16 14  1  0
 16 17  1  0
 17 18  1  0
 18 20  1  0
 19 18  2  0
M  END
$$$$
