IVG.pdb
     RDKit          3D

 20 19  0  0  1  0  0  0  0  0999 V2000
    7.5623  -11.3870   27.7620 C   0  0  0  0  0  0  0  0  0  0  0  0
    7.5489  -12.8359   27.3441 C   0  0  0  0  0  0  0  0  0  0  0  0
    7.0378  -12.9735   25.9353 C   0  0  2  0  0  0  0  0  0  0  0  0
    5.6333  -12.4546   25.7785 C   0  0  0  0  0  0  0  0  0  0  0  0
    7.0254  -14.4339   25.5312 C   0  0  2  0  0  0  0  0  0  0  0  0
    8.2089  -15.0201   26.1583 N   0  0  0  0  0  0  0  0  0  0  0  0
    7.0829  -14.6032   24.0630 C   0  0  0  0  0  0  0  0  0  0  0  0
    6.1285  -14.1860   23.3757 O   0  0  0  0  0  0  0  0  0  0  0  0
    8.5064  -13.7311   20.0002 C   0  0  0  0  0  0  0  0  0  0  0  0
    8.2131  -13.9297   21.4456 C   0  0  1  0  0  0  0  0  0  0  0  0
    6.8212  -13.3456   21.7252 C   0  0  0  0  0  0  0  0  0  0  0  0
    8.2870  -15.3232   21.9571 C   0  0  2  0  0  0  0  0  0  0  0  0
    8.1789  -15.2186   23.4210 N   0  0  0  0  0  0  0  0  0  0  0  0
    9.4842  -16.0872   21.6103 C   0  0  0  0  0  0  0  0  0  0  0  0
   10.6326  -15.5689   21.7804 O   0  0  0  0  0  0  0  0  0  0  0  0
    9.4591  -17.4034   21.0835 N   0  0  0  0  0  0  0  0  0  0  0  0
   10.7229  -18.0899   20.9011 C   0  0  0  0  0  0  0  0  0  0  0  0
   11.4450  -17.6661   19.7079 C   0  0  0  0  0  0  0  0  0  0  0  0
   10.8823  -17.6636   18.5950 O   0  0  0  0  0  0  0  0  0  0  0  0
   12.7588  -17.2635   19.7991 O   0  0  0  0  0  0  0  0  0  0  0  0
  1  2  1  0
  3  2  1  0
  3  5  1  0
  3  4  1  1
  5  7  1  0
  5  6  1  1
  7  8  2  0
  7 13  1  0
 10  9  1  6
 10 11  1  0
 12 14  1  0
 12 10  1  0
 12 13  1  1
 14 15  2  0
 16 14  1  0
 16 17  1  0
 17 18  1  0
 18 20  1  0
 19 18  2  0
M  END
$$$$
