IVG.pdb
     RDKit          3D

 20 19  0  0  1  0  0  0  0  0999 V2000
    6.6575  -11.3535   27.7065 C   0  0  0  0  0  0  0  0  0  0  0  0
    5.9610  -12.3888   26.8595 C   0  0  0  0  0  0  0  0  0  0  0  0
    6.9600  -13.3515   26.2762 C   0  0  2  0  0  0  0  0  0  0  0  0
    8.0315  -12.6571   25.4785 C   0  0  0  0  0  0  0  0  0  0  0  0
    6.2602  -14.3188   25.3430 C   0  0  2  0  0  0  0  0  0  0  0  0
    5.3765  -15.1110   26.1967 N   0  0  0  0  0  0  0  0  0  0  0  0
    7.2174  -15.1974   24.6361 C   0  0  0  0  0  0  0  0  0  0  0  0
    7.5354  -16.2820   25.1649 O   0  0  0  0  0  0  0  0  0  0  0  0
    9.2459  -16.2173   20.2212 C   0  0  0  0  0  0  0  0  0  0  0  0
    8.4558  -15.4294   21.2060 C   0  0  1  0  0  0  0  0  0  0  0  0
    6.9703  -15.6024   20.8597 C   0  0  0  0  0  0  0  0  0  0  0  0
    8.6781  -15.7396   22.6423 C   0  0  2  0  0  0  0  0  0  0  0  0
    7.7773  -14.8469   23.3888 N   0  0  0  0  0  0  0  0  0  0  0  0
   10.0426  -15.5853   23.1439 C   0  0  0  0  0  0  0  0  0  0  0  0
   10.5642  -14.4273   23.2026 O   0  0  0  0  0  0  0  0  0  0  0  0
   10.8516  -16.6634   23.5839 N   0  0  0  0  0  0  0  0  0  0  0  0
   12.1903  -16.3650   24.0537 C   0  0  0  0  0  0  0  0  0  0  0  0
   13.2172  -16.5599   23.0377 C   0  0  0  0  0  0  0  0  0  0  0  0
   12.9135  -16.9792   21.9031 O   0  0  0  0  0  0  0  0  0  0  0  0
   14.5356  -16.2821   23.3223 O   0  0  0  0  0  0  0  0  0  0  0  0
  1  2  1  0
  3  2  1  0
  3  5  1  0
  3  4  1  6
  5  7  1  0
  5  6  1  1
  7  8  2  0
  7 13  1  0
 10  9  1  6
 10 11  1  0
 12 14  1  0
 12 10  1  0
 12 13  1  1
 14 15  2  0
 16 14  1  0
 16 17  1  0
 17 18  1  0
 18 20  1  0
 19 18  2  0
M  END
$$$$
