IVG.pdb
     RDKit          3D

 20 19  0  0  1  0  0  0  0  0999 V2000
    8.8523  -12.5381   27.4116 C   0  0  0  0  0  0  0  0  0  0  0  0
    8.1282  -13.8027   27.0232 C   0  0  0  0  0  0  0  0  0  0  0  0
    7.0366  -13.5017   26.0319 C   0  0  2  0  0  0  0  0  0  0  0  0
    5.9238  -12.6834   26.6308 C   0  0  0  0  0  0  0  0  0  0  0  0
    6.4247  -14.7940   25.5301 C   0  0  2  0  0  0  0  0  0  0  0  0
    6.2349  -15.6214   26.7204 N   0  0  0  0  0  0  0  0  0  0  0  0
    7.3024  -15.4823   24.5587 C   0  0  0  0  0  0  0  0  0  0  0  0
    7.7670  -16.6003   24.8611 O   0  0  0  0  0  0  0  0  0  0  0  0
    8.8369  -15.6462   19.8335 C   0  0  0  0  0  0  0  0  0  0  0  0
    8.0861  -15.1125   21.0024 C   0  0  1  0  0  0  0  0  0  0  0  0
    6.6019  -15.4470   20.7975 C   0  0  0  0  0  0  0  0  0  0  0  0
    8.5257  -15.5724   22.3455 C   0  0  2  0  0  0  0  0  0  0  0  0
    7.6271  -14.9150   23.3078 N   0  0  0  0  0  0  0  0  0  0  0  0
    9.9146  -15.2993   22.7109 C   0  0  0  0  0  0  0  0  0  0  0  0
   10.2028  -14.2285   23.3328 O   0  0  0  0  0  0  0  0  0  0  0  0
   10.9968  -16.1666   22.4153 N   0  0  0  0  0  0  0  0  0  0  0  0
   12.3250  -15.7703   22.8405 C   0  0  0  0  0  0  0  0  0  0  0  0
   12.8699  -16.6132   23.8975 C   0  0  0  0  0  0  0  0  0  0  0  0
   12.1663  -16.9367   24.8751 O   0  0  0  0  0  0  0  0  0  0  0  0
   14.1701  -17.0613   23.8261 O   0  0  0  0  0  0  0  0  0  0  0  0
  1  2  1  0
  3  2  1  0
  3  5  1  0
  3  4  1  1
  5  7  1  0
  5  6  1  1
  7  8  2  0
  7 13  1  0
 10  9  1  6
 10 11  1  0
 12 14  1  0
 12 10  1  0
 12 13  1  1
 14 15  2  0
 16 14  1  0
 16 17  1  0
 17 18  1  0
 18 20  1  0
 19 18  2  0
M  END
$$$$
