IVG.pdb
     RDKit          3D

 20 19  0  0  1  0  0  0  0  0999 V2000
    6.8713  -11.1647   27.8615 C   0  0  0  0  0  0  0  0  0  0  0  0
    6.0689  -12.1196   27.0137 C   0  0  0  0  0  0  0  0  0  0  0  0
    6.9543  -13.2018   26.4571 C   0  0  2  0  0  0  0  0  0  0  0  0
    8.1369  -12.6497   25.7067 C   0  0  0  0  0  0  0  0  0  0  0  0
    6.1694  -14.0633   25.4886 C   0  0  2  0  0  0  0  0  0  0  0  0
    5.1740  -14.7565   26.3047 N   0  0  0  0  0  0  0  0  0  0  0  0
    7.0333  -15.0396   24.7898 C   0  0  0  0  0  0  0  0  0  0  0  0
    7.2762  -16.1290   25.3478 O   0  0  0  0  0  0  0  0  0  0  0  0
    9.0205  -16.2964   20.4037 C   0  0  0  0  0  0  0  0  0  0  0  0
    8.2867  -15.4246   21.3610 C   0  0  1  0  0  0  0  0  0  0  0  0
    6.8017  -15.4492   20.9726 C   0  0  0  0  0  0  0  0  0  0  0  0
    8.4356  -15.7440   22.8048 C   0  0  2  0  0  0  0  0  0  0  0  0
    7.5868  -14.7765   23.5184 N   0  0  0  0  0  0  0  0  0  0  0  0
    9.7909  -15.6987   23.3508 C   0  0  0  0  0  0  0  0  0  0  0  0
   10.3849  -14.5808   23.4686 O   0  0  0  0  0  0  0  0  0  0  0  0
   10.5137  -16.8434   23.7727 N   0  0  0  0  0  0  0  0  0  0  0  0
   11.8527  -16.6513   24.2942 C   0  0  0  0  0  0  0  0  0  0  0  0
   12.8888  -16.7293   23.2719 C   0  0  0  0  0  0  0  0  0  0  0  0
   12.5935  -16.9993   22.0907 O   0  0  0  0  0  0  0  0  0  0  0  0
   14.2068  -16.5047   23.6019 O   0  0  0  0  0  0  0  0  0  0  0  0
  1  2  1  0
  3  2  1  0
  3  5  1  0
  3  4  1  6
  5  7  1  0
  5  6  1  1
  7  8  2  0
  7 13  1  0
 10  9  1  6
 10 11  1  0
 12 14  1  0
 12 10  1  0
 12 13  1  1
 14 15  2  0
 16 14  1  0
 16 17  1  0
 17 18  1  0
 18 20  1  0
 19 18  2  0
M  END
$$$$
