FQE.pdb
     RDKit          3D

 30 30  0  0  1  0  0  0  0  0999 V2000
   24.7353  -11.9081  -18.1537 N   0  0  0  0  0  0  0  0  0  0  0  0
   24.3408  -11.8566  -16.7600 C   0  0  1  0  0  0  0  0  0  0  0  0
   25.5689  -11.4704  -15.9354 C   0  0  0  0  0  0  0  0  0  0  0  0
   26.5496  -12.5732  -15.9842 C   0  0  0  0  0  0  0  0  0  0  0  0
   27.7101  -12.4347  -16.6920 C   0  0  0  0  0  0  0  0  0  0  0  0
   28.6062  -13.4695  -16.7245 C   0  0  0  0  0  0  0  0  0  0  0  0
   28.3737  -14.6568  -16.0605 C   0  0  0  0  0  0  0  0  0  0  0  0
   27.1996  -14.7754  -15.3540 C   0  0  0  0  0  0  0  0  0  0  0  0
   26.2843  -13.7363  -15.3129 C   0  0  0  0  0  0  0  0  0  0  0  0
   23.3385  -10.7952  -16.5675 C   0  0  0  0  0  0  0  0  0  0  0  0
   23.3629   -9.7674  -17.2937 O   0  0  0  0  0  0  0  0  0  0  0  0
   17.9008  -11.2363  -13.4045 N   0  0  0  0  0  0  0  0  0  0  0  0
   18.0613  -11.7984  -14.7020 C   0  0  0  0  0  0  0  0  0  0  0  0
   17.2085  -12.6377  -15.0903 O   0  0  0  0  0  0  0  0  0  0  0  0
   19.2256  -11.3814  -15.5592 C   0  0  0  0  0  0  0  0  0  0  0  0
   20.0268  -10.4088  -14.7689 C   0  0  0  0  0  0  0  0  0  0  0  0
   21.2600   -9.9052  -15.4376 C   0  0  2  0  0  0  0  0  0  0  0  0
   22.3102  -10.8749  -15.5698 N   0  0  0  0  0  0  0  0  0  0  0  0
   21.7659   -8.6183  -14.8548 C   0  0  0  0  0  0  0  0  0  0  0  0
   22.7121   -8.6132  -14.0203 O   0  0  0  0  0  0  0  0  0  0  0  0
   21.1380   -7.4191  -15.2799 N   0  0  0  0  0  0  0  0  0  0  0  0
   21.5896   -6.0958  -14.8055 C   0  0  1  0  0  0  0  0  0  0  0  0
   22.4656   -5.5039  -15.8538 C   0  0  0  0  0  0  0  0  0  0  0  0
   22.9692   -4.1206  -15.5602 C   0  0  0  0  0  0  0  0  0  0  0  0
   23.7399   -3.6548  -16.7497 C   0  0  0  0  0  0  0  0  0  0  0  0
   24.0258   -4.4386  -17.6710 O   0  0  0  0  0  0  0  0  0  0  0  0
   20.4176   -5.2614  -14.5129 C   0  0  0  0  0  0  0  0  0  0  0  0
   20.4361   -4.2868  -13.5505 O   0  0  0  0  0  0  0  0  0  0  0  0
   24.1416   -2.3332  -16.8285 O   0  0  0  0  0  0  0  0  0  0  0  0
   19.3151   -5.4083  -15.1468 O   0  0  0  0  0  0  0  0  0  0  0  0
  2  1  1  6
  2 10  1  0
  3  2  1  0
  3  4  1  0
  4  5  2  0
  4  9  1  0
  5  6  1  0
  6  7  2  0
  8  7  1  0
  9  8  2  0
 10 11  2  0
 13 14  2  0
 13 12  1  0
 15 13  1  0
 17 16  1  1
 16 15  1  0
 17 19  1  0
 18 10  1  0
 18 17  1  0
 19 20  2  0
 21 19  1  0
 21 22  1  0
 22 27  1  0
 23 24  1  0
 22 23  1  6
 24 25  1  0
 25 29  1  0
 25 26  2  0
 27 28  1  0
 30 27  2  0
M  END
$$$$
