FQE.pdb
     RDKit          3D

 30 30  0  0  1  0  0  0  0  0999 V2000
   28.5260  -26.3343  -16.3903 N   0  0  0  0  0  0  0  0  0  0  0  0
   28.0708  -27.3246  -17.3458 C   0  0  1  0  0  0  0  0  0  0  0  0
   29.2394  -28.2634  -17.6460 C   0  0  0  0  0  0  0  0  0  0  0  0
   30.2206  -27.5573  -18.4940 C   0  0  0  0  0  0  0  0  0  0  0  0
   31.4274  -27.1736  -17.9810 C   0  0  0  0  0  0  0  0  0  0  0  0
   32.3231  -26.5199  -18.7842 C   0  0  0  0  0  0  0  0  0  0  0  0
   32.0445  -26.2337  -20.1053 C   0  0  0  0  0  0  0  0  0  0  0  0
   30.8241  -26.6286  -20.6018 C   0  0  0  0  0  0  0  0  0  0  0  0
   29.9088  -27.2907  -19.8000 C   0  0  0  0  0  0  0  0  0  0  0  0
   27.0033  -28.1405  -16.7434 C   0  0  0  0  0  0  0  0  0  0  0  0
   27.1899  -28.6992  -15.6311 O   0  0  0  0  0  0  0  0  0  0  0  0
   22.4535  -25.9753  -16.2297 N   0  0  0  0  0  0  0  0  0  0  0  0
   22.5234  -26.3019  -17.6130 C   0  0  0  0  0  0  0  0  0  0  0  0
   22.1617  -25.4292  -18.4436 O   0  0  0  0  0  0  0  0  0  0  0  0
   23.0191  -27.6579  -18.0375 C   0  0  0  0  0  0  0  0  0  0  0  0
   23.3355  -28.4175  -16.7984 C   0  0  0  0  0  0  0  0  0  0  0  0
   24.6632  -29.0949  -16.7867 C   0  0  2  0  0  0  0  0  0  0  0  0
   25.7299  -28.3359  -17.3755 N   0  0  0  0  0  0  0  0  0  0  0  0
   24.6181  -30.4949  -17.3249 C   0  0  0  0  0  0  0  0  0  0  0  0
   24.5447  -30.7094  -18.5660 O   0  0  0  0  0  0  0  0  0  0  0  0
   24.6609  -31.5564  -16.3844 N   0  0  0  0  0  0  0  0  0  0  0  0
   24.6977  -32.9697  -16.8097 C   0  0  1  0  0  0  0  0  0  0  0  0
   26.0043  -33.5450  -16.3875 C   0  0  0  0  0  0  0  0  0  0  0  0
   26.1806  -35.0084  -16.6715 C   0  0  0  0  0  0  0  0  0  0  0  0
   27.5761  -35.3799  -16.2970 C   0  0  0  0  0  0  0  0  0  0  0  0
   27.8453  -35.7717  -15.1485 O   0  0  0  0  0  0  0  0  0  0  0  0
   23.5535  -33.6804  -16.2256 C   0  0  0  0  0  0  0  0  0  0  0  0
   22.9527  -33.2695  -15.0652 O   0  0  0  0  0  0  0  0  0  0  0  0
   28.5841  -35.2871  -17.2402 O   0  0  0  0  0  0  0  0  0  0  0  0
   23.0618  -34.7262  -16.7766 O   0  0  0  0  0  0  0  0  0  0  0  0
  2  1  1  1
  2 10  1  0
  3  2  1  0
  3  4  1  0
  4  5  2  0
  4  9  1  0
  5  6  1  0
  6  7  2  0
  8  7  1  0
  9  8  2  0
 10 11  2  0
 13 14  2  0
 13 12  1  0
 15 13  1  0
 17 16  1  6
 16 15  1  0
 17 19  1  0
 18 10  1  0
 18 17  1  0
 19 20  2  0
 21 19  1  0
 21 22  1  0
 22 27  1  0
 23 24  1  0
 22 23  1  1
 24 25  1  0
 25 29  1  0
 25 26  2  0
 27 28  1  0
 30 27  2  0
M  END
$$$$
