FQE.pdb
     RDKit          3D

 30 30  0  0  1  0  0  0  0  0999 V2000
   28.5447  -21.1892  -13.6797 N   0  0  0  0  0  0  0  0  0  0  0  0
   27.4688  -21.1676  -12.7088 C   0  0  1  0  0  0  0  0  0  0  0  0
   27.4945  -19.8104  -12.0054 C   0  0  0  0  0  0  0  0  0  0  0  0
   27.5351  -20.0242  -10.5449 C   0  0  0  0  0  0  0  0  0  0  0  0
   28.7006  -20.3889   -9.9323 C   0  0  0  0  0  0  0  0  0  0  0  0
   28.7167  -20.5821   -8.5769 C   0  0  0  0  0  0  0  0  0  0  0  0
   27.5854  -20.4192   -7.8034 C   0  0  0  0  0  0  0  0  0  0  0  0
   26.4228  -20.0518   -8.4398 C   0  0  0  0  0  0  0  0  0  0  0  0
   26.3926  -19.8531   -9.8104 C   0  0  0  0  0  0  0  0  0  0  0  0
   26.1737  -21.2719  -13.4016 C   0  0  0  0  0  0  0  0  0  0  0  0
   25.9731  -20.6235  -14.4616 O   0  0  0  0  0  0  0  0  0  0  0  0
   23.8965  -25.3276  -15.5405 N   0  0  0  0  0  0  0  0  0  0  0  0
   22.5452  -24.8855  -15.4818 C   0  0  0  0  0  0  0  0  0  0  0  0
   21.7411  -25.3325  -16.3397 O   0  0  0  0  0  0  0  0  0  0  0  0
   22.1219  -23.9127  -14.4146 C   0  0  0  0  0  0  0  0  0  0  0  0
   23.3088  -23.6608  -13.5542 C   0  0  0  0  0  0  0  0  0  0  0  0
   23.8668  -22.2805  -13.6247 C   0  0  2  0  0  0  0  0  0  0  0  0
   25.1026  -22.0955  -12.9181 N   0  0  0  0  0  0  0  0  0  0  0  0
   22.8657  -21.2188  -13.2751 C   0  0  0  0  0  0  0  0  0  0  0  0
   23.2147  -20.1812  -12.6479 O   0  0  0  0  0  0  0  0  0  0  0  0
   21.5219  -21.4324  -13.6771 N   0  0  0  0  0  0  0  0  0  0  0  0
   20.4753  -20.4138  -13.4605 C   0  0  1  0  0  0  0  0  0  0  0  0
   20.8575  -19.1908  -14.2186 C   0  0  0  0  0  0  0  0  0  0  0  0
   20.1455  -19.0003  -15.5264 C   0  0  0  0  0  0  0  0  0  0  0  0
   20.5672  -17.6835  -16.0866 C   0  0  0  0  0  0  0  0  0  0  0  0
   21.3646  -17.6213  -17.0381 O   0  0  0  0  0  0  0  0  0  0  0  0
   19.1780  -20.9563  -13.8824 C   0  0  0  0  0  0  0  0  0  0  0  0
   17.9934  -20.5065  -13.3621 O   0  0  0  0  0  0  0  0  0  0  0  0
   20.0644  -16.5161  -15.5400 O   0  0  0  0  0  0  0  0  0  0  0  0
   19.0929  -21.8833  -14.7612 O   0  0  0  0  0  0  0  0  0  0  0  0
  2  1  1  6
  2 10  1  0
  3  2  1  0
  3  4  1  0
  4  5  2  0
  4  9  1  0
  5  6  1  0
  6  7  2  0
  8  7  1  0
  9  8  2  0
 10 11  2  0
 13 14  2  0
 13 12  1  0
 15 13  1  0
 17 16  1  1
 16 15  1  0
 17 19  1  0
 18 10  1  0
 18 17  1  0
 19 20  2  0
 21 19  1  0
 21 22  1  0
 22 27  1  0
 23 24  1  0
 22 23  1  6
 24 25  1  0
 25 29  1  0
 25 26  2  0
 27 28  1  0
 30 27  2  0
M  END
$$$$
