FQE.pdb
     RDKit          3D

 30 30  0  0  1  0  0  0  0  0999 V2000
   25.5905  -20.8241   -8.0491 N   0  0  0  0  0  0  0  0  0  0  0  0
   26.7502  -20.2160   -8.6704 C   0  0  1  0  0  0  0  0  0  0  0  0
   27.9990  -20.7749   -7.9884 C   0  0  0  0  0  0  0  0  0  0  0  0
   28.0990  -20.2113   -6.6272 C   0  0  0  0  0  0  0  0  0  0  0  0
   27.6172  -18.9610   -6.3602 C   0  0  0  0  0  0  0  0  0  0  0  0
   27.7198  -18.4570   -5.0913 C   0  0  0  0  0  0  0  0  0  0  0  0
   28.2984  -19.1762   -4.0653 C   0  0  0  0  0  0  0  0  0  0  0  0
   28.7769  -20.4326   -4.3554 C   0  0  0  0  0  0  0  0  0  0  0  0
   28.6795  -20.9546   -5.6349 C   0  0  0  0  0  0  0  0  0  0  0  0
   26.8173  -20.6105  -10.0876 C   0  0  0  0  0  0  0  0  0  0  0  0
   27.9020  -20.5099  -10.7180 O   0  0  0  0  0  0  0  0  0  0  0  0
   24.5746  -25.0296  -13.4777 N   0  0  0  0  0  0  0  0  0  0  0  0
   24.9088  -24.1401  -14.5370 C   0  0  0  0  0  0  0  0  0  0  0  0
   24.8527  -24.5785  -15.7147 O   0  0  0  0  0  0  0  0  0  0  0  0
   25.3131  -22.7244  -14.2257 C   0  0  0  0  0  0  0  0  0  0  0  0
   25.2262  -22.5572  -12.7502 C   0  0  0  0  0  0  0  0  0  0  0  0
   25.6303  -21.2183  -12.2347 C   0  0  2  0  0  0  0  0  0  0  0  0
   25.6812  -21.1160  -10.8037 N   0  0  0  0  0  0  0  0  0  0  0  0
   24.8498  -20.0899  -12.8423 C   0  0  0  0  0  0  0  0  0  0  0  0
   23.7385  -19.7378  -12.3598 O   0  0  0  0  0  0  0  0  0  0  0  0
   25.4120  -19.4431  -13.9731 N   0  0  0  0  0  0  0  0  0  0  0  0
   24.7513  -18.2903  -14.6166 C   0  0  1  0  0  0  0  0  0  0  0  0
   25.6234  -17.8193  -15.7275 C   0  0  0  0  0  0  0  0  0  0  0  0
   27.0523  -17.5550  -15.3509 C   0  0  0  0  0  0  0  0  0  0  0  0
   27.8200  -17.3270  -16.6096 C   0  0  0  0  0  0  0  0  0  0  0  0
   27.7162  -16.2579  -17.2350 O   0  0  0  0  0  0  0  0  0  0  0  0
   23.4175  -18.6936  -15.0789 C   0  0  0  0  0  0  0  0  0  0  0  0
   22.3139  -17.9002  -14.9088 O   0  0  0  0  0  0  0  0  0  0  0  0
   28.6584  -18.3185  -17.0873 O   0  0  0  0  0  0  0  0  0  0  0  0
   23.2220  -19.8149  -15.6650 O   0  0  0  0  0  0  0  0  0  0  0  0
  2  1  1  1
  2 10  1  0
  3  2  1  0
  3  4  1  0
  4  5  2  0
  4  9  1  0
  5  6  1  0
  6  7  2  0
  8  7  1  0
  9  8  2  0
 10 11  2  0
 13 14  2  0
 13 12  1  0
 15 13  1  0
 17 16  1  1
 16 15  1  0
 17 19  1  0
 18 10  1  0
 18 17  1  0
 19 20  2  0
 21 19  1  0
 21 22  1  0
 22 27  1  0
 23 24  1  0
 22 23  1  6
 24 25  1  0
 25 29  1  0
 25 26  2  0
 27 28  1  0
 30 27  2  0
M  END
$$$$
