FQE.pdb
     RDKit          3D

 30 30  0  0  1  0  0  0  0  0999 V2000
   28.6664  -20.8979   -9.1330 N   0  0  0  0  0  0  0  0  0  0  0  0
   27.2389  -20.7990   -8.9029 C   0  0  1  0  0  0  0  0  0  0  0  0
   26.9734  -19.5068   -8.1302 C   0  0  0  0  0  0  0  0  0  0  0  0
   27.5543  -19.6248   -6.7778 C   0  0  0  0  0  0  0  0  0  0  0  0
   28.5976  -18.8266   -6.4021 C   0  0  0  0  0  0  0  0  0  0  0  0
   29.1217  -18.9520   -5.1434 C   0  0  0  0  0  0  0  0  0  0  0  0
   28.6267  -19.8654   -4.2349 C   0  0  0  0  0  0  0  0  0  0  0  0
   27.5765  -20.6592   -4.6332 C   0  0  0  0  0  0  0  0  0  0  0  0
   27.0368  -20.5426   -5.9038 C   0  0  0  0  0  0  0  0  0  0  0  0
   26.5357  -20.6854  -10.1917 C   0  0  0  0  0  0  0  0  0  0  0  0
   26.8758  -19.7989  -11.0180 O   0  0  0  0  0  0  0  0  0  0  0  0
   24.7986  -25.1785  -13.7509 N   0  0  0  0  0  0  0  0  0  0  0  0
   24.1944  -24.1290  -14.4982 C   0  0  0  0  0  0  0  0  0  0  0  0
   23.7054  -24.4116  -15.6222 O   0  0  0  0  0  0  0  0  0  0  0  0
   24.1571  -22.7344  -13.9341 C   0  0  0  0  0  0  0  0  0  0  0  0
   24.7546  -22.7949  -12.5733 C   0  0  0  0  0  0  0  0  0  0  0  0
   24.7985  -21.4995  -11.8373 C   0  0  2  0  0  0  0  0  0  0  0  0
   25.4562  -21.5551  -10.5625 N   0  0  0  0  0  0  0  0  0  0  0  0
   23.4600  -20.8283  -11.7401 C   0  0  0  0  0  0  0  0  0  0  0  0
   22.7993  -20.8540  -10.6656 O   0  0  0  0  0  0  0  0  0  0  0  0
   22.9752  -20.1702  -12.8998 N   0  0  0  0  0  0  0  0  0  0  0  0
   21.6382  -19.5449  -12.9360 C   0  0  1  0  0  0  0  0  0  0  0  0
   21.5594  -18.6942  -14.1553 C   0  0  0  0  0  0  0  0  0  0  0  0
   20.2335  -18.0295  -14.3868 C   0  0  0  0  0  0  0  0  0  0  0  0
   20.3440  -17.2147  -15.6317 C   0  0  0  0  0  0  0  0  0  0  0  0
   21.2935  -17.3765  -16.4174 O   0  0  0  0  0  0  0  0  0  0  0  0
   20.6125  -20.5950  -12.9138 C   0  0  0  0  0  0  0  0  0  0  0  0
   19.4290  -20.4467  -12.2403 O   0  0  0  0  0  0  0  0  0  0  0  0
   19.3772  -16.2667  -15.9156 O   0  0  0  0  0  0  0  0  0  0  0  0
   20.7786  -21.7071  -13.5258 O   0  0  0  0  0  0  0  0  0  0  0  0
  2  1  1  6
  2 10  1  0
  3  2  1  0
  3  4  1  0
  4  5  2  0
  4  9  1  0
  5  6  1  0
  6  7  2  0
  8  7  1  0
  9  8  2  0
 10 11  2  0
 13 14  2  0
 13 12  1  0
 15 13  1  0
 17 16  1  1
 16 15  1  0
 17 19  1  0
 18 10  1  0
 18 17  1  0
 19 20  2  0
 21 19  1  0
 21 22  1  0
 22 27  1  0
 23 24  1  0
 22 23  1  6
 24 25  1  0
 25 29  1  0
 25 26  2  0
 27 28  1  0
 30 27  2  0
M  END
$$$$
