FQE.pdb
     RDKit          3D

 30 30  0  0  1  0  0  0  0  0999 V2000
   28.5923  -21.0271   -9.1644 N   0  0  0  0  0  0  0  0  0  0  0  0
   27.2140  -20.6577   -8.9108 C   0  0  1  0  0  0  0  0  0  0  0  0
   27.2116  -19.3123   -8.1846 C   0  0  0  0  0  0  0  0  0  0  0  0
   27.7612  -19.4957   -6.8264 C   0  0  0  0  0  0  0  0  0  0  0  0
   29.0561  -19.1558   -6.5536 C   0  0  0  0  0  0  0  0  0  0  0  0
   29.5463  -19.3337   -5.2876 C   0  0  0  0  0  0  0  0  0  0  0  0
   28.7690  -19.8492   -4.2703 C   0  0  0  0  0  0  0  0  0  0  0  0
   27.4684  -20.1848   -4.5662 C   0  0  0  0  0  0  0  0  0  0  0  0
   26.9598  -20.0099   -5.8428 C   0  0  0  0  0  0  0  0  0  0  0  0
   26.5101  -20.4613  -10.1891 C   0  0  0  0  0  0  0  0  0  0  0  0
   27.1131  -19.9468  -11.1669 O   0  0  0  0  0  0  0  0  0  0  0  0
   23.4598  -24.2272  -14.7150 N   0  0  0  0  0  0  0  0  0  0  0  0
   24.6520  -23.5379  -14.3564 C   0  0  0  0  0  0  0  0  0  0  0  0
   25.7386  -24.1688  -14.4172 O   0  0  0  0  0  0  0  0  0  0  0  0
   24.5822  -22.0988  -13.9219 C   0  0  0  0  0  0  0  0  0  0  0  0
   25.1179  -22.0321  -12.5359 C   0  0  0  0  0  0  0  0  0  0  0  0
   24.5288  -20.9677  -11.6746 C   0  0  2  0  0  0  0  0  0  0  0  0
   25.1383  -20.8357  -10.3816 N   0  0  0  0  0  0  0  0  0  0  0  0
   23.0336  -21.0464  -11.5757 C   0  0  0  0  0  0  0  0  0  0  0  0
   22.4793  -21.6783  -10.6348 O   0  0  0  0  0  0  0  0  0  0  0  0
   22.2784  -20.3850  -12.5783 N   0  0  0  0  0  0  0  0  0  0  0  0
   20.8027  -20.3539  -12.5451 C   0  0  1  0  0  0  0  0  0  0  0  0
   20.3494  -19.1487  -13.2925 C   0  0  0  0  0  0  0  0  0  0  0  0
   20.4957  -17.8479  -12.5578 C   0  0  0  0  0  0  0  0  0  0  0  0
   19.9010  -16.7757  -13.4078 C   0  0  0  0  0  0  0  0  0  0  0  0
   18.6687  -16.6323  -13.4837 O   0  0  0  0  0  0  0  0  0  0  0  0
   20.2798  -21.6013  -13.1161 C   0  0  0  0  0  0  0  0  0  0  0  0
   20.8919  -22.2395  -14.1621 O   0  0  0  0  0  0  0  0  0  0  0  0
   20.7318  -15.9299  -14.1209 O   0  0  0  0  0  0  0  0  0  0  0  0
   19.2183  -22.1535  -12.6608 O   0  0  0  0  0  0  0  0  0  0  0  0
  2  1  1  6
  2 10  1  0
  3  2  1  0
  3  4  1  0
  4  5  2  0
  4  9  1  0
  5  6  1  0
  6  7  2  0
  8  7  1  0
  9  8  2  0
 10 11  2  0
 13 14  2  0
 13 12  1  0
 15 13  1  0
 17 16  1  1
 16 15  1  0
 17 19  1  0
 18 10  1  0
 18 17  1  0
 19 20  2  0
 21 19  1  0
 21 22  1  0
 22 27  1  0
 23 24  1  0
 22 23  1  6
 24 25  1  0
 25 29  1  0
 25 26  2  0
 27 28  1  0
 30 27  2  0
M  END
$$$$
