FQE.pdb
     RDKit          3D

 30 30  0  0  1  0  0  0  0  0999 V2000
   25.6751  -20.0422  -17.8315 N   0  0  0  0  0  0  0  0  0  0  0  0
   25.5939  -19.2222  -16.6392 C   0  0  1  0  0  0  0  0  0  0  0  0
   24.9199  -17.9033  -17.0180 C   0  0  0  0  0  0  0  0  0  0  0  0
   25.8480  -17.1069  -17.8455 C   0  0  0  0  0  0  0  0  0  0  0  0
   26.9887  -16.5890  -17.3003 C   0  0  0  0  0  0  0  0  0  0  0  0
   27.8360  -15.8534  -18.0850 C   0  0  0  0  0  0  0  0  0  0  0  0
   27.5733  -15.6162  -19.4190 C   0  0  0  0  0  0  0  0  0  0  0  0
   26.4198  -16.1465  -19.9480 C   0  0  0  0  0  0  0  0  0  0  0  0
   25.5539  -16.8927  -19.1652 C   0  0  0  0  0  0  0  0  0  0  0  0
   24.7309  -19.8794  -15.6434 C   0  0  0  0  0  0  0  0  0  0  0  0
   23.7809  -20.6137  -16.0209 O   0  0  0  0  0  0  0  0  0  0  0  0
   25.8263  -20.4910   -9.5055 N   0  0  0  0  0  0  0  0  0  0  0  0
   24.4691  -20.9179   -9.5317 C   0  0  0  0  0  0  0  0  0  0  0  0
   23.9555  -21.3159   -8.4545 O   0  0  0  0  0  0  0  0  0  0  0  0
   23.6983  -20.8824  -10.8237 C   0  0  0  0  0  0  0  0  0  0  0  0
   24.6145  -20.3491  -11.8671 C   0  0  0  0  0  0  0  0  0  0  0  0
   24.0489  -20.2934  -13.2450 C   0  0  2  0  0  0  0  0  0  0  0  0
   24.9226  -19.7214  -14.2301 N   0  0  0  0  0  0  0  0  0  0  0  0
   22.6797  -19.6820  -13.2986 C   0  0  0  0  0  0  0  0  0  0  0  0
   22.5207  -18.4792  -13.6448 O   0  0  0  0  0  0  0  0  0  0  0  0
   21.5823  -20.5091  -12.9454 N   0  0  0  0  0  0  0  0  0  0  0  0
   20.1927  -20.1411  -13.2818 C   0  0  1  0  0  0  0  0  0  0  0  0
   20.1030  -19.9778  -14.7589 C   0  0  0  0  0  0  0  0  0  0  0  0
   19.7635  -18.5936  -15.2300 C   0  0  0  0  0  0  0  0  0  0  0  0
   19.1519  -18.7114  -16.5856 C   0  0  0  0  0  0  0  0  0  0  0  0
   18.5993  -19.7646  -16.9465 O   0  0  0  0  0  0  0  0  0  0  0  0
   19.2821  -21.1739  -12.7723 C   0  0  0  0  0  0  0  0  0  0  0  0
   18.0353  -20.8759  -12.2898 O   0  0  0  0  0  0  0  0  0  0  0  0
   19.2004  -17.6343  -17.4527 O   0  0  0  0  0  0  0  0  0  0  0  0
   19.6144  -22.4101  -12.7533 O   0  0  0  0  0  0  0  0  0  0  0  0
  2  1  1  6
  2 10  1  0
  3  2  1  0
  3  4  1  0
  4  5  2  0
  4  9  1  0
  5  6  1  0
  6  7  2  0
  8  7  1  0
  9  8  2  0
 10 11  2  0
 13 14  2  0
 13 12  1  0
 15 13  1  0
 17 16  1  1
 16 15  1  0
 17 19  1  0
 18 10  1  0
 18 17  1  0
 19 20  2  0
 21 19  1  0
 21 22  1  0
 22 27  1  0
 23 24  1  0
 22 23  1  6
 24 25  1  0
 25 29  1  0
 25 26  2  0
 27 28  1  0
 30 27  2  0
M  END
$$$$
