FQE.pdb
     RDKit          3D

 30 30  0  0  1  0  0  0  0  0999 V2000
   17.4253  -10.1861  -18.2783 N   0  0  0  0  0  0  0  0  0  0  0  0
   17.5245   -9.6779  -16.9246 C   0  0  1  0  0  0  0  0  0  0  0  0
   18.7804  -10.2728  -16.2875 C   0  0  0  0  0  0  0  0  0  0  0  0
   18.6109  -11.7341  -16.1592 C   0  0  0  0  0  0  0  0  0  0  0  0
   19.2255  -12.5805  -17.0382 C   0  0  0  0  0  0  0  0  0  0  0  0
   19.0554  -13.9322  -16.9017 C   0  0  0  0  0  0  0  0  0  0  0  0
   18.2774  -14.4717  -15.8974 C   0  0  0  0  0  0  0  0  0  0  0  0
   17.6677  -13.6022  -15.0234 C   0  0  0  0  0  0  0  0  0  0  0  0
   17.8315  -12.2324  -15.1502 C   0  0  0  0  0  0  0  0  0  0  0  0
   17.7050   -8.2168  -16.9556 C   0  0  0  0  0  0  0  0  0  0  0  0
   18.3397   -7.6811  -17.9013 O   0  0  0  0  0  0  0  0  0  0  0  0
   13.6733   -3.9983  -15.4686 N   0  0  0  0  0  0  0  0  0  0  0  0
   14.7460   -3.1359  -15.8299 C   0  0  0  0  0  0  0  0  0  0  0  0
   14.4961   -1.9109  -15.9689 O   0  0  0  0  0  0  0  0  0  0  0  0
   16.1255   -3.7020  -16.0323 C   0  0  0  0  0  0  0  0  0  0  0  0
   16.0196   -5.1787  -15.8894 C   0  0  0  0  0  0  0  0  0  0  0  0
   17.3088   -5.9221  -15.9726 C   0  0  2  0  0  0  0  0  0  0  0  0
   17.1812   -7.3515  -15.9377 N   0  0  0  0  0  0  0  0  0  0  0  0
   18.3372   -5.4348  -14.9946 C   0  0  0  0  0  0  0  0  0  0  0  0
   18.3025   -5.7939  -13.7857 O   0  0  0  0  0  0  0  0  0  0  0  0
   19.3405   -4.5599  -15.4857 N   0  0  0  0  0  0  0  0  0  0  0  0
   20.4471   -4.0890  -14.6293 C   0  0  1  0  0  0  0  0  0  0  0  0
   21.7218   -4.6131  -15.1923 C   0  0  0  0  0  0  0  0  0  0  0  0
   22.0861   -6.0047  -14.7632 C   0  0  0  0  0  0  0  0  0  0  0  0
   23.3381   -6.3884  -15.4781 C   0  0  0  0  0  0  0  0  0  0  0  0
   24.3023   -5.6065  -15.5396 O   0  0  0  0  0  0  0  0  0  0  0  0
   20.4194   -2.6224  -14.5663 C   0  0  0  0  0  0  0  0  0  0  0  0
   20.9948   -1.9238  -13.5382 O   0  0  0  0  0  0  0  0  0  0  0  0
   23.4272   -7.6307  -16.0806 O   0  0  0  0  0  0  0  0  0  0  0  0
   19.8501   -1.9233  -15.4752 O   0  0  0  0  0  0  0  0  0  0  0  0
  2  1  1  6
  2 10  1  0
  3  2  1  0
  3  4  1  0
  4  5  2  0
  4  9  1  0
  5  6  1  0
  6  7  2  0
  8  7  1  0
  9  8  2  0
 10 11  2  0
 13 14  2  0
 13 12  1  0
 15 13  1  0
 17 16  1  1
 16 15  1  0
 17 19  1  0
 18 10  1  0
 18 17  1  0
 19 20  2  0
 21 19  1  0
 21 22  1  0
 22 27  1  0
 23 24  1  0
 22 23  1  6
 24 25  1  0
 25 29  1  0
 25 26  2  0
 27 28  1  0
 30 27  2  0
M  END
$$$$
