FQE.pdb
     RDKit          3D

 30 30  0  0  1  0  0  0  0  0999 V2000
   27.8465  -21.5165  -12.3973 N   0  0  0  0  0  0  0  0  0  0  0  0
   26.5944  -21.3459  -11.6874 C   0  0  1  0  0  0  0  0  0  0  0  0
   26.7177  -20.1043  -10.8040 C   0  0  0  0  0  0  0  0  0  0  0  0
   27.5439  -20.4310   -9.6245 C   0  0  0  0  0  0  0  0  0  0  0  0
   28.8632  -20.7532   -9.7731 C   0  0  0  0  0  0  0  0  0  0  0  0
   29.6117  -21.0529   -8.6665 C   0  0  0  0  0  0  0  0  0  0  0  0
   29.0727  -21.0400   -7.3960 C   0  0  0  0  0  0  0  0  0  0  0  0
   27.7429  -20.7130   -7.2686 C   0  0  0  0  0  0  0  0  0  0  0  0
   26.9742  -20.4076   -8.3799 C   0  0  0  0  0  0  0  0  0  0  0  0
   25.5103  -21.0870  -12.6497 C   0  0  0  0  0  0  0  0  0  0  0  0
   25.6442  -20.1895  -13.5219 O   0  0  0  0  0  0  0  0  0  0  0  0
   24.4234  -25.0910  -14.2809 N   0  0  0  0  0  0  0  0  0  0  0  0
   24.8055  -24.2699  -15.3785 C   0  0  0  0  0  0  0  0  0  0  0  0
   25.7290  -24.6798  -16.1278 O   0  0  0  0  0  0  0  0  0  0  0  0
   24.1074  -22.9568  -15.6092 C   0  0  0  0  0  0  0  0  0  0  0  0
   23.0733  -22.8171  -14.5493 C   0  0  0  0  0  0  0  0  0  0  0  0
   23.2521  -21.6557  -13.6323 C   0  0  2  0  0  0  0  0  0  0  0  0
   24.2790  -21.8238  -12.6434 N   0  0  0  0  0  0  0  0  0  0  0  0
   21.9668  -21.1819  -13.0197 C   0  0  0  0  0  0  0  0  0  0  0  0
   21.5929  -21.6045  -11.8913 O   0  0  0  0  0  0  0  0  0  0  0  0
   21.1981  -20.2466  -13.7596 N   0  0  0  0  0  0  0  0  0  0  0  0
   19.9337  -19.6932  -13.2354 C   0  0  1  0  0  0  0  0  0  0  0  0
   19.5155  -18.5747  -14.1247 C   0  0  0  0  0  0  0  0  0  0  0  0
   18.1966  -17.9447  -13.7829 C   0  0  0  0  0  0  0  0  0  0  0  0
   17.9309  -16.8724  -14.7855 C   0  0  0  0  0  0  0  0  0  0  0  0
   18.8179  -16.5029  -15.5741 O   0  0  0  0  0  0  0  0  0  0  0  0
   18.9304  -20.7626  -13.1646 C   0  0  0  0  0  0  0  0  0  0  0  0
   18.9311  -21.8242  -14.0303 O   0  0  0  0  0  0  0  0  0  0  0  0
   16.6811  -16.2813  -14.8386 O   0  0  0  0  0  0  0  0  0  0  0  0
   18.0001  -20.7517  -12.2852 O   0  0  0  0  0  0  0  0  0  0  0  0
  2  1  1  6
  2 10  1  0
  3  2  1  0
  3  4  1  0
  4  5  2  0
  4  9  1  0
  5  6  1  0
  6  7  2  0
  8  7  1  0
  9  8  2  0
 10 11  2  0
 13 14  2  0
 13 12  1  0
 15 13  1  0
 17 16  1  1
 16 15  1  0
 17 19  1  0
 18 10  1  0
 18 17  1  0
 19 20  2  0
 21 19  1  0
 21 22  1  0
 22 27  1  0
 23 24  1  0
 22 23  1  6
 24 25  1  0
 25 29  1  0
 25 26  2  0
 27 28  1  0
 30 27  2  0
M  END
$$$$
