FQE.pdb
     RDKit          3D

 30 30  0  0  1  0  0  0  0  0999 V2000
   31.2092  -25.9029  -17.0946 N   0  0  0  0  0  0  0  0  0  0  0  0
   30.0697  -25.4033  -16.3512 C   0  0  1  0  0  0  0  0  0  0  0  0
   30.2418  -23.8937  -16.1810 C   0  0  0  0  0  0  0  0  0  0  0  0
   30.3051  -23.2616  -17.5140 C   0  0  0  0  0  0  0  0  0  0  0  0
   31.4184  -23.4026  -18.2932 C   0  0  0  0  0  0  0  0  0  0  0  0
   31.4568  -22.8084  -19.5262 C   0  0  0  0  0  0  0  0  0  0  0  0
   30.3993  -22.0658  -20.0111 C   0  0  0  0  0  0  0  0  0  0  0  0
   29.2882  -21.9363  -19.2108 C   0  0  0  0  0  0  0  0  0  0  0  0
   29.2363  -22.5324  -17.9614 C   0  0  0  0  0  0  0  0  0  0  0  0
   28.8384  -25.6138  -17.1308 C   0  0  0  0  0  0  0  0  0  0  0  0
   28.8657  -26.3210  -18.1716 O   0  0  0  0  0  0  0  0  0  0  0  0
   24.8154  -28.8086  -16.2142 N   0  0  0  0  0  0  0  0  0  0  0  0
   24.0473  -28.2032  -17.2479 C   0  0  0  0  0  0  0  0  0  0  0  0
   22.8960  -28.6587  -17.4705 O   0  0  0  0  0  0  0  0  0  0  0  0
   24.6223  -27.0554  -18.0330 C   0  0  0  0  0  0  0  0  0  0  0  0
   25.9649  -26.7626  -17.4634 C   0  0  0  0  0  0  0  0  0  0  0  0
   26.3463  -25.3220  -17.4361 C   0  0  2  0  0  0  0  0  0  0  0  0
   27.5781  -25.0396  -16.7551 N   0  0  0  0  0  0  0  0  0  0  0  0
   25.2379  -24.4250  -16.9687 C   0  0  0  0  0  0  0  0  0  0  0  0
   24.9273  -24.3619  -15.7475 O   0  0  0  0  0  0  0  0  0  0  0  0
   24.5609  -23.6587  -17.9524 N   0  0  0  0  0  0  0  0  0  0  0  0
   23.4758  -22.7229  -17.5967 C   0  0  1  0  0  0  0  0  0  0  0  0
   23.0810  -21.9844  -18.8276 C   0  0  0  0  0  0  0  0  0  0  0  0
   22.0657  -22.6759  -19.6905 C   0  0  0  0  0  0  0  0  0  0  0  0
   21.8024  -21.8034  -20.8716 C   0  0  0  0  0  0  0  0  0  0  0  0
   22.3458  -20.6904  -20.9760 O   0  0  0  0  0  0  0  0  0  0  0  0
   22.3610  -23.4762  -17.0091 C   0  0  0  0  0  0  0  0  0  0  0  0
   21.4426  -22.8928  -16.1769 O   0  0  0  0  0  0  0  0  0  0  0  0
   20.9421  -22.2386  -21.8640 O   0  0  0  0  0  0  0  0  0  0  0  0
   22.1953  -24.7231  -17.2474 O   0  0  0  0  0  0  0  0  0  0  0  0
  2  1  1  6
  2 10  1  0
  3  2  1  0
  3  4  1  0
  4  5  2  0
  4  9  1  0
  5  6  1  0
  6  7  2  0
  8  7  1  0
  9  8  2  0
 10 11  2  0
 13 14  2  0
 13 12  1  0
 15 13  1  0
 17 16  1  1
 16 15  1  0
 17 19  1  0
 18 10  1  0
 18 17  1  0
 19 20  2  0
 21 19  1  0
 21 22  1  0
 22 27  1  0
 23 24  1  0
 22 23  1  6
 24 25  1  0
 25 29  1  0
 25 26  2  0
 27 28  1  0
 30 27  2  0
M  END
$$$$
