FQE.pdb
     RDKit          3D

 30 30  0  0  1  0  0  0  0  0999 V2000
   24.9898  -20.9463  -17.1368 N   0  0  0  0  0  0  0  0  0  0  0  0
   23.8578  -20.1625  -16.6842 C   0  0  1  0  0  0  0  0  0  0  0  0
   23.0133  -19.8028  -17.9067 C   0  0  0  0  0  0  0  0  0  0  0  0
   23.7378  -18.8034  -18.7171 C   0  0  0  0  0  0  0  0  0  0  0  0
   23.7468  -17.4885  -18.3460 C   0  0  0  0  0  0  0  0  0  0  0  0
   24.4247  -16.5778  -19.1114 C   0  0  0  0  0  0  0  0  0  0  0  0
   25.1044  -16.9476  -20.2543 C   0  0  0  0  0  0  0  0  0  0  0  0
   25.0826  -18.2761  -20.6100 C   0  0  0  0  0  0  0  0  0  0  0  0
   24.4006  -19.2079  -19.8445 C   0  0  0  0  0  0  0  0  0  0  0  0
   23.0117  -20.9795  -15.7982 C   0  0  0  0  0  0  0  0  0  0  0  0
   22.9367  -22.2239  -15.9716 O   0  0  0  0  0  0  0  0  0  0  0  0
   20.9866  -19.5990  -10.0548 N   0  0  0  0  0  0  0  0  0  0  0  0
   20.4876  -18.7669  -11.0959 C   0  0  0  0  0  0  0  0  0  0  0  0
   19.9866  -17.6585  -10.7755 O   0  0  0  0  0  0  0  0  0  0  0  0
   20.5712  -19.2270  -12.5262 C   0  0  0  0  0  0  0  0  0  0  0  0
   21.1654  -20.5905  -12.5150 C   0  0  0  0  0  0  0  0  0  0  0  0
   21.4069  -21.1925  -13.8571 C   0  0  2  0  0  0  0  0  0  0  0  0
   22.2498  -20.4153  -14.7210 N   0  0  0  0  0  0  0  0  0  0  0  0
   20.1460  -21.6174  -14.5508 C   0  0  0  0  0  0  0  0  0  0  0  0
   19.5818  -20.8615  -15.3887 O   0  0  0  0  0  0  0  0  0  0  0  0
   19.6216  -22.8948  -14.2249 N   0  0  0  0  0  0  0  0  0  0  0  0
   18.3420  -23.3745  -14.7836 C   0  0  1  0  0  0  0  0  0  0  0  0
   18.1435  -24.7819  -14.3405 C   0  0  0  0  0  0  0  0  0  0  0  0
   16.8974  -25.4440  -14.8527 C   0  0  0  0  0  0  0  0  0  0  0  0
   16.9373  -26.8753  -14.4336 C   0  0  0  0  0  0  0  0  0  0  0  0
   16.0867  -27.3349  -13.6526 O   0  0  0  0  0  0  0  0  0  0  0  0
   17.2589  -22.4865  -14.3431 C   0  0  0  0  0  0  0  0  0  0  0  0
   16.1756  -22.2071  -15.1335 O   0  0  0  0  0  0  0  0  0  0  0  0
   17.9342  -27.7020  -14.9205 O   0  0  0  0  0  0  0  0  0  0  0  0
   17.2778  -21.9264  -13.1921 O   0  0  0  0  0  0  0  0  0  0  0  0
  2  1  1  6
  2 10  1  0
  3  2  1  0
  3  4  1  0
  4  5  2  0
  4  9  1  0
  5  6  1  0
  6  7  2  0
  8  7  1  0
  9  8  2  0
 10 11  2  0
 13 14  2  0
 13 12  1  0
 15 13  1  0
 17 16  1  1
 16 15  1  0
 17 19  1  0
 18 10  1  0
 18 17  1  0
 19 20  2  0
 21 19  1  0
 21 22  1  0
 22 27  1  0
 23 24  1  0
 22 23  1  1
 24 25  1  0
 25 29  1  0
 25 26  2  0
 27 28  1  0
 30 27  2  0
M  END
$$$$
