FQE.pdb
     RDKit          3D

 30 30  0  0  1  0  0  0  0  0999 V2000
   26.8181  -20.1682  -18.0206 N   0  0  0  0  0  0  0  0  0  0  0  0
   26.4007  -19.1553  -17.0716 C   0  0  1  0  0  0  0  0  0  0  0  0
   25.4286  -18.2138  -17.7828 C   0  0  0  0  0  0  0  0  0  0  0  0
   26.1620  -17.4496  -18.8116 C   0  0  0  0  0  0  0  0  0  0  0  0
   26.0249  -17.7640  -20.1342 C   0  0  0  0  0  0  0  0  0  0  0  0
   26.7139  -17.0429  -21.0723 C   0  0  0  0  0  0  0  0  0  0  0  0
   27.5487  -16.0009  -20.7229 C   0  0  0  0  0  0  0  0  0  0  0  0
   27.6724  -15.7009  -19.3863 C   0  0  0  0  0  0  0  0  0  0  0  0
   26.9811  -16.4224  -18.4268 C   0  0  0  0  0  0  0  0  0  0  0  0
   25.6614  -19.7868  -15.9657 C   0  0  0  0  0  0  0  0  0  0  0  0
   25.0173  -20.8495  -16.1653 O   0  0  0  0  0  0  0  0  0  0  0  0
   26.6118  -21.8233  -11.1595 N   0  0  0  0  0  0  0  0  0  0  0  0
   25.3835  -21.4006  -10.5785 C   0  0  0  0  0  0  0  0  0  0  0  0
   24.8885  -22.1101   -9.6652 O   0  0  0  0  0  0  0  0  0  0  0  0
   24.7215  -20.1391  -11.0632 C   0  0  0  0  0  0  0  0  0  0  0  0
   25.5234  -19.6352  -12.2102 C   0  0  0  0  0  0  0  0  0  0  0  0
   24.9073  -19.8288  -13.5536 C   0  0  2  0  0  0  0  0  0  0  0  0
   25.6374  -19.2388  -14.6397 N   0  0  0  0  0  0  0  0  0  0  0  0
   23.4543  -19.4569  -13.5975 C   0  0  0  0  0  0  0  0  0  0  0  0
   23.0971  -18.2495  -13.6780 O   0  0  0  0  0  0  0  0  0  0  0  0
   22.5092  -20.5138  -13.5445 N   0  0  0  0  0  0  0  0  0  0  0  0
   21.0565  -20.2547  -13.4965 C   0  0  1  0  0  0  0  0  0  0  0  0
   20.4261  -20.9441  -14.6558 C   0  0  0  0  0  0  0  0  0  0  0  0
   19.4470  -22.0255  -14.3017 C   0  0  0  0  0  0  0  0  0  0  0  0
   19.7137  -23.1910  -15.1940 C   0  0  0  0  0  0  0  0  0  0  0  0
   20.6691  -23.9556  -14.9757 O   0  0  0  0  0  0  0  0  0  0  0  0
   20.5252  -20.7172  -12.2084 C   0  0  0  0  0  0  0  0  0  0  0  0
   19.4920  -20.0809  -11.5728 O   0  0  0  0  0  0  0  0  0  0  0  0
   18.8871  -23.4241  -16.2787 O   0  0  0  0  0  0  0  0  0  0  0  0
   21.0078  -21.7432  -11.6138 O   0  0  0  0  0  0  0  0  0  0  0  0
  2  1  1  6
  2 10  1  0
  3  2  1  0
  3  4  1  0
  4  5  2  0
  4  9  1  0
  5  6  1  0
  6  7  2  0
  8  7  1  0
  9  8  2  0
 10 11  2  0
 13 14  2  0
 13 12  1  0
 15 13  1  0
 17 16  1  1
 16 15  1  0
 17 19  1  0
 18 10  1  0
 18 17  1  0
 19 20  2  0
 21 19  1  0
 21 22  1  0
 22 27  1  0
 23 24  1  0
 22 23  1  6
 24 25  1  0
 25 29  1  0
 25 26  2  0
 27 28  1  0
 30 27  2  0
M  END
$$$$
