FQE.pdb
     RDKit          3D

 30 30  0  0  1  0  0  0  0  0999 V2000
   25.3374  -11.4177  -18.1526 N   0  0  0  0  0  0  0  0  0  0  0  0
   25.0503  -11.1947  -16.7495 C   0  0  1  0  0  0  0  0  0  0  0  0
   26.2647  -10.5100  -16.1220 C   0  0  0  0  0  0  0  0  0  0  0  0
   27.4054  -11.4476  -16.1301 C   0  0  0  0  0  0  0  0  0  0  0  0
   28.4995  -11.1976  -16.9094 C   0  0  0  0  0  0  0  0  0  0  0  0
   29.5466  -12.0798  -16.9024 C   0  0  0  0  0  0  0  0  0  0  0  0
   29.5328  -13.2220  -16.1278 C   0  0  0  0  0  0  0  0  0  0  0  0
   28.4221  -13.4548  -15.3508 C   0  0  0  0  0  0  0  0  0  0  0  0
   27.3557  -12.5704  -15.3485 C   0  0  0  0  0  0  0  0  0  0  0  0
   23.9139  -10.2676  -16.6174 C   0  0  0  0  0  0  0  0  0  0  0  0
   23.6894   -9.4153  -17.5159 O   0  0  0  0  0  0  0  0  0  0  0  0
   17.5699   -8.4499  -15.7496 N   0  0  0  0  0  0  0  0  0  0  0  0
   18.5870   -9.3775  -15.3890 C   0  0  0  0  0  0  0  0  0  0  0  0
   18.5741  -10.5092  -15.9381 O   0  0  0  0  0  0  0  0  0  0  0  0
   19.6319   -8.9870  -14.3790 C   0  0  0  0  0  0  0  0  0  0  0  0
   20.7789   -9.9182  -14.5512 C   0  0  0  0  0  0  0  0  0  0  0  0
   21.9281   -9.3777  -15.3315 C   0  0  2  0  0  0  0  0  0  0  0  0
   23.0279  -10.2869  -15.4889 N   0  0  0  0  0  0  0  0  0  0  0  0
   22.3876   -8.0318  -14.8531 C   0  0  0  0  0  0  0  0  0  0  0  0
   23.2595   -7.9296  -13.9470 O   0  0  0  0  0  0  0  0  0  0  0  0
   21.8028   -6.8901  -15.4595 N   0  0  0  0  0  0  0  0  0  0  0  0
   22.0867   -5.5237  -14.9775 C   0  0  1  0  0  0  0  0  0  0  0  0
   21.4297   -4.5615  -15.9043 C   0  0  0  0  0  0  0  0  0  0  0  0
   21.6084   -3.1127  -15.5544 C   0  0  0  0  0  0  0  0  0  0  0  0
   20.8895   -2.3042  -16.5817 C   0  0  0  0  0  0  0  0  0  0  0  0
   20.3151   -2.8531  -17.5375 O   0  0  0  0  0  0  0  0  0  0  0  0
   21.6106   -5.3899  -13.5952 C   0  0  0  0  0  0  0  0  0  0  0  0
   20.4844   -6.0265  -13.1451 O   0  0  0  0  0  0  0  0  0  0  0  0
   20.8619   -0.9256  -16.4692 O   0  0  0  0  0  0  0  0  0  0  0  0
   22.2294   -4.6650  -12.7405 O   0  0  0  0  0  0  0  0  0  0  0  0
  2  1  1  6
  2 10  1  0
  3  2  1  0
  3  4  1  0
  4  5  2  0
  4  9  1  0
  5  6  1  0
  6  7  2  0
  8  7  1  0
  9  8  2  0
 10 11  2  0
 13 14  2  0
 13 12  1  0
 15 13  1  0
 17 16  1  1
 16 15  1  0
 17 19  1  0
 18 10  1  0
 18 17  1  0
 19 20  2  0
 21 19  1  0
 21 22  1  0
 22 27  1  0
 23 24  1  0
 22 23  1  6
 24 25  1  0
 25 29  1  0
 25 26  2  0
 27 28  1  0
 30 27  2  0
M  END
$$$$
