FQE.pdb
     RDKit          3D

 30 30  0  0  1  0  0  0  0  0999 V2000
   36.3083  -23.3774    4.1948 N   0  0  0  0  0  0  0  0  0  0  0  0
   35.9576  -23.4371    5.5999 C   0  0  1  0  0  0  0  0  0  0  0  0
   34.5195  -23.9447    5.7066 C   0  0  0  0  0  0  0  0  0  0  0  0
   33.5957  -22.8680    5.2970 C   0  0  0  0  0  0  0  0  0  0  0  0
   33.1529  -21.9533    6.2102 C   0  0  0  0  0  0  0  0  0  0  0  0
   32.2967  -20.9627    5.8097 C   0  0  0  0  0  0  0  0  0  0  0  0
   31.8630  -20.8574    4.5037 C   0  0  0  0  0  0  0  0  0  0  0  0
   32.3207  -21.7883    3.6006 C   0  0  0  0  0  0  0  0  0  0  0  0
   33.1873  -22.7956    3.9925 C   0  0  0  0  0  0  0  0  0  0  0  0
   36.8156  -24.4193    6.2835 C   0  0  0  0  0  0  0  0  0  0  0  0
   37.4560  -25.2703    5.6127 O   0  0  0  0  0  0  0  0  0  0  0  0
   40.8971  -24.3015    5.9647 N   0  0  0  0  0  0  0  0  0  0  0  0
   40.6152  -23.2549    6.8868 C   0  0  0  0  0  0  0  0  0  0  0  0
   41.1289  -22.1268    6.6730 O   0  0  0  0  0  0  0  0  0  0  0  0
   39.7263  -23.5209    8.0715 C   0  0  0  0  0  0  0  0  0  0  0  0
   39.3539  -24.9603    8.0268 C   0  0  0  0  0  0  0  0  0  0  0  0
   37.9391  -25.2649    8.3839 C   0  0  2  0  0  0  0  0  0  0  0  0
   36.9624  -24.4566    7.7105 N   0  0  0  0  0  0  0  0  0  0  0  0
   37.6979  -25.3050    9.8644 C   0  0  0  0  0  0  0  0  0  0  0  0
   37.4899  -24.2445   10.5155 O   0  0  0  0  0  0  0  0  0  0  0  0
   37.7144  -26.5767   10.4932 N   0  0  0  0  0  0  0  0  0  0  0  0
   36.5526  -27.0841   11.2498 C   0  0  1  0  0  0  0  0  0  0  0  0
   35.3884  -27.1426   10.3236 C   0  0  0  0  0  0  0  0  0  0  0  0
   34.1254  -27.6950   10.9178 C   0  0  0  0  0  0  0  0  0  0  0  0
   33.1025  -27.7593    9.8337 C   0  0  0  0  0  0  0  0  0  0  0  0
   33.2708  -28.4877    8.8408 O   0  0  0  0  0  0  0  0  0  0  0  0
   36.8836  -28.3946   11.8229 C   0  0  0  0  0  0  0  0  0  0  0  0
   37.2573  -29.4590   11.0459 O   0  0  0  0  0  0  0  0  0  0  0  0
   31.9514  -26.9984    9.9348 O   0  0  0  0  0  0  0  0  0  0  0  0
   36.8361  -28.6055   13.0847 O   0  0  0  0  0  0  0  0  0  0  0  0
  2  1  1  6
  2 10  1  0
  3  2  1  0
  3  4  1  0
  4  5  2  0
  4  9  1  0
  5  6  1  0
  6  7  2  0
  8  7  1  0
  9  8  2  0
 10 11  2  0
 13 14  2  0
 13 12  1  0
 15 13  1  0
 17 16  1  1
 16 15  1  0
 17 19  1  0
 18 10  1  0
 18 17  1  0
 19 20  2  0
 21 19  1  0
 21 22  1  0
 22 27  1  0
 23 24  1  0
 22 23  1  6
 24 25  1  0
 25 29  1  0
 25 26  2  0
 27 28  1  0
 30 27  2  0
M  END
$$$$
