FQE.pdb
     RDKit          3D

 30 30  0  0  1  0  0  0  0  0999 V2000
   27.9674  -21.1084  -11.5057 N   0  0  0  0  0  0  0  0  0  0  0  0
   26.6549  -21.4629  -11.0032 C   0  0  1  0  0  0  0  0  0  0  0  0
   26.3035  -20.4933   -9.8746 C   0  0  0  0  0  0  0  0  0  0  0  0
   27.3100  -20.6167   -8.8011 C   0  0  0  0  0  0  0  0  0  0  0  0
   28.3782  -21.4557   -8.9489 C   0  0  0  0  0  0  0  0  0  0  0  0
   29.3001  -21.5554   -7.9414 C   0  0  0  0  0  0  0  0  0  0  0  0
   29.1846  -20.8305   -6.7727 C   0  0  0  0  0  0  0  0  0  0  0  0
   28.1020  -19.9919   -6.6443 C   0  0  0  0  0  0  0  0  0  0  0  0
   27.1619  -19.8815   -7.6558 C   0  0  0  0  0  0  0  0  0  0  0  0
   25.6508  -21.2753  -12.0638 C   0  0  0  0  0  0  0  0  0  0  0  0
   25.5690  -20.1726  -12.6650 O   0  0  0  0  0  0  0  0  0  0  0  0
   26.9822  -21.4006  -15.9116 N   0  0  0  0  0  0  0  0  0  0  0  0
   25.6640  -21.9365  -15.8969 C   0  0  0  0  0  0  0  0  0  0  0  0
   24.7560  -21.2840  -16.4732 O   0  0  0  0  0  0  0  0  0  0  0  0
   25.3963  -23.2457  -15.2048 C   0  0  0  0  0  0  0  0  0  0  0  0
   24.0184  -23.1749  -14.6491 C   0  0  0  0  0  0  0  0  0  0  0  0
   23.8220  -22.1832  -13.5539 C   0  0  2  0  0  0  0  0  0  0  0  0
   24.7386  -22.3111  -12.4564 N   0  0  0  0  0  0  0  0  0  0  0  0
   22.4008  -22.0981  -13.0802 C   0  0  0  0  0  0  0  0  0  0  0  0
   21.9758  -22.8583  -12.1674 O   0  0  0  0  0  0  0  0  0  0  0  0
   21.5641  -21.1339  -13.6994 N   0  0  0  0  0  0  0  0  0  0  0  0
   20.1471  -20.9749  -13.3164 C   0  0  1  0  0  0  0  0  0  0  0  0
   19.6767  -19.6568  -13.8244 C   0  0  0  0  0  0  0  0  0  0  0  0
   20.3270  -18.4595  -13.1945 C   0  0  0  0  0  0  0  0  0  0  0  0
   19.6771  -17.2400  -13.7569 C   0  0  0  0  0  0  0  0  0  0  0  0
   20.3063  -16.4672  -14.4997 O   0  0  0  0  0  0  0  0  0  0  0  0
   19.3710  -22.0974  -13.8577 C   0  0  0  0  0  0  0  0  0  0  0  0
   18.1924  -22.5101  -13.2949 O   0  0  0  0  0  0  0  0  0  0  0  0
   18.3568  -16.9655  -13.4477 O   0  0  0  0  0  0  0  0  0  0  0  0
   19.7637  -22.7489  -14.8875 O   0  0  0  0  0  0  0  0  0  0  0  0
  2  1  1  6
  2 10  1  0
  3  2  1  0
  3  4  1  0
  4  5  2  0
  4  9  1  0
  5  6  1  0
  6  7  2  0
  8  7  1  0
  9  8  2  0
 10 11  2  0
 13 14  2  0
 13 12  1  0
 15 13  1  0
 17 16  1  6
 16 15  1  0
 17 19  1  0
 18 10  1  0
 18 17  1  0
 19 20  2  0
 21 19  1  0
 21 22  1  0
 22 27  1  0
 23 24  1  0
 22 23  1  6
 24 25  1  0
 25 29  1  0
 25 26  2  0
 27 28  1  0
 30 27  2  0
M  END
$$$$
