FQE.pdb
     RDKit          3D

 30 30  0  0  1  0  0  0  0  0999 V2000
   24.8050  -20.5121  -17.7005 N   0  0  0  0  0  0  0  0  0  0  0  0
   24.0092  -19.3949  -17.2322 C   0  0  1  0  0  0  0  0  0  0  0  0
   23.3063  -18.7763  -18.4407 C   0  0  0  0  0  0  0  0  0  0  0  0
   24.2930  -18.0221  -19.2395 C   0  0  0  0  0  0  0  0  0  0  0  0
   24.9314  -18.6179  -20.2902 C   0  0  0  0  0  0  0  0  0  0  0  0
   25.8429  -17.9010  -21.0181 C   0  0  0  0  0  0  0  0  0  0  0  0
   26.1402  -16.5860  -20.7227 C   0  0  0  0  0  0  0  0  0  0  0  0
   25.4864  -16.0053  -19.6610 C   0  0  0  0  0  0  0  0  0  0  0  0
   24.5619  -16.7193  -18.9163 C   0  0  0  0  0  0  0  0  0  0  0  0
   22.9587  -19.8815  -16.3222 C   0  0  0  0  0  0  0  0  0  0  0  0
   22.7827  -21.1183  -16.1686 O   0  0  0  0  0  0  0  0  0  0  0  0
   19.8628  -16.5207  -12.0405 N   0  0  0  0  0  0  0  0  0  0  0  0
   19.1806  -17.7609  -11.8936 C   0  0  0  0  0  0  0  0  0  0  0  0
   18.3392  -17.8643  -10.9642 O   0  0  0  0  0  0  0  0  0  0  0  0
   19.4786  -18.8950  -12.8367 C   0  0  0  0  0  0  0  0  0  0  0  0
   20.5444  -18.4275  -13.7629 C   0  0  0  0  0  0  0  0  0  0  0  0
   21.0503  -19.4502  -14.7220 C   0  0  2  0  0  0  0  0  0  0  0  0
   22.1048  -18.9958  -15.5837 N   0  0  0  0  0  0  0  0  0  0  0  0
   19.9577  -20.1281  -15.4954 C   0  0  0  0  0  0  0  0  0  0  0  0
   19.9317  -20.0814  -16.7559 O   0  0  0  0  0  0  0  0  0  0  0  0
   18.9642  -20.8169  -14.7526 N   0  0  0  0  0  0  0  0  0  0  0  0
   17.8415  -21.5107  -15.4142 C   0  0  1  0  0  0  0  0  0  0  0  0
   18.4093  -22.4819  -16.3893 C   0  0  0  0  0  0  0  0  0  0  0  0
   17.4012  -23.3347  -17.1035 C   0  0  0  0  0  0  0  0  0  0  0  0
   17.2505  -22.7987  -18.4876 C   0  0  0  0  0  0  0  0  0  0  0  0
   16.2336  -22.1654  -18.8189 O   0  0  0  0  0  0  0  0  0  0  0  0
   17.0052  -22.1577  -14.3957 C   0  0  0  0  0  0  0  0  0  0  0  0
   17.2686  -22.0479  -13.0560 O   0  0  0  0  0  0  0  0  0  0  0  0
   18.2557  -23.0092  -19.4147 O   0  0  0  0  0  0  0  0  0  0  0  0
   15.9846  -22.8616  -14.7148 O   0  0  0  0  0  0  0  0  0  0  0  0
  2  1  1  6
  2 10  1  0
  3  2  1  0
  3  4  1  0
  4  5  2  0
  4  9  1  0
  5  6  1  0
  6  7  2  0
  8  7  1  0
  9  8  2  0
 10 11  2  0
 13 14  2  0
 13 12  1  0
 15 13  1  0
 17 16  1  6
 16 15  1  0
 17 19  1  0
 18 10  1  0
 18 17  1  0
 19 20  2  0
 21 19  1  0
 21 22  1  0
 22 27  1  0
 23 24  1  0
 22 23  1  6
 24 25  1  0
 25 29  1  0
 25 26  2  0
 27 28  1  0
 30 27  2  0
M  END
$$$$
