AMN.pdb
     RDKit          3D

 22 21  0  0  1  0  0  0  0  0999 V2000
   24.3888  -25.6428  -15.6256 C   0  0  0  0  0  0  0  0  0  0  0  0
   24.9785  -24.2774  -15.8961 C   0  0  2  0  0  0  0  0  0  0  0  0
   26.4063  -24.4349  -16.0655 N   0  0  0  0  0  0  0  0  0  0  0  0
   24.6509  -23.3050  -14.8245 C   0  0  0  0  0  0  0  0  0  0  0  0
   23.4587  -23.0488  -14.5184 O   0  0  0  0  0  0  0  0  0  0  0  0
   24.5355  -20.3484   -8.6057 C   0  0  0  0  0  0  0  0  0  0  0  0
   25.1287  -21.3967   -9.9604 S   0  0  0  0  0  0  0  0  0  0  0  0
   26.1746  -20.3690  -11.0644 C   0  0  0  0  0  0  0  0  0  0  0  0
   26.5279  -21.2509  -12.2394 C   0  0  0  0  0  0  0  0  0  0  0  0
   25.3265  -21.6223  -13.0791 C   0  0  2  0  0  0  0  0  0  0  0  0
   25.6535  -22.6097  -14.0846 N   0  0  0  0  0  0  0  0  0  0  0  0
   24.9085  -20.3860  -13.7856 C   0  0  0  0  0  0  0  0  0  0  0  0
   25.7278  -19.7996  -14.5343 O   0  0  0  0  0  0  0  0  0  0  0  0
   22.1392  -19.4537  -18.2205 N   0  0  0  0  0  0  0  0  0  0  0  0
   22.8881  -18.8108  -17.1964 C   0  0  0  0  0  0  0  0  0  0  0  0
   23.0967  -17.5789  -17.3346 O   0  0  0  0  0  0  0  0  0  0  0  0
   23.3504  -19.6316  -16.0745 C   0  0  0  0  0  0  0  0  0  0  0  0
   23.0548  -19.0304  -14.7193 C   0  0  2  0  0  0  0  0  0  0  0  0
   23.6067  -19.8306  -13.6498 N   0  0  0  0  0  0  0  0  0  0  0  0
   21.6297  -18.8226  -14.4792 C   0  0  0  0  0  0  0  0  0  0  0  0
   20.9869  -17.6940  -14.9568 O   0  0  0  0  0  0  0  0  0  0  0  0
   20.9391  -19.6518  -13.8362 O   0  0  0  0  0  0  0  0  0  0  0  0
  2  4  1  0
  2  1  1  1
  3  2  1  0
  4  5  2  0
  4 11  1  0
  7  6  1  0
  7  8  1  0
  8  9  1  0
 10  9  1  6
 10 12  1  0
 11 10  1  0
 12 19  1  0
 12 13  2  0
 14 15  1  0
 15 17  1  0
 16 15  2  0
 18 17  1  6
 18 20  1  0
 19 18  1  0
 20 21  1  0
 22 20  2  0
M  END
$$$$
