AMN.pdb
     RDKit          3D

 22 21  0  0  1  0  0  0  0  0999 V2000
   22.4852  -21.1268  -15.4557 C   0  0  0  0  0  0  0  0  0  0  0  0
   22.5367  -20.1626  -16.6189 C   0  0  2  0  0  0  0  0  0  0  0  0
   23.6684  -20.5220  -17.4450 N   0  0  0  0  0  0  0  0  0  0  0  0
   22.6031  -18.7497  -16.1712 C   0  0  0  0  0  0  0  0  0  0  0  0
   21.6538  -18.2205  -15.5394 O   0  0  0  0  0  0  0  0  0  0  0  0
   27.2319  -12.3674  -15.1759 C   0  0  0  0  0  0  0  0  0  0  0  0
   27.0616  -14.1090  -15.6490 S   0  0  0  0  0  0  0  0  0  0  0  0
   25.2830  -14.5542  -15.5652 C   0  0  0  0  0  0  0  0  0  0  0  0
   25.2061  -16.0215  -15.9176 C   0  0  0  0  0  0  0  0  0  0  0  0
   23.7860  -16.5354  -15.9933 C   0  0  2  0  0  0  0  0  0  0  0  0
   23.7321  -17.9150  -16.4254 N   0  0  0  0  0  0  0  0  0  0  0  0
   23.0969  -15.7173  -17.0220 C   0  0  0  0  0  0  0  0  0  0  0  0
   23.3507  -15.9148  -18.2353 O   0  0  0  0  0  0  0  0  0  0  0  0
   19.8430  -12.6994  -19.5321 N   0  0  0  0  0  0  0  0  0  0  0  0
   19.1435  -13.5297  -18.6133 C   0  0  0  0  0  0  0  0  0  0  0  0
   17.8943  -13.5895  -18.7404 O   0  0  0  0  0  0  0  0  0  0  0  0
   19.9311  -14.2405  -17.6030 C   0  0  0  0  0  0  0  0  0  0  0  0
   21.4227  -14.0362  -17.7410 C   0  0  2  0  0  0  0  0  0  0  0  0
   22.1517  -14.7085  -16.6896 N   0  0  0  0  0  0  0  0  0  0  0  0
   21.8114  -12.6293  -17.7730 C   0  0  0  0  0  0  0  0  0  0  0  0
   21.9072  -11.9468  -18.9729 O   0  0  0  0  0  0  0  0  0  0  0  0
   22.0715  -11.9905  -16.7230 O   0  0  0  0  0  0  0  0  0  0  0  0
  2  4  1  0
  2  1  1  1
  3  2  1  0
  4  5  2  0
  4 11  1  0
  7  6  1  0
  7  8  1  0
  8  9  1  0
 10  9  1  6
 10 12  1  0
 11 10  1  0
 12 19  1  0
 12 13  2  0
 14 15  1  0
 15 17  1  0
 16 15  2  0
 18 17  1  1
 18 20  1  0
 19 18  1  0
 20 21  1  0
 22 20  2  0
M  END
$$$$
