AMN.pdb
     RDKit          3D

 22 21  0  0  1  0  0  0  0  0999 V2000
   34.8036  -11.8158  -17.9718 C   0  0  0  0  0  0  0  0  0  0  0  0
   33.5249  -12.2334  -18.6617 C   0  0  2  0  0  0  0  0  0  0  0  0
   33.8795  -12.8456  -19.9233 N   0  0  0  0  0  0  0  0  0  0  0  0
   32.5892  -11.0960  -18.8405 C   0  0  0  0  0  0  0  0  0  0  0  0
   32.6872  -10.3193  -19.8243 O   0  0  0  0  0  0  0  0  0  0  0  0
   26.0932  -12.8381  -18.7198 C   0  0  0  0  0  0  0  0  0  0  0  0
   26.8437  -11.4167  -17.8817 S   0  0  0  0  0  0  0  0  0  0  0  0
   28.5396  -11.1897  -18.5461 C   0  0  0  0  0  0  0  0  0  0  0  0
   29.1896  -10.1415  -17.6733 C   0  0  0  0  0  0  0  0  0  0  0  0
   30.5740   -9.7580  -18.1455 C   0  0  2  0  0  0  0  0  0  0  0  0
   31.5347  -10.8162  -17.9209 N   0  0  0  0  0  0  0  0  0  0  0  0
   30.9910   -8.5939  -17.3250 C   0  0  0  0  0  0  0  0  0  0  0  0
   30.8525   -8.6400  -16.0782 O   0  0  0  0  0  0  0  0  0  0  0  0
   33.3154   -5.1459  -14.4014 N   0  0  0  0  0  0  0  0  0  0  0  0
   33.7119   -5.2006  -15.7662 C   0  0  0  0  0  0  0  0  0  0  0  0
   34.3910   -4.2351  -16.1985 O   0  0  0  0  0  0  0  0  0  0  0  0
   33.2990   -6.3684  -16.5484 C   0  0  0  0  0  0  0  0  0  0  0  0
   31.8731   -6.2940  -17.0449 C   0  0  2  0  0  0  0  0  0  0  0  0
   31.5462   -7.4158  -17.8955 N   0  0  0  0  0  0  0  0  0  0  0  0
   31.5721   -5.0514  -17.7497 C   0  0  0  0  0  0  0  0  0  0  0  0
   31.6527   -4.9808  -19.1293 O   0  0  0  0  0  0  0  0  0  0  0  0
   31.2319   -4.0087  -17.1372 O   0  0  0  0  0  0  0  0  0  0  0  0
  2  4  1  0
  2  1  1  6
  3  2  1  0
  4  5  2  0
  4 11  1  0
  7  6  1  0
  7  8  1  0
  8  9  1  0
 10  9  1  1
 10 12  1  0
 11 10  1  0
 12 19  1  0
 12 13  2  0
 14 15  1  0
 15 17  1  0
 16 15  2  0
 18 17  1  6
 18 20  1  0
 19 18  1  0
 20 21  1  0
 22 20  2  0
M  END
$$$$
