AMN.pdb
     RDKit          3D

 22 21  0  0  1  0  0  0  0  0999 V2000
   30.2612  -20.8200  -18.2747 C   0  0  0  0  0  0  0  0  0  0  0  0
   29.5517  -22.0847  -17.8475 C   0  0  2  0  0  0  0  0  0  0  0  0
   28.7155  -21.7637  -16.7117 N   0  0  0  0  0  0  0  0  0  0  0  0
   30.5016  -23.1832  -17.5442 C   0  0  0  0  0  0  0  0  0  0  0  0
   31.2376  -23.6741  -18.4373 O   0  0  0  0  0  0  0  0  0  0  0  0
   33.8091  -23.2404  -11.6125 C   0  0  0  0  0  0  0  0  0  0  0  0
   34.3786  -24.0239  -13.1449 S   0  0  0  0  0  0  0  0  0  0  0  0
   33.2319  -23.5427  -14.4949 C   0  0  0  0  0  0  0  0  0  0  0  0
   32.1913  -24.6361  -14.5640 C   0  0  0  0  0  0  0  0  0  0  0  0
   31.5906  -24.7909  -15.9431 C   0  0  2  0  0  0  0  0  0  0  0  0
   30.6377  -23.7433  -16.2389 N   0  0  0  0  0  0  0  0  0  0  0  0
   30.8527  -26.0784  -15.9384 C   0  0  0  0  0  0  0  0  0  0  0  0
   30.0098  -26.3001  -15.0351 O   0  0  0  0  0  0  0  0  0  0  0  0
   26.7701  -29.2803  -17.2734 N   0  0  0  0  0  0  0  0  0  0  0  0
   27.9843  -29.2070  -16.5364 C   0  0  0  0  0  0  0  0  0  0  0  0
   28.2594  -30.1862  -15.7976 O   0  0  0  0  0  0  0  0  0  0  0  0
   28.8068  -28.0056  -16.6983 C   0  0  0  0  0  0  0  0  0  0  0  0
   30.2786  -28.2972  -16.8835 C   0  0  2  0  0  0  0  0  0  0  0  0
   31.0612  -27.0828  -16.9229 N   0  0  0  0  0  0  0  0  0  0  0  0
   30.5634  -29.0926  -18.0742 C   0  0  0  0  0  0  0  0  0  0  0  0
   30.2223  -30.4324  -18.1308 O   0  0  0  0  0  0  0  0  0  0  0  0
   31.1238  -28.5964  -19.0831 O   0  0  0  0  0  0  0  0  0  0  0  0
  2  4  1  0
  2  1  1  1
  3  2  1  0
  4  5  2  0
  4 11  1  0
  7  6  1  0
  7  8  1  0
  8  9  1  0
 10  9  1  1
 10 12  1  0
 11 10  1  0
 12 19  1  0
 12 13  2  0
 14 15  1  0
 15 17  1  0
 16 15  2  0
 18 17  1  6
 18 20  1  0
 19 18  1  0
 20 21  1  0
 22 20  2  0
M  END
$$$$
