AMN.pdb
     RDKit          3D

 22 21  0  0  1  0  0  0  0  0999 V2000
   28.5175  -21.1866  -15.4731 C   0  0  0  0  0  0  0  0  0  0  0  0
   27.2911  -20.3781  -15.1162 C   0  0  2  0  0  0  0  0  0  0  0  0
   27.7283  -19.0563  -14.7238 N   0  0  0  0  0  0  0  0  0  0  0  0
   26.4798  -21.0305  -14.0592 C   0  0  0  0  0  0  0  0  0  0  0  0
   26.0062  -22.1841  -14.2193 O   0  0  0  0  0  0  0  0  0  0  0  0
   25.8181  -20.3381   -7.4560 C   0  0  0  0  0  0  0  0  0  0  0  0
   27.3910  -20.7025   -8.2802 S   0  0  0  0  0  0  0  0  0  0  0  0
   27.0224  -21.3477   -9.9585 C   0  0  0  0  0  0  0  0  0  0  0  0
   25.7667  -20.6381  -10.4087 C   0  0  0  0  0  0  0  0  0  0  0  0
   25.3475  -21.0160  -11.8115 C   0  0  2  0  0  0  0  0  0  0  0  0
   26.1903  -20.3993  -12.8127 N   0  0  0  0  0  0  0  0  0  0  0  0
   23.9731  -20.4877  -11.9967 C   0  0  0  0  0  0  0  0  0  0  0  0
   23.7421  -19.2781  -11.7532 O   0  0  0  0  0  0  0  0  0  0  0  0
   21.2836  -18.5636  -15.7302 N   0  0  0  0  0  0  0  0  0  0  0  0
   21.6851  -19.9280  -15.7256 C   0  0  0  0  0  0  0  0  0  0  0  0
   21.2027  -20.6641  -16.6233 O   0  0  0  0  0  0  0  0  0  0  0  0
   22.6200  -20.3585  -14.6832 C   0  0  0  0  0  0  0  0  0  0  0  0
   21.9455  -20.7710  -13.3946 C   0  0  2  0  0  0  0  0  0  0  0  0
   22.8950  -21.3005  -12.4424 N   0  0  0  0  0  0  0  0  0  0  0  0
   20.8698  -21.7384  -13.5909 C   0  0  0  0  0  0  0  0  0  0  0  0
   21.1331  -23.0967  -13.6165 O   0  0  0  0  0  0  0  0  0  0  0  0
   19.6758  -21.3788  -13.7428 O   0  0  0  0  0  0  0  0  0  0  0  0
  2  4  1  0
  2  1  1  1
  3  2  1  0
  4  5  2  0
  4 11  1  0
  7  6  1  0
  7  8  1  0
  8  9  1  0
 10  9  1  1
 10 12  1  0
 11 10  1  0
 12 19  1  0
 12 13  2  0
 14 15  1  0
 15 17  1  0
 16 15  2  0
 18 17  1  6
 18 20  1  0
 19 18  1  0
 20 21  1  0
 22 20  2  0
M  END
$$$$
