AMN.pdb
     RDKit          3D

 22 21  0  0  1  0  0  0  0  0999 V2000
   19.1316  -12.5532  -18.6898 C   0  0  0  0  0  0  0  0  0  0  0  0
   20.5707  -12.8256  -18.3157 C   0  0  2  0  0  0  0  0  0  0  0  0
   20.7005  -14.2411  -18.0480 N   0  0  0  0  0  0  0  0  0  0  0  0
   21.0150  -12.0004  -17.1656 C   0  0  0  0  0  0  0  0  0  0  0  0
   20.3826  -12.0017  -16.0791 O   0  0  0  0  0  0  0  0  0  0  0  0
   27.3987  -12.8886  -15.0196 C   0  0  0  0  0  0  0  0  0  0  0  0
   26.5811  -11.4248  -15.7089 S   0  0  0  0  0  0  0  0  0  0  0  0
   24.7687  -11.6317  -15.5054 C   0  0  0  0  0  0  0  0  0  0  0  0
   24.1460  -10.3523  -16.0136 C   0  0  0  0  0  0  0  0  0  0  0  0
   22.6363  -10.4154  -16.0733 C   0  0  2  0  0  0  0  0  0  0  0  0
   22.1711  -11.1658  -17.2193 N   0  0  0  0  0  0  0  0  0  0  0  0
   22.1628   -9.0179  -16.2316 C   0  0  0  0  0  0  0  0  0  0  0  0
   22.1739   -8.4908  -17.3708 O   0  0  0  0  0  0  0  0  0  0  0  0
   19.1874   -4.7642  -16.9433 N   0  0  0  0  0  0  0  0  0  0  0  0
   19.3082   -5.3889  -15.6713 C   0  0  0  0  0  0  0  0  0  0  0  0
   18.9771   -4.7049  -14.6699 O   0  0  0  0  0  0  0  0  0  0  0  0
   19.8048   -6.7666  -15.6345 C   0  0  0  0  0  0  0  0  0  0  0  0
   21.2866   -6.8712  -15.3541 C   0  0  2  0  0  0  0  0  0  0  0  0
   21.6922   -8.2414  -15.1375 N   0  0  0  0  0  0  0  0  0  0  0  0
   21.7181   -6.0565  -14.2220 C   0  0  0  0  0  0  0  0  0  0  0  0
   21.8172   -6.6003  -12.9534 O   0  0  0  0  0  0  0  0  0  0  0  0
   22.0130   -4.8426  -14.3544 O   0  0  0  0  0  0  0  0  0  0  0  0
  2  4  1  0
  2  1  1  1
  3  2  1  0
  4  5  2  0
  4 11  1  0
  7  6  1  0
  7  8  1  0
  8  9  1  0
 10  9  1  6
 10 12  1  0
 11 10  1  0
 12 19  1  0
 12 13  2  0
 14 15  1  0
 15 17  1  0
 16 15  2  0
 18 17  1  1
 18 20  1  0
 19 18  1  0
 20 21  1  0
 22 20  2  0
M  END
$$$$
