AMN.pdb
     RDKit          3D

 22 21  0  0  1  0  0  0  0  0999 V2000
   27.0823  -21.4990  -17.9244 C   0  0  0  0  0  0  0  0  0  0  0  0
   27.7182  -21.9846  -16.6418 C   0  0  2  0  0  0  0  0  0  0  0  0
   28.4833  -23.1736  -16.9469 N   0  0  0  0  0  0  0  0  0  0  0  0
   26.7137  -22.2291  -15.5777 C   0  0  0  0  0  0  0  0  0  0  0  0
   26.0598  -23.3019  -15.5322 O   0  0  0  0  0  0  0  0  0  0  0  0
   24.7939  -20.8097   -8.0964 C   0  0  0  0  0  0  0  0  0  0  0  0
   25.8328  -20.4472   -9.5370 S   0  0  0  0  0  0  0  0  0  0  0  0
   25.0460  -21.1997  -11.0148 C   0  0  0  0  0  0  0  0  0  0  0  0
   25.9860  -20.9307  -12.1668 C   0  0  0  0  0  0  0  0  0  0  0  0
   25.5257  -21.5610  -13.4619 C   0  0  2  0  0  0  0  0  0  0  0  0
   26.4309  -21.2762  -14.5540 N   0  0  0  0  0  0  0  0  0  0  0  0
   24.2186  -20.9401  -13.7908 C   0  0  0  0  0  0  0  0  0  0  0  0
   24.1908  -19.7673  -14.2375 O   0  0  0  0  0  0  0  0  0  0  0  0
   19.2027  -21.7257  -16.7300 N   0  0  0  0  0  0  0  0  0  0  0  0
   20.0246  -20.9716  -15.8475 C   0  0  0  0  0  0  0  0  0  0  0  0
   19.6428  -19.8055  -15.5742 O   0  0  0  0  0  0  0  0  0  0  0  0
   21.2383  -21.6118  -15.3346 C   0  0  0  0  0  0  0  0  0  0  0  0
   21.7541  -20.9977  -14.0531 C   0  0  2  0  0  0  0  0  0  0  0  0
   22.9832  -21.6227  -13.6200 N   0  0  0  0  0  0  0  0  0  0  0  0
   20.7836  -21.0374  -12.9632 C   0  0  0  0  0  0  0  0  0  0  0  0
   19.6872  -20.1932  -12.9583 O   0  0  0  0  0  0  0  0  0  0  0  0
   20.9052  -21.8315  -11.9973 O   0  0  0  0  0  0  0  0  0  0  0  0
  2  4  1  0
  2  1  1  6
  3  2  1  0
  4  5  2  0
  4 11  1  0
  7  6  1  0
  7  8  1  0
  8  9  1  0
 10  9  1  1
 10 12  1  0
 11 10  1  0
 12 19  1  0
 12 13  2  0
 14 15  1  0
 15 17  1  0
 16 15  2  0
 18 17  1  6
 18 20  1  0
 19 18  1  0
 20 21  1  0
 22 20  2  0
M  END
$$$$
