AMN.pdb
     RDKit          3D

 22 21  0  0  1  0  0  0  0  0999 V2000
   25.0392  -26.7430  -18.6168 C   0  0  0  0  0  0  0  0  0  0  0  0
   23.7294  -26.0200  -18.3996 C   0  0  2  0  0  0  0  0  0  0  0  0
   23.4426  -25.2514  -19.5909 N   0  0  0  0  0  0  0  0  0  0  0  0
   23.7553  -25.1700  -17.1838 C   0  0  0  0  0  0  0  0  0  0  0  0
   23.7473  -25.6768  -16.0334 O   0  0  0  0  0  0  0  0  0  0  0  0
   27.2520  -20.0081  -16.0919 C   0  0  0  0  0  0  0  0  0  0  0  0
   25.7046  -19.3687  -15.3971 S   0  0  0  0  0  0  0  0  0  0  0  0
   24.6248  -20.7968  -14.9927 C   0  0  0  0  0  0  0  0  0  0  0  0
   24.6328  -21.6821  -16.2172 C   0  0  0  0  0  0  0  0  0  0  0  0
   23.7823  -22.9215  -16.0533 C   0  0  2  0  0  0  0  0  0  0  0  0
   23.7907  -23.7448  -17.2430 N   0  0  0  0  0  0  0  0  0  0  0  0
   22.3902  -22.4519  -15.8442 C   0  0  0  0  0  0  0  0  0  0  0  0
   21.7607  -21.9483  -16.8065 O   0  0  0  0  0  0  0  0  0  0  0  0
   17.5708  -22.4582  -12.2125 N   0  0  0  0  0  0  0  0  0  0  0  0
   18.1300  -22.6169  -13.5107 C   0  0  0  0  0  0  0  0  0  0  0  0
   17.3652  -22.4105  -14.4867 O   0  0  0  0  0  0  0  0  0  0  0  0
   19.5398  -23.0047  -13.6013 C   0  0  0  0  0  0  0  0  0  0  0  0
   20.3721  -22.0748  -14.4545 C   0  0  2  0  0  0  0  0  0  0  0  0
   21.7312  -22.5482  -14.5881 N   0  0  0  0  0  0  0  0  0  0  0  0
   20.3871  -20.7001  -13.9632 C   0  0  0  0  0  0  0  0  0  0  0  0
   19.4582  -19.7769  -14.4099 O   0  0  0  0  0  0  0  0  0  0  0  0
   21.2355  -20.3061  -13.1245 O   0  0  0  0  0  0  0  0  0  0  0  0
  2  4  1  0
  2  1  1  6
  3  2  1  0
  4  5  2  0
  4 11  1  0
  7  6  1  0
  7  8  1  0
  8  9  1  0
 10  9  1  6
 10 12  1  0
 11 10  1  0
 12 19  1  0
 12 13  2  0
 14 15  1  0
 15 17  1  0
 16 15  2  0
 18 17  1  1
 18 20  1  0
 19 18  1  0
 20 21  1  0
 22 20  2  0
M  END
$$$$
