AMN.pdb
     RDKit          3D

 22 21  0  0  1  0  0  0  0  0999 V2000
   16.6801  -14.9264  -16.1597 C   0  0  0  0  0  0  0  0  0  0  0  0
   16.3085  -13.4743  -15.9630 C   0  0  2  0  0  0  0  0  0  0  0  0
   15.9570  -12.9261  -17.2545 N   0  0  0  0  0  0  0  0  0  0  0  0
   17.3947  -12.7031  -15.3099 C   0  0  0  0  0  0  0  0  0  0  0  0
   17.8229  -13.0166  -14.1702 O   0  0  0  0  0  0  0  0  0  0  0  0
   23.7853  -10.3014  -13.9893 C   0  0  0  0  0  0  0  0  0  0  0  0
   22.5167  -11.0755  -15.0273 S   0  0  0  0  0  0  0  0  0  0  0  0
   21.3395   -9.7723  -15.5611 C   0  0  0  0  0  0  0  0  0  0  0  0
   20.1951  -10.4969  -16.2308 C   0  0  0  0  0  0  0  0  0  0  0  0
   19.0661  -10.8217  -15.2788 C   0  0  2  0  0  0  0  0  0  0  0  0
   18.0127  -11.5737  -15.9252 N   0  0  0  0  0  0  0  0  0  0  0  0
   18.4902   -9.5229  -14.8503 C   0  0  0  0  0  0  0  0  0  0  0  0
   17.6903   -8.9249  -15.6107 O   0  0  0  0  0  0  0  0  0  0  0  0
   16.8584   -9.1051  -10.1852 N   0  0  0  0  0  0  0  0  0  0  0  0
   16.7557   -8.3523  -11.3877 C   0  0  0  0  0  0  0  0  0  0  0  0
   15.6720   -8.4374  -12.0191 O   0  0  0  0  0  0  0  0  0  0  0  0
   17.9123   -7.5469  -11.7870 C   0  0  0  0  0  0  0  0  0  0  0  0
   18.2360   -7.6373  -13.2609 C   0  0  2  0  0  0  0  0  0  0  0  0
   18.8085   -8.9196  -13.6027 N   0  0  0  0  0  0  0  0  0  0  0  0
   19.1247   -6.5748  -13.7223 C   0  0  0  0  0  0  0  0  0  0  0  0
   18.7159   -5.2528  -13.7105 O   0  0  0  0  0  0  0  0  0  0  0  0
   20.2831   -6.8172  -14.1437 O   0  0  0  0  0  0  0  0  0  0  0  0
  2  4  1  0
  2  1  1  6
  3  2  1  0
  4  5  2  0
  4 11  1  0
  7  6  1  0
  7  8  1  0
  8  9  1  0
 10  9  1  6
 10 12  1  0
 11 10  1  0
 12 19  1  0
 12 13  2  0
 14 15  1  0
 15 17  1  0
 16 15  2  0
 18 17  1  1
 18 20  1  0
 19 18  1  0
 20 21  1  0
 22 20  2  0
M  END
$$$$
