AMN.pdb
     RDKit          3D

 22 21  0  0  1  0  0  0  0  0999 V2000
   20.3650  -11.8624  -20.1451 C   0  0  0  0  0  0  0  0  0  0  0  0
   20.7394  -10.6476  -19.3270 C   0  0  2  0  0  0  0  0  0  0  0  0
   22.0543  -10.2159  -19.7476 N   0  0  0  0  0  0  0  0  0  0  0  0
   20.6838  -10.9169  -17.8691 C   0  0  0  0  0  0  0  0  0  0  0  0
   19.5930  -11.1531  -17.2906 O   0  0  0  0  0  0  0  0  0  0  0  0
   24.9607  -15.5382  -15.7116 C   0  0  0  0  0  0  0  0  0  0  0  0
   24.6955  -13.8976  -14.9877 S   0  0  0  0  0  0  0  0  0  0  0  0
   23.0934  -13.2503  -15.6068 C   0  0  0  0  0  0  0  0  0  0  0  0
   22.9808  -11.8419  -15.0712 C   0  0  0  0  0  0  0  0  0  0  0  0
   21.7773  -11.1015  -15.6098 C   0  0  2  0  0  0  0  0  0  0  0  0
   21.8479  -10.9249  -17.0439 N   0  0  0  0  0  0  0  0  0  0  0  0
   21.8016   -9.7528  -14.9913 C   0  0  0  0  0  0  0  0  0  0  0  0
   21.7958   -9.6505  -13.7402 O   0  0  0  0  0  0  0  0  0  0  0  0
   22.0675   -4.7719  -14.0118 N   0  0  0  0  0  0  0  0  0  0  0  0
   22.6239   -4.9098  -15.3134 C   0  0  0  0  0  0  0  0  0  0  0  0
   23.1525   -3.8858  -15.8156 O   0  0  0  0  0  0  0  0  0  0  0  0
   22.5352   -6.2235  -15.9555 C   0  0  0  0  0  0  0  0  0  0  0  0
   21.8749   -7.2769  -15.0953 C   0  0  2  0  0  0  0  0  0  0  0  0
   21.8314   -8.5584  -15.7621 N   0  0  0  0  0  0  0  0  0  0  0  0
   20.5280   -6.9107  -14.6673 C   0  0  0  0  0  0  0  0  0  0  0  0
   20.3065   -6.3549  -13.4196 O   0  0  0  0  0  0  0  0  0  0  0  0
   19.5281   -7.0843  -15.4078 O   0  0  0  0  0  0  0  0  0  0  0  0
  2  4  1  0
  2  1  1  6
  3  2  1  0
  4  5  2  0
  4 11  1  0
  7  6  1  0
  7  8  1  0
  8  9  1  0
 10  9  1  1
 10 12  1  0
 11 10  1  0
 12 19  1  0
 12 13  2  0
 14 15  1  0
 15 17  1  0
 16 15  2  0
 18 17  1  6
 18 20  1  0
 19 18  1  0
 20 21  1  0
 22 20  2  0
M  END
$$$$
