AMN.pdb
     RDKit          3D

 22 21  0  0  1  0  0  0  0  0999 V2000
   28.8717  -22.0046  -16.3097 C   0  0  0  0  0  0  0  0  0  0  0  0
   27.5583  -21.2586  -16.2487 C   0  0  2  0  0  0  0  0  0  0  0  0
   27.8513  -19.8422  -16.2357 N   0  0  0  0  0  0  0  0  0  0  0  0
   26.7378  -21.6662  -15.0816 C   0  0  0  0  0  0  0  0  0  0  0  0
   26.2150  -22.8077  -15.0187 O   0  0  0  0  0  0  0  0  0  0  0  0
   25.0906  -20.5509   -7.4563 C   0  0  0  0  0  0  0  0  0  0  0  0
   25.9339  -19.9838   -8.9574 S   0  0  0  0  0  0  0  0  0  0  0  0
   25.2615  -20.9247  -10.3827 C   0  0  0  0  0  0  0  0  0  0  0  0
   26.0140  -20.4318  -11.5967 C   0  0  0  0  0  0  0  0  0  0  0  0
   25.6631  -21.1920  -12.8558 C   0  0  2  0  0  0  0  0  0  0  0  0
   26.4944  -20.8010  -13.9734 N   0  0  0  0  0  0  0  0  0  0  0  0
   24.2637  -20.8286  -13.1905 C   0  0  0  0  0  0  0  0  0  0  0  0
   24.0194  -19.6876  -13.6534 O   0  0  0  0  0  0  0  0  0  0  0  0
   18.8862  -23.0585  -14.4167 N   0  0  0  0  0  0  0  0  0  0  0  0
   19.9171  -22.1697  -14.8293 C   0  0  0  0  0  0  0  0  0  0  0  0
   19.5754  -21.2045  -15.5587 O   0  0  0  0  0  0  0  0  0  0  0  0
   21.2806  -22.4511  -14.3735 C   0  0  0  0  0  0  0  0  0  0  0  0
   21.8632  -21.3678  -13.4946 C   0  0  2  0  0  0  0  0  0  0  0  0
   23.1760  -21.7258  -13.0077 N   0  0  0  0  0  0  0  0  0  0  0  0
   21.0079  -21.0211  -12.3633 C   0  0  0  0  0  0  0  0  0  0  0  0
   19.8900  -20.2244  -12.5369 O   0  0  0  0  0  0  0  0  0  0  0  0
   21.2515  -21.4286  -11.2001 O   0  0  0  0  0  0  0  0  0  0  0  0
  2  4  1  0
  2  1  1  1
  3  2  1  0
  4  5  2  0
  4 11  1  0
  7  6  1  0
  7  8  1  0
  8  9  1  0
 10  9  1  1
 10 12  1  0
 11 10  1  0
 12 19  1  0
 12 13  2  0
 14 15  1  0
 15 17  1  0
 16 15  2  0
 18 17  1  1
 18 20  1  0
 19 18  1  0
 20 21  1  0
 22 20  2  0
M  END
$$$$
