AMN.pdb
     RDKit          3D

 22 21  0  0  1  0  0  0  0  0999 V2000
   29.0691  -21.4880  -14.5340 C   0  0  0  0  0  0  0  0  0  0  0  0
   27.9461  -20.5613  -14.1272 C   0  0  2  0  0  0  0  0  0  0  0  0
   28.5354  -19.3212  -13.6721 N   0  0  0  0  0  0  0  0  0  0  0  0
   27.0661  -21.1679  -13.0982 C   0  0  0  0  0  0  0  0  0  0  0  0
   26.4536  -22.2439  -13.3159 O   0  0  0  0  0  0  0  0  0  0  0  0
   28.6672  -19.8834   -6.9692 C   0  0  0  0  0  0  0  0  0  0  0  0
   26.9086  -20.2913   -7.1338 S   0  0  0  0  0  0  0  0  0  0  0  0
   26.6811  -21.2263   -8.6968 C   0  0  0  0  0  0  0  0  0  0  0  0
   25.8509  -20.3380   -9.5939 C   0  0  0  0  0  0  0  0  0  0  0  0
   25.7103  -20.8846  -10.9968 C   0  0  2  0  0  0  0  0  0  0  0  0
   26.8628  -20.5770  -11.8154 N   0  0  0  0  0  0  0  0  0  0  0  0
   24.5387  -20.2013  -11.5991 C   0  0  0  0  0  0  0  0  0  0  0  0
   24.7254  -19.2489  -12.3952 O   0  0  0  0  0  0  0  0  0  0  0  0
   22.7109  -21.3530  -16.0242 N   0  0  0  0  0  0  0  0  0  0  0  0
   22.1653  -20.7993  -14.8332 C   0  0  0  0  0  0  0  0  0  0  0  0
   21.3338  -19.8666  -14.9705 O   0  0  0  0  0  0  0  0  0  0  0  0
   22.6143  -21.3579  -13.5555 C   0  0  0  0  0  0  0  0  0  0  0  0
   22.2016  -20.5370  -12.3549 C   0  0  2  0  0  0  0  0  0  0  0  0
   23.1996  -20.5822  -11.3105 N   0  0  0  0  0  0  0  0  0  0  0  0
   20.9089  -20.9319  -11.8032 C   0  0  0  0  0  0  0  0  0  0  0  0
   19.8470  -20.0450  -11.7790 O   0  0  0  0  0  0  0  0  0  0  0  0
   20.7127  -22.0805  -11.3337 O   0  0  0  0  0  0  0  0  0  0  0  0
  2  4  1  0
  2  1  1  1
  3  2  1  0
  4  5  2  0
  4 11  1  0
  7  6  1  0
  7  8  1  0
  8  9  1  0
 10  9  1  1
 10 12  1  0
 11 10  1  0
 12 19  1  0
 12 13  2  0
 14 15  1  0
 15 17  1  0
 16 15  2  0
 18 17  1  6
 18 20  1  0
 19 18  1  0
 20 21  1  0
 22 20  2  0
M  END
$$$$
