AMN.pdb
     RDKit          3D

 22 21  0  0  1  0  0  0  0  0999 V2000
   19.4275  -14.4632  -17.4225 C   0  0  0  0  0  0  0  0  0  0  0  0
   19.0836  -12.9962  -17.5453 C   0  0  2  0  0  0  0  0  0  0  0  0
   19.4654  -12.5591  -18.8703 N   0  0  0  0  0  0  0  0  0  0  0  0
   19.7264  -12.1809  -16.4855 C   0  0  0  0  0  0  0  0  0  0  0  0
   19.4870  -12.3871  -15.2687 O   0  0  0  0  0  0  0  0  0  0  0  0
   25.7532  -10.4939  -14.3704 C   0  0  0  0  0  0  0  0  0  0  0  0
   25.0483   -9.0448  -15.2007 S   0  0  0  0  0  0  0  0  0  0  0  0
   23.2337   -9.0527  -14.9249 C   0  0  0  0  0  0  0  0  0  0  0  0
   22.6661  -10.0276  -15.9301 C   0  0  0  0  0  0  0  0  0  0  0  0
   21.1845  -10.2674  -15.7461 C   0  0  2  0  0  0  0  0  0  0  0  0
   20.6434  -11.1271  -16.7762 N   0  0  0  0  0  0  0  0  0  0  0  0
   20.5248   -8.9444  -15.8755 C   0  0  0  0  0  0  0  0  0  0  0  0
   20.4635   -8.3963  -17.0032 O   0  0  0  0  0  0  0  0  0  0  0  0
   17.8713   -4.6613  -15.1563 N   0  0  0  0  0  0  0  0  0  0  0  0
   17.2876   -5.6501  -14.3170 C   0  0  0  0  0  0  0  0  0  0  0  0
   16.2214   -5.3373  -13.7290 O   0  0  0  0  0  0  0  0  0  0  0  0
   17.9722   -6.9406  -14.2085 C   0  0  0  0  0  0  0  0  0  0  0  0
   19.2757   -7.0031  -14.9717 C   0  0  2  0  0  0  0  0  0  0  0  0
   19.9532   -8.2630  -14.7662 N   0  0  0  0  0  0  0  0  0  0  0  0
   20.1861   -5.9084  -14.6484 C   0  0  0  0  0  0  0  0  0  0  0  0
   20.0808   -4.6858  -15.2879 O   0  0  0  0  0  0  0  0  0  0  0  0
   21.0911   -6.0330  -13.7861 O   0  0  0  0  0  0  0  0  0  0  0  0
  2  4  1  0
  2  1  1  1
  3  2  1  0
  4  5  2  0
  4 11  1  0
  7  6  1  0
  7  8  1  0
  8  9  1  0
 10  9  1  6
 10 12  1  0
 11 10  1  0
 12 19  1  0
 12 13  2  0
 14 15  1  0
 15 17  1  0
 16 15  2  0
 18 17  1  1
 18 20  1  0
 19 18  1  0
 20 21  1  0
 22 20  2  0
M  END
$$$$
