AMN.pdb
     RDKit          3D

 22 21  0  0  1  0  0  0  0  0999 V2000
   28.9878  -20.6149  -15.7745 C   0  0  0  0  0  0  0  0  0  0  0  0
   27.6213  -20.0427  -15.4734 C   0  0  2  0  0  0  0  0  0  0  0  0
   27.7845  -18.6383  -15.1681 N   0  0  0  0  0  0  0  0  0  0  0  0
   26.9388  -20.7731  -14.3771 C   0  0  0  0  0  0  0  0  0  0  0  0
   26.5544  -21.9609  -14.5251 O   0  0  0  0  0  0  0  0  0  0  0  0
   27.6662  -20.4536   -7.8659 C   0  0  0  0  0  0  0  0  0  0  0  0
   25.8761  -20.2345   -8.0488 S   0  0  0  0  0  0  0  0  0  0  0  0
   25.3637  -21.0038   -9.6346 C   0  0  0  0  0  0  0  0  0  0  0  0
   26.1464  -20.2911  -10.7128 C   0  0  0  0  0  0  0  0  0  0  0  0
   25.8777  -20.8399  -12.0959 C   0  0  2  0  0  0  0  0  0  0  0  0
   26.6798  -20.1822  -13.1044 N   0  0  0  0  0  0  0  0  0  0  0  0
   24.4541  -20.5468  -12.3956 C   0  0  0  0  0  0  0  0  0  0  0  0
   24.1261  -19.3865  -12.7444 O   0  0  0  0  0  0  0  0  0  0  0  0
   20.5414  -22.0484  -16.1116 N   0  0  0  0  0  0  0  0  0  0  0  0
   20.6073  -22.1739  -14.6964 C   0  0  0  0  0  0  0  0  0  0  0  0
   19.5139  -22.1818  -14.0762 O   0  0  0  0  0  0  0  0  0  0  0  0
   21.9338  -22.2828  -14.0842 C   0  0  0  0  0  0  0  0  0  0  0  0
   22.1613  -21.3096  -12.9500 C   0  0  2  0  0  0  0  0  0  0  0  0
   23.4344  -21.5334  -12.3036 N   0  0  0  0  0  0  0  0  0  0  0  0
   21.1008  -21.3350  -11.9469 C   0  0  0  0  0  0  0  0  0  0  0  0
   21.0494  -22.3371  -10.9940 O   0  0  0  0  0  0  0  0  0  0  0  0
   20.2029  -20.4572  -11.9106 O   0  0  0  0  0  0  0  0  0  0  0  0
  2  4  1  0
  2  1  1  1
  3  2  1  0
  4  5  2  0
  4 11  1  0
  7  6  1  0
  7  8  1  0
  8  9  1  0
 10  9  1  1
 10 12  1  0
 11 10  1  0
 12 19  1  0
 12 13  2  0
 14 15  1  0
 15 17  1  0
 16 15  2  0
 18 17  1  6
 18 20  1  0
 19 18  1  0
 20 21  1  0
 22 20  2  0
M  END
$$$$
