AMN.pdb
     RDKit          3D

 22 21  0  0  1  0  0  0  0  0999 V2000
   18.3227  -11.6510  -17.9729 C   0  0  0  0  0  0  0  0  0  0  0  0
   19.8199  -11.6216  -18.1805 C   0  0  2  0  0  0  0  0  0  0  0  0
   20.3190  -12.9686  -18.0113 N   0  0  0  0  0  0  0  0  0  0  0  0
   20.4916  -10.6624  -17.2695 C   0  0  0  0  0  0  0  0  0  0  0  0
   19.9822  -10.3463  -16.1645 O   0  0  0  0  0  0  0  0  0  0  0  0
   25.9932  -11.1686  -14.6470 C   0  0  0  0  0  0  0  0  0  0  0  0
   26.2320   -9.4586  -15.1992 S   0  0  0  0  0  0  0  0  0  0  0  0
   24.5790   -8.7002  -15.4468 C   0  0  0  0  0  0  0  0  0  0  0  0
   23.8377   -9.6206  -16.3884 C   0  0  0  0  0  0  0  0  0  0  0  0
   22.4221   -9.1657  -16.6635 C   0  0  2  0  0  0  0  0  0  0  0  0
   21.7399  -10.0476  -17.5853 N   0  0  0  0  0  0  0  0  0  0  0  0
   22.5263   -7.8349  -17.3118 C   0  0  0  0  0  0  0  0  0  0  0  0
   22.9319   -7.7593  -18.4974 O   0  0  0  0  0  0  0  0  0  0  0  0
   21.2544   -3.7120  -20.1689 N   0  0  0  0  0  0  0  0  0  0  0  0
   20.8891   -3.8405  -18.8004 C   0  0  0  0  0  0  0  0  0  0  0  0
   20.5139   -2.7943  -18.2129 O   0  0  0  0  0  0  0  0  0  0  0  0
   20.9797   -5.1710  -18.1941 C   0  0  0  0  0  0  0  0  0  0  0  0
   22.2234   -5.3748  -17.3591 C   0  0  2  0  0  0  0  0  0  0  0  0
   22.1834   -6.6288  -16.6416 N   0  0  0  0  0  0  0  0  0  0  0  0
   22.4691   -4.2879  -16.4159 C   0  0  0  0  0  0  0  0  0  0  0  0
   22.9369   -3.0612  -16.8531 O   0  0  0  0  0  0  0  0  0  0  0  0
   22.2676   -4.4229  -15.1832 O   0  0  0  0  0  0  0  0  0  0  0  0
  2  4  1  0
  2  1  1  1
  3  2  1  0
  4  5  2  0
  4 11  1  0
  7  6  1  0
  7  8  1  0
  8  9  1  0
 10  9  1  6
 10 12  1  0
 11 10  1  0
 12 19  1  0
 12 13  2  0
 14 15  1  0
 15 17  1  0
 16 15  2  0
 18 17  1  1
 18 20  1  0
 19 18  1  0
 20 21  1  0
 22 20  2  0
M  END
$$$$
