AMN.pdb
     RDKit          3D

 22 21  0  0  1  0  0  0  0  0999 V2000
   28.8209  -21.4425  -15.4786 C   0  0  0  0  0  0  0  0  0  0  0  0
   27.4725  -20.7689  -15.3621 C   0  0  2  0  0  0  0  0  0  0  0  0
   27.6972  -19.3511  -15.1844 N   0  0  0  0  0  0  0  0  0  0  0  0
   26.6541  -21.3426  -14.2657 C   0  0  0  0  0  0  0  0  0  0  0  0
   26.2621  -22.5366  -14.3005 O   0  0  0  0  0  0  0  0  0  0  0  0
   27.3502  -20.5278   -8.1477 C   0  0  0  0  0  0  0  0  0  0  0  0
   25.5417  -20.4455   -8.0544 S   0  0  0  0  0  0  0  0  0  0  0  0
   24.8565  -21.0991   -9.6267 C   0  0  0  0  0  0  0  0  0  0  0  0
   25.7485  -20.5628  -10.7220 C   0  0  0  0  0  0  0  0  0  0  0  0
   25.4192  -21.1347  -12.0825 C   0  0  2  0  0  0  0  0  0  0  0  0
   26.2662  -20.5866  -13.1194 N   0  0  0  0  0  0  0  0  0  0  0  0
   24.0240  -20.7282  -12.3834 C   0  0  0  0  0  0  0  0  0  0  0  0
   23.7361  -19.5073  -12.4285 O   0  0  0  0  0  0  0  0  0  0  0  0
   22.5468  -20.6838  -15.6285 N   0  0  0  0  0  0  0  0  0  0  0  0
   21.7074  -21.8240  -15.4931 C   0  0  0  0  0  0  0  0  0  0  0  0
   21.5160  -22.5132  -16.5268 O   0  0  0  0  0  0  0  0  0  0  0  0
   21.1402  -22.0979  -14.1705 C   0  0  0  0  0  0  0  0  0  0  0  0
   21.6938  -21.2132  -13.0768 C   0  0  2  0  0  0  0  0  0  0  0  0
   22.9879  -21.6714  -12.6251 N   0  0  0  0  0  0  0  0  0  0  0  0
   20.8000  -21.0873  -11.9293 C   0  0  0  0  0  0  0  0  0  0  0  0
   19.7499  -20.1862  -11.9433 O   0  0  0  0  0  0  0  0  0  0  0  0
   20.9483  -21.7850  -10.8952 O   0  0  0  0  0  0  0  0  0  0  0  0
  2  4  1  0
  2  1  1  1
  3  2  1  0
  4  5  2  0
  4 11  1  0
  7  6  1  0
  7  8  1  0
  8  9  1  0
 10  9  1  1
 10 12  1  0
 11 10  1  0
 12 19  1  0
 12 13  2  0
 14 15  1  0
 15 17  1  0
 16 15  2  0
 18 17  1  6
 18 20  1  0
 19 18  1  0
 20 21  1  0
 22 20  2  0
M  END
$$$$
