AMN.pdb
     RDKit          3D

 22 21  0  0  1  0  0  0  0  0999 V2000
   18.4798  -11.1899  -19.0030 C   0  0  0  0  0  0  0  0  0  0  0  0
   19.8724  -11.7535  -18.8350 C   0  0  2  0  0  0  0  0  0  0  0  0
   19.7589  -13.1900  -18.7097 N   0  0  0  0  0  0  0  0  0  0  0  0
   20.5839  -11.1504  -17.6813 C   0  0  0  0  0  0  0  0  0  0  0  0
   20.0556  -11.1033  -16.5415 O   0  0  0  0  0  0  0  0  0  0  0  0
   27.5487   -9.8499  -16.5812 C   0  0  0  0  0  0  0  0  0  0  0  0
   26.4664  -10.8249  -15.5023 S   0  0  0  0  0  0  0  0  0  0  0  0
   24.8253  -10.0048  -15.4446 C   0  0  0  0  0  0  0  0  0  0  0  0
   24.0484  -10.5493  -16.6206 C   0  0  0  0  0  0  0  0  0  0  0  0
   22.6120  -10.0777  -16.6466 C   0  0  2  0  0  0  0  0  0  0  0  0
   21.8934  -10.5944  -17.7910 N   0  0  0  0  0  0  0  0  0  0  0  0
   22.6565   -8.6001  -16.7763 C   0  0  0  0  0  0  0  0  0  0  0  0
   23.1039   -8.0894  -17.8321 O   0  0  0  0  0  0  0  0  0  0  0  0
   22.0553   -3.5956  -16.3406 N   0  0  0  0  0  0  0  0  0  0  0  0
   20.8348   -4.3094  -16.4945 C   0  0  0  0  0  0  0  0  0  0  0  0
   19.8125   -3.6319  -16.7703 O   0  0  0  0  0  0  0  0  0  0  0  0
   20.8704   -5.7635  -16.3202 C   0  0  0  0  0  0  0  0  0  0  0  0
   22.2367   -6.2985  -15.9562 C   0  0  2  0  0  0  0  0  0  0  0  0
   22.2100   -7.7282  -15.7458 N   0  0  0  0  0  0  0  0  0  0  0  0
   22.8163   -5.6499  -14.7836 C   0  0  0  0  0  0  0  0  0  0  0  0
   23.3865   -4.3926  -14.8775 O   0  0  0  0  0  0  0  0  0  0  0  0
   22.8198   -6.2027  -13.6555 O   0  0  0  0  0  0  0  0  0  0  0  0
  2  4  1  0
  2  1  1  1
  3  2  1  0
  4  5  2  0
  4 11  1  0
  7  6  1  0
  7  8  1  0
  8  9  1  0
 10  9  1  6
 10 12  1  0
 11 10  1  0
 12 19  1  0
 12 13  2  0
 14 15  1  0
 15 17  1  0
 16 15  2  0
 18 17  1  1
 18 20  1  0
 19 18  1  0
 20 21  1  0
 22 20  2  0
M  END
$$$$
