LGL.pdb
     RDKit          3D

 21 20  0  0  1  0  0  0  0  0999 V2000
   17.3475  -14.8323  -20.6879 C   0  0  0  0  0  0  0  0  0  0  0  0
   17.9233  -14.5925  -19.3018 C   0  0  2  0  0  0  0  0  0  0  0  0
   17.6924  -15.8169  -18.4471 C   0  0  0  0  0  0  0  0  0  0  0  0
   17.3496  -13.3439  -18.6794 C   0  0  0  0  0  0  0  0  0  0  0  0
   18.1155  -13.0120  -17.4458 C   0  0  2  0  0  0  0  0  0  0  0  0
   17.9777  -14.0196  -16.4159 N   0  0  0  0  0  0  0  0  0  0  0  0
   17.6738  -11.7178  -16.8360 C   0  0  0  0  0  0  0  0  0  0  0  0
   16.8228  -11.6538  -15.9118 O   0  0  0  0  0  0  0  0  0  0  0  0
   18.2205  -10.4846  -17.2982 N   0  0  0  0  0  0  0  0  0  0  0  0
   17.8240   -9.2070  -16.7725 C   0  0  0  0  0  0  0  0  0  0  0  0
   18.8224   -8.7781  -15.7439 C   0  0  0  0  0  0  0  0  0  0  0  0
   18.5475   -8.9181  -14.5306 O   0  0  0  0  0  0  0  0  0  0  0  0
   23.4907  -10.8482  -14.9594 C   0  0  0  0  0  0  0  0  0  0  0  0
   22.2248  -10.0957  -14.6606 C   0  0  1  0  0  0  0  0  0  0  0  0
   21.8860  -10.1674  -13.1822 C   0  0  0  0  0  0  0  0  0  0  0  0
   22.1765   -8.7518  -15.2245 C   0  0  0  0  0  0  0  0  0  0  0  0
   21.0487   -7.8328  -15.0422 C   0  0  2  0  0  0  0  0  0  0  0  0
   20.0701   -8.2182  -16.0971 N   0  0  0  0  0  0  0  0  0  0  0  0
   21.2441   -6.3999  -15.0279 C   0  0  0  0  0  0  0  0  0  0  0  0
   21.8379   -5.8550  -13.8562 O   0  0  0  0  0  0  0  0  0  0  0  0
   20.9736   -5.5477  -15.8871 O   0  0  0  0  0  0  0  0  0  0  0  0
  2  1  1  6
  3  2  1  0
  4  2  1  0
  5  4  1  0
  5  6  1  1
  7  5  1  0
  7  8  2  0
  9  7  1  0
 10  9  1  0
 10 11  1  0
 11 18  1  0
 12 11  2  0
 14 15  1  1
 14 13  1  0
 16 14  1  0
 17 16  1  6
 18 17  1  0
 19 20  1  0
 19 17  1  0
 21 19  2  0
M  END
$$$$
