LGL.pdb
     RDKit          3D

 21 20  0  0  1  0  0  0  0  0999 V2000
   18.9232  -10.4295  -21.6627 C   0  0  0  0  0  0  0  0  0  0  0  0
   17.4252  -10.2287  -21.5004 C   0  0  2  0  0  0  0  0  0  0  0  0
   16.8086   -9.9593  -22.8532 C   0  0  0  0  0  0  0  0  0  0  0  0
   17.1241   -9.1348  -20.5064 C   0  0  0  0  0  0  0  0  0  0  0  0
   17.7686   -9.4618  -19.2040 C   0  0  2  0  0  0  0  0  0  0  0  0
   17.1153  -10.5558  -18.5177 N   0  0  0  0  0  0  0  0  0  0  0  0
   17.7576   -8.3002  -18.2593 C   0  0  0  0  0  0  0  0  0  0  0  0
   18.2511   -7.1799  -18.5489 O   0  0  0  0  0  0  0  0  0  0  0  0
   17.1707   -8.4337  -16.9666 N   0  0  0  0  0  0  0  0  0  0  0  0
   17.0167   -7.3295  -16.0594 C   0  0  0  0  0  0  0  0  0  0  0  0
   18.3003   -7.1342  -15.3158 C   0  0  0  0  0  0  0  0  0  0  0  0
   18.3332   -6.3327  -14.3546 O   0  0  0  0  0  0  0  0  0  0  0  0
   22.7011  -10.3217  -13.1484 C   0  0  0  0  0  0  0  0  0  0  0  0
   22.5598   -9.0142  -13.8752 C   0  0  1  0  0  0  0  0  0  0  0  0
   23.7586   -8.7581  -14.7711 C   0  0  0  0  0  0  0  0  0  0  0  0
   21.2695   -8.8251  -14.5278 C   0  0  0  0  0  0  0  0  0  0  0  0
   20.7647   -7.5216  -14.9705 C   0  0  2  0  0  0  0  0  0  0  0  0
   19.4815   -7.8265  -15.6630 N   0  0  0  0  0  0  0  0  0  0  0  0
   21.5785   -6.6358  -15.7734 C   0  0  0  0  0  0  0  0  0  0  0  0
   22.4010   -5.7176  -15.0642 O   0  0  0  0  0  0  0  0  0  0  0  0
   21.6807   -6.5415  -17.0056 O   0  0  0  0  0  0  0  0  0  0  0  0
  2  1  1  6
  3  2  1  0
  4  2  1  0
  5  4  1  0
  5  6  1  1
  7  5  1  0
  7  8  2  0
  9  7  1  0
 10  9  1  0
 10 11  1  0
 11 18  1  0
 12 11  2  0
 14 15  1  6
 14 13  1  0
 16 14  1  0
 17 16  1  6
 18 17  1  0
 19 20  1  0
 19 17  1  0
 21 19  2  0
M  END
$$$$
