LGL.pdb
     RDKit          3D

 21 20  0  0  1  0  0  0  0  0999 V2000
   20.6810  -22.1141  -16.4023 C   0  0  0  0  0  0  0  0  0  0  0  0
   21.0044  -23.0862  -15.2795 C   0  0  2  0  0  0  0  0  0  0  0  0
   20.0829  -24.2799  -15.3723 C   0  0  0  0  0  0  0  0  0  0  0  0
   20.9317  -22.4106  -13.9327 C   0  0  0  0  0  0  0  0  0  0  0  0
   21.9396  -21.3155  -13.8760 C   0  0  2  0  0  0  0  0  0  0  0  0
   23.2943  -21.7951  -14.0484 N   0  0  0  0  0  0  0  0  0  0  0  0
   21.9101  -20.5858  -12.5689 C   0  0  0  0  0  0  0  0  0  0  0  0
   20.8692  -20.0488  -12.1101 O   0  0  0  0  0  0  0  0  0  0  0  0
   23.0950  -20.4751  -11.7833 N   0  0  0  0  0  0  0  0  0  0  0  0
   23.1256  -19.8278  -10.5003 C   0  0  0  0  0  0  0  0  0  0  0  0
   24.5422  -19.7729  -10.0219 C   0  0  0  0  0  0  0  0  0  0  0  0
   24.8758  -18.8877   -9.2018 O   0  0  0  0  0  0  0  0  0  0  0  0
   27.3732  -21.1591   -6.5698 C   0  0  0  0  0  0  0  0  0  0  0  0
   26.9285  -20.3675   -7.7672 C   0  0  1  0  0  0  0  0  0  0  0  0
   27.2227  -18.8896   -7.5814 C   0  0  0  0  0  0  0  0  0  0  0  0
   27.3688  -20.9126   -9.0460 C   0  0  0  0  0  0  0  0  0  0  0  0
   26.9688  -20.3639  -10.3456 C   0  0  2  0  0  0  0  0  0  0  0  0
   25.5203  -20.6900  -10.4661 N   0  0  0  0  0  0  0  0  0  0  0  0
   27.6732  -20.7186  -11.5579 C   0  0  0  0  0  0  0  0  0  0  0  0
   26.8717  -21.1495  -12.6509 O   0  0  0  0  0  0  0  0  0  0  0  0
   28.8875  -20.7095  -11.8086 O   0  0  0  0  0  0  0  0  0  0  0  0
  2  1  1  6
  3  2  1  0
  4  2  1  0
  5  4  1  0
  5  6  1  1
  7  5  1  0
  7  8  2  0
  9  7  1  0
 10  9  1  0
 10 11  1  0
 11 18  1  0
 12 11  2  0
 14 15  1  1
 14 13  1  0
 16 14  1  0
 17 16  1  1
 18 17  1  0
 19 20  1  0
 19 17  1  0
 21 19  2  0
M  END
$$$$
