LGL.pdb
     RDKit          3D

 21 20  0  0  1  0  0  0  0  0999 V2000
   29.4101  -19.2803  -19.4901 C   0  0  0  0  0  0  0  0  0  0  0  0
   28.7848  -19.2518  -18.1050 C   0  0  2  0  0  0  0  0  0  0  0  0
   29.2860  -20.4328  -17.3069 C   0  0  0  0  0  0  0  0  0  0  0  0
   27.2789  -19.2131  -18.1850 C   0  0  0  0  0  0  0  0  0  0  0  0
   26.7682  -18.1092  -17.3254 C   0  0  2  0  0  0  0  0  0  0  0  0
   27.4489  -18.0350  -16.0502 N   0  0  0  0  0  0  0  0  0  0  0  0
   25.3097  -18.2570  -17.0208 C   0  0  0  0  0  0  0  0  0  0  0  0
   24.4427  -18.4522  -17.9109 O   0  0  0  0  0  0  0  0  0  0  0  0
   24.8476  -18.1786  -15.6740 N   0  0  0  0  0  0  0  0  0  0  0  0
   23.4592  -18.2787  -15.3161 C   0  0  0  0  0  0  0  0  0  0  0  0
   23.2320  -19.5880  -14.6283 C   0  0  0  0  0  0  0  0  0  0  0  0
   23.2056  -20.6386  -15.3087 O   0  0  0  0  0  0  0  0  0  0  0  0
   25.7181  -20.4752  -10.1221 C   0  0  0  0  0  0  0  0  0  0  0  0
   25.0919  -20.7384  -11.4625 C   0  0  1  0  0  0  0  0  0  0  0  0
   25.9033  -21.7501  -12.2521 C   0  0  0  0  0  0  0  0  0  0  0  0
   23.6620  -21.0204  -11.4135 C   0  0  0  0  0  0  0  0  0  0  0  0
   22.7874  -20.9988  -12.5901 C   0  0  2  0  0  0  0  0  0  0  0  0
   23.0456  -19.6792  -13.2312 N   0  0  0  0  0  0  0  0  0  0  0  0
   21.3660  -21.2382  -12.4721 C   0  0  0  0  0  0  0  0  0  0  0  0
   20.9577  -22.5991  -12.4105 O   0  0  0  0  0  0  0  0  0  0  0  0
   20.4224  -20.4359  -12.4146 O   0  0  0  0  0  0  0  0  0  0  0  0
  2  1  1  6
  3  2  1  0
  4  2  1  0
  5  4  1  0
  5  6  1  1
  7  5  1  0
  7  8  2  0
  9  7  1  0
 10  9  1  0
 10 11  1  0
 11 18  1  0
 12 11  2  0
 14 15  1  1
 14 13  1  0
 16 14  1  0
 17 16  1  1
 18 17  1  0
 19 20  1  0
 19 17  1  0
 21 19  2  0
M  END
$$$$
