LGL.pdb
     RDKit          3D

 21 20  0  0  1  0  0  0  0  0999 V2000
   21.8408  -17.1509  -16.8558 C   0  0  0  0  0  0  0  0  0  0  0  0
   23.1486  -17.3305  -17.6094 C   0  0  2  0  0  0  0  0  0  0  0  0
   22.8826  -17.2563  -19.0948 C   0  0  0  0  0  0  0  0  0  0  0  0
   23.8360  -18.6139  -17.2146 C   0  0  0  0  0  0  0  0  0  0  0  0
   24.2067  -18.5509  -15.7735 C   0  0  2  0  0  0  0  0  0  0  0  0
   25.0705  -17.4305  -15.4684 N   0  0  0  0  0  0  0  0  0  0  0  0
   24.9302  -19.7811  -15.3205 C   0  0  0  0  0  0  0  0  0  0  0  0
   24.4357  -20.9345  -15.4064 O   0  0  0  0  0  0  0  0  0  0  0  0
   26.2384  -19.6782  -14.7626 N   0  0  0  0  0  0  0  0  0  0  0  0
   27.0308  -20.8242  -14.4095 C   0  0  0  0  0  0  0  0  0  0  0  0
   26.5256  -21.3793  -13.1152 C   0  0  0  0  0  0  0  0  0  0  0  0
   27.1504  -22.3155  -12.5670 O   0  0  0  0  0  0  0  0  0  0  0  0
   26.9339  -20.2616   -8.2773 C   0  0  0  0  0  0  0  0  0  0  0  0
   25.7487  -20.9542   -8.8884 C   0  0  1  0  0  0  0  0  0  0  0  0
   24.4734  -20.1676   -8.6426 C   0  0  0  0  0  0  0  0  0  0  0  0
   25.9423  -21.3693  -10.2727 C   0  0  0  0  0  0  0  0  0  0  0  0
   24.8497  -21.5120  -11.2400 C   0  0  2  0  0  0  0  0  0  0  0  0
   25.3623  -20.8807  -12.4881 N   0  0  0  0  0  0  0  0  0  0  0  0
   23.5165  -21.0383  -10.9404 C   0  0  0  0  0  0  0  0  0  0  0  0
   22.6552  -21.9545  -10.2758 O   0  0  0  0  0  0  0  0  0  0  0  0
   22.9871  -19.9412  -11.1719 O   0  0  0  0  0  0  0  0  0  0  0  0
  2  1  1  1
  3  2  1  0
  4  2  1  0
  5  4  1  0
  5  6  1  6
  7  5  1  0
  7  8  2  0
  9  7  1  0
 10  9  1  0
 10 11  1  0
 11 18  1  0
 12 11  2  0
 14 15  1  6
 14 13  1  0
 16 14  1  0
 17 16  1  1
 18 17  1  0
 19 20  1  0
 19 17  1  0
 21 19  2  0
M  END
$$$$
