LGL.pdb
     RDKit          3D

 21 20  0  0  1  0  0  0  0  0999 V2000
   23.4897  -20.8739  -19.4240 C   0  0  0  0  0  0  0  0  0  0  0  0
   24.3547  -21.6215  -18.4225 C   0  0  2  0  0  0  0  0  0  0  0  0
   23.9524  -23.0778  -18.4050 C   0  0  0  0  0  0  0  0  0  0  0  0
   24.2782  -20.9904  -17.0545 C   0  0  0  0  0  0  0  0  0  0  0  0
   25.4685  -20.1195  -16.8466 C   0  0  2  0  0  0  0  0  0  0  0  0
   26.7166  -20.8221  -17.0550 N   0  0  0  0  0  0  0  0  0  0  0  0
   25.5235  -19.5573  -15.4600 C   0  0  0  0  0  0  0  0  0  0  0  0
   24.5919  -18.8738  -14.9629 O   0  0  0  0  0  0  0  0  0  0  0  0
   26.6666  -19.7867  -14.6388 N   0  0  0  0  0  0  0  0  0  0  0  0
   26.7842  -19.2750  -13.3009 C   0  0  0  0  0  0  0  0  0  0  0  0
   26.0148  -20.1641  -12.3755 C   0  0  0  0  0  0  0  0  0  0  0  0
   25.5215  -21.2260  -12.8187 O   0  0  0  0  0  0  0  0  0  0  0  0
   27.3252  -19.5355   -7.2162 C   0  0  0  0  0  0  0  0  0  0  0  0
   27.0611  -20.2340   -8.5202 C   0  0  1  0  0  0  0  0  0  0  0  0
   27.9826  -21.4284   -8.6933 C   0  0  0  0  0  0  0  0  0  0  0  0
   25.6540  -20.5176   -8.7766 C   0  0  0  0  0  0  0  0  0  0  0  0
   25.1080  -20.7878  -10.1103 C   0  0  2  0  0  0  0  0  0  0  0  0
   25.8255  -19.8445  -11.0128 N   0  0  0  0  0  0  0  0  0  0  0  0
   23.6840  -20.7475  -10.3597 C   0  0  0  0  0  0  0  0  0  0  0  0
   22.9014  -21.7447   -9.7150 O   0  0  0  0  0  0  0  0  0  0  0  0
   23.0166  -19.9704  -11.0584 O   0  0  0  0  0  0  0  0  0  0  0  0
  2  1  1  6
  3  2  1  0
  4  2  1  0
  5  4  1  0
  5  6  1  1
  7  5  1  0
  7  8  2  0
  9  7  1  0
 10  9  1  0
 10 11  1  0
 11 18  1  0
 12 11  2  0
 14 15  1  1
 14 13  1  0
 16 14  1  0
 17 16  1  1
 18 17  1  0
 19 20  1  0
 19 17  1  0
 21 19  2  0
M  END
$$$$
