LGL.pdb
     RDKit          3D

 21 20  0  0  1  0  0  0  0  0999 V2000
   22.5606  -21.9408  -14.0589 C   0  0  0  0  0  0  0  0  0  0  0  0
   23.0759  -20.8072  -13.1873 C   0  0  2  0  0  0  0  0  0  0  0  0
   21.9083  -19.9788  -12.7043 C   0  0  0  0  0  0  0  0  0  0  0  0
   24.1022  -19.9778  -13.9183 C   0  0  0  0  0  0  0  0  0  0  0  0
   25.3675  -20.7542  -14.0390 C   0  0  2  0  0  0  0  0  0  0  0  0
   25.1729  -22.1733  -13.8318 N   0  0  0  0  0  0  0  0  0  0  0  0
   26.3974  -20.3167  -13.0440 C   0  0  0  0  0  0  0  0  0  0  0  0
   26.7242  -19.1125  -12.8843 O   0  0  0  0  0  0  0  0  0  0  0  0
   27.0568  -21.2799  -12.2250 N   0  0  0  0  0  0  0  0  0  0  0  0
   28.0628  -20.9292  -11.2602 C   0  0  0  0  0  0  0  0  0  0  0  0
   27.5438  -21.2338   -9.8903 C   0  0  0  0  0  0  0  0  0  0  0  0
   27.3402  -22.4256   -9.5656 O   0  0  0  0  0  0  0  0  0  0  0  0
   29.1972  -18.7339   -5.3813 C   0  0  0  0  0  0  0  0  0  0  0  0
   28.6716  -19.8514   -6.2373 C   0  0  1  0  0  0  0  0  0  0  0  0
   28.9703  -21.2021   -5.6114 C   0  0  0  0  0  0  0  0  0  0  0  0
   27.2889  -19.6803   -6.6678 C   0  0  0  0  0  0  0  0  0  0  0  0
   26.6278  -20.5490   -7.6465 C   0  0  2  0  0  0  0  0  0  0  0  0
   27.2747  -20.2177   -8.9469 N   0  0  0  0  0  0  0  0  0  0  0  0
   25.1881  -20.5644   -7.7834 C   0  0  0  0  0  0  0  0  0  0  0  0
   24.4601  -21.1830   -6.7299 O   0  0  0  0  0  0  0  0  0  0  0  0
   24.4663  -20.1179   -8.6874 O   0  0  0  0  0  0  0  0  0  0  0  0
  2  1  1  6
  3  2  1  0
  4  2  1  0
  5  4  1  0
  5  6  1  1
  7  5  1  0
  7  8  2  0
  9  7  1  0
 10  9  1  0
 10 11  1  0
 11 18  1  0
 12 11  2  0
 14 15  1  1
 14 13  1  0
 16 14  1  0
 17 16  1  1
 18 17  1  0
 19 20  1  0
 19 17  1  0
 21 19  2  0
M  END
$$$$
