LGL.pdb
     RDKit          3D

 21 20  0  0  1  0  0  0  0  0999 V2000
   24.0021  -32.4852  -10.1037 C   0  0  0  0  0  0  0  0  0  0  0  0
   24.7320  -33.7464   -9.6713 C   0  0  2  0  0  0  0  0  0  0  0  0
   23.9589  -34.9563  -10.1417 C   0  0  0  0  0  0  0  0  0  0  0  0
   24.9650  -33.7602   -8.1810 C   0  0  0  0  0  0  0  0  0  0  0  0
   25.7106  -32.5323   -7.7877 C   0  0  2  0  0  0  0  0  0  0  0  0
   27.0023  -32.4335   -8.4330 N   0  0  0  0  0  0  0  0  0  0  0  0
   25.9662  -32.4728   -6.3136 C   0  0  0  0  0  0  0  0  0  0  0  0
   25.0452  -32.3526   -5.4653 O   0  0  0  0  0  0  0  0  0  0  0  0
   27.2994  -32.5528   -5.8139 N   0  0  0  0  0  0  0  0  0  0  0  0
   27.6089  -32.5761   -4.4105 C   0  0  0  0  0  0  0  0  0  0  0  0
   27.6066  -33.9964   -3.9399 C   0  0  0  0  0  0  0  0  0  0  0  0
   27.1850  -34.8926   -4.7057 O   0  0  0  0  0  0  0  0  0  0  0  0
   31.9079  -36.0746   -1.5020 C   0  0  0  0  0  0  0  0  0  0  0  0
   30.6640  -36.1975   -2.3361 C   0  0  1  0  0  0  0  0  0  0  0  0
   30.6754  -37.4838   -3.1427 C   0  0  0  0  0  0  0  0  0  0  0  0
   29.4245  -35.9552   -1.6071 C   0  0  0  0  0  0  0  0  0  0  0  0
   28.1182  -35.7954   -2.2534 C   0  0  2  0  0  0  0  0  0  0  0  0
   28.0660  -34.3619   -2.6552 N   0  0  0  0  0  0  0  0  0  0  0  0
   26.8970  -36.1805   -1.5810 C   0  0  0  0  0  0  0  0  0  0  0  0
   26.0227  -35.1236   -1.2053 O   0  0  0  0  0  0  0  0  0  0  0  0
   26.4759  -37.3046   -1.2704 O   0  0  0  0  0  0  0  0  0  0  0  0
  2  1  1  1
  3  2  1  0
  4  2  1  0
  5  4  1  0
  5  6  1  6
  7  5  1  0
  7  8  2  0
  9  7  1  0
 10  9  1  0
 10 11  1  0
 11 18  1  0
 12 11  2  0
 14 15  1  1
 14 13  1  0
 16 14  1  0
 17 16  1  1
 18 17  1  0
 19 20  1  0
 19 17  1  0
 21 19  2  0
M  END
$$$$
