LGL.pdb
     RDKit          3D

 21 20  0  0  1  0  0  0  0  0999 V2000
   18.7352  -14.2550    4.7666 C   0  0  0  0  0  0  0  0  0  0  0  0
   18.0918  -12.9160    4.4451 C   0  0  2  0  0  0  0  0  0  0  0  0
   19.1660  -11.8585    4.3416 C   0  0  0  0  0  0  0  0  0  0  0  0
   17.0338  -12.5594    5.4595 C   0  0  0  0  0  0  0  0  0  0  0  0
   16.2994  -13.7920    5.8590 C   0  0  2  0  0  0  0  0  0  0  0  0
   14.8627  -13.6342    5.7839 N   0  0  0  0  0  0  0  0  0  0  0  0
   16.6087  -14.2049    7.2647 C   0  0  0  0  0  0  0  0  0  0  0  0
   16.1015  -13.6421    8.2688 O   0  0  0  0  0  0  0  0  0  0  0  0
   17.5131  -15.2790    7.5133 N   0  0  0  0  0  0  0  0  0  0  0  0
   17.9210  -15.6683    8.8354 C   0  0  0  0  0  0  0  0  0  0  0  0
   18.9371  -16.7610    8.7240 C   0  0  0  0  0  0  0  0  0  0  0  0
   19.0872  -17.3457    7.6272 O   0  0  0  0  0  0  0  0  0  0  0  0
   23.7556  -16.1013   10.4059 C   0  0  0  0  0  0  0  0  0  0  0  0
   22.7133  -16.7436    9.5348 C   0  0  1  0  0  0  0  0  0  0  0  0
   23.2935  -17.1254    8.1846 C   0  0  0  0  0  0  0  0  0  0  0  0
   21.9559  -17.8057   10.1864 C   0  0  0  0  0  0  0  0  0  0  0  0
   20.6708  -18.3099    9.6923 C   0  0  2  0  0  0  0  0  0  0  0  0
   19.7361  -17.1569    9.8194 N   0  0  0  0  0  0  0  0  0  0  0  0
   20.0763  -19.5099   10.2384 C   0  0  0  0  0  0  0  0  0  0  0  0
   20.7539  -20.7304    9.9667 O   0  0  0  0  0  0  0  0  0  0  0  0
   19.0504  -19.6550   10.9196 O   0  0  0  0  0  0  0  0  0  0  0  0
  2  1  1  1
  3  2  1  0
  4  2  1  0
  5  4  1  0
  5  6  1  1
  7  5  1  0
  7  8  2  0
  9  7  1  0
 10  9  1  0
 10 11  1  0
 11 18  1  0
 12 11  2  0
 14 15  1  6
 14 13  1  0
 16 14  1  0
 17 16  1  1
 18 17  1  0
 19 20  1  0
 19 17  1  0
 21 19  2  0
M  END
$$$$
