LGL.pdb
     RDKit          3D

 21 20  0  0  1  0  0  0  0  0999 V2000
   17.2097  -12.3192  -16.1254 C   0  0  0  0  0  0  0  0  0  0  0  0
   17.3173  -12.0865  -14.6271 C   0  0  2  0  0  0  0  0  0  0  0  0
   17.1958  -13.4092  -13.9069 C   0  0  0  0  0  0  0  0  0  0  0  0
   16.2961  -11.0818  -14.1545 C   0  0  0  0  0  0  0  0  0  0  0  0
   16.5430   -9.7756  -14.8261 C   0  0  2  0  0  0  0  0  0  0  0  0
   17.7914   -9.1665  -14.4193 N   0  0  0  0  0  0  0  0  0  0  0  0
   15.4672   -8.7761  -14.5335 C   0  0  0  0  0  0  0  0  0  0  0  0
   14.2486   -9.0023  -14.7479 O   0  0  0  0  0  0  0  0  0  0  0  0
   15.8022   -7.5021  -13.9876 N   0  0  0  0  0  0  0  0  0  0  0  0
   14.8158   -6.5180  -13.6351 C   0  0  0  0  0  0  0  0  0  0  0  0
   14.8028   -6.3601  -12.1472 C   0  0  0  0  0  0  0  0  0  0  0  0
   14.1731   -5.4043  -11.6401 O   0  0  0  0  0  0  0  0  0  0  0  0
   13.1356  -10.0312   -8.9434 C   0  0  0  0  0  0  0  0  0  0  0  0
   13.4661   -8.6318   -9.3796 C   0  0  1  0  0  0  0  0  0  0  0  0
   12.5276   -7.6262   -8.7366 C   0  0  0  0  0  0  0  0  0  0  0  0
   14.8793   -8.2874   -9.2764 C   0  0  0  0  0  0  0  0  0  0  0  0
   15.4577   -7.0529   -9.8162 C   0  0  2  0  0  0  0  0  0  0  0  0
   15.4798   -7.2571  -11.2916 N   0  0  0  0  0  0  0  0  0  0  0  0
   16.7345   -6.5576   -9.3515 C   0  0  0  0  0  0  0  0  0  0  0  0
   16.8413   -6.2963   -7.9576 O   0  0  0  0  0  0  0  0  0  0  0  0
   17.7756   -6.3171   -9.9807 O   0  0  0  0  0  0  0  0  0  0  0  0
  2  1  1  6
  3  2  1  0
  4  2  1  0
  5  4  1  0
  5  6  1  1
  7  5  1  0
  7  8  2  0
  9  7  1  0
 10  9  1  0
 10 11  1  0
 11 18  1  0
 12 11  2  0
 14 15  1  1
 14 13  1  0
 16 14  1  0
 17 16  1  1
 18 17  1  0
 19 20  1  0
 19 17  1  0
 21 19  2  0
M  END
$$$$
