LGL.pdb
     RDKit          3D

 21 20  0  0  1  0  0  0  0  0999 V2000
   27.1785  -16.6467  -18.3003 C   0  0  0  0  0  0  0  0  0  0  0  0
   27.4954  -16.8642  -16.8297 C   0  0  2  0  0  0  0  0  0  0  0  0
   28.9662  -17.1743  -16.6768 C   0  0  0  0  0  0  0  0  0  0  0  0
   26.6193  -17.9381  -16.2341 C   0  0  0  0  0  0  0  0  0  0  0  0
   27.1048  -19.2735  -16.6806 C   0  0  2  0  0  0  0  0  0  0  0  0
   26.6233  -19.6299  -17.9981 N   0  0  0  0  0  0  0  0  0  0  0  0
   26.6718  -20.3709  -15.7585 C   0  0  0  0  0  0  0  0  0  0  0  0
   25.5771  -20.9773  -15.8857 O   0  0  0  0  0  0  0  0  0  0  0  0
   27.5118  -20.7721  -14.6783 N   0  0  0  0  0  0  0  0  0  0  0  0
   27.1477  -21.8030  -13.7453 C   0  0  0  0  0  0  0  0  0  0  0  0
   26.2223  -21.2227  -12.7227 C   0  0  0  0  0  0  0  0  0  0  0  0
   26.0888  -19.9797  -12.6556 O   0  0  0  0  0  0  0  0  0  0  0  0
   24.7110  -21.3924   -7.5501 C   0  0  0  0  0  0  0  0  0  0  0  0
   25.3672  -20.3922   -8.4594 C   0  0  1  0  0  0  0  0  0  0  0  0
   26.5174  -19.6923   -7.7574 C   0  0  0  0  0  0  0  0  0  0  0  0
   25.6945  -20.9070   -9.7838 C   0  0  0  0  0  0  0  0  0  0  0  0
   24.6955  -21.4153  -10.7291 C   0  0  2  0  0  0  0  0  0  0  0  0
   25.4910  -22.0333  -11.8266 N   0  0  0  0  0  0  0  0  0  0  0  0
   23.6672  -20.5533  -11.2687 C   0  0  0  0  0  0  0  0  0  0  0  0
   22.7412  -20.0133  -10.3341 O   0  0  0  0  0  0  0  0  0  0  0  0
   23.4536  -20.1988  -12.4376 O   0  0  0  0  0  0  0  0  0  0  0  0
  2  1  1  6
  3  2  1  0
  4  2  1  0
  5  4  1  0
  5  6  1  6
  7  5  1  0
  7  8  2  0
  9  7  1  0
 10  9  1  0
 10 11  1  0
 11 18  1  0
 12 11  2  0
 14 15  1  1
 14 13  1  0
 16 14  1  0
 17 16  1  1
 18 17  1  0
 19 20  1  0
 19 17  1  0
 21 19  2  0
M  END
$$$$
