LGL.pdb
     RDKit          3D

 21 20  0  0  1  0  0  0  0  0999 V2000
   23.4788  -14.6148  -16.4061 C   0  0  0  0  0  0  0  0  0  0  0  0
   24.7990  -13.8735  -16.2720 C   0  0  2  0  0  0  0  0  0  0  0  0
   25.8201  -14.7849  -15.6319 C   0  0  0  0  0  0  0  0  0  0  0  0
   24.6270  -12.5828  -15.5104 C   0  0  0  0  0  0  0  0  0  0  0  0
   23.5570  -11.7705  -16.1534 C   0  0  2  0  0  0  0  0  0  0  0  0
   23.9187  -11.3228  -17.4813 N   0  0  0  0  0  0  0  0  0  0  0  0
   23.2287  -10.5406  -15.3649 C   0  0  0  0  0  0  0  0  0  0  0  0
   22.8727  -10.5776  -14.1590 O   0  0  0  0  0  0  0  0  0  0  0  0
   23.3123   -9.2547  -15.9755 N   0  0  0  0  0  0  0  0  0  0  0  0
   22.9924   -8.0370  -15.2821 C   0  0  0  0  0  0  0  0  0  0  0  0
   21.5115   -7.8287  -15.3320 C   0  0  0  0  0  0  0  0  0  0  0  0
   20.8712   -8.2343  -16.3285 O   0  0  0  0  0  0  0  0  0  0  0  0
   18.2066   -9.3660  -11.6275 C   0  0  0  0  0  0  0  0  0  0  0  0
   18.6032   -8.9663  -13.0207 C   0  0  1  0  0  0  0  0  0  0  0  0
   17.7216   -9.6465  -14.0530 C   0  0  0  0  0  0  0  0  0  0  0  0
   18.7564   -7.5291  -13.2136 C   0  0  0  0  0  0  0  0  0  0  0  0
   19.3470   -6.9272  -14.4131 C   0  0  2  0  0  0  0  0  0  0  0  0
   20.8085   -7.1872  -14.2884 N   0  0  0  0  0  0  0  0  0  0  0  0
   19.1034   -5.5433  -14.7550 C   0  0  0  0  0  0  0  0  0  0  0  0
   20.2442   -4.6958  -14.8089 O   0  0  0  0  0  0  0  0  0  0  0  0
   18.0409   -4.9592  -15.0148 O   0  0  0  0  0  0  0  0  0  0  0  0
  2  1  1  1
  3  2  1  0
  4  2  1  0
  5  4  1  0
  5  6  1  6
  7  5  1  0
  7  8  2  0
  9  7  1  0
 10  9  1  0
 10 11  1  0
 11 18  1  0
 12 11  2  0
 14 15  1  6
 14 13  1  0
 16 14  1  0
 17 16  1  1
 18 17  1  0
 19 20  1  0
 19 17  1  0
 21 19  2  0
M  END
$$$$
