LGL.pdb
     RDKit          3D

 21 20  0  0  1  0  0  0  0  0999 V2000
   24.2866  -21.2725   -9.9351 C   0  0  0  0  0  0  0  0  0  0  0  0
   25.7811  -21.0049   -9.8631 C   0  0  2  0  0  0  0  0  0  0  0  0
   26.1482  -20.6008   -8.4543 C   0  0  0  0  0  0  0  0  0  0  0  0
   26.2025  -19.9753  -10.8818 C   0  0  0  0  0  0  0  0  0  0  0  0
   25.7573  -20.4104  -12.2349 C   0  0  2  0  0  0  0  0  0  0  0  0
   26.5085  -21.5435  -12.7315 N   0  0  0  0  0  0  0  0  0  0  0  0
   25.9022  -19.3242  -13.2552 C   0  0  0  0  0  0  0  0  0  0  0  0
   25.2800  -18.2333  -13.1842 O   0  0  0  0  0  0  0  0  0  0  0  0
   26.7748  -19.4997  -14.3694 N   0  0  0  0  0  0  0  0  0  0  0  0
   27.0327  -18.4639  -15.3319 C   0  0  0  0  0  0  0  0  0  0  0  0
   25.7914  -18.2317  -16.1343 C   0  0  0  0  0  0  0  0  0  0  0  0
   25.6389  -17.1356  -16.7198 O   0  0  0  0  0  0  0  0  0  0  0  0
   23.5655  -18.8542  -20.7954 C   0  0  0  0  0  0  0  0  0  0  0  0
   22.8754  -18.9310  -19.4628 C   0  0  1  0  0  0  0  0  0  0  0  0
   21.6021  -19.7527  -19.5567 C   0  0  0  0  0  0  0  0  0  0  0  0
   23.7481  -19.2983  -18.3537 C   0  0  0  0  0  0  0  0  0  0  0  0
   23.5089  -18.8992  -16.9633 C   0  0  2  0  0  0  0  0  0  0  0  0
   24.7812  -19.2116  -16.2542 N   0  0  0  0  0  0  0  0  0  0  0  0
   22.3752  -19.4064  -16.2222 C   0  0  0  0  0  0  0  0  0  0  0  0
   21.1498  -18.7027  -16.3828 O   0  0  0  0  0  0  0  0  0  0  0  0
   22.2920  -20.3748  -15.4523 O   0  0  0  0  0  0  0  0  0  0  0  0
  2  1  1  1
  3  2  1  0
  4  2  1  0
  5  4  1  0
  5  6  1  6
  7  5  1  0
  7  8  2  0
  9  7  1  0
 10  9  1  0
 10 11  1  0
 11 18  1  0
 12 11  2  0
 14 15  1  6
 14 13  1  0
 16 14  1  0
 17 16  1  6
 18 17  1  0
 19 20  1  0
 19 17  1  0
 21 19  2  0
M  END
$$$$
