LGL.pdb
     RDKit          3D

 21 20  0  0  1  0  0  0  0  0999 V2000
   17.7305  -28.5676  -11.3548 C   0  0  0  0  0  0  0  0  0  0  0  0
   18.8087  -27.8842  -12.1800 C   0  0  2  0  0  0  0  0  0  0  0  0
   18.3211  -27.7210  -13.6008 C   0  0  0  0  0  0  0  0  0  0  0  0
   20.1140  -28.6368  -12.1060 C   0  0  0  0  0  0  0  0  0  0  0  0
   20.4820  -28.8452  -10.6779 C   0  0  2  0  0  0  0  0  0  0  0  0
   21.0685  -27.6670  -10.0756 N   0  0  0  0  0  0  0  0  0  0  0  0
   21.4767  -29.9509  -10.5049 C   0  0  0  0  0  0  0  0  0  0  0  0
   21.3705  -31.0617  -11.0856 O   0  0  0  0  0  0  0  0  0  0  0  0
   22.6058  -29.7720   -9.6525 N   0  0  0  0  0  0  0  0  0  0  0  0
   23.6553  -30.7462   -9.5292 C   0  0  0  0  0  0  0  0  0  0  0  0
   23.4276  -31.5449   -8.2846 C   0  0  0  0  0  0  0  0  0  0  0  0
   22.4762  -31.2412   -7.5297 O   0  0  0  0  0  0  0  0  0  0  0  0
   23.1212  -36.8017   -8.3797 C   0  0  0  0  0  0  0  0  0  0  0  0
   22.8711  -35.3917   -7.9246 C   0  0  1  0  0  0  0  0  0  0  0  0
   21.4942  -35.2588   -7.2986 C   0  0  0  0  0  0  0  0  0  0  0  0
   23.9507  -34.8149   -7.1320 C   0  0  0  0  0  0  0  0  0  0  0  0
   23.9803  -33.4164   -6.6926 C   0  0  2  0  0  0  0  0  0  0  0  0
   24.2535  -32.6348   -7.9310 N   0  0  0  0  0  0  0  0  0  0  0  0
   24.8471  -32.9865   -5.6176 C   0  0  0  0  0  0  0  0  0  0  0  0
   24.5219  -33.4598   -4.3165 O   0  0  0  0  0  0  0  0  0  0  0  0
   25.8495  -32.2570   -5.6422 O   0  0  0  0  0  0  0  0  0  0  0  0
  2  1  1  1
  3  2  1  0
  4  2  1  0
  5  4  1  0
  5  6  1  6
  7  5  1  0
  7  8  2  0
  9  7  1  0
 10  9  1  0
 10 11  1  0
 11 18  1  0
 12 11  2  0
 14 15  1  1
 14 13  1  0
 16 14  1  0
 17 16  1  6
 18 17  1  0
 19 20  1  0
 19 17  1  0
 21 19  2  0
M  END
$$$$
