QAS.pdb
     RDKit          3D

 21 20  0  0  1  0  0  0  0  0999 V2000
   18.4006  -14.5285  -15.9696 N   0  0  0  0  0  0  0  0  0  0  0  0
   17.0302  -14.1002  -15.9644 C   0  0  0  0  0  0  0  0  0  0  0  0
   16.2015  -14.9811  -16.2802 O   0  0  0  0  0  0  0  0  0  0  0  0
   16.7272  -12.7258  -15.6017 C   0  0  0  0  0  0  0  0  0  0  0  0
   17.8665  -11.8803  -15.1693 C   0  0  0  0  0  0  0  0  0  0  0  0
   18.1072  -10.6319  -15.9456 C   0  0  2  0  0  0  0  0  0  0  0  0
   18.2501  -10.8993  -17.3293 N   0  0  0  0  0  0  0  0  0  0  0  0
   19.3219   -9.9745  -15.3771 C   0  0  0  0  0  0  0  0  0  0  0  0
   19.4672   -9.7184  -14.1638 O   0  0  0  0  0  0  0  0  0  0  0  0
   22.6781   -9.0213  -16.7778 C   0  0  0  0  0  0  0  0  0  0  0  0
   21.5182   -8.8934  -15.8150 C   0  0  2  0  0  0  0  0  0  0  0  0
   20.3615   -9.6273  -16.2767 N   0  0  0  0  0  0  0  0  0  0  0  0
   21.1336   -7.4857  -15.5968 C   0  0  0  0  0  0  0  0  0  0  0  0
   20.2489   -6.9745  -16.2977 O   0  0  0  0  0  0  0  0  0  0  0  0
   21.6814   -3.4628  -13.0609 O   0  0  0  0  0  0  0  0  0  0  0  0
   22.1750   -4.7801  -13.1730 C   0  0  0  0  0  0  0  0  0  0  0  0
   21.5360   -5.3588  -14.4217 C   0  0  2  0  0  0  0  0  0  0  0  0
   21.8123   -6.7628  -14.5674 N   0  0  0  0  0  0  0  0  0  0  0  0
   21.9660   -4.6295  -15.6343 C   0  0  0  0  0  0  0  0  0  0  0  0
   23.0248   -4.9783  -16.2103 O   0  0  0  0  0  0  0  0  0  0  0  0
   21.2532   -3.5703  -16.1729 O   0  0  0  0  0  0  0  0  0  0  0  0
  2  1  1  0
  3  2  2  0
  4  2  1  0
  5  6  1  0
  5  4  1  0
  6  7  1  6
  8  6  1  0
  9  8  2  0
 11 10  1  6
 11 13  1  0
 11 12  1  0
 12  8  1  0
 13 18  1  0
 14 13  2  0
 16 15  1  0
 17 16  1  1
 17 19  1  0
 18 17  1  0
 19 20  2  0
 19 21  1  0
M  END
$$$$
