QAS.pdb
     RDKit          3D

 21 20  0  0  1  0  0  0  0  0999 V2000
   18.7772  -13.8125  -16.0021 N   0  0  0  0  0  0  0  0  0  0  0  0
   17.8152  -13.0840  -16.7802 C   0  0  0  0  0  0  0  0  0  0  0  0
   17.4175  -13.6704  -17.8099 O   0  0  0  0  0  0  0  0  0  0  0  0
   17.3936  -11.7708  -16.3221 C   0  0  0  0  0  0  0  0  0  0  0  0
   17.9712  -11.2900  -15.0434 C   0  0  0  0  0  0  0  0  0  0  0  0
   17.4515   -9.9967  -14.5175 C   0  0  2  0  0  0  0  0  0  0  0  0
   16.1187   -9.7629  -14.9365 N   0  0  0  0  0  0  0  0  0  0  0  0
   18.3771   -8.9183  -14.9774 C   0  0  0  0  0  0  0  0  0  0  0  0
   19.6050   -8.9167  -14.7517 O   0  0  0  0  0  0  0  0  0  0  0  0
   17.9361   -5.9899  -17.3048 C   0  0  0  0  0  0  0  0  0  0  0  0
   18.6643   -6.8081  -16.2613 C   0  0  2  0  0  0  0  0  0  0  0  0
   17.8170   -7.8419  -15.7109 N   0  0  0  0  0  0  0  0  0  0  0  0
   19.1724   -5.9706  -15.1578 C   0  0  0  0  0  0  0  0  0  0  0  0
   18.4347   -5.7037  -14.1988 O   0  0  0  0  0  0  0  0  0  0  0  0
   22.3041   -6.4289  -13.3294 O   0  0  0  0  0  0  0  0  0  0  0  0
   22.4170   -5.0876  -13.7536 C   0  0  0  0  0  0  0  0  0  0  0  0
   21.0239   -4.6694  -14.1856 C   0  0  2  0  0  0  0  0  0  0  0  0
   20.5179   -5.4968  -15.2477 N   0  0  0  0  0  0  0  0  0  0  0  0
   20.9897   -3.2476  -14.5911 C   0  0  0  0  0  0  0  0  0  0  0  0
   21.2855   -2.3673  -13.7472 O   0  0  0  0  0  0  0  0  0  0  0  0
   20.6446   -2.8328  -15.8674 O   0  0  0  0  0  0  0  0  0  0  0  0
  2  1  1  0
  3  2  2  0
  4  2  1  0
  5  6  1  0
  5  4  1  0
  6  7  1  6
  8  6  1  0
  9  8  2  0
 11 10  1  6
 11 13  1  0
 11 12  1  0
 12  8  1  0
 13 18  1  0
 14 13  2  0
 16 15  1  0
 17 16  1  6
 17 19  1  0
 18 17  1  0
 19 20  2  0
 19 21  1  0
M  END
$$$$
