QAS.pdb
     RDKit          3D

 21 20  0  0  1  0  0  0  0  0999 V2000
   16.7933  -12.1146  -19.2988 N   0  0  0  0  0  0  0  0  0  0  0  0
   17.8968  -12.9078  -19.7620 C   0  0  0  0  0  0  0  0  0  0  0  0
   17.5803  -14.0034  -20.2736 O   0  0  0  0  0  0  0  0  0  0  0  0
   19.2457  -12.3893  -19.6074 C   0  0  0  0  0  0  0  0  0  0  0  0
   19.3952  -11.1291  -18.8396 C   0  0  0  0  0  0  0  0  0  0  0  0
   20.7703  -10.5655  -18.7377 C   0  0  2  0  0  0  0  0  0  0  0  0
   21.7564  -11.5758  -18.8536 N   0  0  0  0  0  0  0  0  0  0  0  0
   20.8654   -9.8413  -17.4348 C   0  0  0  0  0  0  0  0  0  0  0  0
   20.0481   -8.9738  -17.0633 O   0  0  0  0  0  0  0  0  0  0  0  0
   23.1575  -10.2153  -14.4541 C   0  0  0  0  0  0  0  0  0  0  0  0
   22.0527   -9.5757  -15.2660 C   0  0  2  0  0  0  0  0  0  0  0  0
   21.9496  -10.1672  -16.5810 N   0  0  0  0  0  0  0  0  0  0  0  0
   22.2458   -8.1202  -15.4119 C   0  0  0  0  0  0  0  0  0  0  0  0
   23.0167   -7.6863  -16.2796 O   0  0  0  0  0  0  0  0  0  0  0  0
   20.9454   -3.7612  -15.3201 O   0  0  0  0  0  0  0  0  0  0  0  0
   20.5819   -5.1241  -15.2754 C   0  0  0  0  0  0  0  0  0  0  0  0
   21.7448   -5.8433  -14.6174 C   0  0  2  0  0  0  0  0  0  0  0  0
   21.5209   -7.2613  -14.5288 N   0  0  0  0  0  0  0  0  0  0  0  0
   22.0301   -5.2908  -13.2756 C   0  0  0  0  0  0  0  0  0  0  0  0
   22.4782   -4.1225  -13.1817 O   0  0  0  0  0  0  0  0  0  0  0  0
   21.8263   -6.0034  -12.1048 O   0  0  0  0  0  0  0  0  0  0  0  0
  2  1  1  0
  3  2  2  0
  4  2  1  0
  5  6  1  0
  5  4  1  0
  6  7  1  1
  8  6  1  0
  9  8  2  0
 11 10  1  6
 11 13  1  0
 11 12  1  0
 12  8  1  0
 13 18  1  0
 14 13  2  0
 16 15  1  0
 17 16  1  1
 17 19  1  0
 18 17  1  0
 19 20  2  0
 19 21  1  0
M  END
$$$$
