QAS.pdb
     RDKit          3D

 21 20  0  0  1  0  0  0  0  0999 V2000
   16.1807  -12.4054  -19.1887 N   0  0  0  0  0  0  0  0  0  0  0  0
   17.0162  -11.6689  -20.0947 C   0  0  0  0  0  0  0  0  0  0  0  0
   16.7770  -11.8609  -21.3065 O   0  0  0  0  0  0  0  0  0  0  0  0
   18.0349  -10.7876  -19.5491 C   0  0  0  0  0  0  0  0  0  0  0  0
   18.1329  -10.7113  -18.0711 C   0  0  0  0  0  0  0  0  0  0  0  0
   19.2071  -11.5186  -17.4280 C   0  0  2  0  0  0  0  0  0  0  0  0
   18.7038  -12.7395  -16.9154 N   0  0  0  0  0  0  0  0  0  0  0  0
   19.8242  -10.6780  -16.3587 C   0  0  0  0  0  0  0  0  0  0  0  0
   19.1656  -10.0632  -15.4944 O   0  0  0  0  0  0  0  0  0  0  0  0
   23.3599  -10.2587  -15.1596 C   0  0  0  0  0  0  0  0  0  0  0  0
   21.9077   -9.8524  -15.2810 C   0  0  2  0  0  0  0  0  0  0  0  0
   21.2387  -10.5814  -16.3348 N   0  0  0  0  0  0  0  0  0  0  0  0
   21.7575   -8.4062  -15.5323 C   0  0  0  0  0  0  0  0  0  0  0  0
   21.6894   -7.9885  -16.6969 O   0  0  0  0  0  0  0  0  0  0  0  0
   20.1218   -4.2858  -14.7862 O   0  0  0  0  0  0  0  0  0  0  0  0
   20.1047   -5.6905  -14.6511 C   0  0  0  0  0  0  0  0  0  0  0  0
   21.5587   -6.1238  -14.6281 C   0  0  2  0  0  0  0  0  0  0  0  0
   21.6963   -7.5371  -14.3993 N   0  0  0  0  0  0  0  0  0  0  0  0
   22.3297   -5.3695  -13.6164 C   0  0  0  0  0  0  0  0  0  0  0  0
   22.5641   -5.9057  -12.5064 O   0  0  0  0  0  0  0  0  0  0  0  0
   22.8114   -4.0883  -13.8326 O   0  0  0  0  0  0  0  0  0  0  0  0
  2  1  1  0
  3  2  2  0
  4  2  1  0
  5  6  1  0
  5  4  1  0
  6  7  1  1
  8  6  1  0
  9  8  2  0
 11 10  1  6
 11 13  1  0
 11 12  1  0
 12  8  1  0
 13 18  1  0
 14 13  2  0
 16 15  1  0
 17 16  1  1
 17 19  1  0
 18 17  1  0
 19 20  2  0
 19 21  1  0
M  END
$$$$
