QAS.pdb
     RDKit          3D

 21 20  0  0  1  0  0  0  0  0999 V2000
   13.8806  -11.1662  -15.7167 N   0  0  0  0  0  0  0  0  0  0  0  0
   14.7097  -11.6388  -16.7895 C   0  0  0  0  0  0  0  0  0  0  0  0
   14.0970  -12.2134  -17.7151 O   0  0  0  0  0  0  0  0  0  0  0  0
   16.1439  -11.4157  -16.7168 C   0  0  0  0  0  0  0  0  0  0  0  0
   16.6516  -10.7055  -15.5178 C   0  0  0  0  0  0  0  0  0  0  0  0
   18.1211  -10.4707  -15.4500 C   0  0  2  0  0  0  0  0  0  0  0  0
   18.8402  -11.6895  -15.3875 N   0  0  0  0  0  0  0  0  0  0  0  0
   18.3853   -9.6066  -14.2607 C   0  0  0  0  0  0  0  0  0  0  0  0
   18.2892  -10.0037  -13.0809 O   0  0  0  0  0  0  0  0  0  0  0  0
   19.7555   -6.1217  -13.8455 C   0  0  0  0  0  0  0  0  0  0  0  0
   19.0165   -7.3624  -13.3949 C   0  0  2  0  0  0  0  0  0  0  0  0
   18.7664   -8.2617  -14.4987 N   0  0  0  0  0  0  0  0  0  0  0  0
   17.7322   -7.0358  -12.7460 C   0  0  0  0  0  0  0  0  0  0  0  0
   16.6896   -7.0281  -13.4156 O   0  0  0  0  0  0  0  0  0  0  0  0
   16.8925   -7.7491   -8.9081 O   0  0  0  0  0  0  0  0  0  0  0  0
   16.6025   -6.4012   -9.2090 C   0  0  0  0  0  0  0  0  0  0  0  0
   16.5243   -6.3203  -10.7223 C   0  0  2  0  0  0  0  0  0  0  0  0
   17.7502   -6.7375  -11.3483 N   0  0  0  0  0  0  0  0  0  0  0  0
   16.1644   -4.9579  -11.1711 C   0  0  0  0  0  0  0  0  0  0  0  0
   15.0840   -4.4542  -10.7793 O   0  0  0  0  0  0  0  0  0  0  0  0
   16.9665   -4.2011  -12.0101 O   0  0  0  0  0  0  0  0  0  0  0  0
  2  1  1  0
  3  2  2  0
  4  2  1  0
  5  6  1  0
  5  4  1  0
  6  7  1  1
  8  6  1  0
  9  8  2  0
 11 10  1  6
 11 13  1  0
 11 12  1  0
 12  8  1  0
 13 18  1  0
 14 13  2  0
 16 15  1  0
 17 16  1  1
 17 19  1  0
 18 17  1  0
 19 20  2  0
 19 21  1  0
M  END
$$$$
