QAS.pdb
     RDKit          3D

 21 20  0  0  1  0  0  0  0  0999 V2000
   15.2851   -5.8048   -8.1411 N   0  0  0  0  0  0  0  0  0  0  0  0
   14.1412   -6.6277   -8.4164 C   0  0  0  0  0  0  0  0  0  0  0  0
   13.1081   -6.3235   -7.7820 O   0  0  0  0  0  0  0  0  0  0  0  0
   14.2711   -7.7083   -9.3796 C   0  0  0  0  0  0  0  0  0  0  0  0
   15.5976   -7.8780  -10.0211 C   0  0  0  0  0  0  0  0  0  0  0  0
   15.7194   -8.9662  -11.0311 C   0  0  2  0  0  0  0  0  0  0  0  0
   15.5891  -10.2450  -10.4361 N   0  0  0  0  0  0  0  0  0  0  0  0
   17.0373   -8.8017  -11.7146 C   0  0  0  0  0  0  0  0  0  0  0  0
   18.1325   -8.7976  -11.1153 O   0  0  0  0  0  0  0  0  0  0  0  0
   18.1213   -8.9158  -15.2959 C   0  0  0  0  0  0  0  0  0  0  0  0
   18.2691   -8.4891  -13.8521 C   0  0  2  0  0  0  0  0  0  0  0  0
   17.0300   -8.6426  -13.1235 N   0  0  0  0  0  0  0  0  0  0  0  0
   18.7219   -7.0898  -13.7328 C   0  0  0  0  0  0  0  0  0  0  0  0
   17.8918   -6.1889  -13.5469 O   0  0  0  0  0  0  0  0  0  0  0  0
   22.6605   -6.2173  -12.9859 O   0  0  0  0  0  0  0  0  0  0  0  0
   21.6368   -5.2977  -12.6729 C   0  0  0  0  0  0  0  0  0  0  0  0
   20.5788   -5.4718  -13.7466 C   0  0  2  0  0  0  0  0  0  0  0  0
   20.1239   -6.8331  -13.8393 N   0  0  0  0  0  0  0  0  0  0  0  0
   21.0672   -5.0102  -15.0639 C   0  0  0  0  0  0  0  0  0  0  0  0
   21.2157   -5.8488  -15.9854 O   0  0  0  0  0  0  0  0  0  0  0  0
   21.3725   -3.6863  -15.3363 O   0  0  0  0  0  0  0  0  0  0  0  0
  2  1  1  0
  3  2  2  0
  4  2  1  0
  5  6  1  0
  5  4  1  0
  6  7  1  1
  8  6  1  0
  9  8  2  0
 11 10  1  6
 11 13  1  0
 11 12  1  0
 12  8  1  0
 13 18  1  0
 14 13  2  0
 16 15  1  0
 17 16  1  1
 17 19  1  0
 18 17  1  0
 19 20  2  0
 19 21  1  0
M  END
$$$$
