QAS.pdb
     RDKit          3D

 21 20  0  0  1  0  0  0  0  0999 V2000
   21.0307  -14.7109  -17.5725 N   0  0  0  0  0  0  0  0  0  0  0  0
   19.5954  -14.6794  -17.5473 C   0  0  0  0  0  0  0  0  0  0  0  0
   19.0399  -15.7702  -17.7999 O   0  0  0  0  0  0  0  0  0  0  0  0
   18.9275  -13.4264  -17.2374 C   0  0  0  0  0  0  0  0  0  0  0  0
   19.7949  -12.2577  -16.9516 C   0  0  0  0  0  0  0  0  0  0  0  0
   19.1081  -10.9662  -16.6698 C   0  0  2  0  0  0  0  0  0  0  0  0
   18.0063  -10.7632  -17.5367 N   0  0  0  0  0  0  0  0  0  0  0  0
   20.1238   -9.8783  -16.7961 C   0  0  0  0  0  0  0  0  0  0  0  0
   21.1971   -9.8555  -16.1587 O   0  0  0  0  0  0  0  0  0  0  0  0
   20.3704   -6.7809  -18.9409 C   0  0  0  0  0  0  0  0  0  0  0  0
   20.6967   -7.6542  -17.7495 C   0  0  2  0  0  0  0  0  0  0  0  0
   19.8410   -8.8180  -17.6940 N   0  0  0  0  0  0  0  0  0  0  0  0
   20.5822   -6.9174  -16.4763 C   0  0  0  0  0  0  0  0  0  0  0  0
   19.4985   -6.8919  -15.8760 O   0  0  0  0  0  0  0  0  0  0  0  0
   21.9268   -5.4727  -12.4396 O   0  0  0  0  0  0  0  0  0  0  0  0
   22.0521   -6.3300  -13.5536 C   0  0  0  0  0  0  0  0  0  0  0  0
   21.6453   -5.5055  -14.7607 C   0  0  2  0  0  0  0  0  0  0  0  0
   21.7489   -6.2542  -15.9845 N   0  0  0  0  0  0  0  0  0  0  0  0
   22.4419   -4.2634  -14.8579 C   0  0  0  0  0  0  0  0  0  0  0  0
   23.3865   -4.2096  -15.6822 O   0  0  0  0  0  0  0  0  0  0  0  0
   22.1970   -3.1444  -14.0781 O   0  0  0  0  0  0  0  0  0  0  0  0
  2  1  1  0
  3  2  2  0
  4  2  1  0
  5  6  1  0
  5  4  1  0
  6  7  1  6
  8  6  1  0
  9  8  2  0
 11 10  1  6
 11 13  1  0
 11 12  1  0
 12  8  1  0
 13 18  1  0
 14 13  2  0
 16 15  1  0
 17 16  1  1
 17 19  1  0
 18 17  1  0
 19 20  2  0
 19 21  1  0
M  END
$$$$
