QAS.pdb
     RDKit          3D

 21 20  0  0  1  0  0  0  0  0999 V2000
   17.8838  -16.1513  -15.4130 N   0  0  0  0  0  0  0  0  0  0  0  0
   17.0265  -16.0310  -16.5584 C   0  0  0  0  0  0  0  0  0  0  0  0
   16.1902  -16.9507  -16.6897 O   0  0  0  0  0  0  0  0  0  0  0  0
   17.1920  -14.8876  -17.4402 C   0  0  0  0  0  0  0  0  0  0  0  0
   18.2274  -13.8949  -17.0629 C   0  0  0  0  0  0  0  0  0  0  0  0
   19.5617  -14.0396  -17.7092 C   0  0  2  0  0  0  0  0  0  0  0  0
   20.1867  -15.2575  -17.3448 N   0  0  0  0  0  0  0  0  0  0  0  0
   20.3825  -12.8541  -17.3195 C   0  0  0  0  0  0  0  0  0  0  0  0
   20.9456  -12.7355  -16.2115 O   0  0  0  0  0  0  0  0  0  0  0  0
   21.7100   -9.9316  -19.2900 C   0  0  0  0  0  0  0  0  0  0  0  0
   21.4213  -10.7072  -18.0236 C   0  0  2  0  0  0  0  0  0  0  0  0
   20.5223  -11.8119  -18.2707 N   0  0  0  0  0  0  0  0  0  0  0  0
   20.8448   -9.8502  -16.9698 C   0  0  0  0  0  0  0  0  0  0  0  0
   19.6191   -9.8395  -16.7883 O   0  0  0  0  0  0  0  0  0  0  0  0
   21.5213   -6.8341  -13.3252 O   0  0  0  0  0  0  0  0  0  0  0  0
   22.2026   -7.7126  -14.1946 C   0  0  0  0  0  0  0  0  0  0  0  0
   21.1905   -8.1234  -15.2478 C   0  0  2  0  0  0  0  0  0  0  0  0
   21.7439   -9.0566  -16.1922 N   0  0  0  0  0  0  0  0  0  0  0  0
   20.6451   -6.9468  -15.9587 C   0  0  0  0  0  0  0  0  0  0  0  0
   21.2343   -6.5294  -16.9849 O   0  0  0  0  0  0  0  0  0  0  0  0
   19.5057   -6.2747  -15.5462 O   0  0  0  0  0  0  0  0  0  0  0  0
  2  1  1  0
  3  2  2  0
  4  2  1  0
  5  6  1  0
  5  4  1  0
  6  7  1  1
  8  6  1  0
  9  8  2  0
 11 10  1  6
 11 13  1  0
 11 12  1  0
 12  8  1  0
 13 18  1  0
 14 13  2  0
 16 15  1  0
 17 16  1  1
 17 19  1  0
 18 17  1  0
 19 20  2  0
 19 21  1  0
M  END
$$$$
