QAS.pdb
     RDKit          3D

 21 20  0  0  1  0  0  0  0  0999 V2000
   14.5489  -10.6168  -15.8025 N   0  0  0  0  0  0  0  0  0  0  0  0
   14.7984  -10.3765  -17.1959 C   0  0  0  0  0  0  0  0  0  0  0  0
   13.7823  -10.3918  -17.9236 O   0  0  0  0  0  0  0  0  0  0  0  0
   16.1644  -10.1396  -17.6322 C   0  0  0  0  0  0  0  0  0  0  0  0
   17.2211  -10.2105  -16.5939 C   0  0  0  0  0  0  0  0  0  0  0  0
   18.4795  -10.9161  -16.9653 C   0  0  2  0  0  0  0  0  0  0  0  0
   18.4890  -12.2492  -16.4866 N   0  0  0  0  0  0  0  0  0  0  0  0
   19.6202  -10.1206  -16.4204 C   0  0  0  0  0  0  0  0  0  0  0  0
   19.9475  -10.1146  -15.2156 O   0  0  0  0  0  0  0  0  0  0  0  0
   22.3366   -8.0517  -18.0115 C   0  0  0  0  0  0  0  0  0  0  0  0
   21.4516   -8.4992  -16.8690 C   0  0  2  0  0  0  0  0  0  0  0  0
   20.3656   -9.3325  -17.3336 N   0  0  0  0  0  0  0  0  0  0  0  0
   20.8901   -7.3558  -16.1243 C   0  0  0  0  0  0  0  0  0  0  0  0
   19.8851   -6.7744  -16.5568 O   0  0  0  0  0  0  0  0  0  0  0  0
   21.5291   -6.8263  -12.1441 O   0  0  0  0  0  0  0  0  0  0  0  0
   20.4680   -6.2141  -12.8447 C   0  0  0  0  0  0  0  0  0  0  0  0
   21.0325   -5.8266  -14.1988 C   0  0  2  0  0  0  0  0  0  0  0  0
   21.5439   -6.9642  -14.9151 N   0  0  0  0  0  0  0  0  0  0  0  0
   22.0845   -4.7953  -14.0687 C   0  0  0  0  0  0  0  0  0  0  0  0
   23.2471   -5.0599  -14.4595 O   0  0  0  0  0  0  0  0  0  0  0  0
   21.8505   -3.5392  -13.5323 O   0  0  0  0  0  0  0  0  0  0  0  0
  2  1  1  0
  3  2  2  0
  4  2  1  0
  5  6  1  0
  5  4  1  0
  6  7  1  1
  8  6  1  0
  9  8  2  0
 11 10  1  6
 11 13  1  0
 11 12  1  0
 12  8  1  0
 13 18  1  0
 14 13  2  0
 16 15  1  0
 17 16  1  1
 17 19  1  0
 18 17  1  0
 19 20  2  0
 19 21  1  0
M  END
$$$$
