QAS.pdb
     RDKit          3D

 21 20  0  0  1  0  0  0  0  0999 V2000
   19.1801  -14.0181  -15.6488 N   0  0  0  0  0  0  0  0  0  0  0  0
   17.7877  -14.0965  -15.9903 C   0  0  0  0  0  0  0  0  0  0  0  0
   17.2900  -15.2406  -15.9141 O   0  0  0  0  0  0  0  0  0  0  0  0
   17.0926  -12.8812  -16.3801 C   0  0  0  0  0  0  0  0  0  0  0  0
   17.8968  -11.6359  -16.4297 C   0  0  0  0  0  0  0  0  0  0  0  0
   18.0143  -10.8630  -15.1617 C   0  0  2  0  0  0  0  0  0  0  0  0
   16.7841  -10.8239  -14.4605 N   0  0  0  0  0  0  0  0  0  0  0  0
   18.4998   -9.4943  -15.5111 C   0  0  0  0  0  0  0  0  0  0  0  0
   19.5154   -9.2755  -16.2035 O   0  0  0  0  0  0  0  0  0  0  0  0
   17.0572   -6.0464  -14.9687 C   0  0  0  0  0  0  0  0  0  0  0  0
   18.1148   -7.0403  -15.3956 C   0  0  2  0  0  0  0  0  0  0  0  0
   17.7560   -8.3902  -15.0231 N   0  0  0  0  0  0  0  0  0  0  0  0
   19.4360   -6.7225  -14.8207 C   0  0  0  0  0  0  0  0  0  0  0  0
   19.7214   -7.1163  -13.6810 O   0  0  0  0  0  0  0  0  0  0  0  0
   23.8730   -5.1009  -15.5465 O   0  0  0  0  0  0  0  0  0  0  0  0
   22.6631   -5.4214  -16.1985 C   0  0  0  0  0  0  0  0  0  0  0  0
   21.6555   -5.6908  -15.0964 C   0  0  2  0  0  0  0  0  0  0  0  0
   20.3433   -5.9604  -15.6201 N   0  0  0  0  0  0  0  0  0  0  0  0
   21.5963   -4.5689  -14.1347 C   0  0  0  0  0  0  0  0  0  0  0  0
   22.3590   -4.5811  -13.1384 O   0  0  0  0  0  0  0  0  0  0  0  0
   20.7336   -3.4941  -14.2780 O   0  0  0  0  0  0  0  0  0  0  0  0
  2  1  1  0
  3  2  2  0
  4  2  1  0
  5  6  1  0
  5  4  1  0
  6  7  1  6
  8  6  1  0
  9  8  2  0
 11 10  1  1
 11 13  1  0
 11 12  1  0
 12  8  1  0
 13 18  1  0
 14 13  2  0
 16 15  1  0
 17 16  1  6
 17 19  1  0
 18 17  1  0
 19 20  2  0
 19 21  1  0
M  END
$$$$
