QAS.pdb
     RDKit          3D

 21 20  0  0  1  0  0  0  0  0999 V2000
   24.8570  -20.6371   -8.6014 N   0  0  0  0  0  0  0  0  0  0  0  0
   26.2124  -20.7360   -9.0646 C   0  0  0  0  0  0  0  0  0  0  0  0
   27.0451  -21.0626   -8.1915 O   0  0  0  0  0  0  0  0  0  0  0  0
   26.4966  -20.4614  -10.4631 C   0  0  0  0  0  0  0  0  0  0  0  0
   25.3571  -20.0214  -11.3044 C   0  0  0  0  0  0  0  0  0  0  0  0
   24.9907  -20.9006  -12.4498 C   0  0  2  0  0  0  0  0  0  0  0  0
   26.1307  -21.5289  -13.0085 N   0  0  0  0  0  0  0  0  0  0  0  0
   24.2713  -20.0590  -13.4523 C   0  0  0  0  0  0  0  0  0  0  0  0
   23.4070  -19.2098  -13.1511 O   0  0  0  0  0  0  0  0  0  0  0  0
   24.6771  -19.4812  -17.1425 C   0  0  0  0  0  0  0  0  0  0  0  0
   23.8931  -19.5142  -15.8490 C   0  0  2  0  0  0  0  0  0  0  0  0
   24.5979  -20.2445  -14.8196 N   0  0  0  0  0  0  0  0  0  0  0  0
   22.5565  -20.1130  -16.0280 C   0  0  0  0  0  0  0  0  0  0  0  0
   22.3887  -21.3202  -15.8044 O   0  0  0  0  0  0  0  0  0  0  0  0
   19.2309  -18.2411  -15.1974 O   0  0  0  0  0  0  0  0  0  0  0  0
   19.0926  -18.7800  -16.4944 C   0  0  0  0  0  0  0  0  0  0  0  0
   20.1857  -19.8237  -16.6298 C   0  0  2  0  0  0  0  0  0  0  0  0
   21.4965  -19.2567  -16.4591 N   0  0  0  0  0  0  0  0  0  0  0  0
   20.1026  -20.5253  -17.9290 C   0  0  0  0  0  0  0  0  0  0  0  0
   20.7922  -20.1079  -18.8907 O   0  0  0  0  0  0  0  0  0  0  0  0
   19.2947  -21.6308  -18.1417 O   0  0  0  0  0  0  0  0  0  0  0  0
  2  1  1  0
  3  2  2  0
  4  2  1  0
  5  6  1  0
  5  4  1  0
  6  7  1  6
  8  6  1  0
  9  8  2  0
 11 10  1  6
 11 13  1  0
 11 12  1  0
 12  8  1  0
 13 18  1  0
 14 13  2  0
 16 15  1  0
 17 16  1  6
 17 19  1  0
 18 17  1  0
 19 20  2  0
 19 21  1  0
M  END
$$$$
