PSG.pdb
     RDKit          3D

 18 18  0  0  1  0  0  0  0  0999 V2000
    9.3685  -14.4129   18.0448 N   0  0  0  0  0  0  0  0  0  0  0  0
    8.5831  -14.3717   16.8091 C   0  0  0  0  0  0  0  0  0  0  0  0
    7.2446  -13.7953   17.1895 C   0  0  0  0  0  0  0  0  0  0  0  0
    7.4452  -13.2929   18.6131 C   0  0  0  0  0  0  0  0  0  0  0  0
    8.9412  -13.1755   18.7133 C   0  0  1  0  0  0  0  0  0  0  0  0
    9.4233  -13.2146   20.1093 C   0  0  0  0  0  0  0  0  0  0  0  0
    9.8428  -12.2209   20.7447 O   0  0  0  0  0  0  0  0  0  0  0  0
    8.1417  -15.6979   23.2893 O   0  0  0  0  0  0  0  0  0  0  0  0
    8.9222  -14.5519   23.2398 C   0  0  0  0  0  0  0  0  0  0  0  0
    9.9436  -14.5839   22.1465 C   0  0  2  0  0  0  0  0  0  0  0  0
    9.4337  -14.4363   20.8274 N   0  0  0  0  0  0  0  0  0  0  0  0
   10.7850  -15.7853   22.2788 C   0  0  0  0  0  0  0  0  0  0  0  0
   10.4515  -16.8289   21.6209 O   0  0  0  0  0  0  0  0  0  0  0  0
   11.9345  -15.8547   23.0858 N   0  0  0  0  0  0  0  0  0  0  0  0
   12.8111  -17.0063   23.0671 C   0  0  0  0  0  0  0  0  0  0  0  0
   13.9863  -16.7470   23.9035 C   0  0  0  0  0  0  0  0  0  0  0  0
   14.1557  -15.6339   24.4334 O   0  0  0  0  0  0  0  0  0  0  0  0
   14.9446  -17.7249   24.1329 O   0  0  0  0  0  0  0  0  0  0  0  0
  1  5  1  0
  2  1  1  0
  2  3  1  0
  3  4  1  0
  5  4  1  0
  5  6  1  1
  6  7  2  0
  8  9  1  0
 10  9  1  1
 11 10  1  0
 11  6  1  0
 12 10  1  0
 12 14  1  0
 13 12  2  0
 15 14  1  0
 15 16  1  0
 16 18  1  0
 17 16  2  0
M  END
$$$$
