PSG.pdb
     RDKit          3D

 18 18  0  0  1  0  0  0  0  0999 V2000
    7.3743  -15.0064   19.4170 N   0  0  0  0  0  0  0  0  0  0  0  0
    6.6426  -14.6863   18.1891 C   0  0  0  0  0  0  0  0  0  0  0  0
    6.9118  -13.2298   17.9157 C   0  0  0  0  0  0  0  0  0  0  0  0
    8.0191  -12.8643   18.8953 C   0  0  0  0  0  0  0  0  0  0  0  0
    8.5963  -14.2056   19.2554 C   0  0  1  0  0  0  0  0  0  0  0  0
    9.3119  -14.1892   20.5480 C   0  0  0  0  0  0  0  0  0  0  0  0
   10.4050  -13.6126   20.7481 O   0  0  0  0  0  0  0  0  0  0  0  0
    7.5737  -15.8075   24.2190 O   0  0  0  0  0  0  0  0  0  0  0  0
    8.5489  -14.8244   24.1325 C   0  0  0  0  0  0  0  0  0  0  0  0
    9.4262  -14.9719   22.9291 C   0  0  2  0  0  0  0  0  0  0  0  0
    8.7685  -14.8566   21.6738 N   0  0  0  0  0  0  0  0  0  0  0  0
   10.2094  -16.2153   23.0266 C   0  0  0  0  0  0  0  0  0  0  0  0
    9.7851  -17.2445   22.3988 O   0  0  0  0  0  0  0  0  0  0  0  0
   11.3970  -16.3399   23.7691 N   0  0  0  0  0  0  0  0  0  0  0  0
   12.1884  -17.5515   23.7443 C   0  0  0  0  0  0  0  0  0  0  0  0
   13.3765  -17.3835   24.5859 C   0  0  0  0  0  0  0  0  0  0  0  0
   14.1578  -16.4330   24.3995 O   0  0  0  0  0  0  0  0  0  0  0  0
   13.6708  -18.2706   25.6124 O   0  0  0  0  0  0  0  0  0  0  0  0
  1  5  1  0
  2  1  1  0
  2  3  1  0
  3  4  1  0
  5  4  1  0
  5  6  1  1
  6  7  2  0
  8  9  1  0
 10  9  1  1
 11 10  1  0
 11  6  1  0
 12 10  1  0
 12 14  1  0
 13 12  2  0
 15 14  1  0
 15 16  1  0
 16 18  1  0
 17 16  2  0
M  END
$$$$
