PSG.pdb
     RDKit          3D

 18 18  0  0  1  0  0  0  0  0999 V2000
    7.5692  -14.8327   19.9214 N   0  0  0  0  0  0  0  0  0  0  0  0
    6.6807  -14.3920   18.8436 C   0  0  0  0  0  0  0  0  0  0  0  0
    7.1721  -13.0282   18.4347 C   0  0  0  0  0  0  0  0  0  0  0  0
    8.5060  -12.8807   19.1544 C   0  0  0  0  0  0  0  0  0  0  0  0
    8.8666  -14.3050   19.4753 C   0  0  1  0  0  0  0  0  0  0  0  0
    9.8197  -14.4119   20.5992 C   0  0  0  0  0  0  0  0  0  0  0  0
   11.0238  -14.0734   20.5449 O   0  0  0  0  0  0  0  0  0  0  0  0
    8.6577  -16.1694   24.4174 O   0  0  0  0  0  0  0  0  0  0  0  0
    9.5043  -15.0754   24.3113 C   0  0  0  0  0  0  0  0  0  0  0  0
   10.2246  -15.0152   23.0008 C   0  0  2  0  0  0  0  0  0  0  0  0
    9.3951  -14.9265   21.8494 N   0  0  0  0  0  0  0  0  0  0  0  0
   11.1838  -16.1284   22.9022 C   0  0  0  0  0  0  0  0  0  0  0  0
   10.7888  -17.2170   22.3617 O   0  0  0  0  0  0  0  0  0  0  0  0
   12.5095  -16.0670   23.3670 N   0  0  0  0  0  0  0  0  0  0  0  0
   13.4091  -17.1956   23.2576 C   0  0  0  0  0  0  0  0  0  0  0  0
   14.7260  -16.8315   23.7880 C   0  0  0  0  0  0  0  0  0  0  0  0
   14.9392  -15.6875   24.2288 O   0  0  0  0  0  0  0  0  0  0  0  0
   15.7739  -17.7416   23.8177 O   0  0  0  0  0  0  0  0  0  0  0  0
  1  5  1  0
  2  1  1  0
  2  3  1  0
  3  4  1  0
  5  4  1  0
  5  6  1  1
  6  7  2  0
  8  9  1  0
 10  9  1  1
 11 10  1  0
 11  6  1  0
 12 10  1  0
 12 14  1  0
 13 12  2  0
 15 14  1  0
 15 16  1  0
 16 18  1  0
 17 16  2  0
M  END
$$$$
