PSG.pdb
     RDKit          3D

 18 18  0  0  1  0  0  0  0  0999 V2000
    7.1280  -14.9472   20.2913 N   0  0  0  0  0  0  0  0  0  0  0  0
    6.5342  -14.5950   18.9995 C   0  0  0  0  0  0  0  0  0  0  0  0
    7.1773  -13.2962   18.5896 C   0  0  0  0  0  0  0  0  0  0  0  0
    8.3171  -13.1140   19.5830 C   0  0  0  0  0  0  0  0  0  0  0  0
    8.5190  -14.5073   20.1119 C   0  0  1  0  0  0  0  0  0  0  0  0
    9.1827  -14.5247   21.4318 C   0  0  0  0  0  0  0  0  0  0  0  0
   10.4183  -14.4258   21.6077 O   0  0  0  0  0  0  0  0  0  0  0  0
    6.9495  -14.3434   25.1807 O   0  0  0  0  0  0  0  0  0  0  0  0
    8.2507  -13.9142   24.9629 C   0  0  0  0  0  0  0  0  0  0  0  0
    8.9681  -14.7181   23.9242 C   0  0  2  0  0  0  0  0  0  0  0  0
    8.4154  -14.6606   22.6154 N   0  0  0  0  0  0  0  0  0  0  0  0
    9.1361  -16.1054   24.3890 C   0  0  0  0  0  0  0  0  0  0  0  0
    8.1305  -16.8908   24.3150 O   0  0  0  0  0  0  0  0  0  0  0  0
   10.3366  -16.6199   24.9100 N   0  0  0  0  0  0  0  0  0  0  0  0
   10.4597  -18.0026   25.3198 C   0  0  0  0  0  0  0  0  0  0  0  0
   11.8231  -18.2587   25.7927 C   0  0  0  0  0  0  0  0  0  0  0  0
   12.6896  -17.3668   25.7464 O   0  0  0  0  0  0  0  0  0  0  0  0
   12.1939  -19.4946   26.3048 O   0  0  0  0  0  0  0  0  0  0  0  0
  1  5  1  0
  2  1  1  0
  2  3  1  0
  3  4  1  0
  5  4  1  0
  5  6  1  1
  6  7  2  0
  8  9  1  0
 10  9  1  1
 11 10  1  0
 11  6  1  0
 12 10  1  0
 12 14  1  0
 13 12  2  0
 15 14  1  0
 15 16  1  0
 16 18  1  0
 17 16  2  0
M  END
$$$$
