PSG.pdb
     RDKit          3D

 18 18  0  0  1  0  0  0  0  0999 V2000
    7.4063  -15.0184   20.2976 N   0  0  0  0  0  0  0  0  0  0  0  0
    6.6061  -14.5427   19.1668 C   0  0  0  0  0  0  0  0  0  0  0  0
    7.0981  -13.1506   18.8692 C   0  0  0  0  0  0  0  0  0  0  0  0
    8.3592  -13.0122   19.7117 C   0  0  0  0  0  0  0  0  0  0  0  0
    8.7248  -14.4431   19.9952 C   0  0  1  0  0  0  0  0  0  0  0  0
    9.5770  -14.5865   21.1936 C   0  0  0  0  0  0  0  0  0  0  0  0
   10.7969  -14.3081   21.2359 O   0  0  0  0  0  0  0  0  0  0  0  0
    8.1131  -16.5044   24.8125 O   0  0  0  0  0  0  0  0  0  0  0  0
    8.9515  -15.3997   24.8528 C   0  0  0  0  0  0  0  0  0  0  0  0
    9.7682  -15.2368   23.6094 C   0  0  2  0  0  0  0  0  0  0  0  0
    9.0273  -15.0683   22.4076 N   0  0  0  0  0  0  0  0  0  0  0  0
   10.7463  -16.3326   23.5025 C   0  0  0  0  0  0  0  0  0  0  0  0
   10.3106  -17.5044   23.2375 O   0  0  0  0  0  0  0  0  0  0  0  0
   12.1323  -16.1685   23.6744 N   0  0  0  0  0  0  0  0  0  0  0  0
   13.0486  -17.2859   23.5926 C   0  0  0  0  0  0  0  0  0  0  0  0
   14.4240  -16.8116   23.7690 C   0  0  0  0  0  0  0  0  0  0  0  0
   14.6637  -15.5997   23.9192 O   0  0  0  0  0  0  0  0  0  0  0  0
   15.4998  -17.6891   23.7749 O   0  0  0  0  0  0  0  0  0  0  0  0
  1  5  1  0
  2  1  1  0
  2  3  1  0
  3  4  1  0
  5  4  1  0
  5  6  1  1
  6  7  2  0
  8  9  1  0
 10  9  1  1
 11 10  1  0
 11  6  1  0
 12 10  1  0
 12 14  1  0
 13 12  2  0
 15 14  1  0
 15 16  1  0
 16 18  1  0
 17 16  2  0
M  END
$$$$
