PSG.pdb
     RDKit          3D

 18 18  0  0  1  0  0  0  0  0999 V2000
    8.3306  -15.1607   18.3481 N   0  0  0  0  0  0  0  0  0  0  0  0
    8.1216  -14.9302   16.9168 C   0  0  0  0  0  0  0  0  0  0  0  0
    8.1627  -13.4364   16.7287 C   0  0  0  0  0  0  0  0  0  0  0  0
    8.6608  -12.9051   18.0663 C   0  0  0  0  0  0  0  0  0  0  0  0
    9.3089  -14.1152   18.6807 C   0  0  1  0  0  0  0  0  0  0  0  0
    9.4052  -14.0242   20.1522 C   0  0  0  0  0  0  0  0  0  0  0  0
   10.2916  -13.3906   20.7688 O   0  0  0  0  0  0  0  0  0  0  0  0
    6.3880  -15.8605   22.6316 O   0  0  0  0  0  0  0  0  0  0  0  0
    7.0266  -14.6810   22.9865 C   0  0  0  0  0  0  0  0  0  0  0  0
    8.3913  -14.5487   22.3866 C   0  0  2  0  0  0  0  0  0  0  0  0
    8.4541  -14.6808   20.9723 N   0  0  0  0  0  0  0  0  0  0  0  0
    9.3297  -15.4583   23.0654 C   0  0  0  0  0  0  0  0  0  0  0  0
    9.4320  -15.3783   24.3368 O   0  0  0  0  0  0  0  0  0  0  0  0
   10.1215  -16.4108   22.3996 N   0  0  0  0  0  0  0  0  0  0  0  0
   10.9604  -17.3438   23.1211 C   0  0  0  0  0  0  0  0  0  0  0  0
   12.3637  -16.9362   23.0087 C   0  0  0  0  0  0  0  0  0  0  0  0
   12.6806  -15.9216   22.3616 O   0  0  0  0  0  0  0  0  0  0  0  0
   13.3812  -17.6606   23.6146 O   0  0  0  0  0  0  0  0  0  0  0  0
  1  5  1  0
  2  1  1  0
  2  3  1  0
  3  4  1  0
  5  4  1  0
  5  6  1  1
  6  7  2  0
  8  9  1  0
 10  9  1  1
 11 10  1  0
 11  6  1  0
 12 10  1  0
 12 14  1  0
 13 12  2  0
 15 14  1  0
 15 16  1  0
 16 18  1  0
 17 16  2  0
M  END
$$$$
