PSG.pdb
     RDKit          3D

 18 18  0  0  1  0  0  0  0  0999 V2000
    7.3338  -15.0842   20.3169 N   0  0  0  0  0  0  0  0  0  0  0  0
    6.5210  -14.6372   19.1834 C   0  0  0  0  0  0  0  0  0  0  0  0
    6.9858  -13.2399   18.8674 C   0  0  0  0  0  0  0  0  0  0  0  0
    8.2469  -13.0677   19.7036 C   0  0  0  0  0  0  0  0  0  0  0  0
    8.6402  -14.4881   20.0029 C   0  0  1  0  0  0  0  0  0  0  0  0
    9.4990  -14.6011   21.1998 C   0  0  0  0  0  0  0  0  0  0  0  0
   10.7317  -14.3831   21.2135 O   0  0  0  0  0  0  0  0  0  0  0  0
    7.8678  -15.7957   25.0657 O   0  0  0  0  0  0  0  0  0  0  0  0
    8.8489  -14.8274   24.9087 C   0  0  0  0  0  0  0  0  0  0  0  0
    9.6659  -15.0149   23.6689 C   0  0  2  0  0  0  0  0  0  0  0  0
    8.9409  -14.9791   22.4463 N   0  0  0  0  0  0  0  0  0  0  0  0
   10.4857  -16.2327   23.7859 C   0  0  0  0  0  0  0  0  0  0  0  0
    9.8847  -17.3586   23.8518 O   0  0  0  0  0  0  0  0  0  0  0  0
   11.8912  -16.2328   23.8295 N   0  0  0  0  0  0  0  0  0  0  0  0
   12.6527  -17.4627   23.8778 C   0  0  0  0  0  0  0  0  0  0  0  0
   14.0861  -17.1570   23.8842 C   0  0  0  0  0  0  0  0  0  0  0  0
   14.4847  -15.9792   23.8353 O   0  0  0  0  0  0  0  0  0  0  0  0
   15.0426  -18.1614   23.9446 O   0  0  0  0  0  0  0  0  0  0  0  0
  1  5  1  0
  2  1  1  0
  2  3  1  0
  3  4  1  0
  5  4  1  0
  5  6  1  1
  6  7  2  0
  8  9  1  0
 10  9  1  1
 11 10  1  0
 11  6  1  0
 12 10  1  0
 12 14  1  0
 13 12  2  0
 15 14  1  0
 15 16  1  0
 16 18  1  0
 17 16  2  0
M  END
$$$$
