PSG.pdb
     RDKit          3D

 18 18  0  0  1  0  0  0  0  0999 V2000
    8.5863  -13.3379   17.8866 N   0  0  0  0  0  0  0  0  0  0  0  0
    7.9317  -13.6912   16.6248 C   0  0  0  0  0  0  0  0  0  0  0  0
    7.6122  -15.1598   16.7223 C   0  0  0  0  0  0  0  0  0  0  0  0
    7.8848  -15.5053   18.1803 C   0  0  0  0  0  0  0  0  0  0  0  0
    7.8419  -14.1601   18.8513 C   0  0  1  0  0  0  0  0  0  0  0  0
    8.5725  -14.1406   20.1353 C   0  0  0  0  0  0  0  0  0  0  0  0
    9.7990  -13.9183   20.2520 O   0  0  0  0  0  0  0  0  0  0  0  0
    6.5825  -15.1059   23.8921 O   0  0  0  0  0  0  0  0  0  0  0  0
    7.6011  -14.1691   23.7940 C   0  0  0  0  0  0  0  0  0  0  0  0
    8.5095  -14.4093   22.6291 C   0  0  2  0  0  0  0  0  0  0  0  0
    7.8867  -14.3840   21.3512 N   0  0  0  0  0  0  0  0  0  0  0  0
    9.2814  -15.6458   22.8395 C   0  0  0  0  0  0  0  0  0  0  0  0
    8.9227  -16.6947   22.2035 O   0  0  0  0  0  0  0  0  0  0  0  0
   10.3905  -15.7434   23.6985 N   0  0  0  0  0  0  0  0  0  0  0  0
   11.0435  -17.0082   23.9602 C   0  0  0  0  0  0  0  0  0  0  0  0
   12.3798  -17.0088   23.3581 C   0  0  0  0  0  0  0  0  0  0  0  0
   12.5527  -16.6011   22.1952 O   0  0  0  0  0  0  0  0  0  0  0  0
   13.4911  -17.4602   24.0570 O   0  0  0  0  0  0  0  0  0  0  0  0
  1  5  1  0
  2  1  1  0
  2  3  1  0
  3  4  1  0
  5  4  1  0
  5  6  1  1
  6  7  2  0
  8  9  1  0
 10  9  1  1
 11 10  1  0
 11  6  1  0
 12 10  1  0
 12 14  1  0
 13 12  2  0
 15 14  1  0
 15 16  1  0
 16 18  1  0
 17 16  2  0
M  END
$$$$
