PSG.pdb
     RDKit          3D

 18 18  0  0  1  0  0  0  0  0999 V2000
    8.2715  -14.8846   19.1295 N   0  0  0  0  0  0  0  0  0  0  0  0
    7.7881  -14.5051   17.7999 C   0  0  0  0  0  0  0  0  0  0  0  0
    7.2330  -13.1124   17.9442 C   0  0  0  0  0  0  0  0  0  0  0  0
    7.6787  -12.6747   19.3330 C   0  0  0  0  0  0  0  0  0  0  0  0
    8.8176  -13.6127   19.6245 C   0  0  1  0  0  0  0  0  0  0  0  0
    9.0818  -13.7555   21.0711 C   0  0  0  0  0  0  0  0  0  0  0  0
    9.2916  -12.8006   21.8531 O   0  0  0  0  0  0  0  0  0  0  0  0
    6.9127  -15.5753   23.7515 O   0  0  0  0  0  0  0  0  0  0  0  0
    8.0407  -14.7775   23.8773 C   0  0  0  0  0  0  0  0  0  0  0  0
    9.2005  -15.2687   23.0689 C   0  0  2  0  0  0  0  0  0  0  0  0
    9.1115  -15.0402   21.6684 N   0  0  0  0  0  0  0  0  0  0  0  0
    9.4664  -16.6837   23.3787 C   0  0  0  0  0  0  0  0  0  0  0  0
    9.0311  -17.5696   22.5669 O   0  0  0  0  0  0  0  0  0  0  0  0
   10.1710  -17.1206   24.5145 N   0  0  0  0  0  0  0  0  0  0  0  0
   11.5786  -16.8359   24.6952 C   0  0  0  0  0  0  0  0  0  0  0  0
   12.3622  -18.0543   24.4727 C   0  0  0  0  0  0  0  0  0  0  0  0
   12.0019  -18.8964   23.6304 O   0  0  0  0  0  0  0  0  0  0  0  0
   13.5245  -18.3108   25.1873 O   0  0  0  0  0  0  0  0  0  0  0  0
  1  5  1  0
  2  1  1  0
  2  3  1  0
  3  4  1  0
  5  4  1  0
  5  6  1  1
  6  7  2  0
  8  9  1  0
 10  9  1  1
 11 10  1  0
 11  6  1  0
 12 10  1  0
 12 14  1  0
 13 12  2  0
 15 14  1  0
 15 16  1  0
 16 18  1  0
 17 16  2  0
M  END
$$$$
