PSG.pdb
     RDKit          3D

 18 18  0  0  1  0  0  0  0  0999 V2000
    8.0113  -15.1397   18.7102 N   0  0  0  0  0  0  0  0  0  0  0  0
    7.7212  -14.9592   17.2860 C   0  0  0  0  0  0  0  0  0  0  0  0
    8.0333  -13.5178   16.9802 C   0  0  0  0  0  0  0  0  0  0  0  0
    8.7449  -13.0165   18.2299 C   0  0  0  0  0  0  0  0  0  0  0  0
    9.1997  -14.2921   18.8840 C   0  0  1  0  0  0  0  0  0  0  0  0
    9.4457  -14.1332   20.3322 C   0  0  0  0  0  0  0  0  0  0  0  0
   10.4765  -13.6226   20.8264 O   0  0  0  0  0  0  0  0  0  0  0  0
    6.4154  -15.2842   23.2024 O   0  0  0  0  0  0  0  0  0  0  0  0
    7.2456  -14.1861   23.3752 C   0  0  0  0  0  0  0  0  0  0  0  0
    8.5588  -14.3264   22.6713 C   0  0  2  0  0  0  0  0  0  0  0  0
    8.4811  -14.5720   21.2730 N   0  0  0  0  0  0  0  0  0  0  0  0
    9.3941  -15.3256   23.3589 C   0  0  0  0  0  0  0  0  0  0  0  0
    9.5852  -15.1884   24.6150 O   0  0  0  0  0  0  0  0  0  0  0  0
    9.9952  -16.4230   22.7172 N   0  0  0  0  0  0  0  0  0  0  0  0
   10.6155  -17.4969   23.4635 C   0  0  0  0  0  0  0  0  0  0  0  0
   12.0649  -17.4768   23.2468 C   0  0  0  0  0  0  0  0  0  0  0  0
   12.6016  -16.5413   22.6261 O   0  0  0  0  0  0  0  0  0  0  0  0
   12.8844  -18.4917   23.7220 O   0  0  0  0  0  0  0  0  0  0  0  0
  1  5  1  0
  2  1  1  0
  2  3  1  0
  3  4  1  0
  5  4  1  0
  5  6  1  1
  6  7  2  0
  8  9  1  0
 10  9  1  1
 11 10  1  0
 11  6  1  0
 12 10  1  0
 12 14  1  0
 13 12  2  0
 15 14  1  0
 15 16  1  0
 16 18  1  0
 17 16  2  0
M  END
$$$$
