PSG.pdb
     RDKit          3D

 18 18  0  0  1  0  0  0  0  0999 V2000
    8.5694  -13.1478   18.2566 N   0  0  0  0  0  0  0  0  0  0  0  0
    7.8089  -13.4300   17.0370 C   0  0  0  0  0  0  0  0  0  0  0  0
    7.5601  -14.9155   17.0398 C   0  0  0  0  0  0  0  0  0  0  0  0
    7.9883  -15.3633   18.4310 C   0  0  0  0  0  0  0  0  0  0  0  0
    7.9572  -14.0798   19.2143 C   0  0  1  0  0  0  0  0  0  0  0  0
    8.8090  -14.1280   20.4205 C   0  0  0  0  0  0  0  0  0  0  0  0
   10.0219  -13.8188   20.4472 O   0  0  0  0  0  0  0  0  0  0  0  0
    7.3209  -15.8140   24.1448 O   0  0  0  0  0  0  0  0  0  0  0  0
    8.2430  -14.7778   24.1192 C   0  0  0  0  0  0  0  0  0  0  0  0
    9.0306  -14.7240   22.8477 C   0  0  2  0  0  0  0  0  0  0  0  0
    8.2673  -14.5462   21.6614 N   0  0  0  0  0  0  0  0  0  0  0  0
    9.9212  -15.8934   22.7576 C   0  0  0  0  0  0  0  0  0  0  0  0
    9.4463  -16.9754   22.2705 O   0  0  0  0  0  0  0  0  0  0  0  0
   11.2640  -15.8928   23.1751 N   0  0  0  0  0  0  0  0  0  0  0  0
   12.1004  -17.0680   23.0560 C   0  0  0  0  0  0  0  0  0  0  0  0
   13.4292  -16.7873   23.6069 C   0  0  0  0  0  0  0  0  0  0  0  0
   14.3144  -17.6619   23.6073 O   0  0  0  0  0  0  0  0  0  0  0  0
   13.7456  -15.5467   24.1435 O   0  0  0  0  0  0  0  0  0  0  0  0
  1  5  1  0
  2  1  1  0
  2  3  1  0
  3  4  1  0
  5  4  1  0
  5  6  1  1
  6  7  2  0
  8  9  1  0
 10  9  1  1
 11 10  1  0
 11  6  1  0
 12 10  1  0
 12 14  1  0
 13 12  2  0
 15 14  1  0
 15 16  1  0
 16 18  1  0
 17 16  2  0
M  END
$$$$
