RYR.pdb
     RDKit          3D

 35 35  0  0  1  0  0  0  0  0999 V2000
   17.5114  -24.7441   -9.9884 N   0  0  0  0  0  0  0  0  0  0  0  0
   17.6155  -23.6276   -9.1201 C   0  0  0  0  0  0  0  0  0  0  0  0
   17.4910  -22.4128   -9.4966 N   0  0  0  0  0  0  0  0  0  0  0  0
   17.8658  -23.9059   -7.7319 N   0  0  0  0  0  0  0  0  0  0  0  0
   18.3548  -25.2167   -7.3288 C   0  0  0  0  0  0  0  0  0  0  0  0
   18.7149  -25.2988   -5.8911 C   0  0  0  0  0  0  0  0  0  0  0  0
   17.6058  -25.1080   -4.8983 C   0  0  0  0  0  0  0  0  0  0  0  0
   17.1618  -26.3965   -4.2405 C   0  0  2  0  0  0  0  0  0  0  0  0
   18.2036  -26.9169   -3.3818 N   0  0  0  0  0  0  0  0  0  0  0  0
   16.8412  -27.4576   -5.2804 C   0  0  0  0  0  0  0  0  0  0  0  0
   17.4764  -28.5389   -5.1859 O   0  0  0  0  0  0  0  0  0  0  0  0
   17.5692  -21.5604   -8.9493 O   0  0  0  0  0  0  0  0  0  0  0  0
   12.3230  -22.8037   -9.0505 C   0  0  0  0  0  0  0  0  0  0  0  0
   12.7563  -24.0960   -8.7150 C   0  0  0  0  0  0  0  0  0  0  0  0
   13.0777  -25.0342   -9.6678 C   0  0  0  0  0  0  0  0  0  0  0  0
   13.4967  -26.2997   -9.2922 C   0  0  0  0  0  0  0  0  0  0  0  0
   13.6021  -26.6495   -7.9501 C   0  0  0  0  0  0  0  0  0  0  0  0
   13.9704  -28.0123   -7.5801 C   0  0  1  0  0  0  0  0  0  0  0  0
   15.4542  -28.2524   -7.2997 N   0  0  0  0  0  0  0  0  0  0  0  0
   15.9029  -27.2653   -6.2897 C   0  0  0  0  0  0  0  0  0  0  0  0
   16.3241  -28.1083   -8.4543 O   0  0  0  0  0  0  0  0  0  0  0  0
   16.7196  -26.9173   -8.8001 C   0  0  0  0  0  0  0  0  0  0  0  0
   13.2797  -25.6957   -7.0318 C   0  0  0  0  0  0  0  0  0  0  0  0
   12.8569  -24.4218   -7.3745 N   0  0  0  0  0  0  0  0  0  0  0  0
   19.9714  -30.5794  -14.5716 C   0  0  0  0  0  0  0  0  0  0  0  0
   21.3166  -30.3168  -14.2337 N   0  0  0  0  0  0  0  0  0  0  0  0
   22.1463  -30.0160  -15.1710 N   0  0  0  0  0  0  0  0  0  0  0  0
   21.7915  -30.3788  -12.8790 C   0  0  0  0  0  0  0  0  0  0  0  0
   20.8222  -30.6805  -11.8509 C   0  0  0  0  0  0  0  0  0  0  0  0
   19.8432  -29.5840  -11.5613 C   0  0  0  0  0  0  0  0  0  0  0  0
   18.8477  -29.9153  -10.4843 C   0  0  2  0  0  0  0  0  0  0  0  0
   17.7787  -28.8355  -10.3564 N   0  0  0  0  0  0  0  0  0  0  0  0
   16.8190  -29.1393   -9.2843 C   0  0  0  0  0  0  0  0  0  0  0  0
   17.0418  -28.6832  -11.6129 O   0  0  0  0  0  0  0  0  0  0  0  0
   15.8578  -29.1027  -11.7006 O   0  0  0  0  0  0  0  0  0  0  0  0
  2  3  2  0
  2  1  1  0
  4  2  1  0
  5  4  1  0
  6  5  1  0
  7  8  1  0
  7  6  1  0
  8 10  1  0
  8  9  1  1
 10 11  2  0
 12 13  1  0
 13 14  2  0
 13 23  1  0
 14 15  1  0
 15 16  2  0
 16 17  1  0
 18 17  1  1
 19 10  1  0
 19 18  1  0
 20 18  1  0
 20 32  1  0
 21 20  2  0
 22 16  1  0
 23 22  2  0
 24 25  1  0
 25 27  1  0
 26 25  2  0
 27 28  1  0
 29 28  1  0
 30 29  1  0
 31 33  1  0
 31 32  1  0
 31 30  1  1
 33 35  1  0
 34 33  2  0
M  END
$$$$
