RYR.pdb
     RDKit          3D

 35 35  0  0  1  0  0  0  0  0999 V2000
   27.7887  -26.9080  -16.3865 N   0  0  0  0  0  0  0  0  0  0  0  0
   28.2174  -25.6724  -16.9351 C   0  0  0  0  0  0  0  0  0  0  0  0
   29.3371  -25.5010  -17.5267 N   0  0  0  0  0  0  0  0  0  0  0  0
   27.3137  -24.5606  -16.8158 N   0  0  0  0  0  0  0  0  0  0  0  0
   25.9720  -24.7663  -16.2892 C   0  0  0  0  0  0  0  0  0  0  0  0
   24.9771  -25.1331  -17.3279 C   0  0  0  0  0  0  0  0  0  0  0  0
   23.7091  -24.3316  -17.3711 C   0  0  0  0  0  0  0  0  0  0  0  0
   22.8186  -24.5531  -16.1679 C   0  0  2  0  0  0  0  0  0  0  0  0
   22.1469  -25.8314  -16.2580 N   0  0  0  0  0  0  0  0  0  0  0  0
   21.7539  -23.4727  -16.0710 C   0  0  0  0  0  0  0  0  0  0  0  0
   22.1667  -22.2848  -16.0561 O   0  0  0  0  0  0  0  0  0  0  0  0
   29.7404  -24.6472  -17.9015 O   0  0  0  0  0  0  0  0  0  0  0  0
   21.9262  -19.9744  -21.1430 C   0  0  0  0  0  0  0  0  0  0  0  0
   21.0930  -20.6428  -20.2323 C   0  0  0  0  0  0  0  0  0  0  0  0
   20.1007  -19.9968  -19.5327 C   0  0  0  0  0  0  0  0  0  0  0  0
   19.3043  -20.6945  -18.6399 C   0  0  0  0  0  0  0  0  0  0  0  0
   19.4878  -22.0574  -18.4313 C   0  0  0  0  0  0  0  0  0  0  0  0
   18.6884  -22.7542  -17.4288 C   0  0  2  0  0  0  0  0  0  0  0  0
   19.2707  -22.7917  -16.0155 N   0  0  0  0  0  0  0  0  0  0  0  0
   20.3939  -23.7581  -16.0001 C   0  0  0  0  0  0  0  0  0  0  0  0
   18.3370  -23.2050  -14.9820 O   0  0  0  0  0  0  0  0  0  0  0  0
   18.2339  -24.4706  -14.6959 C   0  0  0  0  0  0  0  0  0  0  0  0
   20.4768  -22.6677  -19.1430 C   0  0  0  0  0  0  0  0  0  0  0  0
   21.2907  -21.9986  -20.0423 N   0  0  0  0  0  0  0  0  0  0  0  0
   11.0545  -24.1847  -12.4460 C   0  0  0  0  0  0  0  0  0  0  0  0
   11.6464  -25.0647  -11.5144 N   0  0  0  0  0  0  0  0  0  0  0  0
   10.8949  -25.6556  -10.6522 N   0  0  0  0  0  0  0  0  0  0  0  0
   13.0604  -25.3192  -11.4936 C   0  0  0  0  0  0  0  0  0  0  0  0
   13.8588  -24.7050  -12.5294 C   0  0  0  0  0  0  0  0  0  0  0  0
   15.3324  -24.9558  -12.4265 C   0  0  0  0  0  0  0  0  0  0  0  0
   16.1408  -24.3417  -13.5356 C   0  0  1  0  0  0  0  0  0  0  0  0
   16.6365  -22.9484  -13.1639 N   0  0  0  0  0  0  0  0  0  0  0  0
   17.4918  -22.3735  -14.2132 C   0  0  0  0  0  0  0  0  0  0  0  0
   17.3947  -22.9841  -11.9115 O   0  0  0  0  0  0  0  0  0  0  0  0
   16.8842  -23.5019  -10.8835 O   0  0  0  0  0  0  0  0  0  0  0  0
  2  3  2  0
  2  1  1  0
  4  2  1  0
  5  4  1  0
  6  5  1  0
  7  8  1  0
  7  6  1  0
  8 10  1  0
  8  9  1  6
 10 11  2  0
 12 13  1  0
 13 14  2  0
 13 23  1  0
 14 15  1  0
 15 16  2  0
 16 17  1  0
 18 17  1  6
 19 10  1  0
 19 18  1  0
 20 18  1  0
 20 32  1  0
 21 20  2  0
 22 16  1  0
 23 22  2  0
 24 25  1  0
 25 27  1  0
 26 25  2  0
 27 28  1  0
 29 28  1  0
 30 29  1  0
 31 33  1  0
 31 32  1  0
 31 30  1  6
 33 35  1  0
 34 33  2  0
M  END
$$$$
