RYR.pdb
     RDKit          3D

 35 35  0  0  1  0  0  0  0  0999 V2000
   30.9306  -15.3001  -21.1837 N   0  0  0  0  0  0  0  0  0  0  0  0
   29.9748  -14.2570  -21.2815 C   0  0  0  0  0  0  0  0  0  0  0  0
   30.0438  -13.2985  -22.1239 N   0  0  0  0  0  0  0  0  0  0  0  0
   28.8616  -14.3090  -20.3731 N   0  0  0  0  0  0  0  0  0  0  0  0
   28.4547  -15.5806  -19.7923 C   0  0  0  0  0  0  0  0  0  0  0  0
   27.7884  -16.4882  -20.7597 C   0  0  0  0  0  0  0  0  0  0  0  0
   27.3359  -17.8224  -20.2427 C   0  0  0  0  0  0  0  0  0  0  0  0
   27.6825  -18.0503  -18.7874 C   0  0  2  0  0  0  0  0  0  0  0  0
   29.1161  -18.0244  -18.5937 N   0  0  0  0  0  0  0  0  0  0  0  0
   27.1716  -19.3997  -18.3098 C   0  0  0  0  0  0  0  0  0  0  0  0
   27.9765  -20.3620  -18.3976 O   0  0  0  0  0  0  0  0  0  0  0  0
   29.4260  -12.5002  -22.2393 O   0  0  0  0  0  0  0  0  0  0  0  0
   27.8229  -26.7254  -16.7621 C   0  0  0  0  0  0  0  0  0  0  0  0
   27.4085  -25.3974  -16.5751 C   0  0  0  0  0  0  0  0  0  0  0  0
   26.1489  -25.0765  -16.1262 C   0  0  0  0  0  0  0  0  0  0  0  0
   25.7801  -23.7518  -15.9602 C   0  0  0  0  0  0  0  0  0  0  0  0
   26.6701  -22.7207  -16.2417 C   0  0  0  0  0  0  0  0  0  0  0  0
   26.2332  -21.3325  -16.1338 C   0  0  2  0  0  0  0  0  0  0  0  0
   25.3130  -20.8314  -17.2474 N   0  0  0  0  0  0  0  0  0  0  0  0
   25.8893  -19.5840  -17.8018 C   0  0  0  0  0  0  0  0  0  0  0  0
   23.9566  -20.5255  -16.8262 O   0  0  0  0  0  0  0  0  0  0  0  0
   23.7672  -19.5824  -15.9493 C   0  0  0  0  0  0  0  0  0  0  0  0
   27.9111  -23.0731  -16.6810 C   0  0  0  0  0  0  0  0  0  0  0  0
   28.3106  -24.3876  -16.8581 N   0  0  0  0  0  0  0  0  0  0  0  0
   18.0985  -22.0173  -11.5364 C   0  0  0  0  0  0  0  0  0  0  0  0
   18.8080  -23.1606  -11.9630 N   0  0  0  0  0  0  0  0  0  0  0  0
   18.3976  -24.3225  -11.5903 N   0  0  0  0  0  0  0  0  0  0  0  0
   19.9757  -23.0702  -12.7955 C   0  0  0  0  0  0  0  0  0  0  0  0
   20.1927  -21.8270  -13.4988 C   0  0  0  0  0  0  0  0  0  0  0  0
   21.3463  -21.8325  -14.4547 C   0  0  0  0  0  0  0  0  0  0  0  0
   21.5371  -20.5392  -15.1976 C   0  0  2  0  0  0  0  0  0  0  0  0
   21.4664  -20.7432  -16.7071 N   0  0  0  0  0  0  0  0  0  0  0  0
   22.7656  -21.1453  -17.2668 C   0  0  0  0  0  0  0  0  0  0  0  0
   21.0295  -19.5163  -17.3769 O   0  0  0  0  0  0  0  0  0  0  0  0
   21.8810  -18.6636  -17.7423 O   0  0  0  0  0  0  0  0  0  0  0  0
  2  3  2  0
  2  1  1  0
  4  2  1  0
  5  4  1  0
  6  5  1  0
  7  8  1  0
  7  6  1  0
  8 10  1  0
  8  9  1  6
 10 11  2  0
 12 13  1  0
 13 14  2  0
 13 23  1  0
 14 15  1  0
 15 16  2  0
 16 17  1  0
 18 17  1  6
 19 10  1  0
 19 18  1  0
 20 18  1  0
 20 32  1  0
 21 20  2  0
 22 16  1  0
 23 22  2  0
 24 25  1  0
 25 27  1  0
 26 25  2  0
 27 28  1  0
 29 28  1  0
 30 29  1  0
 31 33  1  0
 31 32  1  0
 31 30  1  1
 33 35  1  0
 34 33  2  0
M  END
$$$$
