RYR.pdb
     RDKit          3D

 35 35  0  0  1  0  0  0  0  0999 V2000
   26.0201  -33.4883  -15.4329 N   0  0  0  0  0  0  0  0  0  0  0  0
   27.3099  -33.5533  -16.0191 C   0  0  0  0  0  0  0  0  0  0  0  0
   27.8451  -34.6283  -16.4562 N   0  0  0  0  0  0  0  0  0  0  0  0
   28.0367  -32.3176  -16.1277 N   0  0  0  0  0  0  0  0  0  0  0  0
   27.4424  -31.0786  -15.6465 C   0  0  0  0  0  0  0  0  0  0  0  0
   27.5663  -29.9507  -16.6035 C   0  0  0  0  0  0  0  0  0  0  0  0
   26.9527  -28.6424  -16.1987 C   0  0  0  0  0  0  0  0  0  0  0  0
   27.1545  -27.5441  -17.2200 C   0  0  2  0  0  0  0  0  0  0  0  0
   28.4173  -26.8717  -17.0039 N   0  0  0  0  0  0  0  0  0  0  0  0
   26.0503  -26.5037  -17.1277 C   0  0  0  0  0  0  0  0  0  0  0  0
   26.2734  -25.5211  -16.3750 O   0  0  0  0  0  0  0  0  0  0  0  0
   28.7479  -34.7596  -16.9031 O   0  0  0  0  0  0  0  0  0  0  0  0
   26.6478  -21.5748  -22.0282 C   0  0  0  0  0  0  0  0  0  0  0  0
   25.8731  -22.5243  -21.3436 C   0  0  0  0  0  0  0  0  0  0  0  0
   26.1465  -23.8711  -21.3946 C   0  0  0  0  0  0  0  0  0  0  0  0
   25.3527  -24.7741  -20.7070 C   0  0  0  0  0  0  0  0  0  0  0  0
   24.2667  -24.3425  -19.9527 C   0  0  0  0  0  0  0  0  0  0  0  0
   23.3994  -25.3187  -19.3012 C   0  0  2  0  0  0  0  0  0  0  0  0
   23.7313  -25.6424  -17.8441 N   0  0  0  0  0  0  0  0  0  0  0  0
   24.8517  -26.6120  -17.8261 C   0  0  0  0  0  0  0  0  0  0  0  0
   22.6415  -26.2343  -17.0874 O   0  0  0  0  0  0  0  0  0  0  0  0
   22.3070  -27.4694  -17.3262 C   0  0  0  0  0  0  0  0  0  0  0  0
   24.0258  -23.0017  -19.9202 C   0  0  0  0  0  0  0  0  0  0  0  0
   24.7996  -22.0731  -20.5968 N   0  0  0  0  0  0  0  0  0  0  0  0
   19.8364  -29.9061  -10.5464 C   0  0  0  0  0  0  0  0  0  0  0  0
   21.0931  -29.2918  -10.7356 N   0  0  0  0  0  0  0  0  0  0  0  0
   22.1485  -29.8866  -10.3000 N   0  0  0  0  0  0  0  0  0  0  0  0
   21.2330  -28.0223  -11.3940 C   0  0  0  0  0  0  0  0  0  0  0  0
   20.0194  -27.3301  -11.7617 C   0  0  0  0  0  0  0  0  0  0  0  0
   19.8306  -27.1195  -13.2331 C   0  0  0  0  0  0  0  0  0  0  0  0
   21.0001  -26.4675  -13.9172 C   0  0  1  0  0  0  0  0  0  0  0  0
   20.7778  -26.3526  -15.4214 N   0  0  0  0  0  0  0  0  0  0  0  0
   21.8662  -25.6156  -16.0810 C   0  0  0  0  0  0  0  0  0  0  0  0
   19.5129  -25.6727  -15.7087 O   0  0  0  0  0  0  0  0  0  0  0  0
   18.4208  -26.2552  -15.4773 O   0  0  0  0  0  0  0  0  0  0  0  0
  2  3  2  0
  2  1  1  0
  4  2  1  0
  5  4  1  0
  6  5  1  0
  7  8  1  0
  7  6  1  0
  8 10  1  0
  8  9  1  1
 10 11  2  0
 12 13  1  0
 13 14  2  0
 13 23  1  0
 14 15  1  0
 15 16  2  0
 16 17  1  0
 18 17  1  1
 19 10  1  0
 19 18  1  0
 20 18  1  0
 20 32  1  0
 21 20  2  0
 22 16  1  0
 23 22  2  0
 24 25  1  0
 25 27  1  0
 26 25  2  0
 27 28  1  0
 29 28  1  0
 30 29  1  0
 31 33  1  0
 31 32  1  0
 31 30  1  6
 33 35  1  0
 34 33  2  0
M  END
$$$$
