RYR.pdb
     RDKit          3D

 35 35  0  0  1  0  0  0  0  0999 V2000
   15.7807  -23.5659   -8.2423 N   0  0  0  0  0  0  0  0  0  0  0  0
   14.5967  -23.7603   -7.4861 C   0  0  0  0  0  0  0  0  0  0  0  0
   13.4172  -23.5729   -7.9406 N   0  0  0  0  0  0  0  0  0  0  0  0
   14.7590  -24.2073   -6.1292 N   0  0  0  0  0  0  0  0  0  0  0  0
   16.0918  -24.4595   -5.6003 C   0  0  0  0  0  0  0  0  0  0  0  0
   16.6524  -25.7725   -6.0068 C   0  0  0  0  0  0  0  0  0  0  0  0
   18.0371  -26.0999   -5.5300 C   0  0  0  0  0  0  0  0  0  0  0  0
   18.2009  -27.5449   -5.1114 C   0  0  2  0  0  0  0  0  0  0  0  0
   17.2120  -28.3794   -5.7586 N   0  0  0  0  0  0  0  0  0  0  0  0
   18.0311  -27.7001   -3.6090 C   0  0  0  0  0  0  0  0  0  0  0  0
   16.8786  -28.0046   -3.2081 O   0  0  0  0  0  0  0  0  0  0  0  0
   12.5257  -23.6395   -7.4579 O   0  0  0  0  0  0  0  0  0  0  0  0
   21.0233  -26.2622    4.8437 C   0  0  0  0  0  0  0  0  0  0  0  0
   20.8445  -26.5594    3.4835 C   0  0  0  0  0  0  0  0  0  0  0  0
   20.5731  -27.8321    3.0385 C   0  0  0  0  0  0  0  0  0  0  0  0
   20.4085  -28.0817    1.6862 C   0  0  0  0  0  0  0  0  0  0  0  0
   20.5129  -27.0569    0.7515 C   0  0  0  0  0  0  0  0  0  0  0  0
   20.4131  -27.3582   -0.6729 C   0  0  1  0  0  0  0  0  0  0  0  0
   18.9962  -27.5012   -1.2296 N   0  0  0  0  0  0  0  0  0  0  0  0
   19.0767  -27.5192   -2.7090 C   0  0  0  0  0  0  0  0  0  0  0  0
   18.0863  -26.4292   -0.8639 O   0  0  0  0  0  0  0  0  0  0  0  0
   17.9876  -25.3930   -1.6454 C   0  0  0  0  0  0  0  0  0  0  0  0
   20.7788  -25.8074    1.2260 C   0  0  0  0  0  0  0  0  0  0  0  0
   20.9495  -25.5249    2.5713 N   0  0  0  0  0  0  0  0  0  0  0  0
   12.0504  -22.7072   -2.2709 C   0  0  0  0  0  0  0  0  0  0  0  0
   12.3182  -21.6985   -1.3204 N   0  0  0  0  0  0  0  0  0  0  0  0
   11.5149  -20.6962   -1.2337 N   0  0  0  0  0  0  0  0  0  0  0  0
   13.4601  -21.7509   -0.4499 C   0  0  0  0  0  0  0  0  0  0  0  0
   14.4120  -22.8153   -0.6700 C   0  0  0  0  0  0  0  0  0  0  0  0
   14.2852  -23.9818    0.2616 C   0  0  0  0  0  0  0  0  0  0  0  0
   15.1198  -25.1717   -0.1239 C   0  0  1  0  0  0  0  0  0  0  0  0
   16.4791  -25.1513    0.5668 N   0  0  0  0  0  0  0  0  0  0  0  0
   17.2578  -26.3653    0.2790 C   0  0  0  0  0  0  0  0  0  0  0  0
   16.3224  -25.0307    2.0179 O   0  0  0  0  0  0  0  0  0  0  0  0
   16.7127  -25.9615    2.7707 O   0  0  0  0  0  0  0  0  0  0  0  0
  2  3  2  0
  2  1  1  0
  4  2  1  0
  5  4  1  0
  6  5  1  0
  7  8  1  0
  7  6  1  0
  8 10  1  0
  8  9  1  6
 10 11  2  0
 12 13  1  0
 13 14  2  0
 13 23  1  0
 14 15  1  0
 15 16  2  0
 16 17  1  0
 18 17  1  1
 19 10  1  0
 19 18  1  0
 20 18  1  0
 20 32  1  0
 21 20  2  0
 22 16  1  0
 23 22  2  0
 24 25  1  0
 25 27  1  0
 26 25  2  0
 27 28  1  0
 29 28  1  0
 30 29  1  0
 31 33  1  0
 31 32  1  0
 31 30  1  6
 33 35  1  0
 34 33  2  0
M  END
$$$$
