RYR.pdb
     RDKit          3D

 35 35  0  0  1  0  0  0  0  0999 V2000
   27.2025  -24.0560  -17.6221 N   0  0  0  0  0  0  0  0  0  0  0  0
   26.2230  -24.2166  -18.6351 C   0  0  0  0  0  0  0  0  0  0  0  0
   26.1974  -25.1932  -19.4589 N   0  0  0  0  0  0  0  0  0  0  0  0
   25.1985  -23.2109  -18.7129 N   0  0  0  0  0  0  0  0  0  0  0  0
   25.5566  -21.8264  -18.9864 C   0  0  0  0  0  0  0  0  0  0  0  0
   26.6865  -21.3319  -18.1604 C   0  0  0  0  0  0  0  0  0  0  0  0
   26.3706  -20.2925  -17.1251 C   0  0  0  0  0  0  0  0  0  0  0  0
   25.6803  -19.0713  -17.6928 C   0  0  2  0  0  0  0  0  0  0  0  0
   26.6507  -18.0727  -18.0859 N   0  0  0  0  0  0  0  0  0  0  0  0
   24.7533  -18.4420  -16.6658 C   0  0  0  0  0  0  0  0  0  0  0  0
   25.2939  -17.6880  -15.8166 O   0  0  0  0  0  0  0  0  0  0  0  0
   25.5315  -25.3894  -20.2006 O   0  0  0  0  0  0  0  0  0  0  0  0
   16.8082  -16.3845  -13.0405 C   0  0  0  0  0  0  0  0  0  0  0  0
   17.8666  -16.7179  -13.9000 C   0  0  0  0  0  0  0  0  0  0  0  0
   17.8947  -17.8959  -14.6092 C   0  0  0  0  0  0  0  0  0  0  0  0
   18.9616  -18.1870  -15.4429 C   0  0  0  0  0  0  0  0  0  0  0  0
   20.0237  -17.2998  -15.5822 C   0  0  0  0  0  0  0  0  0  0  0  0
   21.1724  -17.6634  -16.4056 C   0  0  1  0  0  0  0  0  0  0  0  0
   22.4003  -18.1767  -15.6529 N   0  0  0  0  0  0  0  0  0  0  0  0
   23.3814  -18.6734  -16.6461 C   0  0  0  0  0  0  0  0  0  0  0  0
   22.1376  -19.2670  -14.7292 O   0  0  0  0  0  0  0  0  0  0  0  0
   21.8687  -20.4471  -15.2081 C   0  0  0  0  0  0  0  0  0  0  0  0
   19.9629  -16.1403  -14.8687 C   0  0  0  0  0  0  0  0  0  0  0  0
   18.9111  -15.8198  -14.0262 N   0  0  0  0  0  0  0  0  0  0  0  0
   26.3991  -20.5004  -12.6349 C   0  0  0  0  0  0  0  0  0  0  0  0
   26.8174  -21.0101  -11.3868 N   0  0  0  0  0  0  0  0  0  0  0  0
   27.8886  -21.7221  -11.3328 N   0  0  0  0  0  0  0  0  0  0  0  0
   26.0847  -20.7645  -10.1754 C   0  0  0  0  0  0  0  0  0  0  0  0
   24.7903  -20.1351  -10.3007 C   0  0  0  0  0  0  0  0  0  0  0  0
   23.7364  -20.9771  -10.9528 C   0  0  0  0  0  0  0  0  0  0  0  0
   22.4057  -20.2930  -11.1013 C   0  0  2  0  0  0  0  0  0  0  0  0
   21.8669  -20.4159  -12.5225 N   0  0  0  0  0  0  0  0  0  0  0  0
   22.1387  -19.2087  -13.3174 C   0  0  0  0  0  0  0  0  0  0  0  0
   20.4215  -20.6513  -12.5111 O   0  0  0  0  0  0  0  0  0  0  0  0
   19.9624  -21.7546  -12.9080 O   0  0  0  0  0  0  0  0  0  0  0  0
  2  3  2  0
  2  1  1  0
  4  2  1  0
  5  4  1  0
  6  5  1  0
  7  8  1  0
  7  6  1  0
  8 10  1  0
  8  9  1  1
 10 11  2  0
 12 13  1  0
 13 14  2  0
 13 23  1  0
 14 15  1  0
 15 16  2  0
 16 17  1  0
 18 17  1  6
 19 10  1  0
 19 18  1  0
 20 18  1  0
 20 32  1  0
 21 20  2  0
 22 16  1  0
 23 22  2  0
 24 25  1  0
 25 27  1  0
 26 25  2  0
 27 28  1  0
 29 28  1  0
 30 29  1  0
 31 33  1  0
 31 32  1  0
 31 30  1  6
 33 35  1  0
 34 33  2  0
M  END
$$$$
