RYR.pdb
     RDKit          3D

 35 35  0  0  1  0  0  0  0  0999 V2000
   19.0507  -26.0192   -7.3338 N   0  0  0  0  0  0  0  0  0  0  0  0
   18.2852  -25.0243   -6.6738 C   0  0  0  0  0  0  0  0  0  0  0  0
   17.0631  -25.1710   -6.3302 N   0  0  0  0  0  0  0  0  0  0  0  0
   18.9509  -23.7860   -6.3730 N   0  0  0  0  0  0  0  0  0  0  0  0
   19.9488  -23.2544   -7.2903 C   0  0  0  0  0  0  0  0  0  0  0  0
   19.3777  -22.7693   -8.5716 C   0  0  0  0  0  0  0  0  0  0  0  0
   20.3350  -22.1772   -9.5641 C   0  0  0  0  0  0  0  0  0  0  0  0
   21.4872  -21.4385   -8.9185 C   0  0  2  0  0  0  0  0  0  0  0  0
   21.0051  -20.5290   -7.9017 N   0  0  0  0  0  0  0  0  0  0  0  0
   22.2571  -20.6243   -9.9454 C   0  0  0  0  0  0  0  0  0  0  0  0
   21.6422  -19.6568  -10.4626 O   0  0  0  0  0  0  0  0  0  0  0  0
   16.4495  -24.5198   -5.8492 O   0  0  0  0  0  0  0  0  0  0  0  0
   29.3491  -18.8524  -15.1871 C   0  0  0  0  0  0  0  0  0  0  0  0
   28.5045  -19.3189  -14.1676 C   0  0  0  0  0  0  0  0  0  0  0  0
   28.1989  -20.6514  -14.0182 C   0  0  0  0  0  0  0  0  0  0  0  0
   27.3568  -21.0678  -13.0005 C   0  0  0  0  0  0  0  0  0  0  0  0
   26.8038  -20.1533  -12.1102 C   0  0  0  0  0  0  0  0  0  0  0  0
   25.8584  -20.6065  -11.0951 C   0  0  1  0  0  0  0  0  0  0  0  0
   24.3972  -20.2151  -11.3184 N   0  0  0  0  0  0  0  0  0  0  0  0
   23.5682  -20.9153  -10.3094 C   0  0  0  0  0  0  0  0  0  0  0  0
   23.8655  -20.5632  -12.6248 O   0  0  0  0  0  0  0  0  0  0  0  0
   23.3646  -21.7510  -12.8048 C   0  0  0  0  0  0  0  0  0  0  0  0
   27.1299  -18.8416  -12.2837 C   0  0  0  0  0  0  0  0  0  0  0  0
   27.9679  -18.3928  -13.2913 N   0  0  0  0  0  0  0  0  0  0  0  0
   16.7026  -21.4484  -16.0597 C   0  0  0  0  0  0  0  0  0  0  0  0
   17.5737  -22.3148  -16.7547 N   0  0  0  0  0  0  0  0  0  0  0  0
   17.0729  -23.2862  -17.4352 N   0  0  0  0  0  0  0  0  0  0  0  0
   19.0009  -22.1515  -16.7239 C   0  0  0  0  0  0  0  0  0  0  0  0
   19.5224  -21.0247  -15.9851 C   0  0  0  0  0  0  0  0  0  0  0  0
   21.0019  -20.8196  -16.1026 C   0  0  0  0  0  0  0  0  0  0  0  0
   21.6753  -20.4379  -14.8136 C   0  0  1  0  0  0  0  0  0  0  0  0
   23.1725  -20.2211  -15.0051 N   0  0  0  0  0  0  0  0  0  0  0  0
   23.8183  -19.7419  -13.7738 C   0  0  0  0  0  0  0  0  0  0  0  0
   23.4241  -19.2501  -16.0722 O   0  0  0  0  0  0  0  0  0  0  0  0
   23.6475  -18.0449  -15.7840 O   0  0  0  0  0  0  0  0  0  0  0  0
  2  3  2  0
  2  1  1  0
  4  2  1  0
  5  4  1  0
  6  5  1  0
  7  8  1  0
  7  6  1  0
  8 10  1  0
  8  9  1  1
 10 11  2  0
 12 13  1  0
 13 14  2  0
 13 23  1  0
 14 15  1  0
 15 16  2  0
 16 17  1  0
 18 17  1  1
 19 10  1  0
 19 18  1  0
 20 18  1  0
 20 32  1  0
 21 20  2  0
 22 16  1  0
 23 22  2  0
 24 25  1  0
 25 27  1  0
 26 25  2  0
 27 28  1  0
 29 28  1  0
 30 29  1  0
 31 33  1  0
 31 32  1  0
 31 30  1  1
 33 35  1  0
 34 33  2  0
M  END
$$$$
