RYR.pdb
     RDKit          3D

 35 35  0  0  1  0  0  0  0  0999 V2000
   25.3777  -32.6927   -8.4664 N   0  0  0  0  0  0  0  0  0  0  0  0
   26.1461  -33.3766   -9.4427 C   0  0  0  0  0  0  0  0  0  0  0  0
   27.1353  -34.1388   -9.1714 N   0  0  0  0  0  0  0  0  0  0  0  0
   25.7617  -33.1943  -10.8161 N   0  0  0  0  0  0  0  0  0  0  0  0
   24.6937  -32.2650  -11.1560 C   0  0  0  0  0  0  0  0  0  0  0  0
   23.3833  -32.9247  -11.3823 C   0  0  0  0  0  0  0  0  0  0  0  0
   22.2235  -32.0370  -11.7270 C   0  0  0  0  0  0  0  0  0  0  0  0
   22.0737  -30.8563  -10.7924 C   0  0  2  0  0  0  0  0  0  0  0  0
   21.6017  -31.2888   -9.4948 N   0  0  0  0  0  0  0  0  0  0  0  0
   21.0749  -29.8501  -11.3403 C   0  0  0  0  0  0  0  0  0  0  0  0
   20.0938  -30.3253  -11.9675 O   0  0  0  0  0  0  0  0  0  0  0  0
   27.7065  -34.6966   -9.7997 O   0  0  0  0  0  0  0  0  0  0  0  0
   15.9345  -22.5830  -11.0478 C   0  0  0  0  0  0  0  0  0  0  0  0
   16.8686  -23.6195  -10.8949 C   0  0  0  0  0  0  0  0  0  0  0  0
   16.4991  -24.8960  -10.5408 C   0  0  0  0  0  0  0  0  0  0  0  0
   17.4548  -25.8879  -10.3963 C   0  0  0  0  0  0  0  0  0  0  0  0
   18.8033  -25.6181  -10.6049 C   0  0  0  0  0  0  0  0  0  0  0  0
   19.7985  -26.6594  -10.3706 C   0  0  2  0  0  0  0  0  0  0  0  0
   20.2821  -27.4146  -11.6091 N   0  0  0  0  0  0  0  0  0  0  0  0
   21.2180  -28.4765  -11.1711 C   0  0  0  0  0  0  0  0  0  0  0  0
   20.9862  -26.5995  -12.5840 O   0  0  0  0  0  0  0  0  0  0  0  0
   21.8747  -25.7449  -12.1662 C   0  0  0  0  0  0  0  0  0  0  0  0
   19.1351  -24.3445  -10.9583 C   0  0  0  0  0  0  0  0  0  0  0  0
   18.2040  -23.3301  -11.1103 N   0  0  0  0  0  0  0  0  0  0  0  0
   14.5568  -24.2549  -17.4067 C   0  0  0  0  0  0  0  0  0  0  0  0
   14.9039  -25.3583  -16.5977 N   0  0  0  0  0  0  0  0  0  0  0  0
   14.2080  -26.4379  -16.6858 N   0  0  0  0  0  0  0  0  0  0  0  0
   16.0051  -25.3150  -15.6756 C   0  0  0  0  0  0  0  0  0  0  0  0
   16.8963  -24.1811  -15.7618 C   0  0  0  0  0  0  0  0  0  0  0  0
   18.0446  -24.2028  -14.7997 C   0  0  0  0  0  0  0  0  0  0  0  0
   18.6723  -25.5573  -14.6199 C   0  0  1  0  0  0  0  0  0  0  0  0
   20.1941  -25.4831  -14.6791 N   0  0  0  0  0  0  0  0  0  0  0  0
   20.8250  -26.6176  -13.9877 C   0  0  0  0  0  0  0  0  0  0  0  0
   20.6772  -24.2404  -14.0730 O   0  0  0  0  0  0  0  0  0  0  0  0
   20.5181  -24.0404  -12.8401 O   0  0  0  0  0  0  0  0  0  0  0  0
  2  3  2  0
  2  1  1  0
  4  2  1  0
  5  4  1  0
  6  5  1  0
  7  8  1  0
  7  6  1  0
  8 10  1  0
  8  9  1  1
 10 11  2  0
 12 13  1  0
 13 14  2  0
 13 23  1  0
 14 15  1  0
 15 16  2  0
 16 17  1  0
 18 17  1  1
 19 10  1  0
 19 18  1  0
 20 18  1  0
 20 32  1  0
 21 20  2  0
 22 16  1  0
 23 22  2  0
 24 25  1  0
 25 27  1  0
 26 25  2  0
 27 28  1  0
 29 28  1  0
 30 29  1  0
 31 33  1  0
 31 32  1  0
 31 30  1  6
 33 35  1  0
 34 33  2  0
M  END
$$$$
