RYR.pdb
     RDKit          3D

 35 35  0  0  1  0  0  0  0  0999 V2000
   28.0380  -17.4706  -15.6095 N   0  0  0  0  0  0  0  0  0  0  0  0
   28.2780  -17.0764  -16.9505 C   0  0  0  0  0  0  0  0  0  0  0  0
   27.9492  -15.9398  -17.4331 N   0  0  0  0  0  0  0  0  0  0  0  0
   28.9446  -18.0279  -17.7976 N   0  0  0  0  0  0  0  0  0  0  0  0
   28.8368  -19.4526  -17.5178 C   0  0  0  0  0  0  0  0  0  0  0  0
   27.5620  -20.0536  -17.9837 C   0  0  0  0  0  0  0  0  0  0  0  0
   26.7023  -20.7173  -16.9481 C   0  0  0  0  0  0  0  0  0  0  0  0
   27.4816  -21.6020  -15.9994 C   0  0  2  0  0  0  0  0  0  0  0  0
   27.6914  -22.9114  -16.5781 N   0  0  0  0  0  0  0  0  0  0  0  0
   26.7358  -21.7857  -14.6878 C   0  0  0  0  0  0  0  0  0  0  0  0
   25.5950  -22.3093  -14.7653 O   0  0  0  0  0  0  0  0  0  0  0  0
   28.0592  -15.5890  -18.3802 O   0  0  0  0  0  0  0  0  0  0  0  0
   25.4163  -19.9338   -5.9606 C   0  0  0  0  0  0  0  0  0  0  0  0
   25.9905  -20.1977   -7.2140 C   0  0  0  0  0  0  0  0  0  0  0  0
   27.2050  -19.6741   -7.5912 C   0  0  0  0  0  0  0  0  0  0  0  0
   27.7328  -19.9568   -8.8401 C   0  0  0  0  0  0  0  0  0  0  0  0
   27.0511  -20.7726   -9.7370 C   0  0  0  0  0  0  0  0  0  0  0  0
   27.5902  -20.9924  -11.0752 C   0  0  1  0  0  0  0  0  0  0  0  0
   26.5782  -21.4009  -12.1462 N   0  0  0  0  0  0  0  0  0  0  0  0
   27.2649  -21.4025  -13.4592 C   0  0  0  0  0  0  0  0  0  0  0  0
   25.4285  -20.5209  -12.2661 O   0  0  0  0  0  0  0  0  0  0  0  0
   25.6000  -19.3221  -12.7433 C   0  0  0  0  0  0  0  0  0  0  0  0
   25.8526  -21.2781   -9.3306 C   0  0  0  0  0  0  0  0  0  0  0  0
   25.2972  -21.0140   -8.0893 N   0  0  0  0  0  0  0  0  0  0  0  0
   20.0651  -19.4851  -18.0898 C   0  0  0  0  0  0  0  0  0  0  0  0
   20.1085  -20.5714  -17.1895 N   0  0  0  0  0  0  0  0  0  0  0  0
   19.6855  -21.7222  -17.5821 N   0  0  0  0  0  0  0  0  0  0  0  0
   20.6045  -20.4343  -15.8479 C   0  0  0  0  0  0  0  0  0  0  0  0
   20.9315  -19.1015  -15.3961 C   0  0  0  0  0  0  0  0  0  0  0  0
   21.4433  -19.0164  -13.9905 C   0  0  0  0  0  0  0  0  0  0  0  0
   22.5690  -19.9656  -13.6862 C   0  0  1  0  0  0  0  0  0  0  0  0
   23.0151  -19.8594  -12.2319 N   0  0  0  0  0  0  0  0  0  0  0  0
   24.0903  -20.8125  -11.9180 C   0  0  0  0  0  0  0  0  0  0  0  0
   21.8923  -20.1076  -11.3250 O   0  0  0  0  0  0  0  0  0  0  0  0
   21.8344  -21.1866  -10.6787 O   0  0  0  0  0  0  0  0  0  0  0  0
  2  3  2  0
  2  1  1  0
  4  2  1  0
  5  4  1  0
  6  5  1  0
  7  8  1  0
  7  6  1  0
  8 10  1  0
  8  9  1  6
 10 11  2  0
 12 13  1  0
 13 14  2  0
 13 23  1  0
 14 15  1  0
 15 16  2  0
 16 17  1  0
 18 17  1  1
 19 10  1  0
 19 18  1  0
 20 18  1  0
 20 32  1  0
 21 20  2  0
 22 16  1  0
 23 22  2  0
 24 25  1  0
 25 27  1  0
 26 25  2  0
 27 28  1  0
 29 28  1  0
 30 29  1  0
 31 33  1  0
 31 32  1  0
 31 30  1  6
 33 35  1  0
 34 33  2  0
M  END
$$$$
