RYR.pdb
     RDKit          3D

 35 35  0  0  1  0  0  0  0  0999 V2000
   32.3677  -19.0075  -20.4487 N   0  0  0  0  0  0  0  0  0  0  0  0
   32.4685  -18.2588  -19.2484 C   0  0  0  0  0  0  0  0  0  0  0  0
   33.4586  -17.5062  -18.9542 N   0  0  0  0  0  0  0  0  0  0  0  0
   31.3706  -18.3602  -18.3257 N   0  0  0  0  0  0  0  0  0  0  0  0
   30.1219  -18.9803  -18.7454 C   0  0  0  0  0  0  0  0  0  0  0  0
   30.1983  -20.4593  -18.8447 C   0  0  0  0  0  0  0  0  0  0  0  0
   29.5308  -21.2512  -17.7587 C   0  0  0  0  0  0  0  0  0  0  0  0
   28.0777  -20.8816  -17.5541 C   0  0  2  0  0  0  0  0  0  0  0  0
   27.9012  -19.4471  -17.6215 N   0  0  0  0  0  0  0  0  0  0  0  0
   27.5820  -21.3492  -16.1954 C   0  0  0  0  0  0  0  0  0  0  0  0
   27.6436  -22.5861  -15.9764 O   0  0  0  0  0  0  0  0  0  0  0  0
   33.5961  -16.9170  -18.1381 O   0  0  0  0  0  0  0  0  0  0  0  0
   24.8750  -20.4234   -7.7119 C   0  0  0  0  0  0  0  0  0  0  0  0
   25.4737  -20.2981   -8.9753 C   0  0  0  0  0  0  0  0  0  0  0  0
   25.3890  -19.1437   -9.7179 C   0  0  0  0  0  0  0  0  0  0  0  0
   25.9913  -19.0649  -10.9626 C   0  0  0  0  0  0  0  0  0  0  0  0
   26.6924  -20.1453  -11.4878 C   0  0  0  0  0  0  0  0  0  0  0  0
   27.2515  -20.0651  -12.8334 C   0  0  1  0  0  0  0  0  0  0  0  0
   26.4935  -20.8282  -13.9202 N   0  0  0  0  0  0  0  0  0  0  0  0
   27.0829  -20.4765  -15.2334 C   0  0  0  0  0  0  0  0  0  0  0  0
   25.0733  -20.5318  -13.9958 O   0  0  0  0  0  0  0  0  0  0  0  0
   24.6952  -19.3741  -14.4553 C   0  0  0  0  0  0  0  0  0  0  0  0
   26.7604  -21.2725  -10.7250 C   0  0  0  0  0  0  0  0  0  0  0  0
   26.1688  -21.3836   -9.4774 N   0  0  0  0  0  0  0  0  0  0  0  0
   20.2277  -16.9444  -16.3418 C   0  0  0  0  0  0  0  0  0  0  0  0
   20.4434  -18.0203  -17.2297 N   0  0  0  0  0  0  0  0  0  0  0  0
   20.4826  -17.7847  -18.4948 N   0  0  0  0  0  0  0  0  0  0  0  0
   20.6158  -19.3703  -16.7688 C   0  0  0  0  0  0  0  0  0  0  0  0
   20.3338  -19.6355  -15.3769 C   0  0  0  0  0  0  0  0  0  0  0  0
   20.4515  -21.0724  -14.9689 C   0  0  0  0  0  0  0  0  0  0  0  0
   21.8668  -21.5699  -14.8666 C   0  0  2  0  0  0  0  0  0  0  0  0
   22.6143  -20.9038  -13.7166 N   0  0  0  0  0  0  0  0  0  0  0  0
   24.0039  -21.3757  -13.6204 C   0  0  0  0  0  0  0  0  0  0  0  0
   21.9436  -21.1648  -12.4411 O   0  0  0  0  0  0  0  0  0  0  0  0
   22.3119  -22.1329  -11.7252 O   0  0  0  0  0  0  0  0  0  0  0  0
  2  3  2  0
  2  1  1  0
  4  2  1  0
  5  4  1  0
  6  5  1  0
  7  8  1  0
  7  6  1  0
  8 10  1  0
  8  9  1  1
 10 11  2  0
 12 13  1  0
 13 14  2  0
 13 23  1  0
 14 15  1  0
 15 16  2  0
 16 17  1  0
 18 17  1  1
 19 10  1  0
 19 18  1  0
 20 18  1  0
 20 32  1  0
 21 20  2  0
 22 16  1  0
 23 22  2  0
 24 25  1  0
 25 27  1  0
 26 25  2  0
 27 28  1  0
 29 28  1  0
 30 29  1  0
 31 33  1  0
 31 32  1  0
 31 30  1  6
 33 35  1  0
 34 33  2  0
M  END
$$$$
