RYR.pdb
     RDKit          3D

 35 35  0  0  1  0  0  0  0  0999 V2000
   26.2466  -14.1461  -18.7188 N   0  0  0  0  0  0  0  0  0  0  0  0
   27.4824  -14.0539  -18.0290 C   0  0  0  0  0  0  0  0  0  0  0  0
   28.3862  -13.1892  -18.2904 N   0  0  0  0  0  0  0  0  0  0  0  0
   27.7042  -14.9958  -16.9657 N   0  0  0  0  0  0  0  0  0  0  0  0
   26.8070  -16.1303  -16.7989 C   0  0  0  0  0  0  0  0  0  0  0  0
   25.5687  -15.8018  -16.0492 C   0  0  0  0  0  0  0  0  0  0  0  0
   24.5384  -16.8859  -15.9257 C   0  0  0  0  0  0  0  0  0  0  0  0
   25.1365  -18.2602  -15.7166 C   0  0  2  0  0  0  0  0  0  0  0  0
   25.7654  -18.7336  -16.9307 N   0  0  0  0  0  0  0  0  0  0  0  0
   24.0674  -19.2661  -15.3224 C   0  0  0  0  0  0  0  0  0  0  0  0
   23.5432  -19.9176  -16.2618 O   0  0  0  0  0  0  0  0  0  0  0  0
   29.2853  -13.0449  -17.8399 O   0  0  0  0  0  0  0  0  0  0  0  0
   19.0457  -24.0326   -9.5925 C   0  0  0  0  0  0  0  0  0  0  0  0
   20.0210  -23.2042  -10.1693 C   0  0  0  0  0  0  0  0  0  0  0  0
   20.3186  -21.9590   -9.6671 C   0  0  0  0  0  0  0  0  0  0  0  0
   21.2855  -21.1724  -10.2707 C   0  0  0  0  0  0  0  0  0  0  0  0
   21.9748  -21.6207  -11.3925 C   0  0  0  0  0  0  0  0  0  0  0  0
   22.9329  -20.7430  -12.0568 C   0  0  1  0  0  0  0  0  0  0  0  0
   22.6219  -20.3911  -13.5120 N   0  0  0  0  0  0  0  0  0  0  0  0
   23.6737  -19.4705  -14.0035 C   0  0  0  0  0  0  0  0  0  0  0  0
   21.3445  -19.7310  -13.7201 O   0  0  0  0  0  0  0  0  0  0  0  0
   21.1946  -18.5054  -13.3083 C   0  0  0  0  0  0  0  0  0  0  0  0
   21.6586  -22.8602  -11.8623 C   0  0  0  0  0  0  0  0  0  0  0  0
   20.6967  -23.6710  -11.2824 N   0  0  0  0  0  0  0  0  0  0  0  0
   16.1436  -16.9773  -19.9265 C   0  0  0  0  0  0  0  0  0  0  0  0
   15.3477  -16.7505  -18.7830 N   0  0  0  0  0  0  0  0  0  0  0  0
   14.2885  -16.0274  -18.8955 N   0  0  0  0  0  0  0  0  0  0  0  0
   15.6832  -17.2958  -17.4966 C   0  0  0  0  0  0  0  0  0  0  0  0
   16.9538  -17.9729  -17.3756 C   0  0  0  0  0  0  0  0  0  0  0  0
   17.2924  -18.4430  -15.9939 C   0  0  0  0  0  0  0  0  0  0  0  0
   18.6342  -19.1124  -15.8824 C   0  0  1  0  0  0  0  0  0  0  0  0
   18.9606  -19.4785  -14.4386 N   0  0  0  0  0  0  0  0  0  0  0  0
   20.1956  -20.2711  -14.3405 C   0  0  0  0  0  0  0  0  0  0  0  0
   17.8663  -20.2435  -13.8369 O   0  0  0  0  0  0  0  0  0  0  0  0
   17.8811  -21.5017  -13.8825 O   0  0  0  0  0  0  0  0  0  0  0  0
  2  3  2  0
  2  1  1  0
  4  2  1  0
  5  4  1  0
  6  5  1  0
  7  8  1  0
  7  6  1  0
  8 10  1  0
  8  9  1  6
 10 11  2  0
 12 13  1  0
 13 14  2  0
 13 23  1  0
 14 15  1  0
 15 16  2  0
 16 17  1  0
 18 17  1  6
 19 10  1  0
 19 18  1  0
 20 18  1  0
 20 32  1  0
 21 20  2  0
 22 16  1  0
 23 22  2  0
 24 25  1  0
 25 27  1  0
 26 25  2  0
 27 28  1  0
 29 28  1  0
 30 29  1  0
 31 33  1  0
 31 32  1  0
 31 30  1  1
 33 35  1  0
 34 33  2  0
M  END
$$$$
