RYR.pdb
     RDKit          3D

 35 35  0  0  1  0  0  0  0  0999 V2000
   25.4439  -21.9634  -21.9610 N   0  0  0  0  0  0  0  0  0  0  0  0
   24.3457  -21.2164  -21.4635 C   0  0  0  0  0  0  0  0  0  0  0  0
   23.2118  -21.1342  -22.0471 N   0  0  0  0  0  0  0  0  0  0  0  0
   24.5409  -20.5264  -20.2174 N   0  0  0  0  0  0  0  0  0  0  0  0
   25.6364  -20.9082  -19.3376 C   0  0  0  0  0  0  0  0  0  0  0  0
   25.4891  -22.2692  -18.7636 C   0  0  0  0  0  0  0  0  0  0  0  0
   25.1713  -22.3613  -17.2999 C   0  0  0  0  0  0  0  0  0  0  0  0
   26.3255  -21.9559  -16.4092 C   0  0  2  0  0  0  0  0  0  0  0  0
   27.4925  -22.7655  -16.6852 N   0  0  0  0  0  0  0  0  0  0  0  0
   25.9709  -22.1338  -14.9419 C   0  0  0  0  0  0  0  0  0  0  0  0
   25.9219  -23.3179  -14.5212 O   0  0  0  0  0  0  0  0  0  0  0  0
   22.3843  -20.6138  -21.7704 O   0  0  0  0  0  0  0  0  0  0  0  0
   31.8121  -21.2077  -10.9691 C   0  0  0  0  0  0  0  0  0  0  0  0
   30.4710  -20.9115  -11.2589 C   0  0  0  0  0  0  0  0  0  0  0  0
   30.1111  -20.0145  -12.2372 C   0  0  0  0  0  0  0  0  0  0  0  0
   28.7751  -19.7483  -12.4871 C   0  0  0  0  0  0  0  0  0  0  0  0
   27.7716  -20.3786  -11.7589 C   0  0  0  0  0  0  0  0  0  0  0  0
   26.3745  -20.0237  -11.9871 C   0  0  2  0  0  0  0  0  0  0  0  0
   25.5045  -21.1061  -12.6270 N   0  0  0  0  0  0  0  0  0  0  0  0
   25.7101  -21.0621  -14.0937 C   0  0  0  0  0  0  0  0  0  0  0  0
   24.0784  -20.9609  -12.3906 O   0  0  0  0  0  0  0  0  0  0  0  0
   23.4159  -20.0667  -13.0658 C   0  0  0  0  0  0  0  0  0  0  0  0
   28.1621  -21.2644  -10.7998 C   0  0  0  0  0  0  0  0  0  0  0  0
   29.4890  -21.5520  -10.5249 N   0  0  0  0  0  0  0  0  0  0  0  0
   18.0677  -25.5656  -10.2665 C   0  0  0  0  0  0  0  0  0  0  0  0
   17.2990  -24.4082  -10.0173 N   0  0  0  0  0  0  0  0  0  0  0  0
   16.0165  -24.5111   -9.9710 N   0  0  0  0  0  0  0  0  0  0  0  0
   17.9001  -23.1184   -9.8184 C   0  0  0  0  0  0  0  0  0  0  0  0
   19.3346  -23.0271   -9.9644 C   0  0  0  0  0  0  0  0  0  0  0  0
   19.9061  -21.6564   -9.7654 C   0  0  0  0  0  0  0  0  0  0  0  0
   21.4049  -21.5930   -9.8669 C   0  0  2  0  0  0  0  0  0  0  0  0
   21.8613  -21.3715  -11.3049 N   0  0  0  0  0  0  0  0  0  0  0  0
   23.2838  -21.6987  -11.4845 C   0  0  0  0  0  0  0  0  0  0  0  0
   21.6480  -19.9800  -11.7087 O   0  0  0  0  0  0  0  0  0  0  0  0
   22.3581  -19.0666  -11.2117 O   0  0  0  0  0  0  0  0  0  0  0  0
  2  3  2  0
  2  1  1  0
  4  2  1  0
  5  4  1  0
  6  5  1  0
  7  8  1  0
  7  6  1  0
  8 10  1  0
  8  9  1  6
 10 11  2  0
 12 13  1  0
 13 14  2  0
 13 23  1  0
 14 15  1  0
 15 16  2  0
 16 17  1  0
 18 17  1  1
 19 10  1  0
 19 18  1  0
 20 18  1  0
 20 32  1  0
 21 20  2  0
 22 16  1  0
 23 22  2  0
 24 25  1  0
 25 27  1  0
 26 25  2  0
 27 28  1  0
 29 28  1  0
 30 29  1  0
 31 33  1  0
 31 32  1  0
 31 30  1  6
 33 35  1  0
 34 33  2  0
M  END
$$$$
