RYR.pdb
     RDKit          3D

 35 35  0  0  1  0  0  0  0  0999 V2000
   26.7956  -17.6942  -19.9499 N   0  0  0  0  0  0  0  0  0  0  0  0
   26.1166  -16.9857  -18.9260 C   0  0  0  0  0  0  0  0  0  0  0  0
   25.0403  -16.3210  -19.1070 N   0  0  0  0  0  0  0  0  0  0  0  0
   26.6880  -17.0431  -17.6079 N   0  0  0  0  0  0  0  0  0  0  0  0
   27.7102  -18.0331  -17.3001 C   0  0  0  0  0  0  0  0  0  0  0  0
   27.2676  -19.4321  -17.5246 C   0  0  0  0  0  0  0  0  0  0  0  0
   26.8507  -20.2178  -16.3159 C   0  0  0  0  0  0  0  0  0  0  0  0
   28.0167  -20.6735  -15.4657 C   0  0  2  0  0  0  0  0  0  0  0  0
   28.7075  -21.7777  -16.0959 N   0  0  0  0  0  0  0  0  0  0  0  0
   27.5454  -21.1382  -14.0975 C   0  0  0  0  0  0  0  0  0  0  0  0
   26.8968  -22.2153  -14.0688 O   0  0  0  0  0  0  0  0  0  0  0  0
   24.5157  -15.7569  -18.4447 O   0  0  0  0  0  0  0  0  0  0  0  0
   33.1827  -23.6065  -10.7478 C   0  0  0  0  0  0  0  0  0  0  0  0
   32.0196  -22.8207  -10.7471 C   0  0  0  0  0  0  0  0  0  0  0  0
   31.7465  -21.9106  -11.7412 C   0  0  0  0  0  0  0  0  0  0  0  0
   30.5885  -21.1521  -11.6986 C   0  0  0  0  0  0  0  0  0  0  0  0
   29.6793  -21.2924  -10.6553 C   0  0  0  0  0  0  0  0  0  0  0  0
   28.5057  -20.4273  -10.5916 C   0  0  2  0  0  0  0  0  0  0  0  0
   27.3685  -20.7692  -11.5548 N   0  0  0  0  0  0  0  0  0  0  0  0
   27.8039  -20.4277  -12.9293 C   0  0  0  0  0  0  0  0  0  0  0  0
   26.1268  -20.0557  -11.3099 O   0  0  0  0  0  0  0  0  0  0  0  0
   25.9065  -18.9397  -11.9426 C   0  0  0  0  0  0  0  0  0  0  0  0
   29.9781  -22.2054   -9.6888 C   0  0  0  0  0  0  0  0  0  0  0  0
   31.1274  -22.9786   -9.7018 N   0  0  0  0  0  0  0  0  0  0  0  0
   22.9757  -20.5650  -15.9666 C   0  0  0  0  0  0  0  0  0  0  0  0
   21.5835  -20.3664  -15.8450 N   0  0  0  0  0  0  0  0  0  0  0  0
   20.9747  -19.6656  -16.7370 N   0  0  0  0  0  0  0  0  0  0  0  0
   20.8242  -20.9163  -14.7561 C   0  0  0  0  0  0  0  0  0  0  0  0
   21.5488  -21.6657  -13.7558 C   0  0  0  0  0  0  0  0  0  0  0  0
   21.9309  -20.8874  -12.5339 C   0  0  0  0  0  0  0  0  0  0  0  0
   23.3617  -21.0701  -12.1094 C   0  0  2  0  0  0  0  0  0  0  0  0
   23.6778  -20.2780  -10.8454 N   0  0  0  0  0  0  0  0  0  0  0  0
   25.0820  -20.4351  -10.4375 C   0  0  0  0  0  0  0  0  0  0  0  0
   22.8197  -20.7040   -9.7377 O   0  0  0  0  0  0  0  0  0  0  0  0
   23.1147  -21.7337   -9.0757 O   0  0  0  0  0  0  0  0  0  0  0  0
  2  3  2  0
  2  1  1  0
  4  2  1  0
  5  4  1  0
  6  5  1  0
  7  8  1  0
  7  6  1  0
  8 10  1  0
  8  9  1  6
 10 11  2  0
 12 13  1  0
 13 14  2  0
 13 23  1  0
 14 15  1  0
 15 16  2  0
 16 17  1  0
 18 17  1  6
 19 10  1  0
 19 18  1  0
 20 18  1  0
 20 32  1  0
 21 20  2  0
 22 16  1  0
 23 22  2  0
 24 25  1  0
 25 27  1  0
 26 25  2  0
 27 28  1  0
 29 28  1  0
 30 29  1  0
 31 33  1  0
 31 32  1  0
 31 30  1  6
 33 35  1  0
 34 33  2  0
M  END
$$$$
