YMH.pdb
     RDKit          3D

 31 32  0  0  1  0  0  0  0  0999 V2000
    7.6753  -13.7479   14.3804 O   0  0  0  0  0  0  0  0  0  0  0  0
    7.6771  -14.0932   15.7376 C   0  0  0  0  0  0  0  0  0  0  0  0
    7.9028  -13.0887   16.6674 C   0  0  0  0  0  0  0  0  0  0  0  0
    7.9102  -13.3998   18.0131 C   0  0  0  0  0  0  0  0  0  0  0  0
    7.7012  -14.6776   18.4811 C   0  0  0  0  0  0  0  0  0  0  0  0
    7.7129  -14.9916   19.9344 C   0  0  0  0  0  0  0  0  0  0  0  0
    9.0351  -14.6677   20.5691 C   0  0  2  0  0  0  0  0  0  0  0  0
   10.1123  -15.3927   19.9232 N   0  0  0  0  0  0  0  0  0  0  0  0
    9.0869  -14.9127   22.0041 C   0  0  0  0  0  0  0  0  0  0  0  0
    9.9060  -15.8002   22.4156 O   0  0  0  0  0  0  0  0  0  0  0  0
    7.4783  -15.6598   17.5226 C   0  0  0  0  0  0  0  0  0  0  0  0
    7.4667  -15.3719   16.1768 C   0  0  0  0  0  0  0  0  0  0  0  0
    5.2139  -11.6497   26.2787 C   0  0  0  0  0  0  0  0  0  0  0  0
    6.6866  -11.9569   27.2695 S   0  0  0  0  0  0  0  0  0  0  0  0
    7.6374  -13.3670   26.5759 C   0  0  0  0  0  0  0  0  0  0  0  0
    7.6989  -13.2942   25.0968 C   0  0  0  0  0  0  0  0  0  0  0  0
    8.4122  -14.4289   24.4038 C   0  0  2  0  0  0  0  0  0  0  0  0
    8.2904  -14.2295   22.9423 N   0  0  0  0  0  0  0  0  0  0  0  0
    7.9142  -15.7624   24.7377 C   0  0  0  0  0  0  0  0  0  0  0  0
    6.6598  -15.9225   24.8246 O   0  0  0  0  0  0  0  0  0  0  0  0
    8.6950  -16.9088   24.9713 N   0  0  0  0  0  0  0  0  0  0  0  0
    9.5187  -16.9834   26.1975 C   0  0  1  0  0  0  0  0  0  0  0  0
    9.7397  -15.5582   26.7045 C   0  0  0  0  0  0  0  0  0  0  0  0
   10.3868  -15.6110   28.0270 C   0  0  0  0  0  0  0  0  0  0  0  0
   10.6992  -16.7941   28.7212 C   0  0  0  0  0  0  0  0  0  0  0  0
   11.2778  -16.4720   29.8874 N   0  0  0  0  0  0  0  0  0  0  0  0
   11.3436  -15.1396   29.9586 C   0  0  0  0  0  0  0  0  0  0  0  0
   10.8083  -14.6461   28.8419 N   0  0  0  0  0  0  0  0  0  0  0  0
    8.6598  -17.6677   27.1862 C   0  0  0  0  0  0  0  0  0  0  0  0
    9.1210  -18.6358   27.8380 O   0  0  0  0  0  0  0  0  0  0  0  0
    7.3745  -17.3008   27.4359 O   0  0  0  0  0  0  0  0  0  0  0  0
  2  1  1  0
  3  2  2  0
  4  3  1  0
  5 11  1  0
  5  4  2  0
  6  5  1  0
  7  9  1  0
  7  6  1  0
  7  8  1  6
  9 10  2  0
 11 12  2  0
 12  2  1  0
 13 14  1  0
 14 15  1  0
 16 15  1  0
 17 16  1  1
 18  9  1  0
 18 17  1  0
 19 21  1  0
 19 17  1  0
 20 19  2  0
 22 29  1  0
 22 21  1  0
 22 23  1  1
 23 24  1  0
 24 25  2  0
 24 28  1  0
 25 26  1  0
 26 27  1  0
 28 27  2  0
 29 31  1  0
 30 29  2  0
M  END
$$$$
