YMH.pdb
     RDKit          3D

 31 32  0  0  1  0  0  0  0  0999 V2000
    7.6301  -14.1163   15.7026 O   0  0  0  0  0  0  0  0  0  0  0  0
    7.9953  -13.9804   17.0478 C   0  0  0  0  0  0  0  0  0  0  0  0
    8.9306  -14.8656   17.5638 C   0  0  0  0  0  0  0  0  0  0  0  0
    9.3100  -14.7555   18.8873 C   0  0  0  0  0  0  0  0  0  0  0  0
    8.7964  -13.7953   19.7297 C   0  0  0  0  0  0  0  0  0  0  0  0
    9.2185  -13.6935   21.1518 C   0  0  0  0  0  0  0  0  0  0  0  0
    9.2646  -15.0367   21.8222 C   0  0  2  0  0  0  0  0  0  0  0  0
    8.1509  -15.8652   21.4018 N   0  0  0  0  0  0  0  0  0  0  0  0
    9.2951  -14.9793   23.2775 C   0  0  0  0  0  0  0  0  0  0  0  0
   10.3678  -14.5549   23.8226 O   0  0  0  0  0  0  0  0  0  0  0  0
    7.8617  -12.9249   19.1804 C   0  0  0  0  0  0  0  0  0  0  0  0
    7.4694  -13.0166   17.8643 C   0  0  0  0  0  0  0  0  0  0  0  0
    7.1459  -11.2312   27.4594 C   0  0  0  0  0  0  0  0  0  0  0  0
    5.8463  -12.2028   26.6773 S   0  0  0  0  0  0  0  0  0  0  0  0
    6.5649  -13.3288   25.4166 C   0  0  0  0  0  0  0  0  0  0  0  0
    6.9210  -14.6390   26.0110 C   0  0  0  0  0  0  0  0  0  0  0  0
    8.2361  -15.2338   25.5712 C   0  0  2  0  0  0  0  0  0  0  0  0
    8.2168  -15.3629   24.0970 N   0  0  0  0  0  0  0  0  0  0  0  0
    8.5439  -16.5400   26.1518 C   0  0  0  0  0  0  0  0  0  0  0  0
    8.5406  -16.6432   27.4152 O   0  0  0  0  0  0  0  0  0  0  0  0
    8.8431  -17.7171   25.4424 N   0  0  0  0  0  0  0  0  0  0  0  0
    9.2673  -18.9215   26.1888 C   0  0  1  0  0  0  0  0  0  0  0  0
    9.1015  -20.1300   25.2673 C   0  0  0  0  0  0  0  0  0  0  0  0
    7.7155  -20.1709   24.7694 C   0  0  0  0  0  0  0  0  0  0  0  0
    6.5685  -20.0781   25.5789 C   0  0  0  0  0  0  0  0  0  0  0  0
    5.4805  -20.1514   24.7983 N   0  0  0  0  0  0  0  0  0  0  0  0
    5.8907  -20.2861   23.5341 C   0  0  0  0  0  0  0  0  0  0  0  0
    7.2237  -20.2956   23.5384 N   0  0  0  0  0  0  0  0  0  0  0  0
   10.7173  -18.7374   26.4066 C   0  0  0  0  0  0  0  0  0  0  0  0
   11.2868  -17.7220   25.9382 O   0  0  0  0  0  0  0  0  0  0  0  0
   11.4840  -19.6211   27.0996 O   0  0  0  0  0  0  0  0  0  0  0  0
  2  1  1  0
  3  2  2  0
  4  3  1  0
  5 11  1  0
  5  4  2  0
  6  5  1  0
  7  9  1  0
  7  6  1  0
  7  8  1  1
  9 10  2  0
 11 12  2  0
 12  2  1  0
 13 14  1  0
 14 15  1  0
 16 15  1  0
 17 16  1  1
 18  9  1  0
 18 17  1  0
 19 21  1  0
 19 17  1  0
 20 19  2  0
 22 29  1  0
 22 21  1  0
 22 23  1  6
 23 24  1  0
 24 25  2  0
 24 28  1  0
 25 26  1  0
 26 27  1  0
 28 27  2  0
 29 31  1  0
 30 29  2  0
M  END
$$$$
