YMH.pdb
     RDKit          3D

 31 32  0  0  1  0  0  0  0  0999 V2000
    7.4820  -14.6415   15.3114 O   0  0  0  0  0  0  0  0  0  0  0  0
    8.0440  -14.5024   16.5865 C   0  0  0  0  0  0  0  0  0  0  0  0
    7.3240  -13.8050   17.5457 C   0  0  0  0  0  0  0  0  0  0  0  0
    7.8534  -13.6519   18.8121 C   0  0  0  0  0  0  0  0  0  0  0  0
    9.0788  -14.1660   19.1720 C   0  0  0  0  0  0  0  0  0  0  0  0
    9.6309  -13.9902   20.5414 C   0  0  0  0  0  0  0  0  0  0  0  0
    9.5412  -15.2525   21.3502 C   0  0  2  0  0  0  0  0  0  0  0  0
    8.3250  -15.9804   21.0430 N   0  0  0  0  0  0  0  0  0  0  0  0
    9.6257  -15.0488   22.7901 C   0  0  0  0  0  0  0  0  0  0  0  0
   10.6535  -14.4366   23.2338 O   0  0  0  0  0  0  0  0  0  0  0  0
    9.7736  -14.8589   18.1870 C   0  0  0  0  0  0  0  0  0  0  0  0
    9.2648  -15.0233   16.9187 C   0  0  0  0  0  0  0  0  0  0  0  0
    5.8920  -11.6728   28.4702 C   0  0  0  0  0  0  0  0  0  0  0  0
    5.9345  -12.4495   26.8454 S   0  0  0  0  0  0  0  0  0  0  0  0
    7.3625  -13.5985   26.7266 C   0  0  0  0  0  0  0  0  0  0  0  0
    7.4828  -14.1621   25.3611 C   0  0  0  0  0  0  0  0  0  0  0  0
    8.6391  -15.1034   25.1292 C   0  0  2  0  0  0  0  0  0  0  0  0
    8.6450  -15.4872   23.6998 N   0  0  0  0  0  0  0  0  0  0  0  0
    8.6131  -16.3195   25.9406 C   0  0  0  0  0  0  0  0  0  0  0  0
    8.4795  -16.1928   27.1948 O   0  0  0  0  0  0  0  0  0  0  0  0
    8.7170  -17.6396   25.4664 N   0  0  0  0  0  0  0  0  0  0  0  0
    8.6676  -18.7592   26.4316 C   0  0  1  0  0  0  0  0  0  0  0  0
    8.4550  -20.0518   25.6437 C   0  0  0  0  0  0  0  0  0  0  0  0
    7.4644  -19.8117   24.5800 C   0  0  0  0  0  0  0  0  0  0  0  0
    6.0710  -19.7805   24.7727 C   0  0  0  0  0  0  0  0  0  0  0  0
    5.4763  -19.5392   23.5952 N   0  0  0  0  0  0  0  0  0  0  0  0
    6.4322  -19.4170   22.6701 C   0  0  0  0  0  0  0  0  0  0  0  0
    7.6079  -19.5824   23.2763 N   0  0  0  0  0  0  0  0  0  0  0  0
   10.0274  -18.8199   27.0067 C   0  0  0  0  0  0  0  0  0  0  0  0
   10.9440  -18.1318   26.4958 O   0  0  0  0  0  0  0  0  0  0  0  0
   10.3483  -19.5923   28.0789 O   0  0  0  0  0  0  0  0  0  0  0  0
  2  1  1  0
  3  2  2  0
  4  3  1  0
  5 11  1  0
  5  4  2  0
  6  5  1  0
  7  9  1  0
  7  6  1  0
  7  8  1  1
  9 10  2  0
 11 12  2  0
 12  2  1  0
 13 14  1  0
 14 15  1  0
 16 15  1  0
 17 16  1  6
 18  9  1  0
 18 17  1  0
 19 21  1  0
 19 17  1  0
 20 19  2  0
 22 29  1  0
 22 21  1  0
 22 23  1  6
 23 24  1  0
 24 25  2  0
 24 28  1  0
 25 26  1  0
 26 27  1  0
 28 27  2  0
 29 31  1  0
 30 29  2  0
M  END
$$$$
