YMH.pdb
     RDKit          3D

 31 32  0  0  1  0  0  0  0  0999 V2000
    7.5736  -14.0697   15.1851 O   0  0  0  0  0  0  0  0  0  0  0  0
    7.9627  -14.0142   16.5293 C   0  0  0  0  0  0  0  0  0  0  0  0
    7.3184  -13.1085   17.3594 C   0  0  0  0  0  0  0  0  0  0  0  0
    7.6811  -13.0317   18.6899 C   0  0  0  0  0  0  0  0  0  0  0  0
    8.6656  -13.8227   19.2381 C   0  0  0  0  0  0  0  0  0  0  0  0
    9.0410  -13.7246   20.6735 C   0  0  0  0  0  0  0  0  0  0  0  0
    8.9398  -15.0498   21.3731 C   0  0  2  0  0  0  0  0  0  0  0  0
    7.6349  -15.6478   21.1658 N   0  0  0  0  0  0  0  0  0  0  0  0
    9.2196  -14.9961   22.8017 C   0  0  0  0  0  0  0  0  0  0  0  0
   10.3654  -14.5609   23.1562 O   0  0  0  0  0  0  0  0  0  0  0  0
    9.2907  -14.7191   18.3785 C   0  0  0  0  0  0  0  0  0  0  0  0
    8.9449  -14.8122   17.0496 C   0  0  0  0  0  0  0  0  0  0  0  0
    7.4460  -11.7730   27.8586 C   0  0  0  0  0  0  0  0  0  0  0  0
    6.1846  -12.2946   26.6832 S   0  0  0  0  0  0  0  0  0  0  0  0
    6.9335  -13.3299   25.3638 C   0  0  0  0  0  0  0  0  0  0  0  0
    7.3610  -14.6458   25.8950 C   0  0  0  0  0  0  0  0  0  0  0  0
    8.5722  -15.2653   25.2422 C   0  0  2  0  0  0  0  0  0  0  0  0
    8.3026  -15.3943   23.7927 N   0  0  0  0  0  0  0  0  0  0  0  0
    8.9493  -16.5769   25.7671 C   0  0  0  0  0  0  0  0  0  0  0  0
    8.0659  -17.4858   25.7824 O   0  0  0  0  0  0  0  0  0  0  0  0
   10.2141  -16.9443   26.2606 N   0  0  0  0  0  0  0  0  0  0  0  0
   10.4064  -18.3025   26.8135 C   0  0  1  0  0  0  0  0  0  0  0  0
   11.8694  -18.6938   26.6045 C   0  0  0  0  0  0  0  0  0  0  0  0
   12.1365  -18.8106   25.1604 C   0  0  0  0  0  0  0  0  0  0  0  0
   11.1544  -19.0322   24.1777 C   0  0  0  0  0  0  0  0  0  0  0  0
   11.7480  -19.0847   22.9763 N   0  0  0  0  0  0  0  0  0  0  0  0
   13.0593  -18.9062   23.1583 C   0  0  0  0  0  0  0  0  0  0  0  0
   13.2699  -18.7448   24.4648 N   0  0  0  0  0  0  0  0  0  0  0  0
   10.2019  -18.1483   28.2689 C   0  0  0  0  0  0  0  0  0  0  0  0
   10.0058  -17.0043   28.7459 O   0  0  0  0  0  0  0  0  0  0  0  0
   10.2129  -19.1949   29.1370 O   0  0  0  0  0  0  0  0  0  0  0  0
  2  1  1  0
  3  2  2  0
  4  3  1  0
  5 11  1  0
  5  4  2  0
  6  5  1  0
  7  9  1  0
  7  6  1  0
  7  8  1  1
  9 10  2  0
 11 12  2  0
 12  2  1  0
 13 14  1  0
 14 15  1  0
 16 15  1  0
 17 16  1  1
 18  9  1  0
 18 17  1  0
 19 21  1  0
 19 17  1  0
 20 19  2  0
 22 29  1  0
 22 21  1  0
 22 23  1  1
 23 24  1  0
 24 25  2  0
 24 28  1  0
 25 26  1  0
 26 27  1  0
 28 27  2  0
 29 31  1  0
 30 29  2  0
M  END
$$$$
