YMH.pdb
     RDKit          3D

 31 32  0  0  1  0  0  0  0  0999 V2000
   11.1530  -17.7520   16.8939 O   0  0  0  0  0  0  0  0  0  0  0  0
   10.0720  -17.1292   17.5300 C   0  0  0  0  0  0  0  0  0  0  0  0
    9.5994  -15.9377   16.9996 C   0  0  0  0  0  0  0  0  0  0  0  0
    8.5343  -15.3009   17.6059 C   0  0  0  0  0  0  0  0  0  0  0  0
    7.9112  -15.8003   18.7274 C   0  0  0  0  0  0  0  0  0  0  0  0
    6.7655  -15.0992   19.3651 C   0  0  0  0  0  0  0  0  0  0  0  0
    7.1717  -13.7790   19.9549 C   0  0  2  0  0  0  0  0  0  0  0  0
    8.0187  -13.0398   19.0386 N   0  0  0  0  0  0  0  0  0  0  0  0
    7.8378  -13.8794   21.2465 C   0  0  0  0  0  0  0  0  0  0  0  0
    9.1111  -13.7966   21.2547 O   0  0  0  0  0  0  0  0  0  0  0  0
    8.4098  -16.9957   19.2329 C   0  0  0  0  0  0  0  0  0  0  0  0
    9.4701  -17.6469   18.6445 C   0  0  0  0  0  0  0  0  0  0  0  0
    7.8011  -11.4555   28.1328 C   0  0  0  0  0  0  0  0  0  0  0  0
    6.5464  -12.4002   27.2508 S   0  0  0  0  0  0  0  0  0  0  0  0
    7.3345  -13.7127   26.2359 C   0  0  0  0  0  0  0  0  0  0  0  0
    6.8519  -13.6674   24.8353 C   0  0  0  0  0  0  0  0  0  0  0  0
    7.8404  -14.0909   23.7769 C   0  0  2  0  0  0  0  0  0  0  0  0
    7.1563  -14.0602   22.4648 N   0  0  0  0  0  0  0  0  0  0  0  0
    8.4183  -15.4196   23.9729 C   0  0  0  0  0  0  0  0  0  0  0  0
    7.7101  -16.4254   23.6670 O   0  0  0  0  0  0  0  0  0  0  0  0
    9.7034  -15.7040   24.4689 N   0  0  0  0  0  0  0  0  0  0  0  0
   10.1168  -17.1142   24.6359 C   0  0  1  0  0  0  0  0  0  0  0  0
   11.5383  -17.2564   24.0917 C   0  0  0  0  0  0  0  0  0  0  0  0
   12.0368  -18.6101   24.3908 C   0  0  0  0  0  0  0  0  0  0  0  0
   11.2447  -19.6698   24.8693 C   0  0  0  0  0  0  0  0  0  0  0  0
   12.0205  -20.7516   25.0311 N   0  0  0  0  0  0  0  0  0  0  0  0
   13.2651  -20.4208   24.6760 C   0  0  0  0  0  0  0  0  0  0  0  0
   13.2537  -19.1425   24.2982 N   0  0  0  0  0  0  0  0  0  0  0  0
   10.1898  -17.3138   26.0983 C   0  0  0  0  0  0  0  0  0  0  0  0
   10.2306  -16.3139   26.8555 O   0  0  0  0  0  0  0  0  0  0  0  0
   10.2146  -18.5419   26.6815 O   0  0  0  0  0  0  0  0  0  0  0  0
  2  1  1  0
  3  2  2  0
  4  3  1  0
  5 11  1  0
  5  4  2  0
  6  5  1  0
  7  9  1  0
  7  6  1  0
  7  8  1  6
  9 10  2  0
 11 12  2  0
 12  2  1  0
 13 14  1  0
 14 15  1  0
 16 15  1  0
 17 16  1  1
 18  9  1  0
 18 17  1  0
 19 21  1  0
 19 17  1  0
 20 19  2  0
 22 29  1  0
 22 21  1  0
 22 23  1  6
 23 24  1  0
 24 25  2  0
 24 28  1  0
 25 26  1  0
 26 27  1  0
 28 27  2  0
 29 31  1  0
 30 29  2  0
M  END
$$$$
