YMH.pdb
     RDKit          3D

 31 32  0  0  1  0  0  0  0  0999 V2000
    7.2015  -13.1827   15.9643 O   0  0  0  0  0  0  0  0  0  0  0  0
    7.3519  -13.6253   17.2844 C   0  0  0  0  0  0  0  0  0  0  0  0
    7.6366  -12.6825   18.2615 C   0  0  0  0  0  0  0  0  0  0  0  0
    7.7903  -13.0899   19.5722 C   0  0  0  0  0  0  0  0  0  0  0  0
    7.6725  -14.4058   19.9596 C   0  0  0  0  0  0  0  0  0  0  0  0
    7.8414  -14.8237   21.3765 C   0  0  0  0  0  0  0  0  0  0  0  0
    9.2612  -14.6718   21.8423 C   0  0  2  0  0  0  0  0  0  0  0  0
   10.1935  -14.9955   20.7795 N   0  0  0  0  0  0  0  0  0  0  0  0
    9.5915  -15.4573   23.0237 C   0  0  0  0  0  0  0  0  0  0  0  0
   10.8284  -15.6018   23.3017 O   0  0  0  0  0  0  0  0  0  0  0  0
    7.3869  -15.3242   18.9555 C   0  0  0  0  0  0  0  0  0  0  0  0
    7.2298  -14.9400   17.6432 C   0  0  0  0  0  0  0  0  0  0  0  0
    5.6152  -11.5431   25.9877 C   0  0  0  0  0  0  0  0  0  0  0  0
    7.3414  -11.7949   26.4369 S   0  0  0  0  0  0  0  0  0  0  0  0
    7.7054  -13.5892   26.5838 C   0  0  0  0  0  0  0  0  0  0  0  0
    8.1108  -14.1610   25.2779 C   0  0  0  0  0  0  0  0  0  0  0  0
    8.4076  -15.6403   25.2626 C   0  0  2  0  0  0  0  0  0  0  0  0
    8.6285  -16.0544   23.8590 N   0  0  0  0  0  0  0  0  0  0  0  0
    7.3613  -16.4826   25.8403 C   0  0  0  0  0  0  0  0  0  0  0  0
    6.4597  -15.9188   26.5303 O   0  0  0  0  0  0  0  0  0  0  0  0
    7.2447  -17.8776   25.7035 N   0  0  0  0  0  0  0  0  0  0  0  0
    8.4496  -18.7212   25.8590 C   0  0  1  0  0  0  0  0  0  0  0  0
    9.6230  -17.9927   25.2037 C   0  0  0  0  0  0  0  0  0  0  0  0
   10.8186  -18.8515   25.2630 C   0  0  0  0  0  0  0  0  0  0  0  0
   10.8630  -20.1256   25.8580 C   0  0  0  0  0  0  0  0  0  0  0  0
   12.1032  -20.6198   25.7311 N   0  0  0  0  0  0  0  0  0  0  0  0
   12.8414  -19.7144   25.0831 C   0  0  0  0  0  0  0  0  0  0  0  0
   12.0586  -18.6696   24.8135 N   0  0  0  0  0  0  0  0  0  0  0  0
    8.7090  -18.7416   27.3136 C   0  0  0  0  0  0  0  0  0  0  0  0
    9.3461  -17.7969   27.8393 O   0  0  0  0  0  0  0  0  0  0  0  0
    8.2878  -19.7436   28.1307 O   0  0  0  0  0  0  0  0  0  0  0  0
  2  1  1  0
  3  2  2  0
  4  3  1  0
  5 11  1  0
  5  4  2  0
  6  5  1  0
  7  9  1  0
  7  6  1  0
  7  8  1  6
  9 10  2  0
 11 12  2  0
 12  2  1  0
 13 14  1  0
 14 15  1  0
 16 15  1  0
 17 16  1  6
 18  9  1  0
 18 17  1  0
 19 21  1  0
 19 17  1  0
 20 19  2  0
 22 29  1  0
 22 21  1  0
 22 23  1  6
 23 24  1  0
 24 25  2  0
 24 28  1  0
 25 26  1  0
 26 27  1  0
 28 27  2  0
 29 31  1  0
 30 29  2  0
M  END
$$$$
