YMH.pdb
     RDKit          3D

 31 32  0  0  1  0  0  0  0  0999 V2000
    8.4598  -20.7979   15.8633 O   0  0  0  0  0  0  0  0  0  0  0  0
    8.7562  -20.1517   17.0698 C   0  0  0  0  0  0  0  0  0  0  0  0
    8.9559  -20.9336   18.1983 C   0  0  0  0  0  0  0  0  0  0  0  0
    9.2498  -20.3237   19.4021 C   0  0  0  0  0  0  0  0  0  0  0  0
    9.3552  -18.9576   19.5364 C   0  0  0  0  0  0  0  0  0  0  0  0
    9.6728  -18.3206   20.8419 C   0  0  0  0  0  0  0  0  0  0  0  0
    9.5520  -16.8247   20.7819 C   0  0  2  0  0  0  0  0  0  0  0  0
   10.5117  -16.2634   19.8507 N   0  0  0  0  0  0  0  0  0  0  0  0
    9.6913  -16.1602   22.0707 C   0  0  0  0  0  0  0  0  0  0  0  0
   10.8756  -15.9835   22.5114 O   0  0  0  0  0  0  0  0  0  0  0  0
    9.1492  -18.2042   18.3862 C   0  0  0  0  0  0  0  0  0  0  0  0
    8.8554  -18.7912   17.1764 C   0  0  0  0  0  0  0  0  0  0  0  0
    7.3223  -11.0495   27.2873 C   0  0  0  0  0  0  0  0  0  0  0  0
    7.3258  -11.8010   25.6503 S   0  0  0  0  0  0  0  0  0  0  0  0
    7.4468  -13.6285   25.7894 C   0  0  0  0  0  0  0  0  0  0  0  0
    7.5199  -14.2626   24.4518 C   0  0  0  0  0  0  0  0  0  0  0  0
    8.7554  -15.0820   24.1705 C   0  0  2  0  0  0  0  0  0  0  0  0
    8.6011  -15.7116   22.8400 N   0  0  0  0  0  0  0  0  0  0  0  0
    9.0360  -16.1272   25.1537 C   0  0  0  0  0  0  0  0  0  0  0  0
    8.2120  -17.0854   25.2522 O   0  0  0  0  0  0  0  0  0  0  0  0
   10.1476  -16.1851   26.0135 N   0  0  0  0  0  0  0  0  0  0  0  0
   10.3307  -17.3715   26.8775 C   0  0  1  0  0  0  0  0  0  0  0  0
   11.8318  -17.5846   27.0738 C   0  0  0  0  0  0  0  0  0  0  0  0
   12.3837  -18.2569   25.8847 C   0  0  0  0  0  0  0  0  0  0  0  0
   11.6262  -18.6774   24.7762 C   0  0  0  0  0  0  0  0  0  0  0  0
   12.4467  -19.2491   23.8827 N   0  0  0  0  0  0  0  0  0  0  0  0
   13.6864  -19.2075   24.3787 C   0  0  0  0  0  0  0  0  0  0  0  0
   13.6275  -18.6133   25.5706 N   0  0  0  0  0  0  0  0  0  0  0  0
    9.7740  -16.9724   28.1869 C   0  0  0  0  0  0  0  0  0  0  0  0
    9.7636  -17.7999   29.1302 O   0  0  0  0  0  0  0  0  0  0  0  0
    9.2639  -15.7362   28.4332 O   0  0  0  0  0  0  0  0  0  0  0  0
  2  1  1  0
  3  2  2  0
  4  3  1  0
  5 11  1  0
  5  4  2  0
  6  5  1  0
  7  9  1  0
  7  6  1  0
  7  8  1  6
  9 10  2  0
 11 12  2  0
 12  2  1  0
 13 14  1  0
 14 15  1  0
 16 15  1  0
 17 16  1  1
 18  9  1  0
 18 17  1  0
 19 21  1  0
 19 17  1  0
 20 19  2  0
 22 29  1  0
 22 21  1  0
 22 23  1  1
 23 24  1  0
 24 25  2  0
 24 28  1  0
 25 26  1  0
 26 27  1  0
 28 27  2  0
 29 31  1  0
 30 29  2  0
M  END
$$$$
