YMH.pdb
     RDKit          3D

 31 32  0  0  1  0  0  0  0  0999 V2000
   11.1008  -19.9487   16.2795 O   0  0  0  0  0  0  0  0  0  0  0  0
   11.0474  -19.4012   17.5674 C   0  0  0  0  0  0  0  0  0  0  0  0
   10.0068  -19.7877   18.3995 C   0  0  0  0  0  0  0  0  0  0  0  0
    9.9287  -19.2640   19.6751 C   0  0  0  0  0  0  0  0  0  0  0  0
   10.8477  -18.3642   20.1661 C   0  0  0  0  0  0  0  0  0  0  0  0
   10.7457  -17.8123   21.5430 C   0  0  0  0  0  0  0  0  0  0  0  0
   10.0417  -16.4858   21.5665 C   0  0  2  0  0  0  0  0  0  0  0  0
   10.3786  -15.6987   20.3959 N   0  0  0  0  0  0  0  0  0  0  0  0
   10.2940  -15.6947   22.7634 C   0  0  0  0  0  0  0  0  0  0  0  0
   10.8049  -14.5368   22.6009 O   0  0  0  0  0  0  0  0  0  0  0  0
   11.8773  -17.9984   19.3063 C   0  0  0  0  0  0  0  0  0  0  0  0
   11.9742  -18.5079   18.0314 C   0  0  0  0  0  0  0  0  0  0  0  0
    6.3511  -11.7855   26.7633 C   0  0  0  0  0  0  0  0  0  0  0  0
    7.5702  -12.6502   25.7579 S   0  0  0  0  0  0  0  0  0  0  0  0
    6.9101  -14.2763   25.2160 C   0  0  0  0  0  0  0  0  0  0  0  0
    7.8919  -14.9971   24.3714 C   0  0  0  0  0  0  0  0  0  0  0  0
    9.2020  -15.3528   25.0301 C   0  0  2  0  0  0  0  0  0  0  0  0
   10.0065  -16.1385   24.0679 N   0  0  0  0  0  0  0  0  0  0  0  0
    9.0780  -16.1167   26.2707 C   0  0  0  0  0  0  0  0  0  0  0  0
    8.4474  -15.5858   27.2336 O   0  0  0  0  0  0  0  0  0  0  0  0
    9.5894  -17.4049   26.5103 N   0  0  0  0  0  0  0  0  0  0  0  0
    9.4012  -18.0200   27.8421 C   0  0  1  0  0  0  0  0  0  0  0  0
    8.9538  -19.4669   27.6343 C   0  0  0  0  0  0  0  0  0  0  0  0
    9.7783  -20.0805   26.5787 C   0  0  0  0  0  0  0  0  0  0  0  0
    9.8751  -19.6057   25.2579 C   0  0  0  0  0  0  0  0  0  0  0  0
   10.7087  -20.4013   24.5718 N   0  0  0  0  0  0  0  0  0  0  0  0
   11.1410  -21.3553   25.4010 C   0  0  0  0  0  0  0  0  0  0  0  0
   10.5758  -21.1466   26.5902 N   0  0  0  0  0  0  0  0  0  0  0  0
   10.7561  -18.0648   28.4303 C   0  0  0  0  0  0  0  0  0  0  0  0
   10.9280  -18.6245   29.5402 O   0  0  0  0  0  0  0  0  0  0  0  0
   11.8481  -17.5252   27.8257 O   0  0  0  0  0  0  0  0  0  0  0  0
  2  1  1  0
  3  2  2  0
  4  3  1  0
  5 11  1  0
  5  4  2  0
  6  5  1  0
  7  9  1  0
  7  6  1  0
  7  8  1  6
  9 10  2  0
 11 12  2  0
 12  2  1  0
 13 14  1  0
 14 15  1  0
 16 15  1  0
 17 16  1  6
 18  9  1  0
 18 17  1  0
 19 21  1  0
 19 17  1  0
 20 19  2  0
 22 29  1  0
 22 21  1  0
 22 23  1  6
 23 24  1  0
 24 25  2  0
 24 28  1  0
 25 26  1  0
 26 27  1  0
 28 27  2  0
 29 31  1  0
 30 29  2  0
M  END
$$$$
