YMH.pdb
     RDKit          3D

 31 32  0  0  1  0  0  0  0  0999 V2000
    8.3674  -12.3428   16.4148 O   0  0  0  0  0  0  0  0  0  0  0  0
    8.1010  -13.0240   17.6091 C   0  0  0  0  0  0  0  0  0  0  0  0
    8.9246  -12.7801   18.6985 C   0  0  0  0  0  0  0  0  0  0  0  0
    8.6858  -13.4375   19.8894 C   0  0  0  0  0  0  0  0  0  0  0  0
    7.6545  -14.3357   20.0481 C   0  0  0  0  0  0  0  0  0  0  0  0
    7.4142  -15.0329   21.3392 C   0  0  0  0  0  0  0  0  0  0  0  0
    8.5070  -16.0115   21.6618 C   0  0  2  0  0  0  0  0  0  0  0  0
    8.7346  -16.9191   20.5538 N   0  0  0  0  0  0  0  0  0  0  0  0
    8.2794  -16.7854   22.8747 C   0  0  0  0  0  0  0  0  0  0  0  0
    8.6300  -18.0122   22.8590 O   0  0  0  0  0  0  0  0  0  0  0  0
    6.8487  -14.5567   18.9368 C   0  0  0  0  0  0  0  0  0  0  0  0
    7.0687  -13.9124   17.7406 C   0  0  0  0  0  0  0  0  0  0  0  0
    7.0750  -11.3172   28.5334 C   0  0  0  0  0  0  0  0  0  0  0  0
    6.4467  -12.5243   27.3532 S   0  0  0  0  0  0  0  0  0  0  0  0
    7.8372  -13.4456   26.5840 C   0  0  0  0  0  0  0  0  0  0  0  0
    7.3445  -14.4106   25.5728 C   0  0  0  0  0  0  0  0  0  0  0  0
    8.3904  -15.2753   24.9131 C   0  0  2  0  0  0  0  0  0  0  0  0
    7.7011  -16.2543   24.0431 N   0  0  0  0  0  0  0  0  0  0  0  0
    9.2596  -16.0010   25.8380 C   0  0  0  0  0  0  0  0  0  0  0  0
    9.9007  -15.3288   26.7005 O   0  0  0  0  0  0  0  0  0  0  0  0
    9.4585  -17.3929   25.8756 N   0  0  0  0  0  0  0  0  0  0  0  0
   10.5013  -17.9493   26.7647 C   0  0  1  0  0  0  0  0  0  0  0  0
   11.7345  -17.0513   26.6645 C   0  0  0  0  0  0  0  0  0  0  0  0
   12.4304  -17.3265   25.3954 C   0  0  0  0  0  0  0  0  0  0  0  0
   11.9290  -18.1434   24.3656 C   0  0  0  0  0  0  0  0  0  0  0  0
   12.8194  -18.1720   23.3631 N   0  0  0  0  0  0  0  0  0  0  0  0
   13.8585  -17.4100   23.7154 C   0  0  0  0  0  0  0  0  0  0  0  0
   13.6076  -16.9161   24.9279 N   0  0  0  0  0  0  0  0  0  0  0  0
    9.9570  -17.7886   28.1291 C   0  0  0  0  0  0  0  0  0  0  0  0
   10.6559  -18.1260   29.1152 O   0  0  0  0  0  0  0  0  0  0  0  0
    8.7193  -17.2853   28.3821 O   0  0  0  0  0  0  0  0  0  0  0  0
  2  1  1  0
  3  2  2  0
  4  3  1  0
  5 11  1  0
  5  4  2  0
  6  5  1  0
  7  9  1  0
  7  6  1  0
  7  8  1  6
  9 10  2  0
 11 12  2  0
 12  2  1  0
 13 14  1  0
 14 15  1  0
 16 15  1  0
 17 16  1  1
 18  9  1  0
 18 17  1  0
 19 21  1  0
 19 17  1  0
 20 19  2  0
 22 29  1  0
 22 21  1  0
 22 23  1  1
 23 24  1  0
 24 25  2  0
 24 28  1  0
 25 26  1  0
 26 27  1  0
 28 27  2  0
 29 31  1  0
 30 29  2  0
M  END
$$$$
