YMH.pdb
     RDKit          3D

 31 32  0  0  1  0  0  0  0  0999 V2000
    7.7338  -13.3600   15.3855 O   0  0  0  0  0  0  0  0  0  0  0  0
    7.7165  -13.6951   16.7451 C   0  0  0  0  0  0  0  0  0  0  0  0
    7.4203  -15.0053   17.0918 C   0  0  0  0  0  0  0  0  0  0  0  0
    7.3960  -15.3648   18.4251 C   0  0  0  0  0  0  0  0  0  0  0  0
    7.6557  -14.4715   19.4400 C   0  0  0  0  0  0  0  0  0  0  0  0
    7.6248  -14.8790   20.8696 C   0  0  0  0  0  0  0  0  0  0  0  0
    8.9938  -14.8680   21.4872 C   0  0  2  0  0  0  0  0  0  0  0  0
    9.9691  -15.4692   20.5980 N   0  0  0  0  0  0  0  0  0  0  0  0
    9.0691  -15.5177   22.7888 C   0  0  0  0  0  0  0  0  0  0  0  0
   10.1894  -16.0296   23.1219 O   0  0  0  0  0  0  0  0  0  0  0  0
    7.9488  -13.1673   19.0576 C   0  0  0  0  0  0  0  0  0  0  0  0
    7.9784  -12.7875   17.7350 C   0  0  0  0  0  0  0  0  0  0  0  0
    7.0697  -10.3235   26.7108 C   0  0  0  0  0  0  0  0  0  0  0  0
    7.1264  -12.1192   26.8419 S   0  0  0  0  0  0  0  0  0  0  0  0
    6.7140  -12.8886   25.2259 C   0  0  0  0  0  0  0  0  0  0  0  0
    6.7069  -14.3674   25.3244 C   0  0  0  0  0  0  0  0  0  0  0  0
    8.0210  -15.0585   25.0556 C   0  0  2  0  0  0  0  0  0  0  0  0
    7.9842  -15.6066   23.6814 N   0  0  0  0  0  0  0  0  0  0  0  0
    8.3464  -16.1410   25.9831 C   0  0  0  0  0  0  0  0  0  0  0  0
    8.6891  -15.8284   27.1628 O   0  0  0  0  0  0  0  0  0  0  0  0
    8.3130  -17.5184   25.7002 N   0  0  0  0  0  0  0  0  0  0  0  0
    9.5805  -18.2801   25.6704 C   0  0  1  0  0  0  0  0  0  0  0  0
   10.5802  -17.4986   24.8178 C   0  0  0  0  0  0  0  0  0  0  0  0
   11.8439  -18.2521   24.7429 C   0  0  0  0  0  0  0  0  0  0  0  0
   12.0816  -19.4860   25.3756 C   0  0  0  0  0  0  0  0  0  0  0  0
   13.3318  -19.8825   25.0958 N   0  0  0  0  0  0  0  0  0  0  0  0
   13.8917  -18.9541   24.3154 C   0  0  0  0  0  0  0  0  0  0  0  0
   12.9901  -17.9924   24.1171 N   0  0  0  0  0  0  0  0  0  0  0  0
   10.0745  -18.2424   27.0625 C   0  0  0  0  0  0  0  0  0  0  0  0
   11.1111  -18.8812   27.3662 O   0  0  0  0  0  0  0  0  0  0  0  0
    9.4594  -17.5409   28.0518 O   0  0  0  0  0  0  0  0  0  0  0  0
  2  1  1  0
  3  2  2  0
  4  3  1  0
  5 11  1  0
  5  4  2  0
  6  5  1  0
  7  9  1  0
  7  6  1  0
  7  8  1  6
  9 10  2  0
 11 12  2  0
 12  2  1  0
 13 14  1  0
 14 15  1  0
 16 15  1  0
 17 16  1  1
 18  9  1  0
 18 17  1  0
 19 21  1  0
 19 17  1  0
 20 19  2  0
 22 29  1  0
 22 21  1  0
 22 23  1  6
 23 24  1  0
 24 25  2  0
 24 28  1  0
 25 26  1  0
 26 27  1  0
 28 27  2  0
 29 31  1  0
 30 29  2  0
M  END
$$$$
