YMH.pdb
     RDKit          3D

 31 32  0  0  1  0  0  0  0  0999 V2000
    7.9080  -14.3913   15.4471 O   0  0  0  0  0  0  0  0  0  0  0  0
    8.1698  -14.1029   16.7923 C   0  0  0  0  0  0  0  0  0  0  0  0
    9.3419  -14.5929   17.3497 C   0  0  0  0  0  0  0  0  0  0  0  0
    9.6267  -14.3243   18.6742 C   0  0  0  0  0  0  0  0  0  0  0  0
    8.7903  -13.5828   19.4780 C   0  0  0  0  0  0  0  0  0  0  0  0
    9.1155  -13.3045   20.9020 C   0  0  0  0  0  0  0  0  0  0  0  0
    9.1055  -14.5538   21.7356 C   0  0  2  0  0  0  0  0  0  0  0  0
    7.9166  -15.3424   21.4746 N   0  0  0  0  0  0  0  0  0  0  0  0
    9.2181  -14.3187   23.1688 C   0  0  0  0  0  0  0  0  0  0  0  0
    9.4293  -13.1191   23.5488 O   0  0  0  0  0  0  0  0  0  0  0  0
    7.6247  -13.1072   18.8879 C   0  0  0  0  0  0  0  0  0  0  0  0
    7.3213  -13.3630   17.5700 C   0  0  0  0  0  0  0  0  0  0  0  0
    6.3400  -11.3934   26.0093 C   0  0  0  0  0  0  0  0  0  0  0  0
    6.2537  -12.5468   27.3902 S   0  0  0  0  0  0  0  0  0  0  0  0
    7.5883  -13.8016   27.2556 C   0  0  0  0  0  0  0  0  0  0  0  0
    7.8703  -14.1319   25.8385 C   0  0  0  0  0  0  0  0  0  0  0  0
    9.0340  -15.0599   25.5905 C   0  0  2  0  0  0  0  0  0  0  0  0
    9.1072  -15.3337   24.1379 N   0  0  0  0  0  0  0  0  0  0  0  0
    8.9663  -16.3340   26.3045 C   0  0  0  0  0  0  0  0  0  0  0  0
    8.9212  -16.3025   27.5709 O   0  0  0  0  0  0  0  0  0  0  0  0
    8.9399  -17.6144   25.7228 N   0  0  0  0  0  0  0  0  0  0  0  0
    9.1794  -18.7993   26.5749 C   0  0  1  0  0  0  0  0  0  0  0  0
    8.9322  -20.0473   25.7273 C   0  0  0  0  0  0  0  0  0  0  0  0
    7.7999  -19.7973   24.8185 C   0  0  0  0  0  0  0  0  0  0  0  0
    6.5025  -19.4424   25.2313 C   0  0  0  0  0  0  0  0  0  0  0  0
    5.7283  -19.2941   24.1463 N   0  0  0  0  0  0  0  0  0  0  0  0
    6.4796  -19.5395   23.0694 C   0  0  0  0  0  0  0  0  0  0  0  0
    7.7089  -19.8371   23.4908 N   0  0  0  0  0  0  0  0  0  0  0  0
   10.6254  -18.7590   26.8768 C   0  0  0  0  0  0  0  0  0  0  0  0
   11.3181  -17.8044   26.4482 O   0  0  0  0  0  0  0  0  0  0  0  0
   11.2601  -19.7143   27.6073 O   0  0  0  0  0  0  0  0  0  0  0  0
  2  1  1  0
  3  2  2  0
  4  3  1  0
  5 11  1  0
  5  4  2  0
  6  5  1  0
  7  9  1  0
  7  6  1  0
  7  8  1  1
  9 10  2  0
 11 12  2  0
 12  2  1  0
 13 14  1  0
 14 15  1  0
 16 15  1  0
 17 16  1  6
 18  9  1  0
 18 17  1  0
 19 21  1  0
 19 17  1  0
 20 19  2  0
 22 29  1  0
 22 21  1  0
 22 23  1  6
 23 24  1  0
 24 25  2  0
 24 28  1  0
 25 26  1  0
 26 27  1  0
 28 27  2  0
 29 31  1  0
 30 29  2  0
M  END
$$$$
