YMH.pdb
     RDKit          3D

 31 32  0  0  1  0  0  0  0  0999 V2000
    7.9657  -11.0484   20.1748 O   0  0  0  0  0  0  0  0  0  0  0  0
    8.0939  -12.4416   20.2359 C   0  0  0  0  0  0  0  0  0  0  0  0
    9.3656  -12.9863   20.1321 C   0  0  0  0  0  0  0  0  0  0  0  0
    9.5225  -14.3573   20.1891 C   0  0  0  0  0  0  0  0  0  0  0  0
    8.4615  -15.2204   20.3462 C   0  0  0  0  0  0  0  0  0  0  0  0
    8.6519  -16.6938   20.4055 C   0  0  0  0  0  0  0  0  0  0  0  0
    8.2178  -17.2644   21.7253 C   0  0  2  0  0  0  0  0  0  0  0  0
    6.7865  -17.1190   21.9080 N   0  0  0  0  0  0  0  0  0  0  0  0
    8.9068  -16.6996   22.8778 C   0  0  0  0  0  0  0  0  0  0  0  0
   10.1661  -16.5212   22.7755 O   0  0  0  0  0  0  0  0  0  0  0  0
    7.2014  -14.6414   20.4469 C   0  0  0  0  0  0  0  0  0  0  0  0
    7.0223  -13.2778   20.3927 C   0  0  0  0  0  0  0  0  0  0  0  0
    6.4144  -11.0213   25.9209 C   0  0  0  0  0  0  0  0  0  0  0  0
    6.7253  -12.6475   26.6305 S   0  0  0  0  0  0  0  0  0  0  0  0
    7.7362  -13.6612   25.4798 C   0  0  0  0  0  0  0  0  0  0  0  0
    8.0514  -14.9841   26.0690 C   0  0  0  0  0  0  0  0  0  0  0  0
    8.9864  -15.8612   25.2733 C   0  0  2  0  0  0  0  0  0  0  0  0
    8.2614  -16.3476   24.0783 N   0  0  0  0  0  0  0  0  0  0  0  0
    9.5158  -17.0135   26.0012 C   0  0  0  0  0  0  0  0  0  0  0  0
    8.7053  -17.9315   26.3287 O   0  0  0  0  0  0  0  0  0  0  0  0
   10.8555  -17.2168   26.3782 N   0  0  0  0  0  0  0  0  0  0  0  0
   11.2044  -18.4009   27.1930 C   0  0  1  0  0  0  0  0  0  0  0  0
   12.7153  -18.6121   27.0949 C   0  0  0  0  0  0  0  0  0  0  0  0
   13.0435  -19.1398   25.7591 C   0  0  0  0  0  0  0  0  0  0  0  0
   12.0959  -19.5288   24.7946 C   0  0  0  0  0  0  0  0  0  0  0  0
   12.7425  -19.9589   23.7012 N   0  0  0  0  0  0  0  0  0  0  0  0
   14.0541  -19.8582   23.9339 C   0  0  0  0  0  0  0  0  0  0  0  0
   14.2122  -19.3687   25.1638 N   0  0  0  0  0  0  0  0  0  0  0  0
   10.9116  -17.9990   28.5845 C   0  0  0  0  0  0  0  0  0  0  0  0
   10.4954  -16.8380   28.8162 O   0  0  0  0  0  0  0  0  0  0  0  0
   11.0690  -18.8312   29.6483 O   0  0  0  0  0  0  0  0  0  0  0  0
  2  1  1  0
  3  2  2  0
  4  3  1  0
  5 11  1  0
  5  4  2  0
  6  5  1  0
  7  9  1  0
  7  6  1  0
  7  8  1  1
  9 10  2  0
 11 12  2  0
 12  2  1  0
 13 14  1  0
 14 15  1  0
 16 15  1  0
 17 16  1  1
 18  9  1  0
 18 17  1  0
 19 21  1  0
 19 17  1  0
 20 19  2  0
 22 29  1  0
 22 21  1  0
 22 23  1  1
 23 24  1  0
 24 25  2  0
 24 28  1  0
 25 26  1  0
 26 27  1  0
 28 27  2  0
 29 31  1  0
 30 29  2  0
M  END
$$$$
