YMH.pdb
     RDKit          3D

 31 32  0  0  1  0  0  0  0  0999 V2000
    7.9930  -14.3436   15.4264 O   0  0  0  0  0  0  0  0  0  0  0  0
    8.1976  -14.1236   16.7942 C   0  0  0  0  0  0  0  0  0  0  0  0
    8.9044  -15.0780   17.5113 C   0  0  0  0  0  0  0  0  0  0  0  0
    9.1217  -14.8878   18.8619 C   0  0  0  0  0  0  0  0  0  0  0  0
    8.6634  -13.7801   19.5390 C   0  0  0  0  0  0  0  0  0  0  0  0
    8.9083  -13.5940   20.9937 C   0  0  0  0  0  0  0  0  0  0  0  0
    9.1556  -14.8996   21.6939 C   0  0  2  0  0  0  0  0  0  0  0  0
    8.1451  -15.8778   21.3401 N   0  0  0  0  0  0  0  0  0  0  0  0
    9.2335  -14.7959   23.1448 C   0  0  0  0  0  0  0  0  0  0  0  0
   10.1879  -14.1018   23.6302 O   0  0  0  0  0  0  0  0  0  0  0  0
    7.9592  -12.8437   18.7905 C   0  0  0  0  0  0  0  0  0  0  0  0
    7.7313  -13.0133   17.4438 C   0  0  0  0  0  0  0  0  0  0  0  0
    6.8855  -11.2363   27.5900 C   0  0  0  0  0  0  0  0  0  0  0  0
    5.8393  -12.5051   26.8549 S   0  0  0  0  0  0  0  0  0  0  0  0
    6.7671  -13.4262   25.5648 C   0  0  0  0  0  0  0  0  0  0  0  0
    7.1487  -14.7764   26.0424 C   0  0  0  0  0  0  0  0  0  0  0  0
    8.4390  -15.3356   25.4954 C   0  0  2  0  0  0  0  0  0  0  0  0
    8.3226  -15.4141   24.0220 N   0  0  0  0  0  0  0  0  0  0  0  0
    8.8019  -16.6562   26.0076 C   0  0  0  0  0  0  0  0  0  0  0  0
    8.9123  -16.7957   27.2626 O   0  0  0  0  0  0  0  0  0  0  0  0
    9.0401  -17.8106   25.2402 N   0  0  0  0  0  0  0  0  0  0  0  0
    9.4952  -19.0451   25.9157 C   0  0  1  0  0  0  0  0  0  0  0  0
    9.1102  -20.2338   25.0350 C   0  0  0  0  0  0  0  0  0  0  0  0
    7.7183  -20.0680   24.5814 C   0  0  0  0  0  0  0  0  0  0  0  0
    6.5880  -20.1403   25.4160 C   0  0  0  0  0  0  0  0  0  0  0  0
    5.4884  -19.9440   24.6738 N   0  0  0  0  0  0  0  0  0  0  0  0
    5.8755  -19.7513   23.4098 C   0  0  0  0  0  0  0  0  0  0  0  0
    7.2059  -19.8289   23.3760 N   0  0  0  0  0  0  0  0  0  0  0  0
   10.9703  -18.9571   25.9057 C   0  0  0  0  0  0  0  0  0  0  0  0
   11.6451  -19.8555   26.4645 O   0  0  0  0  0  0  0  0  0  0  0  0
   11.6512  -17.9400   25.3133 O   0  0  0  0  0  0  0  0  0  0  0  0
  2  1  1  0
  3  2  2  0
  4  3  1  0
  5 11  1  0
  5  4  2  0
  6  5  1  0
  7  9  1  0
  7  6  1  0
  7  8  1  1
  9 10  2  0
 11 12  2  0
 12  2  1  0
 13 14  1  0
 14 15  1  0
 16 15  1  0
 17 16  1  1
 18  9  1  0
 18 17  1  0
 19 21  1  0
 19 17  1  0
 20 19  2  0
 22 29  1  0
 22 21  1  0
 22 23  1  6
 23 24  1  0
 24 25  2  0
 24 28  1  0
 25 26  1  0
 26 27  1  0
 28 27  2  0
 29 31  1  0
 30 29  2  0
M  END
$$$$
