RGR.pdb
     RDKit          3D

 27 26  0  0  1  0  0  0  0  0999 V2000
    9.7126  -13.0395   19.5911 N   0  0  0  0  0  0  0  0  0  0  0  0
    8.7175  -13.1584   18.5804 C   0  0  0  0  0  0  0  0  0  0  0  0
    8.3185  -12.1508   17.8797 N   0  0  0  0  0  0  0  0  0  0  0  0
    8.0908  -14.4226   18.2756 N   0  0  0  0  0  0  0  0  0  0  0  0
    6.8969  -14.8513   18.9812 C   0  0  0  0  0  0  0  0  0  0  0  0
    7.1565  -15.0669   20.4285 C   0  0  0  0  0  0  0  0  0  0  0  0
    7.1038  -16.4520   20.9158 C   0  0  0  0  0  0  0  0  0  0  0  0
    7.6213  -17.5263   20.0411 C   0  0  2  0  0  0  0  0  0  0  0  0
    6.6308  -18.4209   19.5303 N   0  0  0  0  0  0  0  0  0  0  0  0
    8.6692  -18.2659   20.8161 C   0  0  0  0  0  0  0  0  0  0  0  0
    8.3402  -18.9631   21.8094 O   0  0  0  0  0  0  0  0  0  0  0  0
    7.6070  -12.2256   17.1216 N   0  0  0  0  0  0  0  0  0  0  0  0
   10.0536  -18.2296   20.4914 C   0  0  0  0  0  0  0  0  0  0  0  0
   11.0495  -18.6814   21.4419 C   0  0  0  0  0  0  0  0  0  0  0  0
   11.7534  -17.5703   22.0897 O   0  0  0  0  0  0  0  0  0  0  0  0
   12.6495  -16.9576   21.4665 N   0  0  0  0  0  0  0  0  0  0  0  0
   11.7749  -15.1446   30.4296 C   0  0  0  0  0  0  0  0  0  0  0  0
   10.5582  -14.8569   29.7847 N   0  0  0  0  0  0  0  0  0  0  0  0
    9.5124  -14.4405   30.4292 N   0  0  0  0  0  0  0  0  0  0  0  0
   10.4706  -15.0282   28.3778 C   0  0  0  0  0  0  0  0  0  0  0  0
   10.7420  -16.3207   27.7606 C   0  0  0  0  0  0  0  0  0  0  0  0
   11.5325  -16.0768   26.5106 C   0  0  0  0  0  0  0  0  0  0  0  0
   11.8584  -17.3740   25.7906 C   0  0  2  0  0  0  0  0  0  0  0  0
   12.4613  -17.1163   24.4347 N   0  0  0  0  0  0  0  0  0  0  0  0
   11.4470  -17.1667   23.4108 C   0  0  0  0  0  0  0  0  0  0  0  0
   13.5797  -18.0580   24.1438 O   0  0  0  0  0  0  0  0  0  0  0  0
   13.3711  -19.2681   23.8781 O   0  0  0  0  0  0  0  0  0  0  0  0
  2  1  1  0
  3  2  2  0
  4  2  1  0
  5  4  1  0
  6  5  1  0
  7  6  1  0
  8  7  1  0
  8  9  1  1
 10  8  1  0
 11 10  2  0
 12 10  1  0
 13 12  1  0
 14 13  1  0
 14 15  2  0
 17 16  1  0
 17 18  2  0
 19 17  1  0
 20 19  1  0
 21 20  1  0
 23 22  1  1
 22 21  1  0
 23 24  1  0
 24 14  1  0
 25 23  1  0
 26 25  2  0
 27 25  1  0
M  END
$$$$
