RGR.pdb
     RDKit          3D

 27 26  0  0  1  0  0  0  0  0999 V2000
    7.1283  -12.5670   15.9005 N   0  0  0  0  0  0  0  0  0  0  0  0
    7.7039  -13.4679   14.9609 C   0  0  0  0  0  0  0  0  0  0  0  0
    7.1688  -13.7037   13.8105 N   0  0  0  0  0  0  0  0  0  0  0  0
    8.9300  -14.1767   15.2401 N   0  0  0  0  0  0  0  0  0  0  0  0
    9.0035  -15.1398   16.3237 C   0  0  0  0  0  0  0  0  0  0  0  0
    7.9208  -14.9349   17.3207 C   0  0  0  0  0  0  0  0  0  0  0  0
    8.3320  -14.6249   18.6968 C   0  0  0  0  0  0  0  0  0  0  0  0
    9.4196  -15.4225   19.3032 C   0  0  2  0  0  0  0  0  0  0  0  0
    9.8726  -16.5259   18.5160 N   0  0  0  0  0  0  0  0  0  0  0  0
    8.9411  -15.8787   20.6482 C   0  0  0  0  0  0  0  0  0  0  0  0
    8.4657  -15.0455   21.4610 O   0  0  0  0  0  0  0  0  0  0  0  0
    7.6211  -14.2907   13.0773 N   0  0  0  0  0  0  0  0  0  0  0  0
    8.9912  -17.2337   21.0780 C   0  0  0  0  0  0  0  0  0  0  0  0
    8.4262  -17.6277   22.3527 C   0  0  0  0  0  0  0  0  0  0  0  0
    9.2762  -17.2489   23.4857 O   0  0  0  0  0  0  0  0  0  0  0  0
   10.4930  -17.0231   23.2986 N   0  0  0  0  0  0  0  0  0  0  0  0
    6.8746  -10.1997   26.6175 C   0  0  0  0  0  0  0  0  0  0  0  0
    6.4229  -11.4882   26.2787 N   0  0  0  0  0  0  0  0  0  0  0  0
    5.1680  -11.8147   26.3109 N   0  0  0  0  0  0  0  0  0  0  0  0
    7.3741  -12.4673   25.8874 C   0  0  0  0  0  0  0  0  0  0  0  0
    7.5997  -13.6597   26.6951 C   0  0  0  0  0  0  0  0  0  0  0  0
    8.6370  -14.4933   26.0051 C   0  0  0  0  0  0  0  0  0  0  0  0
    8.9505  -15.7583   26.7854 C   0  0  2  0  0  0  0  0  0  0  0  0
    9.6060  -16.7966   25.9133 N   0  0  0  0  0  0  0  0  0  0  0  0
    8.7568  -17.1302   24.7965 C   0  0  0  0  0  0  0  0  0  0  0  0
    9.9846  -18.0088   26.6940 O   0  0  0  0  0  0  0  0  0  0  0  0
   10.8179  -17.9555   27.6327 O   0  0  0  0  0  0  0  0  0  0  0  0
  2  1  1  0
  3  2  2  0
  4  2  1  0
  5  4  1  0
  6  5  1  0
  7  6  1  0
  8  7  1  0
  8  9  1  6
 10  8  1  0
 11 10  2  0
 12 10  1  0
 13 12  1  0
 14 13  1  0
 14 15  2  0
 17 16  1  0
 17 18  2  0
 19 17  1  0
 20 19  1  0
 21 20  1  0
 23 22  1  6
 22 21  1  0
 23 24  1  0
 24 14  1  0
 25 23  1  0
 26 25  2  0
 27 25  1  0
M  END
$$$$
