RGR.pdb
     RDKit          3D

 27 26  0  0  1  0  0  0  0  0999 V2000
    8.3937  -12.5669   18.4924 N   0  0  0  0  0  0  0  0  0  0  0  0
    8.6241  -13.3351   19.6683 C   0  0  0  0  0  0  0  0  0  0  0  0
    8.9450  -12.7956   20.7959 N   0  0  0  0  0  0  0  0  0  0  0  0
    8.5110  -14.7742   19.6705 N   0  0  0  0  0  0  0  0  0  0  0  0
    8.1731  -15.4929   20.8855 C   0  0  0  0  0  0  0  0  0  0  0  0
    6.7289  -15.3746   21.2153 C   0  0  0  0  0  0  0  0  0  0  0  0
    6.2452  -16.1383   22.3735 C   0  0  0  0  0  0  0  0  0  0  0  0
    6.8208  -17.4772   22.6243 C   0  0  2  0  0  0  0  0  0  0  0  0
    6.2286  -18.5407   21.8756 N   0  0  0  0  0  0  0  0  0  0  0  0
    6.7248  -17.7348   24.0975 C   0  0  0  0  0  0  0  0  0  0  0  0
    5.6220  -18.0584   24.6076 O   0  0  0  0  0  0  0  0  0  0  0  0
    9.2320  -13.3458   21.6335 N   0  0  0  0  0  0  0  0  0  0  0  0
    7.8333  -17.6339   24.9831 C   0  0  0  0  0  0  0  0  0  0  0  0
    7.6635  -17.8334   26.4081 C   0  0  0  0  0  0  0  0  0  0  0  0
    8.9036  -17.6126   27.1586 O   0  0  0  0  0  0  0  0  0  0  0  0
    9.3045  -18.4843   27.9623 N   0  0  0  0  0  0  0  0  0  0  0  0
    7.6901  -14.9251   24.4835 C   0  0  0  0  0  0  0  0  0  0  0  0
    7.4199  -13.6422   24.9939 N   0  0  0  0  0  0  0  0  0  0  0  0
    6.2676  -13.0650   24.8470 N   0  0  0  0  0  0  0  0  0  0  0  0
    8.4448  -12.9536   25.6952 C   0  0  0  0  0  0  0  0  0  0  0  0
    9.3719  -13.6693   26.5632 C   0  0  0  0  0  0  0  0  0  0  0  0
    8.6224  -14.0864   27.7926 C   0  0  0  0  0  0  0  0  0  0  0  0
    9.5247  -14.7989   28.7853 C   0  0  2  0  0  0  0  0  0  0  0  0
   10.3755  -15.8412   28.1084 N   0  0  0  0  0  0  0  0  0  0  0  0
    9.6673  -16.4320   26.9998 C   0  0  0  0  0  0  0  0  0  0  0  0
   10.8444  -16.8770   29.0725 O   0  0  0  0  0  0  0  0  0  0  0  0
   10.1217  -17.8523   29.3964 O   0  0  0  0  0  0  0  0  0  0  0  0
  2  1  1  0
  3  2  2  0
  4  2  1  0
  5  4  1  0
  6  5  1  0
  7  6  1  0
  8  7  1  0
  8  9  1  6
 10  8  1  0
 11 10  2  0
 12 10  1  0
 13 12  1  0
 14 13  1  0
 14 15  2  0
 17 16  1  0
 17 18  2  0
 19 17  1  0
 20 19  1  0
 21 20  1  0
 23 22  1  6
 22 21  1  0
 23 24  1  0
 24 14  1  0
 25 23  1  0
 26 25  2  0
 27 25  1  0
M  END
$$$$
