RGR.pdb
     RDKit          3D

 27 26  0  0  1  0  0  0  0  0999 V2000
    7.1003  -12.4782   18.4429 N   0  0  0  0  0  0  0  0  0  0  0  0
    7.9956  -13.1778   17.5855 C   0  0  0  0  0  0  0  0  0  0  0  0
    7.8670  -13.1772   16.3014 N   0  0  0  0  0  0  0  0  0  0  0  0
    9.1096  -13.9349   18.1045 N   0  0  0  0  0  0  0  0  0  0  0  0
    8.9135  -14.9349   19.1383 C   0  0  0  0  0  0  0  0  0  0  0  0
    7.9003  -15.9478   18.7436 C   0  0  0  0  0  0  0  0  0  0  0  0
    7.7166  -17.0930   19.6455 C   0  0  0  0  0  0  0  0  0  0  0  0
    8.8944  -17.9228   19.9788 C   0  0  2  0  0  0  0  0  0  0  0  0
    8.8703  -19.2494   19.4479 N   0  0  0  0  0  0  0  0  0  0  0  0
    9.0188  -17.9406   21.4722 C   0  0  0  0  0  0  0  0  0  0  0  0
    8.1375  -18.5054   22.1688 O   0  0  0  0  0  0  0  0  0  0  0  0
    8.5236  -13.6702   15.6593 N   0  0  0  0  0  0  0  0  0  0  0  0
   10.1016  -17.3421   22.1740 C   0  0  0  0  0  0  0  0  0  0  0  0
   10.2533  -17.5313   23.6025 C   0  0  0  0  0  0  0  0  0  0  0  0
   11.4401  -16.8558   24.1364 O   0  0  0  0  0  0  0  0  0  0  0  0
   12.4904  -16.8200   23.4565 N   0  0  0  0  0  0  0  0  0  0  0  0
   12.3626  -20.9543   31.3508 C   0  0  0  0  0  0  0  0  0  0  0  0
   13.5732  -20.2462   31.2405 N   0  0  0  0  0  0  0  0  0  0  0  0
   14.5551  -20.4162   32.0708 N   0  0  0  0  0  0  0  0  0  0  0  0
   13.7268  -19.3114   30.1825 C   0  0  0  0  0  0  0  0  0  0  0  0
   12.5808  -18.8746   29.3945 C   0  0  0  0  0  0  0  0  0  0  0  0
   13.0746  -17.9070   28.3617 C   0  0  0  0  0  0  0  0  0  0  0  0
   11.9540  -17.4404   27.4485 C   0  0  1  0  0  0  0  0  0  0  0  0
   12.4639  -16.5085   26.3808 N   0  0  0  0  0  0  0  0  0  0  0  0
   11.4331  -16.2379   25.4093 C   0  0  0  0  0  0  0  0  0  0  0  0
   13.6989  -17.0378   25.7351 O   0  0  0  0  0  0  0  0  0  0  0  0
   14.7595  -16.3660   25.6895 O   0  0  0  0  0  0  0  0  0  0  0  0
  2  1  1  0
  3  2  2  0
  4  2  1  0
  5  4  1  0
  6  5  1  0
  7  6  1  0
  8  7  1  0
  8  9  1  1
 10  8  1  0
 11 10  2  0
 12 10  1  0
 13 12  1  0
 14 13  1  0
 14 15  2  0
 17 16  1  0
 17 18  2  0
 19 17  1  0
 20 19  1  0
 21 20  1  0
 23 22  1  1
 22 21  1  0
 23 24  1  0
 24 14  1  0
 25 23  1  0
 26 25  2  0
 27 25  1  0
M  END
$$$$
