RGR.pdb
     RDKit          3D

 27 26  0  0  1  0  0  0  0  0999 V2000
    8.1242  -13.9629   16.4347 N   0  0  0  0  0  0  0  0  0  0  0  0
    7.5873  -13.7839   17.7407 C   0  0  0  0  0  0  0  0  0  0  0  0
    7.6922  -12.6711   18.3857 N   0  0  0  0  0  0  0  0  0  0  0  0
    6.8876  -14.8438   18.4268 N   0  0  0  0  0  0  0  0  0  0  0  0
    7.5808  -16.0525   18.8336 C   0  0  0  0  0  0  0  0  0  0  0  0
    8.9612  -15.7673   19.3043 C   0  0  0  0  0  0  0  0  0  0  0  0
    9.4149  -16.4775   20.5078 C   0  0  0  0  0  0  0  0  0  0  0  0
    9.3277  -15.7825   21.8103 C   0  0  2  0  0  0  0  0  0  0  0  0
    9.5276  -14.3685   21.7566 N   0  0  0  0  0  0  0  0  0  0  0  0
   10.3160  -16.4334   22.7298 C   0  0  0  0  0  0  0  0  0  0  0  0
   11.4812  -15.9712   22.8277 O   0  0  0  0  0  0  0  0  0  0  0  0
    7.2691  -12.5109   19.3249 N   0  0  0  0  0  0  0  0  0  0  0  0
   10.0125  -17.5745   23.5230 C   0  0  0  0  0  0  0  0  0  0  0  0
   10.9829  -18.1052   24.4590 C   0  0  0  0  0  0  0  0  0  0  0  0
   11.2119  -17.2117   25.5986 O   0  0  0  0  0  0  0  0  0  0  0  0
   12.2847  -16.5716   25.6777 N   0  0  0  0  0  0  0  0  0  0  0  0
    5.4427  -13.2510   25.5298 C   0  0  0  0  0  0  0  0  0  0  0  0
    6.5127  -12.6081   26.1787 N   0  0  0  0  0  0  0  0  0  0  0  0
    6.6328  -11.3169   26.2068 N   0  0  0  0  0  0  0  0  0  0  0  0
    7.4973  -13.4004   26.8264 C   0  0  0  0  0  0  0  0  0  0  0  0
    8.8291  -12.8717   27.0944 C   0  0  0  0  0  0  0  0  0  0  0  0
    9.8088  -13.9967   26.9479 C   0  0  0  0  0  0  0  0  0  0  0  0
    9.5044  -15.1346   27.9070 C   0  0  2  0  0  0  0  0  0  0  0  0
   10.5159  -16.2439   27.7862 N   0  0  0  0  0  0  0  0  0  0  0  0
   10.2474  -17.0504   26.6213 C   0  0  0  0  0  0  0  0  0  0  0  0
   10.5717  -17.0724   29.0242 O   0  0  0  0  0  0  0  0  0  0  0  0
   10.1021  -18.2371   29.0605 O   0  0  0  0  0  0  0  0  0  0  0  0
  2  1  1  0
  3  2  2  0
  4  2  1  0
  5  4  1  0
  6  5  1  0
  7  6  1  0
  8  7  1  0
  8  9  1  6
 10  8  1  0
 11 10  2  0
 12 10  1  0
 13 12  1  0
 14 13  1  0
 14 15  2  0
 17 16  1  0
 17 18  2  0
 19 17  1  0
 20 19  1  0
 21 20  1  0
 23 22  1  6
 22 21  1  0
 23 24  1  0
 24 14  1  0
 25 23  1  0
 26 25  2  0
 27 25  1  0
M  END
$$$$
