RGR.pdb
     RDKit          3D

 27 26  0  0  1  0  0  0  0  0999 V2000
    7.6976  -12.6037   14.4798 N   0  0  0  0  0  0  0  0  0  0  0  0
    7.1741  -13.1813   15.6706 C   0  0  0  0  0  0  0  0  0  0  0  0
    6.8133  -12.4695   16.6848 N   0  0  0  0  0  0  0  0  0  0  0  0
    7.0135  -14.6084   15.8164 N   0  0  0  0  0  0  0  0  0  0  0  0
    8.1685  -15.4795   15.9369 C   0  0  0  0  0  0  0  0  0  0  0  0
    9.2187  -14.8892   16.8069 C   0  0  0  0  0  0  0  0  0  0  0  0
    9.3935  -15.4852   18.1384 C   0  0  0  0  0  0  0  0  0  0  0  0
    8.2008  -16.0125   18.8359 C   0  0  2  0  0  0  0  0  0  0  0  0
    7.2761  -15.0211   19.2879 N   0  0  0  0  0  0  0  0  0  0  0  0
    8.6874  -16.8567   19.9745 C   0  0  0  0  0  0  0  0  0  0  0  0
    9.5113  -17.7826   19.7622 O   0  0  0  0  0  0  0  0  0  0  0  0
    6.4431  -12.8782   17.5694 N   0  0  0  0  0  0  0  0  0  0  0  0
    8.2651  -16.6733   21.3204 C   0  0  0  0  0  0  0  0  0  0  0  0
    8.7736  -17.5226   22.3785 C   0  0  0  0  0  0  0  0  0  0  0  0
   10.0138  -17.0070   22.9665 O   0  0  0  0  0  0  0  0  0  0  0  0
   10.9609  -16.6728   22.2195 N   0  0  0  0  0  0  0  0  0  0  0  0
   10.0669  -13.8645   29.7126 C   0  0  0  0  0  0  0  0  0  0  0  0
   10.4460  -15.2012   29.4916 N   0  0  0  0  0  0  0  0  0  0  0  0
   11.1955  -15.8567   30.3228 N   0  0  0  0  0  0  0  0  0  0  0  0
    9.9924  -15.8571   28.3166 C   0  0  0  0  0  0  0  0  0  0  0  0
    9.0294  -15.2212   27.4261 C   0  0  0  0  0  0  0  0  0  0  0  0
    9.7032  -14.9940   26.1065 C   0  0  0  0  0  0  0  0  0  0  0  0
   11.1359  -15.4985   26.1136 C   0  0  2  0  0  0  0  0  0  0  0  0
   11.4087  -16.4022   24.9400 N   0  0  0  0  0  0  0  0  0  0  0  0
   10.1731  -16.8752   24.3662 C   0  0  0  0  0  0  0  0  0  0  0  0
   12.3057  -17.5323   25.3149 O   0  0  0  0  0  0  0  0  0  0  0  0
   13.5079  -17.3447   25.6279 O   0  0  0  0  0  0  0  0  0  0  0  0
  2  1  1  0
  3  2  2  0
  4  2  1  0
  5  4  1  0
  6  5  1  0
  7  6  1  0
  8  7  1  0
  8  9  1  1
 10  8  1  0
 11 10  2  0
 12 10  1  0
 13 12  1  0
 14 13  1  0
 14 15  2  0
 17 16  1  0
 17 18  2  0
 19 17  1  0
 20 19  1  0
 21 20  1  0
 23 22  1  6
 22 21  1  0
 23 24  1  0
 24 14  1  0
 25 23  1  0
 26 25  2  0
 27 25  1  0
M  END
$$$$
