RGR.pdb
     RDKit          3D

 27 26  0  0  1  0  0  0  0  0999 V2000
    9.0236  -23.5951   16.9224 N   0  0  0  0  0  0  0  0  0  0  0  0
    8.4900  -22.3578   17.3810 C   0  0  0  0  0  0  0  0  0  0  0  0
    7.7245  -21.6203   16.6493 N   0  0  0  0  0  0  0  0  0  0  0  0
    8.7745  -21.8503   18.7020 N   0  0  0  0  0  0  0  0  0  0  0  0
   10.1299  -21.8438   19.2215 C   0  0  0  0  0  0  0  0  0  0  0  0
   10.1853  -21.3383   20.6179 C   0  0  0  0  0  0  0  0  0  0  0  0
   11.5002  -21.3342   21.2734 C   0  0  0  0  0  0  0  0  0  0  0  0
   12.0183  -22.6068   21.8200 C   0  0  2  0  0  0  0  0  0  0  0  0
   11.0424  -23.6381   21.9822 N   0  0  0  0  0  0  0  0  0  0  0  0
   12.6925  -22.2915   23.1208 C   0  0  0  0  0  0  0  0  0  0  0  0
   13.5970  -21.4191   23.1637 O   0  0  0  0  0  0  0  0  0  0  0  0
    7.3270  -20.7116   16.9700 N   0  0  0  0  0  0  0  0  0  0  0  0
   12.3660  -22.9342   24.3470 C   0  0  0  0  0  0  0  0  0  0  0  0
   13.0126  -22.5431   25.5833 C   0  0  0  0  0  0  0  0  0  0  0  0
   12.1317  -21.7597   26.4552 O   0  0  0  0  0  0  0  0  0  0  0  0
   10.9641  -21.5019   26.0851 N   0  0  0  0  0  0  0  0  0  0  0  0
    9.5723  -26.5269   31.2650 C   0  0  0  0  0  0  0  0  0  0  0  0
   10.6576  -25.9607   31.9585 N   0  0  0  0  0  0  0  0  0  0  0  0
   11.2333  -26.5594   32.9548 N   0  0  0  0  0  0  0  0  0  0  0  0
   11.1408  -24.6881   31.5541 C   0  0  0  0  0  0  0  0  0  0  0  0
   10.5046  -23.9544   30.4669 C   0  0  0  0  0  0  0  0  0  0  0  0
   11.2834  -22.6929   30.2455 C   0  0  0  0  0  0  0  0  0  0  0  0
   10.6848  -21.8519   29.1311 C   0  0  1  0  0  0  0  0  0  0  0  0
   11.6331  -20.7697   28.6862 N   0  0  0  0  0  0  0  0  0  0  0  0
   12.5668  -21.2819   27.7139 C   0  0  0  0  0  0  0  0  0  0  0  0
   12.3355  -20.1461   29.8438 O   0  0  0  0  0  0  0  0  0  0  0  0
   13.5833  -20.2145   29.9732 O   0  0  0  0  0  0  0  0  0  0  0  0
  2  1  1  0
  3  2  2  0
  4  2  1  0
  5  4  1  0
  6  5  1  0
  7  6  1  0
  8  7  1  0
  8  9  1  1
 10  8  1  0
 11 10  2  0
 12 10  1  0
 13 12  1  0
 14 13  1  0
 14 15  2  0
 17 16  1  0
 17 18  2  0
 19 17  1  0
 20 19  1  0
 21 20  1  0
 23 22  1  6
 22 21  1  0
 23 24  1  0
 24 14  1  0
 25 23  1  0
 26 25  2  0
 27 25  1  0
M  END
$$$$
