RGR.pdb
     RDKit          3D

 27 26  0  0  1  0  0  0  0  0999 V2000
   13.4292  -16.4221   15.2481 N   0  0  0  0  0  0  0  0  0  0  0  0
   12.1480  -16.8321   15.7131 C   0  0  0  0  0  0  0  0  0  0  0  0
   11.9992  -17.6777   16.6766 N   0  0  0  0  0  0  0  0  0  0  0  0
   10.9292  -16.3226   15.1312 N   0  0  0  0  0  0  0  0  0  0  0  0
    9.6337  -16.7005   15.6661 C   0  0  0  0  0  0  0  0  0  0  0  0
    8.8081  -15.5130   16.0077 C   0  0  0  0  0  0  0  0  0  0  0  0
    8.2561  -15.4544   17.3681 C   0  0  0  0  0  0  0  0  0  0  0  0
    7.4333  -14.2845   17.7442 C   0  0  2  0  0  0  0  0  0  0  0  0
    7.9812  -13.0163   17.3786 N   0  0  0  0  0  0  0  0  0  0  0  0
    7.1943  -14.3643   19.2215 C   0  0  0  0  0  0  0  0  0  0  0  0
    6.7018  -15.4072   19.7223 O   0  0  0  0  0  0  0  0  0  0  0  0
   11.0688  -18.0102   17.0090 N   0  0  0  0  0  0  0  0  0  0  0  0
    7.4974  -13.3051   20.1212 C   0  0  0  0  0  0  0  0  0  0  0  0
    7.1719  -13.4130   21.5290 C   0  0  0  0  0  0  0  0  0  0  0  0
    8.3628  -13.5581   22.3720 O   0  0  0  0  0  0  0  0  0  0  0  0
    8.8091  -12.5649   22.9893 N   0  0  0  0  0  0  0  0  0  0  0  0
   11.4138  -15.6067   28.4737 C   0  0  0  0  0  0  0  0  0  0  0  0
   10.2733  -14.8994   28.8959 N   0  0  0  0  0  0  0  0  0  0  0  0
   10.0985  -14.5364   30.1289 N   0  0  0  0  0  0  0  0  0  0  0  0
    9.2772  -14.5706   27.9388 C   0  0  0  0  0  0  0  0  0  0  0  0
    9.2286  -15.2411   26.6453 C   0  0  0  0  0  0  0  0  0  0  0  0
    8.0332  -14.7238   25.9035 C   0  0  0  0  0  0  0  0  0  0  0  0
    7.8739  -15.4015   24.5534 C   0  0  2  0  0  0  0  0  0  0  0  0
    9.1750  -15.4344   23.7954 N   0  0  0  0  0  0  0  0  0  0  0  0
    9.0287  -14.7990   22.5091 C   0  0  0  0  0  0  0  0  0  0  0  0
    9.6974  -16.8242   23.6627 O   0  0  0  0  0  0  0  0  0  0  0  0
    9.1479  -17.6667   22.9100 O   0  0  0  0  0  0  0  0  0  0  0  0
  2  1  1  0
  3  2  2  0
  4  2  1  0
  5  4  1  0
  6  5  1  0
  7  6  1  0
  8  7  1  0
  8  9  1  1
 10  8  1  0
 11 10  2  0
 12 10  1  0
 13 12  1  0
 14 13  1  0
 14 15  2  0
 17 16  1  0
 17 18  2  0
 19 17  1  0
 20 19  1  0
 21 20  1  0
 23 22  1  1
 22 21  1  0
 23 24  1  0
 24 14  1  0
 25 23  1  0
 26 25  2  0
 27 25  1  0
M  END
$$$$
