RGR.pdb
     RDKit          3D

 27 26  0  0  1  0  0  0  0  0999 V2000
    9.3905  -12.6885   12.9077 N   0  0  0  0  0  0  0  0  0  0  0  0
    8.0698  -13.2184   12.9378 C   0  0  0  0  0  0  0  0  0  0  0  0
    7.0505  -12.5625   12.4949 N   0  0  0  0  0  0  0  0  0  0  0  0
    7.7893  -14.5310   13.4687 N   0  0  0  0  0  0  0  0  0  0  0  0
    8.1385  -14.8718   14.8359 C   0  0  0  0  0  0  0  0  0  0  0  0
    8.6243  -13.6897   15.5942 C   0  0  0  0  0  0  0  0  0  0  0  0
    9.0714  -13.9213   16.9745 C   0  0  0  0  0  0  0  0  0  0  0  0
    8.0541  -14.2365   18.0005 C   0  0  2  0  0  0  0  0  0  0  0  0
    7.5047  -13.1035   18.6764 N   0  0  0  0  0  0  0  0  0  0  0  0
    8.6802  -15.1927   18.9699 C   0  0  0  0  0  0  0  0  0  0  0  0
    9.2723  -16.2180   18.5465 O   0  0  0  0  0  0  0  0  0  0  0  0
    6.0801  -12.9431   12.4943 N   0  0  0  0  0  0  0  0  0  0  0  0
    8.6473  -15.0104   20.3802 C   0  0  0  0  0  0  0  0  0  0  0  0
    9.3751  -15.9028   21.2596 C   0  0  0  0  0  0  0  0  0  0  0  0
    9.0887  -15.6538   22.6758 O   0  0  0  0  0  0  0  0  0  0  0  0
    9.0006  -14.4766   23.0920 N   0  0  0  0  0  0  0  0  0  0  0  0
    7.0460  -22.8493   27.3419 C   0  0  0  0  0  0  0  0  0  0  0  0
    6.5338  -21.5518   27.1590 N   0  0  0  0  0  0  0  0  0  0  0  0
    5.4336  -21.1544   27.7193 N   0  0  0  0  0  0  0  0  0  0  0  0
    7.2460  -20.6439   26.3313 C   0  0  0  0  0  0  0  0  0  0  0  0
    6.7506  -19.2927   26.0992 C   0  0  0  0  0  0  0  0  0  0  0  0
    7.6506  -18.6389   25.0945 C   0  0  0  0  0  0  0  0  0  0  0  0
    8.7063  -17.7761   25.7642 C   0  0  2  0  0  0  0  0  0  0  0  0
    8.9188  -16.4853   25.0181 N   0  0  0  0  0  0  0  0  0  0  0  0
    8.9078  -16.7147   23.5944 C   0  0  0  0  0  0  0  0  0  0  0  0
   10.1699  -15.8005   25.4521 O   0  0  0  0  0  0  0  0  0  0  0  0
   11.2080  -15.8122   24.7447 O   0  0  0  0  0  0  0  0  0  0  0  0
  2  1  1  0
  3  2  2  0
  4  2  1  0
  5  4  1  0
  6  5  1  0
  7  6  1  0
  8  7  1  0
  8  9  1  1
 10  8  1  0
 11 10  2  0
 12 10  1  0
 13 12  1  0
 14 13  1  0
 14 15  2  0
 17 16  1  0
 17 18  2  0
 19 17  1  0
 20 19  1  0
 21 20  1  0
 23 22  1  6
 22 21  1  0
 23 24  1  0
 24 14  1  0
 25 23  1  0
 26 25  2  0
 27 25  1  0
M  END
$$$$
