RGR.pdb
     RDKit          3D

 27 26  0  0  1  0  0  0  0  0999 V2000
    8.6984  -12.3486   14.4384 N   0  0  0  0  0  0  0  0  0  0  0  0
    8.3275  -13.4100   15.3112 C   0  0  0  0  0  0  0  0  0  0  0  0
    8.8857  -14.5726   15.2636 N   0  0  0  0  0  0  0  0  0  0  0  0
    7.2978  -13.2484   16.3098 N   0  0  0  0  0  0  0  0  0  0  0  0
    7.6362  -12.9164   17.6818 C   0  0  0  0  0  0  0  0  0  0  0  0
    8.0552  -14.1148   18.4542 C   0  0  0  0  0  0  0  0  0  0  0  0
    8.4637  -13.8993   19.8489 C   0  0  0  0  0  0  0  0  0  0  0  0
    8.9386  -15.0611   20.6311 C   0  0  2  0  0  0  0  0  0  0  0  0
    9.1049  -16.2674   19.8831 N   0  0  0  0  0  0  0  0  0  0  0  0
    7.9791  -15.2567   21.7656 C   0  0  0  0  0  0  0  0  0  0  0  0
    6.7732  -14.9265   21.6319 O   0  0  0  0  0  0  0  0  0  0  0  0
    8.6585  -15.3451   15.9257 N   0  0  0  0  0  0  0  0  0  0  0  0
    8.3551  -15.8082   23.0217 C   0  0  0  0  0  0  0  0  0  0  0  0
    7.8437  -15.2516   24.2579 C   0  0  0  0  0  0  0  0  0  0  0  0
    8.5154  -15.7984   25.4410 O   0  0  0  0  0  0  0  0  0  0  0  0
    9.4118  -16.6607   25.3008 N   0  0  0  0  0  0  0  0  0  0  0  0
    6.0418  -21.8918   27.5868 C   0  0  0  0  0  0  0  0  0  0  0  0
    6.5663  -21.4342   26.3642 N   0  0  0  0  0  0  0  0  0  0  0  0
    6.5683  -22.1650   25.2926 N   0  0  0  0  0  0  0  0  0  0  0  0
    7.1135  -20.1253   26.2999 C   0  0  0  0  0  0  0  0  0  0  0  0
    7.4683  -19.3996   27.5133 C   0  0  0  0  0  0  0  0  0  0  0  0
    8.0123  -18.0630   27.1076 C   0  0  0  0  0  0  0  0  0  0  0  0
    8.3770  -17.2157   28.3145 C   0  0  1  0  0  0  0  0  0  0  0  0
    8.8920  -15.8615   27.9027 N   0  0  0  0  0  0  0  0  0  0  0  0
    8.1766  -15.3765   26.7484 C   0  0  0  0  0  0  0  0  0  0  0  0
   10.3635  -15.8835   27.6651 O   0  0  0  0  0  0  0  0  0  0  0  0
   11.1431  -16.5258   28.4121 O   0  0  0  0  0  0  0  0  0  0  0  0
  2  1  1  0
  3  2  2  0
  4  2  1  0
  5  4  1  0
  6  5  1  0
  7  6  1  0
  8  7  1  0
  8  9  1  6
 10  8  1  0
 11 10  2  0
 12 10  1  0
 13 12  1  0
 14 13  1  0
 14 15  2  0
 17 16  1  0
 17 18  2  0
 19 17  1  0
 20 19  1  0
 21 20  1  0
 23 22  1  1
 22 21  1  0
 23 24  1  0
 24 14  1  0
 25 23  1  0
 26 25  2  0
 27 25  1  0
M  END
$$$$
