HSR.pdb
     RDKit          3D

 28 28  0  0  1  0  0  0  0  0999 V2000
   21.9260  -22.5475  -18.1026 N   0  0  0  0  0  0  0  0  0  0  0  0
   20.9896  -21.6599  -17.4875 C   0  0  1  0  0  0  0  0  0  0  0  0
   19.5934  -21.8759  -18.0293 C   0  0  0  0  0  0  0  0  0  0  0  0
   19.5932  -21.4237  -19.4510 C   0  0  0  0  0  0  0  0  0  0  0  0
   19.5564  -22.2603  -20.5702 C   0  0  0  0  0  0  0  0  0  0  0  0
   19.5684  -21.5162  -21.6833 N   0  0  0  0  0  0  0  0  0  0  0  0
   19.6117  -20.2344  -21.3131 C   0  0  0  0  0  0  0  0  0  0  0  0
   19.6268  -20.1783  -19.9503 N   0  0  0  0  0  0  0  0  0  0  0  0
   21.0416  -21.8256  -16.0157 C   0  0  0  0  0  0  0  0  0  0  0  0
   21.2184  -22.9484  -15.4626 O   0  0  0  0  0  0  0  0  0  0  0  0
   22.6031  -18.9450  -13.8296 O   0  0  0  0  0  0  0  0  0  0  0  0
   21.3479  -19.3055  -13.3173 C   0  0  0  0  0  0  0  0  0  0  0  0
   21.0454  -20.7269  -13.7487 C   0  0  2  0  0  0  0  0  0  0  0  0
   20.8909  -20.7041  -15.1831 N   0  0  0  0  0  0  0  0  0  0  0  0
   19.8001  -21.2176  -13.1097 C   0  0  0  0  0  0  0  0  0  0  0  0
   18.6712  -20.9383  -13.5921 O   0  0  0  0  0  0  0  0  0  0  0  0
   18.5223  -26.0791   -5.6206 N   0  0  0  0  0  0  0  0  0  0  0  0
   17.2333  -25.5401   -5.9804 C   0  0  0  0  0  0  0  0  0  0  0  0
   16.2133  -25.8102   -5.2691 N   0  0  0  0  0  0  0  0  0  0  0  0
   17.0852  -24.7082   -7.1227 N   0  0  0  0  0  0  0  0  0  0  0  0
   18.2298  -24.3657   -7.9380 C   0  0  0  0  0  0  0  0  0  0  0  0
   17.8118  -23.6294   -9.1892 C   0  0  0  0  0  0  0  0  0  0  0  0
   18.9678  -23.1566  -10.0010 C   0  0  0  0  0  0  0  0  0  0  0  0
   18.5779  -22.3935  -11.2436 C   0  0  2  0  0  0  0  0  0  0  0  0
   19.8083  -22.0280  -11.9213 N   0  0  0  0  0  0  0  0  0  0  0  0
   17.7247  -21.2295  -10.9727 C   0  0  0  0  0  0  0  0  0  0  0  0
   16.3531  -21.2251  -11.1969 O   0  0  0  0  0  0  0  0  0  0  0  0
   18.2215  -20.1713  -10.5172 O   0  0  0  0  0  0  0  0  0  0  0  0
  2  1  1  6
  2  9  1  0
  3  2  1  0
  4  3  1  0
  4  5  2  0
  6  5  1  0
  7  8  2  0
  7  6  1  0
  8  4  1  0
  9 10  2  0
 11 12  1  0
 13 12  1  1
 13 15  1  0
 14  9  1  0
 14 13  1  0
 15 16  2  0
 18 17  1  0
 19 18  2  0
 20 18  1  0
 21 20  1  0
 22 21  1  0
 23 22  1  0
 24 23  1  1
 24 26  1  0
 25 24  1  0
 25 15  1  0
 26 28  2  0
 26 27  1  0
M  END
$$$$
