HSR.pdb
     RDKit          3D

 28 28  0  0  1  0  0  0  0  0999 V2000
   22.8970  -32.9886  -10.0585 N   0  0  0  0  0  0  0  0  0  0  0  0
   22.9477  -32.7818   -8.6451 C   0  0  1  0  0  0  0  0  0  0  0  0
   23.9709  -31.7279   -8.2823 C   0  0  0  0  0  0  0  0  0  0  0  0
   25.3207  -32.3313   -8.4818 C   0  0  0  0  0  0  0  0  0  0  0  0
   26.1010  -32.2144   -9.6356 C   0  0  0  0  0  0  0  0  0  0  0  0
   27.2500  -32.8806   -9.4658 N   0  0  0  0  0  0  0  0  0  0  0  0
   27.2297  -33.4183   -8.2442 C   0  0  0  0  0  0  0  0  0  0  0  0
   26.0518  -33.0827   -7.6438 N   0  0  0  0  0  0  0  0  0  0  0  0
   21.5965  -32.4334   -8.1456 C   0  0  0  0  0  0  0  0  0  0  0  0
   20.8829  -31.5374   -8.6803 O   0  0  0  0  0  0  0  0  0  0  0  0
   19.8198  -35.0437   -5.5388 O   0  0  0  0  0  0  0  0  0  0  0  0
   19.0665  -34.2160   -6.3846 C   0  0  0  0  0  0  0  0  0  0  0  0
   19.7591  -32.8709   -6.4786 C   0  0  2  0  0  0  0  0  0  0  0  0
   21.0679  -33.1130   -7.0355 N   0  0  0  0  0  0  0  0  0  0  0  0
   19.8828  -32.2472   -5.1386 C   0  0  0  0  0  0  0  0  0  0  0  0
   20.8616  -32.5080   -4.3908 O   0  0  0  0  0  0  0  0  0  0  0  0
   14.6912  -26.1709   -0.9781 N   0  0  0  0  0  0  0  0  0  0  0  0
   15.7626  -26.4762   -0.0613 C   0  0  0  0  0  0  0  0  0  0  0  0
   15.7880  -25.9291    1.0873 N   0  0  0  0  0  0  0  0  0  0  0  0
   16.7947  -27.3830   -0.4238 N   0  0  0  0  0  0  0  0  0  0  0  0
   16.7885  -28.0265   -1.7193 C   0  0  0  0  0  0  0  0  0  0  0  0
   17.9019  -29.0412   -1.8333 C   0  0  0  0  0  0  0  0  0  0  0  0
   17.9775  -29.6748   -3.1793 C   0  0  0  0  0  0  0  0  0  0  0  0
   19.0446  -30.7352   -3.3028 C   0  0  2  0  0  0  0  0  0  0  0  0
   18.9085  -31.3233   -4.6228 N   0  0  0  0  0  0  0  0  0  0  0  0
   18.9947  -31.7436   -2.2364 C   0  0  0  0  0  0  0  0  0  0  0  0
   18.4593  -33.0133   -2.4169 O   0  0  0  0  0  0  0  0  0  0  0  0
   19.4470  -31.4830   -1.0956 O   0  0  0  0  0  0  0  0  0  0  0  0
  2  1  1  6
  2  9  1  0
  3  2  1  0
  4  3  1  0
  4  5  2  0
  6  5  1  0
  7  8  2  0
  7  6  1  0
  8  4  1  0
  9 10  2  0
 11 12  1  0
 13 12  1  1
 13 15  1  0
 14  9  1  0
 14 13  1  0
 15 16  2  0
 18 17  1  0
 19 18  2  0
 20 18  1  0
 21 20  1  0
 22 21  1  0
 23 22  1  0
 24 23  1  1
 24 26  1  0
 25 24  1  0
 25 15  1  0
 26 28  2  0
 26 27  1  0
M  END
$$$$
