HSR.pdb
     RDKit          3D

 28 28  0  0  1  0  0  0  0  0999 V2000
   23.2528  -15.1287  -17.4018 N   0  0  0  0  0  0  0  0  0  0  0  0
   24.1095  -14.1692  -18.0251 C   0  0  1  0  0  0  0  0  0  0  0  0
   23.6694  -13.8826  -19.4441 C   0  0  0  0  0  0  0  0  0  0  0  0
   23.7716  -15.1600  -20.2080 C   0  0  0  0  0  0  0  0  0  0  0  0
   24.9615  -15.8013  -20.5641 C   0  0  0  0  0  0  0  0  0  0  0  0
   24.6786  -16.9205  -21.2425 N   0  0  0  0  0  0  0  0  0  0  0  0
   23.3501  -17.0154  -21.3315 C   0  0  0  0  0  0  0  0  0  0  0  0
   22.7967  -15.9404  -20.6998 N   0  0  0  0  0  0  0  0  0  0  0  0
   24.1560  -12.9371  -17.2028 C   0  0  0  0  0  0  0  0  0  0  0  0
   23.1289  -12.4458  -16.6535 O   0  0  0  0  0  0  0  0  0  0  0  0
   27.2403   -9.7348  -15.2546 O   0  0  0  0  0  0  0  0  0  0  0  0
   27.0372  -10.8386  -16.0962 C   0  0  0  0  0  0  0  0  0  0  0  0
   25.5459  -11.0854  -16.2100 C   0  0  2  0  0  0  0  0  0  0  0  0
   25.3791  -12.2726  -17.0128 N   0  0  0  0  0  0  0  0  0  0  0  0
   24.8692   -9.9343  -16.8556 C   0  0  0  0  0  0  0  0  0  0  0  0
   24.8803   -9.7952  -18.1069 O   0  0  0  0  0  0  0  0  0  0  0  0
   19.5091   -8.9497  -21.6495 N   0  0  0  0  0  0  0  0  0  0  0  0
   20.1107   -9.9314  -20.7801 C   0  0  0  0  0  0  0  0  0  0  0  0
   20.2313  -11.1357  -21.1729 N   0  0  0  0  0  0  0  0  0  0  0  0
   20.5726   -9.5717  -19.4854 N   0  0  0  0  0  0  0  0  0  0  0  0
   20.2699   -8.2706  -18.9304 C   0  0  0  0  0  0  0  0  0  0  0  0
   21.5041   -7.6210  -18.3499 C   0  0  0  0  0  0  0  0  0  0  0  0
   22.1837   -8.4677  -17.3301 C   0  0  0  0  0  0  0  0  0  0  0  0
   23.4416   -7.8578  -16.7609 C   0  0  2  0  0  0  0  0  0  0  0  0
   24.1719   -8.9260  -16.1033 N   0  0  0  0  0  0  0  0  0  0  0  0
   23.1885   -6.7226  -15.8644 C   0  0  0  0  0  0  0  0  0  0  0  0
   22.7887   -5.4714  -16.3183 O   0  0  0  0  0  0  0  0  0  0  0  0
   23.3294   -6.8502  -14.6243 O   0  0  0  0  0  0  0  0  0  0  0  0
  2  1  1  1
  2  9  1  0
  3  2  1  0
  4  3  1  0
  4  5  2  0
  6  5  1  0
  7  8  2  0
  7  6  1  0
  8  4  1  0
  9 10  2  0
 11 12  1  0
 13 12  1  6
 13 15  1  0
 14  9  1  0
 14 13  1  0
 15 16  2  0
 18 17  1  0
 19 18  2  0
 20 18  1  0
 21 20  1  0
 22 21  1  0
 23 22  1  0
 24 23  1  1
 24 26  1  0
 25 24  1  0
 25 15  1  0
 26 28  2  0
 26 27  1  0
M  END
$$$$
