HSR.pdb
     RDKit          3D

 28 28  0  0  1  0  0  0  0  0999 V2000
   39.4195  -10.7690   -8.4630 N   0  0  0  0  0  0  0  0  0  0  0  0
   40.5329  -10.3161   -9.2364 C   0  0  1  0  0  0  0  0  0  0  0  0
   40.2567   -8.9623   -9.8531 C   0  0  0  0  0  0  0  0  0  0  0  0
   39.2128   -9.1558  -10.9013 C   0  0  0  0  0  0  0  0  0  0  0  0
   38.8932  -10.3699  -11.5160 C   0  0  0  0  0  0  0  0  0  0  0  0
   37.9118  -10.1741  -12.4056 N   0  0  0  0  0  0  0  0  0  0  0  0
   37.5945   -8.8777  -12.3798 C   0  0  0  0  0  0  0  0  0  0  0  0
   38.3889   -8.2565  -11.4613 N   0  0  0  0  0  0  0  0  0  0  0  0
   41.7503  -10.2989   -8.3913 C   0  0  0  0  0  0  0  0  0  0  0  0
   41.7204  -10.0151   -7.1598 O   0  0  0  0  0  0  0  0  0  0  0  0
   44.8353  -12.6965   -9.1168 O   0  0  0  0  0  0  0  0  0  0  0  0
   45.2491  -11.3568   -9.0743 C   0  0  0  0  0  0  0  0  0  0  0  0
   44.2502  -10.5737   -8.2456 C   0  0  2  0  0  0  0  0  0  0  0  0
   42.9973  -10.6071   -8.9603 N   0  0  0  0  0  0  0  0  0  0  0  0
   44.6982   -9.1710   -8.0675 C   0  0  0  0  0  0  0  0  0  0  0  0
   44.4706   -8.3016   -8.9493 O   0  0  0  0  0  0  0  0  0  0  0  0
   46.8473   -4.5190   -0.7434 N   0  0  0  0  0  0  0  0  0  0  0  0
   47.0784   -3.6290   -1.8552 C   0  0  0  0  0  0  0  0  0  0  0  0
   47.4037   -2.4179   -1.6395 N   0  0  0  0  0  0  0  0  0  0  0  0
   46.9473   -4.0871   -3.1938 N   0  0  0  0  0  0  0  0  0  0  0  0
   46.5765   -5.4577   -3.4705 C   0  0  0  0  0  0  0  0  0  0  0  0
   46.4480   -5.7023   -4.9558 C   0  0  0  0  0  0  0  0  0  0  0  0
   46.0535   -7.1005   -5.2842 C   0  0  0  0  0  0  0  0  0  0  0  0
   45.8644   -7.3578   -6.7595 C   0  0  2  0  0  0  0  0  0  0  0  0
   45.4069   -8.7284   -6.8967 N   0  0  0  0  0  0  0  0  0  0  0  0
   47.0662   -7.0895   -7.5597 C   0  0  0  0  0  0  0  0  0  0  0  0
   47.3237   -5.8596   -8.1535 O   0  0  0  0  0  0  0  0  0  0  0  0
   47.9232   -7.9882   -7.7378 O   0  0  0  0  0  0  0  0  0  0  0  0
  2  1  1  1
  2  9  1  0
  3  2  1  0
  4  3  1  0
  4  5  2  0
  6  5  1  0
  7  8  2  0
  7  6  1  0
  8  4  1  0
  9 10  2  0
 11 12  1  0
 13 12  1  6
 13 15  1  0
 14  9  1  0
 14 13  1  0
 15 16  2  0
 18 17  1  0
 19 18  2  0
 20 18  1  0
 21 20  1  0
 22 21  1  0
 23 22  1  0
 24 23  1  1
 24 26  1  0
 25 24  1  0
 25 15  1  0
 26 28  2  0
 26 27  1  0
M  END
$$$$
