HSR.pdb
     RDKit          3D

 28 28  0  0  1  0  0  0  0  0999 V2000
   22.1613  -15.3532  -17.3751 N   0  0  0  0  0  0  0  0  0  0  0  0
   22.5565  -14.1035  -17.9453 C   0  0  1  0  0  0  0  0  0  0  0  0
   21.6614  -13.7232  -19.1045 C   0  0  0  0  0  0  0  0  0  0  0  0
   21.7860  -14.7966  -20.1332 C   0  0  0  0  0  0  0  0  0  0  0  0
   20.7976  -15.7302  -20.4578 C   0  0  0  0  0  0  0  0  0  0  0  0
   21.2507  -16.5416  -21.4217 N   0  0  0  0  0  0  0  0  0  0  0  0
   22.4933  -16.1582  -21.7231 C   0  0  0  0  0  0  0  0  0  0  0  0
   22.8197  -15.0929  -20.9363 N   0  0  0  0  0  0  0  0  0  0  0  0
   22.5692  -13.0597  -16.8932 C   0  0  0  0  0  0  0  0  0  0  0  0
   21.5718  -12.8275  -16.1521 O   0  0  0  0  0  0  0  0  0  0  0  0
   25.8099  -10.6058  -16.9021 O   0  0  0  0  0  0  0  0  0  0  0  0
   25.2967  -10.8627  -15.6221 C   0  0  0  0  0  0  0  0  0  0  0  0
   23.8237  -11.1949  -15.7551 C   0  0  2  0  0  0  0  0  0  0  0  0
   23.7248  -12.2859  -16.6941 N   0  0  0  0  0  0  0  0  0  0  0  0
   23.0623  -10.0234  -16.2529 C   0  0  0  0  0  0  0  0  0  0  0  0
   22.9973   -9.7690  -17.4842 O   0  0  0  0  0  0  0  0  0  0  0  0
   15.0592   -8.4345  -17.3176 N   0  0  0  0  0  0  0  0  0  0  0  0
   15.6051   -7.1094  -17.4836 C   0  0  0  0  0  0  0  0  0  0  0  0
   14.8723   -6.1758  -17.9424 N   0  0  0  0  0  0  0  0  0  0  0  0
   16.9555   -6.8302  -17.1407 N   0  0  0  0  0  0  0  0  0  0  0  0
   17.8220   -7.8779  -16.6472 C   0  0  0  0  0  0  0  0  0  0  0  0
   19.2432   -7.3885  -16.4949 C   0  0  0  0  0  0  0  0  0  0  0  0
   20.1653   -8.4316  -15.9655 C   0  0  0  0  0  0  0  0  0  0  0  0
   21.6083   -7.9962  -15.8855 C   0  0  2  0  0  0  0  0  0  0  0  0
   22.3648   -9.1241  -15.3733 N   0  0  0  0  0  0  0  0  0  0  0  0
   21.8102   -6.7813  -15.0856 C   0  0  0  0  0  0  0  0  0  0  0  0
   21.6056   -5.5008  -15.5854 O   0  0  0  0  0  0  0  0  0  0  0  0
   22.1848   -6.8635  -13.8911 O   0  0  0  0  0  0  0  0  0  0  0  0
  2  1  1  1
  2  9  1  0
  3  2  1  0
  4  3  1  0
  4  5  2  0
  6  5  1  0
  7  8  2  0
  7  6  1  0
  8  4  1  0
  9 10  2  0
 11 12  1  0
 13 12  1  6
 13 15  1  0
 14  9  1  0
 14 13  1  0
 15 16  2  0
 18 17  1  0
 19 18  2  0
 20 18  1  0
 21 20  1  0
 22 21  1  0
 23 22  1  0
 24 23  1  1
 24 26  1  0
 25 24  1  0
 25 15  1  0
 26 28  2  0
 26 27  1  0
M  END
$$$$
