HSR.pdb
     RDKit          3D

 28 28  0  0  1  0  0  0  0  0999 V2000
   23.3368  -19.8628  -18.8284 N   0  0  0  0  0  0  0  0  0  0  0  0
   22.5902  -19.4311  -17.6885 C   0  0  1  0  0  0  0  0  0  0  0  0
   21.2130  -18.9477  -18.0871 C   0  0  0  0  0  0  0  0  0  0  0  0
   21.3967  -17.7463  -18.9524 C   0  0  0  0  0  0  0  0  0  0  0  0
   21.0147  -17.6440  -20.2931 C   0  0  0  0  0  0  0  0  0  0  0  0
   21.3310  -16.4276  -20.7549 N   0  0  0  0  0  0  0  0  0  0  0  0
   21.9013  -15.7507  -19.7557 C   0  0  0  0  0  0  0  0  0  0  0  0
   21.9413  -16.5560  -18.6556 N   0  0  0  0  0  0  0  0  0  0  0  0
   22.5229  -20.5285  -16.6945 C   0  0  0  0  0  0  0  0  0  0  0  0
   22.7403  -21.7362  -16.9978 O   0  0  0  0  0  0  0  0  0  0  0  0
   21.5427  -19.5186  -12.7695 O   0  0  0  0  0  0  0  0  0  0  0  0
   22.5428  -20.4708  -13.0162 C   0  0  0  0  0  0  0  0  0  0  0  0
   22.1941  -21.2113  -14.2920 C   0  0  2  0  0  0  0  0  0  0  0  0
   22.2070  -20.2377  -15.3568 N   0  0  0  0  0  0  0  0  0  0  0  0
   20.8528  -21.8359  -14.1888 C   0  0  0  0  0  0  0  0  0  0  0  0
   19.8254  -21.2353  -14.5998 O   0  0  0  0  0  0  0  0  0  0  0  0
   17.4784  -29.0994  -12.7924 N   0  0  0  0  0  0  0  0  0  0  0  0
   16.2769  -28.3635  -13.1027 C   0  0  0  0  0  0  0  0  0  0  0  0
   15.1415  -28.8429  -12.7862 N   0  0  0  0  0  0  0  0  0  0  0  0
   16.3429  -27.1054  -13.7597 N   0  0  0  0  0  0  0  0  0  0  0  0
   17.6201  -26.4865  -14.0395 C   0  0  0  0  0  0  0  0  0  0  0  0
   18.2095  -25.8588  -12.7981 C   0  0  0  0  0  0  0  0  0  0  0  0
   19.4898  -25.1435  -13.0583 C   0  0  0  0  0  0  0  0  0  0  0  0
   19.3192  -23.6948  -13.4462 C   0  0  2  0  0  0  0  0  0  0  0  0
   20.6499  -23.1426  -13.6228 N   0  0  0  0  0  0  0  0  0  0  0  0
   18.5186  -22.9220  -12.4878 C   0  0  0  0  0  0  0  0  0  0  0  0
   17.1354  -22.8139  -12.5675 O   0  0  0  0  0  0  0  0  0  0  0  0
   19.0743  -22.3175  -11.5393 O   0  0  0  0  0  0  0  0  0  0  0  0
  2  1  1  6
  2  9  1  0
  3  2  1  0
  4  3  1  0
  4  5  2  0
  6  5  1  0
  7  8  2  0
  7  6  1  0
  8  4  1  0
  9 10  2  0
 11 12  1  0
 13 12  1  1
 13 15  1  0
 14  9  1  0
 14 13  1  0
 15 16  2  0
 18 17  1  0
 19 18  2  0
 20 18  1  0
 21 20  1  0
 22 21  1  0
 23 22  1  0
 24 23  1  1
 24 26  1  0
 25 24  1  0
 25 15  1  0
 26 28  2  0
 26 27  1  0
M  END
$$$$
