HSR.pdb
     RDKit          3D

 28 28  0  0  1  0  0  0  0  0999 V2000
   27.3513  -21.8248   -8.5893 N   0  0  0  0  0  0  0  0  0  0  0  0
   27.0247  -20.5656   -9.1815 C   0  0  1  0  0  0  0  0  0  0  0  0
   28.0691  -19.5202   -8.8558 C   0  0  0  0  0  0  0  0  0  0  0  0
   28.0755  -19.3446   -7.3743 C   0  0  0  0  0  0  0  0  0  0  0  0
   27.2567  -20.0284   -6.4710 C   0  0  0  0  0  0  0  0  0  0  0  0
   27.5311  -19.6218   -5.2251 N   0  0  0  0  0  0  0  0  0  0  0  0
   28.4960  -18.7027   -5.3022 C   0  0  0  0  0  0  0  0  0  0  0  0
   28.8281  -18.5337   -6.6144 N   0  0  0  0  0  0  0  0  0  0  0  0
   26.8513  -20.7347  -10.6436 C   0  0  0  0  0  0  0  0  0  0  0  0
   27.8180  -20.9801  -11.4202 O   0  0  0  0  0  0  0  0  0  0  0  0
   23.8841  -22.6275  -12.1315 O   0  0  0  0  0  0  0  0  0  0  0  0
   25.0311  -22.2564  -12.8488 C   0  0  0  0  0  0  0  0  0  0  0  0
   25.2844  -20.7802  -12.6157 C   0  0  2  0  0  0  0  0  0  0  0  0
   25.5707  -20.6223  -11.2104 N   0  0  0  0  0  0  0  0  0  0  0  0
   24.0943  -19.9765  -12.9868 C   0  0  0  0  0  0  0  0  0  0  0  0
   23.1620  -19.7816  -12.1632 O   0  0  0  0  0  0  0  0  0  0  0  0
   22.6211  -14.9909  -20.2308 N   0  0  0  0  0  0  0  0  0  0  0  0
   21.9947  -14.4133  -19.0665 C   0  0  0  0  0  0  0  0  0  0  0  0
   21.6407  -13.1912  -19.0789 N   0  0  0  0  0  0  0  0  0  0  0  0
   21.7661  -15.1928  -17.9007 N   0  0  0  0  0  0  0  0  0  0  0  0
   22.1415  -16.5892  -17.8629 C   0  0  0  0  0  0  0  0  0  0  0  0
   21.8630  -17.1959  -16.5076 C   0  0  0  0  0  0  0  0  0  0  0  0
   23.0152  -17.9702  -15.9676 C   0  0  0  0  0  0  0  0  0  0  0  0
   22.7412  -18.6415  -14.6438 C   0  0  2  0  0  0  0  0  0  0  0  0
   23.9375  -19.3821  -14.2872 N   0  0  0  0  0  0  0  0  0  0  0  0
   21.5432  -19.4907  -14.6543 C   0  0  0  0  0  0  0  0  0  0  0  0
   20.2765  -19.0204  -14.3292 O   0  0  0  0  0  0  0  0  0  0  0  0
   21.6280  -20.7030  -14.9663 O   0  0  0  0  0  0  0  0  0  0  0  0
  2  1  1  6
  2  9  1  0
  3  2  1  0
  4  3  1  0
  4  5  2  0
  6  5  1  0
  7  8  2  0
  7  6  1  0
  8  4  1  0
  9 10  2  0
 11 12  1  0
 13 12  1  1
 13 15  1  0
 14  9  1  0
 14 13  1  0
 15 16  2  0
 18 17  1  0
 19 18  2  0
 20 18  1  0
 21 20  1  0
 22 21  1  0
 23 22  1  0
 24 23  1  6
 24 26  1  0
 25 24  1  0
 25 15  1  0
 26 28  2  0
 26 27  1  0
M  END
$$$$
