HSR.pdb
     RDKit          3D

 28 28  0  0  1  0  0  0  0  0999 V2000
   30.0758  -25.4574  -17.2574 N   0  0  0  0  0  0  0  0  0  0  0  0
   29.0852  -26.2364  -17.9319 C   0  0  1  0  0  0  0  0  0  0  0  0
   29.3609  -27.7171  -17.7869 C   0  0  0  0  0  0  0  0  0  0  0  0
   30.6750  -27.9905  -18.4384 C   0  0  0  0  0  0  0  0  0  0  0  0
   31.8394  -28.3971  -17.7807 C   0  0  0  0  0  0  0  0  0  0  0  0
   32.8257  -28.5484  -18.6736 N   0  0  0  0  0  0  0  0  0  0  0  0
   32.3310  -28.2525  -19.8775 C   0  0  0  0  0  0  0  0  0  0  0  0
   31.0180  -27.9119  -19.7335 N   0  0  0  0  0  0  0  0  0  0  0  0
   27.7399  -25.8742  -17.4264 C   0  0  0  0  0  0  0  0  0  0  0  0
   27.5423  -25.4702  -16.2450 O   0  0  0  0  0  0  0  0  0  0  0  0
   23.8816  -24.1251  -19.0983 O   0  0  0  0  0  0  0  0  0  0  0  0
   25.0674  -24.1841  -18.3513 C   0  0  0  0  0  0  0  0  0  0  0  0
   25.2796  -25.6165  -17.9029 C   0  0  2  0  0  0  0  0  0  0  0  0
   26.6260  -25.9760  -18.2765 N   0  0  0  0  0  0  0  0  0  0  0  0
   24.3084  -26.5239  -18.5612 C   0  0  0  0  0  0  0  0  0  0  0  0
   24.5109  -26.9530  -19.7274 O   0  0  0  0  0  0  0  0  0  0  0  0
   16.8306  -27.4970  -14.4854 N   0  0  0  0  0  0  0  0  0  0  0  0
   16.9075  -26.4055  -15.4258 C   0  0  0  0  0  0  0  0  0  0  0  0
   16.0286  -25.4857  -15.4010 N   0  0  0  0  0  0  0  0  0  0  0  0
   17.9550  -26.3423  -16.3838 N   0  0  0  0  0  0  0  0  0  0  0  0
   18.9737  -27.3681  -16.4302 C   0  0  0  0  0  0  0  0  0  0  0  0
   20.0018  -27.0727  -17.4970 C   0  0  0  0  0  0  0  0  0  0  0  0
   21.0472  -28.1280  -17.6073 C   0  0  0  0  0  0  0  0  0  0  0  0
   22.1408  -27.8118  -18.5985 C   0  0  2  0  0  0  0  0  0  0  0  0
   23.0985  -26.9600  -17.9172 N   0  0  0  0  0  0  0  0  0  0  0  0
   21.6470  -27.2094  -19.8433 C   0  0  0  0  0  0  0  0  0  0  0  0
   21.2183  -27.9598  -20.9317 O   0  0  0  0  0  0  0  0  0  0  0  0
   21.5951  -25.9621  -19.9672 O   0  0  0  0  0  0  0  0  0  0  0  0
  2  1  1  1
  2  9  1  0
  3  2  1  0
  4  3  1  0
  4  5  2  0
  6  5  1  0
  7  8  2  0
  7  6  1  0
  8  4  1  0
  9 10  2  0
 11 12  1  0
 13 12  1  6
 13 15  1  0
 14  9  1  0
 14 13  1  0
 15 16  2  0
 18 17  1  0
 19 18  2  0
 20 18  1  0
 21 20  1  0
 22 21  1  0
 23 22  1  0
 24 23  1  1
 24 26  1  0
 25 24  1  0
 25 15  1  0
 26 28  2  0
 26 27  1  0
M  END
$$$$
