HSR.pdb
     RDKit          3D

 28 28  0  0  1  0  0  0  0  0999 V2000
   16.4316   -4.3794  -11.6632 N   0  0  0  0  0  0  0  0  0  0  0  0
   17.2477   -5.5524  -11.6283 C   0  0  1  0  0  0  0  0  0  0  0  0
   16.4036   -6.8036  -11.5220 C   0  0  0  0  0  0  0  0  0  0  0  0
   15.6753   -6.7395  -10.2215 C   0  0  0  0  0  0  0  0  0  0  0  0
   16.2164   -7.0502   -8.9706 C   0  0  0  0  0  0  0  0  0  0  0  0
   15.2817   -6.8820   -8.0267 N   0  0  0  0  0  0  0  0  0  0  0  0
   14.1636   -6.4750   -8.6318 C   0  0  0  0  0  0  0  0  0  0  0  0
   14.4043   -6.3881   -9.9716 N   0  0  0  0  0  0  0  0  0  0  0  0
   18.1275   -5.5806  -12.8206 C   0  0  0  0  0  0  0  0  0  0  0  0
   17.6834   -5.7589  -13.9906 O   0  0  0  0  0  0  0  0  0  0  0  0
   22.1526   -5.2042  -12.1132 O   0  0  0  0  0  0  0  0  0  0  0  0
   21.6652   -4.6106  -13.2870 C   0  0  0  0  0  0  0  0  0  0  0  0
   20.4592   -5.3995  -13.7570 C   0  0  2  0  0  0  0  0  0  0  0  0
   19.5129   -5.4043  -12.6678 N   0  0  0  0  0  0  0  0  0  0  0  0
   20.8422   -6.7894  -14.1056 C   0  0  0  0  0  0  0  0  0  0  0  0
   21.0630   -7.6446  -13.2083 O   0  0  0  0  0  0  0  0  0  0  0  0
   17.2488  -13.7216  -16.8089 N   0  0  0  0  0  0  0  0  0  0  0  0
   18.6415  -14.0965  -16.7713 C   0  0  0  0  0  0  0  0  0  0  0  0
   18.9700  -15.3218  -16.8704 N   0  0  0  0  0  0  0  0  0  0  0  0
   19.6565  -13.1131  -16.6243 N   0  0  0  0  0  0  0  0  0  0  0  0
   19.3121  -11.7305  -16.3752 C   0  0  0  0  0  0  0  0  0  0  0  0
   20.5485  -10.8760  -16.2217 C   0  0  0  0  0  0  0  0  0  0  0  0
   20.2386   -9.4540  -15.9043 C   0  0  0  0  0  0  0  0  0  0  0  0
   21.4558   -8.5698  -15.7827 C   0  0  2  0  0  0  0  0  0  0  0  0
   20.9814   -7.2350  -15.4661 N   0  0  0  0  0  0  0  0  0  0  0  0
   22.3141   -8.5874  -16.9740 C   0  0  0  0  0  0  0  0  0  0  0  0
   23.2558   -9.5803  -17.2165 O   0  0  0  0  0  0  0  0  0  0  0  0
   22.2219   -7.6801  -17.8356 O   0  0  0  0  0  0  0  0  0  0  0  0
  2  1  1  6
  2  9  1  0
  3  2  1  0
  4  3  1  0
  4  5  2  0
  6  5  1  0
  7  8  2  0
  7  6  1  0
  8  4  1  0
  9 10  2  0
 11 12  1  0
 13 12  1  1
 13 15  1  0
 14  9  1  0
 14 13  1  0
 15 16  2  0
 18 17  1  0
 19 18  2  0
 20 18  1  0
 21 20  1  0
 22 21  1  0
 23 22  1  0
 24 23  1  6
 24 26  1  0
 25 24  1  0
 25 15  1  0
 26 28  2  0
 26 27  1  0
M  END
$$$$
