HSR.pdb
     RDKit          3D

 28 28  0  0  1  0  0  0  0  0999 V2000
   17.1339  -24.6693   -5.2483 N   0  0  0  0  0  0  0  0  0  0  0  0
   17.1604  -26.0942   -5.1382 C   0  0  1  0  0  0  0  0  0  0  0  0
   17.7478  -26.7284   -6.3800 C   0  0  0  0  0  0  0  0  0  0  0  0
   16.8886  -26.3288   -7.5323 C   0  0  0  0  0  0  0  0  0  0  0  0
   15.6422  -26.8783   -7.8461 C   0  0  0  0  0  0  0  0  0  0  0  0
   15.1560  -26.2829   -8.9425 N   0  0  0  0  0  0  0  0  0  0  0  0
   16.0487  -25.3730   -9.3388 C   0  0  0  0  0  0  0  0  0  0  0  0
   17.1062  -25.4013   -8.4777 N   0  0  0  0  0  0  0  0  0  0  0  0
   17.9030  -26.4839   -3.9162 C   0  0  0  0  0  0  0  0  0  0  0  0
   19.1347  -26.2447   -3.7625 O   0  0  0  0  0  0  0  0  0  0  0  0
   15.6055  -27.9481   -1.0008 O   0  0  0  0  0  0  0  0  0  0  0  0
   16.8176  -27.4051   -0.5495 C   0  0  0  0  0  0  0  0  0  0  0  0
   17.8531  -27.5708   -1.6441 C   0  0  2  0  0  0  0  0  0  0  0  0
   17.2314  -27.1460   -2.8749 N   0  0  0  0  0  0  0  0  0  0  0  0
   18.2833  -28.9862   -1.7524 C   0  0  0  0  0  0  0  0  0  0  0  0
   17.6250  -29.8124   -2.4374 O   0  0  0  0  0  0  0  0  0  0  0  0
   25.5595  -32.7076   -4.0165 N   0  0  0  0  0  0  0  0  0  0  0  0
   24.3382  -33.3236   -4.4756 C   0  0  0  0  0  0  0  0  0  0  0  0
   24.3370  -34.0007   -5.5529 N   0  0  0  0  0  0  0  0  0  0  0  0
   23.1312  -33.1846   -3.7390 N   0  0  0  0  0  0  0  0  0  0  0  0
   23.0982  -32.4096   -2.5181 C   0  0  0  0  0  0  0  0  0  0  0  0
   21.7053  -32.3629   -1.9351 C   0  0  0  0  0  0  0  0  0  0  0  0
   21.1681  -30.9785   -1.8189 C   0  0  0  0  0  0  0  0  0  0  0  0
   19.8172  -30.8950   -1.1507 C   0  0  2  0  0  0  0  0  0  0  0  0
   19.4579  -29.4899   -1.0926 N   0  0  0  0  0  0  0  0  0  0  0  0
   19.7765  -31.5350    0.1703 C   0  0  0  0  0  0  0  0  0  0  0  0
   19.5780  -32.8991    0.3471 O   0  0  0  0  0  0  0  0  0  0  0  0
   19.9239  -30.8506    1.2114 O   0  0  0  0  0  0  0  0  0  0  0  0
  2  1  1  6
  2  9  1  0
  3  2  1  0
  4  3  1  0
  4  5  2  0
  6  5  1  0
  7  8  2  0
  7  6  1  0
  8  4  1  0
  9 10  2  0
 11 12  1  0
 13 12  1  1
 13 15  1  0
 14  9  1  0
 14 13  1  0
 15 16  2  0
 18 17  1  0
 19 18  2  0
 20 18  1  0
 21 20  1  0
 22 21  1  0
 23 22  1  0
 24 23  1  1
 24 26  1  0
 25 24  1  0
 25 15  1  0
 26 28  2  0
 26 27  1  0
M  END
$$$$
