HSR.pdb
     RDKit          3D

 28 28  0  0  1  0  0  0  0  0999 V2000
   19.0719  -24.5239  -14.2542 N   0  0  0  0  0  0  0  0  0  0  0  0
   19.8087  -25.0019  -13.1266 C   0  0  1  0  0  0  0  0  0  0  0  0
   20.8335  -23.9860  -12.6715 C   0  0  0  0  0  0  0  0  0  0  0  0
   21.8457  -23.8573  -13.7599 C   0  0  0  0  0  0  0  0  0  0  0  0
   22.0070  -22.7464  -14.5929 C   0  0  0  0  0  0  0  0  0  0  0  0
   23.0073  -22.9759  -15.4529 N   0  0  0  0  0  0  0  0  0  0  0  0
   23.4894  -24.1943  -15.1977 C   0  0  0  0  0  0  0  0  0  0  0  0
   22.7800  -24.7320  -14.1641 N   0  0  0  0  0  0  0  0  0  0  0  0
   18.8705  -25.3642  -12.0379 C   0  0  0  0  0  0  0  0  0  0  0  0
   17.9285  -24.6057  -11.6703 O   0  0  0  0  0  0  0  0  0  0  0  0
   19.8936  -28.5983   -9.8813 O   0  0  0  0  0  0  0  0  0  0  0  0
   18.5055  -28.5086  -10.0628 C   0  0  0  0  0  0  0  0  0  0  0  0
   18.1491  -27.0575  -10.3178 C   0  0  2  0  0  0  0  0  0  0  0  0
   19.0152  -26.5943  -11.3748 N   0  0  0  0  0  0  0  0  0  0  0  0
   18.3548  -26.2420   -9.0961 C   0  0  0  0  0  0  0  0  0  0  0  0
   19.4730  -25.7199   -8.8467 O   0  0  0  0  0  0  0  0  0  0  0  0
   12.6810  -24.2230   -3.4869 N   0  0  0  0  0  0  0  0  0  0  0  0
   13.6252  -23.2792   -2.9398 C   0  0  0  0  0  0  0  0  0  0  0  0
   13.4889  -22.8691   -1.7430 N   0  0  0  0  0  0  0  0  0  0  0  0
   14.7102  -22.7987   -3.7213 N   0  0  0  0  0  0  0  0  0  0  0  0
   14.7891  -23.0970   -5.1345 C   0  0  0  0  0  0  0  0  0  0  0  0
   16.1646  -23.5926   -5.5149 C   0  0  0  0  0  0  0  0  0  0  0  0
   16.1398  -24.5883   -6.6224 C   0  0  0  0  0  0  0  0  0  0  0  0
   17.5003  -25.1165   -7.0076 C   0  0  2  0  0  0  0  0  0  0  0  0
   17.3068  -26.0033   -8.1403 N   0  0  0  0  0  0  0  0  0  0  0  0
   18.2086  -25.7731   -5.9014 C   0  0  0  0  0  0  0  0  0  0  0  0
   19.0308  -25.0889   -5.0141 O   0  0  0  0  0  0  0  0  0  0  0  0
   18.0904  -27.0084   -5.7171 O   0  0  0  0  0  0  0  0  0  0  0  0
  2  1  1  6
  2  9  1  0
  3  2  1  0
  4  3  1  0
  4  5  2  0
  6  5  1  0
  7  8  2  0
  7  6  1  0
  8  4  1  0
  9 10  2  0
 11 12  1  0
 13 12  1  1
 13 15  1  0
 14  9  1  0
 14 13  1  0
 15 16  2  0
 18 17  1  0
 19 18  2  0
 20 18  1  0
 21 20  1  0
 22 21  1  0
 23 22  1  0
 24 23  1  1
 24 26  1  0
 25 24  1  0
 25 15  1  0
 26 28  2  0
 26 27  1  0
M  END
$$$$
