HSR.pdb
     RDKit          3D

 28 28  0  0  1  0  0  0  0  0999 V2000
   23.0485  -17.1151  -16.9104 N   0  0  0  0  0  0  0  0  0  0  0  0
   23.4634  -15.8343  -17.3904 C   0  0  1  0  0  0  0  0  0  0  0  0
   22.6179  -15.3891  -18.5636 C   0  0  0  0  0  0  0  0  0  0  0  0
   22.9197  -16.3049  -19.7020 C   0  0  0  0  0  0  0  0  0  0  0  0
   23.6602  -15.9712  -20.8396 C   0  0  0  0  0  0  0  0  0  0  0  0
   23.7318  -17.0331  -21.6520 N   0  0  0  0  0  0  0  0  0  0  0  0
   23.0629  -18.0323  -21.0723 C   0  0  0  0  0  0  0  0  0  0  0  0
   22.5673  -17.5874  -19.8819 N   0  0  0  0  0  0  0  0  0  0  0  0
   23.4268  -14.8527  -16.2806 C   0  0  0  0  0  0  0  0  0  0  0  0
   22.5206  -14.8546  -15.3993 O   0  0  0  0  0  0  0  0  0  0  0  0
   26.3886  -12.0177  -16.2979 O   0  0  0  0  0  0  0  0  0  0  0  0
   25.8716  -12.3696  -15.0422 C   0  0  0  0  0  0  0  0  0  0  0  0
   24.4287  -12.7979  -15.2219 C   0  0  2  0  0  0  0  0  0  0  0  0
   24.4289  -13.8726  -16.1847 N   0  0  0  0  0  0  0  0  0  0  0  0
   23.6022  -11.6703  -15.7170 C   0  0  0  0  0  0  0  0  0  0  0  0
   23.5448  -11.3998  -16.9453 O   0  0  0  0  0  0  0  0  0  0  0  0
   15.3176   -9.8009  -15.2077 N   0  0  0  0  0  0  0  0  0  0  0  0
   15.8772   -8.7064  -15.9631 C   0  0  0  0  0  0  0  0  0  0  0  0
   15.1059   -7.8955  -16.5685 N   0  0  0  0  0  0  0  0  0  0  0  0
   17.2837   -8.5199  -16.0413 N   0  0  0  0  0  0  0  0  0  0  0  0
   18.1861   -9.4329  -15.3747 C   0  0  0  0  0  0  0  0  0  0  0  0
   19.6285   -9.0654  -15.6334 C   0  0  0  0  0  0  0  0  0  0  0  0
   20.5906  -10.0694  -15.0994 C   0  0  0  0  0  0  0  0  0  0  0  0
   22.0399   -9.7262  -15.3446 C   0  0  2  0  0  0  0  0  0  0  0  0
   22.8303  -10.8332  -14.8381 N   0  0  0  0  0  0  0  0  0  0  0  0
   22.4444   -8.4407  -14.7613 C   0  0  0  0  0  0  0  0  0  0  0  0
   22.1715   -7.2163  -15.3595 O   0  0  0  0  0  0  0  0  0  0  0  0
   23.0672   -8.4062  -13.6728 O   0  0  0  0  0  0  0  0  0  0  0  0
  2  1  1  1
  2  9  1  0
  3  2  1  0
  4  3  1  0
  4  5  2  0
  6  5  1  0
  7  8  2  0
  7  6  1  0
  8  4  1  0
  9 10  2  0
 11 12  1  0
 13 12  1  6
 13 15  1  0
 14  9  1  0
 14 13  1  0
 15 16  2  0
 18 17  1  0
 19 18  2  0
 20 18  1  0
 21 20  1  0
 22 21  1  0
 23 22  1  0
 24 23  1  1
 24 26  1  0
 25 24  1  0
 25 15  1  0
 26 28  2  0
 26 27  1  0
M  END
$$$$
