HSR.pdb
     RDKit          3D

 28 28  0  0  1  0  0  0  0  0999 V2000
   16.5335  -20.4974    3.5129 N   0  0  0  0  0  0  0  0  0  0  0  0
   15.1707  -20.2963    3.1315 C   0  0  1  0  0  0  0  0  0  0  0  0
   14.8967  -18.8398    2.8269 C   0  0  0  0  0  0  0  0  0  0  0  0
   14.9780  -18.0930    4.1159 C   0  0  0  0  0  0  0  0  0  0  0  0
   13.9322  -17.9316    5.0293 C   0  0  0  0  0  0  0  0  0  0  0  0
   14.3588  -17.2073    6.0715 N   0  0  0  0  0  0  0  0  0  0  0  0
   15.6399  -16.9012    5.8548 C   0  0  0  0  0  0  0  0  0  0  0  0
   16.0175  -17.4421    4.6609 N   0  0  0  0  0  0  0  0  0  0  0  0
   14.8429  -21.1712    1.9810 C   0  0  0  0  0  0  0  0  0  0  0  0
   15.6741  -21.4313    1.0647 O   0  0  0  0  0  0  0  0  0  0  0  0
   12.3951  -24.8901    0.5706 O   0  0  0  0  0  0  0  0  0  0  0  0
   12.6770  -23.9232    1.5472 C   0  0  0  0  0  0  0  0  0  0  0  0
   13.1597  -22.6664    0.8507 C   0  0  2  0  0  0  0  0  0  0  0  0
   13.5642  -21.7450    1.8847 N   0  0  0  0  0  0  0  0  0  0  0  0
   12.0771  -22.0695    0.0311 C   0  0  0  0  0  0  0  0  0  0  0  0
   11.2855  -21.2222    0.5218 O   0  0  0  0  0  0  0  0  0  0  0  0
   12.6661  -20.6324   -8.4995 N   0  0  0  0  0  0  0  0  0  0  0  0
   12.0190  -19.5121   -7.8609 C   0  0  0  0  0  0  0  0  0  0  0  0
   11.8479  -18.4283   -8.5054 N   0  0  0  0  0  0  0  0  0  0  0  0
   11.5678  -19.6015   -6.5165 N   0  0  0  0  0  0  0  0  0  0  0  0
   11.7231  -20.8291   -5.7675 C   0  0  0  0  0  0  0  0  0  0  0  0
   11.2605  -20.6626   -4.3389 C   0  0  0  0  0  0  0  0  0  0  0  0
   11.2118  -21.9483   -3.5884 C   0  0  0  0  0  0  0  0  0  0  0  0
   10.8197  -21.8015   -2.1382 C   0  0  2  0  0  0  0  0  0  0  0  0
   11.8711  -22.4172   -1.3493 N   0  0  0  0  0  0  0  0  0  0  0  0
    9.4954  -22.3563   -1.8303 C   0  0  0  0  0  0  0  0  0  0  0  0
    8.3128  -21.6550   -2.0330 O   0  0  0  0  0  0  0  0  0  0  0  0
    9.3866  -23.5146   -1.3608 O   0  0  0  0  0  0  0  0  0  0  0  0
  2  1  1  6
  2  9  1  0
  3  2  1  0
  4  3  1  0
  4  5  2  0
  6  5  1  0
  7  8  2  0
  7  6  1  0
  8  4  1  0
  9 10  2  0
 11 12  1  0
 13 12  1  1
 13 15  1  0
 14  9  1  0
 14 13  1  0
 15 16  2  0
 18 17  1  0
 19 18  2  0
 20 18  1  0
 21 20  1  0
 22 21  1  0
 23 22  1  0
 24 23  1  6
 24 26  1  0
 25 24  1  0
 25 15  1  0
 26 28  2  0
 26 27  1  0
M  END
$$$$
