WGT.pdb
     RDKit          3D

 26 27  0  0  1  0  0  0  0  0999 V2000
    8.8924  -16.1268   25.3386 N   0  0  0  0  0  0  0  0  0  0  0  0
    8.5438  -16.4996   23.9765 C   0  0  1  0  0  0  0  0  0  0  0  0
    7.6486  -15.3974   23.4434 C   0  0  0  0  0  0  0  0  0  0  0  0
    6.8142  -14.7834   24.4902 C   0  0  0  0  0  0  0  0  0  0  0  0
    5.9496  -15.4238   25.3383 C   0  0  0  0  0  0  0  0  0  0  0  0
    5.3574  -14.5384   26.1651 N   0  0  0  0  0  0  0  0  0  0  0  0
    5.8415  -13.3101   25.8517 C   0  0  0  0  0  0  0  0  0  0  0  0
    5.5581  -12.0713   26.3987 C   0  0  0  0  0  0  0  0  0  0  0  0
    6.1897  -10.9494   25.9008 C   0  0  0  0  0  0  0  0  0  0  0  0
    7.0929  -11.0536   24.8713 C   0  0  0  0  0  0  0  0  0  0  0  0
    7.3502  -12.3078   24.3505 C   0  0  0  0  0  0  0  0  0  0  0  0
    6.7488  -13.4475   24.8115 C   0  0  0  0  0  0  0  0  0  0  0  0
    9.7331  -16.7057   23.1366 C   0  0  0  0  0  0  0  0  0  0  0  0
    9.7916  -17.7101   22.3868 O   0  0  0  0  0  0  0  0  0  0  0  0
   10.8265  -15.8060   23.1407 N   0  0  0  0  0  0  0  0  0  0  0  0
   12.1900  -16.1985   23.3742 C   0  0  0  0  0  0  0  0  0  0  0  0
   12.4528  -16.2847   24.8279 C   0  0  0  0  0  0  0  0  0  0  0  0
   13.6559  -16.1871   25.2753 O   0  0  0  0  0  0  0  0  0  0  0  0
   11.0103  -14.1323   27.6152 C   0  0  0  0  0  0  0  0  0  0  0  0
   10.8699  -15.5728   28.0323 C   0  0  1  0  0  0  0  0  0  0  0  0
    9.5437  -15.9408   27.8092 O   0  0  0  0  0  0  0  0  0  0  0  0
   11.8081  -16.4744   27.2546 C   0  0  2  0  0  0  0  0  0  0  0  0
   11.4804  -16.4683   25.8356 N   0  0  0  0  0  0  0  0  0  0  0  0
   11.8524  -17.8362   27.8057 C   0  0  0  0  0  0  0  0  0  0  0  0
   11.4836  -18.9659   27.0997 O   0  0  0  0  0  0  0  0  0  0  0  0
   12.2480  -17.9921   28.9889 O   0  0  0  0  0  0  0  0  0  0  0  0
  2  1  1  1
  3  2  1  0
  4  3  1  0
  5  4  2  0
  6  7  1  0
  6  5  1  0
  7 12  2  0
  8  7  1  0
  8  9  2  0
  9 10  1  0
 10 11  2  0
 12  4  1  0
 12 11  1  0
 13 15  1  0
 13  2  1  0
 14 13  2  0
 16 15  1  0
 17 16  1  0
 18 17  2  0
 20 19  1  6
 20 22  1  0
 21 20  1  0
 22 24  1  0
 22 23  1  6
 23 17  1  0
 24 25  1  0
 26 24  2  0
M  END
$$$$
