WGT.pdb
     RDKit          3D

 26 27  0  0  1  0  0  0  0  0999 V2000
    6.8786  -17.5314   24.2810 N   0  0  0  0  0  0  0  0  0  0  0  0
    7.6920  -16.5266   23.6141 C   0  0  1  0  0  0  0  0  0  0  0  0
    8.2569  -15.6360   24.7041 C   0  0  0  0  0  0  0  0  0  0  0  0
    7.2344  -14.7789   25.3278 C   0  0  0  0  0  0  0  0  0  0  0  0
    6.0098  -15.1673   25.8036 C   0  0  0  0  0  0  0  0  0  0  0  0
    5.3421  -14.1095   26.3068 N   0  0  0  0  0  0  0  0  0  0  0  0
    6.1402  -13.0223   26.1569 C   0  0  0  0  0  0  0  0  0  0  0  0
    5.9261  -11.7011   26.5070 C   0  0  0  0  0  0  0  0  0  0  0  0
    6.9052  -10.7634   26.2473 C   0  0  0  0  0  0  0  0  0  0  0  0
    8.0845  -11.1307   25.6467 C   0  0  0  0  0  0  0  0  0  0  0  0
    8.2623  -12.4598   25.3115 C   0  0  0  0  0  0  0  0  0  0  0  0
    7.3207  -13.4241   25.5493 C   0  0  0  0  0  0  0  0  0  0  0  0
    8.7467  -17.1285   22.7848 C   0  0  0  0  0  0  0  0  0  0  0  0
    9.0820  -18.3212   22.9840 O   0  0  0  0  0  0  0  0  0  0  0  0
    9.4058  -16.4078   21.7596 N   0  0  0  0  0  0  0  0  0  0  0  0
   10.4752  -16.9424   20.9607 C   0  0  0  0  0  0  0  0  0  0  0  0
   11.6483  -17.2379   21.8128 C   0  0  0  0  0  0  0  0  0  0  0  0
   12.0788  -16.3593   22.6493 O   0  0  0  0  0  0  0  0  0  0  0  0
   12.7911  -20.8276   23.6409 C   0  0  0  0  0  0  0  0  0  0  0  0
   13.8475  -20.1289   22.8257 C   0  0  1  0  0  0  0  0  0  0  0  0
   13.8876  -20.7520   21.5790 O   0  0  0  0  0  0  0  0  0  0  0  0
   13.5478  -18.6511   22.6703 C   0  0  2  0  0  0  0  0  0  0  0  0
   12.3875  -18.4414   21.8154 N   0  0  0  0  0  0  0  0  0  0  0  0
   14.7191  -17.8932   22.2077 C   0  0  0  0  0  0  0  0  0  0  0  0
   14.7673  -17.2028   21.0112 O   0  0  0  0  0  0  0  0  0  0  0  0
   15.7425  -17.8659   22.9376 O   0  0  0  0  0  0  0  0  0  0  0  0
  2  1  1  1
  3  2  1  0
  4  3  1  0
  5  4  2  0
  6  7  1  0
  6  5  1  0
  7 12  2  0
  8  7  1  0
  8  9  2  0
  9 10  1  0
 10 11  2  0
 12  4  1  0
 12 11  1  0
 13 15  1  0
 13  2  1  0
 14 13  2  0
 16 15  1  0
 17 16  1  0
 18 17  2  0
 20 19  1  1
 20 22  1  0
 21 20  1  0
 22 24  1  0
 22 23  1  6
 23 17  1  0
 24 25  1  0
 26 24  2  0
M  END
$$$$
