WGT.pdb
     RDKit          3D

 26 27  0  0  1  0  0  0  0  0999 V2000
    7.3294  -16.7938   20.6153 N   0  0  0  0  0  0  0  0  0  0  0  0
    7.7772  -16.0631   21.7907 C   0  0  1  0  0  0  0  0  0  0  0  0
    6.6444  -15.1314   22.1768 C   0  0  0  0  0  0  0  0  0  0  0  0
    7.1162  -13.9011   22.8345 C   0  0  0  0  0  0  0  0  0  0  0  0
    7.9047  -12.9230   22.2880 C   0  0  0  0  0  0  0  0  0  0  0  0
    8.1341  -11.9447   23.1871 N   0  0  0  0  0  0  0  0  0  0  0  0
    7.4886  -12.2898   24.3297 C   0  0  0  0  0  0  0  0  0  0  0  0
    7.4070  -11.6319   25.5440 C   0  0  0  0  0  0  0  0  0  0  0  0
    6.6776  -12.1939   26.5724 C   0  0  0  0  0  0  0  0  0  0  0  0
    6.0354  -13.3957   26.3996 C   0  0  0  0  0  0  0  0  0  0  0  0
    6.1397  -14.0233   25.1726 C   0  0  0  0  0  0  0  0  0  0  0  0
    6.8511  -13.5047   24.1247 C   0  0  0  0  0  0  0  0  0  0  0  0
    8.1580  -16.9620   22.8904 C   0  0  0  0  0  0  0  0  0  0  0  0
    7.3043  -17.7482   23.3675 O   0  0  0  0  0  0  0  0  0  0  0  0
    9.4637  -16.9755   23.4379 N   0  0  0  0  0  0  0  0  0  0  0  0
    9.8631  -17.8026   24.5443 C   0  0  0  0  0  0  0  0  0  0  0  0
   10.5751  -16.9904   25.5558 C   0  0  0  0  0  0  0  0  0  0  0  0
   11.4605  -16.1308   25.1895 O   0  0  0  0  0  0  0  0  0  0  0  0
   10.1990  -14.1674   27.7920 C   0  0  0  0  0  0  0  0  0  0  0  0
   10.5760  -15.3247   28.6793 C   0  0  1  0  0  0  0  0  0  0  0  0
    9.3989  -15.8131   29.2448 O   0  0  0  0  0  0  0  0  0  0  0  0
   11.2842  -16.4174   27.9030 C   0  0  2  0  0  0  0  0  0  0  0  0
   10.3805  -17.0519   26.9533 N   0  0  0  0  0  0  0  0  0  0  0  0
   11.9318  -17.3960   28.7880 C   0  0  0  0  0  0  0  0  0  0  0  0
   12.9003  -17.0709   29.7190 O   0  0  0  0  0  0  0  0  0  0  0  0
   11.5904  -18.6029   28.6997 O   0  0  0  0  0  0  0  0  0  0  0  0
  2  1  1  6
  3  2  1  0
  4  3  1  0
  5  4  2  0
  6  7  1  0
  6  5  1  0
  7 12  2  0
  8  7  1  0
  8  9  2  0
  9 10  1  0
 10 11  2  0
 12  4  1  0
 12 11  1  0
 13 15  1  0
 13  2  1  0
 14 13  2  0
 16 15  1  0
 17 16  1  0
 18 17  2  0
 20 19  1  6
 20 22  1  0
 21 20  1  0
 22 24  1  0
 22 23  1  1
 23 17  1  0
 24 25  1  0
 26 24  2  0
M  END
$$$$
