WGT.pdb
     RDKit          3D

 26 27  0  0  1  0  0  0  0  0999 V2000
    7.0382  -17.2312   26.1130 N   0  0  0  0  0  0  0  0  0  0  0  0
    6.7564  -16.4524   24.9172 C   0  0  1  0  0  0  0  0  0  0  0  0
    7.9539  -15.5473   24.7000 C   0  0  0  0  0  0  0  0  0  0  0  0
    8.2377  -14.6875   25.8615 C   0  0  0  0  0  0  0  0  0  0  0  0
    9.1615  -14.9112   26.8482 C   0  0  0  0  0  0  0  0  0  0  0  0
    9.1417  -13.9083   27.7492 N   0  0  0  0  0  0  0  0  0  0  0  0
    8.1956  -13.0235   27.3447 C   0  0  0  0  0  0  0  0  0  0  0  0
    7.7844  -11.8318   27.9145 C   0  0  0  0  0  0  0  0  0  0  0  0
    6.7872  -11.0971   27.3050 C   0  0  0  0  0  0  0  0  0  0  0  0
    6.2034  -11.5386   26.1429 C   0  0  0  0  0  0  0  0  0  0  0  0
    6.6405  -12.7336   25.6034 C   0  0  0  0  0  0  0  0  0  0  0  0
    7.6253  -13.4956   26.1717 C   0  0  0  0  0  0  0  0  0  0  0  0
    6.4852  -17.3061   23.7510 C   0  0  0  0  0  0  0  0  0  0  0  0
    5.7073  -18.2835   23.8702 O   0  0  0  0  0  0  0  0  0  0  0  0
    7.0732  -17.0661   22.4855 N   0  0  0  0  0  0  0  0  0  0  0  0
    6.3918  -17.2549   21.2334 C   0  0  0  0  0  0  0  0  0  0  0  0
    7.2310  -16.7631   20.1182 C   0  0  0  0  0  0  0  0  0  0  0  0
    6.9089  -17.0273   18.9002 O   0  0  0  0  0  0  0  0  0  0  0  0
    6.7953  -13.7127   19.6552 C   0  0  0  0  0  0  0  0  0  0  0  0
    8.2876  -13.6763   19.4544 C   0  0  1  0  0  0  0  0  0  0  0  0
    8.8457  -13.1116   20.6006 O   0  0  0  0  0  0  0  0  0  0  0  0
    8.8541  -15.0622   19.2167 C   0  0  2  0  0  0  0  0  0  0  0  0
    8.4072  -15.9917   20.2450 N   0  0  0  0  0  0  0  0  0  0  0  0
   10.3177  -15.0477   19.0832 C   0  0  0  0  0  0  0  0  0  0  0  0
   11.1781  -15.6810   19.9603 O   0  0  0  0  0  0  0  0  0  0  0  0
   10.8259  -14.4246   18.1165 O   0  0  0  0  0  0  0  0  0  0  0  0
  2  1  1  1
  3  2  1  0
  4  3  1  0
  5  4  2  0
  6  7  1  0
  6  5  1  0
  7 12  2  0
  8  7  1  0
  8  9  2  0
  9 10  1  0
 10 11  2  0
 12  4  1  0
 12 11  1  0
 13 15  1  0
 13  2  1  0
 14 13  2  0
 16 15  1  0
 17 16  1  0
 18 17  2  0
 20 19  1  1
 20 22  1  0
 21 20  1  0
 22 24  1  0
 22 23  1  1
 23 17  1  0
 24 25  1  0
 26 24  2  0
M  END
$$$$
