WGT.pdb
     RDKit          3D

 26 27  0  0  1  0  0  0  0  0999 V2000
    6.7766  -17.6381   24.0690 N   0  0  0  0  0  0  0  0  0  0  0  0
    7.9164  -16.7371   23.9992 C   0  0  1  0  0  0  0  0  0  0  0  0
    7.9644  -15.9989   25.3233 C   0  0  0  0  0  0  0  0  0  0  0  0
    6.9165  -14.9710   25.4420 C   0  0  0  0  0  0  0  0  0  0  0  0
    5.5764  -15.1771   25.6386 C   0  0  0  0  0  0  0  0  0  0  0  0
    4.9217  -13.9997   25.6973 N   0  0  0  0  0  0  0  0  0  0  0  0
    5.8449  -13.0182   25.5374 C   0  0  0  0  0  0  0  0  0  0  0  0
    5.6938  -11.6432   25.5188 C   0  0  0  0  0  0  0  0  0  0  0  0
    6.8027  -10.8413   25.3378 C   0  0  0  0  0  0  0  0  0  0  0  0
    8.0488  -11.3960   25.1768 C   0  0  0  0  0  0  0  0  0  0  0  0
    8.1605  -12.7734   25.2010 C   0  0  0  0  0  0  0  0  0  0  0  0
    7.0903  -13.6081   25.3775 C   0  0  0  0  0  0  0  0  0  0  0  0
    9.1702  -17.4506   23.7139 C   0  0  0  0  0  0  0  0  0  0  0  0
    9.2405  -18.6844   23.9317 O   0  0  0  0  0  0  0  0  0  0  0  0
   10.3132  -16.7934   23.1978 N   0  0  0  0  0  0  0  0  0  0  0  0
   11.6550  -17.2946   23.3252 C   0  0  0  0  0  0  0  0  0  0  0  0
   12.0827  -17.2493   24.7411 C   0  0  0  0  0  0  0  0  0  0  0  0
   13.3181  -17.4367   25.0506 O   0  0  0  0  0  0  0  0  0  0  0  0
   11.3904  -15.1009   29.1177 C   0  0  0  0  0  0  0  0  0  0  0  0
   10.9648  -15.4395   27.7131 C   0  0  1  0  0  0  0  0  0  0  0  0
   11.1584  -14.2983   26.9357 O   0  0  0  0  0  0  0  0  0  0  0  0
   11.7587  -16.6032   27.1532 C   0  0  2  0  0  0  0  0  0  0  0  0
   11.2446  -17.0072   25.8518 N   0  0  0  0  0  0  0  0  0  0  0  0
   11.8288  -17.7304   28.0938 C   0  0  0  0  0  0  0  0  0  0  0  0
   12.5743  -17.7180   29.2577 O   0  0  0  0  0  0  0  0  0  0  0  0
   11.1748  -18.7719   27.8319 O   0  0  0  0  0  0  0  0  0  0  0  0
  2  1  1  1
  3  2  1  0
  4  3  1  0
  5  4  2  0
  6  7  1  0
  6  5  1  0
  7 12  2  0
  8  7  1  0
  8  9  2  0
  9 10  1  0
 10 11  2  0
 12  4  1  0
 12 11  1  0
 13 15  1  0
 13  2  1  0
 14 13  2  0
 16 15  1  0
 17 16  1  0
 18 17  2  0
 20 19  1  1
 20 22  1  0
 21 20  1  0
 22 24  1  0
 22 23  1  6
 23 17  1  0
 24 25  1  0
 26 24  2  0
M  END
$$$$
