WGT.pdb
     RDKit          3D

 26 27  0  0  1  0  0  0  0  0999 V2000
    6.5451  -17.5066   24.3466 N   0  0  0  0  0  0  0  0  0  0  0  0
    7.6967  -16.6181   24.3626 C   0  0  1  0  0  0  0  0  0  0  0  0
    7.6970  -15.9366   25.7176 C   0  0  0  0  0  0  0  0  0  0  0  0
    6.7360  -14.8234   25.7968 C   0  0  0  0  0  0  0  0  0  0  0  0
    5.4004  -14.9050   26.0907 C   0  0  0  0  0  0  0  0  0  0  0  0
    4.8376  -13.6798   26.0726 N   0  0  0  0  0  0  0  0  0  0  0  0
    5.8168  -12.7925   25.7640 C   0  0  0  0  0  0  0  0  0  0  0  0
    5.7644  -11.4175   25.6205 C   0  0  0  0  0  0  0  0  0  0  0  0
    6.9140  -10.7249   25.2976 C   0  0  0  0  0  0  0  0  0  0  0  0
    8.1036  -11.3878   25.1186 C   0  0  0  0  0  0  0  0  0  0  0  0
    8.1168  -12.7615   25.2704 C   0  0  0  0  0  0  0  0  0  0  0  0
    7.0031  -13.4901   25.5897 C   0  0  0  0  0  0  0  0  0  0  0  0
    8.9535  -17.3349   24.0998 C   0  0  0  0  0  0  0  0  0  0  0  0
    9.1219  -18.4809   24.5825 O   0  0  0  0  0  0  0  0  0  0  0  0
    9.9920  -16.7772   23.3154 N   0  0  0  0  0  0  0  0  0  0  0  0
   11.3787  -17.1348   23.4457 C   0  0  0  0  0  0  0  0  0  0  0  0
   11.8844  -16.7348   24.7776 C   0  0  0  0  0  0  0  0  0  0  0  0
   12.9877  -16.0798   24.8813 O   0  0  0  0  0  0  0  0  0  0  0  0
   11.2906  -14.1985   27.0112 C   0  0  0  0  0  0  0  0  0  0  0  0
   11.1318  -15.4185   27.8802 C   0  0  1  0  0  0  0  0  0  0  0  0
    9.7652  -15.6702   27.9945 O   0  0  0  0  0  0  0  0  0  0  0  0
   11.8448  -16.6204   27.2927 C   0  0  2  0  0  0  0  0  0  0  0  0
   11.2584  -17.0015   26.0152 N   0  0  0  0  0  0  0  0  0  0  0  0
   11.8991  -17.7479   28.2340 C   0  0  0  0  0  0  0  0  0  0  0  0
   12.4561  -17.6718   29.4967 O   0  0  0  0  0  0  0  0  0  0  0  0
   11.4123  -18.8511   27.8776 O   0  0  0  0  0  0  0  0  0  0  0  0
  2  1  1  1
  3  2  1  0
  4  3  1  0
  5  4  2  0
  6  7  1  0
  6  5  1  0
  7 12  2  0
  8  7  1  0
  8  9  2  0
  9 10  1  0
 10 11  2  0
 12  4  1  0
 12 11  1  0
 13 15  1  0
 13  2  1  0
 14 13  2  0
 16 15  1  0
 17 16  1  0
 18 17  2  0
 20 19  1  6
 20 22  1  0
 21 20  1  0
 22 24  1  0
 22 23  1  6
 23 17  1  0
 24 25  1  0
 26 24  2  0
M  END
$$$$
