WGT.pdb
     RDKit          3D

 26 27  0  0  1  0  0  0  0  0999 V2000
    7.0751  -17.3672   24.3927 N   0  0  0  0  0  0  0  0  0  0  0  0
    8.1177  -16.3680   24.2179 C   0  0  1  0  0  0  0  0  0  0  0  0
    8.1886  -15.5870   25.5161 C   0  0  0  0  0  0  0  0  0  0  0  0
    6.9768  -14.7892   25.7692 C   0  0  0  0  0  0  0  0  0  0  0  0
    5.7333  -15.2589   26.1009 C   0  0  0  0  0  0  0  0  0  0  0  0
    4.8686  -14.2360   26.2564 N   0  0  0  0  0  0  0  0  0  0  0  0
    5.5564  -13.0897   26.0234 C   0  0  0  0  0  0  0  0  0  0  0  0
    5.1347  -11.7724   26.0537 C   0  0  0  0  0  0  0  0  0  0  0  0
    6.0365  -10.7649   25.7760 C   0  0  0  0  0  0  0  0  0  0  0  0
    7.3430  -11.0594   25.4714 C   0  0  0  0  0  0  0  0  0  0  0  0
    7.7273  -12.3869   25.4509 C   0  0  0  0  0  0  0  0  0  0  0  0
    6.8692  -13.4188   25.7192 C   0  0  0  0  0  0  0  0  0  0  0  0
    9.4099  -16.9720   23.8604 C   0  0  0  0  0  0  0  0  0  0  0  0
    9.6075  -18.1887   24.0951 O   0  0  0  0  0  0  0  0  0  0  0  0
   10.4510  -16.2269   23.2555 N   0  0  0  0  0  0  0  0  0  0  0  0
   11.8289  -16.6377   23.2386 C   0  0  0  0  0  0  0  0  0  0  0  0
   12.3559  -16.7077   24.6196 C   0  0  0  0  0  0  0  0  0  0  0  0
   13.6155  -16.8767   24.8241 O   0  0  0  0  0  0  0  0  0  0  0  0
   11.9246  -14.2630   27.5967 C   0  0  0  0  0  0  0  0  0  0  0  0
   11.6060  -15.6589   28.0645 C   0  0  1  0  0  0  0  0  0  0  0  0
   10.2173  -15.7686   28.1238 O   0  0  0  0  0  0  0  0  0  0  0  0
   12.1810  -16.7064   27.1315 C   0  0  2  0  0  0  0  0  0  0  0  0
   11.5929  -16.6009   25.8033 N   0  0  0  0  0  0  0  0  0  0  0  0
   12.0629  -18.0641   27.6819 C   0  0  0  0  0  0  0  0  0  0  0  0
   12.5769  -18.4469   28.9066 O   0  0  0  0  0  0  0  0  0  0  0  0
   11.4599  -18.9355   27.0051 O   0  0  0  0  0  0  0  0  0  0  0  0
  2  1  1  1
  3  2  1  0
  4  3  1  0
  5  4  2  0
  6  7  1  0
  6  5  1  0
  7 12  2  0
  8  7  1  0
  8  9  2  0
  9 10  1  0
 10 11  2  0
 12  4  1  0
 12 11  1  0
 13 15  1  0
 13  2  1  0
 14 13  2  0
 16 15  1  0
 17 16  1  0
 18 17  2  0
 20 19  1  6
 20 22  1  0
 21 20  1  0
 22 24  1  0
 22 23  1  6
 23 17  1  0
 24 25  1  0
 26 24  2  0
M  END
$$$$
