WGT.pdb
     RDKit          3D

 26 27  0  0  1  0  0  0  0  0999 V2000
    6.9367  -16.8131   23.2744 N   0  0  0  0  0  0  0  0  0  0  0  0
    8.0660  -15.9199   23.4813 C   0  0  1  0  0  0  0  0  0  0  0  0
    8.0265  -15.5054   24.9397 C   0  0  0  0  0  0  0  0  0  0  0  0
    6.8129  -14.7456   25.2845 C   0  0  0  0  0  0  0  0  0  0  0  0
    5.5943  -15.2561   25.6467 C   0  0  0  0  0  0  0  0  0  0  0  0
    4.7189  -14.2597   25.8900 N   0  0  0  0  0  0  0  0  0  0  0  0
    5.3746  -13.0897   25.6840 C   0  0  0  0  0  0  0  0  0  0  0  0
    4.9307  -11.7843   25.7976 C   0  0  0  0  0  0  0  0  0  0  0  0
    5.8009  -10.7464   25.5308 C   0  0  0  0  0  0  0  0  0  0  0  0
    7.0976  -10.9991   25.1552 C   0  0  0  0  0  0  0  0  0  0  0  0
    7.5046  -12.3160   25.0525 C   0  0  0  0  0  0  0  0  0  0  0  0
    6.6782  -13.3769   25.3069 C   0  0  0  0  0  0  0  0  0  0  0  0
    9.3441  -16.5487   23.1158 C   0  0  0  0  0  0  0  0  0  0  0  0
    9.5799  -16.8107   21.9115 O   0  0  0  0  0  0  0  0  0  0  0  0
   10.3295  -16.8735   24.0793 N   0  0  0  0  0  0  0  0  0  0  0  0
   11.6968  -16.4336   24.0109 C   0  0  0  0  0  0  0  0  0  0  0  0
   12.4032  -16.7705   25.2668 C   0  0  0  0  0  0  0  0  0  0  0  0
   13.6796  -16.6262   25.3505 O   0  0  0  0  0  0  0  0  0  0  0  0
   11.7969  -14.7981   28.1074 C   0  0  0  0  0  0  0  0  0  0  0  0
   11.7461  -16.1989   28.6588 C   0  0  1  0  0  0  0  0  0  0  0  0
   10.4014  -16.5415   28.7948 O   0  0  0  0  0  0  0  0  0  0  0  0
   12.4548  -17.1838   27.7501 C   0  0  2  0  0  0  0  0  0  0  0  0
   11.8030  -17.2556   26.4497 N   0  0  0  0  0  0  0  0  0  0  0  0
   12.5965  -18.5084   28.3711 C   0  0  0  0  0  0  0  0  0  0  0  0
   13.2145  -18.7272   29.5879 O   0  0  0  0  0  0  0  0  0  0  0  0
   12.1307  -19.5075   27.7663 O   0  0  0  0  0  0  0  0  0  0  0  0
  2  1  1  1
  3  2  1  0
  4  3  1  0
  5  4  2  0
  6  7  1  0
  6  5  1  0
  7 12  2  0
  8  7  1  0
  8  9  2  0
  9 10  1  0
 10 11  2  0
 12  4  1  0
 12 11  1  0
 13 15  1  0
 13  2  1  0
 14 13  2  0
 16 15  1  0
 17 16  1  0
 18 17  2  0
 20 19  1  6
 20 22  1  0
 21 20  1  0
 22 24  1  0
 22 23  1  6
 23 17  1  0
 24 25  1  0
 26 24  2  0
M  END
$$$$
