WGT.pdb
     RDKit          3D

 26 27  0  0  1  0  0  0  0  0999 V2000
    6.8351  -16.4175   22.7084 N   0  0  0  0  0  0  0  0  0  0  0  0
    8.2603  -16.3593   22.9939 C   0  0  1  0  0  0  0  0  0  0  0  0
    8.3951  -16.2838   24.5027 C   0  0  0  0  0  0  0  0  0  0  0  0
    7.3947  -15.3977   25.1215 C   0  0  0  0  0  0  0  0  0  0  0  0
    6.1121  -15.7222   25.4775 C   0  0  0  0  0  0  0  0  0  0  0  0
    5.4883  -14.6558   26.0176 N   0  0  0  0  0  0  0  0  0  0  0  0
    6.3737  -13.6275   26.0129 C   0  0  0  0  0  0  0  0  0  0  0  0
    6.2321  -12.3238   26.4538 C   0  0  0  0  0  0  0  0  0  0  0  0
    7.2948  -11.4501   26.3402 C   0  0  0  0  0  0  0  0  0  0  0  0
    8.4858  -11.8638   25.7953 C   0  0  0  0  0  0  0  0  0  0  0  0
    8.5896  -13.1734   25.3660 C   0  0  0  0  0  0  0  0  0  0  0  0
    7.5639  -14.0749   25.4582 C   0  0  0  0  0  0  0  0  0  0  0  0
    8.9864  -17.5055   22.4268 C   0  0  0  0  0  0  0  0  0  0  0  0
    8.3607  -18.3592   21.7529 O   0  0  0  0  0  0  0  0  0  0  0  0
   10.3784  -17.6856   22.6132 N   0  0  0  0  0  0  0  0  0  0  0  0
   11.2619  -18.2161   21.6104 C   0  0  0  0  0  0  0  0  0  0  0  0
   12.6656  -18.1274   22.0706 C   0  0  0  0  0  0  0  0  0  0  0  0
   13.3264  -19.1979   22.3432 O   0  0  0  0  0  0  0  0  0  0  0  0
   16.9456  -15.7366   22.8404 C   0  0  0  0  0  0  0  0  0  0  0  0
   15.5259  -15.7163   22.3375 C   0  0  1  0  0  0  0  0  0  0  0  0
   15.5806  -15.7003   20.9444 O   0  0  0  0  0  0  0  0  0  0  0  0
   14.7431  -16.9201   22.8234 C   0  0  2  0  0  0  0  0  0  0  0  0
   13.4040  -16.9370   22.2512 N   0  0  0  0  0  0  0  0  0  0  0  0
   14.7184  -17.0105   24.2902 C   0  0  0  0  0  0  0  0  0  0  0  0
   15.7952  -17.4168   25.0558 O   0  0  0  0  0  0  0  0  0  0  0  0
   13.6589  -16.7017   24.8926 O   0  0  0  0  0  0  0  0  0  0  0  0
  2  1  1  1
  3  2  1  0
  4  3  1  0
  5  4  2  0
  6  7  1  0
  6  5  1  0
  7 12  2  0
  8  7  1  0
  8  9  2  0
  9 10  1  0
 10 11  2  0
 12  4  1  0
 12 11  1  0
 13 15  1  0
 13  2  1  0
 14 13  2  0
 16 15  1  0
 17 16  1  0
 18 17  2  0
 20 19  1  1
 20 22  1  0
 21 20  1  0
 22 24  1  0
 22 23  1  1
 23 17  1  0
 24 25  1  0
 26 24  2  0
M  END
$$$$
