WGT.pdb
     RDKit          3D

 26 27  0  0  1  0  0  0  0  0999 V2000
    6.4391  -18.2807   24.6420 N   0  0  0  0  0  0  0  0  0  0  0  0
    6.7619  -17.2576   23.6597 C   0  0  1  0  0  0  0  0  0  0  0  0
    7.7734  -16.3358   24.3136 C   0  0  0  0  0  0  0  0  0  0  0  0
    7.1706  -15.4554   25.3288 C   0  0  0  0  0  0  0  0  0  0  0  0
    6.3788  -15.8307   26.3819 C   0  0  0  0  0  0  0  0  0  0  0  0
    6.0098  -14.7523   27.1025 N   0  0  0  0  0  0  0  0  0  0  0  0
    6.5671  -13.6649   26.5123 C   0  0  0  0  0  0  0  0  0  0  0  0
    6.4974  -12.3268   26.8566 C   0  0  0  0  0  0  0  0  0  0  0  0
    7.1615  -11.3929   26.0870 C   0  0  0  0  0  0  0  0  0  0  0  0
    7.8874  -11.7807   24.9874 C   0  0  0  0  0  0  0  0  0  0  0  0
    7.9338  -13.1262   24.6747 C   0  0  0  0  0  0  0  0  0  0  0  0
    7.2920  -14.0875   25.4076 C   0  0  0  0  0  0  0  0  0  0  0  0
    7.2647  -17.8340   22.4038 C   0  0  0  0  0  0  0  0  0  0  0  0
    7.1586  -19.0687   22.2064 O   0  0  0  0  0  0  0  0  0  0  0  0
    7.8700  -17.0425   21.3978 N   0  0  0  0  0  0  0  0  0  0  0  0
    7.8558  -17.3720   19.9982 C   0  0  0  0  0  0  0  0  0  0  0  0
    8.5404  -16.3159   19.2199 C   0  0  0  0  0  0  0  0  0  0  0  0
    8.6085  -16.3983   17.9370 O   0  0  0  0  0  0  0  0  0  0  0  0
    7.8419  -12.7379   18.8260 C   0  0  0  0  0  0  0  0  0  0  0  0
    9.3164  -12.8003   19.1273 C   0  0  1  0  0  0  0  0  0  0  0  0
    9.4859  -12.3937   20.4502 O   0  0  0  0  0  0  0  0  0  0  0  0
    9.8695  -14.1975   18.9273 C   0  0  2  0  0  0  0  0  0  0  0  0
    9.1581  -15.1633   19.7532 N   0  0  0  0  0  0  0  0  0  0  0  0
   11.3230  -14.2541   19.1387 C   0  0  0  0  0  0  0  0  0  0  0  0
   12.2363  -13.5058   18.4199 O   0  0  0  0  0  0  0  0  0  0  0  0
   11.7708  -15.0263   20.0241 O   0  0  0  0  0  0  0  0  0  0  0  0
  2  1  1  1
  3  2  1  0
  4  3  1  0
  5  4  2  0
  6  7  1  0
  6  5  1  0
  7 12  2  0
  8  7  1  0
  8  9  2  0
  9 10  1  0
 10 11  2  0
 12  4  1  0
 12 11  1  0
 13 15  1  0
 13  2  1  0
 14 13  2  0
 16 15  1  0
 17 16  1  0
 18 17  2  0
 20 19  1  1
 20 22  1  0
 21 20  1  0
 22 24  1  0
 22 23  1  1
 23 17  1  0
 24 25  1  0
 26 24  2  0
M  END
$$$$
