WGT.pdb
     RDKit          3D

 26 27  0  0  1  0  0  0  0  0999 V2000
    6.8103  -17.6366   25.0809 N   0  0  0  0  0  0  0  0  0  0  0  0
    7.1085  -16.8263   23.9103 C   0  0  1  0  0  0  0  0  0  0  0  0
    7.8535  -15.6036   24.4105 C   0  0  0  0  0  0  0  0  0  0  0  0
    7.0616  -14.8005   25.3576 C   0  0  0  0  0  0  0  0  0  0  0  0
    5.9358  -15.1927   26.0326 C   0  0  0  0  0  0  0  0  0  0  0  0
    5.4810  -14.1916   26.8131 N   0  0  0  0  0  0  0  0  0  0  0  0
    6.3192  -13.1379   26.6441 C   0  0  0  0  0  0  0  0  0  0  0  0
    6.2965  -11.8772   27.2135 C   0  0  0  0  0  0  0  0  0  0  0  0
    7.2752  -10.9635   26.8776 C   0  0  0  0  0  0  0  0  0  0  0  0
    8.2664  -11.2953   25.9867 C   0  0  0  0  0  0  0  0  0  0  0  0
    8.2563  -12.5641   25.4386 C   0  0  0  0  0  0  0  0  0  0  0  0
    7.3072  -13.5026   25.7413 C   0  0  0  0  0  0  0  0  0  0  0  0
    7.8759  -17.5715   22.9012 C   0  0  0  0  0  0  0  0  0  0  0  0
    8.4848  -18.6159   23.2374 O   0  0  0  0  0  0  0  0  0  0  0  0
    7.9557  -17.1526   21.5511 N   0  0  0  0  0  0  0  0  0  0  0  0
    8.7124  -17.8394   20.5394 C   0  0  0  0  0  0  0  0  0  0  0  0
    8.4955  -17.2025   19.2215 C   0  0  0  0  0  0  0  0  0  0  0  0
    8.8849  -17.7921   18.1455 O   0  0  0  0  0  0  0  0  0  0  0  0
    7.5138  -13.1777   20.0113 C   0  0  0  0  0  0  0  0  0  0  0  0
    7.7523  -13.5458   18.5704 C   0  0  1  0  0  0  0  0  0  0  0  0
    8.4080  -12.4708   17.9717 O   0  0  0  0  0  0  0  0  0  0  0  0
    8.5816  -14.8086   18.4455 C   0  0  2  0  0  0  0  0  0  0  0  0
    7.8727  -15.9549   18.9974 N   0  0  0  0  0  0  0  0  0  0  0  0
    9.9208  -14.6528   19.0310 C   0  0  0  0  0  0  0  0  0  0  0  0
   11.0430  -14.2993   18.3056 O   0  0  0  0  0  0  0  0  0  0  0  0
   10.0630  -14.8510   20.2645 O   0  0  0  0  0  0  0  0  0  0  0  0
  2  1  1  1
  3  2  1  0
  4  3  1  0
  5  4  2  0
  6  7  1  0
  6  5  1  0
  7 12  2  0
  8  7  1  0
  8  9  2  0
  9 10  1  0
 10 11  2  0
 12  4  1  0
 12 11  1  0
 13 15  1  0
 13  2  1  0
 14 13  2  0
 16 15  1  0
 17 16  1  0
 18 17  2  0
 20 19  1  1
 20 22  1  0
 21 20  1  0
 22 24  1  0
 22 23  1  1
 23 17  1  0
 24 25  1  0
 26 24  2  0
M  END
$$$$
