AVP.pdb
     RDKit          3D

 20 20  0  0  1  0  0  0  0  0999 V2000
   23.0192  -19.7206  -10.5372 C   0  0  0  0  0  0  0  0  0  0  0  0
   24.2730  -20.2304  -11.2210 C   0  0  2  0  0  0  0  0  0  0  0  0
   23.8544  -21.2734  -12.1390 N   0  0  0  0  0  0  0  0  0  0  0  0
   25.2200  -20.8279  -10.2510 C   0  0  0  0  0  0  0  0  0  0  0  0
   24.9967  -21.9679   -9.7163 O   0  0  0  0  0  0  0  0  0  0  0  0
   29.2162  -19.6693  -10.0556 C   0  0  0  0  0  0  0  0  0  0  0  0
   28.6945  -21.0062   -9.5730 C   0  0  1  0  0  0  0  0  0  0  0  0
   29.6981  -21.6590   -8.6801 C   0  0  0  0  0  0  0  0  0  0  0  0
   27.3368  -20.8440   -8.9032 C   0  0  2  0  0  0  0  0  0  0  0  0
   26.4242  -20.1931   -9.8486 N   0  0  0  0  0  0  0  0  0  0  0  0
   27.4935  -19.9631   -7.7228 C   0  0  0  0  0  0  0  0  0  0  0  0
   27.5136  -18.7110   -7.9718 O   0  0  0  0  0  0  0  0  0  0  0  0
   27.6141  -20.4359   -6.3871 N   0  0  0  0  0  0  0  0  0  0  0  0
   27.5905  -21.7583   -5.8354 C   0  0  0  0  0  0  0  0  0  0  0  0
   28.6754  -21.6628   -4.7472 C   0  0  0  0  0  0  0  0  0  0  0  0
   28.1428  -20.3931   -4.0511 C   0  0  0  0  0  0  0  0  0  0  0  0
   27.8079  -19.5133   -5.2621 C   0  0  1  0  0  0  0  0  0  0  0  0
   28.9111  -18.5610   -5.4983 C   0  0  0  0  0  0  0  0  0  0  0  0
   29.6880  -18.7393   -6.4615 O   0  0  0  0  0  0  0  0  0  0  0  0
   29.0970  -17.4790   -4.6755 O   0  0  0  0  0  0  0  0  0  0  0  0
  2  1  1  1
  2  3  1  0
  4  2  1  0
  4  5  2  0
  7  6  1  1
  7  9  1  0
  8  7  1  0
  9 10  1  6
  9 11  1  0
 10  4  1  0
 11 13  1  0
 12 11  2  0
 13 14  1  0
 13 17  1  0
 14 15  1  0
 15 16  1  0
 17 16  1  0
 18 20  1  0
 17 18  1  6
 19 18  2  0
M  END
$$$$
