AVP.pdb
     RDKit          3D

 20 20  0  0  1  0  0  0  0  0999 V2000
   19.5851  -19.0374  -13.9791 C   0  0  0  0  0  0  0  0  0  0  0  0
   19.8715  -20.3345  -14.7106 C   0  0  2  0  0  0  0  0  0  0  0  0
   18.7057  -21.1804  -14.5342 N   0  0  0  0  0  0  0  0  0  0  0  0
   21.0400  -21.0401  -14.1348 C   0  0  0  0  0  0  0  0  0  0  0  0
   20.9366  -21.7457  -13.0733 O   0  0  0  0  0  0  0  0  0  0  0  0
   25.3854  -23.1874  -14.7077 C   0  0  0  0  0  0  0  0  0  0  0  0
   24.0298  -22.6729  -15.1437 C   0  0  1  0  0  0  0  0  0  0  0  0
   23.1160  -23.8163  -15.4407 C   0  0  0  0  0  0  0  0  0  0  0  0
   23.4547  -21.7225  -14.1025 C   0  0  2  0  0  0  0  0  0  0  0  0
   22.3383  -20.9881  -14.7062 N   0  0  0  0  0  0  0  0  0  0  0  0
   24.5030  -20.7484  -13.7203 C   0  0  0  0  0  0  0  0  0  0  0  0
   24.9060  -19.9806  -14.6575 O   0  0  0  0  0  0  0  0  0  0  0  0
   25.0495  -20.6393  -12.4120 N   0  0  0  0  0  0  0  0  0  0  0  0
   24.6879  -21.2569  -11.1705 C   0  0  0  0  0  0  0  0  0  0  0  0
   26.0673  -21.5371  -10.5468 C   0  0  0  0  0  0  0  0  0  0  0  0
   26.6454  -20.1155  -10.7041 C   0  0  0  0  0  0  0  0  0  0  0  0
   26.2027  -19.7752  -12.1327 C   0  0  1  0  0  0  0  0  0  0  0  0
   27.3230  -20.0124  -13.0645 C   0  0  0  0  0  0  0  0  0  0  0  0
   27.3842  -21.0880  -13.6989 O   0  0  0  0  0  0  0  0  0  0  0  0
   28.3007  -19.0673  -13.2469 O   0  0  0  0  0  0  0  0  0  0  0  0
  2  1  1  1
  2  3  1  0
  4  2  1  0
  4  5  2  0
  7  6  1  1
  7  9  1  0
  8  7  1  0
  9 10  1  6
  9 11  1  0
 10  4  1  0
 11 13  1  0
 12 11  2  0
 13 14  1  0
 13 17  1  0
 14 15  1  0
 15 16  1  0
 17 16  1  0
 18 20  1  0
 17 18  1  6
 19 18  2  0
M  END
$$$$
