AVP.pdb
     RDKit          3D

 20 20  0  0  1  0  0  0  0  0999 V2000
   15.5062   -5.7293   -8.1068 C   0  0  0  0  0  0  0  0  0  0  0  0
   15.0328   -6.7485   -9.1249 C   0  0  2  0  0  0  0  0  0  0  0  0
   14.6158   -7.9218   -8.3797 N   0  0  0  0  0  0  0  0  0  0  0  0
   16.1242   -7.1529  -10.0415 C   0  0  0  0  0  0  0  0  0  0  0  0
   16.9012   -8.1299   -9.7636 O   0  0  0  0  0  0  0  0  0  0  0  0
   15.9621   -8.7730  -13.3111 C   0  0  0  0  0  0  0  0  0  0  0  0
   16.6654   -7.4445  -13.4925 C   0  0  1  0  0  0  0  0  0  0  0  0
   15.6977   -6.4095  -13.9646 C   0  0  0  0  0  0  0  0  0  0  0  0
   17.3789   -7.0341  -12.2116 C   0  0  2  0  0  0  0  0  0  0  0  0
   16.3858   -6.4997  -11.2743 N   0  0  0  0  0  0  0  0  0  0  0  0
   18.3456   -5.9587  -12.5319 C   0  0  0  0  0  0  0  0  0  0  0  0
   17.8350   -4.8083  -12.7466 O   0  0  0  0  0  0  0  0  0  0  0  0
   19.7531   -6.1488  -12.6036 N   0  0  0  0  0  0  0  0  0  0  0  0
   20.5860   -7.2626  -12.2578 C   0  0  0  0  0  0  0  0  0  0  0  0
   21.6246   -7.2413  -13.3939 C   0  0  0  0  0  0  0  0  0  0  0  0
   22.0202   -5.7554  -13.2694 C   0  0  0  0  0  0  0  0  0  0  0  0
   20.6437   -5.0978  -13.1099 C   0  0  1  0  0  0  0  0  0  0  0  0
   20.2001   -4.5629  -14.4125 C   0  0  0  0  0  0  0  0  0  0  0  0
   19.4776   -5.2619  -15.1558 O   0  0  0  0  0  0  0  0  0  0  0  0
   20.5684   -3.3060  -14.8211 O   0  0  0  0  0  0  0  0  0  0  0  0
  2  1  1  1
  2  3  1  0
  4  2  1  0
  4  5  2  0
  7  6  1  1
  7  9  1  0
  8  7  1  0
  9 10  1  1
  9 11  1  0
 10  4  1  0
 11 13  1  0
 12 11  2  0
 13 14  1  0
 13 17  1  0
 14 15  1  0
 15 16  1  0
 17 16  1  0
 18 20  1  0
 17 18  1  6
 19 18  2  0
M  END
$$$$
