AVP.pdb
     RDKit          3D

 20 20  0  0  1  0  0  0  0  0999 V2000
   20.2550  -12.4115  -20.4597 C   0  0  0  0  0  0  0  0  0  0  0  0
   20.9397  -13.1136  -19.3031 C   0  0  2  0  0  0  0  0  0  0  0  0
   20.3964  -14.4581  -19.2491 N   0  0  0  0  0  0  0  0  0  0  0  0
   20.6478  -12.4501  -18.0110 C   0  0  0  0  0  0  0  0  0  0  0  0
   19.5182  -12.5919  -17.4285 O   0  0  0  0  0  0  0  0  0  0  0  0
   23.7167  -10.9655  -15.5409 C   0  0  0  0  0  0  0  0  0  0  0  0
   22.3694  -11.4463  -15.0450 C   0  0  1  0  0  0  0  0  0  0  0  0
   22.1181  -10.9389  -13.6630 C   0  0  0  0  0  0  0  0  0  0  0  0
   21.2666  -11.0549  -16.0191 C   0  0  2  0  0  0  0  0  0  0  0  0
   21.5813  -11.6226  -17.3340 N   0  0  0  0  0  0  0  0  0  0  0  0
   21.2439   -9.5789  -16.1404 C   0  0  0  0  0  0  0  0  0  0  0  0
   22.3675   -9.0330  -16.4048 O   0  0  0  0  0  0  0  0  0  0  0  0
   20.0745   -8.7851  -15.9834 N   0  0  0  0  0  0  0  0  0  0  0  0
   18.7022   -9.1370  -15.7678 C   0  0  0  0  0  0  0  0  0  0  0  0
   18.2547   -8.0545  -14.7687 C   0  0  0  0  0  0  0  0  0  0  0  0
   18.7500   -6.8325  -15.5696 C   0  0  0  0  0  0  0  0  0  0  0  0
   20.1326   -7.3189  -16.0218 C   0  0  1  0  0  0  0  0  0  0  0  0
   21.1657   -6.7724  -15.1198 C   0  0  0  0  0  0  0  0  0  0  0  0
   21.6285   -7.4859  -14.2034 O   0  0  0  0  0  0  0  0  0  0  0  0
   21.6284   -5.4898  -15.2727 O   0  0  0  0  0  0  0  0  0  0  0  0
  2  1  1  6
  2  3  1  0
  4  2  1  0
  4  5  2  0
  7  6  1  6
  7  9  1  0
  8  7  1  0
  9 10  1  6
  9 11  1  0
 10  4  1  0
 11 13  1  0
 12 11  2  0
 13 14  1  0
 13 17  1  0
 14 15  1  0
 15 16  1  0
 17 16  1  0
 18 20  1  0
 17 18  1  1
 19 18  2  0
M  END
$$$$
