AVP.pdb
     RDKit          3D

 20 20  0  0  1  0  0  0  0  0999 V2000
   19.4621   -9.9137  -19.5011 C   0  0  0  0  0  0  0  0  0  0  0  0
   20.4548  -10.7876  -18.7590 C   0  0  2  0  0  0  0  0  0  0  0  0
   19.9086  -12.1320  -18.7566 N   0  0  0  0  0  0  0  0  0  0  0  0
   20.6160  -10.3568  -17.3507 C   0  0  0  0  0  0  0  0  0  0  0  0
   19.8052  -10.7399  -16.4390 O   0  0  0  0  0  0  0  0  0  0  0  0
   23.6014  -10.9270  -15.1293 C   0  0  0  0  0  0  0  0  0  0  0  0
   23.2916   -9.4450  -15.1161 C   0  0  1  0  0  0  0  0  0  0  0  0
   24.2441   -8.7117  -16.0024 C   0  0  0  0  0  0  0  0  0  0  0  0
   21.8371   -9.1960  -15.4909 C   0  0  2  0  0  0  0  0  0  0  0  0
   21.6624   -9.5028  -16.9142 N   0  0  0  0  0  0  0  0  0  0  0  0
   21.5330   -7.7617  -15.2811 C   0  0  0  0  0  0  0  0  0  0  0  0
   22.1776   -6.9496  -16.0265 O   0  0  0  0  0  0  0  0  0  0  0  0
   20.5943   -7.2779  -14.3288 N   0  0  0  0  0  0  0  0  0  0  0  0
   19.6527   -7.9540  -13.4862 C   0  0  0  0  0  0  0  0  0  0  0  0
   19.7537   -7.1369  -12.1853 C   0  0  0  0  0  0  0  0  0  0  0  0
   19.5518   -5.7426  -12.8140 C   0  0  0  0  0  0  0  0  0  0  0  0
   20.4566   -5.8437  -14.0485 C   0  0  1  0  0  0  0  0  0  0  0  0
   21.7535   -5.1989  -13.7620 C   0  0  0  0  0  0  0  0  0  0  0  0
   22.7359   -5.9004  -13.4368 O   0  0  0  0  0  0  0  0  0  0  0  0
   21.8983   -3.8373  -13.8485 O   0  0  0  0  0  0  0  0  0  0  0  0
  2  1  1  6
  2  3  1  0
  4  2  1  0
  4  5  2  0
  7  6  1  6
  7  9  1  0
  8  7  1  0
  9 10  1  6
  9 11  1  0
 10  4  1  0
 11 13  1  0
 12 11  2  0
 13 14  1  0
 13 17  1  0
 14 15  1  0
 15 16  1  0
 17 16  1  0
 18 20  1  0
 17 18  1  1
 19 18  2  0
M  END
$$$$
