AVP.pdb
     RDKit          3D

 20 20  0  0  1  0  0  0  0  0999 V2000
   21.3355  -19.1673  -14.5103 C   0  0  0  0  0  0  0  0  0  0  0  0
   22.5237  -19.8072  -15.2018 C   0  0  2  0  0  0  0  0  0  0  0  0
   21.9938  -20.8340  -16.0796 N   0  0  0  0  0  0  0  0  0  0  0  0
   23.4342  -20.4595  -14.2322 C   0  0  0  0  0  0  0  0  0  0  0  0
   23.0928  -21.5216  -13.6069 O   0  0  0  0  0  0  0  0  0  0  0  0
   27.5358  -19.2873  -13.7944 C   0  0  0  0  0  0  0  0  0  0  0  0
   27.0234  -20.7031  -13.6353 C   0  0  1  0  0  0  0  0  0  0  0  0
   27.9905  -21.5143  -12.8370 C   0  0  0  0  0  0  0  0  0  0  0  0
   25.6250  -20.7047  -13.0332 C   0  0  2  0  0  0  0  0  0  0  0  0
   24.7298  -19.9654  -13.9288 N   0  0  0  0  0  0  0  0  0  0  0  0
   25.6694  -20.0005  -11.7309 C   0  0  0  0  0  0  0  0  0  0  0  0
   25.9545  -18.7573  -11.7892 O   0  0  0  0  0  0  0  0  0  0  0  0
   25.4166  -20.6255  -10.4788 N   0  0  0  0  0  0  0  0  0  0  0  0
   25.0003  -21.9545  -10.1406 C   0  0  0  0  0  0  0  0  0  0  0  0
   25.8407  -22.2348   -8.8815 C   0  0  0  0  0  0  0  0  0  0  0  0
   25.4646  -20.9548   -8.1066 C   0  0  0  0  0  0  0  0  0  0  0  0
   25.5750  -19.8987   -9.2135 C   0  0  1  0  0  0  0  0  0  0  0  0
   26.8811  -19.2176   -9.1150 C   0  0  0  0  0  0  0  0  0  0  0  0
   27.8306  -19.5906   -9.8378 O   0  0  0  0  0  0  0  0  0  0  0  0
   27.0696  -18.1771   -8.2408 O   0  0  0  0  0  0  0  0  0  0  0  0
  2  1  1  1
  2  3  1  0
  4  2  1  0
  4  5  2  0
  7  6  1  1
  7  9  1  0
  8  7  1  0
  9 10  1  6
  9 11  1  0
 10  4  1  0
 11 13  1  0
 12 11  2  0
 13 14  1  0
 13 17  1  0
 14 15  1  0
 15 16  1  0
 17 16  1  0
 18 20  1  0
 17 18  1  6
 19 18  2  0
M  END
$$$$
