AVP.pdb
     RDKit          3D

 20 20  0  0  1  0  0  0  0  0999 V2000
   16.3736  -28.6439  -10.8551 C   0  0  0  0  0  0  0  0  0  0  0  0
   17.5319  -27.6769  -11.0065 C   0  0  2  0  0  0  0  0  0  0  0  0
   18.5933  -28.3983  -11.6837 N   0  0  0  0  0  0  0  0  0  0  0  0
   18.0481  -27.2323   -9.6910 C   0  0  0  0  0  0  0  0  0  0  0  0
   19.0190  -27.8350   -9.1170 O   0  0  0  0  0  0  0  0  0  0  0  0
   18.6947  -23.8981   -9.3450 C   0  0  0  0  0  0  0  0  0  0  0  0
   18.6393  -24.2768   -7.8801 C   0  0  1  0  0  0  0  0  0  0  0  0
   17.8421  -23.2700   -7.1175 C   0  0  0  0  0  0  0  0  0  0  0  0
   18.1056  -25.6926   -7.7102 C   0  0  2  0  0  0  0  0  0  0  0  0
   17.5149  -26.1249   -8.9808 N   0  0  0  0  0  0  0  0  0  0  0  0
   17.0406  -25.6768   -6.6809 C   0  0  0  0  0  0  0  0  0  0  0  0
   15.9387  -25.1409   -7.0401 O   0  0  0  0  0  0  0  0  0  0  0  0
   17.1905  -26.2118   -5.3720 N   0  0  0  0  0  0  0  0  0  0  0  0
   18.2557  -26.9464   -4.7558 C   0  0  0  0  0  0  0  0  0  0  0  0
   18.2680  -26.3488   -3.3370 C   0  0  0  0  0  0  0  0  0  0  0  0
   16.7657  -26.5289   -3.0359 C   0  0  0  0  0  0  0  0  0  0  0  0
   16.1433  -26.0555   -4.3555 C   0  0  1  0  0  0  0  0  0  0  0  0
   15.6992  -24.6545   -4.2152 C   0  0  0  0  0  0  0  0  0  0  0  0
   16.3904  -23.7337   -4.7024 O   0  0  0  0  0  0  0  0  0  0  0  0
   14.5352  -24.3462   -3.5576 O   0  0  0  0  0  0  0  0  0  0  0  0
  2  1  1  1
  2  3  1  0
  4  2  1  0
  4  5  2  0
  7  6  1  6
  7  9  1  0
  8  7  1  0
  9 10  1  6
  9 11  1  0
 10  4  1  0
 11 13  1  0
 12 11  2  0
 13 14  1  0
 13 17  1  0
 14 15  1  0
 15 16  1  0
 17 16  1  0
 18 20  1  0
 17 18  1  1
 19 18  2  0
M  END
$$$$
