AVP.pdb
     RDKit          3D

 20 20  0  0  1  0  0  0  0  0999 V2000
   25.9788  -14.7684  -17.4618 C   0  0  0  0  0  0  0  0  0  0  0  0
   25.5320  -13.8015  -16.3824 C   0  0  2  0  0  0  0  0  0  0  0  0
   24.8455  -14.5879  -15.3744 N   0  0  0  0  0  0  0  0  0  0  0  0
   24.5774  -12.7982  -16.9084 C   0  0  0  0  0  0  0  0  0  0  0  0
   24.8953  -12.0128  -17.8663 O   0  0  0  0  0  0  0  0  0  0  0  0
   19.9769  -11.3039  -17.6673 C   0  0  0  0  0  0  0  0  0  0  0  0
   21.0426  -12.3254  -17.3311 C   0  0  1  0  0  0  0  0  0  0  0  0
   21.1954  -13.2990  -18.4533 C   0  0  0  0  0  0  0  0  0  0  0  0
   22.3532  -11.6379  -16.9734 C   0  0  2  0  0  0  0  0  0  0  0  0
   23.2624  -12.6350  -16.3994 N   0  0  0  0  0  0  0  0  0  0  0  0
   22.0816  -10.6064  -15.9457 C   0  0  0  0  0  0  0  0  0  0  0  0
   21.4727  -11.0191  -14.9020 O   0  0  0  0  0  0  0  0  0  0  0  0
   22.4571   -9.2405  -16.0701 N   0  0  0  0  0  0  0  0  0  0  0  0
   23.1548   -8.5311  -17.1015 C   0  0  0  0  0  0  0  0  0  0  0  0
   22.3880   -7.1966  -17.1371 C   0  0  0  0  0  0  0  0  0  0  0  0
   22.4654   -6.8862  -15.6279 C   0  0  0  0  0  0  0  0  0  0  0  0
   22.1323   -8.2584  -15.0288 C   0  0  1  0  0  0  0  0  0  0  0  0
   20.7070   -8.2948  -14.6453 C   0  0  0  0  0  0  0  0  0  0  0  0
   19.8572   -8.7191  -15.4583 O   0  0  0  0  0  0  0  0  0  0  0  0
   20.2992   -7.8702  -13.4061 O   0  0  0  0  0  0  0  0  0  0  0  0
  2  1  1  6
  2  3  1  0
  4  2  1  0
  4  5  2  0
  7  6  1  6
  7  9  1  0
  8  7  1  0
  9 10  1  1
  9 11  1  0
 10  4  1  0
 11 13  1  0
 12 11  2  0
 13 14  1  0
 13 17  1  0
 14 15  1  0
 15 16  1  0
 17 16  1  0
 18 20  1  0
 17 18  1  6
 19 18  2  0
M  END
$$$$
