AVP.pdb
     RDKit          3D

 20 20  0  0  1  0  0  0  0  0999 V2000
   27.6510  -20.1966  -17.2427 C   0  0  0  0  0  0  0  0  0  0  0  0
   28.1829  -21.0190  -16.0850 C   0  0  2  0  0  0  0  0  0  0  0  0
   28.8144  -22.1920  -16.6603 N   0  0  0  0  0  0  0  0  0  0  0  0
   27.0920  -21.4777  -15.1937 C   0  0  0  0  0  0  0  0  0  0  0  0
   26.4620  -22.5680  -15.4170 O   0  0  0  0  0  0  0  0  0  0  0  0
   26.1567  -19.4429  -11.5653 C   0  0  0  0  0  0  0  0  0  0  0  0
   25.9946  -20.9401  -11.7223 C   0  0  1  0  0  0  0  0  0  0  0  0
   24.9960  -21.4561  -10.7389 C   0  0  0  0  0  0  0  0  0  0  0  0
   25.6351  -21.2947  -13.1587 C   0  0  2  0  0  0  0  0  0  0  0  0
   26.6708  -20.7562  -14.0462 N   0  0  0  0  0  0  0  0  0  0  0  0
   24.3464  -20.6480  -13.4976 C   0  0  0  0  0  0  0  0  0  0  0  0
   24.3295  -19.3749  -13.4007 O   0  0  0  0  0  0  0  0  0  0  0  0
   23.1842  -21.3564  -13.9093 N   0  0  0  0  0  0  0  0  0  0  0  0
   22.9659  -22.7393  -14.2150 C   0  0  0  0  0  0  0  0  0  0  0  0
   21.5717  -22.9780  -13.6072 C   0  0  0  0  0  0  0  0  0  0  0  0
   20.8578  -21.7888  -14.2826 C   0  0  0  0  0  0  0  0  0  0  0  0
   21.8963  -20.6762  -14.0912 C   0  0  1  0  0  0  0  0  0  0  0  0
   21.5248  -19.8520  -12.9240 C   0  0  0  0  0  0  0  0  0  0  0  0
   22.0036  -20.1179  -11.8001 O   0  0  0  0  0  0  0  0  0  0  0  0
   20.6605  -18.7944  -13.0539 O   0  0  0  0  0  0  0  0  0  0  0  0
  2  1  1  6
  2  3  1  0
  4  2  1  0
  4  5  2  0
  7  6  1  6
  7  9  1  0
  8  7  1  0
  9 10  1  6
  9 11  1  0
 10  4  1  0
 11 13  1  0
 12 11  2  0
 13 14  1  0
 13 17  1  0
 14 15  1  0
 15 16  1  0
 17 16  1  0
 18 20  1  0
 17 18  1  1
 19 18  2  0
M  END
$$$$
