AVP.pdb
     RDKit          3D

 20 20  0  0  1  0  0  0  0  0999 V2000
   28.3594  -31.1355  -14.8279 C   0  0  0  0  0  0  0  0  0  0  0  0
   28.3721  -31.2955  -16.3358 C   0  0  2  0  0  0  0  0  0  0  0  0
   29.3591  -32.3147  -16.6401 N   0  0  0  0  0  0  0  0  0  0  0  0
   28.7823  -30.0443  -17.0147 C   0  0  0  0  0  0  0  0  0  0  0  0
   29.9729  -29.8823  -17.4525 O   0  0  0  0  0  0  0  0  0  0  0  0
   27.1993  -28.7537  -20.0188 C   0  0  0  0  0  0  0  0  0  0  0  0
   27.3050  -27.5450  -19.1132 C   0  0  1  0  0  0  0  0  0  0  0  0
   25.9589  -27.1844  -18.5761 C   0  0  0  0  0  0  0  0  0  0  0  0
   28.3269  -27.7864  -18.0107 C   0  0  2  0  0  0  0  0  0  0  0  0
   27.9025  -28.9508  -17.2270 N   0  0  0  0  0  0  0  0  0  0  0  0
   28.3484  -26.6047  -17.1181 C   0  0  0  0  0  0  0  0  0  0  0  0
   27.3401  -26.4836  -16.3441 O   0  0  0  0  0  0  0  0  0  0  0  0
   29.3995  -25.6473  -17.0898 N   0  0  0  0  0  0  0  0  0  0  0  0
   30.6885  -25.6242  -17.7157 C   0  0  0  0  0  0  0  0  0  0  0  0
   30.8149  -24.1433  -18.1173 C   0  0  0  0  0  0  0  0  0  0  0  0
   30.4786  -23.5376  -16.7389 C   0  0  0  0  0  0  0  0  0  0  0  0
   29.2809  -24.4011  -16.3234 C   0  0  1  0  0  0  0  0  0  0  0  0
   28.0277  -23.6774  -16.6157 C   0  0  0  0  0  0  0  0  0  0  0  0
   27.3623  -23.9757  -17.6312 O   0  0  0  0  0  0  0  0  0  0  0  0
   27.5795  -22.6801  -15.7868 O   0  0  0  0  0  0  0  0  0  0  0  0
  2  1  1  1
  2  3  1  0
  4  2  1  0
  4  5  2  0
  7  6  1  1
  7  9  1  0
  8  7  1  0
  9 10  1  1
  9 11  1  0
 10  4  1  0
 11 13  1  0
 12 11  2  0
 13 14  1  0
 13 17  1  0
 14 15  1  0
 15 16  1  0
 17 16  1  0
 18 20  1  0
 17 18  1  6
 19 18  2  0
M  END
$$$$
