AVP.pdb
     RDKit          3D

 20 20  0  0  1  0  0  0  0  0999 V2000
   21.8099  -10.4699  -20.5883 C   0  0  0  0  0  0  0  0  0  0  0  0
   22.3332  -11.3195  -19.4464 C   0  0  2  0  0  0  0  0  0  0  0  0
   21.8058  -12.6569  -19.6442 N   0  0  0  0  0  0  0  0  0  0  0  0
   21.8525  -10.8277  -18.1343 C   0  0  0  0  0  0  0  0  0  0  0  0
   20.7262  -11.1979  -17.6550 O   0  0  0  0  0  0  0  0  0  0  0  0
   23.0250  -11.5840  -14.9298 C   0  0  0  0  0  0  0  0  0  0  0  0
   23.0503  -10.0702  -14.9457 C   0  0  1  0  0  0  0  0  0  0  0  0
   24.4489   -9.5802  -15.1307 C   0  0  0  0  0  0  0  0  0  0  0  0
   22.0979   -9.5272  -16.0022 C   0  0  2  0  0  0  0  0  0  0  0  0
   22.5908   -9.9255  -17.3245 N   0  0  0  0  0  0  0  0  0  0  0  0
   22.1019   -8.0480  -15.9277 C   0  0  0  0  0  0  0  0  0  0  0  0
   23.2325   -7.4916  -16.1338 O   0  0  0  0  0  0  0  0  0  0  0  0
   20.9498   -7.2616  -15.6512 N   0  0  0  0  0  0  0  0  0  0  0  0
   19.5652   -7.6075  -15.5210 C   0  0  0  0  0  0  0  0  0  0  0  0
   19.1254   -6.7047  -14.3541 C   0  0  0  0  0  0  0  0  0  0  0  0
   19.6663   -5.3756  -14.9206 C   0  0  0  0  0  0  0  0  0  0  0  0
   21.0449   -5.8136  -15.4307 C   0  0  1  0  0  0  0  0  0  0  0  0
   22.0736   -5.4625  -14.4316 C   0  0  0  0  0  0  0  0  0  0  0  0
   22.5044   -6.3392  -13.6514 O   0  0  0  0  0  0  0  0  0  0  0  0
   22.5668   -4.1850  -14.3464 O   0  0  0  0  0  0  0  0  0  0  0  0
  2  1  1  6
  2  3  1  0
  4  2  1  0
  4  5  2  0
  7  6  1  6
  7  9  1  0
  8  7  1  0
  9 10  1  6
  9 11  1  0
 10  4  1  0
 11 13  1  0
 12 11  2  0
 13 14  1  0
 13 17  1  0
 14 15  1  0
 15 16  1  0
 17 16  1  0
 18 20  1  0
 17 18  1  1
 19 18  2  0
M  END
$$$$
