SNV.pdb
     RDKit          3D

 22 21  0  0  1  0  0  0  0  0999 V2000
    8.5365  -11.8081   19.8612 O   0  0  0  0  0  0  0  0  0  0  0  0
    9.3402  -12.8533   19.4128 C   0  0  0  0  0  0  0  0  0  0  0  0
    8.5045  -14.1071   19.4237 C   0  0  2  0  0  0  0  0  0  0  0  0
    7.2806  -13.8472   18.7157 N   0  0  0  0  0  0  0  0  0  0  0  0
    8.1463  -14.5287   20.8011 C   0  0  0  0  0  0  0  0  0  0  0  0
    7.0290  -14.2758   21.3321 O   0  0  0  0  0  0  0  0  0  0  0  0
    8.3624  -19.1566   22.3914 N   0  0  0  0  0  0  0  0  0  0  0  0
    9.3371  -18.2025   21.9957 C   0  0  0  0  0  0  0  0  0  0  0  0
    9.8828  -18.2867   20.8881 O   0  0  0  0  0  0  0  0  0  0  0  0
    9.6840  -17.1204   22.9188 C   0  0  0  0  0  0  0  0  0  0  0  0
    8.8197  -15.9103   22.7961 C   0  0  2  0  0  0  0  0  0  0  0  0
    9.1069  -15.2513   21.5575 N   0  0  0  0  0  0  0  0  0  0  0  0
    9.1382  -15.0163   23.9705 C   0  0  0  0  0  0  0  0  0  0  0  0
   10.2553  -14.4495   24.0519 O   0  0  0  0  0  0  0  0  0  0  0  0
    6.0146  -13.9794   26.6938 C   0  0  0  0  0  0  0  0  0  0  0  0
    7.2419  -13.1233   26.4989 C   0  0  2  0  0  0  0  0  0  0  0  0
    6.9752  -12.2579   25.2696 C   0  0  0  0  0  0  0  0  0  0  0  0
    8.3906  -14.0148   26.1808 C   0  0  2  0  0  0  0  0  0  0  0  0
    8.1729  -14.8112   24.9924 N   0  0  0  0  0  0  0  0  0  0  0  0
    8.7962  -14.9035   27.2982 C   0  0  0  0  0  0  0  0  0  0  0  0
    9.2592  -14.4334   28.5100 O   0  0  0  0  0  0  0  0  0  0  0  0
    8.7191  -16.1404   27.1458 O   0  0  0  0  0  0  0  0  0  0  0  0
  1  2  1  0
  3  4  1  6
  3  2  1  0
  3  5  1  0
  5 12  1  0
  5  6  2  0
  8  9  2  0
  8  7  1  0
 10  8  1  0
 11 10  1  1
 11 13  1  0
 12 11  1  0
 13 14  2  0
 13 19  1  0
 16 15  1  6
 16 17  1  0
 18 20  1  0
 18 16  1  0
 18 19  1  6
 20 21  1  0
 22 20  2  0
M  END
$$$$
