SNV.pdb
     RDKit          3D

 22 21  0  0  1  0  0  0  0  0999 V2000
    5.6024  -19.7261   22.2558 O   0  0  0  0  0  0  0  0  0  0  0  0
    4.7188  -19.0942   21.3842 C   0  0  0  0  0  0  0  0  0  0  0  0
    5.5110  -18.6328   20.1884 C   0  0  2  0  0  0  0  0  0  0  0  0
    6.0844  -19.7848   19.5474 N   0  0  0  0  0  0  0  0  0  0  0  0
    6.6251  -17.7294   20.5700 C   0  0  0  0  0  0  0  0  0  0  0  0
    7.7329  -18.1467   21.0095 O   0  0  0  0  0  0  0  0  0  0  0  0
    7.7427  -11.6632   19.9883 N   0  0  0  0  0  0  0  0  0  0  0  0
    8.0737  -13.0142   20.2751 C   0  0  0  0  0  0  0  0  0  0  0  0
    9.2382  -13.3287   20.5517 O   0  0  0  0  0  0  0  0  0  0  0  0
    7.0157  -14.0254   20.2379 C   0  0  0  0  0  0  0  0  0  0  0  0
    7.4137  -15.3489   20.8006 C   0  0  2  0  0  0  0  0  0  0  0  0
    6.4355  -16.3285   20.4342 N   0  0  0  0  0  0  0  0  0  0  0  0
    7.4844  -15.1904   22.3005 C   0  0  0  0  0  0  0  0  0  0  0  0
    6.6131  -14.5232   22.9099 O   0  0  0  0  0  0  0  0  0  0  0  0
    8.4998  -17.9540   25.0109 C   0  0  0  0  0  0  0  0  0  0  0  0
    8.0075  -16.5563   25.2961 C   0  0  2  0  0  0  0  0  0  0  0  0
    6.5511  -16.5090   24.8400 C   0  0  0  0  0  0  0  0  0  0  0  0
    8.7758  -15.6055   24.4470 C   0  0  2  0  0  0  0  0  0  0  0  0
    8.5402  -15.7971   23.0321 N   0  0  0  0  0  0  0  0  0  0  0  0
   10.2376  -15.6073   24.7044 C   0  0  0  0  0  0  0  0  0  0  0  0
   10.7935  -15.2541   25.9169 O   0  0  0  0  0  0  0  0  0  0  0  0
   11.0132  -15.9434   23.7855 O   0  0  0  0  0  0  0  0  0  0  0  0
  1  2  1  0
  3  4  1  1
  3  2  1  0
  3  5  1  0
  5 12  1  0
  5  6  2  0
  8  9  2  0
  8  7  1  0
 10  8  1  0
 11 10  1  6
 11 13  1  0
 12 11  1  0
 13 14  2  0
 13 19  1  0
 16 15  1  6
 16 17  1  0
 18 20  1  0
 18 16  1  0
 18 19  1  6
 20 21  1  0
 22 20  2  0
M  END
$$$$
