SNV.pdb
     RDKit          3D

 22 21  0  0  1  0  0  0  0  0999 V2000
    9.3538  -12.5005   20.2302 O   0  0  0  0  0  0  0  0  0  0  0  0
    8.3896  -12.7767   19.2640 C   0  0  0  0  0  0  0  0  0  0  0  0
    8.1397  -14.2625   19.2820 C   0  0  2  0  0  0  0  0  0  0  0  0
    7.3003  -14.5988   18.1644 N   0  0  0  0  0  0  0  0  0  0  0  0
    7.4400  -14.6973   20.5168 C   0  0  0  0  0  0  0  0  0  0  0  0
    6.1824  -14.7124   20.6288 O   0  0  0  0  0  0  0  0  0  0  0  0
    5.9635  -17.8742   24.2878 N   0  0  0  0  0  0  0  0  0  0  0  0
    7.3613  -17.6337   24.2154 C   0  0  0  0  0  0  0  0  0  0  0  0
    8.0968  -17.9218   25.1681 O   0  0  0  0  0  0  0  0  0  0  0  0
    7.9153  -17.0403   22.9970 C   0  0  0  0  0  0  0  0  0  0  0  0
    7.6743  -15.5736   22.8660 C   0  0  2  0  0  0  0  0  0  0  0  0
    8.2232  -15.1163   21.6249 N   0  0  0  0  0  0  0  0  0  0  0  0
    8.3548  -14.9056   24.0367 C   0  0  0  0  0  0  0  0  0  0  0  0
    9.5956  -15.0116   24.1944 O   0  0  0  0  0  0  0  0  0  0  0  0
    5.8941  -12.9410   26.8820 C   0  0  0  0  0  0  0  0  0  0  0  0
    7.2709  -12.3795   26.6245 C   0  0  2  0  0  0  0  0  0  0  0  0
    7.1196  -11.3638   25.4945 C   0  0  0  0  0  0  0  0  0  0  0  0
    8.1411  -13.4796   26.1268 C   0  0  2  0  0  0  0  0  0  0  0  0
    7.5924  -14.1516   24.9686 N   0  0  0  0  0  0  0  0  0  0  0  0
    8.4924  -14.4885   27.1572 C   0  0  0  0  0  0  0  0  0  0  0  0
    8.1507  -15.8218   27.0592 O   0  0  0  0  0  0  0  0  0  0  0  0
    9.1289  -14.1246   28.1679 O   0  0  0  0  0  0  0  0  0  0  0  0
  1  2  1  0
  3  4  1  6
  3  2  1  0
  3  5  1  0
  5 12  1  0
  5  6  2  0
  8  9  2  0
  8  7  1  0
 10  8  1  0
 11 10  1  1
 11 13  1  0
 12 11  1  0
 13 14  2  0
 13 19  1  0
 16 15  1  6
 16 17  1  0
 18 20  1  0
 18 16  1  0
 18 19  1  6
 20 21  1  0
 22 20  2  0
M  END
$$$$
