SNV.pdb
     RDKit          3D

 22 21  0  0  1  0  0  0  0  0999 V2000
    8.8465  -14.0149   18.2173 O   0  0  0  0  0  0  0  0  0  0  0  0
    8.0191  -14.1135   19.3332 C   0  0  0  0  0  0  0  0  0  0  0  0
    7.9269  -15.5710   19.7042 C   0  0  2  0  0  0  0  0  0  0  0  0
    7.0773  -16.2326   18.7519 N   0  0  0  0  0  0  0  0  0  0  0  0
    7.3334  -15.7692   21.0502 C   0  0  0  0  0  0  0  0  0  0  0  0
    6.0890  -15.7600   21.2643 O   0  0  0  0  0  0  0  0  0  0  0  0
    6.9761  -17.3706   25.9055 N   0  0  0  0  0  0  0  0  0  0  0  0
    7.9235  -18.1270   25.1658 C   0  0  0  0  0  0  0  0  0  0  0  0
    8.4006  -19.1669   25.6374 O   0  0  0  0  0  0  0  0  0  0  0  0
    8.3246  -17.6560   23.8389 C   0  0  0  0  0  0  0  0  0  0  0  0
    7.7674  -16.3223   23.4684 C   0  0  2  0  0  0  0  0  0  0  0  0
    8.2076  -15.9791   22.1496 N   0  0  0  0  0  0  0  0  0  0  0  0
    8.2793  -15.3296   24.4844 C   0  0  0  0  0  0  0  0  0  0  0  0
    9.4900  -14.9982   24.4937 O   0  0  0  0  0  0  0  0  0  0  0  0
    6.0231  -12.2070   25.6059 C   0  0  0  0  0  0  0  0  0  0  0  0
    6.5866  -12.9097   26.8167 C   0  0  2  0  0  0  0  0  0  0  0  0
    7.1112  -11.8174   27.7457 C   0  0  0  0  0  0  0  0  0  0  0  0
    7.7511  -13.7296   26.3840 C   0  0  2  0  0  0  0  0  0  0  0  0
    7.3912  -14.7637   25.4379 N   0  0  0  0  0  0  0  0  0  0  0  0
    8.5160  -14.3346   27.5029 C   0  0  0  0  0  0  0  0  0  0  0  0
    9.3433  -13.6082   28.3347 O   0  0  0  0  0  0  0  0  0  0  0  0
    8.4140  -15.5613   27.7118 O   0  0  0  0  0  0  0  0  0  0  0  0
  1  2  1  0
  3  4  1  6
  3  2  1  0
  3  5  1  0
  5 12  1  0
  5  6  2  0
  8  9  2  0
  8  7  1  0
 10  8  1  0
 11 10  1  1
 11 13  1  0
 12 11  1  0
 13 14  2  0
 13 19  1  0
 16 15  1  6
 16 17  1  0
 18 20  1  0
 18 16  1  0
 18 19  1  6
 20 21  1  0
 22 20  2  0
M  END
$$$$
