SNV.pdb
     RDKit          3D

 22 21  0  0  1  0  0  0  0  0999 V2000
    7.1209  -16.4283   18.7845 O   0  0  0  0  0  0  0  0  0  0  0  0
    7.0828  -15.0386   18.7017 C   0  0  0  0  0  0  0  0  0  0  0  0
    8.0613  -14.4955   19.7106 C   0  0  2  0  0  0  0  0  0  0  0  0
    9.3527  -15.0714   19.4514 N   0  0  0  0  0  0  0  0  0  0  0  0
    7.6832  -14.8473   21.1022 C   0  0  0  0  0  0  0  0  0  0  0  0
    6.5662  -14.5499   21.6104 O   0  0  0  0  0  0  0  0  0  0  0  0
    9.9757  -18.5311   25.3961 N   0  0  0  0  0  0  0  0  0  0  0  0
    8.8681  -17.9192   24.7510 C   0  0  0  0  0  0  0  0  0  0  0  0
    7.7619  -17.8837   25.3046 O   0  0  0  0  0  0  0  0  0  0  0  0
    9.0578  -17.3328   23.4230 C   0  0  0  0  0  0  0  0  0  0  0  0
    8.3508  -16.0345   23.2204 C   0  0  2  0  0  0  0  0  0  0  0  0
    8.6233  -15.5522   21.8998 N   0  0  0  0  0  0  0  0  0  0  0  0
    8.8735  -15.0768   24.2641 C   0  0  0  0  0  0  0  0  0  0  0  0
   10.0729  -14.7072   24.2423 O   0  0  0  0  0  0  0  0  0  0  0  0
    6.0683  -13.2397   26.8939 C   0  0  0  0  0  0  0  0  0  0  0  0
    7.3668  -12.5732   26.5107 C   0  0  2  0  0  0  0  0  0  0  0  0
    7.1217  -11.8876   25.1686 C   0  0  0  0  0  0  0  0  0  0  0  0
    8.3917  -13.6308   26.2950 C   0  0  2  0  0  0  0  0  0  0  0  0
    8.0085  -14.5875   25.2792 N   0  0  0  0  0  0  0  0  0  0  0  0
    8.7828  -14.3571   27.5289 C   0  0  0  0  0  0  0  0  0  0  0  0
    9.3868  -13.7457   28.6084 O   0  0  0  0  0  0  0  0  0  0  0  0
    8.5591  -15.5831   27.6057 O   0  0  0  0  0  0  0  0  0  0  0  0
  1  2  1  0
  3  4  1  6
  3  2  1  0
  3  5  1  0
  5 12  1  0
  5  6  2  0
  8  9  2  0
  8  7  1  0
 10  8  1  0
 11 10  1  1
 11 13  1  0
 12 11  1  0
 13 14  2  0
 13 19  1  0
 16 15  1  6
 16 17  1  0
 18 20  1  0
 18 16  1  0
 18 19  1  6
 20 21  1  0
 22 20  2  0
M  END
$$$$
