SNV.pdb
     RDKit          3D

 22 21  0  0  1  0  0  0  0  0999 V2000
    8.6799  -14.9477   19.1749 O   0  0  0  0  0  0  0  0  0  0  0  0
    9.3919  -16.1278   19.3750 C   0  0  0  0  0  0  0  0  0  0  0  0
    8.3923  -17.2219   19.6474 C   0  0  2  0  0  0  0  0  0  0  0  0
    7.4250  -17.2329   18.5839 N   0  0  0  0  0  0  0  0  0  0  0  0
    7.6592  -17.0059   20.9198 C   0  0  0  0  0  0  0  0  0  0  0  0
    6.4560  -16.6259   20.9675 O   0  0  0  0  0  0  0  0  0  0  0  0
    6.2294  -17.9430   25.9035 N   0  0  0  0  0  0  0  0  0  0  0  0
    7.6187  -18.1270   25.6729 C   0  0  0  0  0  0  0  0  0  0  0  0
    8.4077  -18.1976   26.6237 O   0  0  0  0  0  0  0  0  0  0  0  0
    8.0995  -18.2316   24.2940 C   0  0  0  0  0  0  0  0  0  0  0  0
    7.7568  -17.0602   23.4356 C   0  0  2  0  0  0  0  0  0  0  0  0
    8.3446  -17.2377   22.1419 N   0  0  0  0  0  0  0  0  0  0  0  0
    8.3119  -15.8326   24.1175 C   0  0  0  0  0  0  0  0  0  0  0  0
    9.5020  -15.4832   23.9249 O   0  0  0  0  0  0  0  0  0  0  0  0
    7.3366  -11.5320   26.2187 C   0  0  0  0  0  0  0  0  0  0  0  0
    6.7921  -12.8090   25.6269 C   0  0  2  0  0  0  0  0  0  0  0  0
    5.7197  -13.3101   26.5914 C   0  0  0  0  0  0  0  0  0  0  0  0
    7.8848  -13.8195   25.6049 C   0  0  2  0  0  0  0  0  0  0  0  0
    7.4880  -15.0645   24.9831 N   0  0  0  0  0  0  0  0  0  0  0  0
    8.4749  -14.1038   26.9368 C   0  0  0  0  0  0  0  0  0  0  0  0
    9.2501  -13.1975   27.6308 O   0  0  0  0  0  0  0  0  0  0  0  0
    8.2664  -15.2153   27.4659 O   0  0  0  0  0  0  0  0  0  0  0  0
  1  2  1  0
  3  4  1  6
  3  2  1  0
  3  5  1  0
  5 12  1  0
  5  6  2  0
  8  9  2  0
  8  7  1  0
 10  8  1  0
 11 10  1  1
 11 13  1  0
 12 11  1  0
 13 14  2  0
 13 19  1  0
 16 15  1  1
 16 17  1  0
 18 20  1  0
 18 16  1  0
 18 19  1  1
 20 21  1  0
 22 20  2  0
M  END
$$$$
