SNV.pdb
     RDKit          3D

 22 21  0  0  1  0  0  0  0  0999 V2000
    9.6968  -16.0483   18.1244 O   0  0  0  0  0  0  0  0  0  0  0  0
    8.7430  -15.6651   19.0641 C   0  0  0  0  0  0  0  0  0  0  0  0
    8.2563  -16.9133   19.7537 C   0  0  2  0  0  0  0  0  0  0  0  0
    7.3247  -17.5815   18.8864 N   0  0  0  0  0  0  0  0  0  0  0  0
    7.5509  -16.6116   21.0244 C   0  0  0  0  0  0  0  0  0  0  0  0
    6.4215  -16.0487   21.0703 O   0  0  0  0  0  0  0  0  0  0  0  0
    7.9399  -18.6712   26.7276 N   0  0  0  0  0  0  0  0  0  0  0  0
    7.2100  -18.1019   25.6504 C   0  0  0  0  0  0  0  0  0  0  0  0
    6.0885  -17.6150   25.8417 O   0  0  0  0  0  0  0  0  0  0  0  0
    7.8063  -18.1013   24.3133 C   0  0  0  0  0  0  0  0  0  0  0  0
    7.5536  -16.8563   23.5308 C   0  0  2  0  0  0  0  0  0  0  0  0
    8.1767  -16.9737   22.2467 N   0  0  0  0  0  0  0  0  0  0  0  0
    8.1457  -15.7105   24.3160 C   0  0  0  0  0  0  0  0  0  0  0  0
    9.3690  -15.4442   24.2252 O   0  0  0  0  0  0  0  0  0  0  0  0
    7.2390  -11.4759   26.6213 C   0  0  0  0  0  0  0  0  0  0  0  0
    6.6700  -12.7013   25.9491 C   0  0  2  0  0  0  0  0  0  0  0  0
    5.6006  -13.2532   26.8889 C   0  0  0  0  0  0  0  0  0  0  0  0
    7.7476  -13.7227   25.8449 C   0  0  2  0  0  0  0  0  0  0  0  0
    7.3194  -14.9257   25.1642 N   0  0  0  0  0  0  0  0  0  0  0  0
    8.3641  -14.0888   27.1445 C   0  0  0  0  0  0  0  0  0  0  0  0
    8.4342  -15.3855   27.6109 O   0  0  0  0  0  0  0  0  0  0  0  0
    8.8468  -13.1870   27.8604 O   0  0  0  0  0  0  0  0  0  0  0  0
  1  2  1  0
  3  4  1  6
  3  2  1  0
  3  5  1  0
  5 12  1  0
  5  6  2  0
  8  9  2  0
  8  7  1  0
 10  8  1  0
 11 10  1  1
 11 13  1  0
 12 11  1  0
 13 14  2  0
 13 19  1  0
 16 15  1  1
 16 17  1  0
 18 20  1  0
 18 16  1  0
 18 19  1  1
 20 21  1  0
 22 20  2  0
M  END
$$$$
