MHD.pdb
     RDKit          3D

 27 27  0  0  1  0  0  0  0  0999 V2000
   27.4038  -13.1673  -15.0695 C   0  0  0  0  0  0  0  0  0  0  0  0
   26.8757  -14.8790  -14.8811 S   0  0  0  0  0  0  0  0  0  0  0  0
   25.8319  -15.4937  -16.1947 C   0  0  0  0  0  0  0  0  0  0  0  0
   24.6602  -14.6360  -16.4822 C   0  0  0  0  0  0  0  0  0  0  0  0
   23.3351  -15.1722  -16.0482 C   0  0  2  0  0  0  0  0  0  0  0  0
   22.9837  -16.3648  -16.7987 N   0  0  0  0  0  0  0  0  0  0  0  0
   22.3149  -14.1065  -16.3982 C   0  0  0  0  0  0  0  0  0  0  0  0
   21.9636  -14.0626  -17.5983 O   0  0  0  0  0  0  0  0  0  0  0  0
   21.7834  -13.2130  -15.4504 N   0  0  0  0  0  0  0  0  0  0  0  0
   20.7122  -12.2839  -15.8802 C   0  0  1  0  0  0  0  0  0  0  0  0
   19.5153  -12.5752  -15.0414 C   0  0  0  0  0  0  0  0  0  0  0  0
   18.6833  -13.6828  -15.5341 C   0  0  0  0  0  0  0  0  0  0  0  0
   18.8472  -14.5179  -16.5894 C   0  0  0  0  0  0  0  0  0  0  0  0
   17.8288  -15.4143  -16.5660 N   0  0  0  0  0  0  0  0  0  0  0  0
   17.0404  -15.1587  -15.5261 C   0  0  0  0  0  0  0  0  0  0  0  0
   17.5484  -14.1153  -14.8971 N   0  0  0  0  0  0  0  0  0  0  0  0
   21.1861  -10.9057  -15.5025 C   0  0  0  0  0  0  0  0  0  0  0  0
   21.8660  -10.6363  -14.5028 O   0  0  0  0  0  0  0  0  0  0  0  0
   20.8580   -9.7610  -16.3251 N   0  0  0  0  0  0  0  0  0  0  0  0
   21.2923   -8.4205  -15.9947 C   0  0  1  0  0  0  0  0  0  0  0  0
   21.3378   -7.5281  -17.2144 C   0  0  0  0  0  0  0  0  0  0  0  0
   21.7516   -6.1548  -16.9035 C   0  0  0  0  0  0  0  0  0  0  0  0
   22.1191   -5.8887  -15.7329 O   0  0  0  0  0  0  0  0  0  0  0  0
   20.5337   -7.8392  -14.8866 C   0  0  0  0  0  0  0  0  0  0  0  0
   19.3176   -8.0843  -14.7254 O   0  0  0  0  0  0  0  0  0  0  0  0
   21.7655   -5.1186  -17.8222 O   0  0  0  0  0  0  0  0  0  0  0  0
   21.1524   -6.9961  -13.9828 O   0  0  0  0  0  0  0  0  0  0  0  0
  2  1  1  0
  3  2  1  0
  4  3  1  0
  4  5  1  0
  5  7  1  0
  5  6  1  6
  7  8  2  0
  9 10  1  0
  9  7  1  0
 11 12  1  0
 10 11  1  1
 12 13  2  0
 14 13  1  0
 15 14  1  0
 16 15  2  0
 16 12  1  0
 17 18  2  0
 17 10  1  0
 19 17  1  0
 20 24  1  0
 20 19  1  0
 20 21  1  6
 22 21  1  0
 23 22  2  0
 24 27  1  0
 25 24  2  0
 26 22  1  0
M  END
$$$$
