MHD.pdb
     RDKit          3D

 27 27  0  0  1  0  0  0  0  0999 V2000
   16.7305  -11.4596  -19.2117 C   0  0  0  0  0  0  0  0  0  0  0  0
   18.0856  -12.1975  -20.1411 S   0  0  0  0  0  0  0  0  0  0  0  0
   19.4197  -12.8426  -19.1428 C   0  0  0  0  0  0  0  0  0  0  0  0
   19.9585  -11.8739  -18.1617 C   0  0  0  0  0  0  0  0  0  0  0  0
   21.4241  -11.9676  -17.8876 C   0  0  2  0  0  0  0  0  0  0  0  0
   21.7402  -13.1765  -17.1476 N   0  0  0  0  0  0  0  0  0  0  0  0
   21.7601  -10.7927  -16.9897 C   0  0  0  0  0  0  0  0  0  0  0  0
   21.3886  -10.8940  -15.7992 O   0  0  0  0  0  0  0  0  0  0  0  0
   22.4451   -9.6514  -17.4446 N   0  0  0  0  0  0  0  0  0  0  0  0
   22.7195   -8.5619  -16.4786 C   0  0  1  0  0  0  0  0  0  0  0  0
   24.1501   -8.1781  -16.6439 C   0  0  0  0  0  0  0  0  0  0  0  0
   25.1076   -9.1633  -16.1200 C   0  0  0  0  0  0  0  0  0  0  0  0
   24.9116  -10.3297  -15.4574 C   0  0  0  0  0  0  0  0  0  0  0  0
   26.1274  -10.8988  -15.2588 N   0  0  0  0  0  0  0  0  0  0  0  0
   27.0696  -10.1188  -15.7806 C   0  0  0  0  0  0  0  0  0  0  0  0
   26.4635   -9.0689  -16.3030 N   0  0  0  0  0  0  0  0  0  0  0  0
   21.8961   -7.3878  -16.9369 C   0  0  0  0  0  0  0  0  0  0  0  0
   21.6872   -7.0835  -18.1192 O   0  0  0  0  0  0  0  0  0  0  0  0
   21.2715   -6.5041  -15.9758 N   0  0  0  0  0  0  0  0  0  0  0  0
   20.5254   -5.3298  -16.3747 C   0  0  1  0  0  0  0  0  0  0  0  0
   19.5135   -4.9245  -15.3270 C   0  0  0  0  0  0  0  0  0  0  0  0
   18.7361   -3.7401  -15.7103 C   0  0  0  0  0  0  0  0  0  0  0  0
   19.3530   -2.7025  -16.0551 O   0  0  0  0  0  0  0  0  0  0  0  0
   21.3914   -4.2268  -16.7929 C   0  0  0  0  0  0  0  0  0  0  0  0
   22.3878   -3.8842  -16.1185 O   0  0  0  0  0  0  0  0  0  0  0  0
   17.3523   -3.6859  -15.7185 O   0  0  0  0  0  0  0  0  0  0  0  0
   21.1236   -3.5312  -17.9569 O   0  0  0  0  0  0  0  0  0  0  0  0
  2  1  1  0
  3  2  1  0
  4  3  1  0
  4  5  1  0
  5  7  1  0
  5  6  1  1
  7  8  2  0
  9 10  1  0
  9  7  1  0
 11 12  1  0
 10 11  1  6
 12 13  2  0
 14 13  1  0
 15 14  1  0
 16 15  2  0
 16 12  1  0
 17 18  2  0
 17 10  1  0
 19 17  1  0
 20 24  1  0
 20 19  1  0
 20 21  1  1
 22 21  1  0
 23 22  2  0
 24 27  1  0
 25 24  2  0
 26 22  1  0
M  END
$$$$
