MHD.pdb
     RDKit          3D

 27 27  0  0  1  0  0  0  0  0999 V2000
   17.1414  -14.5151  -21.3328 C   0  0  0  0  0  0  0  0  0  0  0  0
   17.7911  -13.4458  -20.0371 S   0  0  0  0  0  0  0  0  0  0  0  0
   19.5311  -13.6563  -19.6893 C   0  0  0  0  0  0  0  0  0  0  0  0
   20.0349  -12.7901  -18.5997 C   0  0  0  0  0  0  0  0  0  0  0  0
   21.5025  -12.8648  -18.3307 C   0  0  2  0  0  0  0  0  0  0  0  0
   21.8617  -14.1459  -17.7487 N   0  0  0  0  0  0  0  0  0  0  0  0
   21.7938  -11.8025  -17.2886 C   0  0  0  0  0  0  0  0  0  0  0  0
   21.4410  -12.0757  -16.1196 O   0  0  0  0  0  0  0  0  0  0  0  0
   22.4199  -10.5803  -17.5938 N   0  0  0  0  0  0  0  0  0  0  0  0
   22.6071   -9.5927  -16.5053 C   0  0  1  0  0  0  0  0  0  0  0  0
   24.0157   -9.1124  -16.5852 C   0  0  0  0  0  0  0  0  0  0  0  0
   25.0125  -10.0671  -16.0785 C   0  0  0  0  0  0  0  0  0  0  0  0
   24.8791  -11.3403  -15.6323 C   0  0  0  0  0  0  0  0  0  0  0  0
   26.1203  -11.8069  -15.3442 N   0  0  0  0  0  0  0  0  0  0  0  0
   27.0178  -10.8597  -15.6005 C   0  0  0  0  0  0  0  0  0  0  0  0
   26.3585   -9.8059  -16.0446 N   0  0  0  0  0  0  0  0  0  0  0  0
   21.7258   -8.4230  -16.8541 C   0  0  0  0  0  0  0  0  0  0  0  0
   21.4811   -8.0347  -18.0045 O   0  0  0  0  0  0  0  0  0  0  0  0
   21.0833   -7.6471  -15.8149 N   0  0  0  0  0  0  0  0  0  0  0  0
   20.1488   -6.5820  -16.1100 C   0  0  1  0  0  0  0  0  0  0  0  0
   18.7976   -6.8292  -15.4782 C   0  0  0  0  0  0  0  0  0  0  0  0
   17.8143   -5.7898  -15.8051 C   0  0  0  0  0  0  0  0  0  0  0  0
   18.0247   -5.0563  -16.8020 O   0  0  0  0  0  0  0  0  0  0  0  0
   20.6902   -5.2568  -15.8063 C   0  0  0  0  0  0  0  0  0  0  0  0
   21.2522   -5.0128  -14.7157 O   0  0  0  0  0  0  0  0  0  0  0  0
   16.6561   -5.5583  -15.0821 O   0  0  0  0  0  0  0  0  0  0  0  0
   20.5911   -4.2333  -16.7300 O   0  0  0  0  0  0  0  0  0  0  0  0
  2  1  1  0
  3  2  1  0
  4  3  1  0
  4  5  1  0
  5  7  1  0
  5  6  1  1
  7  8  2  0
  9 10  1  0
  9  7  1  0
 11 12  1  0
 10 11  1  6
 12 13  2  0
 14 13  1  0
 15 14  1  0
 16 15  2  0
 16 12  1  0
 17 18  2  0
 17 10  1  0
 19 17  1  0
 20 24  1  0
 20 19  1  0
 20 21  1  1
 22 21  1  0
 23 22  2  0
 24 27  1  0
 25 24  2  0
 26 22  1  0
M  END
$$$$
