MHD.pdb
     RDKit          3D

 27 27  0  0  1  0  0  0  0  0999 V2000
   27.6517  -18.9092   -6.5481 C   0  0  0  0  0  0  0  0  0  0  0  0
   28.0715  -20.6313   -6.8683 S   0  0  0  0  0  0  0  0  0  0  0  0
   28.8567  -20.9342   -8.4445 C   0  0  0  0  0  0  0  0  0  0  0  0
   28.0916  -20.4242   -9.6046 C   0  0  0  0  0  0  0  0  0  0  0  0
   26.7111  -20.9708   -9.7687 C   0  0  2  0  0  0  0  0  0  0  0  0
   26.7441  -22.3940  -10.0562 N   0  0  0  0  0  0  0  0  0  0  0  0
   26.1278  -20.2818  -10.9870 C   0  0  0  0  0  0  0  0  0  0  0  0
   26.1526  -19.0310  -10.9688 O   0  0  0  0  0  0  0  0  0  0  0  0
   25.5877  -20.9839  -12.0799 N   0  0  0  0  0  0  0  0  0  0  0  0
   24.9431  -20.2098  -13.1665 C   0  0  1  0  0  0  0  0  0  0  0  0
   25.5342  -20.6800  -14.4513 C   0  0  0  0  0  0  0  0  0  0  0  0
   26.5834  -19.8044  -14.9935 C   0  0  0  0  0  0  0  0  0  0  0  0
   27.1061  -18.6451  -14.5234 C   0  0  0  0  0  0  0  0  0  0  0  0
   28.1029  -18.2726  -15.3654 N   0  0  0  0  0  0  0  0  0  0  0  0
   28.2128  -19.1684  -16.3421 C   0  0  0  0  0  0  0  0  0  0  0  0
   27.2999  -20.0970  -16.1258 N   0  0  0  0  0  0  0  0  0  0  0  0
   23.4975  -20.6303  -13.1704 C   0  0  0  0  0  0  0  0  0  0  0  0
   23.0834  -21.7568  -12.8645 O   0  0  0  0  0  0  0  0  0  0  0  0
   22.4584  -19.6974  -13.5507 N   0  0  0  0  0  0  0  0  0  0  0  0
   21.0527  -20.0360  -13.4862 C   0  0  1  0  0  0  0  0  0  0  0  0
   20.1885  -18.8116  -13.2858 C   0  0  0  0  0  0  0  0  0  0  0  0
   18.7628  -19.1332  -13.1517 C   0  0  0  0  0  0  0  0  0  0  0  0
   18.4211  -20.3404  -13.1074 O   0  0  0  0  0  0  0  0  0  0  0  0
   20.6204  -20.8653  -14.6118 C   0  0  0  0  0  0  0  0  0  0  0  0
   20.0962  -21.9874  -14.4356 O   0  0  0  0  0  0  0  0  0  0  0  0
   17.7553  -18.1867  -13.0696 O   0  0  0  0  0  0  0  0  0  0  0  0
   20.7841  -20.4208  -15.9103 O   0  0  0  0  0  0  0  0  0  0  0  0
  2  1  1  0
  3  2  1  0
  4  3  1  0
  4  5  1  0
  5  7  1  0
  5  6  1  6
  7  8  2  0
  9 10  1  0
  9  7  1  0
 11 12  1  0
 10 11  1  6
 12 13  2  0
 14 13  1  0
 15 14  1  0
 16 15  2  0
 16 12  1  0
 17 18  2  0
 17 10  1  0
 19 17  1  0
 20 24  1  0
 20 19  1  0
 20 21  1  6
 22 21  1  0
 23 22  2  0
 24 27  1  0
 25 24  2  0
 26 22  1  0
M  END
$$$$
