MHD.pdb
     RDKit          3D

 27 27  0  0  1  0  0  0  0  0999 V2000
   24.7474  -15.3491  -19.6938 C   0  0  0  0  0  0  0  0  0  0  0  0
   26.4351  -15.3482  -20.3233 S   0  0  0  0  0  0  0  0  0  0  0  0
   27.3151  -16.8900  -20.1203 C   0  0  0  0  0  0  0  0  0  0  0  0
   26.7565  -17.7662  -19.0660 C   0  0  0  0  0  0  0  0  0  0  0  0
   27.5145  -17.8057  -17.7793 C   0  0  2  0  0  0  0  0  0  0  0  0
   28.8345  -18.3807  -17.9688 N   0  0  0  0  0  0  0  0  0  0  0  0
   26.7458  -18.7413  -16.8667 C   0  0  0  0  0  0  0  0  0  0  0  0
   26.6155  -19.9162  -17.2767 O   0  0  0  0  0  0  0  0  0  0  0  0
   26.2046  -18.3361  -15.6331 N   0  0  0  0  0  0  0  0  0  0  0  0
   25.4250  -19.3211  -14.8472 C   0  0  1  0  0  0  0  0  0  0  0  0
   25.9502  -19.2853  -13.4529 C   0  0  0  0  0  0  0  0  0  0  0  0
   27.2513  -19.9470  -13.2769 C   0  0  0  0  0  0  0  0  0  0  0  0
   28.0683  -20.5559  -14.1711 C   0  0  0  0  0  0  0  0  0  0  0  0
   29.1871  -20.9432  -13.5080 N   0  0  0  0  0  0  0  0  0  0  0  0
   29.0863  -20.5903  -12.2298 C   0  0  0  0  0  0  0  0  0  0  0  0
   27.9213  -19.9880  -12.0809 N   0  0  0  0  0  0  0  0  0  0  0  0
   24.0178  -18.7882  -14.7983 C   0  0  0  0  0  0  0  0  0  0  0  0
   23.6254  -17.7620  -15.3703 O   0  0  0  0  0  0  0  0  0  0  0  0
   22.9933  -19.4773  -14.0433 N   0  0  0  0  0  0  0  0  0  0  0  0
   21.6008  -19.4650  -14.4377 C   0  0  1  0  0  0  0  0  0  0  0  0
   21.4267  -19.8257  -15.8956 C   0  0  0  0  0  0  0  0  0  0  0  0
   20.0399  -19.6906  -16.3568 C   0  0  0  0  0  0  0  0  0  0  0  0
   19.1122  -19.9925  -15.5668 O   0  0  0  0  0  0  0  0  0  0  0  0
   20.7551  -20.2587  -13.5453 C   0  0  0  0  0  0  0  0  0  0  0  0
   20.9778  -21.4723  -13.3394 O   0  0  0  0  0  0  0  0  0  0  0  0
   19.6782  -19.2480  -17.6182 O   0  0  0  0  0  0  0  0  0  0  0  0
   19.6785  -19.6770  -12.9027 O   0  0  0  0  0  0  0  0  0  0  0  0
  2  1  1  0
  3  2  1  0
  4  3  1  0
  4  5  1  0
  5  7  1  0
  5  6  1  6
  7  8  2  0
  9 10  1  0
  9  7  1  0
 11 12  1  0
 10 11  1  1
 12 13  2  0
 14 13  1  0
 15 14  1  0
 16 15  2  0
 16 12  1  0
 17 18  2  0
 17 10  1  0
 19 17  1  0
 20 24  1  0
 20 19  1  0
 20 21  1  6
 22 21  1  0
 23 22  2  0
 24 27  1  0
 25 24  2  0
 26 22  1  0
M  END
$$$$
