MHD.pdb
     RDKit          3D

 27 27  0  0  1  0  0  0  0  0999 V2000
   28.0036  -13.4576  -19.2938 C   0  0  0  0  0  0  0  0  0  0  0  0
   27.9072  -15.2005  -18.8494 S   0  0  0  0  0  0  0  0  0  0  0  0
   26.3156  -15.9622  -19.1312 C   0  0  0  0  0  0  0  0  0  0  0  0
   26.2774  -17.4080  -18.8159 C   0  0  0  0  0  0  0  0  0  0  0  0
   27.2634  -17.8816  -17.7984 C   0  0  2  0  0  0  0  0  0  0  0  0
   28.3571  -18.6011  -18.4272 N   0  0  0  0  0  0  0  0  0  0  0  0
   26.5213  -18.8721  -16.9225 C   0  0  0  0  0  0  0  0  0  0  0  0
   26.3140  -19.9975  -17.4286 O   0  0  0  0  0  0  0  0  0  0  0  0
   26.0841  -18.5671  -15.6206 N   0  0  0  0  0  0  0  0  0  0  0  0
   25.3357  -19.6007  -14.8676 C   0  0  1  0  0  0  0  0  0  0  0  0
   25.9397  -19.6768  -13.5073 C   0  0  0  0  0  0  0  0  0  0  0  0
   27.2069  -20.4201  -13.4462 C   0  0  0  0  0  0  0  0  0  0  0  0
   27.9683  -20.9634  -14.4275 C   0  0  0  0  0  0  0  0  0  0  0  0
   29.0798  -21.4810  -13.8462 N   0  0  0  0  0  0  0  0  0  0  0  0
   29.0286  -21.2725  -12.5338 C   0  0  0  0  0  0  0  0  0  0  0  0
   27.9017  -20.6325  -12.2830 N   0  0  0  0  0  0  0  0  0  0  0  0
   23.9418  -19.0581  -14.6974 C   0  0  0  0  0  0  0  0  0  0  0  0
   23.6638  -17.9434  -14.2343 O   0  0  0  0  0  0  0  0  0  0  0  0
   22.7907  -19.8460  -15.0832 N   0  0  0  0  0  0  0  0  0  0  0  0
   21.4357  -19.3573  -14.9423 C   0  0  1  0  0  0  0  0  0  0  0  0
   20.8544  -18.9227  -16.2686 C   0  0  0  0  0  0  0  0  0  0  0  0
   19.5008  -18.3687  -16.1461 C   0  0  0  0  0  0  0  0  0  0  0  0
   18.5212  -19.1451  -16.2634 O   0  0  0  0  0  0  0  0  0  0  0  0
   20.5729  -20.2896  -14.2157 C   0  0  0  0  0  0  0  0  0  0  0  0
   20.7958  -21.5206  -14.2111 O   0  0  0  0  0  0  0  0  0  0  0  0
   19.2247  -17.0328  -15.9073 O   0  0  0  0  0  0  0  0  0  0  0  0
   19.4794  -19.8242  -13.5100 O   0  0  0  0  0  0  0  0  0  0  0  0
  2  1  1  0
  3  2  1  0
  4  3  1  0
  4  5  1  0
  5  7  1  0
  5  6  1  6
  7  8  2  0
  9 10  1  0
  9  7  1  0
 11 12  1  0
 10 11  1  1
 12 13  2  0
 14 13  1  0
 15 14  1  0
 16 15  2  0
 16 12  1  0
 17 18  2  0
 17 10  1  0
 19 17  1  0
 20 24  1  0
 20 19  1  0
 20 21  1  6
 22 21  1  0
 23 22  2  0
 24 27  1  0
 25 24  2  0
 26 22  1  0
M  END
$$$$
