MHD.pdb
     RDKit          3D

 27 27  0  0  1  0  0  0  0  0999 V2000
   24.2806  -21.4264   -7.2022 C   0  0  0  0  0  0  0  0  0  0  0  0
   24.7332  -21.2517   -8.9369 S   0  0  0  0  0  0  0  0  0  0  0  0
   26.2196  -20.3060   -9.2355 C   0  0  0  0  0  0  0  0  0  0  0  0
   26.4220  -19.9372  -10.6547 C   0  0  0  0  0  0  0  0  0  0  0  0
   26.0207  -20.9657  -11.6612 C   0  0  2  0  0  0  0  0  0  0  0  0
   27.1704  -21.7282  -12.1149 N   0  0  0  0  0  0  0  0  0  0  0  0
   25.4914  -20.1994  -12.8578 C   0  0  0  0  0  0  0  0  0  0  0  0
   26.1816  -19.2234  -13.2276 O   0  0  0  0  0  0  0  0  0  0  0  0
   24.3026  -20.5457  -13.5253 N   0  0  0  0  0  0  0  0  0  0  0  0
   23.9309  -19.7874  -14.7429 C   0  0  1  0  0  0  0  0  0  0  0  0
   24.0215  -20.7310  -15.8929 C   0  0  0  0  0  0  0  0  0  0  0  0
   25.3694  -20.8633  -16.4651 C   0  0  0  0  0  0  0  0  0  0  0  0
   26.5361  -20.2516  -16.1451 C   0  0  0  0  0  0  0  0  0  0  0  0
   27.5067  -20.7802  -16.9325 N   0  0  0  0  0  0  0  0  0  0  0  0
   26.9743  -21.7021  -17.7294 C   0  0  0  0  0  0  0  0  0  0  0  0
   25.6845  -21.7596  -17.4542 N   0  0  0  0  0  0  0  0  0  0  0  0
   22.4764  -19.4344  -14.5804 C   0  0  0  0  0  0  0  0  0  0  0  0
   21.6581  -20.0796  -13.9109 O   0  0  0  0  0  0  0  0  0  0  0  0
   21.9237  -18.2645  -15.2290 N   0  0  0  0  0  0  0  0  0  0  0  0
   20.5493  -17.8518  -15.0408 C   0  0  1  0  0  0  0  0  0  0  0  0
   20.3789  -16.3618  -15.2332 C   0  0  0  0  0  0  0  0  0  0  0  0
   18.9824  -15.9257  -15.1155 C   0  0  0  0  0  0  0  0  0  0  0  0
   18.4801  -15.8222  -13.9697 O   0  0  0  0  0  0  0  0  0  0  0  0
   19.6091  -18.6439  -15.8345 C   0  0  0  0  0  0  0  0  0  0  0  0
   18.4484  -18.8799  -15.4320 O   0  0  0  0  0  0  0  0  0  0  0  0
   18.1696  -15.6166  -16.1933 O   0  0  0  0  0  0  0  0  0  0  0  0
   19.9883  -19.1549  -17.0615 O   0  0  0  0  0  0  0  0  0  0  0  0
  2  1  1  0
  3  2  1  0
  4  3  1  0
  4  5  1  0
  5  7  1  0
  5  6  1  6
  7  8  2  0
  9 10  1  0
  9  7  1  0
 11 12  1  0
 10 11  1  6
 12 13  2  0
 14 13  1  0
 15 14  1  0
 16 15  2  0
 16 12  1  0
 17 18  2  0
 17 10  1  0
 19 17  1  0
 20 24  1  0
 20 19  1  0
 20 21  1  6
 22 21  1  0
 23 22  2  0
 24 27  1  0
 25 24  2  0
 26 22  1  0
M  END
$$$$
