MHD.pdb
     RDKit          3D

 27 27  0  0  1  0  0  0  0  0999 V2000
   17.4581  -13.5983  -21.1463 C   0  0  0  0  0  0  0  0  0  0  0  0
   18.1753  -12.6086  -19.8231 S   0  0  0  0  0  0  0  0  0  0  0  0
   19.9243  -12.8609  -19.5576 C   0  0  0  0  0  0  0  0  0  0  0  0
   20.5104  -11.9709  -18.5302 C   0  0  0  0  0  0  0  0  0  0  0  0
   21.9880  -12.0781  -18.3382 C   0  0  2  0  0  0  0  0  0  0  0  0
   22.3599  -13.4056  -17.8816 N   0  0  0  0  0  0  0  0  0  0  0  0
   22.3394  -11.1080  -17.2271 C   0  0  0  0  0  0  0  0  0  0  0  0
   22.0754  -11.4919  -16.0658 O   0  0  0  0  0  0  0  0  0  0  0  0
   22.9254   -9.8511  -17.4633 N   0  0  0  0  0  0  0  0  0  0  0  0
   23.2431   -8.9911  -16.2993 C   0  0  1  0  0  0  0  0  0  0  0  0
   24.6900   -8.6457  -16.3902 C   0  0  0  0  0  0  0  0  0  0  0  0
   25.6003   -9.7519  -16.0596 C   0  0  0  0  0  0  0  0  0  0  0  0
   25.3488  -11.0371  -15.7088 C   0  0  0  0  0  0  0  0  0  0  0  0
   26.5427  -11.6685  -15.5780 N   0  0  0  0  0  0  0  0  0  0  0  0
   27.5255  -10.8115  -15.8389 C   0  0  0  0  0  0  0  0  0  0  0  0
   26.9663   -9.6520  -16.1310 N   0  0  0  0  0  0  0  0  0  0  0  0
   22.4745   -7.7136  -16.5089 C   0  0  0  0  0  0  0  0  0  0  0  0
   22.4423   -7.0679  -17.5654 O   0  0  0  0  0  0  0  0  0  0  0  0
   21.6919   -7.1384  -15.4359 N   0  0  0  0  0  0  0  0  0  0  0  0
   20.9742   -5.8904  -15.5844 C   0  0  1  0  0  0  0  0  0  0  0  0
   19.4997   -6.0520  -15.2911 C   0  0  0  0  0  0  0  0  0  0  0  0
   18.7546   -4.7916  -15.3928 C   0  0  0  0  0  0  0  0  0  0  0  0
   19.2883   -3.8250  -15.9903 O   0  0  0  0  0  0  0  0  0  0  0  0
   21.5907   -4.7933  -14.8376 C   0  0  0  0  0  0  0  0  0  0  0  0
   21.1982   -3.6123  -14.9646 O   0  0  0  0  0  0  0  0  0  0  0  0
   17.4882   -4.5911  -14.8695 O   0  0  0  0  0  0  0  0  0  0  0  0
   22.6334   -5.0416  -13.9649 O   0  0  0  0  0  0  0  0  0  0  0  0
  2  1  1  0
  3  2  1  0
  4  3  1  0
  4  5  1  0
  5  7  1  0
  5  6  1  1
  7  8  2  0
  9 10  1  0
  9  7  1  0
 11 12  1  0
 10 11  1  6
 12 13  2  0
 14 13  1  0
 15 14  1  0
 16 15  2  0
 16 12  1  0
 17 18  2  0
 17 10  1  0
 19 17  1  0
 20 24  1  0
 20 19  1  0
 20 21  1  1
 22 21  1  0
 23 22  2  0
 24 27  1  0
 25 24  2  0
 26 22  1  0
M  END
$$$$
