MHD.pdb
     RDKit          3D

 27 27  0  0  1  0  0  0  0  0999 V2000
   46.1421   -6.7976   -3.8058 C   0  0  0  0  0  0  0  0  0  0  0  0
   46.0734   -8.5541   -4.1990 S   0  0  0  0  0  0  0  0  0  0  0  0
   46.0580   -8.9346   -5.9448 C   0  0  0  0  0  0  0  0  0  0  0  0
   44.7528   -8.6943   -6.6005 C   0  0  0  0  0  0  0  0  0  0  0  0
   43.5892   -9.4402   -6.0336 C   0  0  2  0  0  0  0  0  0  0  0  0
   43.7125  -10.8659   -6.2811 N   0  0  0  0  0  0  0  0  0  0  0  0
   42.3693   -8.9579   -6.7942 C   0  0  0  0  0  0  0  0  0  0  0  0
   42.4239   -9.0723   -8.0390 O   0  0  0  0  0  0  0  0  0  0  0  0
   41.2371   -8.4132   -6.1616 N   0  0  0  0  0  0  0  0  0  0  0  0
   40.0745   -8.0358   -6.9991 C   0  0  1  0  0  0  0  0  0  0  0  0
   38.8657   -8.6397   -6.3704 C   0  0  0  0  0  0  0  0  0  0  0  0
   38.6312  -10.0454   -6.7319 C   0  0  0  0  0  0  0  0  0  0  0  0
   39.2958  -10.8694   -7.5787 C   0  0  0  0  0  0  0  0  0  0  0  0
   38.7162  -12.0938   -7.5001 N   0  0  0  0  0  0  0  0  0  0  0  0
   37.7131  -12.0514   -6.6281 C   0  0  0  0  0  0  0  0  0  0  0  0
   37.6543  -10.8190   -6.1589 N   0  0  0  0  0  0  0  0  0  0  0  0
   39.9374   -6.5425   -6.8650 C   0  0  0  0  0  0  0  0  0  0  0  0
   40.1979   -5.8931   -5.8429 O   0  0  0  0  0  0  0  0  0  0  0  0
   39.4703   -5.7414   -7.9760 N   0  0  0  0  0  0  0  0  0  0  0  0
   39.3041   -4.3068   -7.8800 C   0  0  1  0  0  0  0  0  0  0  0  0
   40.6340   -3.5899   -7.8216 C   0  0  0  0  0  0  0  0  0  0  0  0
   40.4944   -2.1319   -7.7266 C   0  0  0  0  0  0  0  0  0  0  0  0
   39.3398   -1.6397   -7.7002 O   0  0  0  0  0  0  0  0  0  0  0  0
   38.4093   -3.7730   -8.9076 C   0  0  0  0  0  0  0  0  0  0  0  0
   38.0571   -2.5726   -8.9104 O   0  0  0  0  0  0  0  0  0  0  0  0
   41.5602   -1.2500   -7.6633 O   0  0  0  0  0  0  0  0  0  0  0  0
   37.9280   -4.5942   -9.9098 O   0  0  0  0  0  0  0  0  0  0  0  0
  2  1  1  0
  3  2  1  0
  4  3  1  0
  4  5  1  0
  5  7  1  0
  5  6  1  6
  7  8  2  0
  9 10  1  0
  9  7  1  0
 11 12  1  0
 10 11  1  1
 12 13  2  0
 14 13  1  0
 15 14  1  0
 16 15  2  0
 16 12  1  0
 17 18  2  0
 17 10  1  0
 19 17  1  0
 20 24  1  0
 20 19  1  0
 20 21  1  6
 22 21  1  0
 23 22  2  0
 24 27  1  0
 25 24  2  0
 26 22  1  0
M  END
$$$$
