MHD.pdb
     RDKit          3D

 27 27  0  0  1  0  0  0  0  0999 V2000
   27.1937  -22.0130  -20.2095 C   0  0  0  0  0  0  0  0  0  0  0  0
   26.8724  -23.3310  -19.0245 S   0  0  0  0  0  0  0  0  0  0  0  0
   27.6379  -23.1087  -17.4253 C   0  0  0  0  0  0  0  0  0  0  0  0
   27.3171  -24.1770  -16.4521 C   0  0  0  0  0  0  0  0  0  0  0  0
   26.2047  -25.0977  -16.8350 C   0  0  2  0  0  0  0  0  0  0  0  0
   25.0769  -24.9578  -15.9308 N   0  0  0  0  0  0  0  0  0  0  0  0
   26.7445  -26.5042  -16.6626 C   0  0  0  0  0  0  0  0  0  0  0  0
   26.8374  -26.9106  -15.4828 O   0  0  0  0  0  0  0  0  0  0  0  0
   27.1229  -27.3183  -17.7455 N   0  0  0  0  0  0  0  0  0  0  0  0
   27.5673  -28.7037  -17.4649 C   0  0  1  0  0  0  0  0  0  0  0  0
   26.5548  -29.6195  -18.0625 C   0  0  0  0  0  0  0  0  0  0  0  0
   25.4662  -29.9995  -17.1503 C   0  0  0  0  0  0  0  0  0  0  0  0
   25.4621  -30.7933  -16.0513 C   0  0  0  0  0  0  0  0  0  0  0  0
   24.2115  -30.7609  -15.5257 N   0  0  0  0  0  0  0  0  0  0  0  0
   23.4421  -29.9691  -16.2670 C   0  0  0  0  0  0  0  0  0  0  0  0
   24.1909  -29.5046  -17.2499 N   0  0  0  0  0  0  0  0  0  0  0  0
   28.8420  -28.8932  -18.2433 C   0  0  0  0  0  0  0  0  0  0  0  0
   29.0908  -28.3715  -19.3388 O   0  0  0  0  0  0  0  0  0  0  0  0
   29.9007  -29.7371  -17.7319 N   0  0  0  0  0  0  0  0  0  0  0  0
   31.1436  -29.9378  -18.4458 C   0  0  1  0  0  0  0  0  0  0  0  0
   32.1512  -30.7010  -17.6160 C   0  0  0  0  0  0  0  0  0  0  0  0
   33.4480  -30.8515  -18.2865 C   0  0  0  0  0  0  0  0  0  0  0  0
   33.6494  -30.2209  -19.3532 O   0  0  0  0  0  0  0  0  0  0  0  0
   30.9430  -30.5130  -19.7764 C   0  0  0  0  0  0  0  0  0  0  0  0
   31.4577  -30.0018  -20.7955 O   0  0  0  0  0  0  0  0  0  0  0  0
   34.4782  -31.6504  -17.8193 O   0  0  0  0  0  0  0  0  0  0  0  0
   30.1705  -31.6478  -19.9375 O   0  0  0  0  0  0  0  0  0  0  0  0
  2  1  1  0
  3  2  1  0
  4  3  1  0
  4  5  1  0
  5  7  1  0
  5  6  1  1
  7  8  2  0
  9 10  1  0
  9  7  1  0
 11 12  1  0
 10 11  1  6
 12 13  2  0
 14 13  1  0
 15 14  1  0
 16 15  2  0
 16 12  1  0
 17 18  2  0
 17 10  1  0
 19 17  1  0
 20 24  1  0
 20 19  1  0
 20 21  1  1
 22 21  1  0
 23 22  2  0
 24 27  1  0
 25 24  2  0
 26 22  1  0
M  END
$$$$
