MHD.pdb
     RDKit          3D

 27 27  0  0  1  0  0  0  0  0999 V2000
   20.7084  -14.3430  -23.6434 C   0  0  0  0  0  0  0  0  0  0  0  0
   21.0565  -13.0943  -22.3928 S   0  0  0  0  0  0  0  0  0  0  0  0
   22.6889  -13.1855  -21.6718 C   0  0  0  0  0  0  0  0  0  0  0  0
   22.8991  -12.2534  -20.5412 C   0  0  0  0  0  0  0  0  0  0  0  0
   24.1370  -12.4729  -19.7343 C   0  0  2  0  0  0  0  0  0  0  0  0
   24.2477  -13.8590  -19.3152 N   0  0  0  0  0  0  0  0  0  0  0  0
   23.9749  -11.6376  -18.4792 C   0  0  0  0  0  0  0  0  0  0  0  0
   23.4803  -12.2277  -17.4929 O   0  0  0  0  0  0  0  0  0  0  0  0
   24.3496  -10.2837  -18.4055 N   0  0  0  0  0  0  0  0  0  0  0  0
   24.3802   -9.6318  -17.0753 C   0  0  1  0  0  0  0  0  0  0  0  0
   25.7622   -9.1123  -16.8722 C   0  0  0  0  0  0  0  0  0  0  0  0
   26.7623  -10.1477  -16.5728 C   0  0  0  0  0  0  0  0  0  0  0  0
   27.1033  -10.7442  -15.4041 C   0  0  0  0  0  0  0  0  0  0  0  0
   28.0387  -11.6872  -15.6817 N   0  0  0  0  0  0  0  0  0  0  0  0
   28.2853  -11.6921  -16.9885 C   0  0  0  0  0  0  0  0  0  0  0  0
   27.5192  -10.7663  -17.5347 N   0  0  0  0  0  0  0  0  0  0  0  0
   23.4742   -8.4342  -17.1824 C   0  0  0  0  0  0  0  0  0  0  0  0
   23.3210   -7.7469  -18.2014 O   0  0  0  0  0  0  0  0  0  0  0  0
   22.6928   -7.9957  -16.0459 N   0  0  0  0  0  0  0  0  0  0  0  0
   21.6846   -6.9626  -16.1519 C   0  0  1  0  0  0  0  0  0  0  0  0
   20.7009   -7.2497  -17.2636 C   0  0  0  0  0  0  0  0  0  0  0  0
   19.6352   -6.2450  -17.3582 C   0  0  0  0  0  0  0  0  0  0  0  0
   19.9571   -5.0379  -17.4815 O   0  0  0  0  0  0  0  0  0  0  0  0
   21.0361   -6.6745  -14.8721 C   0  0  0  0  0  0  0  0  0  0  0  0
   21.0702   -7.4880  -13.9225 O   0  0  0  0  0  0  0  0  0  0  0  0
   18.2824   -6.5387  -17.3206 O   0  0  0  0  0  0  0  0  0  0  0  0
   20.3633   -5.4820  -14.6829 O   0  0  0  0  0  0  0  0  0  0  0  0
  2  1  1  0
  3  2  1  0
  4  3  1  0
  4  5  1  0
  5  7  1  0
  5  6  1  1
  7  8  2  0
  9 10  1  0
  9  7  1  0
 11 12  1  0
 10 11  1  6
 12 13  2  0
 14 13  1  0
 15 14  1  0
 16 15  2  0
 16 12  1  0
 17 18  2  0
 17 10  1  0
 19 17  1  0
 20 24  1  0
 20 19  1  0
 20 21  1  6
 22 21  1  0
 23 22  2  0
 24 27  1  0
 25 24  2  0
 26 22  1  0
M  END
$$$$
