MHD.pdb
     RDKit          3D

 27 27  0  0  1  0  0  0  0  0999 V2000
   26.7632  -20.3849   -7.0537 C   0  0  0  0  0  0  0  0  0  0  0  0
   25.9325  -19.7715   -8.5295 S   0  0  0  0  0  0  0  0  0  0  0  0
   25.9781  -20.8762   -9.9332 C   0  0  0  0  0  0  0  0  0  0  0  0
   25.5416  -20.2527  -11.2028 C   0  0  0  0  0  0  0  0  0  0  0  0
   25.5642  -21.1365  -12.4070 C   0  0  2  0  0  0  0  0  0  0  0  0
   26.8970  -21.6627  -12.6430 N   0  0  0  0  0  0  0  0  0  0  0  0
   25.2183  -20.2490  -13.5868 C   0  0  0  0  0  0  0  0  0  0  0  0
   25.9975  -19.2925  -13.7952 O   0  0  0  0  0  0  0  0  0  0  0  0
   24.0976  -20.4680  -14.4084 N   0  0  0  0  0  0  0  0  0  0  0  0
   23.9488  -19.6459  -15.6321 C   0  0  1  0  0  0  0  0  0  0  0  0
   24.3102  -20.5119  -16.7899 C   0  0  0  0  0  0  0  0  0  0  0  0
   25.7169  -20.4135  -17.2062 C   0  0  0  0  0  0  0  0  0  0  0  0
   26.7286  -19.6366  -16.7472 C   0  0  0  0  0  0  0  0  0  0  0  0
   27.8520  -19.9818  -17.4255 N   0  0  0  0  0  0  0  0  0  0  0  0
   27.5647  -20.9506  -18.2901 C   0  0  0  0  0  0  0  0  0  0  0  0
   26.2782  -21.2180  -18.1647 N   0  0  0  0  0  0  0  0  0  0  0  0
   22.4780  -19.3473  -15.7516 C   0  0  0  0  0  0  0  0  0  0  0  0
   21.5665  -20.1369  -15.4692 O   0  0  0  0  0  0  0  0  0  0  0  0
   22.0227  -18.0583  -16.2269 N   0  0  0  0  0  0  0  0  0  0  0  0
   20.6232  -17.7672  -16.4536 C   0  0  1  0  0  0  0  0  0  0  0  0
   20.3966  -16.3047  -16.7632 C   0  0  0  0  0  0  0  0  0  0  0  0
   18.9846  -15.9821  -17.0004 C   0  0  0  0  0  0  0  0  0  0  0  0
   18.1243  -16.4286  -16.2025 O   0  0  0  0  0  0  0  0  0  0  0  0
   20.0132  -18.6629  -17.4370 C   0  0  0  0  0  0  0  0  0  0  0  0
   20.5582  -18.8947  -18.5389 O   0  0  0  0  0  0  0  0  0  0  0  0
   18.5288  -15.2101  -18.0559 O   0  0  0  0  0  0  0  0  0  0  0  0
   18.8064  -19.2799  -17.1659 O   0  0  0  0  0  0  0  0  0  0  0  0
  2  1  1  0
  3  2  1  0
  4  3  1  0
  4  5  1  0
  5  7  1  0
  5  6  1  6
  7  8  2  0
  9 10  1  0
  9  7  1  0
 11 12  1  0
 10 11  1  6
 12 13  2  0
 14 13  1  0
 15 14  1  0
 16 15  2  0
 16 12  1  0
 17 18  2  0
 17 10  1  0
 19 17  1  0
 20 24  1  0
 20 19  1  0
 20 21  1  6
 22 21  1  0
 23 22  2  0
 24 27  1  0
 25 24  2  0
 26 22  1  0
M  END
$$$$
