MHD.pdb
     RDKit          3D

 27 27  0  0  1  0  0  0  0  0999 V2000
   23.2339  -13.4338  -21.0047 C   0  0  0  0  0  0  0  0  0  0  0  0
   23.1500  -14.9413  -20.0223 S   0  0  0  0  0  0  0  0  0  0  0  0
   24.7233  -15.7345  -19.7251 C   0  0  0  0  0  0  0  0  0  0  0  0
   24.6476  -16.8942  -18.8083 C   0  0  0  0  0  0  0  0  0  0  0  0
   25.9555  -17.4559  -18.3550 C   0  0  2  0  0  0  0  0  0  0  0  0
   26.6227  -18.1615  -19.4349 N   0  0  0  0  0  0  0  0  0  0  0  0
   25.6259  -18.4809  -17.2873 C   0  0  0  0  0  0  0  0  0  0  0  0
   25.3269  -19.6227  -17.7028 O   0  0  0  0  0  0  0  0  0  0  0  0
   25.6484  -18.1892  -15.9114 N   0  0  0  0  0  0  0  0  0  0  0  0
   25.4029  -19.2918  -14.9525 C   0  0  1  0  0  0  0  0  0  0  0  0
   26.1867  -18.9869  -13.7222 C   0  0  0  0  0  0  0  0  0  0  0  0
   25.9621  -19.9235  -12.6113 C   0  0  0  0  0  0  0  0  0  0  0  0
   25.1954  -21.0385  -12.5285 C   0  0  0  0  0  0  0  0  0  0  0  0
   25.3929  -21.5828  -11.3012 N   0  0  0  0  0  0  0  0  0  0  0  0
   26.2606  -20.8374  -10.6230 C   0  0  0  0  0  0  0  0  0  0  0  0
   26.6101  -19.8337  -11.4059 N   0  0  0  0  0  0  0  0  0  0  0  0
   23.9476  -19.1964  -14.5787 C   0  0  0  0  0  0  0  0  0  0  0  0
   23.3516  -18.1466  -14.3018 O   0  0  0  0  0  0  0  0  0  0  0  0
   23.1217  -20.3833  -14.5179 N   0  0  0  0  0  0  0  0  0  0  0  0
   21.7570  -20.3529  -14.0369 C   0  0  1  0  0  0  0  0  0  0  0  0
   20.9197  -21.4511  -14.6526 C   0  0  0  0  0  0  0  0  0  0  0  0
   19.8411  -20.9383  -15.5056 C   0  0  0  0  0  0  0  0  0  0  0  0
   19.6619  -19.6972  -15.5662 O   0  0  0  0  0  0  0  0  0  0  0  0
   21.6748  -20.3194  -12.5762 C   0  0  0  0  0  0  0  0  0  0  0  0
   22.3993  -21.0477  -11.8623 O   0  0  0  0  0  0  0  0  0  0  0  0
   18.9965  -21.7373  -16.2579 O   0  0  0  0  0  0  0  0  0  0  0  0
   20.7836  -19.4714  -11.9460 O   0  0  0  0  0  0  0  0  0  0  0  0
  2  1  1  0
  3  2  1  0
  4  3  1  0
  4  5  1  0
  5  7  1  0
  5  6  1  6
  7  8  2  0
  9 10  1  0
  9  7  1  0
 11 12  1  0
 10 11  1  1
 12 13  2  0
 14 13  1  0
 15 14  1  0
 16 15  2  0
 16 12  1  0
 17 18  2  0
 17 10  1  0
 19 17  1  0
 20 24  1  0
 20 19  1  0
 20 21  1  1
 22 21  1  0
 23 22  2  0
 24 27  1  0
 25 24  2  0
 26 22  1  0
M  END
$$$$
