MHD.pdb
     RDKit          3D

 27 27  0  0  1  0  0  0  0  0999 V2000
   27.1303  -18.6387   -5.0664 C   0  0  0  0  0  0  0  0  0  0  0  0
   28.0202  -20.1416   -5.5064 S   0  0  0  0  0  0  0  0  0  0  0  0
   28.9956  -20.0292   -6.9994 C   0  0  0  0  0  0  0  0  0  0  0  0
   28.1902  -19.9011   -8.2348 C   0  0  0  0  0  0  0  0  0  0  0  0
   28.1512  -21.1056   -9.1177 C   0  0  2  0  0  0  0  0  0  0  0  0
   29.4815  -21.4531   -9.5852 N   0  0  0  0  0  0  0  0  0  0  0  0
   27.3386  -20.7088  -10.3349 C   0  0  0  0  0  0  0  0  0  0  0  0
   27.8583  -19.8475  -11.0790 O   0  0  0  0  0  0  0  0  0  0  0  0
   26.0785  -21.2608  -10.6288 N   0  0  0  0  0  0  0  0  0  0  0  0
   25.6068  -21.2334  -12.0331 C   0  0  1  0  0  0  0  0  0  0  0  0
   25.6098  -22.6402  -12.5251 C   0  0  0  0  0  0  0  0  0  0  0  0
   25.2442  -22.7890  -13.9415 C   0  0  0  0  0  0  0  0  0  0  0  0
   25.9742  -22.6212  -15.0714 C   0  0  0  0  0  0  0  0  0  0  0  0
   25.1843  -22.9522  -16.1239 N   0  0  0  0  0  0  0  0  0  0  0  0
   23.9871  -23.3212  -15.6776 C   0  0  0  0  0  0  0  0  0  0  0  0
   24.0139  -23.2262  -14.3613 N   0  0  0  0  0  0  0  0  0  0  0  0
   24.1682  -20.7932  -11.9760 C   0  0  0  0  0  0  0  0  0  0  0  0
   23.4449  -20.8538  -10.9724 O   0  0  0  0  0  0  0  0  0  0  0  0
   23.5160  -20.2479  -13.1474 N   0  0  0  0  0  0  0  0  0  0  0  0
   22.1262  -19.8438  -13.1419 C   0  0  1  0  0  0  0  0  0  0  0  0
   21.9176  -18.5393  -13.8773 C   0  0  0  0  0  0  0  0  0  0  0  0
   20.7924  -17.7586  -13.3496 C   0  0  0  0  0  0  0  0  0  0  0  0
   20.1544  -18.2125  -12.3683 O   0  0  0  0  0  0  0  0  0  0  0  0
   21.2282  -20.9072  -13.5939 C   0  0  0  0  0  0  0  0  0  0  0  0
   21.1919  -21.2695  -14.7907 O   0  0  0  0  0  0  0  0  0  0  0  0
   20.3797  -16.5412  -13.8647 O   0  0  0  0  0  0  0  0  0  0  0  0
   20.3902  -21.5422  -12.6966 O   0  0  0  0  0  0  0  0  0  0  0  0
  2  1  1  0
  3  2  1  0
  4  3  1  0
  4  5  1  0
  5  7  1  0
  5  6  1  6
  7  8  2  0
  9 10  1  0
  9  7  1  0
 11 12  1  0
 10 11  1  1
 12 13  2  0
 14 13  1  0
 15 14  1  0
 16 15  2  0
 16 12  1  0
 17 18  2  0
 17 10  1  0
 19 17  1  0
 20 24  1  0
 20 19  1  0
 20 21  1  6
 22 21  1  0
 23 22  2  0
 24 27  1  0
 25 24  2  0
 26 22  1  0
M  END
$$$$
