MHD.pdb
     RDKit          3D

 27 27  0  0  1  0  0  0  0  0999 V2000
   22.2465  -15.7613  -20.0077 C   0  0  0  0  0  0  0  0  0  0  0  0
   21.6235  -14.9784  -18.5099 S   0  0  0  0  0  0  0  0  0  0  0  0
   22.8302  -14.7779  -17.2074 C   0  0  0  0  0  0  0  0  0  0  0  0
   23.3544  -13.3993  -17.0812 C   0  0  0  0  0  0  0  0  0  0  0  0
   24.5204  -13.0609  -17.9516 C   0  0  2  0  0  0  0  0  0  0  0  0
   25.7394  -13.6718  -17.4515 N   0  0  0  0  0  0  0  0  0  0  0  0
   24.6989  -11.5585  -17.8506 C   0  0  0  0  0  0  0  0  0  0  0  0
   25.4274  -11.1587  -16.9152 O   0  0  0  0  0  0  0  0  0  0  0  0
   24.0935  -10.6529  -18.7408 N   0  0  0  0  0  0  0  0  0  0  0  0
   24.4132   -9.2123  -18.6071 C   0  0  1  0  0  0  0  0  0  0  0  0
   24.6577   -8.6872  -19.9802 C   0  0  0  0  0  0  0  0  0  0  0  0
   25.0201   -7.2632  -20.0303 C   0  0  0  0  0  0  0  0  0  0  0  0
   25.2474   -6.3673  -19.0385 C   0  0  0  0  0  0  0  0  0  0  0  0
   25.6199   -5.1983  -19.6182 N   0  0  0  0  0  0  0  0  0  0  0  0
   25.6308   -5.3455  -20.9399 C   0  0  0  0  0  0  0  0  0  0  0  0
   25.2704   -6.5889  -21.1980 N   0  0  0  0  0  0  0  0  0  0  0  0
   23.1546   -8.5558  -18.1055 C   0  0  0  0  0  0  0  0  0  0  0  0
   22.0179   -8.7620  -18.5525 O   0  0  0  0  0  0  0  0  0  0  0  0
   23.2028   -7.5994  -17.0203 N   0  0  0  0  0  0  0  0  0  0  0  0
   22.0162   -6.9449  -16.5121 C   0  0  1  0  0  0  0  0  0  0  0  0
   21.8748   -7.1199  -15.0170 C   0  0  0  0  0  0  0  0  0  0  0  0
   20.9591   -8.2075  -14.6523 C   0  0  0  0  0  0  0  0  0  0  0  0
   20.4100   -8.8637  -15.5710 O   0  0  0  0  0  0  0  0  0  0  0  0
   21.9165   -5.5485  -16.9382 C   0  0  0  0  0  0  0  0  0  0  0  0
   22.9318   -4.8783  -17.2296 O   0  0  0  0  0  0  0  0  0  0  0  0
   20.6544   -8.5652  -13.3497 O   0  0  0  0  0  0  0  0  0  0  0  0
   20.6826   -4.9322  -17.0288 O   0  0  0  0  0  0  0  0  0  0  0  0
  2  1  1  0
  3  2  1  0
  4  3  1  0
  4  5  1  0
  5  7  1  0
  5  6  1  1
  7  8  2  0
  9 10  1  0
  9  7  1  0
 11 12  1  0
 10 11  1  6
 12 13  2  0
 14 13  1  0
 15 14  1  0
 16 15  2  0
 16 12  1  0
 17 18  2  0
 17 10  1  0
 19 17  1  0
 20 24  1  0
 20 19  1  0
 20 21  1  1
 22 21  1  0
 23 22  2  0
 24 27  1  0
 25 24  2  0
 26 22  1  0
M  END
$$$$
