MHD.pdb
     RDKit          3D

 27 27  0  0  1  0  0  0  0  0999 V2000
   30.9543  -22.1525   -9.5653 C   0  0  0  0  0  0  0  0  0  0  0  0
   29.4121  -21.4735  -10.2017 S   0  0  0  0  0  0  0  0  0  0  0  0
   29.3411  -21.3035  -11.9790 C   0  0  0  0  0  0  0  0  0  0  0  0
   28.0626  -20.7495  -12.4788 C   0  0  0  0  0  0  0  0  0  0  0  0
   27.9401  -20.6236  -13.9624 C   0  0  2  0  0  0  0  0  0  0  0  0
   28.9837  -19.7696  -14.5015 N   0  0  0  0  0  0  0  0  0  0  0  0
   26.6168  -19.9287  -14.2178 C   0  0  0  0  0  0  0  0  0  0  0  0
   26.5327  -18.7501  -13.8062 O   0  0  0  0  0  0  0  0  0  0  0  0
   25.5386  -20.5499  -14.8739 N   0  0  0  0  0  0  0  0  0  0  0  0
   24.3734  -19.7191  -15.2579 C   0  0  1  0  0  0  0  0  0  0  0  0
   24.2765  -19.7585  -16.7446 C   0  0  0  0  0  0  0  0  0  0  0  0
   25.2312  -18.8820  -17.4388 C   0  0  0  0  0  0  0  0  0  0  0  0
   25.3358  -17.5308  -17.4739 C   0  0  0  0  0  0  0  0  0  0  0  0
   26.4359  -17.2226  -18.2061 N   0  0  0  0  0  0  0  0  0  0  0  0
   27.0157  -18.3442  -18.6238 C   0  0  0  0  0  0  0  0  0  0  0  0
   26.2957  -19.3511  -18.1653 N   0  0  0  0  0  0  0  0  0  0  0  0
   23.1623  -20.4348  -14.7216 C   0  0  0  0  0  0  0  0  0  0  0  0
   23.1823  -21.5255  -14.1350 O   0  0  0  0  0  0  0  0  0  0  0  0
   21.8413  -19.8621  -14.8682 N   0  0  0  0  0  0  0  0  0  0  0  0
   20.6724  -20.4420  -14.2420 C   0  0  1  0  0  0  0  0  0  0  0  0
   20.8278  -20.5364  -12.7409 C   0  0  0  0  0  0  0  0  0  0  0  0
   19.6572  -21.1260  -12.0805 C   0  0  0  0  0  0  0  0  0  0  0  0
   19.2179  -22.2231  -12.5040 O   0  0  0  0  0  0  0  0  0  0  0  0
   19.4300  -19.7851  -14.6499 C   0  0  0  0  0  0  0  0  0  0  0  0
   19.3893  -18.5611  -14.9052 O   0  0  0  0  0  0  0  0  0  0  0  0
   18.9948  -20.5499  -11.0094 O   0  0  0  0  0  0  0  0  0  0  0  0
   18.2600  -20.5122  -14.7633 O   0  0  0  0  0  0  0  0  0  0  0  0
  2  1  1  0
  3  2  1  0
  4  3  1  0
  4  5  1  0
  5  7  1  0
  5  6  1  1
  7  8  2  0
  9 10  1  0
  9  7  1  0
 11 12  1  0
 10 11  1  6
 12 13  2  0
 14 13  1  0
 15 14  1  0
 16 15  2  0
 16 12  1  0
 17 18  2  0
 17 10  1  0
 19 17  1  0
 20 24  1  0
 20 19  1  0
 20 21  1  1
 22 21  1  0
 23 22  2  0
 24 27  1  0
 25 24  2  0
 26 22  1  0
M  END
$$$$
