MHD.pdb
     RDKit          3D

 27 27  0  0  1  0  0  0  0  0999 V2000
   28.6781  -18.5952   -6.3281 C   0  0  0  0  0  0  0  0  0  0  0  0
   27.1301  -19.5066   -6.1951 S   0  0  0  0  0  0  0  0  0  0  0  0
   26.8823  -20.7563   -7.4480 C   0  0  0  0  0  0  0  0  0  0  0  0
   27.0772  -20.2668   -8.8314 C   0  0  0  0  0  0  0  0  0  0  0  0
   26.9245  -21.2858   -9.9131 C   0  0  2  0  0  0  0  0  0  0  0  0
   28.2176  -21.6854  -10.4398 N   0  0  0  0  0  0  0  0  0  0  0  0
   26.1769  -20.5966  -11.0379 C   0  0  0  0  0  0  0  0  0  0  0  0
   26.6441  -19.4964  -11.4080 O   0  0  0  0  0  0  0  0  0  0  0  0
   25.0288  -21.1408  -11.6419 N   0  0  0  0  0  0  0  0  0  0  0  0
   24.5536  -20.5489  -12.9145 C   0  0  1  0  0  0  0  0  0  0  0  0
   25.0127  -21.4443  -14.0139 C   0  0  0  0  0  0  0  0  0  0  0  0
   26.3050  -21.0669  -14.6048 C   0  0  0  0  0  0  0  0  0  0  0  0
   27.1902  -20.0981  -14.2647 C   0  0  0  0  0  0  0  0  0  0  0  0
   28.2631  -20.2145  -15.0874 N   0  0  0  0  0  0  0  0  0  0  0  0
   28.0676  -21.2281  -15.9258 C   0  0  0  0  0  0  0  0  0  0  0  0
   26.8884  -21.7490  -15.6418 N   0  0  0  0  0  0  0  0  0  0  0  0
   23.0513  -20.6394  -12.8753 C   0  0  0  0  0  0  0  0  0  0  0  0
   22.4036  -21.4098  -12.1535 O   0  0  0  0  0  0  0  0  0  0  0  0
   22.2384  -19.7906  -13.7199 N   0  0  0  0  0  0  0  0  0  0  0  0
   20.7945  -19.8846  -13.7511 C   0  0  1  0  0  0  0  0  0  0  0  0
   20.1708  -18.7141  -14.4769 C   0  0  0  0  0  0  0  0  0  0  0  0
   20.0717  -17.5106  -13.6427 C   0  0  0  0  0  0  0  0  0  0  0  0
   19.9326  -17.6491  -12.4028 O   0  0  0  0  0  0  0  0  0  0  0  0
   20.3245  -21.1805  -14.2422 C   0  0  0  0  0  0  0  0  0  0  0  0
   19.2778  -21.7069  -13.8037 O   0  0  0  0  0  0  0  0  0  0  0  0
   20.1214  -16.2166  -14.1335 O   0  0  0  0  0  0  0  0  0  0  0  0
   21.0361  -21.8594  -15.2134 O   0  0  0  0  0  0  0  0  0  0  0  0
  2  1  1  0
  3  2  1  0
  4  3  1  0
  4  5  1  0
  5  7  1  0
  5  6  1  6
  7  8  2  0
  9 10  1  0
  9  7  1  0
 11 12  1  0
 10 11  1  6
 12 13  2  0
 14 13  1  0
 15 14  1  0
 16 15  2  0
 16 12  1  0
 17 18  2  0
 17 10  1  0
 19 17  1  0
 20 24  1  0
 20 19  1  0
 20 21  1  6
 22 21  1  0
 23 22  2  0
 24 27  1  0
 25 24  2  0
 26 22  1  0
M  END
$$$$
