WTP.pdb
     RDKit          3D

 29 31  0  0  1  0  0  0  0  0999 V2000
   24.4780  -20.6693   -8.2139 N   0  0  0  0  0  0  0  0  0  0  0  0
   25.6957  -20.4511   -8.9617 C   0  0  1  0  0  0  0  0  0  0  0  0
   26.9205  -20.9384   -8.2316 C   0  0  0  0  0  0  0  0  0  0  0  0
   27.4491  -19.9567   -7.2576 C   0  0  0  0  0  0  0  0  0  0  0  0
   27.2551  -18.5915   -7.2354 C   0  0  0  0  0  0  0  0  0  0  0  0
   27.8928  -18.0608   -6.2009 N   0  0  0  0  0  0  0  0  0  0  0  0
   28.5257  -19.0161   -5.5014 C   0  0  0  0  0  0  0  0  0  0  0  0
   29.3107  -18.9898   -4.3660 C   0  0  0  0  0  0  0  0  0  0  0  0
   29.8426  -20.1355   -3.8533 C   0  0  0  0  0  0  0  0  0  0  0  0
   29.5882  -21.3377   -4.4847 C   0  0  0  0  0  0  0  0  0  0  0  0
   28.8031  -21.3523   -5.6176 C   0  0  0  0  0  0  0  0  0  0  0  0
   28.2490  -20.2138   -6.1638 C   0  0  0  0  0  0  0  0  0  0  0  0
   25.5778  -21.1295  -10.2641 C   0  0  0  0  0  0  0  0  0  0  0  0
   25.1233  -22.3102  -10.3674 O   0  0  0  0  0  0  0  0  0  0  0  0
   23.4877  -19.4497  -12.6168 C   0  0  0  0  0  0  0  0  0  0  0  0
   23.9747  -20.8901  -12.7664 C   0  0  1  0  0  0  0  0  0  0  0  0
   23.5027  -21.3515  -13.9656 O   0  0  0  0  0  0  0  0  0  0  0  0
   25.4871  -20.9354  -12.7581 C   0  0  2  0  0  0  0  0  0  0  0  0
   25.9649  -20.4949  -11.4464 N   0  0  0  0  0  0  0  0  0  0  0  0
   26.0250  -20.0613  -13.8029 C   0  0  0  0  0  0  0  0  0  0  0  0
   25.9417  -18.8225  -13.6077 O   0  0  0  0  0  0  0  0  0  0  0  0
   26.6205  -20.5256  -14.9889 N   0  0  0  0  0  0  0  0  0  0  0  0
   26.5048  -21.9370  -15.3954 C   0  0  0  0  0  0  0  0  0  0  0  0
   27.7422  -22.1920  -16.2071 C   0  0  0  0  0  0  0  0  0  0  0  0
   28.4982  -20.8737  -16.2430 C   0  0  0  0  0  0  0  0  0  0  0  0
   27.3564  -19.8723  -16.0493 C   0  0  1  0  0  0  0  0  0  0  0  0
   26.5802  -19.8177  -17.3269 C   0  0  0  0  0  0  0  0  0  0  0  0
   27.1378  -19.3802  -18.3450 O   0  0  0  0  0  0  0  0  0  0  0  0
   25.2715  -20.2413  -17.3883 O   0  0  0  0  0  0  0  0  0  0  0  0
  2  1  1  1
  2  3  1  0
  2 13  1  0
  3  4  1  0
  4 12  1  0
  5  4  2  0
  5  6  1  0
  6  7  1  0
  7  8  1  0
  8  9  2  0
 10  9  1  0
 11 10  2  0
 12  7  2  0
 12 11  1  0
 13 19  1  0
 13 14  2  0
 16 15  1  6
 17 16  1  0
 18 16  1  0
 18 19  1  1
 20 18  1  0
 20 21  2  0
 22 20  1  0
 23 22  1  0
 24 25  1  0
 24 23  1  0
 25 26  1  0
 26 22  1  0
 26 27  1  6
 27 29  1  0
 28 27  2  0
M  END
$$$$
