WTP.pdb
     RDKit          3D

 29 31  0  0  1  0  0  0  0  0999 V2000
   29.8042  -24.1273  -18.1427 N   0  0  0  0  0  0  0  0  0  0  0  0
   28.6702  -24.3149  -17.2659 C   0  0  1  0  0  0  0  0  0  0  0  0
   28.9269  -25.3457  -16.1972 C   0  0  0  0  0  0  0  0  0  0  0  0
   28.7926  -26.7374  -16.6838 C   0  0  0  0  0  0  0  0  0  0  0  0
   29.7787  -27.5639  -17.1801 C   0  0  0  0  0  0  0  0  0  0  0  0
   29.2603  -28.7389  -17.5103 N   0  0  0  0  0  0  0  0  0  0  0  0
   27.9416  -28.7556  -17.2588 C   0  0  0  0  0  0  0  0  0  0  0  0
   26.9630  -29.7161  -17.4200 C   0  0  0  0  0  0  0  0  0  0  0  0
   25.6686  -29.4646  -17.0744 C   0  0  0  0  0  0  0  0  0  0  0  0
   25.3379  -28.2277  -16.5556 C   0  0  0  0  0  0  0  0  0  0  0  0
   26.3229  -27.2762  -16.3989 C   0  0  0  0  0  0  0  0  0  0  0  0
   27.6416  -27.4955  -16.7374 C   0  0  0  0  0  0  0  0  0  0  0  0
   28.3299  -23.0201  -16.6509 C   0  0  0  0  0  0  0  0  0  0  0  0
   29.2199  -22.1706  -16.3386 O   0  0  0  0  0  0  0  0  0  0  0  0
   25.6395  -19.2721  -15.4750 C   0  0  0  0  0  0  0  0  0  0  0  0
   26.1042  -20.4262  -16.3617 C   0  0  1  0  0  0  0  0  0  0  0  0
   27.0894  -19.9362  -17.1758 O   0  0  0  0  0  0  0  0  0  0  0  0
   26.6526  -21.5518  -15.5121 C   0  0  2  0  0  0  0  0  0  0  0  0
   27.0034  -22.6736  -16.3848 N   0  0  0  0  0  0  0  0  0  0  0  0
   25.6523  -21.9786  -14.5311 C   0  0  0  0  0  0  0  0  0  0  0  0
   24.9250  -22.9538  -14.8467 O   0  0  0  0  0  0  0  0  0  0  0  0
   25.4678  -21.3683  -13.2780 N   0  0  0  0  0  0  0  0  0  0  0  0
   26.2025  -20.1446  -12.9130 C   0  0  0  0  0  0  0  0  0  0  0  0
   26.3075  -20.2072  -11.4164 C   0  0  0  0  0  0  0  0  0  0  0  0
   25.5855  -21.4782  -10.9990 C   0  0  0  0  0  0  0  0  0  0  0  0
   24.5988  -21.6518  -12.1567 C   0  0  1  0  0  0  0  0  0  0  0  0
   23.5266  -20.6211  -11.9964 C   0  0  0  0  0  0  0  0  0  0  0  0
   23.5581  -19.6112  -12.7160 O   0  0  0  0  0  0  0  0  0  0  0  0
   22.5172  -20.7757  -11.0728 O   0  0  0  0  0  0  0  0  0  0  0  0
  2  1  1  1
  2  3  1  0
  2 13  1  0
  3  4  1  0
  4 12  1  0
  5  4  2  0
  5  6  1  0
  6  7  1  0
  7  8  1  0
  8  9  2  0
 10  9  1  0
 11 10  2  0
 12  7  2  0
 12 11  1  0
 13 19  1  0
 13 14  2  0
 16 15  1  1
 17 16  1  0
 18 16  1  0
 18 19  1  6
 20 18  1  0
 20 21  2  0
 22 20  1  0
 23 22  1  0
 24 25  1  0
 24 23  1  0
 25 26  1  0
 26 22  1  0
 26 27  1  1
 27 29  1  0
 28 27  2  0
M  END
$$$$
