WTP.pdb
     RDKit          3D

 29 31  0  0  1  0  0  0  0  0999 V2000
   26.3630  -21.9439  -11.3714 N   0  0  0  0  0  0  0  0  0  0  0  0
   25.7947  -20.6504  -11.6774 C   0  0  1  0  0  0  0  0  0  0  0  0
   25.7532  -19.7365  -10.4800 C   0  0  0  0  0  0  0  0  0  0  0  0
   24.9183  -20.2594   -9.3749 C   0  0  0  0  0  0  0  0  0  0  0  0
   25.2916  -20.5075   -8.0706 C   0  0  0  0  0  0  0  0  0  0  0  0
   24.2561  -20.9708   -7.3841 N   0  0  0  0  0  0  0  0  0  0  0  0
   23.1719  -21.0532   -8.1716 C   0  0  0  0  0  0  0  0  0  0  0  0
   21.8728  -21.4637   -7.9476 C   0  0  0  0  0  0  0  0  0  0  0  0
   20.9482  -21.4454   -8.9490 C   0  0  0  0  0  0  0  0  0  0  0  0
   21.3235  -21.0082  -10.2047 C   0  0  0  0  0  0  0  0  0  0  0  0
   22.6230  -20.6006  -10.4170 C   0  0  0  0  0  0  0  0  0  0  0  0
   23.5843  -20.6056   -9.4283 C   0  0  0  0  0  0  0  0  0  0  0  0
   26.5811  -20.0334  -12.7597 C   0  0  0  0  0  0  0  0  0  0  0  0
   27.7649  -19.6146  -12.5746 O   0  0  0  0  0  0  0  0  0  0  0  0
   28.1361  -20.9753  -15.6835 C   0  0  0  0  0  0  0  0  0  0  0  0
   27.1566  -19.9204  -16.1955 C   0  0  1  0  0  0  0  0  0  0  0  0
   26.0904  -20.5892  -16.7336 O   0  0  0  0  0  0  0  0  0  0  0  0
   26.6895  -19.0419  -15.0555 C   0  0  2  0  0  0  0  0  0  0  0  0
   26.0503  -19.8836  -14.0427 N   0  0  0  0  0  0  0  0  0  0  0  0
   25.7374  -18.0422  -15.5447 C   0  0  0  0  0  0  0  0  0  0  0  0
   24.5167  -18.2858  -15.3716 O   0  0  0  0  0  0  0  0  0  0  0  0
   26.1097  -16.8462  -16.1832 N   0  0  0  0  0  0  0  0  0  0  0  0
   27.5157  -16.5760  -16.5310 C   0  0  0  0  0  0  0  0  0  0  0  0
   27.6218  -15.0783  -16.5107 C   0  0  0  0  0  0  0  0  0  0  0  0
   26.2315  -14.5648  -16.1724 C   0  0  0  0  0  0  0  0  0  0  0  0
   25.3591  -15.7149  -16.6826 C   0  0  1  0  0  0  0  0  0  0  0  0
   25.3559  -15.6525  -18.1772 C   0  0  0  0  0  0  0  0  0  0  0  0
   26.0093  -16.4956  -18.8104 O   0  0  0  0  0  0  0  0  0  0  0  0
   24.6463  -14.6844  -18.8518 O   0  0  0  0  0  0  0  0  0  0  0  0
  2  1  1  1
  2  3  1  0
  2 13  1  0
  3  4  1  0
  4 12  1  0
  5  4  2  0
  5  6  1  0
  6  7  1  0
  7  8  1  0
  8  9  2  0
 10  9  1  0
 11 10  2  0
 12  7  2  0
 12 11  1  0
 13 19  1  0
 13 14  2  0
 16 15  1  1
 17 16  1  0
 18 16  1  0
 18 19  1  1
 20 18  1  0
 20 21  2  0
 22 20  1  0
 23 22  1  0
 24 25  1  0
 24 23  1  0
 25 26  1  0
 26 22  1  0
 26 27  1  6
 27 29  1  0
 28 27  2  0
M  END
$$$$
