WTP.pdb
     RDKit          3D

 29 31  0  0  1  0  0  0  0  0999 V2000
   24.2808  -20.2280   -8.8469 N   0  0  0  0  0  0  0  0  0  0  0  0
   25.6106  -20.3228   -9.4060 C   0  0  1  0  0  0  0  0  0  0  0  0
   26.5200  -21.2083   -8.5939 C   0  0  0  0  0  0  0  0  0  0  0  0
   26.6598  -20.7684   -7.1873 C   0  0  0  0  0  0  0  0  0  0  0  0
   25.7253  -20.8429   -6.1758 C   0  0  0  0  0  0  0  0  0  0  0  0
   26.2309  -20.3456   -5.0553 N   0  0  0  0  0  0  0  0  0  0  0  0
   27.4905  -19.9265   -5.2561 C   0  0  0  0  0  0  0  0  0  0  0  0
   28.4338  -19.3460   -4.4319 C   0  0  0  0  0  0  0  0  0  0  0  0
   29.6680  -19.0112   -4.9040 C   0  0  0  0  0  0  0  0  0  0  0  0
   29.9728  -19.2593   -6.2285 C   0  0  0  0  0  0  0  0  0  0  0  0
   29.0234  -19.8394   -7.0423 C   0  0  0  0  0  0  0  0  0  0  0  0
   27.7658  -20.1910   -6.5992 C   0  0  0  0  0  0  0  0  0  0  0  0
   25.5075  -20.8301  -10.7853 C   0  0  0  0  0  0  0  0  0  0  0  0
   25.1627  -22.0255  -11.0370 O   0  0  0  0  0  0  0  0  0  0  0  0
   23.1701  -20.4942  -13.2437 C   0  0  0  0  0  0  0  0  0  0  0  0
   24.4198  -19.8800  -13.8724 C   0  0  1  0  0  0  0  0  0  0  0  0
   24.3794  -18.5359  -13.6164 O   0  0  0  0  0  0  0  0  0  0  0  0
   25.6650  -20.4823  -13.2592 C   0  0  2  0  0  0  0  0  0  0  0  0
   25.7878  -20.0088  -11.8795 N   0  0  0  0  0  0  0  0  0  0  0  0
   26.8483  -20.0888  -14.0274 C   0  0  0  0  0  0  0  0  0  0  0  0
   27.4323  -19.0338  -13.6732 O   0  0  0  0  0  0  0  0  0  0  0  0
   27.3570  -20.8160  -15.1179 N   0  0  0  0  0  0  0  0  0  0  0  0
   26.6657  -22.0163  -15.6199 C   0  0  0  0  0  0  0  0  0  0  0  0
   27.7603  -22.8516  -16.2192 C   0  0  0  0  0  0  0  0  0  0  0  0
   29.0404  -22.0501  -16.0469 C   0  0  0  0  0  0  0  0  0  0  0  0
   28.4907  -20.6220  -15.9952 C   0  0  1  0  0  0  0  0  0  0  0  0
   28.0756  -20.2460  -17.3823 C   0  0  0  0  0  0  0  0  0  0  0  0
   26.8740  -20.3115  -17.6834 O   0  0  0  0  0  0  0  0  0  0  0  0
   28.9971  -19.8330  -18.3183 O   0  0  0  0  0  0  0  0  0  0  0  0
  2  1  1  1
  2  3  1  0
  2 13  1  0
  3  4  1  0
  4 12  1  0
  5  4  2  0
  5  6  1  0
  6  7  1  0
  7  8  1  0
  8  9  2  0
 10  9  1  0
 11 10  2  0
 12  7  2  0
 12 11  1  0
 13 19  1  0
 13 14  2  0
 16 15  1  1
 17 16  1  0
 18 16  1  0
 18 19  1  1
 20 18  1  0
 20 21  2  0
 22 20  1  0
 23 22  1  0
 24 25  1  0
 24 23  1  0
 25 26  1  0
 26 22  1  0
 26 27  1  6
 27 29  1  0
 28 27  2  0
M  END
$$$$
