WTP.pdb
     RDKit          3D

 29 31  0  0  1  0  0  0  0  0999 V2000
   28.3360  -20.4967   -9.3860 N   0  0  0  0  0  0  0  0  0  0  0  0
   27.0048  -21.0602   -9.3871 C   0  0  1  0  0  0  0  0  0  0  0  0
   26.2053  -20.6634   -8.1730 C   0  0  0  0  0  0  0  0  0  0  0  0
   26.9826  -19.8669   -7.1967 C   0  0  0  0  0  0  0  0  0  0  0  0
   27.0163  -18.4957   -7.0522 C   0  0  0  0  0  0  0  0  0  0  0  0
   27.8336  -18.1652   -6.0617 N   0  0  0  0  0  0  0  0  0  0  0  0
   28.3708  -19.2658   -5.5115 C   0  0  0  0  0  0  0  0  0  0  0  0
   29.2609  -19.4634   -4.4748 C   0  0  0  0  0  0  0  0  0  0  0  0
   29.6490  -20.7188   -4.1121 C   0  0  0  0  0  0  0  0  0  0  0  0
   29.1398  -21.8055   -4.7965 C   0  0  0  0  0  0  0  0  0  0  0  0
   28.2517  -21.5966   -5.8298 C   0  0  0  0  0  0  0  0  0  0  0  0
   27.8372  -20.3418   -6.2238 C   0  0  0  0  0  0  0  0  0  0  0  0
   26.3114  -20.6305  -10.6139 C   0  0  0  0  0  0  0  0  0  0  0  0
   25.9480  -19.4276  -10.7935 O   0  0  0  0  0  0  0  0  0  0  0  0
   27.7202  -20.5993  -13.7712 C   0  0  0  0  0  0  0  0  0  0  0  0
   26.4311  -21.3816  -14.0173 C   0  0  1  0  0  0  0  0  0  0  0  0
   26.7635  -22.7094  -14.0336 O   0  0  0  0  0  0  0  0  0  0  0  0
   25.4365  -21.1148  -12.9087 C   0  0  2  0  0  0  0  0  0  0  0  0
   26.0239  -21.5375  -11.6362 N   0  0  0  0  0  0  0  0  0  0  0  0
   24.1958  -21.8536  -13.1536 C   0  0  0  0  0  0  0  0  0  0  0  0
   24.1534  -23.0442  -12.7533 O   0  0  0  0  0  0  0  0  0  0  0  0
   23.0704  -21.3111  -13.7985 N   0  0  0  0  0  0  0  0  0  0  0  0
   23.1277  -19.9867  -14.4415 C   0  0  0  0  0  0  0  0  0  0  0  0
   21.7166  -19.4781  -14.3698 C   0  0  0  0  0  0  0  0  0  0  0  0
   20.9088  -20.5778  -13.6999 C   0  0  0  0  0  0  0  0  0  0  0  0
   21.7387  -21.8139  -14.0568 C   0  0  1  0  0  0  0  0  0  0  0  0
   21.5152  -22.1064  -15.5067 C   0  0  0  0  0  0  0  0  0  0  0  0
   20.4258  -22.5849  -15.8573 O   0  0  0  0  0  0  0  0  0  0  0  0
   22.4897  -21.8550  -16.4464 O   0  0  0  0  0  0  0  0  0  0  0  0
  2  1  1  1
  2  3  1  0
  2 13  1  0
  3  4  1  0
  4 12  1  0
  5  4  2  0
  5  6  1  0
  6  7  1  0
  7  8  1  0
  8  9  2  0
 10  9  1  0
 11 10  2  0
 12  7  2  0
 12 11  1  0
 13 19  1  0
 13 14  2  0
 16 15  1  1
 17 16  1  0
 18 16  1  0
 18 19  1  1
 20 18  1  0
 20 21  2  0
 22 20  1  0
 23 22  1  0
 24 25  1  0
 24 23  1  0
 25 26  1  0
 26 22  1  0
 26 27  1  6
 27 29  1  0
 28 27  2  0
M  END
$$$$
