WTP.pdb
     RDKit          3D

 29 31  0  0  1  0  0  0  0  0999 V2000
   14.4564  -14.5845    5.2848 N   0  0  0  0  0  0  0  0  0  0  0  0
   15.6893  -15.2483    4.9254 C   0  0  1  0  0  0  0  0  0  0  0  0
   16.8600  -14.7871    5.7544 C   0  0  0  0  0  0  0  0  0  0  0  0
   17.7554  -13.8547    5.0327 C   0  0  0  0  0  0  0  0  0  0  0  0
   17.9277  -12.5033    5.2473 C   0  0  0  0  0  0  0  0  0  0  0  0
   18.8213  -12.0203    4.3948 N   0  0  0  0  0  0  0  0  0  0  0  0
   19.2768  -12.9955    3.5923 C   0  0  0  0  0  0  0  0  0  0  0  0
   20.1948  -13.0162    2.5613 C   0  0  0  0  0  0  0  0  0  0  0  0
   20.4784  -14.1721    1.8968 C   0  0  0  0  0  0  0  0  0  0  0  0
   19.8338  -15.3370    2.2658 C   0  0  0  0  0  0  0  0  0  0  0  0
   18.9192  -15.3047    3.2966 C   0  0  0  0  0  0  0  0  0  0  0  0
   18.6077  -14.1545    3.9905 C   0  0  0  0  0  0  0  0  0  0  0  0
   15.5034  -16.7022    5.0743 C   0  0  0  0  0  0  0  0  0  0  0  0
   14.8543  -17.2001    6.0449 O   0  0  0  0  0  0  0  0  0  0  0  0
   16.0248  -21.2347    3.1277 C   0  0  0  0  0  0  0  0  0  0  0  0
   16.0801  -19.7155    2.9746 C   0  0  1  0  0  0  0  0  0  0  0  0
   15.0265  -19.3530    2.1795 O   0  0  0  0  0  0  0  0  0  0  0  0
   15.9566  -19.0477    4.3267 C   0  0  2  0  0  0  0  0  0  0  0  0
   16.0389  -17.5974    4.1458 N   0  0  0  0  0  0  0  0  0  0  0  0
   17.0305  -19.5000    5.2141 C   0  0  0  0  0  0  0  0  0  0  0  0
   18.1631  -18.9814    5.0478 O   0  0  0  0  0  0  0  0  0  0  0  0
   16.8640  -20.4635    6.2243 N   0  0  0  0  0  0  0  0  0  0  0  0
   15.5607  -21.1135    6.4474 C   0  0  0  0  0  0  0  0  0  0  0  0
   15.5701  -21.4731    7.9053 C   0  0  0  0  0  0  0  0  0  0  0  0
   16.9206  -21.0233    8.4387 C   0  0  0  0  0  0  0  0  0  0  0  0
   17.7731  -21.0763    7.1681 C   0  0  1  0  0  0  0  0  0  0  0  0
   18.0294  -22.5163    6.8543 C   0  0  0  0  0  0  0  0  0  0  0  0
   18.8611  -23.1359    7.5349 O   0  0  0  0  0  0  0  0  0  0  0  0
   17.3632  -23.1562    5.8333 O   0  0  0  0  0  0  0  0  0  0  0  0
  2  1  1  1
  2  3  1  0
  2 13  1  0
  3  4  1  0
  4 12  1  0
  5  4  2  0
  5  6  1  0
  6  7  1  0
  7  8  1  0
  8  9  2  0
 10  9  1  0
 11 10  2  0
 12  7  2  0
 12 11  1  0
 13 19  1  0
 13 14  2  0
 16 15  1  1
 17 16  1  0
 18 16  1  0
 18 19  1  6
 20 18  1  0
 20 21  2  0
 22 20  1  0
 23 22  1  0
 24 25  1  0
 24 23  1  0
 25 26  1  0
 26 22  1  0
 26 27  1  6
 27 29  1  0
 28 27  2  0
M  END
$$$$
