WTP.pdb
     RDKit          3D

 29 31  0  0  1  0  0  0  0  0999 V2000
   26.6939  -22.8545  -11.2545 N   0  0  0  0  0  0  0  0  0  0  0  0
   26.1588  -21.5178  -11.3841 C   0  0  1  0  0  0  0  0  0  0  0  0
   27.2296  -20.4581  -11.3512 C   0  0  0  0  0  0  0  0  0  0  0  0
   28.1731  -20.6161  -10.2213 C   0  0  0  0  0  0  0  0  0  0  0  0
   29.4147  -21.2164  -10.2274 C   0  0  0  0  0  0  0  0  0  0  0  0
   29.9524  -21.1555   -9.0168 N   0  0  0  0  0  0  0  0  0  0  0  0
   29.1220  -20.5306   -8.1670 C   0  0  0  0  0  0  0  0  0  0  0  0
   29.2070  -20.2165   -6.8253 C   0  0  0  0  0  0  0  0  0  0  0  0
   28.1938  -19.5603   -6.1921 C   0  0  0  0  0  0  0  0  0  0  0  0
   27.0675  -19.2072   -6.9100 C   0  0  0  0  0  0  0  0  0  0  0  0
   26.9933  -19.5257   -8.2491 C   0  0  0  0  0  0  0  0  0  0  0  0
   27.9982  -20.1883   -8.9218 C   0  0  0  0  0  0  0  0  0  0  0  0
   25.3998  -21.4333  -12.6440 C   0  0  0  0  0  0  0  0  0  0  0  0
   25.9098  -21.7638  -13.7585 O   0  0  0  0  0  0  0  0  0  0  0  0
   23.1461  -23.4396  -13.9669 C   0  0  0  0  0  0  0  0  0  0  0  0
   22.3482  -22.1384  -13.8987 C   0  0  1  0  0  0  0  0  0  0  0  0
   21.6272  -22.1695  -12.7356 O   0  0  0  0  0  0  0  0  0  0  0  0
   23.2841  -20.9496  -13.8912 C   0  0  2  0  0  0  0  0  0  0  0  0
   24.0782  -20.9823  -12.6619 N   0  0  0  0  0  0  0  0  0  0  0  0
   22.5184  -19.7027  -13.9558 C   0  0  0  0  0  0  0  0  0  0  0  0
   22.2694  -19.1301  -12.8650 O   0  0  0  0  0  0  0  0  0  0  0  0
   22.0580  -19.1222  -15.1507 N   0  0  0  0  0  0  0  0  0  0  0  0
   22.2704  -19.7855  -16.4490 C   0  0  0  0  0  0  0  0  0  0  0  0
   22.3143  -18.6575  -17.4392 C   0  0  0  0  0  0  0  0  0  0  0  0
   22.0912  -17.3864  -16.6359 C   0  0  0  0  0  0  0  0  0  0  0  0
   21.2985  -17.9260  -15.4423 C   0  0  1  0  0  0  0  0  0  0  0  0
   19.9152  -18.2359  -15.9200 C   0  0  0  0  0  0  0  0  0  0  0  0
   19.1305  -17.2970  -16.1237 O   0  0  0  0  0  0  0  0  0  0  0  0
   19.5055  -19.5328  -16.1344 O   0  0  0  0  0  0  0  0  0  0  0  0
  2  1  1  6
  2  3  1  0
  2 13  1  0
  3  4  1  0
  4 12  1  0
  5  4  2  0
  5  6  1  0
  6  7  1  0
  7  8  1  0
  8  9  2  0
 10  9  1  0
 11 10  2  0
 12  7  2  0
 12 11  1  0
 13 19  1  0
 13 14  2  0
 16 15  1  1
 17 16  1  0
 18 16  1  0
 18 19  1  1
 20 18  1  0
 20 21  2  0
 22 20  1  0
 23 22  1  0
 24 25  1  0
 24 23  1  0
 25 26  1  0
 26 22  1  0
 26 27  1  6
 27 29  1  0
 28 27  2  0
M  END
$$$$
