WTP.pdb
     RDKit          3D

 29 31  0  0  1  0  0  0  0  0999 V2000
   21.6635  -18.6054  -18.0483 N   0  0  0  0  0  0  0  0  0  0  0  0
   22.2398  -17.8885  -16.9331 C   0  0  1  0  0  0  0  0  0  0  0  0
   21.2159  -17.5115  -15.8938 C   0  0  0  0  0  0  0  0  0  0  0  0
   20.2057  -16.5503  -16.3910 C   0  0  0  0  0  0  0  0  0  0  0  0
   18.8432  -16.7312  -16.5056 C   0  0  0  0  0  0  0  0  0  0  0  0
   18.2806  -15.6335  -16.9923 N   0  0  0  0  0  0  0  0  0  0  0  0
   19.2108  -14.6928  -17.2204 C   0  0  0  0  0  0  0  0  0  0  0  0
   19.1478  -13.4040  -17.7115 C   0  0  0  0  0  0  0  0  0  0  0  0
   20.2739  -12.6473  -17.8441 C   0  0  0  0  0  0  0  0  0  0  0  0
   21.4934  -13.1845  -17.4796 C   0  0  0  0  0  0  0  0  0  0  0  0
   21.5446  -14.4721  -16.9905 C   0  0  0  0  0  0  0  0  0  0  0  0
   20.4268  -15.2660  -16.8428 C   0  0  0  0  0  0  0  0  0  0  0  0
   23.2927  -18.7232  -16.3288 C   0  0  0  0  0  0  0  0  0  0  0  0
   23.2075  -19.9892  -16.2922 O   0  0  0  0  0  0  0  0  0  0  0  0
   27.9360  -19.0668  -14.6847 C   0  0  0  0  0  0  0  0  0  0  0  0
   26.8115  -18.2462  -15.3144 C   0  0  1  0  0  0  0  0  0  0  0  0
   27.1042  -18.1177  -16.6453 O   0  0  0  0  0  0  0  0  0  0  0  0
   25.4865  -18.9574  -15.1463 C   0  0  2  0  0  0  0  0  0  0  0  0
   24.4355  -18.1495  -15.7673 N   0  0  0  0  0  0  0  0  0  0  0  0
   25.1921  -19.1489  -13.7245 C   0  0  0  0  0  0  0  0  0  0  0  0
   24.6382  -18.1938  -13.1239 O   0  0  0  0  0  0  0  0  0  0  0  0
   25.4883  -20.3230  -13.0100 N   0  0  0  0  0  0  0  0  0  0  0  0
   26.2578  -21.4161  -13.6297 C   0  0  0  0  0  0  0  0  0  0  0  0
   25.7845  -22.6518  -12.9199 C   0  0  0  0  0  0  0  0  0  0  0  0
   24.7687  -22.1808  -11.8917 C   0  0  0  0  0  0  0  0  0  0  0  0
   25.2380  -20.7439  -11.6488 C   0  0  1  0  0  0  0  0  0  0  0  0
   26.4923  -20.8083  -10.8362 C   0  0  0  0  0  0  0  0  0  0  0  0
   26.4008  -20.9807   -9.6112 O   0  0  0  0  0  0  0  0  0  0  0  0
   27.7320  -20.6808  -11.4216 O   0  0  0  0  0  0  0  0  0  0  0  0
  2  1  1  6
  2  3  1  0
  2 13  1  0
  3  4  1  0
  4 12  1  0
  5  4  2  0
  5  6  1  0
  6  7  1  0
  7  8  1  0
  8  9  2  0
 10  9  1  0
 11 10  2  0
 12  7  2  0
 12 11  1  0
 13 19  1  0
 13 14  2  0
 16 15  1  1
 17 16  1  0
 18 16  1  0
 18 19  1  1
 20 18  1  0
 20 21  2  0
 22 20  1  0
 23 22  1  0
 24 25  1  0
 24 23  1  0
 25 26  1  0
 26 22  1  0
 26 27  1  1
 27 29  1  0
 28 27  2  0
M  END
$$$$
