WTP.pdb
     RDKit          3D

 29 31  0  0  1  0  0  0  0  0999 V2000
   25.4084  -18.8606  -10.0179 N   0  0  0  0  0  0  0  0  0  0  0  0
   26.2449  -19.9844  -10.3745 C   0  0  1  0  0  0  0  0  0  0  0  0
   26.1098  -21.1368   -9.4131 C   0  0  0  0  0  0  0  0  0  0  0  0
   26.2086  -20.7280   -7.9937 C   0  0  0  0  0  0  0  0  0  0  0  0
   25.1825  -20.4934   -7.1026 C   0  0  0  0  0  0  0  0  0  0  0  0
   25.6784  -20.1469   -5.9226 N   0  0  0  0  0  0  0  0  0  0  0  0
   27.0203  -20.1330   -5.9651 C   0  0  0  0  0  0  0  0  0  0  0  0
   27.9904  -19.8463   -5.0256 C   0  0  0  0  0  0  0  0  0  0  0  0
   29.3149  -19.9111   -5.3416 C   0  0  0  0  0  0  0  0  0  0  0  0
   29.6849  -20.2699   -6.6234 C   0  0  0  0  0  0  0  0  0  0  0  0
   28.7079  -20.5540   -7.5533 C   0  0  0  0  0  0  0  0  0  0  0  0
   27.3597  -20.4988   -7.2692 C   0  0  0  0  0  0  0  0  0  0  0  0
   25.8965  -20.4180  -11.7387 C   0  0  0  0  0  0  0  0  0  0  0  0
   24.7108  -20.3413  -12.1853 O   0  0  0  0  0  0  0  0  0  0  0  0
   27.9021  -21.1742  -16.2257 C   0  0  0  0  0  0  0  0  0  0  0  0
   28.0383  -21.1865  -14.7040 C   0  0  1  0  0  0  0  0  0  0  0  0
   28.9159  -20.1903  -14.3709 O   0  0  0  0  0  0  0  0  0  0  0  0
   26.6961  -20.9266  -14.0555 C   0  0  2  0  0  0  0  0  0  0  0  0
   26.8653  -20.9351  -12.6015 N   0  0  0  0  0  0  0  0  0  0  0  0
   25.7352  -21.9588  -14.4507 C   0  0  0  0  0  0  0  0  0  0  0  0
   25.8541  -23.0857  -13.9070 O   0  0  0  0  0  0  0  0  0  0  0  0
   24.7049  -21.7590  -15.3862 N   0  0  0  0  0  0  0  0  0  0  0  0
   24.6327  -20.5230  -16.1849 C   0  0  0  0  0  0  0  0  0  0  0  0
   23.1700  -20.3580  -16.4819 C   0  0  0  0  0  0  0  0  0  0  0  0
   22.4765  -21.5517  -15.8455 C   0  0  0  0  0  0  0  0  0  0  0  0
   23.6073  -22.5837  -15.8421 C   0  0  1  0  0  0  0  0  0  0  0  0
   23.7975  -23.0520  -17.2500 C   0  0  0  0  0  0  0  0  0  0  0  0
   22.9661  -23.8343  -17.7355 O   0  0  0  0  0  0  0  0  0  0  0  0
   24.8691  -22.6320  -18.0057 O   0  0  0  0  0  0  0  0  0  0  0  0
  2  1  1  1
  2  3  1  0
  2 13  1  0
  3  4  1  0
  4 12  1  0
  5  4  2  0
  5  6  1  0
  6  7  1  0
  7  8  1  0
  8  9  2  0
 10  9  1  0
 11 10  2  0
 12  7  2  0
 12 11  1  0
 13 19  1  0
 13 14  2  0
 16 15  1  6
 17 16  1  0
 18 16  1  0
 18 19  1  1
 20 18  1  0
 20 21  2  0
 22 20  1  0
 23 22  1  0
 24 25  1  0
 24 23  1  0
 25 26  1  0
 26 22  1  0
 26 27  1  6
 27 29  1  0
 28 27  2  0
M  END
$$$$
