WTP.pdb
     RDKit          3D

 29 31  0  0  1  0  0  0  0  0999 V2000
   24.3106  -19.7206   -9.5020 N   0  0  0  0  0  0  0  0  0  0  0  0
   25.6683  -19.9586   -9.9380 C   0  0  1  0  0  0  0  0  0  0  0  0
   26.3238  -21.0973   -9.2002 C   0  0  0  0  0  0  0  0  0  0  0  0
   26.3624  -20.8977   -7.7338 C   0  0  0  0  0  0  0  0  0  0  0  0
   25.3248  -21.0107   -6.8323 C   0  0  0  0  0  0  0  0  0  0  0  0
   25.7611  -20.7560   -5.6063 N   0  0  0  0  0  0  0  0  0  0  0  0
   27.0724  -20.4687   -5.6267 C   0  0  0  0  0  0  0  0  0  0  0  0
   27.9813  -20.1408   -4.6406 C   0  0  0  0  0  0  0  0  0  0  0  0
   29.2868  -19.8915   -4.9436 C   0  0  0  0  0  0  0  0  0  0  0  0
   29.6998  -19.9701   -6.2596 C   0  0  0  0  0  0  0  0  0  0  0  0
   28.7839  -20.2984   -7.2360 C   0  0  0  0  0  0  0  0  0  0  0  0
   27.4565  -20.5568   -6.9663 C   0  0  0  0  0  0  0  0  0  0  0  0
   25.6582  -20.2309  -11.3858 C   0  0  0  0  0  0  0  0  0  0  0  0
   24.6757  -20.7979  -11.9555 O   0  0  0  0  0  0  0  0  0  0  0  0
   27.0827  -17.5047  -13.8386 C   0  0  0  0  0  0  0  0  0  0  0  0
   27.5754  -18.8929  -14.2443 C   0  0  1  0  0  0  0  0  0  0  0  0
   28.8450  -19.0289  -13.7513 O   0  0  0  0  0  0  0  0  0  0  0  0
   26.6787  -19.9599  -13.6554 C   0  0  2  0  0  0  0  0  0  0  0  0
   26.7385  -19.8731  -12.1953 N   0  0  0  0  0  0  0  0  0  0  0  0
   27.1170  -21.2871  -14.0932 C   0  0  0  0  0  0  0  0  0  0  0  0
   27.9970  -21.8543  -13.3979 O   0  0  0  0  0  0  0  0  0  0  0  0
   26.6134  -21.9485  -15.2271 N   0  0  0  0  0  0  0  0  0  0  0  0
   25.6086  -21.3105  -16.0954 C   0  0  0  0  0  0  0  0  0  0  0  0
   24.8479  -22.4607  -16.6898 C   0  0  0  0  0  0  0  0  0  0  0  0
   25.4943  -23.7205  -16.1368 C   0  0  0  0  0  0  0  0  0  0  0  0
   26.9122  -23.2219  -15.8450 C   0  0  1  0  0  0  0  0  0  0  0  0
   27.6155  -23.0642  -17.1558 C   0  0  0  0  0  0  0  0  0  0  0  0
   28.0470  -24.0775  -17.7266 O   0  0  0  0  0  0  0  0  0  0  0  0
   27.7886  -21.8252  -17.7310 O   0  0  0  0  0  0  0  0  0  0  0  0
  2  1  1  1
  2  3  1  0
  2 13  1  0
  3  4  1  0
  4 12  1  0
  5  4  2  0
  5  6  1  0
  6  7  1  0
  7  8  1  0
  8  9  2  0
 10  9  1  0
 11 10  2  0
 12  7  2  0
 12 11  1  0
 13 19  1  0
 13 14  2  0
 16 15  1  1
 17 16  1  0
 18 16  1  0
 18 19  1  1
 20 18  1  0
 20 21  2  0
 22 20  1  0
 23 22  1  0
 24 25  1  0
 24 23  1  0
 25 26  1  0
 26 22  1  0
 26 27  1  6
 27 29  1  0
 28 27  2  0
M  END
$$$$
