WTP.pdb
     RDKit          3D

 29 31  0  0  1  0  0  0  0  0999 V2000
   21.1698  -20.2427  -17.3083 N   0  0  0  0  0  0  0  0  0  0  0  0
   21.7125  -19.2312  -16.4297 C   0  0  1  0  0  0  0  0  0  0  0  0
   20.7419  -18.8141  -15.3552 C   0  0  0  0  0  0  0  0  0  0  0  0
   19.6103  -18.0105  -15.8704 C   0  0  0  0  0  0  0  0  0  0  0  0
   18.2913  -18.3890  -16.0080 C   0  0  0  0  0  0  0  0  0  0  0  0
   17.5821  -17.3849  -16.5051 N   0  0  0  0  0  0  0  0  0  0  0  0
   18.3681  -16.3175  -16.7182 C   0  0  0  0  0  0  0  0  0  0  0  0
   18.1252  -15.0511  -17.2113 C   0  0  0  0  0  0  0  0  0  0  0  0
   19.1302  -14.1372  -17.3254 C   0  0  0  0  0  0  0  0  0  0  0  0
   20.4090  -14.4905  -16.9397 C   0  0  0  0  0  0  0  0  0  0  0  0
   20.6401  -15.7575  -16.4486 C   0  0  0  0  0  0  0  0  0  0  0  0
   19.6484  -16.7069  -16.3194 C   0  0  0  0  0  0  0  0  0  0  0  0
   22.9507  -19.7489  -15.8218 C   0  0  0  0  0  0  0  0  0  0  0  0
   23.0943  -20.9765  -15.5326 O   0  0  0  0  0  0  0  0  0  0  0  0
   27.4908  -18.7392  -14.0469 C   0  0  0  0  0  0  0  0  0  0  0  0
   26.2609  -18.2961  -14.8377 C   0  0  1  0  0  0  0  0  0  0  0  0
   26.6515  -18.1532  -16.1418 O   0  0  0  0  0  0  0  0  0  0  0  0
   25.1706  -19.3406  -14.7396 C   0  0  2  0  0  0  0  0  0  0  0  0
   24.0242  -18.9021  -15.5374 N   0  0  0  0  0  0  0  0  0  0  0  0
   24.7658  -19.5196  -13.3435 C   0  0  0  0  0  0  0  0  0  0  0  0
   23.7476  -18.8901  -12.9605 O   0  0  0  0  0  0  0  0  0  0  0  0
   25.4415  -20.3445  -12.4271 N   0  0  0  0  0  0  0  0  0  0  0  0
   26.7145  -20.9944  -12.7846 C   0  0  0  0  0  0  0  0  0  0  0  0
   26.7457  -22.2376  -11.9430 C   0  0  0  0  0  0  0  0  0  0  0  0
   25.4728  -22.2127  -11.1124 C   0  0  0  0  0  0  0  0  0  0  0  0
   25.1894  -20.7095  -11.0502 C   0  0  1  0  0  0  0  0  0  0  0  0
   26.1821  -20.0998  -10.1118 C   0  0  0  0  0  0  0  0  0  0  0  0
   27.2231  -19.6131  -10.5789 O   0  0  0  0  0  0  0  0  0  0  0  0
   25.9594  -20.0713   -8.7534 O   0  0  0  0  0  0  0  0  0  0  0  0
  2  1  1  1
  2  3  1  0
  2 13  1  0
  3  4  1  0
  4 12  1  0
  5  4  2  0
  5  6  1  0
  6  7  1  0
  7  8  1  0
  8  9  2  0
 10  9  1  0
 11 10  2  0
 12  7  2  0
 12 11  1  0
 13 19  1  0
 13 14  2  0
 16 15  1  1
 17 16  1  0
 18 16  1  0
 18 19  1  6
 20 18  1  0
 20 21  2  0
 22 20  1  0
 23 22  1  0
 24 25  1  0
 24 23  1  0
 25 26  1  0
 26 22  1  0
 26 27  1  1
 27 29  1  0
 28 27  2  0
M  END
$$$$
