IHW.pdb
     RDKit          3D

 33 35  0  0  1  0  0  0  0  0999 V2000
    6.9337  -11.7020   19.4335 C   0  0  0  0  0  0  0  0  0  0  0  0
    7.8820  -12.7725   18.9923 C   0  0  0  0  0  0  0  0  0  0  0  0
    8.0672  -13.8512   20.0305 C   0  0  2  0  0  0  0  0  0  0  0  0
    8.6946  -13.2636   21.2765 C   0  0  0  0  0  0  0  0  0  0  0  0
    8.9775  -14.9615   19.5627 C   0  0  2  0  0  0  0  0  0  0  0  0
    8.4165  -15.6018   18.3907 N   0  0  0  0  0  0  0  0  0  0  0  0
    9.0267  -15.9712   20.6502 C   0  0  0  0  0  0  0  0  0  0  0  0
    8.0217  -16.6446   20.9998 O   0  0  0  0  0  0  0  0  0  0  0  0
   10.2183  -16.2151   21.3408 N   0  0  0  0  0  0  0  0  0  0  0  0
   10.4231  -17.1963   22.3839 C   0  0  1  0  0  0  0  0  0  0  0  0
   11.5191  -18.1584   22.1400 C   0  0  0  0  0  0  0  0  0  0  0  0
   11.3743  -18.9703   20.9061 C   0  0  0  0  0  0  0  0  0  0  0  0
   10.4013  -19.8198   20.4717 C   0  0  0  0  0  0  0  0  0  0  0  0
   10.7516  -20.3299   19.2661 N   0  0  0  0  0  0  0  0  0  0  0  0
   11.9397  -19.7880   18.9702 C   0  0  0  0  0  0  0  0  0  0  0  0
   12.3384  -18.9660   19.9394 N   0  0  0  0  0  0  0  0  0  0  0  0
   10.6480  -16.5258   23.7036 C   0  0  0  0  0  0  0  0  0  0  0  0
   11.4847  -15.6167   23.8956 O   0  0  0  0  0  0  0  0  0  0  0  0
    9.8570  -16.9569   24.7899 N   0  0  0  0  0  0  0  0  0  0  0  0
   10.1353  -16.3985   26.1386 C   0  0  1  0  0  0  0  0  0  0  0  0
    8.8523  -16.4400   26.9039 C   0  0  0  0  0  0  0  0  0  0  0  0
    7.7584  -15.5976   26.4396 C   0  0  0  0  0  0  0  0  0  0  0  0
    6.5696  -16.0226   25.8296 C   0  0  0  0  0  0  0  0  0  0  0  0
    5.8302  -14.9555   25.5127 N   0  0  0  0  0  0  0  0  0  0  0  0
    6.5003  -13.8553   25.8979 C   0  0  0  0  0  0  0  0  0  0  0  0
    6.1737  -12.4905   25.8189 C   0  0  0  0  0  0  0  0  0  0  0  0
    7.0288  -11.5283   26.3091 C   0  0  0  0  0  0  0  0  0  0  0  0
    8.2221  -11.9179   26.8849 C   0  0  0  0  0  0  0  0  0  0  0  0
    8.5558  -13.2473   26.9688 C   0  0  0  0  0  0  0  0  0  0  0  0
    7.6902  -14.2298   26.4712 C   0  0  0  0  0  0  0  0  0  0  0  0
   11.2346  -17.1534   26.7406 C   0  0  0  0  0  0  0  0  0  0  0  0
   11.7791  -18.3009   26.1212 O   0  0  0  0  0  0  0  0  0  0  0  0
   11.7745  -16.8495   27.8368 O   0  0  0  0  0  0  0  0  0  0  0  0
  1  2  1  0
  2  3  1  0
  3  4  1  1
  5  6  1  6
  5  3  1  0
  7  5  1  0
  8  7  2  0
  9  7  1  0
 10  9  1  0
 11 12  1  0
 10 11  1  6
 12 16  1  0
 13 12  2  0
 13 14  1  0
 14 15  1  0
 16 15  2  0
 17 19  1  0
 17 10  1  0
 18 17  2  0
 20 21  1  1
 20 31  1  0
 20 19  1  0
 22 21  1  0
 22 30  1  0
 23 22  2  0
 24 23  1  0
 24 25  1  0
 25 26  1  0
 25 30  2  0
 26 27  2  0
 27 28  1  0
 29 28  2  0
 30 29  1  0
 31 32  1  0
 33 31  2  0
M  END
$$$$
