IHW.pdb
     RDKit          3D

 33 35  0  0  1  0  0  0  0  0999 V2000
    7.4622  -11.7467   18.4698 C   0  0  0  0  0  0  0  0  0  0  0  0
    7.9424  -13.0369   17.8824 C   0  0  0  0  0  0  0  0  0  0  0  0
    8.1653  -14.1046   18.9245 C   0  0  2  0  0  0  0  0  0  0  0  0
    9.2198  -13.6489   19.9105 C   0  0  0  0  0  0  0  0  0  0  0  0
    8.6514  -15.4059   18.3324 C   0  0  2  0  0  0  0  0  0  0  0  0
    7.6759  -15.9174   17.3918 N   0  0  0  0  0  0  0  0  0  0  0  0
    8.7576  -16.3792   19.4487 C   0  0  0  0  0  0  0  0  0  0  0  0
    7.7551  -16.7921   20.0893 O   0  0  0  0  0  0  0  0  0  0  0  0
   10.0033  -16.8827   19.8371 N   0  0  0  0  0  0  0  0  0  0  0  0
   10.2684  -17.7447   20.9683 C   0  0  1  0  0  0  0  0  0  0  0  0
   11.4415  -18.6332   20.8243 C   0  0  0  0  0  0  0  0  0  0  0  0
   11.6758  -19.5487   21.9687 C   0  0  0  0  0  0  0  0  0  0  0  0
   12.7069  -19.6751   22.8506 C   0  0  0  0  0  0  0  0  0  0  0  0
   12.4425  -20.6861   23.7135 N   0  0  0  0  0  0  0  0  0  0  0  0
   11.2486  -21.1730   23.3527 C   0  0  0  0  0  0  0  0  0  0  0  0
   10.7641  -20.5075   22.3055 N   0  0  0  0  0  0  0  0  0  0  0  0
   10.4172  -16.9404   22.2224 C   0  0  0  0  0  0  0  0  0  0  0  0
   11.2493  -16.0191   22.3709 O   0  0  0  0  0  0  0  0  0  0  0  0
    9.5558  -17.2528   23.2957 N   0  0  0  0  0  0  0  0  0  0  0  0
    9.6580  -16.4554   24.5455 C   0  0  1  0  0  0  0  0  0  0  0  0
    8.3236  -15.8217   24.7721 C   0  0  0  0  0  0  0  0  0  0  0  0
    8.1227  -15.0906   26.0157 C   0  0  0  0  0  0  0  0  0  0  0  0
    8.4030  -15.5437   27.3128 C   0  0  0  0  0  0  0  0  0  0  0  0
    8.0497  -14.6036   28.1944 N   0  0  0  0  0  0  0  0  0  0  0  0
    7.5515  -13.5582   27.5115 C   0  0  0  0  0  0  0  0  0  0  0  0
    7.0560  -12.3152   27.9419 C   0  0  0  0  0  0  0  0  0  0  0  0
    6.6101  -11.3785   27.0359 C   0  0  0  0  0  0  0  0  0  0  0  0
    6.6536  -11.6719   25.6871 C   0  0  0  0  0  0  0  0  0  0  0  0
    7.1341  -12.8821   25.2509 C   0  0  0  0  0  0  0  0  0  0  0  0
    7.5881  -13.8385   26.1680 C   0  0  0  0  0  0  0  0  0  0  0  0
   10.1131  -17.3324   25.6247 C   0  0  0  0  0  0  0  0  0  0  0  0
   10.9642  -16.8698   26.6536 O   0  0  0  0  0  0  0  0  0  0  0  0
    9.7908  -18.5456   25.7236 O   0  0  0  0  0  0  0  0  0  0  0  0
  1  2  1  0
  2  3  1  0
  3  4  1  1
  5  6  1  6
  5  3  1  0
  7  5  1  0
  8  7  2  0
  9  7  1  0
 10  9  1  0
 11 12  1  0
 10 11  1  6
 12 16  1  0
 13 12  2  0
 13 14  1  0
 14 15  1  0
 16 15  2  0
 17 19  1  0
 17 10  1  0
 18 17  2  0
 20 21  1  1
 20 31  1  0
 20 19  1  0
 22 21  1  0
 22 30  1  0
 23 22  2  0
 24 23  1  0
 24 25  1  0
 25 26  1  0
 25 30  2  0
 26 27  2  0
 27 28  1  0
 29 28  2  0
 30 29  1  0
 31 32  1  0
 33 31  2  0
M  END
$$$$
