IHW.pdb
     RDKit          3D

 33 35  0  0  1  0  0  0  0  0999 V2000
    7.8729  -12.0080   19.6980 C   0  0  0  0  0  0  0  0  0  0  0  0
    7.9579  -13.3837   19.1149 C   0  0  0  0  0  0  0  0  0  0  0  0
    9.3739  -13.8988   19.0406 C   0  0  2  0  0  0  0  0  0  0  0  0
   10.2198  -12.9598   18.2074 C   0  0  0  0  0  0  0  0  0  0  0  0
    9.4664  -15.2613   18.3962 C   0  0  2  0  0  0  0  0  0  0  0  0
    8.3926  -15.4307   17.4389 N   0  0  0  0  0  0  0  0  0  0  0  0
    9.2758  -16.2659   19.4728 C   0  0  0  0  0  0  0  0  0  0  0  0
    8.1383  -16.6615   19.8408 O   0  0  0  0  0  0  0  0  0  0  0  0
   10.3780  -16.8204   20.1314 N   0  0  0  0  0  0  0  0  0  0  0  0
   10.3422  -17.6884   21.2881 C   0  0  1  0  0  0  0  0  0  0  0  0
   11.3664  -18.7547   21.3098 C   0  0  0  0  0  0  0  0  0  0  0  0
   11.2378  -19.7662   20.2315 C   0  0  0  0  0  0  0  0  0  0  0  0
   10.2190  -20.5914   19.8598 C   0  0  0  0  0  0  0  0  0  0  0  0
   10.6108  -21.3467   18.8050 N   0  0  0  0  0  0  0  0  0  0  0  0
   11.8699  -20.9779   18.5378 C   0  0  0  0  0  0  0  0  0  0  0  0
   12.2728  -20.0285   19.3807 N   0  0  0  0  0  0  0  0  0  0  0  0
   10.4424  -16.8906   22.5511 C   0  0  0  0  0  0  0  0  0  0  0  0
   11.3475  -16.0609   22.7873 O   0  0  0  0  0  0  0  0  0  0  0  0
    9.4442  -17.0981   23.5267 N   0  0  0  0  0  0  0  0  0  0  0  0
    9.4308  -16.2237   24.7283 C   0  0  1  0  0  0  0  0  0  0  0  0
    8.1059  -15.5326   24.7532 C   0  0  0  0  0  0  0  0  0  0  0  0
    7.8586  -14.5793   25.8264 C   0  0  0  0  0  0  0  0  0  0  0  0
    6.7095  -13.7965   26.0082 C   0  0  0  0  0  0  0  0  0  0  0  0
    6.8709  -13.0191   27.0831 N   0  0  0  0  0  0  0  0  0  0  0  0
    8.0845  -13.2734   27.6027 C   0  0  0  0  0  0  0  0  0  0  0  0
    8.7428  -12.7526   28.7301 C   0  0  0  0  0  0  0  0  0  0  0  0
   10.0003  -13.1913   29.0814 C   0  0  0  0  0  0  0  0  0  0  0  0
   10.6166  -14.1569   28.3099 C   0  0  0  0  0  0  0  0  0  0  0  0
    9.9869  -14.6749   27.2051 C   0  0  0  0  0  0  0  0  0  0  0  0
    8.7084  -14.2317   26.8430 C   0  0  0  0  0  0  0  0  0  0  0  0
    9.7192  -17.0421   25.9064 C   0  0  0  0  0  0  0  0  0  0  0  0
   10.6796  -16.6541   26.8677 O   0  0  0  0  0  0  0  0  0  0  0  0
    9.1478  -18.1361   26.1555 O   0  0  0  0  0  0  0  0  0  0  0  0
  1  2  1  0
  2  3  1  0
  3  4  1  6
  5  6  1  6
  5  3  1  0
  7  5  1  0
  8  7  2  0
  9  7  1  0
 10  9  1  0
 11 12  1  0
 10 11  1  6
 12 16  1  0
 13 12  2  0
 13 14  1  0
 14 15  1  0
 16 15  2  0
 17 19  1  0
 17 10  1  0
 18 17  2  0
 20 21  1  1
 20 31  1  0
 20 19  1  0
 22 21  1  0
 22 30  1  0
 23 22  2  0
 24 23  1  0
 24 25  1  0
 25 26  1  0
 25 30  2  0
 26 27  2  0
 27 28  1  0
 29 28  2  0
 30 29  1  0
 31 32  1  0
 33 31  2  0
M  END
$$$$
