IHW.pdb
     RDKit          3D

 33 35  0  0  1  0  0  0  0  0999 V2000
   15.7504  -13.7942   18.6417 C   0  0  0  0  0  0  0  0  0  0  0  0
   14.7807  -14.8823   18.3017 C   0  0  0  0  0  0  0  0  0  0  0  0
   13.4797  -14.7601   19.0554 C   0  0  2  0  0  0  0  0  0  0  0  0
   13.7481  -14.7399   20.5451 C   0  0  0  0  0  0  0  0  0  0  0  0
   12.5428  -15.9152   18.7941 C   0  0  2  0  0  0  0  0  0  0  0  0
   12.0511  -15.8564   17.4329 N   0  0  0  0  0  0  0  0  0  0  0  0
   11.3807  -15.7472   19.7029 C   0  0  0  0  0  0  0  0  0  0  0  0
   10.5868  -14.7733   19.6195 O   0  0  0  0  0  0  0  0  0  0  0  0
   11.1213  -16.6859   20.7067 N   0  0  0  0  0  0  0  0  0  0  0  0
   10.0336  -16.6485   21.6598 C   0  0  1  0  0  0  0  0  0  0  0  0
    8.9888  -17.6769   21.4668 C   0  0  0  0  0  0  0  0  0  0  0  0
    8.2892  -17.6187   20.1593 C   0  0  0  0  0  0  0  0  0  0  0  0
    7.3804  -16.7465   19.6393 C   0  0  0  0  0  0  0  0  0  0  0  0
    7.0328  -17.1459   18.3918 N   0  0  0  0  0  0  0  0  0  0  0  0
    7.7327  -18.2629   18.1564 C   0  0  0  0  0  0  0  0  0  0  0  0
    8.4970  -18.5706   19.2029 N   0  0  0  0  0  0  0  0  0  0  0  0
   10.5546  -16.7399   23.0605 C   0  0  0  0  0  0  0  0  0  0  0  0
   11.5702  -17.3904   23.3906 O   0  0  0  0  0  0  0  0  0  0  0  0
    9.8449  -16.0412   24.0602 N   0  0  0  0  0  0  0  0  0  0  0  0
   10.4099  -15.9954   25.4339 C   0  0  1  0  0  0  0  0  0  0  0  0
    9.9062  -14.7423   26.0739 C   0  0  0  0  0  0  0  0  0  0  0  0
    8.4643  -14.5454   26.1367 C   0  0  0  0  0  0  0  0  0  0  0  0
    7.4759  -15.5377   26.0675 C   0  0  0  0  0  0  0  0  0  0  0  0
    6.2702  -14.9639   26.1227 N   0  0  0  0  0  0  0  0  0  0  0  0
    6.4457  -13.6350   26.2261 C   0  0  0  0  0  0  0  0  0  0  0  0
    5.5239  -12.5793   26.3336 C   0  0  0  0  0  0  0  0  0  0  0  0
    5.9514  -11.2751   26.4505 C   0  0  0  0  0  0  0  0  0  0  0  0
    7.3064  -11.0089   26.4614 C   0  0  0  0  0  0  0  0  0  0  0  0
    8.2194  -12.0292   26.3564 C   0  0  0  0  0  0  0  0  0  0  0  0
    7.7901  -13.3572   26.2366 C   0  0  0  0  0  0  0  0  0  0  0  0
   10.0478  -17.2298   26.1308 C   0  0  0  0  0  0  0  0  0  0  0  0
    9.1912  -18.1916   25.5492 O   0  0  0  0  0  0  0  0  0  0  0  0
   10.4606  -17.5306   27.2818 O   0  0  0  0  0  0  0  0  0  0  0  0
  1  2  1  0
  2  3  1  0
  3  4  1  1
  5  6  1  6
  5  3  1  0
  7  5  1  0
  8  7  2  0
  9  7  1  0
 10  9  1  0
 11 12  1  0
 10 11  1  6
 12 16  1  0
 13 12  2  0
 13 14  1  0
 14 15  1  0
 16 15  2  0
 17 19  1  0
 17 10  1  0
 18 17  2  0
 20 21  1  1
 20 31  1  0
 20 19  1  0
 22 21  1  0
 22 30  1  0
 23 22  2  0
 24 23  1  0
 24 25  1  0
 25 26  1  0
 25 30  2  0
 26 27  2  0
 27 28  1  0
 29 28  2  0
 30 29  1  0
 31 32  1  0
 33 31  2  0
M  END
$$$$
