IHW.pdb
     RDKit          3D

 33 35  0  0  1  0  0  0  0  0999 V2000
    7.8299  -11.5521   20.0136 C   0  0  0  0  0  0  0  0  0  0  0  0
    7.9306  -12.9087   19.3894 C   0  0  0  0  0  0  0  0  0  0  0  0
    8.1999  -13.9964   20.3994 C   0  0  2  0  0  0  0  0  0  0  0  0
    9.5064  -13.7232   21.1136 C   0  0  0  0  0  0  0  0  0  0  0  0
    8.3227  -15.3624   19.7675 C   0  0  2  0  0  0  0  0  0  0  0  0
    7.0816  -15.7180   19.1106 N   0  0  0  0  0  0  0  0  0  0  0  0
    8.5461  -16.3329   20.8688 C   0  0  0  0  0  0  0  0  0  0  0  0
    7.6247  -16.7127   21.6386 O   0  0  0  0  0  0  0  0  0  0  0  0
    9.8169  -16.8713   21.0954 N   0  0  0  0  0  0  0  0  0  0  0  0
   10.1949  -17.7624   22.1705 C   0  0  1  0  0  0  0  0  0  0  0  0
   11.1972  -18.7901   21.8164 C   0  0  0  0  0  0  0  0  0  0  0  0
   10.7758  -19.7322   20.7500 C   0  0  0  0  0  0  0  0  0  0  0  0
   10.9961  -19.7593   19.4054 C   0  0  0  0  0  0  0  0  0  0  0  0
   10.3767  -20.8378   18.8673 N   0  0  0  0  0  0  0  0  0  0  0  0
    9.7797  -21.4649   19.8887 C   0  0  0  0  0  0  0  0  0  0  0  0
   10.0031  -20.8216   21.0334 N   0  0  0  0  0  0  0  0  0  0  0  0
   10.6892  -16.9860   23.3515 C   0  0  0  0  0  0  0  0  0  0  0  0
   11.5732  -16.1038   23.2916 O   0  0  0  0  0  0  0  0  0  0  0  0
   10.1102  -17.2788   24.6047 N   0  0  0  0  0  0  0  0  0  0  0  0
   10.4765  -16.4356   25.7723 C   0  0  1  0  0  0  0  0  0  0  0  0
    9.9389  -15.0660   25.5101 C   0  0  0  0  0  0  0  0  0  0  0  0
    8.4946  -14.8838   25.5588 C   0  0  0  0  0  0  0  0  0  0  0  0
    7.5158  -15.8759   25.4044 C   0  0  0  0  0  0  0  0  0  0  0  0
    6.3046  -15.3156   25.4753 N   0  0  0  0  0  0  0  0  0  0  0  0
    6.4673  -13.9954   25.6711 C   0  0  0  0  0  0  0  0  0  0  0  0
    5.5351  -12.9558   25.8320 C   0  0  0  0  0  0  0  0  0  0  0  0
    5.9496  -11.6595   26.0444 C   0  0  0  0  0  0  0  0  0  0  0  0
    7.3020  -11.3853   26.0987 C   0  0  0  0  0  0  0  0  0  0  0  0
    8.2251  -12.3898   25.9426 C   0  0  0  0  0  0  0  0  0  0  0  0
    7.8090  -13.7096   25.7257 C   0  0  0  0  0  0  0  0  0  0  0  0
    9.9691  -17.0726   26.9878 C   0  0  0  0  0  0  0  0  0  0  0  0
    9.2343  -18.2789   26.9472 O   0  0  0  0  0  0  0  0  0  0  0  0
   10.1417  -16.6084   28.1455 O   0  0  0  0  0  0  0  0  0  0  0  0
  1  2  1  0
  2  3  1  0
  3  4  1  6
  5  6  1  1
  5  3  1  0
  7  5  1  0
  8  7  2  0
  9  7  1  0
 10  9  1  0
 11 12  1  0
 10 11  1  6
 12 16  1  0
 13 12  2  0
 13 14  1  0
 14 15  1  0
 16 15  2  0
 17 19  1  0
 17 10  1  0
 18 17  2  0
 20 21  1  6
 20 31  1  0
 20 19  1  0
 22 21  1  0
 22 30  1  0
 23 22  2  0
 24 23  1  0
 24 25  1  0
 25 26  1  0
 25 30  2  0
 26 27  2  0
 27 28  1  0
 29 28  2  0
 30 29  1  0
 31 32  1  0
 33 31  2  0
M  END
$$$$
