IHW.pdb
     RDKit          3D

 33 35  0  0  1  0  0  0  0  0999 V2000
    7.2505  -11.7321   19.7947 C   0  0  0  0  0  0  0  0  0  0  0  0
    7.6693  -13.0692   19.2685 C   0  0  0  0  0  0  0  0  0  0  0  0
    7.7840  -14.1123   20.3523 C   0  0  2  0  0  0  0  0  0  0  0  0
    8.8212  -13.6857   21.3691 C   0  0  0  0  0  0  0  0  0  0  0  0
    8.2162  -15.4589   19.8232 C   0  0  2  0  0  0  0  0  0  0  0  0
    7.2130  -15.9811   18.9181 N   0  0  0  0  0  0  0  0  0  0  0  0
    8.2985  -16.3777   20.9866 C   0  0  0  0  0  0  0  0  0  0  0  0
    7.2784  -16.8236   21.5751 O   0  0  0  0  0  0  0  0  0  0  0  0
    9.5403  -16.7892   21.4815 N   0  0  0  0  0  0  0  0  0  0  0  0
    9.7694  -17.7128   22.5711 C   0  0  1  0  0  0  0  0  0  0  0  0
   10.8295  -18.7164   22.3362 C   0  0  0  0  0  0  0  0  0  0  0  0
   11.0288  -19.6849   23.4429 C   0  0  0  0  0  0  0  0  0  0  0  0
   12.0136  -19.8297   24.3737 C   0  0  0  0  0  0  0  0  0  0  0  0
   11.7336  -20.8923   25.1667 N   0  0  0  0  0  0  0  0  0  0  0  0
   10.5766  -21.3922   24.7146 C   0  0  0  0  0  0  0  0  0  0  0  0
   10.1299  -20.6853   23.6778 N   0  0  0  0  0  0  0  0  0  0  0  0
   10.0708  -16.9726   23.8371 C   0  0  0  0  0  0  0  0  0  0  0  0
   10.8480  -15.9959   23.9112 O   0  0  0  0  0  0  0  0  0  0  0  0
    9.4286  -17.4161   25.0128 N   0  0  0  0  0  0  0  0  0  0  0  0
    9.8496  -16.8373   26.3153 C   0  0  1  0  0  0  0  0  0  0  0  0
    8.6054  -16.5681   27.0983 C   0  0  0  0  0  0  0  0  0  0  0  0
    7.6378  -15.6367   26.5344 C   0  0  0  0  0  0  0  0  0  0  0  0
    6.4777  -15.9609   25.8165 C   0  0  0  0  0  0  0  0  0  0  0  0
    5.8678  -14.8355   25.4323 N   0  0  0  0  0  0  0  0  0  0  0  0
    6.5936  -13.7953   25.8781 C   0  0  0  0  0  0  0  0  0  0  0  0
    6.3973  -12.4078   25.7692 C   0  0  0  0  0  0  0  0  0  0  0  0
    7.2847  -11.5203   26.3367 C   0  0  0  0  0  0  0  0  0  0  0  0
    8.3806  -12.0084   27.0209 C   0  0  0  0  0  0  0  0  0  0  0  0
    8.5866  -13.3612   27.1354 C   0  0  0  0  0  0  0  0  0  0  0  0
    7.6877  -14.2680   26.5596 C   0  0  0  0  0  0  0  0  0  0  0  0
   10.7909  -17.7573   26.9543 C   0  0  0  0  0  0  0  0  0  0  0  0
   11.1443  -18.9921   26.3650 O   0  0  0  0  0  0  0  0  0  0  0  0
   11.3516  -17.5295   28.0585 O   0  0  0  0  0  0  0  0  0  0  0  0
  1  2  1  0
  2  3  1  0
  3  4  1  1
  5  6  1  6
  5  3  1  0
  7  5  1  0
  8  7  2  0
  9  7  1  0
 10  9  1  0
 11 12  1  0
 10 11  1  6
 12 16  1  0
 13 12  2  0
 13 14  1  0
 14 15  1  0
 16 15  2  0
 17 19  1  0
 17 10  1  0
 18 17  2  0
 20 21  1  1
 20 31  1  0
 20 19  1  0
 22 21  1  0
 22 30  1  0
 23 22  2  0
 24 23  1  0
 24 25  1  0
 25 26  1  0
 25 30  2  0
 26 27  2  0
 27 28  1  0
 29 28  2  0
 30 29  1  0
 31 32  1  0
 33 31  2  0
M  END
$$$$
