IHW.pdb
     RDKit          3D

 33 35  0  0  1  0  0  0  0  0999 V2000
    7.6292  -11.8931   19.3737 C   0  0  0  0  0  0  0  0  0  0  0  0
    8.4433  -13.1143   19.0803 C   0  0  0  0  0  0  0  0  0  0  0  0
    8.5323  -14.0523   20.2584 C   0  0  2  0  0  0  0  0  0  0  0  0
    9.1451  -13.3347   21.4421 C   0  0  0  0  0  0  0  0  0  0  0  0
    9.3977  -15.2582   19.9804 C   0  0  2  0  0  0  0  0  0  0  0  0
    8.8988  -15.9697   18.8216 N   0  0  0  0  0  0  0  0  0  0  0  0
    9.2760  -16.1609   21.1530 C   0  0  0  0  0  0  0  0  0  0  0  0
    8.2339  -16.8251   21.3952 O   0  0  0  0  0  0  0  0  0  0  0  0
   10.3385  -16.3082   22.0505 N   0  0  0  0  0  0  0  0  0  0  0  0
   10.4052  -17.2330   23.1610 C   0  0  1  0  0  0  0  0  0  0  0  0
   11.3781  -18.3358   23.0072 C   0  0  0  0  0  0  0  0  0  0  0  0
   11.2103  -19.1497   21.7777 C   0  0  0  0  0  0  0  0  0  0  0  0
   11.7225  -19.0345   20.5201 C   0  0  0  0  0  0  0  0  0  0  0  0
   11.2460  -20.0381   19.7441 N   0  0  0  0  0  0  0  0  0  0  0  0
   10.4431  -20.7623   20.5338 C   0  0  0  0  0  0  0  0  0  0  0  0
   10.4028  -20.2505   21.7628 N   0  0  0  0  0  0  0  0  0  0  0  0
   10.6907  -16.5057   24.4382 C   0  0  0  0  0  0  0  0  0  0  0  0
   11.5166  -15.5731   24.5455 O   0  0  0  0  0  0  0  0  0  0  0  0
    9.9734  -16.9086   25.5848 N   0  0  0  0  0  0  0  0  0  0  0  0
   10.2330  -16.2080   26.8693 C   0  0  1  0  0  0  0  0  0  0  0  0
    8.9114  -16.0196   27.5412 C   0  0  0  0  0  0  0  0  0  0  0  0
    7.8166  -15.4820   26.7450 C   0  0  0  0  0  0  0  0  0  0  0  0
    6.7765  -16.2071   26.1462 C   0  0  0  0  0  0  0  0  0  0  0  0
    5.9870  -15.3684   25.4687 N   0  0  0  0  0  0  0  0  0  0  0  0
    6.4808  -14.1259   25.6099 C   0  0  0  0  0  0  0  0  0  0  0  0
    6.0335  -12.8851   25.1241 C   0  0  0  0  0  0  0  0  0  0  0  0
    6.7082  -11.7223   25.4240 C   0  0  0  0  0  0  0  0  0  0  0  0
    7.8394  -11.7846   26.2138 C   0  0  0  0  0  0  0  0  0  0  0  0
    8.2894  -12.9892   26.6954 C   0  0  0  0  0  0  0  0  0  0  0  0
    7.6075  -14.1747   26.3928 C   0  0  0  0  0  0  0  0  0  0  0  0
   11.2079  -16.9831   27.6371 C   0  0  0  0  0  0  0  0  0  0  0  0
   11.6427  -18.2605   27.2176 O   0  0  0  0  0  0  0  0  0  0  0  0
   11.7285  -16.5845   28.7121 O   0  0  0  0  0  0  0  0  0  0  0  0
  1  2  1  0
  2  3  1  0
  3  4  1  1
  5  6  1  6
  5  3  1  0
  7  5  1  0
  8  7  2  0
  9  7  1  0
 10  9  1  0
 11 12  1  0
 10 11  1  6
 12 16  1  0
 13 12  2  0
 13 14  1  0
 14 15  1  0
 16 15  2  0
 17 19  1  0
 17 10  1  0
 18 17  2  0
 20 21  1  1
 20 31  1  0
 20 19  1  0
 22 21  1  0
 22 30  1  0
 23 22  2  0
 24 23  1  0
 24 25  1  0
 25 26  1  0
 25 30  2  0
 26 27  2  0
 27 28  1  0
 29 28  2  0
 30 29  1  0
 31 32  1  0
 33 31  2  0
M  END
$$$$
