IHW.pdb
     RDKit          3D

 33 35  0  0  1  0  0  0  0  0999 V2000
    7.3730  -11.4552   20.4133 C   0  0  0  0  0  0  0  0  0  0  0  0
    7.4923  -12.8241   19.8201 C   0  0  0  0  0  0  0  0  0  0  0  0
    7.7713  -13.8856   20.8551 C   0  0  2  0  0  0  0  0  0  0  0  0
    9.1008  -13.6130   21.5260 C   0  0  0  0  0  0  0  0  0  0  0  0
    7.8553  -15.2717   20.2619 C   0  0  2  0  0  0  0  0  0  0  0  0
    6.5855  -15.6337   19.6664 N   0  0  0  0  0  0  0  0  0  0  0  0
    8.1134  -16.2101   21.3833 C   0  0  0  0  0  0  0  0  0  0  0  0
    7.2461  -16.4850   22.2539 O   0  0  0  0  0  0  0  0  0  0  0  0
    9.3573  -16.8356   21.5152 N   0  0  0  0  0  0  0  0  0  0  0  0
    9.7690  -17.7150   22.5876 C   0  0  1  0  0  0  0  0  0  0  0  0
   10.7878  -18.7225   22.2226 C   0  0  0  0  0  0  0  0  0  0  0  0
   11.1624  -19.6557   23.3141 C   0  0  0  0  0  0  0  0  0  0  0  0
   12.3185  -19.8404   24.0115 C   0  0  0  0  0  0  0  0  0  0  0  0
   12.1501  -20.8416   24.9091 N   0  0  0  0  0  0  0  0  0  0  0  0
   10.8891  -21.2642   24.7544 C   0  0  0  0  0  0  0  0  0  0  0  0
   10.2714  -20.5684   23.8013 N   0  0  0  0  0  0  0  0  0  0  0  0
   10.2632  -16.9246   23.7593 C   0  0  0  0  0  0  0  0  0  0  0  0
   11.1995  -16.0978   23.7037 O   0  0  0  0  0  0  0  0  0  0  0  0
    9.6207  -17.1360   24.9978 N   0  0  0  0  0  0  0  0  0  0  0  0
   10.3306  -16.7454   26.2436 C   0  0  1  0  0  0  0  0  0  0  0  0
    9.8007  -15.4083   26.6497 C   0  0  0  0  0  0  0  0  0  0  0  0
    8.4192  -15.0951   26.3104 C   0  0  0  0  0  0  0  0  0  0  0  0
    7.3972  -16.0088   26.0159 C   0  0  0  0  0  0  0  0  0  0  0  0
    6.2795  -15.3397   25.7181 N   0  0  0  0  0  0  0  0  0  0  0  0
    6.5439  -14.0248   25.8108 C   0  0  0  0  0  0  0  0  0  0  0  0
    5.7294  -12.8952   25.6207 C   0  0  0  0  0  0  0  0  0  0  0  0
    6.2296  -11.6238   25.7958 C   0  0  0  0  0  0  0  0  0  0  0  0
    7.5513  -11.4649   26.1635 C   0  0  0  0  0  0  0  0  0  0  0  0
    8.3600  -12.5584   26.3523 C   0  0  0  0  0  0  0  0  0  0  0  0
    7.8566  -13.8535   26.1747 C   0  0  0  0  0  0  0  0  0  0  0  0
   10.1516  -17.8049   27.2367 C   0  0  0  0  0  0  0  0  0  0  0  0
   10.9016  -17.8402   28.4338 O   0  0  0  0  0  0  0  0  0  0  0  0
    9.3321  -18.7524   27.1091 O   0  0  0  0  0  0  0  0  0  0  0  0
  1  2  1  0
  2  3  1  0
  3  4  1  6
  5  6  1  1
  5  3  1  0
  7  5  1  0
  8  7  2  0
  9  7  1  0
 10  9  1  0
 11 12  1  0
 10 11  1  6
 12 16  1  0
 13 12  2  0
 13 14  1  0
 14 15  1  0
 16 15  2  0
 17 19  1  0
 17 10  1  0
 18 17  2  0
 20 21  1  1
 20 31  1  0
 20 19  1  0
 22 21  1  0
 22 30  1  0
 23 22  2  0
 24 23  1  0
 24 25  1  0
 25 26  1  0
 25 30  2  0
 26 27  2  0
 27 28  1  0
 29 28  2  0
 30 29  1  0
 31 32  1  0
 33 31  2  0
M  END
$$$$
