IHW.pdb
     RDKit          3D

 33 35  0  0  1  0  0  0  0  0999 V2000
    7.5846  -11.5606   19.2034 C   0  0  0  0  0  0  0  0  0  0  0  0
    7.7644  -12.9749   18.7479 C   0  0  0  0  0  0  0  0  0  0  0  0
    7.9753  -13.9337   19.8933 C   0  0  2  0  0  0  0  0  0  0  0  0
    9.2342  -13.5641   20.6483 C   0  0  0  0  0  0  0  0  0  0  0  0
    8.1421  -15.3629   19.4351 C   0  0  2  0  0  0  0  0  0  0  0  0
    6.9623  -15.7928   18.7130 N   0  0  0  0  0  0  0  0  0  0  0  0
    8.2562  -16.2007   20.6556 C   0  0  0  0  0  0  0  0  0  0  0  0
    7.3641  -16.2346   21.5437 O   0  0  0  0  0  0  0  0  0  0  0  0
    9.3846  -16.9996   20.8669 N   0  0  0  0  0  0  0  0  0  0  0  0
    9.6114  -17.8906   21.9837 C   0  0  1  0  0  0  0  0  0  0  0  0
   10.4924  -19.0445   21.7027 C   0  0  0  0  0  0  0  0  0  0  0  0
   10.6612  -19.9911   22.8331 C   0  0  0  0  0  0  0  0  0  0  0  0
   10.2424  -19.9613   24.1296 C   0  0  0  0  0  0  0  0  0  0  0  0
   10.6717  -21.0762   24.7693 N   0  0  0  0  0  0  0  0  0  0  0  0
   11.3524  -21.7824   23.8578 C   0  0  0  0  0  0  0  0  0  0  0  0
   11.3622  -21.1532   22.6839 N   0  0  0  0  0  0  0  0  0  0  0  0
   10.1541  -17.1379   23.1588 C   0  0  0  0  0  0  0  0  0  0  0  0
   11.0941  -16.3161   23.0926 O   0  0  0  0  0  0  0  0  0  0  0  0
    9.5558  -17.3810   24.4135 N   0  0  0  0  0  0  0  0  0  0  0  0
   10.1961  -16.8144   25.6290 C   0  0  1  0  0  0  0  0  0  0  0  0
    9.8354  -15.3650   25.6797 C   0  0  0  0  0  0  0  0  0  0  0  0
    8.4408  -15.0215   25.9223 C   0  0  0  0  0  0  0  0  0  0  0  0
    7.3264  -15.8541   25.7464 C   0  0  0  0  0  0  0  0  0  0  0  0
    6.2151  -15.1709   26.0364 N   0  0  0  0  0  0  0  0  0  0  0  0
    6.5733  -13.9255   26.3945 C   0  0  0  0  0  0  0  0  0  0  0  0
    5.8107  -12.8193   26.8073 C   0  0  0  0  0  0  0  0  0  0  0  0
    6.4157  -11.6299   27.1489 C   0  0  0  0  0  0  0  0  0  0  0  0
    7.7915  -11.5306   27.0822 C   0  0  0  0  0  0  0  0  0  0  0  0
    8.5504  -12.6021   26.6800 C   0  0  0  0  0  0  0  0  0  0  0  0
    7.9402  -13.8136   26.3309 C   0  0  0  0  0  0  0  0  0  0  0  0
    9.7691  -17.5950   26.7905 C   0  0  0  0  0  0  0  0  0  0  0  0
   10.3930  -17.4593   28.0512 O   0  0  0  0  0  0  0  0  0  0  0  0
    8.8305  -18.4340   26.7632 O   0  0  0  0  0  0  0  0  0  0  0  0
  1  2  1  0
  2  3  1  0
  3  4  1  6
  5  6  1  1
  5  3  1  0
  7  5  1  0
  8  7  2  0
  9  7  1  0
 10  9  1  0
 11 12  1  0
 10 11  1  6
 12 16  1  0
 13 12  2  0
 13 14  1  0
 14 15  1  0
 16 15  2  0
 17 19  1  0
 17 10  1  0
 18 17  2  0
 20 21  1  1
 20 31  1  0
 20 19  1  0
 22 21  1  0
 22 30  1  0
 23 22  2  0
 24 23  1  0
 24 25  1  0
 25 26  1  0
 25 30  2  0
 26 27  2  0
 27 28  1  0
 29 28  2  0
 30 29  1  0
 31 32  1  0
 33 31  2  0
M  END
$$$$
