IHW.pdb
     RDKit          3D

 33 35  0  0  1  0  0  0  0  0999 V2000
    8.4781  -12.1399   18.9947 C   0  0  0  0  0  0  0  0  0  0  0  0
    7.5884  -13.3419   18.9347 C   0  0  0  0  0  0  0  0  0  0  0  0
    7.7946  -14.2785   20.0992 C   0  0  2  0  0  0  0  0  0  0  0  0
    7.1913  -13.6813   21.3526 C   0  0  0  0  0  0  0  0  0  0  0  0
    9.2540  -14.5324   20.3928 C   0  0  2  0  0  0  0  0  0  0  0  0
    9.9429  -14.9228   19.1799 N   0  0  0  0  0  0  0  0  0  0  0  0
    9.3153  -15.6769   21.3366 C   0  0  0  0  0  0  0  0  0  0  0  0
    8.4658  -15.8525   22.2495 O   0  0  0  0  0  0  0  0  0  0  0  0
   10.3424  -16.6216   21.2431 N   0  0  0  0  0  0  0  0  0  0  0  0
   10.5338  -17.7724   22.0986 C   0  0  1  0  0  0  0  0  0  0  0  0
   11.3775  -18.8469   21.5329 C   0  0  0  0  0  0  0  0  0  0  0  0
   10.8483  -19.4698   20.2943 C   0  0  0  0  0  0  0  0  0  0  0  0
    9.6208  -19.9595   19.9618 C   0  0  0  0  0  0  0  0  0  0  0  0
    9.6537  -20.4406   18.6953 N   0  0  0  0  0  0  0  0  0  0  0  0
   10.9044  -20.2420   18.2603 C   0  0  0  0  0  0  0  0  0  0  0  0
   11.6449  -19.6595   19.2018 N   0  0  0  0  0  0  0  0  0  0  0  0
   11.0949  -17.3587   23.4236 C   0  0  0  0  0  0  0  0  0  0  0  0
   12.1215  -16.6587   23.5635 O   0  0  0  0  0  0  0  0  0  0  0  0
   10.4101  -17.7926   24.5787 N   0  0  0  0  0  0  0  0  0  0  0  0
   10.3461  -16.8829   25.7520 C   0  0  1  0  0  0  0  0  0  0  0  0
    9.7212  -15.6081   25.2851 C   0  0  0  0  0  0  0  0  0  0  0  0
    9.3461  -14.6274   26.2947 C   0  0  0  0  0  0  0  0  0  0  0  0
    9.9947  -14.3849   27.5140 C   0  0  0  0  0  0  0  0  0  0  0  0
    9.3334  -13.4368   28.1845 N   0  0  0  0  0  0  0  0  0  0  0  0
    8.2801  -13.0578   27.4399 C   0  0  0  0  0  0  0  0  0  0  0  0
    7.2806  -12.0948   27.6622 C   0  0  0  0  0  0  0  0  0  0  0  0
    6.2968  -11.8662   26.7257 C   0  0  0  0  0  0  0  0  0  0  0  0
    6.2991  -12.5975   25.5541 C   0  0  0  0  0  0  0  0  0  0  0  0
    7.2683  -13.5423   25.3226 C   0  0  0  0  0  0  0  0  0  0  0  0
    8.2706  -13.7793   26.2720 C   0  0  0  0  0  0  0  0  0  0  0  0
    9.6273  -17.5604   26.8314 C   0  0  0  0  0  0  0  0  0  0  0  0
   10.0606  -17.4917   28.1747 O   0  0  0  0  0  0  0  0  0  0  0  0
    8.5856  -18.2458   26.6561 O   0  0  0  0  0  0  0  0  0  0  0  0
  1  2  1  0
  2  3  1  0
  3  4  1  1
  5  6  1  6
  5  3  1  0
  7  5  1  0
  8  7  2  0
  9  7  1  0
 10  9  1  0
 11 12  1  0
 10 11  1  6
 12 16  1  0
 13 12  2  0
 13 14  1  0
 14 15  1  0
 16 15  2  0
 17 19  1  0
 17 10  1  0
 18 17  2  0
 20 21  1  6
 20 31  1  0
 20 19  1  0
 22 21  1  0
 22 30  1  0
 23 22  2  0
 24 23  1  0
 24 25  1  0
 25 26  1  0
 25 30  2  0
 26 27  2  0
 27 28  1  0
 29 28  2  0
 30 29  1  0
 31 32  1  0
 33 31  2  0
M  END
$$$$
