IHW.pdb
     RDKit          3D

 33 35  0  0  1  0  0  0  0  0999 V2000
    7.4016  -12.0910   19.1855 C   0  0  0  0  0  0  0  0  0  0  0  0
    8.2771  -13.2787   18.9349 C   0  0  0  0  0  0  0  0  0  0  0  0
    8.4534  -14.1417   20.1596 C   0  0  2  0  0  0  0  0  0  0  0  0
    9.0949  -13.3356   21.2689 C   0  0  0  0  0  0  0  0  0  0  0  0
    9.3466  -15.3335   19.9104 C   0  0  2  0  0  0  0  0  0  0  0  0
    8.8646  -16.0841   18.7692 N   0  0  0  0  0  0  0  0  0  0  0  0
    9.2455  -16.2103   21.1044 C   0  0  0  0  0  0  0  0  0  0  0  0
    8.1922  -16.8313   21.4055 O   0  0  0  0  0  0  0  0  0  0  0  0
   10.3416  -16.3810   21.9563 N   0  0  0  0  0  0  0  0  0  0  0  0
   10.4342  -17.3058   23.0648 C   0  0  1  0  0  0  0  0  0  0  0  0
   11.5056  -18.3190   22.9545 C   0  0  0  0  0  0  0  0  0  0  0  0
   11.4252  -19.1844   21.7515 C   0  0  0  0  0  0  0  0  0  0  0  0
   11.8985  -19.0422   20.4816 C   0  0  0  0  0  0  0  0  0  0  0  0
   11.5436  -20.1217   19.7432 N   0  0  0  0  0  0  0  0  0  0  0  0
   10.8535  -20.9191   20.5682 C   0  0  0  0  0  0  0  0  0  0  0  0
   10.7667  -20.3800   21.7830 N   0  0  0  0  0  0  0  0  0  0  0  0
   10.5930  -16.5674   24.3576 C   0  0  0  0  0  0  0  0  0  0  0  0
   11.2999  -15.5459   24.5002 O   0  0  0  0  0  0  0  0  0  0  0  0
    9.8934  -17.0670   25.4766 N   0  0  0  0  0  0  0  0  0  0  0  0
   10.1136  -16.4247   26.7985 C   0  0  1  0  0  0  0  0  0  0  0  0
    8.7747  -16.2879   27.4482 C   0  0  0  0  0  0  0  0  0  0  0  0
    7.7258  -15.6058   26.7024 C   0  0  0  0  0  0  0  0  0  0  0  0
    6.6857  -16.2029   25.9758 C   0  0  0  0  0  0  0  0  0  0  0  0
    5.9468  -15.2503   25.3992 N   0  0  0  0  0  0  0  0  0  0  0  0
    6.4732  -14.0580   25.7291 C   0  0  0  0  0  0  0  0  0  0  0  0
    6.0818  -12.7465   25.4093 C   0  0  0  0  0  0  0  0  0  0  0  0
    6.7809  -11.6616   25.8905 C   0  0  0  0  0  0  0  0  0  0  0  0
    7.8810  -11.8736   26.6980 C   0  0  0  0  0  0  0  0  0  0  0  0
    8.2765  -13.1489   27.0188 C   0  0  0  0  0  0  0  0  0  0  0  0
    7.5695  -14.2556   26.5315 C   0  0  0  0  0  0  0  0  0  0  0  0
   11.0832  -17.2214   27.5508 C   0  0  0  0  0  0  0  0  0  0  0  0
   11.6467  -16.7620   28.7626 O   0  0  0  0  0  0  0  0  0  0  0  0
   11.4870  -18.3576   27.1882 O   0  0  0  0  0  0  0  0  0  0  0  0
  1  2  1  0
  2  3  1  0
  3  4  1  1
  5  6  1  6
  5  3  1  0
  7  5  1  0
  8  7  2  0
  9  7  1  0
 10  9  1  0
 11 12  1  0
 10 11  1  6
 12 16  1  0
 13 12  2  0
 13 14  1  0
 14 15  1  0
 16 15  2  0
 17 19  1  0
 17 10  1  0
 18 17  2  0
 20 21  1  1
 20 31  1  0
 20 19  1  0
 22 21  1  0
 22 30  1  0
 23 22  2  0
 24 23  1  0
 24 25  1  0
 25 26  1  0
 25 30  2  0
 26 27  2  0
 27 28  1  0
 29 28  2  0
 30 29  1  0
 31 32  1  0
 33 31  2  0
M  END
$$$$
