IHW.pdb
     RDKit          3D

 33 35  0  0  1  0  0  0  0  0999 V2000
    7.5194  -11.6655   19.5110 C   0  0  0  0  0  0  0  0  0  0  0  0
    8.2322  -12.8965   19.0459 C   0  0  0  0  0  0  0  0  0  0  0  0
    8.2190  -14.0010   20.0734 C   0  0  2  0  0  0  0  0  0  0  0  0
    8.8653  -13.5192   21.3548 C   0  0  0  0  0  0  0  0  0  0  0  0
    8.9864  -15.2226   19.6274 C   0  0  2  0  0  0  0  0  0  0  0  0
    8.3457  -15.8156   18.4715 N   0  0  0  0  0  0  0  0  0  0  0  0
    8.9199  -16.2074   20.7366 C   0  0  0  0  0  0  0  0  0  0  0  0
    7.8617  -16.8175   21.0426 O   0  0  0  0  0  0  0  0  0  0  0  0
   10.0563  -16.4982   21.4984 N   0  0  0  0  0  0  0  0  0  0  0  0
   10.1476  -17.4602   22.5751 C   0  0  1  0  0  0  0  0  0  0  0  0
   11.1486  -18.5312   22.3822 C   0  0  0  0  0  0  0  0  0  0  0  0
   10.8555  -19.4667   21.2681 C   0  0  0  0  0  0  0  0  0  0  0  0
    9.7998  -19.5792   20.4137 C   0  0  0  0  0  0  0  0  0  0  0  0
   10.0082  -20.6206   19.5719 N   0  0  0  0  0  0  0  0  0  0  0  0
   11.1928  -21.1400   19.9179 C   0  0  0  0  0  0  0  0  0  0  0  0
   11.7251  -20.4655   20.9357 N   0  0  0  0  0  0  0  0  0  0  0  0
   10.4149  -16.7720   23.8776 C   0  0  0  0  0  0  0  0  0  0  0  0
   11.2468  -15.8505   24.0269 O   0  0  0  0  0  0  0  0  0  0  0  0
    9.6723  -17.2004   24.9985 N   0  0  0  0  0  0  0  0  0  0  0  0
    9.9647  -16.5900   26.3215 C   0  0  1  0  0  0  0  0  0  0  0  0
    8.6712  -16.5178   27.0668 C   0  0  0  0  0  0  0  0  0  0  0  0
    7.6200  -15.6707   26.5198 C   0  0  0  0  0  0  0  0  0  0  0  0
    6.4175  -16.0936   25.9355 C   0  0  0  0  0  0  0  0  0  0  0  0
    5.7295  -15.0259   25.5200 N   0  0  0  0  0  0  0  0  0  0  0  0
    6.4460  -13.9276   25.8164 C   0  0  0  0  0  0  0  0  0  0  0  0
    6.1822  -12.5615   25.6168 C   0  0  0  0  0  0  0  0  0  0  0  0
    7.0764  -11.5995   26.0317 C   0  0  0  0  0  0  0  0  0  0  0  0
    8.2467  -11.9906   26.6520 C   0  0  0  0  0  0  0  0  0  0  0  0
    8.5192  -13.3213   26.8536 C   0  0  0  0  0  0  0  0  0  0  0  0
    7.6136  -14.3036   26.4329 C   0  0  0  0  0  0  0  0  0  0  0  0
   11.0097  -17.3750   26.9789 C   0  0  0  0  0  0  0  0  0  0  0  0
   11.6682  -16.9156   28.1418 O   0  0  0  0  0  0  0  0  0  0  0  0
   11.4003  -18.5006   26.5714 O   0  0  0  0  0  0  0  0  0  0  0  0
  1  2  1  0
  2  3  1  0
  3  4  1  1
  5  6  1  6
  5  3  1  0
  7  5  1  0
  8  7  2  0
  9  7  1  0
 10  9  1  0
 11 12  1  0
 10 11  1  6
 12 16  1  0
 13 12  2  0
 13 14  1  0
 14 15  1  0
 16 15  2  0
 17 19  1  0
 17 10  1  0
 18 17  2  0
 20 21  1  1
 20 31  1  0
 20 19  1  0
 22 21  1  0
 22 30  1  0
 23 22  2  0
 24 23  1  0
 24 25  1  0
 25 26  1  0
 25 30  2  0
 26 27  2  0
 27 28  1  0
 29 28  2  0
 30 29  1  0
 31 32  1  0
 33 31  2  0
M  END
$$$$
