IHW.pdb
     RDKit          3D

 33 35  0  0  1  0  0  0  0  0999 V2000
    7.8355  -11.5406   19.3790 C   0  0  0  0  0  0  0  0  0  0  0  0
    7.8949  -12.9960   19.0350 C   0  0  0  0  0  0  0  0  0  0  0  0
    8.0420  -13.8768   20.2509 C   0  0  2  0  0  0  0  0  0  0  0  0
    9.3158  -13.5254   20.9895 C   0  0  0  0  0  0  0  0  0  0  0  0
    8.1273  -15.3436   19.9024 C   0  0  2  0  0  0  0  0  0  0  0  0
    6.9728  -15.7351   19.1201 N   0  0  0  0  0  0  0  0  0  0  0  0
    8.0848  -16.0978   21.1807 C   0  0  0  0  0  0  0  0  0  0  0  0
    7.4591  -15.6865   22.1931 O   0  0  0  0  0  0  0  0  0  0  0  0
    8.7541  -17.3193   21.3083 N   0  0  0  0  0  0  0  0  0  0  0  0
    8.9022  -18.0971   22.5190 C   0  0  1  0  0  0  0  0  0  0  0  0
    9.4213  -19.4685   22.3293 C   0  0  0  0  0  0  0  0  0  0  0  0
    9.4352  -20.3060   23.5544 C   0  0  0  0  0  0  0  0  0  0  0  0
    9.0857  -20.0527   24.8470 C   0  0  0  0  0  0  0  0  0  0  0  0
    9.2986  -21.1602   25.5984 N   0  0  0  0  0  0  0  0  0  0  0  0
    9.7786  -22.0860   24.7586 C   0  0  0  0  0  0  0  0  0  0  0  0
    9.8712  -21.5994   23.5222 N   0  0  0  0  0  0  0  0  0  0  0  0
    9.7703  -17.3795   23.5055 C   0  0  0  0  0  0  0  0  0  0  0  0
   10.8775  -16.8700   23.2260 O   0  0  0  0  0  0  0  0  0  0  0  0
    9.2950  -17.2787   24.8304 N   0  0  0  0  0  0  0  0  0  0  0  0
   10.2178  -16.7764   25.8813 C   0  0  1  0  0  0  0  0  0  0  0  0
    9.8081  -15.3728   26.1906 C   0  0  0  0  0  0  0  0  0  0  0  0
    8.3834  -15.0699   26.2043 C   0  0  0  0  0  0  0  0  0  0  0  0
    7.3276  -15.9840   26.0779 C   0  0  0  0  0  0  0  0  0  0  0  0
    6.1665  -15.3228   26.1007 N   0  0  0  0  0  0  0  0  0  0  0  0
    6.4358  -14.0128   26.2384 C   0  0  0  0  0  0  0  0  0  0  0  0
    5.5912  -12.8934   26.3342 C   0  0  0  0  0  0  0  0  0  0  0  0
    6.1092  -11.6271   26.4942 C   0  0  0  0  0  0  0  0  0  0  0  0
    7.4789  -11.4632   26.5606 C   0  0  0  0  0  0  0  0  0  0  0  0
    8.3172  -12.5469   26.4679 C   0  0  0  0  0  0  0  0  0  0  0  0
    7.7957  -13.8366   26.3044 C   0  0  0  0  0  0  0  0  0  0  0  0
   10.1750  -17.6942   27.0200 C   0  0  0  0  0  0  0  0  0  0  0  0
   11.1238  -17.6313   28.0653 O   0  0  0  0  0  0  0  0  0  0  0  0
    9.3078  -18.5965   27.1594 O   0  0  0  0  0  0  0  0  0  0  0  0
  1  2  1  0
  2  3  1  0
  3  4  1  6
  5  6  1  6
  5  3  1  0
  7  5  1  0
  8  7  2  0
  9  7  1  0
 10  9  1  0
 11 12  1  0
 10 11  1  6
 12 16  1  0
 13 12  2  0
 13 14  1  0
 14 15  1  0
 16 15  2  0
 17 19  1  0
 17 10  1  0
 18 17  2  0
 20 21  1  1
 20 31  1  0
 20 19  1  0
 22 21  1  0
 22 30  1  0
 23 22  2  0
 24 23  1  0
 24 25  1  0
 25 26  1  0
 25 30  2  0
 26 27  2  0
 27 28  1  0
 29 28  2  0
 30 29  1  0
 31 32  1  0
 33 31  2  0
M  END
$$$$
