IHW.pdb
     RDKit          3D

 33 35  0  0  1  0  0  0  0  0999 V2000
   17.1915  -14.3228   19.5950 C   0  0  0  0  0  0  0  0  0  0  0  0
   15.9620  -14.8334   18.9112 C   0  0  0  0  0  0  0  0  0  0  0  0
   14.7176  -14.6652   19.7473 C   0  0  2  0  0  0  0  0  0  0  0  0
   14.8735  -15.4083   21.0569 C   0  0  0  0  0  0  0  0  0  0  0  0
   13.4832  -15.2164   19.0744 C   0  0  2  0  0  0  0  0  0  0  0  0
   13.1630  -14.4270   17.9029 N   0  0  0  0  0  0  0  0  0  0  0  0
   12.3620  -15.0731   20.0371 C   0  0  0  0  0  0  0  0  0  0  0  0
   12.0116  -13.9611   20.5132 O   0  0  0  0  0  0  0  0  0  0  0  0
   11.6393  -16.1937   20.4592 N   0  0  0  0  0  0  0  0  0  0  0  0
   10.4686  -16.1928   21.3091 C   0  0  1  0  0  0  0  0  0  0  0  0
    9.3860  -17.1105   20.8942 C   0  0  0  0  0  0  0  0  0  0  0  0
    8.1665  -17.0597   21.7385 C   0  0  0  0  0  0  0  0  0  0  0  0
    7.5766  -17.9731   22.5599 C   0  0  0  0  0  0  0  0  0  0  0  0
    6.4565  -17.4366   23.1023 N   0  0  0  0  0  0  0  0  0  0  0  0
    6.3681  -16.1955   22.6076 C   0  0  0  0  0  0  0  0  0  0  0  0
    7.3838  -15.9419   21.7842 N   0  0  0  0  0  0  0  0  0  0  0  0
   10.8446  -16.4922   22.7271 C   0  0  0  0  0  0  0  0  0  0  0  0
   11.7640  -17.2715   23.0600 O   0  0  0  0  0  0  0  0  0  0  0  0
   10.1064  -15.8454   23.7411 N   0  0  0  0  0  0  0  0  0  0  0  0
   10.4526  -16.1215   25.1596 C   0  0  1  0  0  0  0  0  0  0  0  0
    9.8842  -15.0055   25.9751 C   0  0  0  0  0  0  0  0  0  0  0  0
    8.4369  -14.8412   25.9838 C   0  0  0  0  0  0  0  0  0  0  0  0
    7.4743  -15.8565   25.8909 C   0  0  0  0  0  0  0  0  0  0  0  0
    6.2547  -15.3100   25.8960 N   0  0  0  0  0  0  0  0  0  0  0  0
    6.3964  -13.9763   25.9899 C   0  0  0  0  0  0  0  0  0  0  0  0
    5.4477  -12.9410   26.0518 C   0  0  0  0  0  0  0  0  0  0  0  0
    5.8411  -11.6261   26.1686 C   0  0  0  0  0  0  0  0  0  0  0  0
    7.1886  -11.3288   26.2250 C   0  0  0  0  0  0  0  0  0  0  0  0
    8.1276  -12.3289   26.1649 C   0  0  0  0  0  0  0  0  0  0  0  0
    7.7329  -13.6676   26.0454 C   0  0  0  0  0  0  0  0  0  0  0  0
    9.9590  -17.4531   25.5117 C   0  0  0  0  0  0  0  0  0  0  0  0
   10.3589  -18.1077   26.6985 O   0  0  0  0  0  0  0  0  0  0  0  0
    9.1545  -18.1117   24.8013 O   0  0  0  0  0  0  0  0  0  0  0  0
  1  2  1  0
  2  3  1  0
  3  4  1  1
  5  6  1  6
  5  3  1  0
  7  5  1  0
  8  7  2  0
  9  7  1  0
 10  9  1  0
 11 12  1  0
 10 11  1  6
 12 16  1  0
 13 12  2  0
 13 14  1  0
 14 15  1  0
 16 15  2  0
 17 19  1  0
 17 10  1  0
 18 17  2  0
 20 21  1  1
 20 31  1  0
 20 19  1  0
 22 21  1  0
 22 30  1  0
 23 22  2  0
 24 23  1  0
 24 25  1  0
 25 26  1  0
 25 30  2  0
 26 27  2  0
 27 28  1  0
 29 28  2  0
 30 29  1  0
 31 32  1  0
 33 31  2  0
M  END
$$$$
