IHW.pdb
     RDKit          3D

 33 35  0  0  1  0  0  0  0  0999 V2000
    7.7914  -11.4362   19.7923 C   0  0  0  0  0  0  0  0  0  0  0  0
    8.0552  -12.7908   19.2130 C   0  0  0  0  0  0  0  0  0  0  0  0
    8.2930  -13.8405   20.2700 C   0  0  2  0  0  0  0  0  0  0  0  0
    9.5633  -13.5257   21.0309 C   0  0  0  0  0  0  0  0  0  0  0  0
    8.4603  -15.2250   19.6907 C   0  0  2  0  0  0  0  0  0  0  0  0
    7.2485  -15.6252   19.0055 N   0  0  0  0  0  0  0  0  0  0  0  0
    8.6624  -16.1528   20.8321 C   0  0  0  0  0  0  0  0  0  0  0  0
    7.7187  -16.5378   21.5716 O   0  0  0  0  0  0  0  0  0  0  0  0
    9.9374  -16.6427   21.1332 N   0  0  0  0  0  0  0  0  0  0  0  0
   10.2784  -17.5548   22.2031 C   0  0  1  0  0  0  0  0  0  0  0  0
   11.3127  -18.5583   21.8722 C   0  0  0  0  0  0  0  0  0  0  0  0
   10.9575  -19.4793   20.7641 C   0  0  0  0  0  0  0  0  0  0  0  0
    9.9923  -20.4323   20.6324 C   0  0  0  0  0  0  0  0  0  0  0  0
   10.0949  -21.0142   19.4128 N   0  0  0  0  0  0  0  0  0  0  0  0
   11.1249  -20.4122   18.8050 C   0  0  0  0  0  0  0  0  0  0  0  0
   11.6626  -19.4844   19.5950 N   0  0  0  0  0  0  0  0  0  0  0  0
   10.7037  -16.8011   23.4249 C   0  0  0  0  0  0  0  0  0  0  0  0
   11.5439  -15.8751   23.4215 O   0  0  0  0  0  0  0  0  0  0  0  0
   10.1089  -17.1696   24.6504 N   0  0  0  0  0  0  0  0  0  0  0  0
   10.5177  -16.4500   25.8847 C   0  0  1  0  0  0  0  0  0  0  0  0
    9.8806  -15.0989   25.8361 C   0  0  0  0  0  0  0  0  0  0  0  0
    8.4292  -15.0297   25.9373 C   0  0  0  0  0  0  0  0  0  0  0  0
    7.5252  -16.0941   25.8097 C   0  0  0  0  0  0  0  0  0  0  0  0
    6.2777  -15.6298   25.9279 N   0  0  0  0  0  0  0  0  0  0  0  0
    6.3445  -14.3021   26.1283 C   0  0  0  0  0  0  0  0  0  0  0  0
    5.3410  -13.3389   26.3303 C   0  0  0  0  0  0  0  0  0  0  0  0
    5.6613  -12.0154   26.5381 C   0  0  0  0  0  0  0  0  0  0  0  0
    6.9895  -11.6373   26.5468 C   0  0  0  0  0  0  0  0  0  0  0  0
    7.9814  -12.5663   26.3501 C   0  0  0  0  0  0  0  0  0  0  0  0
    7.6612  -13.9133   26.1376 C   0  0  0  0  0  0  0  0  0  0  0  0
   10.1486  -17.2620   27.0445 C   0  0  0  0  0  0  0  0  0  0  0  0
    9.4593  -18.4881   26.9082 O   0  0  0  0  0  0  0  0  0  0  0  0
   10.4091  -16.9422   28.2342 O   0  0  0  0  0  0  0  0  0  0  0  0
  1  2  1  0
  2  3  1  0
  3  4  1  6
  5  6  1  1
  5  3  1  0
  7  5  1  0
  8  7  2  0
  9  7  1  0
 10  9  1  0
 11 12  1  0
 10 11  1  6
 12 16  1  0
 13 12  2  0
 13 14  1  0
 14 15  1  0
 16 15  2  0
 17 19  1  0
 17 10  1  0
 18 17  2  0
 20 21  1  1
 20 31  1  0
 20 19  1  0
 22 21  1  0
 22 30  1  0
 23 22  2  0
 24 23  1  0
 24 25  1  0
 25 26  1  0
 25 30  2  0
 26 27  2  0
 27 28  1  0
 29 28  2  0
 30 29  1  0
 31 32  1  0
 33 31  2  0
M  END
$$$$
