IHW.pdb
     RDKit          3D

 33 35  0  0  1  0  0  0  0  0999 V2000
    8.0212  -11.4992   19.5239 C   0  0  0  0  0  0  0  0  0  0  0  0
    8.1220  -12.9031   19.0150 C   0  0  0  0  0  0  0  0  0  0  0  0
    8.2397  -13.9183   20.1246 C   0  0  2  0  0  0  0  0  0  0  0  0
    9.5450  -13.7215   20.8656 C   0  0  0  0  0  0  0  0  0  0  0  0
    8.2331  -15.3407   19.6177 C   0  0  2  0  0  0  0  0  0  0  0  0
    6.9643  -15.6351   18.9839 N   0  0  0  0  0  0  0  0  0  0  0  0
    8.3633  -16.2257   20.8028 C   0  0  0  0  0  0  0  0  0  0  0  0
    7.3912  -16.5070   21.5522 O   0  0  0  0  0  0  0  0  0  0  0  0
    9.5985  -16.7906   21.1363 N   0  0  0  0  0  0  0  0  0  0  0  0
    9.8475  -17.7606   22.1802 C   0  0  1  0  0  0  0  0  0  0  0  0
   10.4774  -19.0216   21.7338 C   0  0  0  0  0  0  0  0  0  0  0  0
    9.6919  -19.7942   20.7395 C   0  0  0  0  0  0  0  0  0  0  0  0
    8.5947  -20.5944   20.8536 C   0  0  0  0  0  0  0  0  0  0  0  0
    8.2641  -21.0851   19.6344 N   0  0  0  0  0  0  0  0  0  0  0  0
    9.1636  -20.5810   18.7803 C   0  0  0  0  0  0  0  0  0  0  0  0
   10.0348  -19.8008   19.4179 N   0  0  0  0  0  0  0  0  0  0  0  0
   10.6782  -17.1608   23.2721 C   0  0  0  0  0  0  0  0  0  0  0  0
   11.4909  -16.2258   23.1027 O   0  0  0  0  0  0  0  0  0  0  0  0
   10.5219  -17.6940   24.5692 N   0  0  0  0  0  0  0  0  0  0  0  0
   10.4531  -16.7568   25.7204 C   0  0  1  0  0  0  0  0  0  0  0  0
    9.3990  -15.7465   25.4011 C   0  0  0  0  0  0  0  0  0  0  0  0
    9.0753  -14.7588   26.4216 C   0  0  0  0  0  0  0  0  0  0  0  0
    9.7266  -14.5732   27.6494 C   0  0  0  0  0  0  0  0  0  0  0  0
    9.1183  -13.5959   28.3282 N   0  0  0  0  0  0  0  0  0  0  0  0
    8.0967  -13.1430   27.5806 C   0  0  0  0  0  0  0  0  0  0  0  0
    7.1558  -12.1241   27.8086 C   0  0  0  0  0  0  0  0  0  0  0  0
    6.1961  -11.8229   26.8676 C   0  0  0  0  0  0  0  0  0  0  0  0
    6.1643  -12.5367   25.6857 C   0  0  0  0  0  0  0  0  0  0  0  0
    7.0762  -13.5356   25.4485 C   0  0  0  0  0  0  0  0  0  0  0  0
    8.0537  -13.8464   26.4024 C   0  0  0  0  0  0  0  0  0  0  0  0
   10.2145  -17.5293   26.9398 C   0  0  0  0  0  0  0  0  0  0  0  0
   10.9151  -17.2667   28.1387 O   0  0  0  0  0  0  0  0  0  0  0  0
    9.3832  -18.4717   27.0199 O   0  0  0  0  0  0  0  0  0  0  0  0
  1  2  1  0
  2  3  1  0
  3  4  1  6
  5  6  1  1
  5  3  1  0
  7  5  1  0
  8  7  2  0
  9  7  1  0
 10  9  1  0
 11 12  1  0
 10 11  1  6
 12 16  1  0
 13 12  2  0
 13 14  1  0
 14 15  1  0
 16 15  2  0
 17 19  1  0
 17 10  1  0
 18 17  2  0
 20 21  1  6
 20 31  1  0
 20 19  1  0
 22 21  1  0
 22 30  1  0
 23 22  2  0
 24 23  1  0
 24 25  1  0
 25 26  1  0
 25 30  2  0
 26 27  2  0
 27 28  1  0
 29 28  2  0
 30 29  1  0
 31 32  1  0
 33 31  2  0
M  END
$$$$
