TPA.pdb
     RDKit          3D

 20 20  0  0  1  0  0  0  0  0999 V2000
    6.0635  -15.9555   22.5777 C   0  0  0  0  0  0  0  0  0  0  0  0
    7.0506  -15.2715   21.6758 C   0  0  1  0  0  0  0  0  0  0  0  0
    6.5414  -15.2701   20.3974 O   0  0  0  0  0  0  0  0  0  0  0  0
    7.3152  -13.8404   22.1621 C   0  0  2  0  0  0  0  0  0  0  0  0
    8.1833  -13.2131   21.1453 N   0  0  0  0  0  0  0  0  0  0  0  0
    8.0499  -13.8981   23.4524 C   0  0  0  0  0  0  0  0  0  0  0  0
    9.2502  -14.2989   23.4021 O   0  0  0  0  0  0  0  0  0  0  0  0
    7.5182  -13.5434   24.7085 N   0  0  0  0  0  0  0  0  0  0  0  0
    6.1526  -13.1664   24.9745 C   0  0  0  0  0  0  0  0  0  0  0  0
    6.4109  -12.0378   25.9971 C   0  0  0  0  0  0  0  0  0  0  0  0
    7.3217  -12.7836   26.9392 C   0  0  0  0  0  0  0  0  0  0  0  0
    8.2572  -13.4761   25.9452 C   0  0  1  0  0  0  0  0  0  0  0  0
    8.5550  -14.8627   26.4383 C   0  0  0  0  0  0  0  0  0  0  0  0
    7.6968  -15.7797   26.4255 O   0  0  0  0  0  0  0  0  0  0  0  0
   11.6571  -16.8267   26.8867 C   0  0  0  0  0  0  0  0  0  0  0  0
   10.2545  -16.5143   27.3195 C   0  0  2  0  0  0  0  0  0  0  0  0
    9.8392  -15.1763   26.9406 N   0  0  0  0  0  0  0  0  0  0  0  0
   10.1452  -16.6118   28.7984 C   0  0  0  0  0  0  0  0  0  0  0  0
    9.8429  -15.5892   29.4654 O   0  0  0  0  0  0  0  0  0  0  0  0
   10.3659  -17.7997   29.4814 O   0  0  0  0  0  0  0  0  0  0  0  0
  2  1  1  1
  2  3  1  0
  4  6  1  0
  4  2  1  0
  4  5  1  6
  6  7  2  0
  8 12  1  0
  8  6  1  0
  9  8  1  0
 10  9  1  0
 10 11  1  0
 11 12  1  0
 12 13  1  1
 13 14  2  0
 13 17  1  0
 16 15  1  1
 16 18  1  0
 17 16  1  0
 18 20  1  0
 19 18  2  0
M  END
$$$$
