TPA.pdb
     RDKit          3D

 20 20  0  0  1  0  0  0  0  0999 V2000
    9.2568  -19.2720   19.3284 C   0  0  0  0  0  0  0  0  0  0  0  0
    7.9624  -18.5359   19.1327 C   0  0  1  0  0  0  0  0  0  0  0  0
    7.1722  -18.7463   20.2396 O   0  0  0  0  0  0  0  0  0  0  0  0
    8.2261  -17.0388   18.9239 C   0  0  2  0  0  0  0  0  0  0  0  0
    9.0435  -16.9307   17.6988 N   0  0  0  0  0  0  0  0  0  0  0  0
    9.0130  -16.5232   20.0742 C   0  0  0  0  0  0  0  0  0  0  0  0
   10.2662  -16.6988   20.0259 O   0  0  0  0  0  0  0  0  0  0  0  0
    8.4759  -15.8617   21.1967 N   0  0  0  0  0  0  0  0  0  0  0  0
    7.0873  -15.5345   21.4031 C   0  0  0  0  0  0  0  0  0  0  0  0
    7.2629  -14.1399   22.0438 C   0  0  0  0  0  0  0  0  0  0  0  0
    8.2549  -14.5031   23.1196 C   0  0  0  0  0  0  0  0  0  0  0  0
    9.2295  -15.3777   22.3273 C   0  0  1  0  0  0  0  0  0  0  0  0
    9.6600  -16.5319   23.1859 C   0  0  0  0  0  0  0  0  0  0  0  0
    8.9426  -17.5491   23.3542 O   0  0  0  0  0  0  0  0  0  0  0  0
   12.9328  -17.5666   24.7431 C   0  0  0  0  0  0  0  0  0  0  0  0
   11.4359  -17.5935   24.6390 C   0  0  2  0  0  0  0  0  0  0  0  0
   10.9130  -16.5000   23.8406 N   0  0  0  0  0  0  0  0  0  0  0  0
   10.8302  -17.4856   25.9918 C   0  0  0  0  0  0  0  0  0  0  0  0
   11.0134  -18.4077   26.8273 O   0  0  0  0  0  0  0  0  0  0  0  0
   10.0614  -16.3955   26.3750 O   0  0  0  0  0  0  0  0  0  0  0  0
  2  1  1  1
  2  3  1  0
  4  6  1  0
  4  2  1  0
  4  5  1  6
  6  7  2  0
  8 12  1  0
  8  6  1  0
  9  8  1  0
 10  9  1  0
 10 11  1  0
 11 12  1  0
 12 13  1  1
 13 14  2  0
 13 17  1  0
 16 15  1  1
 16 18  1  0
 17 16  1  0
 18 20  1  0
 19 18  2  0
M  END
$$$$
