TPA.pdb
     RDKit          3D

 20 20  0  0  1  0  0  0  0  0999 V2000
    7.3777  -17.4314   17.2970 C   0  0  0  0  0  0  0  0  0  0  0  0
    8.3443  -17.1184   16.1910 C   0  0  1  0  0  0  0  0  0  0  0  0
    7.8211  -17.5936   15.0102 O   0  0  0  0  0  0  0  0  0  0  0  0
    8.5926  -15.6063   16.1112 C   0  0  2  0  0  0  0  0  0  0  0  0
    9.4647  -15.3927   14.9387 N   0  0  0  0  0  0  0  0  0  0  0  0
    9.3161  -15.1717   17.3342 C   0  0  0  0  0  0  0  0  0  0  0  0
   10.5251  -15.5348   17.4350 O   0  0  0  0  0  0  0  0  0  0  0  0
    8.7649  -14.3957   18.3735 N   0  0  0  0  0  0  0  0  0  0  0  0
    7.4443  -13.8182   18.3908 C   0  0  0  0  0  0  0  0  0  0  0  0
    7.7847  -12.4622   19.0476 C   0  0  0  0  0  0  0  0  0  0  0  0
    8.5431  -12.9706   20.2476 C   0  0  0  0  0  0  0  0  0  0  0  0
    9.4380  -14.0267   19.5946 C   0  0  1  0  0  0  0  0  0  0  0  0
    9.5339  -15.2171   20.5047 C   0  0  0  0  0  0  0  0  0  0  0  0
    8.6365  -16.0941   20.5615 O   0  0  0  0  0  0  0  0  0  0  0  0
   12.3279  -16.7703   22.4952 C   0  0  0  0  0  0  0  0  0  0  0  0
   10.8767  -16.5382   22.1911 C   0  0  2  0  0  0  0  0  0  0  0  0
   10.6636  -15.3828   21.3390 N   0  0  0  0  0  0  0  0  0  0  0  0
   10.1240  -16.3062   23.4513 C   0  0  0  0  0  0  0  0  0  0  0  0
    9.6146  -15.1770   23.6691 O   0  0  0  0  0  0  0  0  0  0  0  0
    9.9584  -17.2970   24.4091 O   0  0  0  0  0  0  0  0  0  0  0  0
  2  1  1  1
  2  3  1  0
  4  6  1  0
  4  2  1  0
  4  5  1  6
  6  7  2  0
  8 12  1  0
  8  6  1  0
  9  8  1  0
 10  9  1  0
 10 11  1  0
 11 12  1  0
 12 13  1  1
 13 14  2  0
 13 17  1  0
 16 15  1  1
 16 18  1  0
 17 16  1  0
 18 20  1  0
 19 18  2  0
M  END
$$$$
