TPA.pdb
     RDKit          3D

 20 20  0  0  1  0  0  0  0  0999 V2000
    7.7511  -15.5132   15.7878 C   0  0  0  0  0  0  0  0  0  0  0  0
    8.3595  -15.5329   17.1607 C   0  0  1  0  0  0  0  0  0  0  0  0
    9.7081  -15.7762   17.0341 O   0  0  0  0  0  0  0  0  0  0  0  0
    8.1080  -14.1984   17.8752 C   0  0  2  0  0  0  0  0  0  0  0  0
    8.8055  -13.1672   17.0808 N   0  0  0  0  0  0  0  0  0  0  0  0
    8.7162  -14.2551   19.2298 C   0  0  0  0  0  0  0  0  0  0  0  0
    9.9197  -13.8727   19.3256 O   0  0  0  0  0  0  0  0  0  0  0  0
    8.0619  -14.6945   20.3981 N   0  0  0  0  0  0  0  0  0  0  0  0
    6.6805  -15.0943   20.4961 C   0  0  0  0  0  0  0  0  0  0  0  0
    6.3475  -14.4696   21.8690 C   0  0  0  0  0  0  0  0  0  0  0  0
    7.4920  -15.0413   22.6668 C   0  0  0  0  0  0  0  0  0  0  0  0
    8.6593  -14.8002   21.7067 C   0  0  1  0  0  0  0  0  0  0  0  0
    9.5828  -15.9832   21.7524 C   0  0  0  0  0  0  0  0  0  0  0  0
    9.3632  -17.0333   21.0992 O   0  0  0  0  0  0  0  0  0  0  0  0
   13.1110  -16.5905   22.7312 C   0  0  0  0  0  0  0  0  0  0  0  0
   11.6822  -17.0465   22.6767 C   0  0  2  0  0  0  0  0  0  0  0  0
   10.7491  -15.9420   22.5510 N   0  0  0  0  0  0  0  0  0  0  0  0
   11.3355  -17.7822   23.9205 C   0  0  0  0  0  0  0  0  0  0  0  0
   12.0012  -18.7990   24.2442 O   0  0  0  0  0  0  0  0  0  0  0  0
   10.2944  -17.3878   24.7493 O   0  0  0  0  0  0  0  0  0  0  0  0
  2  1  1  6
  2  3  1  0
  4  6  1  0
  4  2  1  0
  4  5  1  6
  6  7  2  0
  8 12  1  0
  8  6  1  0
  9  8  1  0
 10  9  1  0
 10 11  1  0
 11 12  1  0
 12 13  1  6
 13 14  2  0
 13 17  1  0
 16 15  1  1
 16 18  1  0
 17 16  1  0
 18 20  1  0
 19 18  2  0
M  END
$$$$
