TPA.pdb
     RDKit          3D

 20 20  0  0  1  0  0  0  0  0999 V2000
    7.3744  -17.5805   16.8629 C   0  0  0  0  0  0  0  0  0  0  0  0
    8.4633  -17.1568   15.9194 C   0  0  1  0  0  0  0  0  0  0  0  0
    8.1111  -17.5467   14.6475 O   0  0  0  0  0  0  0  0  0  0  0  0
    8.6694  -15.6379   15.9897 C   0  0  2  0  0  0  0  0  0  0  0  0
    9.6405  -15.3037   14.9284 N   0  0  0  0  0  0  0  0  0  0  0  0
    9.2606  -15.2926   17.3086 C   0  0  0  0  0  0  0  0  0  0  0  0
   10.4396  -15.7014   17.5242 O   0  0  0  0  0  0  0  0  0  0  0  0
    8.6164  -14.5533   18.3209 N   0  0  0  0  0  0  0  0  0  0  0  0
    7.2900  -13.9939   18.2478 C   0  0  0  0  0  0  0  0  0  0  0  0
    7.5561  -12.6526   18.9661 C   0  0  0  0  0  0  0  0  0  0  0  0
    8.2240  -13.1845   20.2089 C   0  0  0  0  0  0  0  0  0  0  0  0
    9.1843  -14.2100   19.6015 C   0  0  1  0  0  0  0  0  0  0  0  0
    9.2254  -15.4242   20.4839 C   0  0  0  0  0  0  0  0  0  0  0  0
    8.3987  -16.3634   20.3742 O   0  0  0  0  0  0  0  0  0  0  0  0
   11.5281  -17.5738   21.9181 C   0  0  0  0  0  0  0  0  0  0  0  0
   10.3762  -16.7064   22.3343 C   0  0  2  0  0  0  0  0  0  0  0  0
   10.2194  -15.5416   21.4828 N   0  0  0  0  0  0  0  0  0  0  0  0
   10.5833  -16.2178   23.7225 C   0  0  0  0  0  0  0  0  0  0  0  0
   10.7334  -14.9863   23.9293 O   0  0  0  0  0  0  0  0  0  0  0  0
   10.6182  -17.0758   24.8129 O   0  0  0  0  0  0  0  0  0  0  0  0
  2  1  1  1
  2  3  1  0
  4  6  1  0
  4  2  1  0
  4  5  1  6
  6  7  2  0
  8 12  1  0
  8  6  1  0
  9  8  1  0
 10  9  1  0
 10 11  1  0
 11 12  1  0
 12 13  1  1
 13 14  2  0
 13 17  1  0
 16 15  1  6
 16 18  1  0
 17 16  1  0
 18 20  1  0
 19 18  2  0
M  END
$$$$
