TPA.pdb
     RDKit          3D

 20 20  0  0  1  0  0  0  0  0999 V2000
    7.7359  -17.5916   23.1962 C   0  0  0  0  0  0  0  0  0  0  0  0
    8.6669  -16.9124   22.2331 C   0  0  1  0  0  0  0  0  0  0  0  0
    8.5158  -17.4986   20.9972 O   0  0  0  0  0  0  0  0  0  0  0  0
    8.3638  -15.4096   22.1676 C   0  0  2  0  0  0  0  0  0  0  0  0
    9.2036  -14.8663   21.0811 N   0  0  0  0  0  0  0  0  0  0  0  0
    8.7704  -14.7798   23.4506 C   0  0  0  0  0  0  0  0  0  0  0  0
   10.0094  -14.5721   23.6108 O   0  0  0  0  0  0  0  0  0  0  0  0
    7.8922  -14.4007   24.4857 N   0  0  0  0  0  0  0  0  0  0  0  0
    6.4629  -14.5874   24.4949 C   0  0  0  0  0  0  0  0  0  0  0  0
    6.0514  -13.2510   25.1513 C   0  0  0  0  0  0  0  0  0  0  0  0
    6.9568  -13.2969   26.3561 C   0  0  0  0  0  0  0  0  0  0  0  0
    8.2718  -13.7390   25.7097 C   0  0  1  0  0  0  0  0  0  0  0  0
    8.9632  -14.7105   26.6223 C   0  0  0  0  0  0  0  0  0  0  0  0
    8.8293  -15.9540   26.5062 O   0  0  0  0  0  0  0  0  0  0  0  0
   11.2800  -14.3458   29.6161 C   0  0  0  0  0  0  0  0  0  0  0  0
   10.5928  -15.1001   28.5156 C   0  0  2  0  0  0  0  0  0  0  0  0
    9.8011  -14.2372   27.6583 N   0  0  0  0  0  0  0  0  0  0  0  0
    9.6752  -16.1170   29.0923 C   0  0  0  0  0  0  0  0  0  0  0  0
   10.1532  -17.1543   29.6190 O   0  0  0  0  0  0  0  0  0  0  0  0
    8.2956  -15.9664   29.0730 O   0  0  0  0  0  0  0  0  0  0  0  0
  2  1  1  1
  2  3  1  0
  4  6  1  0
  4  2  1  0
  4  5  1  6
  6  7  2  0
  8 12  1  0
  8  6  1  0
  9  8  1  0
 10  9  1  0
 10 11  1  0
 11 12  1  0
 12 13  1  1
 13 14  2  0
 13 17  1  0
 16 15  1  1
 16 18  1  0
 17 16  1  0
 18 20  1  0
 19 18  2  0
M  END
$$$$
