TPA.pdb
     RDKit          3D

 20 20  0  0  1  0  0  0  0  0999 V2000
    6.0270  -17.7478   19.8146 C   0  0  0  0  0  0  0  0  0  0  0  0
    6.8724  -18.1359   18.6355 C   0  0  1  0  0  0  0  0  0  0  0  0
    6.1010  -18.8849   17.7765 O   0  0  0  0  0  0  0  0  0  0  0  0
    7.4164  -16.8844   17.9338 C   0  0  2  0  0  0  0  0  0  0  0  0
    8.1400  -17.3632   16.7388 N   0  0  0  0  0  0  0  0  0  0  0  0
    8.3793  -16.2049   18.8390 C   0  0  0  0  0  0  0  0  0  0  0  0
    9.5120  -16.7546   18.9749 O   0  0  0  0  0  0  0  0  0  0  0  0
    8.1293  -15.0111   19.5450 N   0  0  0  0  0  0  0  0  0  0  0  0
    6.9744  -14.1622   19.3919 C   0  0  0  0  0  0  0  0  0  0  0  0
    7.6706  -12.7881   19.5065 C   0  0  0  0  0  0  0  0  0  0  0  0
    8.4330  -13.0213   20.7863 C   0  0  0  0  0  0  0  0  0  0  0  0
    9.0000  -14.4199   20.5312 C   0  0  1  0  0  0  0  0  0  0  0  0
    8.9402  -15.2119   21.8055 C   0  0  0  0  0  0  0  0  0  0  0  0
    7.8563  -15.6111   22.2989 O   0  0  0  0  0  0  0  0  0  0  0  0
   10.2622  -17.8340   23.3492 C   0  0  0  0  0  0  0  0  0  0  0  0
   10.1769  -16.3728   23.6805 C   0  0  2  0  0  0  0  0  0  0  0  0
   10.1310  -15.5345   22.4965 N   0  0  0  0  0  0  0  0  0  0  0  0
   11.3656  -15.9605   24.4714 C   0  0  0  0  0  0  0  0  0  0  0  0
   12.2512  -15.2485   23.9323 O   0  0  0  0  0  0  0  0  0  0  0  0
   11.5401  -16.3339   25.7967 O   0  0  0  0  0  0  0  0  0  0  0  0
  2  1  1  1
  2  3  1  0
  4  6  1  0
  4  2  1  0
  4  5  1  6
  6  7  2  0
  8 12  1  0
  8  6  1  0
  9  8  1  0
 10  9  1  0
 10 11  1  0
 11 12  1  0
 12 13  1  1
 13 14  2  0
 13 17  1  0
 16 15  1  6
 16 18  1  0
 17 16  1  0
 18 20  1  0
 19 18  2  0
M  END
$$$$
