TPA.pdb
     RDKit          3D

 20 20  0  0  1  0  0  0  0  0999 V2000
    7.5052  -17.5792   17.6692 C   0  0  0  0  0  0  0  0  0  0  0  0
    8.6091  -17.2717   16.6986 C   0  0  1  0  0  0  0  0  0  0  0  0
    8.2590  -17.7795   15.4683 O   0  0  0  0  0  0  0  0  0  0  0  0
    8.8441  -15.7574   16.6198 C   0  0  2  0  0  0  0  0  0  0  0  0
    9.8102  -15.5463   15.5229 N   0  0  0  0  0  0  0  0  0  0  0  0
    9.4552  -15.2978   17.8939 C   0  0  0  0  0  0  0  0  0  0  0  0
   10.6716  -15.5981   18.0782 O   0  0  0  0  0  0  0  0  0  0  0  0
    8.7916  -14.5620   18.8961 N   0  0  0  0  0  0  0  0  0  0  0  0
    7.4558  -14.0271   18.8102 C   0  0  0  0  0  0  0  0  0  0  0  0
    7.6934  -12.6754   19.5191 C   0  0  0  0  0  0  0  0  0  0  0  0
    8.3628  -13.1852   20.7703 C   0  0  0  0  0  0  0  0  0  0  0  0
    9.3450  -14.1982   20.1773 C   0  0  1  0  0  0  0  0  0  0  0  0
    9.4023  -15.4043   21.0699 C   0  0  0  0  0  0  0  0  0  0  0  0
    8.4939  -16.2716   21.0873 O   0  0  0  0  0  0  0  0  0  0  0  0
   12.1902  -17.2009   22.7213 C   0  0  0  0  0  0  0  0  0  0  0  0
   10.7405  -16.8143   22.6865 C   0  0  2  0  0  0  0  0  0  0  0  0
   10.5063  -15.5966   21.9323 N   0  0  0  0  0  0  0  0  0  0  0  0
   10.2423  -16.5846   24.0677 C   0  0  0  0  0  0  0  0  0  0  0  0
   10.2489  -17.5329   24.8938 O   0  0  0  0  0  0  0  0  0  0  0  0
    9.7643  -15.3511   24.4878 O   0  0  0  0  0  0  0  0  0  0  0  0
  2  1  1  1
  2  3  1  0
  4  6  1  0
  4  2  1  0
  4  5  1  6
  6  7  2  0
  8 12  1  0
  8  6  1  0
  9  8  1  0
 10  9  1  0
 10 11  1  0
 11 12  1  0
 12 13  1  1
 13 14  2  0
 13 17  1  0
 16 15  1  1
 16 18  1  0
 17 16  1  0
 18 20  1  0
 19 18  2  0
M  END
$$$$
