TPA.pdb
     RDKit          3D

 20 20  0  0  1  0  0  0  0  0999 V2000
    6.6970  -18.8671   20.5276 C   0  0  0  0  0  0  0  0  0  0  0  0
    7.6128  -18.7721   19.3411 C   0  0  1  0  0  0  0  0  0  0  0  0
    6.9897  -19.3600   18.2640 O   0  0  0  0  0  0  0  0  0  0  0  0
    7.9519  -17.3053   19.0446 C   0  0  2  0  0  0  0  0  0  0  0  0
    8.6950  -17.3034   17.7683 N   0  0  0  0  0  0  0  0  0  0  0  0
    8.8397  -16.7895   20.1187 C   0  0  0  0  0  0  0  0  0  0  0  0
   10.0505  -17.1586   20.0774 O   0  0  0  0  0  0  0  0  0  0  0  0
    8.4403  -15.9316   21.1630 N   0  0  0  0  0  0  0  0  0  0  0  0
    7.1487  -15.3061   21.2984 C   0  0  0  0  0  0  0  0  0  0  0  0
    7.6049  -13.9258   21.8207 C   0  0  0  0  0  0  0  0  0  0  0  0
    8.4868  -14.3873   22.9533 C   0  0  0  0  0  0  0  0  0  0  0  0
    9.2656  -15.5135   22.2695 C   0  0  1  0  0  0  0  0  0  0  0  0
    9.4354  -16.6488   23.2375 C   0  0  0  0  0  0  0  0  0  0  0  0
    8.4947  -17.4269   23.5328 O   0  0  0  0  0  0  0  0  0  0  0  0
   12.4122  -18.3983   24.7111 C   0  0  0  0  0  0  0  0  0  0  0  0
   10.9668  -17.9951   24.7323 C   0  0  2  0  0  0  0  0  0  0  0  0
   10.6879  -16.8738   23.8540 N   0  0  0  0  0  0  0  0  0  0  0  0
   10.5715  -17.5920   26.1071 C   0  0  0  0  0  0  0  0  0  0  0  0
   10.2437  -16.3988   26.3322 O   0  0  0  0  0  0  0  0  0  0  0  0
   10.5493  -18.4898   27.1653 O   0  0  0  0  0  0  0  0  0  0  0  0
  2  1  1  1
  2  3  1  0
  4  6  1  0
  4  2  1  0
  4  5  1  6
  6  7  2  0
  8 12  1  0
  8  6  1  0
  9  8  1  0
 10  9  1  0
 10 11  1  0
 11 12  1  0
 12 13  1  1
 13 14  2  0
 13 17  1  0
 16 15  1  1
 16 18  1  0
 17 16  1  0
 18 20  1  0
 19 18  2  0
M  END
$$$$
