TPA.pdb
     RDKit          3D

 20 20  0  0  1  0  0  0  0  0999 V2000
    7.2381  -16.2730   19.0872 C   0  0  0  0  0  0  0  0  0  0  0  0
    8.1196  -15.3174   18.3354 C   0  0  1  0  0  0  0  0  0  0  0  0
    7.6412  -15.2057   17.0499 O   0  0  0  0  0  0  0  0  0  0  0  0
    8.1419  -13.9506   19.0326 C   0  0  2  0  0  0  0  0  0  0  0  0
    8.8660  -13.0368   18.1262 N   0  0  0  0  0  0  0  0  0  0  0  0
    8.9028  -14.0704   20.3033 C   0  0  0  0  0  0  0  0  0  0  0  0
   10.1563  -14.2180   20.1999 O   0  0  0  0  0  0  0  0  0  0  0  0
    8.3412  -14.0306   21.5953 N   0  0  0  0  0  0  0  0  0  0  0  0
    6.9653  -13.7408   21.9124 C   0  0  0  0  0  0  0  0  0  0  0  0
    7.1868  -12.8863   23.1800 C   0  0  0  0  0  0  0  0  0  0  0  0
    8.0895  -13.8268   23.9377 C   0  0  0  0  0  0  0  0  0  0  0  0
    9.0545  -14.2533   22.8289 C   0  0  1  0  0  0  0  0  0  0  0  0
    9.3626  -15.7147   22.9840 C   0  0  0  0  0  0  0  0  0  0  0  0
    8.5762  -16.6128   22.5933 O   0  0  0  0  0  0  0  0  0  0  0  0
   12.4317  -17.7163   23.3760 C   0  0  0  0  0  0  0  0  0  0  0  0
   10.9849  -17.5099   23.7172 C   0  0  2  0  0  0  0  0  0  0  0  0
   10.5740  -16.1239   23.5878 N   0  0  0  0  0  0  0  0  0  0  0  0
   10.7307  -17.9197   25.1230 C   0  0  0  0  0  0  0  0  0  0  0  0
   10.3225  -17.0666   25.9522 O   0  0  0  0  0  0  0  0  0  0  0  0
   10.9280  -19.2211   25.5630 O   0  0  0  0  0  0  0  0  0  0  0  0
  2  1  1  1
  2  3  1  0
  4  6  1  0
  4  2  1  0
  4  5  1  6
  6  7  2  0
  8 12  1  0
  8  6  1  0
  9  8  1  0
 10  9  1  0
 10 11  1  0
 11 12  1  0
 12 13  1  1
 13 14  2  0
 13 17  1  0
 16 15  1  1
 16 18  1  0
 17 16  1  0
 18 20  1  0
 19 18  2  0
M  END
$$$$
