LYM.pdb
     RDKit          3D

 29 29  0  0  1  0  0  0  0  0999 V2000
    7.9012  -21.7696   20.1869 C   0  0  0  0  0  0  0  0  0  0  0  0
    7.2726  -20.4326   19.8155 C   0  0  2  0  0  0  0  0  0  0  0  0
    6.6494  -20.4533   18.4515 C   0  0  0  0  0  0  0  0  0  0  0  0
    8.3343  -19.3490   19.9322 C   0  0  0  0  0  0  0  0  0  0  0  0
    8.5530  -19.1099   21.4236 C   0  0  2  0  0  0  0  0  0  0  0  0
    7.2408  -18.9560   22.0346 N   0  0  0  0  0  0  0  0  0  0  0  0
    9.4010  -17.9407   21.6793 C   0  0  0  0  0  0  0  0  0  0  0  0
   10.5298  -17.9029   21.1034 O   0  0  0  0  0  0  0  0  0  0  0  0
    6.7416  -13.2511   17.5159 O   0  0  0  0  0  0  0  0  0  0  0  0
    7.2787  -13.5503   18.7557 C   0  0  0  0  0  0  0  0  0  0  0  0
    6.5658  -14.3360   19.6352 C   0  0  0  0  0  0  0  0  0  0  0  0
    7.0458  -14.6708   20.8874 C   0  0  0  0  0  0  0  0  0  0  0  0
    8.2767  -14.2223   21.3079 C   0  0  0  0  0  0  0  0  0  0  0  0
    8.7890  -14.5747   22.6238 C   0  0  0  0  0  0  0  0  0  0  0  0
    9.7612  -15.6972   22.6946 C   0  0  2  0  0  0  0  0  0  0  0  0
    8.9464  -16.9193   22.5367 N   0  0  0  0  0  0  0  0  0  0  0  0
   10.5060  -15.8412   23.9588 C   0  0  0  0  0  0  0  0  0  0  0  0
   11.5424  -15.1174   24.1769 O   0  0  0  0  0  0  0  0  0  0  0  0
    8.9926  -13.4330   20.4244 C   0  0  0  0  0  0  0  0  0  0  0  0
    8.5133  -13.1005   19.1776 C   0  0  0  0  0  0  0  0  0  0  0  0
    9.7856  -12.5872   28.1678 C   0  0  0  0  0  0  0  0  0  0  0  0
   10.0308  -13.9408   29.3635 S   0  0  0  0  0  0  0  0  0  0  0  0
   10.8305  -15.3009   28.4396 C   0  0  0  0  0  0  0  0  0  0  0  0
   10.1945  -15.5001   27.1076 C   0  0  0  0  0  0  0  0  0  0  0  0
   10.8615  -16.6293   26.3260 C   0  0  2  0  0  0  0  0  0  0  0  0
   10.1897  -16.7297   25.0176 N   0  0  0  0  0  0  0  0  0  0  0  0
   10.8860  -17.9060   27.0523 C   0  0  0  0  0  0  0  0  0  0  0  0
   10.1298  -18.8339   26.6731 O   0  0  0  0  0  0  0  0  0  0  0  0
   11.6856  -18.1923   28.1437 O   0  0  0  0  0  0  0  0  0  0  0  0
  2  4  1  0
  2  1  1  6
  3  2  1  0
  5  6  1  1
  5  4  1  0
  7  5  1  0
  7  8  2  0
  9 10  1  0
 10 20  2  0
 10 11  1  0
 11 12  2  0
 12 13  1  0
 13 14  1  0
 15 14  1  1
 16 15  1  0
 16  7  1  0
 17 15  1  0
 17 18  2  0
 19 13  2  0
 20 19  1  0
 22 21  1  0
 22 23  1  0
 23 24  1  0
 25 24  1  1
 25 27  1  0
 26 25  1  0
 26 17  1  0
 27 28  2  0
 27 29  1  0
M  END
$$$$
