LYM.pdb
     RDKit          3D

 29 29  0  0  1  0  0  0  0  0999 V2000
    9.9701  -13.8015   18.8190 C   0  0  0  0  0  0  0  0  0  0  0  0
    8.4595  -13.8731   18.6364 C   0  0  2  0  0  0  0  0  0  0  0  0
    7.8514  -12.5280   18.3713 C   0  0  0  0  0  0  0  0  0  0  0  0
    7.8533  -14.5317   19.8668 C   0  0  0  0  0  0  0  0  0  0  0  0
    8.4945  -15.9116   19.9849 C   0  0  2  0  0  0  0  0  0  0  0  0
    7.8499  -16.7740   19.0053 N   0  0  0  0  0  0  0  0  0  0  0  0
    8.3786  -16.4629   21.3392 C   0  0  0  0  0  0  0  0  0  0  0  0
    7.2225  -16.8038   21.7322 O   0  0  0  0  0  0  0  0  0  0  0  0
   11.1746  -19.8940   29.0580 O   0  0  0  0  0  0  0  0  0  0  0  0
   11.0477  -19.4113   27.7674 C   0  0  0  0  0  0  0  0  0  0  0  0
    9.8956  -19.6657   27.0552 C   0  0  0  0  0  0  0  0  0  0  0  0
    9.7069  -19.2124   25.7631 C   0  0  0  0  0  0  0  0  0  0  0  0
   10.6822  -18.4764   25.1304 C   0  0  0  0  0  0  0  0  0  0  0  0
   10.4876  -17.9930   23.7714 C   0  0  0  0  0  0  0  0  0  0  0  0
    9.3782  -17.0292   23.5469 C   0  0  2  0  0  0  0  0  0  0  0  0
    9.5281  -16.5938   22.1432 N   0  0  0  0  0  0  0  0  0  0  0  0
    9.3906  -15.8100   24.3757 C   0  0  0  0  0  0  0  0  0  0  0  0
   10.3231  -14.9424   24.2237 O   0  0  0  0  0  0  0  0  0  0  0  0
   11.8393  -18.2210   25.8458 C   0  0  0  0  0  0  0  0  0  0  0  0
   12.0258  -18.6732   27.1325 C   0  0  0  0  0  0  0  0  0  0  0  0
    4.7148  -11.0446   26.9583 C   0  0  0  0  0  0  0  0  0  0  0  0
    6.4901  -10.9446   26.5579 S   0  0  0  0  0  0  0  0  0  0  0  0
    7.2598  -12.4437   27.2674 C   0  0  0  0  0  0  0  0  0  0  0  0
    7.2387  -13.5751   26.2990 C   0  0  0  0  0  0  0  0  0  0  0  0
    8.6010  -14.2567   26.1965 C   0  0  2  0  0  0  0  0  0  0  0  0
    8.4389  -15.4659   25.3689 N   0  0  0  0  0  0  0  0  0  0  0  0
    9.2117  -14.5391   27.5025 C   0  0  0  0  0  0  0  0  0  0  0  0
    9.0922  -15.6892   27.9918 O   0  0  0  0  0  0  0  0  0  0  0  0
    9.9267  -13.6340   28.2655 O   0  0  0  0  0  0  0  0  0  0  0  0
  2  4  1  0
  2  1  1  1
  3  2  1  0
  5  6  1  6
  5  4  1  0
  7  5  1  0
  7  8  2  0
  9 10  1  0
 10 20  2  0
 10 11  1  0
 11 12  2  0
 12 13  1  0
 13 14  1  0
 15 14  1  1
 16 15  1  0
 16  7  1  0
 17 15  1  0
 17 18  2  0
 19 13  2  0
 20 19  1  0
 22 21  1  0
 22 23  1  0
 23 24  1  0
 25 24  1  1
 25 27  1  0
 26 25  1  0
 26 17  1  0
 27 28  2  0
 27 29  1  0
M  END
$$$$
