LYM.pdb
     RDKit          3D

 29 29  0  0  1  0  0  0  0  0999 V2000
    9.5454  -13.9195   19.7583 C   0  0  0  0  0  0  0  0  0  0  0  0
    8.1715  -13.7622   19.1193 C   0  0  2  0  0  0  0  0  0  0  0  0
    7.7838  -12.3240   18.9442 C   0  0  0  0  0  0  0  0  0  0  0  0
    7.1558  -14.5200   19.9614 C   0  0  0  0  0  0  0  0  0  0  0  0
    7.7497  -15.9009   20.2254 C   0  0  2  0  0  0  0  0  0  0  0  0
    7.2444  -16.7942   19.1933 N   0  0  0  0  0  0  0  0  0  0  0  0
    7.4244  -16.3973   21.5667 C   0  0  0  0  0  0  0  0  0  0  0  0
    6.1976  -16.4744   21.8775 O   0  0  0  0  0  0  0  0  0  0  0  0
    8.2114  -20.8050   29.1752 O   0  0  0  0  0  0  0  0  0  0  0  0
    8.2763  -20.2414   27.9130 C   0  0  0  0  0  0  0  0  0  0  0  0
    9.5015  -19.9047   27.3796 C   0  0  0  0  0  0  0  0  0  0  0  0
    9.6343  -19.3389   26.1255 C   0  0  0  0  0  0  0  0  0  0  0  0
    8.5258  -19.0874   25.3503 C   0  0  0  0  0  0  0  0  0  0  0  0
    8.6597  -18.4955   24.0275 C   0  0  0  0  0  0  0  0  0  0  0  0
    8.1255  -17.1206   23.8426 C   0  0  2  0  0  0  0  0  0  0  0  0
    8.4601  -16.7646   22.4484 N   0  0  0  0  0  0  0  0  0  0  0  0
    8.7036  -16.0711   24.7016 C   0  0  0  0  0  0  0  0  0  0  0  0
    9.9485  -15.7779   24.6038 O   0  0  0  0  0  0  0  0  0  0  0  0
    7.2952  -19.4257   25.8863 C   0  0  0  0  0  0  0  0  0  0  0  0
    7.1644  -19.9890   27.1354 C   0  0  0  0  0  0  0  0  0  0  0  0
    6.6909  -10.0551   26.9048 C   0  0  0  0  0  0  0  0  0  0  0  0
    5.7583  -11.4632   26.2193 S   0  0  0  0  0  0  0  0  0  0  0  0
    7.0015  -12.7143   25.7376 C   0  0  0  0  0  0  0  0  0  0  0  0
    7.7199  -13.2517   26.9265 C   0  0  0  0  0  0  0  0  0  0  0  0
    8.7101  -14.3479   26.5407 C   0  0  2  0  0  0  0  0  0  0  0  0
    8.0050  -15.3058   25.6697 N   0  0  0  0  0  0  0  0  0  0  0  0
    9.3464  -14.9926   27.6972 C   0  0  0  0  0  0  0  0  0  0  0  0
   10.1732  -14.3372   28.3779 O   0  0  0  0  0  0  0  0  0  0  0  0
    9.1144  -16.2885   28.1207 O   0  0  0  0  0  0  0  0  0  0  0  0
  2  4  1  0
  2  1  1  1
  3  2  1  0
  5  6  1  6
  5  4  1  0
  7  5  1  0
  7  8  2  0
  9 10  1  0
 10 20  2  0
 10 11  1  0
 11 12  2  0
 12 13  1  0
 13 14  1  0
 15 14  1  1
 16 15  1  0
 16  7  1  0
 17 15  1  0
 17 18  2  0
 19 13  2  0
 20 19  1  0
 22 21  1  0
 22 23  1  0
 23 24  1  0
 25 24  1  1
 25 27  1  0
 26 25  1  0
 26 17  1  0
 27 28  2  0
 27 29  1  0
M  END
$$$$
