LYM.pdb
     RDKit          3D

 29 29  0  0  1  0  0  0  0  0999 V2000
    9.6322  -14.5807   19.4230 C   0  0  0  0  0  0  0  0  0  0  0  0
    8.2873  -14.2634   18.7818 C   0  0  2  0  0  0  0  0  0  0  0  0
    8.1039  -12.7955   18.5348 C   0  0  0  0  0  0  0  0  0  0  0  0
    7.1843  -14.8271   19.6654 C   0  0  0  0  0  0  0  0  0  0  0  0
    7.5315  -16.2917   19.9176 C   0  0  2  0  0  0  0  0  0  0  0  0
    6.8587  -17.0787   18.8944 N   0  0  0  0  0  0  0  0  0  0  0  0
    7.1485  -16.7284   21.2644 C   0  0  0  0  0  0  0  0  0  0  0  0
    5.9161  -16.6919   21.5601 O   0  0  0  0  0  0  0  0  0  0  0  0
    8.3457  -20.3532   29.3250 O   0  0  0  0  0  0  0  0  0  0  0  0
    8.3125  -19.9653   27.9971 C   0  0  0  0  0  0  0  0  0  0  0  0
    9.4659  -19.5198   27.3885 C   0  0  0  0  0  0  0  0  0  0  0  0
    9.4994  -19.1182   26.0664 C   0  0  0  0  0  0  0  0  0  0  0  0
    8.3597  -19.1500   25.2963 C   0  0  0  0  0  0  0  0  0  0  0  0
    8.3897  -18.7320   23.9025 C   0  0  0  0  0  0  0  0  0  0  0  0
    7.7648  -17.4240   23.5732 C   0  0  2  0  0  0  0  0  0  0  0  0
    8.1379  -17.1650   22.1675 N   0  0  0  0  0  0  0  0  0  0  0  0
    8.2224  -16.2623   24.3573 C   0  0  0  0  0  0  0  0  0  0  0  0
    9.4351  -15.8574   24.2527 O   0  0  0  0  0  0  0  0  0  0  0  0
    7.2012  -19.5974   25.9077 C   0  0  0  0  0  0  0  0  0  0  0  0
    7.1693  -19.9971   27.2245 C   0  0  0  0  0  0  0  0  0  0  0  0
    5.9830  -10.3995   28.9570 C   0  0  0  0  0  0  0  0  0  0  0  0
    5.8331  -11.0077   27.2453 S   0  0  0  0  0  0  0  0  0  0  0  0
    7.2215  -12.1701   26.9920 C   0  0  0  0  0  0  0  0  0  0  0  0
    6.7967  -13.3597   26.2029 C   0  0  0  0  0  0  0  0  0  0  0  0
    7.9712  -14.2880   25.9034 C   0  0  2  0  0  0  0  0  0  0  0  0
    7.4348  -15.4990   25.2560 N   0  0  0  0  0  0  0  0  0  0  0  0
    8.7916  -14.5902   27.0840 C   0  0  0  0  0  0  0  0  0  0  0  0
    8.5303  -15.6174   27.7571 O   0  0  0  0  0  0  0  0  0  0  0  0
    9.8548  -13.8307   27.5370 O   0  0  0  0  0  0  0  0  0  0  0  0
  2  4  1  0
  2  1  1  1
  3  2  1  0
  5  6  1  6
  5  4  1  0
  7  5  1  0
  7  8  2  0
  9 10  1  0
 10 20  2  0
 10 11  1  0
 11 12  2  0
 12 13  1  0
 13 14  1  0
 15 14  1  1
 16 15  1  0
 16  7  1  0
 17 15  1  0
 17 18  2  0
 19 13  2  0
 20 19  1  0
 22 21  1  0
 22 23  1  0
 23 24  1  0
 25 24  1  1
 25 27  1  0
 26 25  1  0
 26 17  1  0
 27 28  2  0
 27 29  1  0
M  END
$$$$
