LYM.pdb
     RDKit          3D

 29 29  0  0  1  0  0  0  0  0999 V2000
    9.0400  -12.8767   19.6527 C   0  0  0  0  0  0  0  0  0  0  0  0
    7.7426  -13.4891   19.1406 C   0  0  2  0  0  0  0  0  0  0  0  0
    6.7463  -12.4495   18.7211 C   0  0  0  0  0  0  0  0  0  0  0  0
    7.1804  -14.4045   20.2181 C   0  0  0  0  0  0  0  0  0  0  0  0
    8.3737  -14.9337   21.0087 C   0  0  2  0  0  0  0  0  0  0  0  0
    8.9360  -16.0436   20.2532 N   0  0  0  0  0  0  0  0  0  0  0  0
    8.0007  -15.3467   22.3658 C   0  0  0  0  0  0  0  0  0  0  0  0
    7.3442  -14.5190   23.0667 O   0  0  0  0  0  0  0  0  0  0  0  0
    8.3224  -20.9832   29.3253 O   0  0  0  0  0  0  0  0  0  0  0  0
    8.2374  -20.3713   28.0870 C   0  0  0  0  0  0  0  0  0  0  0  0
    9.3886  -20.1096   27.3761 C   0  0  0  0  0  0  0  0  0  0  0  0
    9.3718  -19.5013   26.1350 C   0  0  0  0  0  0  0  0  0  0  0  0
    8.1814  -19.1285   25.5545 C   0  0  0  0  0  0  0  0  0  0  0  0
    8.1572  -18.4912   24.2463 C   0  0  0  0  0  0  0  0  0  0  0  0
    8.0092  -17.0123   24.2151 C   0  0  2  0  0  0  0  0  0  0  0  0
    8.3743  -16.6204   22.8383 N   0  0  0  0  0  0  0  0  0  0  0  0
    8.8828  -16.2463   25.1227 C   0  0  0  0  0  0  0  0  0  0  0  0
   10.1484  -16.2131   24.9162 O   0  0  0  0  0  0  0  0  0  0  0  0
    7.0252  -19.3914   26.2688 C   0  0  0  0  0  0  0  0  0  0  0  0
    7.0434  -19.9972   27.5046 C   0  0  0  0  0  0  0  0  0  0  0  0
    7.0849  -10.7332   25.1454 C   0  0  0  0  0  0  0  0  0  0  0  0
    7.0228  -12.2512   26.1525 S   0  0  0  0  0  0  0  0  0  0  0  0
    8.7006  -12.4754   26.8437 C   0  0  0  0  0  0  0  0  0  0  0  0
    8.7532  -13.6355   27.7763 C   0  0  0  0  0  0  0  0  0  0  0  0
    9.4395  -14.8417   27.1398 C   0  0  2  0  0  0  0  0  0  0  0  0
    8.4630  -15.4997   26.2529 N   0  0  0  0  0  0  0  0  0  0  0  0
   10.0276  -15.7631   28.1212 C   0  0  0  0  0  0  0  0  0  0  0  0
    9.3967  -16.8038   28.4298 O   0  0  0  0  0  0  0  0  0  0  0  0
   11.2447  -15.5896   28.7547 O   0  0  0  0  0  0  0  0  0  0  0  0
  2  4  1  0
  2  1  1  1
  3  2  1  0
  5  6  1  6
  5  4  1  0
  7  5  1  0
  7  8  2  0
  9 10  1  0
 10 20  2  0
 10 11  1  0
 11 12  2  0
 12 13  1  0
 13 14  1  0
 15 14  1  6
 16 15  1  0
 16  7  1  0
 17 15  1  0
 17 18  2  0
 19 13  2  0
 20 19  1  0
 22 21  1  0
 22 23  1  0
 23 24  1  0
 25 24  1  1
 25 27  1  0
 26 25  1  0
 26 17  1  0
 27 28  2  0
 27 29  1  0
M  END
$$$$
