LYM.pdb
     RDKit          3D

 29 29  0  0  1  0  0  0  0  0999 V2000
    9.8782  -16.5850   16.1191 C   0  0  0  0  0  0  0  0  0  0  0  0
    8.6979  -15.7673   16.6277 C   0  0  2  0  0  0  0  0  0  0  0  0
    8.1457  -14.8475   15.5797 C   0  0  0  0  0  0  0  0  0  0  0  0
    9.1355  -15.0059   17.8702 C   0  0  0  0  0  0  0  0  0  0  0  0
    9.5711  -16.0514   18.8931 C   0  0  2  0  0  0  0  0  0  0  0  0
    8.6499  -17.1732   18.7851 N   0  0  0  0  0  0  0  0  0  0  0  0
    9.5997  -15.5140   20.2576 C   0  0  0  0  0  0  0  0  0  0  0  0
   10.4451  -14.6026   20.5070 O   0  0  0  0  0  0  0  0  0  0  0  0
    5.9108  -12.7487   27.7856 O   0  0  0  0  0  0  0  0  0  0  0  0
    6.2213  -13.4070   26.6087 C   0  0  0  0  0  0  0  0  0  0  0  0
    6.6440  -12.6835   25.5146 C   0  0  0  0  0  0  0  0  0  0  0  0
    6.9691  -13.2805   24.3111 C   0  0  0  0  0  0  0  0  0  0  0  0
    6.8802  -14.6452   24.1604 C   0  0  0  0  0  0  0  0  0  0  0  0
    7.2249  -15.2798   22.8968 C   0  0  0  0  0  0  0  0  0  0  0  0
    8.6696  -15.3844   22.5624 C   0  0  2  0  0  0  0  0  0  0  0  0
    8.7083  -16.0148   21.2269 N   0  0  0  0  0  0  0  0  0  0  0  0
    9.4904  -16.2236   23.4544 C   0  0  0  0  0  0  0  0  0  0  0  0
    9.9771  -17.3295   23.0237 O   0  0  0  0  0  0  0  0  0  0  0  0
    6.4556  -15.3718   25.2594 C   0  0  0  0  0  0  0  0  0  0  0  0
    6.1322  -14.7759   26.4574 C   0  0  0  0  0  0  0  0  0  0  0  0
    9.9845  -12.4128   28.5330 C   0  0  0  0  0  0  0  0  0  0  0  0
   10.1795  -14.2161   28.7131 S   0  0  0  0  0  0  0  0  0  0  0  0
   10.7087  -14.8393   27.0778 C   0  0  0  0  0  0  0  0  0  0  0  0
   10.6897  -16.3279   27.0317 C   0  0  0  0  0  0  0  0  0  0  0  0
   10.6613  -16.8486   25.5968 C   0  0  2  0  0  0  0  0  0  0  0  0
    9.8248  -15.9318   24.8012 N   0  0  0  0  0  0  0  0  0  0  0  0
   10.2281  -18.2485   25.4928 C   0  0  0  0  0  0  0  0  0  0  0  0
    9.0411  -18.4932   25.1650 O   0  0  0  0  0  0  0  0  0  0  0  0
   11.0255  -19.3538   25.7270 O   0  0  0  0  0  0  0  0  0  0  0  0
  2  4  1  0
  2  1  1  6
  3  2  1  0
  5  6  1  1
  5  4  1  0
  7  5  1  0
  7  8  2  0
  9 10  1  0
 10 20  2  0
 10 11  1  0
 11 12  2  0
 12 13  1  0
 13 14  1  0
 15 14  1  1
 16 15  1  0
 16  7  1  0
 17 15  1  0
 17 18  2  0
 19 13  2  0
 20 19  1  0
 22 21  1  0
 22 23  1  0
 23 24  1  0
 25 24  1  1
 25 27  1  0
 26 25  1  0
 26 17  1  0
 27 28  2  0
 27 29  1  0
M  END
$$$$
