LYM.pdb
     RDKit          3D

 29 29  0  0  1  0  0  0  0  0999 V2000
    9.4313  -14.6386   19.4569 C   0  0  0  0  0  0  0  0  0  0  0  0
    7.9850  -14.1879   19.2975 C   0  0  2  0  0  0  0  0  0  0  0  0
    7.8759  -12.7431   18.9100 C   0  0  0  0  0  0  0  0  0  0  0  0
    7.2407  -14.4807   20.5919 C   0  0  0  0  0  0  0  0  0  0  0  0
    7.4134  -15.9718   20.8679 C   0  0  2  0  0  0  0  0  0  0  0  0
    6.4333  -16.6788   20.0566 N   0  0  0  0  0  0  0  0  0  0  0  0
    7.2602  -16.2937   22.2907 C   0  0  0  0  0  0  0  0  0  0  0  0
    6.1025  -16.1741   22.7935 O   0  0  0  0  0  0  0  0  0  0  0  0
    5.1774  -22.1810   27.1496 O   0  0  0  0  0  0  0  0  0  0  0  0
    5.9969  -21.3045   26.4603 C   0  0  0  0  0  0  0  0  0  0  0  0
    6.9237  -20.5532   27.1500 C   0  0  0  0  0  0  0  0  0  0  0  0
    7.7710  -19.6604   26.5210 C   0  0  0  0  0  0  0  0  0  0  0  0
    7.7178  -19.4875   25.1571 C   0  0  0  0  0  0  0  0  0  0  0  0
    8.6101  -18.5519   24.4888 C   0  0  0  0  0  0  0  0  0  0  0  0
    8.1886  -17.1269   24.4442 C   0  0  2  0  0  0  0  0  0  0  0  0
    8.3775  -16.7161   23.0379 N   0  0  0  0  0  0  0  0  0  0  0  0
    8.9662  -16.1866   25.2718 C   0  0  0  0  0  0  0  0  0  0  0  0
   10.1409  -15.8286   24.9012 O   0  0  0  0  0  0  0  0  0  0  0  0
    6.7868  -20.2422   24.4645 C   0  0  0  0  0  0  0  0  0  0  0  0
    5.9436  -21.1309   25.0922 C   0  0  0  0  0  0  0  0  0  0  0  0
    5.1722  -11.2873   27.0208 C   0  0  0  0  0  0  0  0  0  0  0  0
    6.3358  -12.0539   28.1958 S   0  0  0  0  0  0  0  0  0  0  0  0
    7.5129  -13.0260   27.1895 C   0  0  0  0  0  0  0  0  0  0  0  0
    8.5000  -13.7395   28.0466 C   0  0  0  0  0  0  0  0  0  0  0  0
    9.4038  -14.6556   27.2252 C   0  0  2  0  0  0  0  0  0  0  0  0
    8.5413  -15.5984   26.4901 N   0  0  0  0  0  0  0  0  0  0  0  0
   10.4320  -15.3322   28.0271 C   0  0  0  0  0  0  0  0  0  0  0  0
   10.2845  -16.5487   28.3006 O   0  0  0  0  0  0  0  0  0  0  0  0
   11.5799  -14.7410   28.5225 O   0  0  0  0  0  0  0  0  0  0  0  0
  2  4  1  0
  2  1  1  1
  3  2  1  0
  5  6  1  6
  5  4  1  0
  7  5  1  0
  7  8  2  0
  9 10  1  0
 10 20  2  0
 10 11  1  0
 11 12  2  0
 12 13  1  0
 13 14  1  0
 15 14  1  6
 16 15  1  0
 16  7  1  0
 17 15  1  0
 17 18  2  0
 19 13  2  0
 20 19  1  0
 22 21  1  0
 22 23  1  0
 23 24  1  0
 25 24  1  1
 25 27  1  0
 26 25  1  0
 26 17  1  0
 27 28  2  0
 27 29  1  0
M  END
$$$$
