LYM.pdb
     RDKit          3D

 29 29  0  0  1  0  0  0  0  0999 V2000
    9.0983  -12.4889   18.8986 C   0  0  0  0  0  0  0  0  0  0  0  0
    7.8175  -13.3121   18.9491 C   0  0  2  0  0  0  0  0  0  0  0  0
    6.6999  -12.5886   19.6397 C   0  0  0  0  0  0  0  0  0  0  0  0
    8.1236  -14.6438   19.6184 C   0  0  0  0  0  0  0  0  0  0  0  0
    9.3149  -15.2428   18.8759 C   0  0  2  0  0  0  0  0  0  0  0  0
    8.7926  -16.2356   17.9485 N   0  0  0  0  0  0  0  0  0  0  0  0
   10.2987  -15.8323   19.7903 C   0  0  0  0  0  0  0  0  0  0  0  0
   10.1644  -17.0598   20.0777 O   0  0  0  0  0  0  0  0  0  0  0  0
   16.3548  -15.7172   16.2755 O   0  0  0  0  0  0  0  0  0  0  0  0
   15.6501  -15.4738   17.4413 C   0  0  0  0  0  0  0  0  0  0  0  0
   15.7289  -16.3705   18.4847 C   0  0  0  0  0  0  0  0  0  0  0  0
   15.0501  -16.1857   19.6745 C   0  0  0  0  0  0  0  0  0  0  0  0
   14.2562  -15.0778   19.8624 C   0  0  0  0  0  0  0  0  0  0  0  0
   13.5421  -14.8759   21.1144 C   0  0  0  0  0  0  0  0  0  0  0  0
   12.2687  -15.6210   21.2965 C   0  0  2  0  0  0  0  0  0  0  0  0
   11.3386  -15.0358   20.3092 N   0  0  0  0  0  0  0  0  0  0  0  0
   11.6214  -15.5015   22.6157 C   0  0  0  0  0  0  0  0  0  0  0  0
   12.1852  -14.8213   23.5458 O   0  0  0  0  0  0  0  0  0  0  0  0
   14.1771  -14.1772   18.8142 C   0  0  0  0  0  0  0  0  0  0  0  0
   14.8537  -14.3625   17.6299 C   0  0  0  0  0  0  0  0  0  0  0  0
    5.9712  -12.9992   26.8968 C   0  0  0  0  0  0  0  0  0  0  0  0
    6.5161  -13.4757   25.2240 S   0  0  0  0  0  0  0  0  0  0  0  0
    7.9580  -14.5770   25.4500 C   0  0  0  0  0  0  0  0  0  0  0  0
    8.6192  -14.8796   24.1502 C   0  0  0  0  0  0  0  0  0  0  0  0
    9.7990  -15.8328   24.3246 C   0  0  2  0  0  0  0  0  0  0  0  0
   10.3816  -16.0772   22.9927 N   0  0  0  0  0  0  0  0  0  0  0  0
    9.4472  -17.0736   25.0279 C   0  0  0  0  0  0  0  0  0  0  0  0
    9.0411  -17.0042   26.2140 O   0  0  0  0  0  0  0  0  0  0  0  0
    9.5215  -18.3468   24.4931 O   0  0  0  0  0  0  0  0  0  0  0  0
  2  4  1  0
  2  1  1  1
  3  2  1  0
  5  6  1  6
  5  4  1  0
  7  5  1  0
  7  8  2  0
  9 10  1  0
 10 20  2  0
 10 11  1  0
 11 12  2  0
 12 13  1  0
 13 14  1  0
 15 14  1  1
 16 15  1  0
 16  7  1  0
 17 15  1  0
 17 18  2  0
 19 13  2  0
 20 19  1  0
 22 21  1  0
 22 23  1  0
 23 24  1  0
 25 24  1  6
 25 27  1  0
 26 25  1  0
 26 17  1  0
 27 28  2  0
 27 29  1  0
M  END
$$$$
