LYM.pdb
     RDKit          3D

 29 29  0  0  1  0  0  0  0  0999 V2000
    9.4897  -13.8269   18.8887 C   0  0  0  0  0  0  0  0  0  0  0  0
    8.0325  -13.8830   18.4481 C   0  0  2  0  0  0  0  0  0  0  0  0
    7.4136  -12.5207   18.3455 C   0  0  0  0  0  0  0  0  0  0  0  0
    7.2684  -14.7766   19.4138 C   0  0  0  0  0  0  0  0  0  0  0  0
    8.3131  -15.5311   20.2314 C   0  0  2  0  0  0  0  0  0  0  0  0
    8.7603  -16.6592   19.4275 N   0  0  0  0  0  0  0  0  0  0  0  0
    7.7888  -15.9741   21.5276 C   0  0  0  0  0  0  0  0  0  0  0  0
    6.9658  -15.2093   22.1152 O   0  0  0  0  0  0  0  0  0  0  0  0
    7.3103  -21.3392   28.6722 O   0  0  0  0  0  0  0  0  0  0  0  0
    7.5747  -20.7631   27.4421 C   0  0  0  0  0  0  0  0  0  0  0  0
    6.5385  -20.5217   26.5662 C   0  0  0  0  0  0  0  0  0  0  0  0
    6.7358  -19.9495   25.3236 C   0  0  0  0  0  0  0  0  0  0  0  0
    7.9987  -19.5938   24.9095 C   0  0  0  0  0  0  0  0  0  0  0  0
    8.2121  -18.9874   23.6037 C   0  0  0  0  0  0  0  0  0  0  0  0
    7.7734  -17.5775   23.4310 C   0  0  2  0  0  0  0  0  0  0  0  0
    8.2056  -17.2068   22.0679 N   0  0  0  0  0  0  0  0  0  0  0  0
    8.3659  -16.5888   24.3503 C   0  0  0  0  0  0  0  0  0  0  0  0
    9.6202  -16.3278   24.2875 O   0  0  0  0  0  0  0  0  0  0  0  0
    9.0394  -19.8365   25.7893 C   0  0  0  0  0  0  0  0  0  0  0  0
    8.8415  -20.4064   27.0266 C   0  0  0  0  0  0  0  0  0  0  0  0
    6.5226  -10.6287   25.5355 C   0  0  0  0  0  0  0  0  0  0  0  0
    6.8454  -11.1253   27.2593 S   0  0  0  0  0  0  0  0  0  0  0  0
    7.9524  -12.5780   27.1744 C   0  0  0  0  0  0  0  0  0  0  0  0
    7.3977  -13.6319   26.2800 C   0  0  0  0  0  0  0  0  0  0  0  0
    8.3529  -14.8147   26.1403 C   0  0  2  0  0  0  0  0  0  0  0  0
    7.6723  -15.8518   25.3436 N   0  0  0  0  0  0  0  0  0  0  0  0
    8.8477  -15.3201   27.4278 C   0  0  0  0  0  0  0  0  0  0  0  0
    9.7255  -14.6635   28.0400 O   0  0  0  0  0  0  0  0  0  0  0  0
    8.4264  -16.4820   28.0483 O   0  0  0  0  0  0  0  0  0  0  0  0
  2  4  1  0
  2  1  1  1
  3  2  1  0
  5  6  1  6
  5  4  1  0
  7  5  1  0
  7  8  2  0
  9 10  1  0
 10 20  2  0
 10 11  1  0
 11 12  2  0
 12 13  1  0
 13 14  1  0
 15 14  1  1
 16 15  1  0
 16  7  1  0
 17 15  1  0
 17 18  2  0
 19 13  2  0
 20 19  1  0
 22 21  1  0
 22 23  1  0
 23 24  1  0
 25 24  1  1
 25 27  1  0
 26 25  1  0
 26 17  1  0
 27 28  2  0
 27 29  1  0
M  END
$$$$
