LYM.pdb
     RDKit          3D

 29 29  0  0  1  0  0  0  0  0999 V2000
    7.3356  -14.0235   17.5634 C   0  0  0  0  0  0  0  0  0  0  0  0
    8.0129  -14.5362   18.8279 C   0  0  2  0  0  0  0  0  0  0  0  0
    8.0712  -13.4962   19.9070 C   0  0  0  0  0  0  0  0  0  0  0  0
    9.3993  -15.0456   18.4624 C   0  0  0  0  0  0  0  0  0  0  0  0
    9.8388  -15.9686   19.5956 C   0  0  2  0  0  0  0  0  0  0  0  0
    8.9329  -17.1080   19.6022 N   0  0  0  0  0  0  0  0  0  0  0  0
    9.8480  -15.2868   20.8943 C   0  0  0  0  0  0  0  0  0  0  0  0
   10.6834  -14.3463   21.0524 O   0  0  0  0  0  0  0  0  0  0  0  0
    6.1620  -12.0707   28.2884 O   0  0  0  0  0  0  0  0  0  0  0  0
    6.5096  -12.7451   27.1311 C   0  0  0  0  0  0  0  0  0  0  0  0
    6.2603  -14.0966   27.0292 C   0  0  0  0  0  0  0  0  0  0  0  0
    6.5833  -14.8275   25.9013 C   0  0  0  0  0  0  0  0  0  0  0  0
    7.1767  -14.2190   24.8194 C   0  0  0  0  0  0  0  0  0  0  0  0
    7.5155  -14.9826   23.6276 C   0  0  0  0  0  0  0  0  0  0  0  0
    8.9346  -14.9554   23.1856 C   0  0  2  0  0  0  0  0  0  0  0  0
    8.9496  -15.6880   21.9028 N   0  0  0  0  0  0  0  0  0  0  0  0
    9.9097  -15.6210   24.0686 C   0  0  0  0  0  0  0  0  0  0  0  0
   10.9638  -14.9946   24.4453 O   0  0  0  0  0  0  0  0  0  0  0  0
    7.4271  -12.8614   24.9219 C   0  0  0  0  0  0  0  0  0  0  0  0
    7.1050  -12.1349   26.0458 C   0  0  0  0  0  0  0  0  0  0  0  0
   10.2601  -12.9825   28.1967 C   0  0  0  0  0  0  0  0  0  0  0  0
   11.1736  -14.4864   28.6719 S   0  0  0  0  0  0  0  0  0  0  0  0
   11.4122  -15.4472   27.1347 C   0  0  0  0  0  0  0  0  0  0  0  0
   10.2727  -16.3751   26.8918 C   0  0  0  0  0  0  0  0  0  0  0  0
   10.5764  -17.3606   25.7660 C   0  0  2  0  0  0  0  0  0  0  0  0
    9.8089  -16.9399   24.5797 N   0  0  0  0  0  0  0  0  0  0  0  0
   10.3310  -18.7612   26.1349 C   0  0  0  0  0  0  0  0  0  0  0  0
   11.0465  -19.2890   27.0214 O   0  0  0  0  0  0  0  0  0  0  0  0
    9.3591  -19.5766   25.5844 O   0  0  0  0  0  0  0  0  0  0  0  0
  2  4  1  0
  2  1  1  6
  3  2  1  0
  5  6  1  1
  5  4  1  0
  7  5  1  0
  7  8  2  0
  9 10  1  0
 10 20  2  0
 10 11  1  0
 11 12  2  0
 12 13  1  0
 13 14  1  0
 15 14  1  1
 16 15  1  0
 16  7  1  0
 17 15  1  0
 17 18  2  0
 19 13  2  0
 20 19  1  0
 22 21  1  0
 22 23  1  0
 23 24  1  0
 25 24  1  1
 25 27  1  0
 26 25  1  0
 26 17  1  0
 27 28  2  0
 27 29  1  0
M  END
$$$$
