LYM.pdb
     RDKit          3D

 29 29  0  0  1  0  0  0  0  0999 V2000
   10.2216  -18.9495   16.9278 C   0  0  0  0  0  0  0  0  0  0  0  0
    9.5934  -17.5722   17.0980 C   0  0  2  0  0  0  0  0  0  0  0  0
    9.3433  -16.8918   15.7851 C   0  0  0  0  0  0  0  0  0  0  0  0
   10.4905  -16.7388   18.0013 C   0  0  0  0  0  0  0  0  0  0  0  0
   10.5020  -17.4284   19.3628 C   0  0  2  0  0  0  0  0  0  0  0  0
    9.4654  -18.4501   19.3396 N   0  0  0  0  0  0  0  0  0  0  0  0
   10.2948  -16.4831   20.4650 C   0  0  0  0  0  0  0  0  0  0  0  0
   11.1302  -15.5371   20.5857 O   0  0  0  0  0  0  0  0  0  0  0  0
    5.5949  -12.3511   26.8099 O   0  0  0  0  0  0  0  0  0  0  0  0
    6.0457  -13.1709   25.7902 C   0  0  0  0  0  0  0  0  0  0  0  0
    6.7604  -12.6273   24.7448 C   0  0  0  0  0  0  0  0  0  0  0  0
    7.2381  -13.3911   23.6965 C   0  0  0  0  0  0  0  0  0  0  0  0
    7.0122  -14.7478   23.6594 C   0  0  0  0  0  0  0  0  0  0  0  0
    7.5161  -15.5578   22.5602 C   0  0  0  0  0  0  0  0  0  0  0  0
    8.9919  -15.6757   22.4258 C   0  0  2  0  0  0  0  0  0  0  0  0
    9.1999  -16.6509   21.3357 N   0  0  0  0  0  0  0  0  0  0  0  0
    9.7189  -16.1884   23.6015 C   0  0  0  0  0  0  0  0  0  0  0  0
   10.1308  -17.4030   23.6196 O   0  0  0  0  0  0  0  0  0  0  0  0
    6.2942  -15.2936   24.7095 C   0  0  0  0  0  0  0  0  0  0  0  0
    5.8191  -14.5317   25.7528 C   0  0  0  0  0  0  0  0  0  0  0  0
   11.5616  -12.7199   28.6126 C   0  0  0  0  0  0  0  0  0  0  0  0
   11.9735  -14.3029   29.4166 S   0  0  0  0  0  0  0  0  0  0  0  0
   11.4733  -15.6162   28.2469 C   0  0  0  0  0  0  0  0  0  0  0  0
   10.8690  -15.0425   27.0124 C   0  0  0  0  0  0  0  0  0  0  0  0
   10.6356  -16.1118   25.9479 C   0  0  2  0  0  0  0  0  0  0  0  0
   10.0357  -15.4543   24.7727 N   0  0  0  0  0  0  0  0  0  0  0  0
    9.8421  -17.2505   26.4292 C   0  0  0  0  0  0  0  0  0  0  0  0
    8.5905  -17.1524   26.4488 O   0  0  0  0  0  0  0  0  0  0  0  0
   10.3563  -18.4547   26.8744 O   0  0  0  0  0  0  0  0  0  0  0  0
  2  4  1  0
  2  1  1  6
  3  2  1  0
  5  6  1  6
  5  4  1  0
  7  5  1  0
  7  8  2  0
  9 10  1  0
 10 20  2  0
 10 11  1  0
 11 12  2  0
 12 13  1  0
 13 14  1  0
 15 14  1  1
 16 15  1  0
 16  7  1  0
 17 15  1  0
 17 18  2  0
 19 13  2  0
 20 19  1  0
 22 21  1  0
 22 23  1  0
 23 24  1  0
 25 24  1  1
 25 27  1  0
 26 25  1  0
 26 17  1  0
 27 28  2  0
 27 29  1  0
M  END
$$$$
