QSF.pdb
     RDKit          3D

 27 27  0  0  1  0  0  0  0  0999 V2000
    7.9439  -12.7173   18.7108 N   0  0  0  0  0  0  0  0  0  0  0  0
    8.0612  -13.3682   17.4552 C   0  0  0  0  0  0  0  0  0  0  0  0
    7.7739  -12.7167   16.4270 O   0  0  0  0  0  0  0  0  0  0  0  0
    8.5041  -14.7552   17.3637 C   0  0  0  0  0  0  0  0  0  0  0  0
    8.8042  -15.4108   18.6635 C   0  0  0  0  0  0  0  0  0  0  0  0
    9.0773  -16.8751   18.6148 C   0  0  2  0  0  0  0  0  0  0  0  0
    8.1114  -17.6107   17.8302 N   0  0  0  0  0  0  0  0  0  0  0  0
    9.0294  -17.3867   20.0069 C   0  0  0  0  0  0  0  0  0  0  0  0
    7.9405  -17.5071   20.6340 O   0  0  0  0  0  0  0  0  0  0  0  0
   12.5741  -18.7877   21.5128 O   0  0  0  0  0  0  0  0  0  0  0  0
   11.3912  -19.3658   21.9588 C   0  0  0  0  0  0  0  0  0  0  0  0
   10.2516  -18.3510   21.9818 C   0  0  2  0  0  0  0  0  0  0  0  0
   10.2099  -17.7525   20.6646 N   0  0  0  0  0  0  0  0  0  0  0  0
   10.5193  -17.2771   22.9675 C   0  0  0  0  0  0  0  0  0  0  0  0
   11.0839  -16.2113   22.5701 O   0  0  0  0  0  0  0  0  0  0  0  0
   10.1531  -17.4356   24.3248 N   0  0  0  0  0  0  0  0  0  0  0  0
   10.4647  -16.3741   25.2666 C   0  0  1  0  0  0  0  0  0  0  0  0
    9.2547  -16.2436   26.1729 C   0  0  0  0  0  0  0  0  0  0  0  0
    9.4302  -15.3030   27.2794 C   0  0  0  0  0  0  0  0  0  0  0  0
    9.9271  -15.7427   28.4759 C   0  0  0  0  0  0  0  0  0  0  0  0
   10.0925  -14.8435   29.5076 C   0  0  0  0  0  0  0  0  0  0  0  0
    9.7564  -13.5274   29.3162 C   0  0  0  0  0  0  0  0  0  0  0  0
    9.2564  -13.0942   28.1073 C   0  0  0  0  0  0  0  0  0  0  0  0
    9.0851  -13.9635   27.0761 C   0  0  0  0  0  0  0  0  0  0  0  0
   11.6476  -16.7598   26.0443 C   0  0  0  0  0  0  0  0  0  0  0  0
   12.5577  -15.9291   26.3023 O   0  0  0  0  0  0  0  0  0  0  0  0
   11.8341  -18.0454   26.5378 O   0  0  0  0  0  0  0  0  0  0  0  0
  1  2  1  0
  2  4  1  0
  2  3  2  0
  4  5  1  0
  6  8  1  0
  6  5  1  0
  6  7  1  6
  8 13  1  0
  9  8  2  0
 10 11  1  0
 12 11  1  6
 12 14  1  0
 13 12  1  0
 14 16  1  0
 14 15  2  0
 16 17  1  0
 17 25  1  0
 18 19  1  0
 17 18  1  1
 19 20  2  0
 19 24  1  0
 20 21  1  0
 21 22  2  0
 23 22  1  0
 24 23  2  0
 25 26  2  0
 25 27  1  0
M  END
$$$$
