QSF.pdb
     RDKit          3D

 27 27  0  0  1  0  0  0  0  0999 V2000
    9.9345  -21.9357   18.8517 N   0  0  0  0  0  0  0  0  0  0  0  0
   10.0289  -21.7356   20.2535 C   0  0  0  0  0  0  0  0  0  0  0  0
   11.1689  -21.7046   20.7667 O   0  0  0  0  0  0  0  0  0  0  0  0
    8.8336  -21.5702   21.0733 C   0  0  0  0  0  0  0  0  0  0  0  0
    8.7745  -20.3100   21.8593 C   0  0  0  0  0  0  0  0  0  0  0  0
    7.7659  -19.3055   21.4181 C   0  0  2  0  0  0  0  0  0  0  0  0
    7.2196  -19.5814   20.1085 N   0  0  0  0  0  0  0  0  0  0  0  0
    8.4400  -17.9844   21.3698 C   0  0  0  0  0  0  0  0  0  0  0  0
    9.5045  -17.8046   20.7156 O   0  0  0  0  0  0  0  0  0  0  0  0
    6.1460  -15.0019   22.2506 O   0  0  0  0  0  0  0  0  0  0  0  0
    7.3541  -14.6036   21.6900 C   0  0  0  0  0  0  0  0  0  0  0  0
    8.4803  -15.5658   22.0572 C   0  0  2  0  0  0  0  0  0  0  0  0
    7.9010  -16.8921   22.0599 N   0  0  0  0  0  0  0  0  0  0  0  0
    8.9937  -15.2845   23.4188 C   0  0  0  0  0  0  0  0  0  0  0  0
    9.5618  -14.1701   23.6383 O   0  0  0  0  0  0  0  0  0  0  0  0
    8.8539  -16.2384   24.4542 N   0  0  0  0  0  0  0  0  0  0  0  0
    9.4495  -15.9628   25.7504 C   0  0  1  0  0  0  0  0  0  0  0  0
    8.2949  -15.7071   26.7011 C   0  0  0  0  0  0  0  0  0  0  0  0
    7.7014  -14.3753   26.5828 C   0  0  0  0  0  0  0  0  0  0  0  0
    6.4813  -14.2233   25.9829 C   0  0  0  0  0  0  0  0  0  0  0  0
    5.9319  -12.9628   25.8841 C   0  0  0  0  0  0  0  0  0  0  0  0
    6.6171  -11.8865   26.3879 C   0  0  0  0  0  0  0  0  0  0  0  0
    7.8457  -12.0500   26.9903 C   0  0  0  0  0  0  0  0  0  0  0  0
    8.4064  -13.2837   27.0988 C   0  0  0  0  0  0  0  0  0  0  0  0
   10.2169  -17.1368   26.1810 C   0  0  0  0  0  0  0  0  0  0  0  0
   10.2551  -18.1832   25.4821 O   0  0  0  0  0  0  0  0  0  0  0  0
   10.9390  -17.1667   27.3680 O   0  0  0  0  0  0  0  0  0  0  0  0
  1  2  1  0
  2  4  1  0
  2  3  2  0
  4  5  1  0
  6  8  1  0
  6  5  1  0
  6  7  1  6
  8 13  1  0
  9  8  2  0
 10 11  1  0
 12 11  1  1
 12 14  1  0
 13 12  1  0
 14 16  1  0
 14 15  2  0
 16 17  1  0
 17 25  1  0
 18 19  1  0
 17 18  1  1
 19 20  2  0
 19 24  1  0
 20 21  1  0
 21 22  2  0
 23 22  1  0
 24 23  2  0
 25 26  2  0
 25 27  1  0
M  END
$$$$
