QSF.pdb
     RDKit          3D

 27 27  0  0  1  0  0  0  0  0999 V2000
    6.8313  -13.0005   17.0527 N   0  0  0  0  0  0  0  0  0  0  0  0
    7.9131  -13.7362   16.5026 C   0  0  0  0  0  0  0  0  0  0  0  0
    7.9703  -13.8547   15.2589 O   0  0  0  0  0  0  0  0  0  0  0  0
    8.9295  -14.3364   17.3598 C   0  0  0  0  0  0  0  0  0  0  0  0
    8.6905  -14.1943   18.8199 C   0  0  0  0  0  0  0  0  0  0  0  0
    9.6876  -14.8445   19.7167 C   0  0  2  0  0  0  0  0  0  0  0  0
   10.3071  -16.0119   19.1311 N   0  0  0  0  0  0  0  0  0  0  0  0
    8.9751  -15.2667   20.9480 C   0  0  0  0  0  0  0  0  0  0  0  0
    7.9343  -14.6759   21.3497 O   0  0  0  0  0  0  0  0  0  0  0  0
   10.3568  -18.7128   22.7345 O   0  0  0  0  0  0  0  0  0  0  0  0
    8.9951  -18.4340   22.7551 C   0  0  0  0  0  0  0  0  0  0  0  0
    8.7371  -16.9312   22.8180 C   0  0  2  0  0  0  0  0  0  0  0  0
    9.4497  -16.3465   21.7021 N   0  0  0  0  0  0  0  0  0  0  0  0
    9.2839  -16.3523   24.0680 C   0  0  0  0  0  0  0  0  0  0  0  0
   10.4366  -15.8202   24.0406 O   0  0  0  0  0  0  0  0  0  0  0  0
    8.5367  -16.3914   25.2687 N   0  0  0  0  0  0  0  0  0  0  0  0
    9.1520  -15.9176   26.4965 C   0  0  1  0  0  0  0  0  0  0  0  0
    8.0389  -15.2864   27.3118 C   0  0  0  0  0  0  0  0  0  0  0  0
    7.5867  -13.9888   26.8101 C   0  0  0  0  0  0  0  0  0  0  0  0
    6.3782  -13.8857   26.1774 C   0  0  0  0  0  0  0  0  0  0  0  0
    5.9627  -12.6551   25.7153 C   0  0  0  0  0  0  0  0  0  0  0  0
    6.7671  -11.5590   25.8978 C   0  0  0  0  0  0  0  0  0  0  0  0
    7.9831  -11.6731   26.5362 C   0  0  0  0  0  0  0  0  0  0  0  0
    8.4126  -12.8767   27.0000 C   0  0  0  0  0  0  0  0  0  0  0  0
    9.7262  -17.0617   27.2135 C   0  0  0  0  0  0  0  0  0  0  0  0
   10.3934  -16.9018   28.2690 O   0  0  0  0  0  0  0  0  0  0  0  0
    9.5712  -18.3729   26.7799 O   0  0  0  0  0  0  0  0  0  0  0  0
  1  2  1  0
  2  4  1  0
  2  3  2  0
  4  5  1  0
  6  8  1  0
  6  5  1  0
  6  7  1  6
  8 13  1  0
  9  8  2  0
 10 11  1  0
 12 11  1  1
 12 14  1  0
 13 12  1  0
 14 16  1  0
 14 15  2  0
 16 17  1  0
 17 25  1  0
 18 19  1  0
 17 18  1  1
 19 20  2  0
 19 24  1  0
 20 21  1  0
 21 22  2  0
 23 22  1  0
 24 23  2  0
 25 26  2  0
 25 27  1  0
M  END
$$$$
