QSF.pdb
     RDKit          3D

 27 27  0  0  1  0  0  0  0  0999 V2000
    3.0212  -20.7556   19.9380 N   0  0  0  0  0  0  0  0  0  0  0  0
    4.4092  -20.4922   20.0728 C   0  0  0  0  0  0  0  0  0  0  0  0
    5.1226  -21.3651   20.6142 O   0  0  0  0  0  0  0  0  0  0  0  0
    4.9890  -19.2419   19.5943 C   0  0  0  0  0  0  0  0  0  0  0  0
    6.4594  -19.1170   19.7725 C   0  0  0  0  0  0  0  0  0  0  0  0
    6.9353  -18.8671   21.1624 C   0  0  2  0  0  0  0  0  0  0  0  0
    5.8635  -18.5914   22.0925 N   0  0  0  0  0  0  0  0  0  0  0  0
    7.8308  -17.6845   21.1240 C   0  0  0  0  0  0  0  0  0  0  0  0
    8.8192  -17.6240   20.3411 O   0  0  0  0  0  0  0  0  0  0  0  0
    6.4227  -14.1912   21.9586 O   0  0  0  0  0  0  0  0  0  0  0  0
    7.7230  -14.2671   21.4731 C   0  0  0  0  0  0  0  0  0  0  0  0
    8.4738  -15.4491   22.0799 C   0  0  2  0  0  0  0  0  0  0  0  0
    7.5945  -16.5933   21.9687 N   0  0  0  0  0  0  0  0  0  0  0  0
    8.7504  -15.2187   23.5176 C   0  0  0  0  0  0  0  0  0  0  0  0
    8.5124  -14.0718   24.0083 O   0  0  0  0  0  0  0  0  0  0  0  0
    9.2695  -16.2556   24.3280 N   0  0  0  0  0  0  0  0  0  0  0  0
    9.5412  -15.9848   25.7293 C   0  0  1  0  0  0  0  0  0  0  0  0
    8.2232  -15.5449   26.3389 C   0  0  0  0  0  0  0  0  0  0  0  0
    8.0420  -14.0945   26.3987 C   0  0  0  0  0  0  0  0  0  0  0  0
    8.9727  -13.3165   27.0312 C   0  0  0  0  0  0  0  0  0  0  0  0
    8.7915  -11.9506   27.0744 C   0  0  0  0  0  0  0  0  0  0  0  0
    7.6836  -11.3979   26.4837 C   0  0  0  0  0  0  0  0  0  0  0  0
    6.7516  -12.1901   25.8491 C   0  0  0  0  0  0  0  0  0  0  0  0
    6.9101  -13.5392   25.7944 C   0  0  0  0  0  0  0  0  0  0  0  0
   10.0151  -17.2172   26.3691 C   0  0  0  0  0  0  0  0  0  0  0  0
    9.9971  -18.3178   25.7582 O   0  0  0  0  0  0  0  0  0  0  0  0
   10.5067  -17.2463   27.6686 O   0  0  0  0  0  0  0  0  0  0  0  0
  1  2  1  0
  2  4  1  0
  2  3  2  0
  4  5  1  0
  6  8  1  0
  6  5  1  0
  6  7  1  1
  8 13  1  0
  9  8  2  0
 10 11  1  0
 12 11  1  1
 12 14  1  0
 13 12  1  0
 14 16  1  0
 14 15  2  0
 16 17  1  0
 17 25  1  0
 18 19  1  0
 17 18  1  1
 19 20  2  0
 19 24  1  0
 20 21  1  0
 21 22  2  0
 23 22  1  0
 24 23  2  0
 25 26  2  0
 25 27  1  0
M  END
$$$$
