QSF.pdb
     RDKit          3D

 27 27  0  0  1  0  0  0  0  0999 V2000
   12.0727  -20.3825   25.1931 N   0  0  0  0  0  0  0  0  0  0  0  0
   12.6363  -20.2593   23.8965 C   0  0  0  0  0  0  0  0  0  0  0  0
   13.7353  -20.8149   23.6788 O   0  0  0  0  0  0  0  0  0  0  0  0
   11.9558  -19.5082   22.8471 C   0  0  0  0  0  0  0  0  0  0  0  0
   10.6082  -18.9954   23.2081 C   0  0  0  0  0  0  0  0  0  0  0  0
    9.8622  -18.2878   22.1294 C   0  0  2  0  0  0  0  0  0  0  0  0
   10.5035  -18.3786   20.8370 N   0  0  0  0  0  0  0  0  0  0  0  0
    9.7805  -16.8549   22.5063 C   0  0  0  0  0  0  0  0  0  0  0  0
   10.8048  -16.1941   22.8341 O   0  0  0  0  0  0  0  0  0  0  0  0
    6.3072  -15.0406   21.5775 O   0  0  0  0  0  0  0  0  0  0  0  0
    7.4403  -14.2449   21.7010 C   0  0  0  0  0  0  0  0  0  0  0  0
    8.3816  -14.7825   22.7753 C   0  0  2  0  0  0  0  0  0  0  0  0
    8.5457  -16.1951   22.5061 N   0  0  0  0  0  0  0  0  0  0  0  0
    7.7838  -14.6368   24.1236 C   0  0  0  0  0  0  0  0  0  0  0  0
    7.1729  -15.6282   24.6304 O   0  0  0  0  0  0  0  0  0  0  0  0
    7.8911  -13.4174   24.8328 N   0  0  0  0  0  0  0  0  0  0  0  0
    7.1757  -13.2680   26.0884 C   0  0  1  0  0  0  0  0  0  0  0  0
    8.1928  -12.7709   27.0987 C   0  0  0  0  0  0  0  0  0  0  0  0
    9.1352  -13.7918   27.5564 C   0  0  0  0  0  0  0  0  0  0  0  0
   10.2027  -14.1349   26.7727 C   0  0  0  0  0  0  0  0  0  0  0  0
   11.0858  -15.0944   27.2200 C   0  0  0  0  0  0  0  0  0  0  0  0
   10.8781  -15.6864   28.4398 C   0  0  0  0  0  0  0  0  0  0  0  0
    9.7995  -15.3342   29.2219 C   0  0  0  0  0  0  0  0  0  0  0  0
    8.9163  -14.3904   28.8008 C   0  0  0  0  0  0  0  0  0  0  0  0
    6.1050  -12.2806   25.9117 C   0  0  0  0  0  0  0  0  0  0  0  0
    6.0918  -11.5029   24.9217 O   0  0  0  0  0  0  0  0  0  0  0  0
    5.0543  -12.1445   26.8110 O   0  0  0  0  0  0  0  0  0  0  0  0
  1  2  1  0
  2  4  1  0
  2  3  2  0
  4  5  1  0
  6  8  1  0
  6  5  1  0
  6  7  1  6
  8 13  1  0
  9  8  2  0
 10 11  1  0
 12 11  1  6
 12 14  1  0
 13 12  1  0
 14 16  1  0
 14 15  2  0
 16 17  1  0
 17 25  1  0
 18 19  1  0
 17 18  1  1
 19 20  2  0
 19 24  1  0
 20 21  1  0
 21 22  2  0
 23 22  1  0
 24 23  2  0
 25 26  2  0
 25 27  1  0
M  END
$$$$
