QSF.pdb
     RDKit          3D

 27 27  0  0  1  0  0  0  0  0999 V2000
    2.1563  -20.8619   21.0144 N   0  0  0  0  0  0  0  0  0  0  0  0
    1.9071  -19.4648   21.0027 C   0  0  0  0  0  0  0  0  0  0  0  0
    0.7182  -19.0810   20.9456 O   0  0  0  0  0  0  0  0  0  0  0  0
    3.0029  -18.5032   21.0565 C   0  0  0  0  0  0  0  0  0  0  0  0
    4.3661  -19.0948   21.0259 C   0  0  0  0  0  0  0  0  0  0  0  0
    5.2491  -18.7743   22.1829 C   0  0  2  0  0  0  0  0  0  0  0  0
    4.5539  -18.1195   23.2680 N   0  0  0  0  0  0  0  0  0  0  0  0
    6.3125  -17.8611   21.6960 C   0  0  0  0  0  0  0  0  0  0  0  0
    6.9953  -18.1240   20.6673 O   0  0  0  0  0  0  0  0  0  0  0  0
    8.1185  -13.7837   20.8077 O   0  0  0  0  0  0  0  0  0  0  0  0
    7.1164  -14.6349   21.2592 C   0  0  0  0  0  0  0  0  0  0  0  0
    7.6946  -15.7932   22.0673 C   0  0  2  0  0  0  0  0  0  0  0  0
    6.5853  -16.6694   22.3782 N   0  0  0  0  0  0  0  0  0  0  0  0
    8.2728  -15.3111   23.3440 C   0  0  0  0  0  0  0  0  0  0  0  0
    8.0685  -14.1063   23.6896 O   0  0  0  0  0  0  0  0  0  0  0  0
    9.0375  -16.1758   24.1621 N   0  0  0  0  0  0  0  0  0  0  0  0
    9.4099  -15.7363   25.4958 C   0  0  1  0  0  0  0  0  0  0  0  0
    8.1145  -15.6017   26.2744 C   0  0  0  0  0  0  0  0  0  0  0  0
    7.5666  -14.2456   26.3015 C   0  0  0  0  0  0  0  0  0  0  0  0
    8.3164  -13.2170   26.8030 C   0  0  0  0  0  0  0  0  0  0  0  0
    7.7889  -11.9434   26.8165 C   0  0  0  0  0  0  0  0  0  0  0  0
    6.5247  -11.7314   26.3281 C   0  0  0  0  0  0  0  0  0  0  0  0
    5.7771  -12.7742   25.8253 C   0  0  0  0  0  0  0  0  0  0  0  0
    6.2773  -14.0381   25.8021 C   0  0  0  0  0  0  0  0  0  0  0  0
   10.2723  -16.7529   26.1085 C   0  0  0  0  0  0  0  0  0  0  0  0
   11.0901  -16.4527   27.0173 O   0  0  0  0  0  0  0  0  0  0  0  0
   10.2403  -18.0899   25.7309 O   0  0  0  0  0  0  0  0  0  0  0  0
  1  2  1  0
  2  4  1  0
  2  3  2  0
  4  5  1  0
  6  8  1  0
  6  5  1  0
  6  7  1  1
  8 13  1  0
  9  8  2  0
 10 11  1  0
 12 11  1  6
 12 14  1  0
 13 12  1  0
 14 16  1  0
 14 15  2  0
 16 17  1  0
 17 25  1  0
 18 19  1  0
 17 18  1  1
 19 20  2  0
 19 24  1  0
 20 21  1  0
 21 22  2  0
 23 22  1  0
 24 23  2  0
 25 26  2  0
 25 27  1  0
M  END
$$$$
