QSF.pdb
     RDKit          3D

 27 27  0  0  1  0  0  0  0  0999 V2000
    6.9003  -14.6481   16.9252 N   0  0  0  0  0  0  0  0  0  0  0  0
    7.6716  -13.4613   17.0280 C   0  0  0  0  0  0  0  0  0  0  0  0
    8.0113  -12.8883   15.9696 O   0  0  0  0  0  0  0  0  0  0  0  0
    8.0573  -12.9234   18.3281 C   0  0  0  0  0  0  0  0  0  0  0  0
    8.0596  -13.9053   19.4440 C   0  0  0  0  0  0  0  0  0  0  0  0
    9.3083  -14.6996   19.6194 C   0  0  2  0  0  0  0  0  0  0  0  0
    9.6557  -15.4827   18.4551 N   0  0  0  0  0  0  0  0  0  0  0  0
    9.0922  -15.6296   20.7554 C   0  0  0  0  0  0  0  0  0  0  0  0
    8.0019  -16.2462   20.9119 O   0  0  0  0  0  0  0  0  0  0  0  0
   12.4334  -16.7095   23.0689 O   0  0  0  0  0  0  0  0  0  0  0  0
   11.3980  -17.5677   22.7170 C   0  0  0  0  0  0  0  0  0  0  0  0
   10.0516  -16.8494   22.7343 C   0  0  2  0  0  0  0  0  0  0  0  0
   10.1094  -15.8461   21.6927 N   0  0  0  0  0  0  0  0  0  0  0  0
    9.8370  -16.1586   24.0279 C   0  0  0  0  0  0  0  0  0  0  0  0
    9.8412  -14.8888   24.0494 O   0  0  0  0  0  0  0  0  0  0  0  0
    9.6315  -16.8987   25.2159 N   0  0  0  0  0  0  0  0  0  0  0  0
    9.3136  -16.1875   26.4423 C   0  0  1  0  0  0  0  0  0  0  0  0
    7.8634  -15.7585   26.3192 C   0  0  0  0  0  0  0  0  0  0  0  0
    7.6556  -14.3122   26.3893 C   0  0  0  0  0  0  0  0  0  0  0  0
    6.7007  -13.7217   25.6076 C   0  0  0  0  0  0  0  0  0  0  0  0
    6.5121  -12.3585   25.6890 C   0  0  0  0  0  0  0  0  0  0  0  0
    7.2839  -11.6208   26.5503 C   0  0  0  0  0  0  0  0  0  0  0  0
    8.2434  -12.2248   27.3335 C   0  0  0  0  0  0  0  0  0  0  0  0
    8.4464  -13.5675   27.2696 C   0  0  0  0  0  0  0  0  0  0  0  0
    9.4829  -17.0996   27.5790 C   0  0  0  0  0  0  0  0  0  0  0  0
    9.2952  -18.3382   27.4550 O   0  0  0  0  0  0  0  0  0  0  0  0
    9.8561  -16.6605   28.8436 O   0  0  0  0  0  0  0  0  0  0  0  0
  1  2  1  0
  2  4  1  0
  2  3  2  0
  4  5  1  0
  6  8  1  0
  6  5  1  0
  6  7  1  6
  8 13  1  0
  9  8  2  0
 10 11  1  0
 12 11  1  1
 12 14  1  0
 13 12  1  0
 14 16  1  0
 14 15  2  0
 16 17  1  0
 17 25  1  0
 18 19  1  0
 17 18  1  6
 19 20  2  0
 19 24  1  0
 20 21  1  0
 21 22  2  0
 23 22  1  0
 24 23  2  0
 25 26  2  0
 25 27  1  0
M  END
$$$$
