QSF.pdb
     RDKit          3D

 27 27  0  0  1  0  0  0  0  0999 V2000
    7.4076  -12.8515   18.3276 N   0  0  0  0  0  0  0  0  0  0  0  0
    8.1659  -13.5440   17.3480 C   0  0  0  0  0  0  0  0  0  0  0  0
    7.9838  -13.2474   16.1468 O   0  0  0  0  0  0  0  0  0  0  0  0
    9.1299  -14.5708   17.7282 C   0  0  0  0  0  0  0  0  0  0  0  0
    9.1713  -14.8942   19.1784 C   0  0  0  0  0  0  0  0  0  0  0  0
    9.0344  -16.3345   19.5359 C   0  0  2  0  0  0  0  0  0  0  0  0
    8.3879  -17.1193   18.5084 N   0  0  0  0  0  0  0  0  0  0  0  0
    8.2100  -16.4145   20.7673 C   0  0  0  0  0  0  0  0  0  0  0  0
    7.0316  -15.9640   20.8089 O   0  0  0  0  0  0  0  0  0  0  0  0
    7.1000  -19.1413   24.3597 O   0  0  0  0  0  0  0  0  0  0  0  0
    7.8185  -18.7760   23.2271 C   0  0  0  0  0  0  0  0  0  0  0  0
    7.9556  -17.2597   23.1220 C   0  0  2  0  0  0  0  0  0  0  0  0
    8.7304  -17.0006   21.9273 N   0  0  0  0  0  0  0  0  0  0  0  0
    8.7004  -16.7142   24.2814 C   0  0  0  0  0  0  0  0  0  0  0  0
    9.9656  -16.6309   24.2093 O   0  0  0  0  0  0  0  0  0  0  0  0
    8.0159  -16.2943   25.4462 N   0  0  0  0  0  0  0  0  0  0  0  0
    8.7875  -15.8640   26.5996 C   0  0  1  0  0  0  0  0  0  0  0  0
    7.8570  -15.0041   27.4345 C   0  0  0  0  0  0  0  0  0  0  0  0
    7.5043  -13.7251   26.8182 C   0  0  0  0  0  0  0  0  0  0  0  0
    8.4562  -13.0045   26.1503 C   0  0  0  0  0  0  0  0  0  0  0  0
    8.1075  -11.8038   25.5694 C   0  0  0  0  0  0  0  0  0  0  0  0
    6.8154  -11.3547   25.6719 C   0  0  0  0  0  0  0  0  0  0  0  0
    5.8637  -12.0879   26.3471 C   0  0  0  0  0  0  0  0  0  0  0  0
    6.1853  -13.2745   26.9273 C   0  0  0  0  0  0  0  0  0  0  0  0
    9.2098  -17.0468   27.3580 C   0  0  0  0  0  0  0  0  0  0  0  0
    8.7642  -18.1915   27.0825 O   0  0  0  0  0  0  0  0  0  0  0  0
   10.1144  -16.9790   28.4107 O   0  0  0  0  0  0  0  0  0  0  0  0
  1  2  1  0
  2  4  1  0
  2  3  2  0
  4  5  1  0
  6  8  1  0
  6  5  1  0
  6  7  1  6
  8 13  1  0
  9  8  2  0
 10 11  1  0
 12 11  1  1
 12 14  1  0
 13 12  1  0
 14 16  1  0
 14 15  2  0
 16 17  1  0
 17 25  1  0
 18 19  1  0
 17 18  1  1
 19 20  2  0
 19 24  1  0
 20 21  1  0
 21 22  2  0
 23 22  1  0
 24 23  2  0
 25 26  2  0
 25 27  1  0
M  END
$$$$
