QSF.pdb
     RDKit          3D

 27 27  0  0  1  0  0  0  0  0999 V2000
   12.4848  -13.6495   20.7064 N   0  0  0  0  0  0  0  0  0  0  0  0
   12.1850  -13.2555   19.3764 C   0  0  0  0  0  0  0  0  0  0  0  0
   13.0828  -13.3706   18.5134 O   0  0  0  0  0  0  0  0  0  0  0  0
   10.8697  -12.7322   19.0237 C   0  0  0  0  0  0  0  0  0  0  0  0
    9.7362  -13.2878   19.8085 C   0  0  0  0  0  0  0  0  0  0  0  0
    9.0356  -14.4608   19.2133 C   0  0  2  0  0  0  0  0  0  0  0  0
    8.0246  -14.0929   18.2478 N   0  0  0  0  0  0  0  0  0  0  0  0
    8.3740  -15.1966   20.3192 C   0  0  0  0  0  0  0  0  0  0  0  0
    7.1452  -15.0547   20.5707 O   0  0  0  0  0  0  0  0  0  0  0  0
   10.3311  -18.4214   21.8338 O   0  0  0  0  0  0  0  0  0  0  0  0
    8.9532  -18.2972   21.9699 C   0  0  0  0  0  0  0  0  0  0  0  0
    8.5479  -16.8455   22.2099 C   0  0  2  0  0  0  0  0  0  0  0  0
    9.1107  -16.0778   21.1196 N   0  0  0  0  0  0  0  0  0  0  0  0
    9.1249  -16.3376   23.4770 C   0  0  0  0  0  0  0  0  0  0  0  0
   10.2656  -15.7802   23.4476 O   0  0  0  0  0  0  0  0  0  0  0  0
    8.4192  -16.4709   24.6960 N   0  0  0  0  0  0  0  0  0  0  0  0
    9.0222  -15.9656   25.9174 C   0  0  1  0  0  0  0  0  0  0  0  0
    7.8844  -15.4074   26.7518 C   0  0  0  0  0  0  0  0  0  0  0  0
    7.5589  -14.0099   26.4677 C   0  0  0  0  0  0  0  0  0  0  0  0
    8.4163  -13.0173   26.8565 C   0  0  0  0  0  0  0  0  0  0  0  0
    8.0989  -11.7053   26.5765 C   0  0  0  0  0  0  0  0  0  0  0  0
    6.9318  -11.4198   25.9147 C   0  0  0  0  0  0  0  0  0  0  0  0
    6.0744  -12.4267   25.5273 C   0  0  0  0  0  0  0  0  0  0  0  0
    6.3673  -13.7274   25.7929 C   0  0  0  0  0  0  0  0  0  0  0  0
    9.6758  -17.0754   26.6201 C   0  0  0  0  0  0  0  0  0  0  0  0
   10.3355  -16.8814   27.6746 O   0  0  0  0  0  0  0  0  0  0  0  0
    9.6080  -18.3896   26.1734 O   0  0  0  0  0  0  0  0  0  0  0  0
  1  2  1  0
  2  4  1  0
  2  3  2  0
  4  5  1  0
  6  8  1  0
  6  5  1  0
  6  7  1  6
  8 13  1  0
  9  8  2  0
 10 11  1  0
 12 11  1  6
 12 14  1  0
 13 12  1  0
 14 16  1  0
 14 15  2  0
 16 17  1  0
 17 25  1  0
 18 19  1  0
 17 18  1  1
 19 20  2  0
 19 24  1  0
 20 21  1  0
 21 22  2  0
 23 22  1  0
 24 23  2  0
 25 26  2  0
 25 27  1  0
M  END
$$$$
