QSF.pdb
     RDKit          3D

 27 27  0  0  1  0  0  0  0  0999 V2000
    7.0184  -14.4619   15.8498 N   0  0  0  0  0  0  0  0  0  0  0  0
    8.0531  -13.7039   16.4573 C   0  0  0  0  0  0  0  0  0  0  0  0
    9.2158  -13.8389   16.0171 O   0  0  0  0  0  0  0  0  0  0  0  0
    7.7713  -12.7934   17.5617 C   0  0  0  0  0  0  0  0  0  0  0  0
    7.5183  -13.4473   18.8724 C   0  0  0  0  0  0  0  0  0  0  0  0
    8.7235  -13.8541   19.6488 C   0  0  2  0  0  0  0  0  0  0  0  0
    9.6313  -14.6915   18.8976 N   0  0  0  0  0  0  0  0  0  0  0  0
    8.2576  -14.6203   20.8312 C   0  0  0  0  0  0  0  0  0  0  0  0
    7.4277  -14.1382   21.6511 O   0  0  0  0  0  0  0  0  0  0  0  0
   10.2249  -18.1983   22.0062 O   0  0  0  0  0  0  0  0  0  0  0  0
    8.8415  -18.1511   21.8789 C   0  0  0  0  0  0  0  0  0  0  0  0
    8.3052  -16.7514   22.1655 C   0  0  2  0  0  0  0  0  0  0  0  0
    8.7364  -15.9148   21.0659 N   0  0  0  0  0  0  0  0  0  0  0  0
    8.8879  -16.2070   23.4147 C   0  0  0  0  0  0  0  0  0  0  0  0
    9.9885  -15.5766   23.3503 O   0  0  0  0  0  0  0  0  0  0  0  0
    8.2315  -16.3858   24.6551 N   0  0  0  0  0  0  0  0  0  0  0  0
    8.8696  -15.8984   25.8659 C   0  0  1  0  0  0  0  0  0  0  0  0
    7.7544  -15.3709   26.7494 C   0  0  0  0  0  0  0  0  0  0  0  0
    7.4455  -13.9553   26.5481 C   0  0  0  0  0  0  0  0  0  0  0  0
    8.4100  -13.1071   26.0772 C   0  0  0  0  0  0  0  0  0  0  0  0
    8.1024  -11.7768   25.8868 C   0  0  0  0  0  0  0  0  0  0  0  0
    6.8377  -11.3291   26.1726 C   0  0  0  0  0  0  0  0  0  0  0  0
    5.8730  -12.1913   26.6468 C   0  0  0  0  0  0  0  0  0  0  0  0
    6.1542  -13.5070   26.8419 C   0  0  0  0  0  0  0  0  0  0  0  0
    9.5588  -17.0146   26.5231 C   0  0  0  0  0  0  0  0  0  0  0  0
   10.2308  -16.8387   27.5730 O   0  0  0  0  0  0  0  0  0  0  0  0
    9.5131  -18.3153   26.0362 O   0  0  0  0  0  0  0  0  0  0  0  0
  1  2  1  0
  2  4  1  0
  2  3  2  0
  4  5  1  0
  6  8  1  0
  6  5  1  0
  6  7  1  6
  8 13  1  0
  9  8  2  0
 10 11  1  0
 12 11  1  6
 12 14  1  0
 13 12  1  0
 14 16  1  0
 14 15  2  0
 16 17  1  0
 17 25  1  0
 18 19  1  0
 17 18  1  1
 19 20  2  0
 19 24  1  0
 20 21  1  0
 21 22  2  0
 23 22  1  0
 24 23  2  0
 25 26  2  0
 25 27  1  0
M  END
$$$$
