QSF.pdb
     RDKit          3D

 27 27  0  0  1  0  0  0  0  0999 V2000
   10.0541  -13.4953   17.7559 N   0  0  0  0  0  0  0  0  0  0  0  0
    8.7633  -13.1424   17.2831 C   0  0  0  0  0  0  0  0  0  0  0  0
    8.6709  -12.6600   16.1330 O   0  0  0  0  0  0  0  0  0  0  0  0
    7.5782  -13.3364   18.1115 C   0  0  0  0  0  0  0  0  0  0  0  0
    7.8000  -14.1070   19.3630 C   0  0  0  0  0  0  0  0  0  0  0  0
    8.1323  -15.5503   19.1975 C   0  0  2  0  0  0  0  0  0  0  0  0
    7.1004  -16.2997   18.5169 N   0  0  0  0  0  0  0  0  0  0  0  0
    8.3073  -16.1285   20.5528 C   0  0  0  0  0  0  0  0  0  0  0  0
    7.3439  -16.2292   21.3623 O   0  0  0  0  0  0  0  0  0  0  0  0
   12.2169  -17.1075   22.0657 O   0  0  0  0  0  0  0  0  0  0  0  0
   11.1307  -17.9742   22.1014 C   0  0  0  0  0  0  0  0  0  0  0  0
    9.8168  -17.2117   22.2475 C   0  0  2  0  0  0  0  0  0  0  0  0
    9.5648  -16.5818   20.9690 N   0  0  0  0  0  0  0  0  0  0  0  0
    9.9344  -16.1461   23.2709 C   0  0  0  0  0  0  0  0  0  0  0  0
   10.2254  -14.9686   22.8947 O   0  0  0  0  0  0  0  0  0  0  0  0
    9.7268  -16.4346   24.6403 N   0  0  0  0  0  0  0  0  0  0  0  0
    9.4267  -15.3437   25.5518 C   0  0  1  0  0  0  0  0  0  0  0  0
    8.1614  -14.6902   25.0279 C   0  0  0  0  0  0  0  0  0  0  0  0
    7.6044  -13.6644   25.9095 C   0  0  0  0  0  0  0  0  0  0  0  0
    8.4326  -12.7486   26.4987 C   0  0  0  0  0  0  0  0  0  0  0  0
    7.8925  -11.7840   27.3223 C   0  0  0  0  0  0  0  0  0  0  0  0
    6.5376  -11.7603   27.5356 C   0  0  0  0  0  0  0  0  0  0  0  0
    5.7116  -12.6873   26.9376 C   0  0  0  0  0  0  0  0  0  0  0  0
    6.2226  -13.6472   26.1217 C   0  0  0  0  0  0  0  0  0  0  0  0
    9.2015  -15.8929   26.8936 C   0  0  0  0  0  0  0  0  0  0  0  0
    9.7494  -15.3846   27.9066 O   0  0  0  0  0  0  0  0  0  0  0  0
    8.3817  -16.9904   27.1268 O   0  0  0  0  0  0  0  0  0  0  0  0
  1  2  1  0
  2  4  1  0
  2  3  2  0
  4  5  1  0
  6  8  1  0
  6  5  1  0
  6  7  1  1
  8 13  1  0
  9  8  2  0
 10 11  1  0
 12 11  1  6
 12 14  1  0
 13 12  1  0
 14 16  1  0
 14 15  2  0
 16 17  1  0
 17 25  1  0
 18 19  1  0
 17 18  1  6
 19 20  2  0
 19 24  1  0
 20 21  1  0
 21 22  2  0
 23 22  1  0
 24 23  2  0
 25 26  2  0
 25 27  1  0
M  END
$$$$
