QSF.pdb
     RDKit          3D

 27 27  0  0  1  0  0  0  0  0999 V2000
   10.5052  -19.8753   16.7279 N   0  0  0  0  0  0  0  0  0  0  0  0
   11.3996  -19.0651   17.4745 C   0  0  0  0  0  0  0  0  0  0  0  0
   12.6263  -19.2122   17.2805 O   0  0  0  0  0  0  0  0  0  0  0  0
   10.9056  -18.0887   18.4393 C   0  0  0  0  0  0  0  0  0  0  0  0
    9.7480  -18.5367   19.2570 C   0  0  0  0  0  0  0  0  0  0  0  0
    9.8997  -18.4164   20.7346 C   0  0  2  0  0  0  0  0  0  0  0  0
    8.8302  -19.0500   21.4723 N   0  0  0  0  0  0  0  0  0  0  0  0
    9.8999  -16.9706   21.0691 C   0  0  0  0  0  0  0  0  0  0  0  0
   10.9655  -16.2944   21.0958 O   0  0  0  0  0  0  0  0  0  0  0  0
    6.2310  -15.2431   21.9584 O   0  0  0  0  0  0  0  0  0  0  0  0
    7.1928  -14.4711   21.3170 C   0  0  0  0  0  0  0  0  0  0  0  0
    8.6032  -14.9105   21.7002 C   0  0  2  0  0  0  0  0  0  0  0  0
    8.6989  -16.3157   21.3670 N   0  0  0  0  0  0  0  0  0  0  0  0
    8.8242  -14.7667   23.1586 C   0  0  0  0  0  0  0  0  0  0  0  0
    8.7664  -13.6070   23.6729 O   0  0  0  0  0  0  0  0  0  0  0  0
    9.0945  -15.8989   23.9627 N   0  0  0  0  0  0  0  0  0  0  0  0
    9.1353  -15.7433   25.4066 C   0  0  1  0  0  0  0  0  0  0  0  0
    7.6907  -15.6901   25.8677 C   0  0  0  0  0  0  0  0  0  0  0  0
    7.1897  -14.3396   26.1230 C   0  0  0  0  0  0  0  0  0  0  0  0
    8.0329  -13.3811   26.6148 C   0  0  0  0  0  0  0  0  0  0  0  0
    7.5480  -12.1113   26.8448 C   0  0  0  0  0  0  0  0  0  0  0  0
    6.2317  -11.8329   26.5771 C   0  0  0  0  0  0  0  0  0  0  0  0
    5.3901  -12.8054   26.0820 C   0  0  0  0  0  0  0  0  0  0  0  0
    5.8469  -14.0641   25.8477 C   0  0  0  0  0  0  0  0  0  0  0  0
    9.8169  -16.9036   25.9914 C   0  0  0  0  0  0  0  0  0  0  0  0
   10.1250  -17.9015   25.2885 O   0  0  0  0  0  0  0  0  0  0  0  0
   10.1605  -16.9723   27.3362 O   0  0  0  0  0  0  0  0  0  0  0  0
  1  2  1  0
  2  4  1  0
  2  3  2  0
  4  5  1  0
  6  8  1  0
  6  5  1  0
  6  7  1  1
  8 13  1  0
  9  8  2  0
 10 11  1  0
 12 11  1  1
 12 14  1  0
 13 12  1  0
 14 16  1  0
 14 15  2  0
 16 17  1  0
 17 25  1  0
 18 19  1  0
 17 18  1  1
 19 20  2  0
 19 24  1  0
 20 21  1  0
 21 22  2  0
 23 22  1  0
 24 23  2  0
 25 26  2  0
 25 27  1  0
M  END
$$$$
