QSF.pdb
     RDKit          3D

 27 27  0  0  1  0  0  0  0  0999 V2000
   12.1278  -20.4002   18.7221 N   0  0  0  0  0  0  0  0  0  0  0  0
   12.0920  -19.2704   17.8641 C   0  0  0  0  0  0  0  0  0  0  0  0
   13.0990  -18.5296   17.8265 O   0  0  0  0  0  0  0  0  0  0  0  0
   10.9176  -18.9799   17.0489 C   0  0  0  0  0  0  0  0  0  0  0  0
    9.9849  -17.9726   17.6187 C   0  0  0  0  0  0  0  0  0  0  0  0
    8.9831  -18.4823   18.5973 C   0  0  2  0  0  0  0  0  0  0  0  0
    7.8178  -19.0650   17.9711 N   0  0  0  0  0  0  0  0  0  0  0  0
    8.5387  -17.3328   19.4239 C   0  0  0  0  0  0  0  0  0  0  0  0
    7.9605  -16.3324   18.9156 O   0  0  0  0  0  0  0  0  0  0  0  0
    6.2628  -17.6413   22.2148 O   0  0  0  0  0  0  0  0  0  0  0  0
    6.7040  -16.4545   21.6408 C   0  0  0  0  0  0  0  0  0  0  0  0
    8.2239  -16.3356   21.7109 C   0  0  2  0  0  0  0  0  0  0  0  0
    8.7547  -17.3337   20.8071 N   0  0  0  0  0  0  0  0  0  0  0  0
    8.7162  -16.6410   23.0751 C   0  0  0  0  0  0  0  0  0  0  0  0
    8.2731  -17.6739   23.6665 O   0  0  0  0  0  0  0  0  0  0  0  0
    9.6612  -15.7988   23.7068 N   0  0  0  0  0  0  0  0  0  0  0  0
    9.2270  -14.9531   24.8054 C   0  0  1  0  0  0  0  0  0  0  0  0
    8.0230  -14.1826   24.2963 C   0  0  0  0  0  0  0  0  0  0  0  0
    7.4107  -13.2987   25.2881 C   0  0  0  0  0  0  0  0  0  0  0  0
    6.2754  -13.6912   25.9429 C   0  0  0  0  0  0  0  0  0  0  0  0
    5.7131  -12.8501   26.8792 C   0  0  0  0  0  0  0  0  0  0  0  0
    6.3007  -11.6376   27.1365 C   0  0  0  0  0  0  0  0  0  0  0  0
    7.4442  -11.2511   26.4715 C   0  0  0  0  0  0  0  0  0  0  0  0
    8.0158  -12.0646   25.5444 C   0  0  0  0  0  0  0  0  0  0  0  0
    8.8485  -15.8032   25.9397 C   0  0  0  0  0  0  0  0  0  0  0  0
    7.9737  -16.7005   25.8189 O   0  0  0  0  0  0  0  0  0  0  0  0
    9.4233  -15.6741   27.1983 O   0  0  0  0  0  0  0  0  0  0  0  0
  1  2  1  0
  2  4  1  0
  2  3  2  0
  4  5  1  0
  6  8  1  0
  6  5  1  0
  6  7  1  6
  8 13  1  0
  9  8  2  0
 10 11  1  0
 12 11  1  1
 12 14  1  0
 13 12  1  0
 14 16  1  0
 14 15  2  0
 16 17  1  0
 17 25  1  0
 18 19  1  0
 17 18  1  6
 19 20  2  0
 19 24  1  0
 20 21  1  0
 21 22  2  0
 23 22  1  0
 24 23  2  0
 25 26  2  0
 25 27  1  0
M  END
$$$$
