QSF.pdb
     RDKit          3D

 27 27  0  0  1  0  0  0  0  0999 V2000
    8.6035  -12.9831   15.4173 N   0  0  0  0  0  0  0  0  0  0  0  0
    7.7085  -14.0844   15.4354 C   0  0  0  0  0  0  0  0  0  0  0  0
    7.2643  -14.4979   14.3419 O   0  0  0  0  0  0  0  0  0  0  0  0
    7.3175  -14.7173   16.6903 C   0  0  0  0  0  0  0  0  0  0  0  0
    7.9523  -14.1513   17.9093 C   0  0  0  0  0  0  0  0  0  0  0  0
    8.7343  -15.1039   18.7472 C   0  0  2  0  0  0  0  0  0  0  0  0
    8.6110  -16.4781   18.3162 N   0  0  0  0  0  0  0  0  0  0  0  0
    8.2202  -15.0060   20.1358 C   0  0  0  0  0  0  0  0  0  0  0  0
    8.1960  -13.9092   20.7602 O   0  0  0  0  0  0  0  0  0  0  0  0
    7.2164  -18.5453   22.3640 O   0  0  0  0  0  0  0  0  0  0  0  0
    6.4015  -17.4214   22.2922 C   0  0  0  0  0  0  0  0  0  0  0  0
    7.2266  -16.1460   22.1451 C   0  0  2  0  0  0  0  0  0  0  0  0
    7.7434  -16.1465   20.7932 N   0  0  0  0  0  0  0  0  0  0  0  0
    8.3779  -16.1501   23.0784 C   0  0  0  0  0  0  0  0  0  0  0  0
    9.4829  -16.6346   22.6819 O   0  0  0  0  0  0  0  0  0  0  0  0
    8.2492  -15.6248   24.3857 N   0  0  0  0  0  0  0  0  0  0  0  0
    9.4029  -15.6429   25.2685 C   0  0  1  0  0  0  0  0  0  0  0  0
    9.6093  -14.2107   25.7250 C   0  0  0  0  0  0  0  0  0  0  0  0
    8.3954  -13.5516   26.2065 C   0  0  0  0  0  0  0  0  0  0  0  0
    7.5245  -12.9896   25.3137 C   0  0  0  0  0  0  0  0  0  0  0  0
    6.3816  -12.3772   25.7820 C   0  0  0  0  0  0  0  0  0  0  0  0
    6.1393  -12.3425   27.1318 C   0  0  0  0  0  0  0  0  0  0  0  0
    7.0229  -12.9113   28.0233 C   0  0  0  0  0  0  0  0  0  0  0  0
    8.1559  -13.5205   27.5837 C   0  0  0  0  0  0  0  0  0  0  0  0
    9.1107  -16.5090   26.4161 C   0  0  0  0  0  0  0  0  0  0  0  0
    9.9573  -16.6879   27.3305 O   0  0  0  0  0  0  0  0  0  0  0  0
    7.8999  -17.1748   26.5641 O   0  0  0  0  0  0  0  0  0  0  0  0
  1  2  1  0
  2  4  1  0
  2  3  2  0
  4  5  1  0
  6  8  1  0
  6  5  1  0
  6  7  1  6
  8 13  1  0
  9  8  2  0
 10 11  1  0
 12 11  1  6
 12 14  1  0
 13 12  1  0
 14 16  1  0
 14 15  2  0
 16 17  1  0
 17 25  1  0
 18 19  1  0
 17 18  1  1
 19 20  2  0
 19 24  1  0
 20 21  1  0
 21 22  2  0
 23 22  1  0
 24 23  2  0
 25 26  2  0
 25 27  1  0
M  END
$$$$
