KEV.pdb
     RDKit          3D

 26 25  0  0  1  0  0  0  0  0999 V2000
    9.9220  -13.7030   19.2735 N   0  0  0  0  0  0  0  0  0  0  0  0
    8.6353  -13.3804   19.8075 C   0  0  1  0  0  0  0  0  0  0  0  0
    7.4939  -13.4308   18.8573 C   0  0  0  0  0  0  0  0  0  0  0  0
    7.7729  -13.5558   17.4200 C   0  0  0  0  0  0  0  0  0  0  0  0
    7.3537  -14.7804   16.7101 C   0  0  0  0  0  0  0  0  0  0  0  0
    7.5433  -14.7292   15.2143 C   0  0  0  0  0  0  0  0  0  0  0  0
    7.1866  -16.0370   14.6813 N   0  0  0  0  0  0  0  0  0  0  0  0
    8.4017  -14.1582   21.0451 C   0  0  0  0  0  0  0  0  0  0  0  0
    7.2490  -14.0419   21.5970 O   0  0  0  0  0  0  0  0  0  0  0  0
    9.2943  -15.0146   21.6968 N   0  0  0  0  0  0  0  0  0  0  0  0
    8.9885  -15.7284   22.9266 C   0  0  1  0  0  0  0  0  0  0  0  0
    9.8326  -16.9798   22.9474 C   0  0  0  0  0  0  0  0  0  0  0  0
    9.6271  -17.8114   24.1694 C   0  0  0  0  0  0  0  0  0  0  0  0
   10.5499  -18.9697   24.1519 C   0  0  0  0  0  0  0  0  0  0  0  0
   11.7679  -18.7742   24.3726 O   0  0  0  0  0  0  0  0  0  0  0  0
    9.1832  -14.8980   24.1221 C   0  0  0  0  0  0  0  0  0  0  0  0
   10.3000  -14.3411   24.2727 O   0  0  0  0  0  0  0  0  0  0  0  0
   10.1330  -20.2656   23.9025 O   0  0  0  0  0  0  0  0  0  0  0  0
    7.3133  -11.8910   25.3230 C   0  0  0  0  0  0  0  0  0  0  0  0
    7.3516  -12.8431   26.4963 C   0  0  1  0  0  0  0  0  0  0  0  0
    5.9907  -13.4976   26.6360 C   0  0  0  0  0  0  0  0  0  0  0  0
    8.4403  -13.8430   26.2772 C   0  0  2  0  0  0  0  0  0  0  0  0
    8.1936  -14.6834   25.1182 N   0  0  0  0  0  0  0  0  0  0  0  0
    8.6015  -14.6674   27.5066 C   0  0  0  0  0  0  0  0  0  0  0  0
    8.3784  -15.8888   27.4313 O   0  0  0  0  0  0  0  0  0  0  0  0
    8.9856  -14.1275   28.7128 O   0  0  0  0  0  0  0  0  0  0  0  0
  2  1  1  6
  3  2  1  0
  4  3  1  0
  5  4  1  0
  5  6  1  0
  7  6  1  0
  8  2  1  0
  8 10  1  0
  9  8  2  0
 11 10  1  0
 12 13  1  0
 11 12  1  1
 13 14  1  0
 14 18  1  0
 15 14  2  0
 16 11  1  0
 17 16  2  0
 20 19  1  6
 20 22  1  0
 21 20  1  0
 22 23  1  6
 22 24  1  0
 23 16  1  0
 24 26  1  0
 25 24  2  0
M  END
$$$$
