KEV.pdb
     RDKit          3D

 26 25  0  0  1  0  0  0  0  0999 V2000
    5.7669  -17.6030   20.4632 N   0  0  0  0  0  0  0  0  0  0  0  0
    6.8527  -16.7908   20.9176 C   0  0  1  0  0  0  0  0  0  0  0  0
    6.9562  -15.4330   20.3231 C   0  0  0  0  0  0  0  0  0  0  0  0
    7.6507  -15.2726   19.0381 C   0  0  0  0  0  0  0  0  0  0  0  0
    7.7149  -13.9345   18.4177 C   0  0  0  0  0  0  0  0  0  0  0  0
    8.3680  -13.9091   17.0579 C   0  0  0  0  0  0  0  0  0  0  0  0
    8.3686  -12.5274   16.5968 N   0  0  0  0  0  0  0  0  0  0  0  0
    6.8841  -16.7860   22.3976 C   0  0  0  0  0  0  0  0  0  0  0  0
    5.7616  -16.6454   23.0033 O   0  0  0  0  0  0  0  0  0  0  0  0
    8.0011  -16.9163   23.2285 N   0  0  0  0  0  0  0  0  0  0  0  0
    7.9451  -16.8789   24.6814 C   0  0  1  0  0  0  0  0  0  0  0  0
    8.6612  -18.1044   25.1952 C   0  0  0  0  0  0  0  0  0  0  0  0
    8.6282  -18.2286   26.6820 C   0  0  0  0  0  0  0  0  0  0  0  0
    9.4615  -19.3756   27.1105 C   0  0  0  0  0  0  0  0  0  0  0  0
   10.0900  -20.0232   26.2409 O   0  0  0  0  0  0  0  0  0  0  0  0
    8.4935  -15.6335   25.2335 C   0  0  0  0  0  0  0  0  0  0  0  0
    9.6664  -15.3166   24.9112 O   0  0  0  0  0  0  0  0  0  0  0  0
    9.5825  -19.7714   28.4312 O   0  0  0  0  0  0  0  0  0  0  0  0
    6.8255  -12.1118   25.4031 C   0  0  0  0  0  0  0  0  0  0  0  0
    7.3896  -12.4404   26.7665 C   0  0  1  0  0  0  0  0  0  0  0  0
    6.2447  -12.8086   27.6905 C   0  0  0  0  0  0  0  0  0  0  0  0
    8.3837  -13.5476   26.6285 C   0  0  2  0  0  0  0  0  0  0  0  0
    7.7863  -14.7646   26.1068 N   0  0  0  0  0  0  0  0  0  0  0  0
    9.0261  -13.7948   27.9490 C   0  0  0  0  0  0  0  0  0  0  0  0
    8.8541  -14.9011   28.4907 O   0  0  0  0  0  0  0  0  0  0  0  0
    9.7971  -12.8480   28.5840 O   0  0  0  0  0  0  0  0  0  0  0  0
  2  1  1  1
  3  2  1  0
  4  3  1  0
  5  4  1  0
  5  6  1  0
  7  6  1  0
  8  2  1  0
  8 10  1  0
  9  8  2  0
 11 10  1  0
 12 13  1  0
 11 12  1  1
 13 14  1  0
 14 18  1  0
 15 14  2  0
 16 11  1  0
 17 16  2  0
 20 19  1  6
 20 22  1  0
 21 20  1  0
 22 23  1  1
 22 24  1  0
 23 16  1  0
 24 26  1  0
 25 24  2  0
M  END
$$$$
