KEV.pdb
     RDKit          3D

 26 25  0  0  1  0  0  0  0  0999 V2000
    7.9470  -19.0301   16.4044 N   0  0  0  0  0  0  0  0  0  0  0  0
    7.1046  -18.8044   17.5378 C   0  0  1  0  0  0  0  0  0  0  0  0
    6.6817  -20.0096   18.2972 C   0  0  0  0  0  0  0  0  0  0  0  0
    7.5015  -21.2262   18.2104 C   0  0  0  0  0  0  0  0  0  0  0  0
    6.9817  -22.4853   18.7794 C   0  0  0  0  0  0  0  0  0  0  0  0
    7.8604  -23.6876   18.5373 C   0  0  0  0  0  0  0  0  0  0  0  0
    7.1878  -24.8457   19.1103 N   0  0  0  0  0  0  0  0  0  0  0  0
    7.6947  -17.7504   18.3934 C   0  0  0  0  0  0  0  0  0  0  0  0
    8.9356  -17.8733   18.6963 O   0  0  0  0  0  0  0  0  0  0  0  0
    7.0580  -16.6227   18.9207 N   0  0  0  0  0  0  0  0  0  0  0  0
    7.7248  -15.6129   19.7277 C   0  0  1  0  0  0  0  0  0  0  0  0
    6.8995  -14.3513   19.6495 C   0  0  0  0  0  0  0  0  0  0  0  0
    7.5190  -13.1945   20.3604 C   0  0  0  0  0  0  0  0  0  0  0  0
    8.7202  -12.7359   19.6252 C   0  0  0  0  0  0  0  0  0  0  0  0
    8.5875  -12.3252   18.4487 O   0  0  0  0  0  0  0  0  0  0  0  0
    7.9478  -16.0551   21.1102 C   0  0  0  0  0  0  0  0  0  0  0  0
    6.9727  -16.5477   21.7320 O   0  0  0  0  0  0  0  0  0  0  0  0
    9.9903  -12.7377   20.1749 O   0  0  0  0  0  0  0  0  0  0  0  0
   11.3494  -17.6974   22.5155 C   0  0  0  0  0  0  0  0  0  0  0  0
   10.7870  -16.6947   23.4969 C   0  0  1  0  0  0  0  0  0  0  0  0
   11.6328  -15.4369   23.4454 C   0  0  0  0  0  0  0  0  0  0  0  0
    9.3565  -16.4288   23.1560 C   0  0  2  0  0  0  0  0  0  0  0  0
    9.1916  -15.9624   21.7901 N   0  0  0  0  0  0  0  0  0  0  0  0
    8.7981  -15.4450   24.1243 C   0  0  0  0  0  0  0  0  0  0  0  0
    8.4740  -14.3207   23.7024 O   0  0  0  0  0  0  0  0  0  0  0  0
    8.6302  -15.7362   25.4589 O   0  0  0  0  0  0  0  0  0  0  0  0
  2  1  1  6
  3  2  1  0
  4  3  1  0
  5  4  1  0
  5  6  1  0
  7  6  1  0
  8  2  1  0
  8 10  1  0
  9  8  2  0
 11 10  1  0
 12 13  1  0
 11 12  1  1
 13 14  1  0
 14 18  1  0
 15 14  2  0
 16 11  1  0
 17 16  2  0
 20 19  1  6
 20 22  1  0
 21 20  1  0
 22 23  1  6
 22 24  1  0
 23 16  1  0
 24 26  1  0
 25 24  2  0
M  END
$$$$
