KEV.pdb
     RDKit          3D

 26 25  0  0  1  0  0  0  0  0999 V2000
    5.7075  -16.7844   20.4719 N   0  0  0  0  0  0  0  0  0  0  0  0
    6.6962  -15.8284   20.8639 C   0  0  1  0  0  0  0  0  0  0  0  0
    6.3163  -14.3971   20.7419 C   0  0  0  0  0  0  0  0  0  0  0  0
    7.2636  -13.4627   20.1181 C   0  0  0  0  0  0  0  0  0  0  0  0
    7.7594  -13.7439   18.7563 C   0  0  0  0  0  0  0  0  0  0  0  0
    8.7558  -12.7376   18.2361 C   0  0  0  0  0  0  0  0  0  0  0  0
    9.2569  -13.2341   16.9617 N   0  0  0  0  0  0  0  0  0  0  0  0
    7.2268  -16.1817   22.1999 C   0  0  0  0  0  0  0  0  0  0  0  0
    6.3789  -16.5826   23.0757 O   0  0  0  0  0  0  0  0  0  0  0  0
    8.5556  -16.1305   22.6319 N   0  0  0  0  0  0  0  0  0  0  0  0
    8.9922  -16.4949   23.9705 C   0  0  1  0  0  0  0  0  0  0  0  0
   10.1924  -17.3990   23.8265 C   0  0  0  0  0  0  0  0  0  0  0  0
   10.7971  -17.7917   25.1332 C   0  0  0  0  0  0  0  0  0  0  0  0
   12.0245  -18.5876   24.9016 C   0  0  0  0  0  0  0  0  0  0  0  0
   13.1356  -18.0770   25.1759 O   0  0  0  0  0  0  0  0  0  0  0  0
    9.2681  -15.3225   24.8107 C   0  0  0  0  0  0  0  0  0  0  0  0
   10.1984  -14.5546   24.4573 O   0  0  0  0  0  0  0  0  0  0  0  0
   12.0070  -19.8752   24.3944 O   0  0  0  0  0  0  0  0  0  0  0  0
    7.4401  -12.2938   25.6045 C   0  0  0  0  0  0  0  0  0  0  0  0
    7.7571  -12.8930   26.9555 C   0  0  1  0  0  0  0  0  0  0  0  0
    6.5097  -13.5674   27.4932 C   0  0  0  0  0  0  0  0  0  0  0  0
    8.8979  -13.8473   26.8098 C   0  0  2  0  0  0  0  0  0  0  0  0
    8.5535  -14.9998   25.9953 N   0  0  0  0  0  0  0  0  0  0  0  0
    9.3570  -14.2702   28.1617 C   0  0  0  0  0  0  0  0  0  0  0  0
    9.7789  -13.3975   28.9411 O   0  0  0  0  0  0  0  0  0  0  0  0
    9.3303  -15.5831   28.5735 O   0  0  0  0  0  0  0  0  0  0  0  0
  2  1  1  1
  3  2  1  0
  4  3  1  0
  5  4  1  0
  5  6  1  0
  7  6  1  0
  8  2  1  0
  8 10  1  0
  9  8  2  0
 11 10  1  0
 12 13  1  0
 11 12  1  6
 13 14  1  0
 14 18  1  0
 15 14  2  0
 16 11  1  0
 17 16  2  0
 20 19  1  6
 20 22  1  0
 21 20  1  0
 22 23  1  6
 22 24  1  0
 23 16  1  0
 24 26  1  0
 25 24  2  0
M  END
$$$$
