KEV.pdb
     RDKit          3D

 26 25  0  0  1  0  0  0  0  0999 V2000
    6.9366  -16.3549   19.6199 N   0  0  0  0  0  0  0  0  0  0  0  0
    7.7990  -15.4062   20.2534 C   0  0  1  0  0  0  0  0  0  0  0  0
    7.3753  -13.9834   20.1911 C   0  0  0  0  0  0  0  0  0  0  0  0
    7.3612  -13.3042   18.8880 C   0  0  0  0  0  0  0  0  0  0  0  0
    8.2581  -13.7834   17.8178 C   0  0  0  0  0  0  0  0  0  0  0  0
    8.1154  -13.0465   16.5091 C   0  0  0  0  0  0  0  0  0  0  0  0
    9.0100  -13.6789   15.5492 N   0  0  0  0  0  0  0  0  0  0  0  0
    8.1176  -15.8628   21.6250 C   0  0  0  0  0  0  0  0  0  0  0  0
    7.1267  -16.1556   22.3860 O   0  0  0  0  0  0  0  0  0  0  0  0
    9.3820  -16.0153   22.2022 N   0  0  0  0  0  0  0  0  0  0  0  0
    9.6061  -16.4673   23.5663 C   0  0  1  0  0  0  0  0  0  0  0  0
   10.9070  -17.2330   23.5831 C   0  0  0  0  0  0  0  0  0  0  0  0
   10.8442  -18.5217   22.8330 C   0  0  0  0  0  0  0  0  0  0  0  0
   12.1722  -19.1773   22.8455 C   0  0  0  0  0  0  0  0  0  0  0  0
   12.6539  -19.5856   21.7631 O   0  0  0  0  0  0  0  0  0  0  0  0
    9.5903  -15.3631   24.5344 C   0  0  0  0  0  0  0  0  0  0  0  0
   10.4120  -14.4267   24.3681 O   0  0  0  0  0  0  0  0  0  0  0  0
   12.9135  -19.3632   23.9994 O   0  0  0  0  0  0  0  0  0  0  0  0
    7.5952  -12.2924   27.6316 C   0  0  0  0  0  0  0  0  0  0  0  0
    7.4751  -13.4046   26.6150 C   0  0  1  0  0  0  0  0  0  0  0  0
    7.1394  -12.7967   25.2667 C   0  0  0  0  0  0  0  0  0  0  0  0
    8.7539  -14.1772   26.5846 C   0  0  2  0  0  0  0  0  0  0  0  0
    8.7083  -15.2843   25.6452 N   0  0  0  0  0  0  0  0  0  0  0  0
    9.0667  -14.6587   27.9585 C   0  0  0  0  0  0  0  0  0  0  0  0
    9.0015  -15.8801   28.1846 O   0  0  0  0  0  0  0  0  0  0  0  0
    9.4223  -13.8046   28.9774 O   0  0  0  0  0  0  0  0  0  0  0  0
  2  1  1  1
  3  2  1  0
  4  3  1  0
  5  4  1  0
  5  6  1  0
  7  6  1  0
  8  2  1  0
  8 10  1  0
  9  8  2  0
 11 10  1  0
 12 13  1  0
 11 12  1  6
 13 14  1  0
 14 18  1  0
 15 14  2  0
 16 11  1  0
 17 16  2  0
 20 19  1  1
 20 22  1  0
 21 20  1  0
 22 23  1  6
 22 24  1  0
 23 16  1  0
 24 26  1  0
 25 24  2  0
M  END
$$$$
