KEV.pdb
     RDKit          3D

 26 25  0  0  1  0  0  0  0  0999 V2000
    6.2558  -16.0973   19.9286 N   0  0  0  0  0  0  0  0  0  0  0  0
    7.2584  -15.2231   20.4534 C   0  0  1  0  0  0  0  0  0  0  0  0
    7.0245  -13.7666   20.2746 C   0  0  0  0  0  0  0  0  0  0  0  0
    7.6277  -13.0883   19.1189 C   0  0  0  0  0  0  0  0  0  0  0  0
    7.9551  -13.8753   17.9136 C   0  0  0  0  0  0  0  0  0  0  0  0
    8.6918  -13.1036   16.8470 C   0  0  0  0  0  0  0  0  0  0  0  0
    8.9730  -14.0244   15.7538 N   0  0  0  0  0  0  0  0  0  0  0  0
    7.5634  -15.5998   21.8521 C   0  0  0  0  0  0  0  0  0  0  0  0
    6.5764  -15.6471   22.6708 O   0  0  0  0  0  0  0  0  0  0  0  0
    8.8113  -15.9135   22.3993 N   0  0  0  0  0  0  0  0  0  0  0  0
    9.0141  -16.3411   23.7746 C   0  0  1  0  0  0  0  0  0  0  0  0
   10.1276  -17.3604   23.7738 C   0  0  0  0  0  0  0  0  0  0  0  0
   10.4738  -17.8589   25.1372 C   0  0  0  0  0  0  0  0  0  0  0  0
   11.5448  -18.8777   25.0444 C   0  0  0  0  0  0  0  0  0  0  0  0
   11.7054  -19.6732   25.9993 O   0  0  0  0  0  0  0  0  0  0  0  0
    9.2814  -15.2160   24.6797 C   0  0  0  0  0  0  0  0  0  0  0  0
   10.2251  -14.4394   24.3858 O   0  0  0  0  0  0  0  0  0  0  0  0
   12.3829  -18.9970   23.9495 O   0  0  0  0  0  0  0  0  0  0  0  0
    7.3778  -12.2894   25.5633 C   0  0  0  0  0  0  0  0  0  0  0  0
    7.7254  -12.8896   26.9064 C   0  0  1  0  0  0  0  0  0  0  0  0
    6.4942  -13.5763   27.4654 C   0  0  0  0  0  0  0  0  0  0  0  0
    8.8715  -13.8335   26.7364 C   0  0  2  0  0  0  0  0  0  0  0  0
    8.5444  -14.9482   25.8642 N   0  0  0  0  0  0  0  0  0  0  0  0
    9.3091  -14.3170   28.0751 C   0  0  0  0  0  0  0  0  0  0  0  0
    9.2112  -15.5316   28.3245 O   0  0  0  0  0  0  0  0  0  0  0  0
    9.8136  -13.4718   29.0369 O   0  0  0  0  0  0  0  0  0  0  0  0
  2  1  1  1
  3  2  1  0
  4  3  1  0
  5  4  1  0
  5  6  1  0
  7  6  1  0
  8  2  1  0
  8 10  1  0
  9  8  2  0
 11 10  1  0
 12 13  1  0
 11 12  1  6
 13 14  1  0
 14 18  1  0
 15 14  2  0
 16 11  1  0
 17 16  2  0
 20 19  1  6
 20 22  1  0
 21 20  1  0
 22 23  1  6
 22 24  1  0
 23 16  1  0
 24 26  1  0
 25 24  2  0
M  END
$$$$
