KEV.pdb
     RDKit          3D

 26 25  0  0  1  0  0  0  0  0999 V2000
    6.3237  -16.4365   20.2885 N   0  0  0  0  0  0  0  0  0  0  0  0
    7.2657  -15.4666   20.7543 C   0  0  1  0  0  0  0  0  0  0  0  0
    6.8950  -14.0405   20.5630 C   0  0  0  0  0  0  0  0  0  0  0  0
    7.5755  -13.2653   19.5163 C   0  0  0  0  0  0  0  0  0  0  0  0
    7.9074  -13.9219   18.2364 C   0  0  0  0  0  0  0  0  0  0  0  0
    8.6899  -13.0587   17.2781 C   0  0  0  0  0  0  0  0  0  0  0  0
    8.9429  -13.8493   16.0811 N   0  0  0  0  0  0  0  0  0  0  0  0
    7.6628  -15.7871   22.1439 C   0  0  0  0  0  0  0  0  0  0  0  0
    6.7313  -15.8042   23.0263 O   0  0  0  0  0  0  0  0  0  0  0  0
    8.9451  -16.0760   22.6205 N   0  0  0  0  0  0  0  0  0  0  0  0
    9.2363  -16.4678   23.9906 C   0  0  1  0  0  0  0  0  0  0  0  0
   10.4667  -17.3420   23.9612 C   0  0  0  0  0  0  0  0  0  0  0  0
   10.9306  -17.7557   25.3180 C   0  0  0  0  0  0  0  0  0  0  0  0
   12.1424  -18.5991   25.2009 C   0  0  0  0  0  0  0  0  0  0  0  0
   12.1085  -19.6036   24.4524 O   0  0  0  0  0  0  0  0  0  0  0  0
    9.3872  -15.3133   24.8857 C   0  0  0  0  0  0  0  0  0  0  0  0
   10.3715  -14.5537   24.7009 O   0  0  0  0  0  0  0  0  0  0  0  0
   13.3184  -18.3326   25.8803 O   0  0  0  0  0  0  0  0  0  0  0  0
    7.5751  -12.2050   25.6083 C   0  0  0  0  0  0  0  0  0  0  0  0
    7.6549  -12.9236   26.9357 C   0  0  1  0  0  0  0  0  0  0  0  0
    6.3129  -13.5706   27.2197 C   0  0  0  0  0  0  0  0  0  0  0  0
    8.7647  -13.9229   26.8829 C   0  0  2  0  0  0  0  0  0  0  0  0
    8.4949  -14.9993   25.9454 N   0  0  0  0  0  0  0  0  0  0  0  0
    9.0059  -14.4583   28.2513 C   0  0  0  0  0  0  0  0  0  0  0  0
    9.3301  -13.6599   29.1483 O   0  0  0  0  0  0  0  0  0  0  0  0
    8.8830  -15.7953   28.5536 O   0  0  0  0  0  0  0  0  0  0  0  0
  2  1  1  1
  3  2  1  0
  4  3  1  0
  5  4  1  0
  5  6  1  0
  7  6  1  0
  8  2  1  0
  8 10  1  0
  9  8  2  0
 11 10  1  0
 12 13  1  0
 11 12  1  6
 13 14  1  0
 14 18  1  0
 15 14  2  0
 16 11  1  0
 17 16  2  0
 20 19  1  6
 20 22  1  0
 21 20  1  0
 22 23  1  6
 22 24  1  0
 23 16  1  0
 24 26  1  0
 25 24  2  0
M  END
$$$$
