KEV.pdb
     RDKit          3D

 26 25  0  0  1  0  0  0  0  0999 V2000
    7.7685  -18.8241   19.9988 N   0  0  0  0  0  0  0  0  0  0  0  0
    7.1356  -17.6496   20.5135 C   0  0  1  0  0  0  0  0  0  0  0  0
    5.6710  -17.5361   20.2896 C   0  0  0  0  0  0  0  0  0  0  0  0
    4.9046  -18.7514   19.9813 C   0  0  0  0  0  0  0  0  0  0  0  0
    3.9904  -18.7501   18.8221 C   0  0  0  0  0  0  0  0  0  0  0  0
    3.1898  -20.0184   18.6589 C   0  0  0  0  0  0  0  0  0  0  0  0
    2.4311  -19.9025   17.4208 N   0  0  0  0  0  0  0  0  0  0  0  0
    7.5288  -17.4521   21.9269 C   0  0  0  0  0  0  0  0  0  0  0  0
    6.7091  -17.8670   22.8227 O   0  0  0  0  0  0  0  0  0  0  0  0
    8.6985  -16.8601   22.4131 N   0  0  0  0  0  0  0  0  0  0  0  0
    9.0472  -16.7818   23.8230 C   0  0  1  0  0  0  0  0  0  0  0  0
   10.3644  -17.4962   24.0055 C   0  0  0  0  0  0  0  0  0  0  0  0
   10.8700  -17.4549   25.4090 C   0  0  0  0  0  0  0  0  0  0  0  0
   12.2389  -18.0171   25.4683 C   0  0  0  0  0  0  0  0  0  0  0  0
   13.1114  -17.4123   26.1343 O   0  0  0  0  0  0  0  0  0  0  0  0
    9.0832  -15.3994   24.3174 C   0  0  0  0  0  0  0  0  0  0  0  0
    9.8204  -14.5802   23.7128 O   0  0  0  0  0  0  0  0  0  0  0  0
   12.6064  -19.1841   24.8214 O   0  0  0  0  0  0  0  0  0  0  0  0
    7.0022  -12.5164   24.4385 C   0  0  0  0  0  0  0  0  0  0  0  0
    7.3308  -12.7461   25.8959 C   0  0  1  0  0  0  0  0  0  0  0  0
    6.1299  -13.3801   26.5711 C   0  0  0  0  0  0  0  0  0  0  0  0
    8.5512  -13.6034   25.9909 C   0  0  2  0  0  0  0  0  0  0  0  0
    8.3407  -14.9280   25.4329 N   0  0  0  0  0  0  0  0  0  0  0  0
    8.9790  -13.6885   27.4147 C   0  0  0  0  0  0  0  0  0  0  0  0
    8.9603  -14.8010   27.9707 O   0  0  0  0  0  0  0  0  0  0  0  0
    9.3905  -12.5867   28.1293 O   0  0  0  0  0  0  0  0  0  0  0  0
  2  1  1  1
  3  2  1  0
  4  3  1  0
  5  4  1  0
  5  6  1  0
  7  6  1  0
  8  2  1  0
  8 10  1  0
  9  8  2  0
 11 10  1  0
 12 13  1  0
 11 12  1  6
 13 14  1  0
 14 18  1  0
 15 14  2  0
 16 11  1  0
 17 16  2  0
 20 19  1  6
 20 22  1  0
 21 20  1  0
 22 23  1  1
 22 24  1  0
 23 16  1  0
 24 26  1  0
 25 24  2  0
M  END
$$$$
