KEV.pdb
     RDKit          3D

 26 25  0  0  1  0  0  0  0  0999 V2000
    6.3058  -16.8611   20.6879 N   0  0  0  0  0  0  0  0  0  0  0  0
    7.1636  -15.8137   21.1484 C   0  0  1  0  0  0  0  0  0  0  0  0
    6.6414  -14.4284   21.0221 C   0  0  0  0  0  0  0  0  0  0  0  0
    6.8896  -13.6877   19.7774 C   0  0  0  0  0  0  0  0  0  0  0  0
    8.2784  -13.3545   19.4039 C   0  0  0  0  0  0  0  0  0  0  0  0
    8.4011  -12.4666   18.1904 C   0  0  0  0  0  0  0  0  0  0  0  0
    9.8176  -12.1961   17.9855 N   0  0  0  0  0  0  0  0  0  0  0  0
    7.6522  -16.1336   22.5086 C   0  0  0  0  0  0  0  0  0  0  0  0
    6.7649  -16.3515   23.4097 O   0  0  0  0  0  0  0  0  0  0  0  0
    8.9792  -16.2277   22.9392 N   0  0  0  0  0  0  0  0  0  0  0  0
    9.3737  -16.5949   24.2901 C   0  0  1  0  0  0  0  0  0  0  0  0
   10.6405  -17.4096   24.1877 C   0  0  0  0  0  0  0  0  0  0  0  0
   10.4694  -18.6738   23.4133 C   0  0  0  0  0  0  0  0  0  0  0  0
   11.7710  -19.3700   23.2912 C   0  0  0  0  0  0  0  0  0  0  0  0
   11.7821  -20.6213   23.2236 O   0  0  0  0  0  0  0  0  0  0  0  0
    9.5243  -15.4279   25.1688 C   0  0  0  0  0  0  0  0  0  0  0  0
   10.3723  -14.5579   24.8467 O   0  0  0  0  0  0  0  0  0  0  0  0
   12.9838  -18.7047   23.2476 O   0  0  0  0  0  0  0  0  0  0  0  0
    7.3975  -12.6294   26.0741 C   0  0  0  0  0  0  0  0  0  0  0  0
    7.7812  -13.2399   27.4026 C   0  0  1  0  0  0  0  0  0  0  0  0
    6.6094  -14.0505   27.9218 C   0  0  0  0  0  0  0  0  0  0  0  0
    9.0085  -14.0727   27.2199 C   0  0  2  0  0  0  0  0  0  0  0  0
    8.7754  -15.2183   26.3576 N   0  0  0  0  0  0  0  0  0  0  0  0
    9.5088  -14.5051   28.5541 C   0  0  0  0  0  0  0  0  0  0  0  0
    9.5295  -15.7221   28.8102 O   0  0  0  0  0  0  0  0  0  0  0  0
    9.9452  -13.6106   29.5046 O   0  0  0  0  0  0  0  0  0  0  0  0
  2  1  1  1
  3  2  1  0
  4  3  1  0
  5  4  1  0
  5  6  1  0
  7  6  1  0
  8  2  1  0
  8 10  1  0
  9  8  2  0
 11 10  1  0
 12 13  1  0
 11 12  1  6
 13 14  1  0
 14 18  1  0
 15 14  2  0
 16 11  1  0
 17 16  2  0
 20 19  1  6
 20 22  1  0
 21 20  1  0
 22 23  1  6
 22 24  1  0
 23 16  1  0
 24 26  1  0
 25 24  2  0
M  END
$$$$
