KEV.pdb
     RDKit          3D

 26 25  0  0  1  0  0  0  0  0999 V2000
    4.8777  -17.0155   21.2074 N   0  0  0  0  0  0  0  0  0  0  0  0
    6.2998  -17.1597   21.2475 C   0  0  1  0  0  0  0  0  0  0  0  0
    7.0682  -16.4239   20.2102 C   0  0  0  0  0  0  0  0  0  0  0  0
    7.2114  -14.9666   20.3342 C   0  0  0  0  0  0  0  0  0  0  0  0
    7.9499  -14.2256   19.2926 C   0  0  0  0  0  0  0  0  0  0  0  0
    7.9137  -12.7258   19.4512 C   0  0  0  0  0  0  0  0  0  0  0  0
    8.6418  -12.1478   18.3298 N   0  0  0  0  0  0  0  0  0  0  0  0
    6.7859  -16.9102   22.6233 C   0  0  0  0  0  0  0  0  0  0  0  0
    6.0439  -16.1876   23.3809 O   0  0  0  0  0  0  0  0  0  0  0  0
    7.9705  -17.3697   23.2069 N   0  0  0  0  0  0  0  0  0  0  0  0
    8.3114  -17.1899   24.6094 C   0  0  1  0  0  0  0  0  0  0  0  0
    9.5154  -18.0533   24.8985 C   0  0  0  0  0  0  0  0  0  0  0  0
    9.9525  -18.0002   26.3244 C   0  0  0  0  0  0  0  0  0  0  0  0
   11.2014  -18.7772   26.4981 C   0  0  0  0  0  0  0  0  0  0  0  0
   12.2371  -18.1791   26.8725 O   0  0  0  0  0  0  0  0  0  0  0  0
    8.5325  -15.7806   24.9582 C   0  0  0  0  0  0  0  0  0  0  0  0
    9.3023  -15.1097   24.2252 O   0  0  0  0  0  0  0  0  0  0  0  0
   11.2835  -20.1392   26.2666 O   0  0  0  0  0  0  0  0  0  0  0  0
    6.5178  -12.6683   25.2808 C   0  0  0  0  0  0  0  0  0  0  0  0
    7.1649  -12.8716   26.6316 C   0  0  1  0  0  0  0  0  0  0  0  0
    6.1255  -13.4178   27.5914 C   0  0  0  0  0  0  0  0  0  0  0  0
    8.3327  -13.7915   26.4790 C   0  0  2  0  0  0  0  0  0  0  0  0
    7.9342  -15.1267   26.0683 N   0  0  0  0  0  0  0  0  0  0  0  0
    9.0920  -13.8339   27.7593 C   0  0  0  0  0  0  0  0  0  0  0  0
    9.5516  -12.7688   28.2081 O   0  0  0  0  0  0  0  0  0  0  0  0
    9.3001  -15.0023   28.4562 O   0  0  0  0  0  0  0  0  0  0  0  0
  2  1  1  1
  3  2  1  0
  4  3  1  0
  5  4  1  0
  5  6  1  0
  7  6  1  0
  8  2  1  0
  8 10  1  0
  9  8  2  0
 11 10  1  0
 12 13  1  0
 11 12  1  6
 13 14  1  0
 14 18  1  0
 15 14  2  0
 16 11  1  0
 17 16  2  0
 20 19  1  6
 20 22  1  0
 21 20  1  0
 22 23  1  1
 22 24  1  0
 23 16  1  0
 24 26  1  0
 25 24  2  0
M  END
$$$$
