KEV.pdb
     RDKit          3D

 26 25  0  0  1  0  0  0  0  0999 V2000
    6.2066  -15.7567   20.1268 N   0  0  0  0  0  0  0  0  0  0  0  0
    7.3704  -15.0846   20.6154 C   0  0  1  0  0  0  0  0  0  0  0  0
    7.3904  -13.6062   20.4679 C   0  0  0  0  0  0  0  0  0  0  0  0
    7.4112  -13.0286   19.1168 C   0  0  0  0  0  0  0  0  0  0  0  0
    8.3696  -13.5547   18.1247 C   0  0  0  0  0  0  0  0  0  0  0  0
    8.2400  -12.9466   16.7502 C   0  0  0  0  0  0  0  0  0  0  0  0
    9.1953  -13.6194   15.8804 N   0  0  0  0  0  0  0  0  0  0  0  0
    7.6655  -15.5397   21.9928 C   0  0  0  0  0  0  0  0  0  0  0  0
    6.6741  -15.6237   22.8031 O   0  0  0  0  0  0  0  0  0  0  0  0
    8.9082  -15.8928   22.5276 N   0  0  0  0  0  0  0  0  0  0  0  0
    9.1006  -16.3982   23.8778 C   0  0  1  0  0  0  0  0  0  0  0  0
   10.1789  -17.4530   23.8186 C   0  0  0  0  0  0  0  0  0  0  0  0
   10.4926  -18.0532   25.1484 C   0  0  0  0  0  0  0  0  0  0  0  0
   11.5276  -19.1016   24.9967 C   0  0  0  0  0  0  0  0  0  0  0  0
   12.4661  -18.9107   24.1884 O   0  0  0  0  0  0  0  0  0  0  0  0
    9.4085  -15.3315   24.8390 C   0  0  0  0  0  0  0  0  0  0  0  0
   10.4074  -14.6046   24.6070 O   0  0  0  0  0  0  0  0  0  0  0  0
   11.5113  -20.2895   25.7068 O   0  0  0  0  0  0  0  0  0  0  0  0
    7.7513  -12.2322   25.8881 C   0  0  0  0  0  0  0  0  0  0  0  0
    7.9419  -13.0255   27.1606 C   0  0  1  0  0  0  0  0  0  0  0  0
    6.6238  -13.6796   27.5278 C   0  0  0  0  0  0  0  0  0  0  0  0
    9.0315  -14.0267   26.9520 C   0  0  2  0  0  0  0  0  0  0  0  0
    8.6527  -15.0679   26.0125 N   0  0  0  0  0  0  0  0  0  0  0  0
    9.4161  -14.6114   28.2664 C   0  0  0  0  0  0  0  0  0  0  0  0
    9.2419  -15.8301   28.4435 O   0  0  0  0  0  0  0  0  0  0  0  0
    9.9531  -13.8544   29.2826 O   0  0  0  0  0  0  0  0  0  0  0  0
  2  1  1  1
  3  2  1  0
  4  3  1  0
  5  4  1  0
  5  6  1  0
  7  6  1  0
  8  2  1  0
  8 10  1  0
  9  8  2  0
 11 10  1  0
 12 13  1  0
 11 12  1  6
 13 14  1  0
 14 18  1  0
 15 14  2  0
 16 11  1  0
 17 16  2  0
 20 19  1  6
 20 22  1  0
 21 20  1  0
 22 23  1  6
 22 24  1  0
 23 16  1  0
 24 26  1  0
 25 24  2  0
M  END
$$$$
