KEV.pdb
     RDKit          3D

 26 25  0  0  1  0  0  0  0  0999 V2000
    6.4812  -17.4116   19.8959 N   0  0  0  0  0  0  0  0  0  0  0  0
    7.4682  -16.4540   20.2882 C   0  0  1  0  0  0  0  0  0  0  0  0
    7.2817  -15.0687   19.7843 C   0  0  0  0  0  0  0  0  0  0  0  0
    7.2991  -14.8333   18.3339 C   0  0  0  0  0  0  0  0  0  0  0  0
    8.1257  -13.7359   17.7935 C   0  0  0  0  0  0  0  0  0  0  0  0
    7.9273  -13.4736   16.3212 C   0  0  0  0  0  0  0  0  0  0  0  0
    8.5691  -12.2033   16.0110 N   0  0  0  0  0  0  0  0  0  0  0  0
    7.6719  -16.5220   21.7528 C   0  0  0  0  0  0  0  0  0  0  0  0
    6.6198  -16.5887   22.4845 O   0  0  0  0  0  0  0  0  0  0  0  0
    8.8856  -16.5212   22.4471 N   0  0  0  0  0  0  0  0  0  0  0  0
    8.9962  -16.6001   23.8952 C   0  0  1  0  0  0  0  0  0  0  0  0
   10.1940  -17.4622   24.2129 C   0  0  0  0  0  0  0  0  0  0  0  0
   10.2009  -17.9709   25.6159 C   0  0  0  0  0  0  0  0  0  0  0  0
   11.4339  -18.7536   25.8621 C   0  0  0  0  0  0  0  0  0  0  0  0
   11.6196  -19.8080   25.2107 O   0  0  0  0  0  0  0  0  0  0  0  0
    9.0721  -15.2762   24.5263 C   0  0  0  0  0  0  0  0  0  0  0  0
    9.9238  -14.4645   24.0838 O   0  0  0  0  0  0  0  0  0  0  0  0
   12.3981  -18.3775   26.7810 O   0  0  0  0  0  0  0  0  0  0  0  0
    6.0722  -13.5943   27.0388 C   0  0  0  0  0  0  0  0  0  0  0  0
    7.0605  -12.8012   26.2146 C   0  0  1  0  0  0  0  0  0  0  0  0
    7.1893  -11.4136   26.8127 C   0  0  0  0  0  0  0  0  0  0  0  0
    8.3657  -13.5284   26.1863 C   0  0  2  0  0  0  0  0  0  0  0  0
    8.2473  -14.8535   25.6028 N   0  0  0  0  0  0  0  0  0  0  0  0
    8.9133  -13.6037   27.5690 C   0  0  0  0  0  0  0  0  0  0  0  0
    9.0228  -14.7232   28.0999 O   0  0  0  0  0  0  0  0  0  0  0  0
    9.2988  -12.4855   28.2726 O   0  0  0  0  0  0  0  0  0  0  0  0
  2  1  1  1
  3  2  1  0
  4  3  1  0
  5  4  1  0
  5  6  1  0
  7  6  1  0
  8  2  1  0
  8 10  1  0
  9  8  2  0
 11 10  1  0
 12 13  1  0
 11 12  1  6
 13 14  1  0
 14 18  1  0
 15 14  2  0
 16 11  1  0
 17 16  2  0
 20 19  1  1
 20 22  1  0
 21 20  1  0
 22 23  1  1
 22 24  1  0
 23 16  1  0
 24 26  1  0
 25 24  2  0
M  END
$$$$
