KEV.pdb
     RDKit          3D

 26 25  0  0  1  0  0  0  0  0999 V2000
    7.3095  -17.3777   19.7061 N   0  0  0  0  0  0  0  0  0  0  0  0
    8.5294  -16.8561   20.2396 C   0  0  1  0  0  0  0  0  0  0  0  0
    8.9533  -15.5231   19.7382 C   0  0  0  0  0  0  0  0  0  0  0  0
    8.1435  -14.3459   20.0817 C   0  0  0  0  0  0  0  0  0  0  0  0
    8.5101  -13.0318   19.5177 C   0  0  0  0  0  0  0  0  0  0  0  0
    7.5891  -11.9048   19.9148 C   0  0  0  0  0  0  0  0  0  0  0  0
    8.0712  -10.6937   19.2646 N   0  0  0  0  0  0  0  0  0  0  0  0
    8.5038  -16.9449   21.7170 C   0  0  0  0  0  0  0  0  0  0  0  0
    7.3834  -16.7056   22.2953 O   0  0  0  0  0  0  0  0  0  0  0  0
    9.5641  -17.2603   22.5721 N   0  0  0  0  0  0  0  0  0  0  0  0
    9.4578  -17.3002   24.0221 C   0  0  1  0  0  0  0  0  0  0  0  0
   10.6213  -18.1100   24.5408 C   0  0  0  0  0  0  0  0  0  0  0  0
   10.6596  -18.2035   26.0298 C   0  0  0  0  0  0  0  0  0  0  0  0
   11.7698  -19.0888   26.4508 C   0  0  0  0  0  0  0  0  0  0  0  0
   11.9434  -19.2991   27.6739 O   0  0  0  0  0  0  0  0  0  0  0  0
    9.3946  -15.9596   24.6184 C   0  0  0  0  0  0  0  0  0  0  0  0
   10.2564  -15.1179   24.2597 O   0  0  0  0  0  0  0  0  0  0  0  0
   12.6311  -19.7000   25.5563 O   0  0  0  0  0  0  0  0  0  0  0  0
    7.1474  -12.3078   26.9739 C   0  0  0  0  0  0  0  0  0  0  0  0
    7.0677  -13.6261   26.2386 C   0  0  1  0  0  0  0  0  0  0  0  0
    6.4673  -13.3825   24.8675 C   0  0  0  0  0  0  0  0  0  0  0  0
    8.4352  -14.2233   26.1594 C   0  0  2  0  0  0  0  0  0  0  0  0
    8.4246  -15.5523   25.5730 N   0  0  0  0  0  0  0  0  0  0  0  0
    9.0373  -14.2482   27.5211 C   0  0  0  0  0  0  0  0  0  0  0  0
    9.1630  -15.3469   28.0904 O   0  0  0  0  0  0  0  0  0  0  0  0
    9.4555  -13.1059   28.1647 O   0  0  0  0  0  0  0  0  0  0  0  0
  2  1  1  1
  3  2  1  0
  4  3  1  0
  5  4  1  0
  5  6  1  0
  7  6  1  0
  8  2  1  0
  8 10  1  0
  9  8  2  0
 11 10  1  0
 12 13  1  0
 11 12  1  1
 13 14  1  0
 14 18  1  0
 15 14  2  0
 16 11  1  0
 17 16  2  0
 20 19  1  6
 20 22  1  0
 21 20  1  0
 22 23  1  1
 22 24  1  0
 23 16  1  0
 24 26  1  0
 25 24  2  0
M  END
$$$$
