KEV.pdb
     RDKit          3D

 26 25  0  0  1  0  0  0  0  0999 V2000
    6.6157  -16.2136   19.5106 N   0  0  0  0  0  0  0  0  0  0  0  0
    7.6753  -15.4264   20.0606 C   0  0  1  0  0  0  0  0  0  0  0  0
    7.6261  -13.9671   19.7850 C   0  0  0  0  0  0  0  0  0  0  0  0
    7.3601  -13.5133   18.4128 C   0  0  0  0  0  0  0  0  0  0  0  0
    8.4219  -13.6402   17.3951 C   0  0  0  0  0  0  0  0  0  0  0  0
    8.0184  -13.1862   16.0141 C   0  0  0  0  0  0  0  0  0  0  0  0
    9.1491  -13.4218   15.1265 N   0  0  0  0  0  0  0  0  0  0  0  0
    7.8377  -15.7459   21.4969 C   0  0  0  0  0  0  0  0  0  0  0  0
    6.7714  -15.7796   22.2100 O   0  0  0  0  0  0  0  0  0  0  0  0
    9.0257  -16.0179   22.1822 N   0  0  0  0  0  0  0  0  0  0  0  0
    9.0878  -16.4141   23.5803 C   0  0  1  0  0  0  0  0  0  0  0  0
   10.3089  -17.2850   23.7518 C   0  0  0  0  0  0  0  0  0  0  0  0
   10.5280  -17.7251   25.1608 C   0  0  0  0  0  0  0  0  0  0  0  0
   11.7584  -18.5452   25.2471 C   0  0  0  0  0  0  0  0  0  0  0  0
   12.4348  -18.5093   26.3014 O   0  0  0  0  0  0  0  0  0  0  0  0
    9.0851  -15.2626   24.4917 C   0  0  0  0  0  0  0  0  0  0  0  0
    9.9209  -14.3476   24.2818 O   0  0  0  0  0  0  0  0  0  0  0  0
   12.2021  -19.3546   24.2159 O   0  0  0  0  0  0  0  0  0  0  0  0
    6.9946  -12.2141   27.6524 C   0  0  0  0  0  0  0  0  0  0  0  0
    6.9012  -13.3086   26.6140 C   0  0  1  0  0  0  0  0  0  0  0  0
    6.4017  -12.7053   25.3153 C   0  0  0  0  0  0  0  0  0  0  0  0
    8.2420  -13.9504   26.4607 C   0  0  2  0  0  0  0  0  0  0  0  0
    8.2010  -15.1153   25.5938 N   0  0  0  0  0  0  0  0  0  0  0  0
    8.7694  -14.3081   27.8066 C   0  0  0  0  0  0  0  0  0  0  0  0
    8.8452  -15.5120   28.1096 O   0  0  0  0  0  0  0  0  0  0  0  0
    9.1720  -13.3589   28.7182 O   0  0  0  0  0  0  0  0  0  0  0  0
  2  1  1  1
  3  2  1  0
  4  3  1  0
  5  4  1  0
  5  6  1  0
  7  6  1  0
  8  2  1  0
  8 10  1  0
  9  8  2  0
 11 10  1  0
 12 13  1  0
 11 12  1  6
 13 14  1  0
 14 18  1  0
 15 14  2  0
 16 11  1  0
 17 16  2  0
 20 19  1  1
 20 22  1  0
 21 20  1  0
 22 23  1  6
 22 24  1  0
 23 16  1  0
 24 26  1  0
 25 24  2  0
M  END
$$$$
