KEV.pdb
     RDKit          3D

 26 25  0  0  1  0  0  0  0  0999 V2000
    6.0629  -16.7124   20.8867 N   0  0  0  0  0  0  0  0  0  0  0  0
    7.1078  -15.8074   21.2529 C   0  0  1  0  0  0  0  0  0  0  0  0
    6.7359  -14.3719   21.3471 C   0  0  0  0  0  0  0  0  0  0  0  0
    7.5479  -13.3804   20.6280 C   0  0  0  0  0  0  0  0  0  0  0  0
    8.0162  -13.6887   19.2624 C   0  0  0  0  0  0  0  0  0  0  0  0
    8.8284  -12.5917   18.6199 C   0  0  0  0  0  0  0  0  0  0  0  0
    9.1890  -13.0386   17.2812 N   0  0  0  0  0  0  0  0  0  0  0  0
    7.8029  -16.3125   22.4583 C   0  0  0  0  0  0  0  0  0  0  0  0
    7.0742  -16.5882   23.4779 O   0  0  0  0  0  0  0  0  0  0  0  0
    9.1742  -16.5280   22.6260 N   0  0  0  0  0  0  0  0  0  0  0  0
    9.7743  -17.0509   23.8433 C   0  0  1  0  0  0  0  0  0  0  0  0
   11.0361  -17.7805   23.4506 C   0  0  0  0  0  0  0  0  0  0  0  0
   11.8360  -18.2499   24.6198 C   0  0  0  0  0  0  0  0  0  0  0  0
   13.0475  -18.9601   24.1491 C   0  0  0  0  0  0  0  0  0  0  0  0
   13.9050  -19.3143   24.9917 O   0  0  0  0  0  0  0  0  0  0  0  0
   10.0175  -16.0046   24.8447 C   0  0  0  0  0  0  0  0  0  0  0  0
   10.7770  -15.0549   24.5268 O   0  0  0  0  0  0  0  0  0  0  0  0
   13.2826  -19.2546   22.8174 O   0  0  0  0  0  0  0  0  0  0  0  0
    9.0511  -13.1139   28.5284 C   0  0  0  0  0  0  0  0  0  0  0  0
    8.6303  -14.1025   27.4652 C   0  0  1  0  0  0  0  0  0  0  0  0
    8.1200  -13.3341   26.2615 C   0  0  0  0  0  0  0  0  0  0  0  0
    9.7930  -14.9779   27.1261 C   0  0  2  0  0  0  0  0  0  0  0  0
    9.4514  -15.9957   26.1476 N   0  0  0  0  0  0  0  0  0  0  0  0
   10.3195  -15.5962   28.3742 C   0  0  0  0  0  0  0  0  0  0  0  0
   10.1687  -16.8204   28.5352 O   0  0  0  0  0  0  0  0  0  0  0  0
   10.9618  -14.8645   29.3469 O   0  0  0  0  0  0  0  0  0  0  0  0
  2  1  1  1
  3  2  1  0
  4  3  1  0
  5  4  1  0
  5  6  1  0
  7  6  1  0
  8  2  1  0
  8 10  1  0
  9  8  2  0
 11 10  1  0
 12 13  1  0
 11 12  1  6
 13 14  1  0
 14 18  1  0
 15 14  2  0
 16 11  1  0
 17 16  2  0
 20 19  1  1
 20 22  1  0
 21 20  1  0
 22 23  1  6
 22 24  1  0
 23 16  1  0
 24 26  1  0
 25 24  2  0
M  END
$$$$
