RFV.pdb
     RDKit          3D

 30 30  0  0  1  0  0  0  0  0999 V2000
   27.7421  -16.3240  -19.7457 N   0  0  0  0  0  0  0  0  0  0  0  0
   28.9237  -16.1781  -18.9686 C   0  0  0  0  0  0  0  0  0  0  0  0
   29.7728  -15.2457  -19.2935 N   0  0  0  0  0  0  0  0  0  0  0  0
   29.1515  -17.0465  -17.8613 N   0  0  0  0  0  0  0  0  0  0  0  0
   28.1922  -18.1222  -17.6200 C   0  0  0  0  0  0  0  0  0  0  0  0
   27.6755  -18.0873  -16.2178 C   0  0  0  0  0  0  0  0  0  0  0  0
   26.9687  -19.3505  -15.8562 C   0  0  0  0  0  0  0  0  0  0  0  0
   27.6105  -20.1353  -14.7773 C   0  0  2  0  0  0  0  0  0  0  0  0
   28.6896  -20.9867  -15.1262 N   0  0  0  0  0  0  0  0  0  0  0  0
   26.5582  -20.8254  -13.9744 C   0  0  0  0  0  0  0  0  0  0  0  0
   26.1539  -21.9355  -14.3834 O   0  0  0  0  0  0  0  0  0  0  0  0
   30.6347  -15.0696  -18.7446 N   0  0  0  0  0  0  0  0  0  0  0  0
   26.0016  -20.2941  -12.7887 C   0  0  2  0  0  0  0  0  0  0  0  0
   24.9997  -20.9770  -12.0006 C   0  0  0  0  0  0  0  0  0  0  0  0
   25.1011  -20.6113  -10.5351 C   0  0  0  0  0  0  0  0  0  0  0  0
   26.4566  -20.7581  -10.0050 C   0  0  0  0  0  0  0  0  0  0  0  0
   27.3581  -21.6749  -10.4818 C   0  0  0  0  0  0  0  0  0  0  0  0
   28.6218  -21.7415   -9.9190 C   0  0  0  0  0  0  0  0  0  0  0  0
   29.0001  -20.9060   -8.8863 C   0  0  0  0  0  0  0  0  0  0  0  0
   28.0940  -19.9883   -8.4108 C   0  0  0  0  0  0  0  0  0  0  0  0
   26.8478  -19.9332   -8.9765 C   0  0  0  0  0  0  0  0  0  0  0  0
   23.6385  -20.6513  -12.4728 O   0  0  0  0  0  0  0  0  0  0  0  0
   23.2180  -19.4655  -12.5540 C   0  0  0  0  0  0  0  0  0  0  0  0
   22.1525  -22.6801  -15.4568 C   0  0  2  0  0  0  0  0  0  0  0  0
   21.1563  -22.6771  -14.3034 C   0  0  0  0  0  0  0  0  0  0  0  0
   21.2522  -23.9994  -13.6144 C   0  0  2  0  0  0  0  0  0  0  0  0
   21.4337  -21.5045  -13.3662 N   0  0  0  0  0  0  0  0  0  0  0  0
   22.7730  -21.7147  -12.8522 C   0  0  0  0  0  0  0  0  0  0  0  0
   20.4948  -21.5160  -12.2391 O   0  0  0  0  0  0  0  0  0  0  0  0
   20.8050  -22.0335  -11.1518 O   0  0  0  0  0  0  0  0  0  0  0  0
  2  1  1  0
  3  2  2  0
  4  2  1  0
  5  4  1  0
  6  5  1  0
  7  6  1  0
  8  7  1  0
  8  9  1  6
 10  8  1  0
 10 12  1  0
 11 10  2  0
 13 21  1  0
 13 12  1  0
 13 14  1  6
 15 14  1  0
 16 15  2  0
 17 16  1  0
 18 19  1  0
 18 17  2  0
 19 20  2  0
 20 15  1  0
 21 27  1  0
 22 21  2  0
 24 23  1  6
 24 25  1  0
 24 26  1  0
 26 28  1  0
 26 27  1  6
 28 29  2  0
 28 30  1  0
M  END
$$$$
