RFV.pdb
     RDKit          3D

 30 30  0  0  1  0  0  0  0  0999 V2000
   21.1418  -26.9243  -13.3946 N   0  0  0  0  0  0  0  0  0  0  0  0
   22.0023  -27.1717  -14.4990 C   0  0  0  0  0  0  0  0  0  0  0  0
   21.5563  -27.8918  -15.4882 N   0  0  0  0  0  0  0  0  0  0  0  0
   23.3214  -26.6316  -14.5004 N   0  0  0  0  0  0  0  0  0  0  0  0
   23.5859  -25.4557  -13.6738 C   0  0  0  0  0  0  0  0  0  0  0  0
   22.8903  -24.2457  -14.2089 C   0  0  0  0  0  0  0  0  0  0  0  0
   23.2100  -23.0253  -13.4122 C   0  0  0  0  0  0  0  0  0  0  0  0
   24.4746  -22.3524  -13.7861 C   0  0  2  0  0  0  0  0  0  0  0  0
   25.5774  -22.4712  -12.9025 N   0  0  0  0  0  0  0  0  0  0  0  0
   24.1873  -20.9400  -14.1747 C   0  0  0  0  0  0  0  0  0  0  0  0
   23.9372  -20.1275  -13.2581 O   0  0  0  0  0  0  0  0  0  0  0  0
   22.1425  -28.1190  -16.3127 N   0  0  0  0  0  0  0  0  0  0  0  0
   24.1834  -20.4794  -15.5110 C   0  0  2  0  0  0  0  0  0  0  0  0
   23.9839  -19.0950  -15.8783 C   0  0  0  0  0  0  0  0  0  0  0  0
   25.2830  -18.4370  -16.2919 C   0  0  0  0  0  0  0  0  0  0  0  0
   26.3533  -18.6271  -15.3130 C   0  0  0  0  0  0  0  0  0  0  0  0
   27.2603  -19.6537  -15.3763 C   0  0  0  0  0  0  0  0  0  0  0  0
   28.2422  -19.7539  -14.4047 C   0  0  0  0  0  0  0  0  0  0  0  0
   28.3329  -18.8440  -13.3696 C   0  0  0  0  0  0  0  0  0  0  0  0
   27.4222  -17.8162  -13.3092 C   0  0  0  0  0  0  0  0  0  0  0  0
   26.4564  -17.7291  -14.2764 C   0  0  0  0  0  0  0  0  0  0  0  0
   23.0208  -18.9736  -16.9918 O   0  0  0  0  0  0  0  0  0  0  0  0
   23.0917  -19.6902  -18.0266 C   0  0  0  0  0  0  0  0  0  0  0  0
   18.4841  -17.7473  -18.2011 C   0  0  2  0  0  0  0  0  0  0  0  0
   19.6243  -18.0579  -17.2387 C   0  0  0  0  0  0  0  0  0  0  0  0
   19.4551  -19.4667  -16.7706 C   0  0  1  0  0  0  0  0  0  0  0  0
   20.9707  -17.8222  -17.9184 N   0  0  0  0  0  0  0  0  0  0  0  0
   21.9743  -18.0153  -16.8899 C   0  0  0  0  0  0  0  0  0  0  0  0
   21.0636  -16.4420  -18.4068 O   0  0  0  0  0  0  0  0  0  0  0  0
   21.3806  -15.5122  -17.6444 O   0  0  0  0  0  0  0  0  0  0  0  0
  2  1  1  0
  3  2  2  0
  4  2  1  0
  5  4  1  0
  6  5  1  0
  7  6  1  0
  8  7  1  0
  8  9  1  1
 10  8  1  0
 10 12  1  0
 11 10  2  0
 13 21  1  0
 13 12  1  0
 13 14  1  1
 15 14  1  0
 16 15  2  0
 17 16  1  0
 18 19  1  0
 18 17  2  0
 19 20  2  0
 20 15  1  0
 21 27  1  0
 22 21  2  0
 24 23  1  1
 24 25  1  0
 24 26  1  0
 26 28  1  0
 26 27  1  1
 28 29  2  0
 28 30  1  0
M  END
$$$$
