RFV.pdb
     RDKit          3D

 30 30  0  0  1  0  0  0  0  0999 V2000
   28.6193  -17.6391  -20.0369 N   0  0  0  0  0  0  0  0  0  0  0  0
   27.7737  -16.8556  -19.2048 C   0  0  0  0  0  0  0  0  0  0  0  0
   27.3659  -15.6989  -19.6425 N   0  0  0  0  0  0  0  0  0  0  0  0
   27.3936  -17.3480  -17.9222 N   0  0  0  0  0  0  0  0  0  0  0  0
   27.7161  -18.7347  -17.5927 C   0  0  0  0  0  0  0  0  0  0  0  0
   26.6957  -19.6775  -18.1441 C   0  0  0  0  0  0  0  0  0  0  0  0
   26.1039  -20.5384  -17.0788 C   0  0  0  0  0  0  0  0  0  0  0  0
   27.0849  -21.3303  -16.3029 C   0  0  2  0  0  0  0  0  0  0  0  0
   27.6509  -22.4755  -16.9186 N   0  0  0  0  0  0  0  0  0  0  0  0
   26.5313  -21.6109  -14.9453 C   0  0  0  0  0  0  0  0  0  0  0  0
   25.6885  -22.5286  -14.8428 O   0  0  0  0  0  0  0  0  0  0  0  0
   26.8079  -15.0525  -19.0543 N   0  0  0  0  0  0  0  0  0  0  0  0
   26.9067  -20.9000  -13.7826 C   0  0  2  0  0  0  0  0  0  0  0  0
   26.1721  -20.9585  -12.5384 C   0  0  0  0  0  0  0  0  0  0  0  0
   26.9158  -20.2590  -11.4206 C   0  0  0  0  0  0  0  0  0  0  0  0
   26.1729  -20.2525  -10.1605 C   0  0  0  0  0  0  0  0  0  0  0  0
   26.5934  -19.5830   -9.0400 C   0  0  0  0  0  0  0  0  0  0  0  0
   25.8230  -19.6317   -7.8900 C   0  0  0  0  0  0  0  0  0  0  0  0
   24.6379  -20.3393   -7.8412 C   0  0  0  0  0  0  0  0  0  0  0  0
   24.2194  -21.0092   -8.9662 C   0  0  0  0  0  0  0  0  0  0  0  0
   24.9909  -20.9526  -10.0964 C   0  0  0  0  0  0  0  0  0  0  0  0
   24.8398  -20.3358  -12.6775 O   0  0  0  0  0  0  0  0  0  0  0  0
   24.6905  -19.1040  -12.9003 C   0  0  0  0  0  0  0  0  0  0  0  0
   22.6425  -20.6745  -15.1151 C   0  0  2  0  0  0  0  0  0  0  0  0
   21.7647  -21.1380  -13.9586 C   0  0  0  0  0  0  0  0  0  0  0  0
   21.6732  -22.6279  -14.0240 C   0  0  2  0  0  0  0  0  0  0  0  0
   22.3315  -20.6418  -12.6309 N   0  0  0  0  0  0  0  0  0  0  0  0
   23.6846  -21.1576  -12.5587 C   0  0  0  0  0  0  0  0  0  0  0  0
   21.5630  -21.1908  -11.5083 O   0  0  0  0  0  0  0  0  0  0  0  0
   21.6958  -22.3770  -11.1599 O   0  0  0  0  0  0  0  0  0  0  0  0
  2  1  1  0
  3  2  2  0
  4  2  1  0
  5  4  1  0
  6  5  1  0
  7  6  1  0
  8  7  1  0
  8  9  1  6
 10  8  1  0
 10 12  1  0
 11 10  2  0
 13 21  1  0
 13 12  1  0
 13 14  1  1
 15 14  1  0
 16 15  2  0
 17 16  1  0
 18 19  1  0
 18 17  2  0
 19 20  2  0
 20 15  1  0
 21 27  1  0
 22 21  2  0
 24 23  1  6
 24 25  1  0
 24 26  1  0
 26 28  1  0
 26 27  1  1
 28 29  2  0
 28 30  1  0
M  END
$$$$
