RFV.pdb
     RDKit          3D

 30 30  0  0  1  0  0  0  0  0999 V2000
   30.3345  -19.6586  -19.7279 N   0  0  0  0  0  0  0  0  0  0  0  0
   29.2538  -20.2832  -20.4086 C   0  0  0  0  0  0  0  0  0  0  0  0
   29.5056  -20.9529  -21.4967 N   0  0  0  0  0  0  0  0  0  0  0  0
   27.9310  -20.1647  -19.8908 N   0  0  0  0  0  0  0  0  0  0  0  0
   27.6758  -19.1414  -18.8791 C   0  0  0  0  0  0  0  0  0  0  0  0
   28.6938  -19.1900  -17.7857 C   0  0  0  0  0  0  0  0  0  0  0  0
   28.2108  -19.9770  -16.6137 C   0  0  0  0  0  0  0  0  0  0  0  0
   27.6550  -19.1661  -15.5067 C   0  0  2  0  0  0  0  0  0  0  0  0
   28.5175  -18.2456  -14.8587 N   0  0  0  0  0  0  0  0  0  0  0  0
   26.9322  -20.0593  -14.5537 C   0  0  0  0  0  0  0  0  0  0  0  0
   26.3733  -21.0742  -15.0231 O   0  0  0  0  0  0  0  0  0  0  0  0
   28.7552  -21.4032  -22.0529 N   0  0  0  0  0  0  0  0  0  0  0  0
   26.8481  -19.8189  -13.1633 C   0  0  1  0  0  0  0  0  0  0  0  0
   26.0930  -20.6508  -12.2529 C   0  0  0  0  0  0  0  0  0  0  0  0
   26.6533  -20.5879  -10.8480 C   0  0  0  0  0  0  0  0  0  0  0  0
   28.0355  -21.0596  -10.7656 C   0  0  0  0  0  0  0  0  0  0  0  0
   28.3828  -22.3004  -10.2958 C   0  0  0  0  0  0  0  0  0  0  0  0
   29.7190  -22.6624  -10.2556 C   0  0  0  0  0  0  0  0  0  0  0  0
   30.7153  -21.8039  -10.6776 C   0  0  0  0  0  0  0  0  0  0  0  0
   30.3637  -20.5611  -11.1479 C   0  0  0  0  0  0  0  0  0  0  0  0
   29.0387  -20.2161  -11.1821 C   0  0  0  0  0  0  0  0  0  0  0  0
   24.6741  -20.2421  -12.2113 O   0  0  0  0  0  0  0  0  0  0  0  0
   24.3048  -19.1332  -11.7387 C   0  0  0  0  0  0  0  0  0  0  0  0
   22.0977  -22.8299  -14.3730 C   0  0  2  0  0  0  0  0  0  0  0  0
   22.0343  -21.3080  -14.4212 C   0  0  0  0  0  0  0  0  0  0  0  0
   20.6817  -20.9235  -14.9260 C   0  0  1  0  0  0  0  0  0  0  0  0
   22.3368  -20.7209  -13.0449 N   0  0  0  0  0  0  0  0  0  0  0  0
   23.6904  -21.1314  -12.7264 C   0  0  0  0  0  0  0  0  0  0  0  0
   21.4302  -21.2826  -12.0376 O   0  0  0  0  0  0  0  0  0  0  0  0
   21.7091  -22.3376  -11.4415 O   0  0  0  0  0  0  0  0  0  0  0  0
  2  1  1  0
  3  2  2  0
  4  2  1  0
  5  4  1  0
  6  5  1  0
  7  6  1  0
  8  7  1  0
  8  9  1  1
 10  8  1  0
 10 12  1  0
 11 10  2  0
 13 21  1  0
 13 12  1  0
 13 14  1  1
 15 14  1  0
 16 15  2  0
 17 16  1  0
 18 19  1  0
 18 17  2  0
 19 20  2  0
 20 15  1  0
 21 27  1  0
 22 21  2  0
 24 23  1  6
 24 25  1  0
 24 26  1  0
 26 28  1  0
 26 27  1  6
 28 29  2  0
 28 30  1  0
M  END
$$$$
