RFV.pdb
     RDKit          3D

 30 30  0  0  1  0  0  0  0  0999 V2000
   31.1801  -26.2190  -19.7678 N   0  0  0  0  0  0  0  0  0  0  0  0
   30.6789  -26.9895  -18.6832 C   0  0  0  0  0  0  0  0  0  0  0  0
   29.8401  -27.9526  -18.9373 N   0  0  0  0  0  0  0  0  0  0  0  0
   31.1011  -26.6946  -17.3540 N   0  0  0  0  0  0  0  0  0  0  0  0
   30.4631  -25.5781  -16.6596 C   0  0  0  0  0  0  0  0  0  0  0  0
   30.6688  -24.2915  -17.3921 C   0  0  0  0  0  0  0  0  0  0  0  0
   30.0384  -23.1418  -16.6801 C   0  0  0  0  0  0  0  0  0  0  0  0
   28.6560  -23.3844  -16.2093 C   0  0  2  0  0  0  0  0  0  0  0  0
   27.6716  -23.7101  -17.1767 N   0  0  0  0  0  0  0  0  0  0  0  0
   28.2395  -22.2730  -15.3038 C   0  0  0  0  0  0  0  0  0  0  0  0
   29.1312  -21.7075  -14.6345 O   0  0  0  0  0  0  0  0  0  0  0  0
   29.5409  -28.6290  -18.2106 N   0  0  0  0  0  0  0  0  0  0  0  0
   26.9036  -21.8322  -15.1660 C   0  0  1  0  0  0  0  0  0  0  0  0
   26.4906  -20.8173  -14.2222 C   0  0  0  0  0  0  0  0  0  0  0  0
   25.7558  -19.6858  -14.9089 C   0  0  0  0  0  0  0  0  0  0  0  0
   26.6345  -18.8531  -15.7300 C   0  0  0  0  0  0  0  0  0  0  0  0
   27.2812  -17.7411  -15.2546 C   0  0  0  0  0  0  0  0  0  0  0  0
   28.0961  -17.0131  -16.1055 C   0  0  0  0  0  0  0  0  0  0  0  0
   28.2757  -17.3784  -17.4254 C   0  0  0  0  0  0  0  0  0  0  0  0
   27.6261  -18.4935  -17.8986 C   0  0  0  0  0  0  0  0  0  0  0  0
   26.8232  -19.2041  -17.0463 C   0  0  0  0  0  0  0  0  0  0  0  0
   25.6099  -21.3857  -13.1814 O   0  0  0  0  0  0  0  0  0  0  0  0
   24.7758  -22.2985  -13.4277 C   0  0  0  0  0  0  0  0  0  0  0  0
   27.0905  -21.3862   -9.5270 C   0  0  2  0  0  0  0  0  0  0  0  0
   25.6293  -20.9559   -9.4791 C   0  0  0  0  0  0  0  0  0  0  0  0
   25.5960  -19.4767   -9.2713 C   0  0  2  0  0  0  0  0  0  0  0  0
   24.9078  -21.3867  -10.7535 N   0  0  0  0  0  0  0  0  0  0  0  0
   25.7098  -20.8865  -11.8529 C   0  0  0  0  0  0  0  0  0  0  0  0
   23.5802  -20.7667  -10.8254 O   0  0  0  0  0  0  0  0  0  0  0  0
   22.6464  -21.1664  -10.1082 O   0  0  0  0  0  0  0  0  0  0  0  0
  2  1  1  0
  3  2  2  0
  4  2  1  0
  5  4  1  0
  6  5  1  0
  7  6  1  0
  8  7  1  0
  8  9  1  6
 10  8  1  0
 10 12  1  0
 11 10  2  0
 13 21  1  0
 13 12  1  0
 13 14  1  1
 15 14  1  0
 16 15  2  0
 17 16  1  0
 18 19  1  0
 18 17  2  0
 19 20  2  0
 20 15  1  0
 21 27  1  0
 22 21  2  0
 24 23  1  1
 24 25  1  0
 24 26  1  0
 26 28  1  0
 26 27  1  1
 28 29  2  0
 28 30  1  0
M  END
$$$$
