RFV.pdb
     RDKit          3D

 30 30  0  0  1  0  0  0  0  0999 V2000
   24.6328  -19.8044  -15.4385 N   0  0  0  0  0  0  0  0  0  0  0  0
   23.3434  -19.2057  -15.4182 C   0  0  0  0  0  0  0  0  0  0  0  0
   22.6577  -19.1633  -16.5245 N   0  0  0  0  0  0  0  0  0  0  0  0
   22.8335  -18.6700  -14.1996 N   0  0  0  0  0  0  0  0  0  0  0  0
   23.5520  -18.9666  -12.9620 C   0  0  0  0  0  0  0  0  0  0  0  0
   23.5367  -20.4306  -12.6604 C   0  0  0  0  0  0  0  0  0  0  0  0
   24.2612  -20.7428  -11.3940 C   0  0  0  0  0  0  0  0  0  0  0  0
   25.7358  -20.6441  -11.4806 C   0  0  2  0  0  0  0  0  0  0  0  0
   26.3946  -21.3960  -12.4863 N   0  0  0  0  0  0  0  0  0  0  0  0
   26.3254  -20.8415  -10.1234 C   0  0  0  0  0  0  0  0  0  0  0  0
   26.3960  -22.0113   -9.6882 O   0  0  0  0  0  0  0  0  0  0  0  0
   21.7284  -18.7068  -16.5799 N   0  0  0  0  0  0  0  0  0  0  0  0
   26.8026  -19.7853   -9.3142 C   0  0  2  0  0  0  0  0  0  0  0  0
   27.3735  -19.9809   -8.0001 C   0  0  0  0  0  0  0  0  0  0  0  0
   28.1967  -18.7861   -7.5683 C   0  0  0  0  0  0  0  0  0  0  0  0
   28.8014  -18.9597   -6.2477 C   0  0  0  0  0  0  0  0  0  0  0  0
   28.4214  -18.2409   -5.1433 C   0  0  0  0  0  0  0  0  0  0  0  0
   29.0498  -18.4743   -3.9314 C   0  0  0  0  0  0  0  0  0  0  0  0
   30.0529  -19.4152   -3.8046 C   0  0  0  0  0  0  0  0  0  0  0  0
   30.4313  -20.1338   -4.9135 C   0  0  0  0  0  0  0  0  0  0  0  0
   29.8016  -19.8929   -6.1057 C   0  0  0  0  0  0  0  0  0  0  0  0
   26.3196  -20.2141   -6.9916 O   0  0  0  0  0  0  0  0  0  0  0  0
   25.3408  -19.4330   -6.8453 C   0  0  0  0  0  0  0  0  0  0  0  0
   27.1363  -23.2122   -4.1052 C   0  0  2  0  0  0  0  0  0  0  0  0
   25.7364  -23.1132   -4.6995 C   0  0  0  0  0  0  0  0  0  0  0  0
   24.7704  -23.6183   -3.6778 C   0  0  1  0  0  0  0  0  0  0  0  0
   25.4424  -21.6776   -5.1272 N   0  0  0  0  0  0  0  0  0  0  0  0
   26.4120  -21.3636   -6.1584 C   0  0  0  0  0  0  0  0  0  0  0  0
   25.6430  -20.7566   -4.0030 O   0  0  0  0  0  0  0  0  0  0  0  0
   26.7676  -20.2911   -3.7486 O   0  0  0  0  0  0  0  0  0  0  0  0
  2  1  1  0
  3  2  2  0
  4  2  1  0
  5  4  1  0
  6  5  1  0
  7  6  1  0
  8  7  1  0
  8  9  1  6
 10  8  1  0
 10 12  1  0
 11 10  2  0
 13 21  1  0
 13 12  1  0
 13 14  1  6
 15 14  1  0
 16 15  2  0
 17 16  1  0
 18 19  1  0
 18 17  2  0
 19 20  2  0
 20 15  1  0
 21 27  1  0
 22 21  2  0
 24 23  1  6
 24 25  1  0
 24 26  1  0
 26 28  1  0
 26 27  1  6
 28 29  2  0
 28 30  1  0
M  END
$$$$
