RFV.pdb
     RDKit          3D

 30 30  0  0  1  0  0  0  0  0999 V2000
   29.3434  -16.4640  -18.1781 N   0  0  0  0  0  0  0  0  0  0  0  0
   27.9746  -16.4488  -17.7938 C   0  0  0  0  0  0  0  0  0  0  0  0
   27.0662  -16.3784  -18.7243 N   0  0  0  0  0  0  0  0  0  0  0  0
   27.6290  -16.5104  -16.4123 N   0  0  0  0  0  0  0  0  0  0  0  0
   28.2767  -17.5255  -15.5841 C   0  0  0  0  0  0  0  0  0  0  0  0
   27.9662  -18.9046  -16.0699 C   0  0  0  0  0  0  0  0  0  0  0  0
   26.9551  -19.5816  -15.2065 C   0  0  0  0  0  0  0  0  0  0  0  0
   27.5193  -20.3509  -14.0745 C   0  0  2  0  0  0  0  0  0  0  0  0
   28.5395  -21.2951  -14.3550 N   0  0  0  0  0  0  0  0  0  0  0  0
   26.4058  -20.9195  -13.2589 C   0  0  0  0  0  0  0  0  0  0  0  0
   25.9039  -21.9996  -13.6387 O   0  0  0  0  0  0  0  0  0  0  0  0
   26.0575  -16.2835  -18.5038 N   0  0  0  0  0  0  0  0  0  0  0  0
   25.8954  -20.3060  -12.0922 C   0  0  2  0  0  0  0  0  0  0  0  0
   24.7517  -20.8058  -11.3618 C   0  0  0  0  0  0  0  0  0  0  0  0
   24.7125  -20.2607   -9.9500 C   0  0  0  0  0  0  0  0  0  0  0  0
   25.9936  -20.3882   -9.2556 C   0  0  0  0  0  0  0  0  0  0  0  0
   26.4951  -19.4279   -8.4148 C   0  0  0  0  0  0  0  0  0  0  0  0
   27.7178  -19.6356   -7.7984 C   0  0  0  0  0  0  0  0  0  0  0  0
   28.4487  -20.7886   -8.0086 C   0  0  0  0  0  0  0  0  0  0  0  0
   27.9431  -21.7490   -8.8520 C   0  0  0  0  0  0  0  0  0  0  0  0
   26.7329  -21.5306   -9.4550 C   0  0  0  0  0  0  0  0  0  0  0  0
   23.4893  -20.4461  -12.0392 O   0  0  0  0  0  0  0  0  0  0  0  0
   23.2826  -19.2973  -12.5157 C   0  0  0  0  0  0  0  0  0  0  0  0
   19.6923  -22.4916  -14.4252 C   0  0  2  0  0  0  0  0  0  0  0  0
   21.0156  -22.5478  -13.6713 C   0  0  0  0  0  0  0  0  0  0  0  0
   22.0912  -22.8595  -14.6604 C   0  0  1  0  0  0  0  0  0  0  0  0
   21.2602  -21.2354  -12.9310 N   0  0  0  0  0  0  0  0  0  0  0  0
   22.4723  -21.4335  -12.1606 C   0  0  0  0  0  0  0  0  0  0  0  0
   20.1585  -20.9574  -12.0031 O   0  0  0  0  0  0  0  0  0  0  0  0
   19.2085  -20.2275  -12.3363 O   0  0  0  0  0  0  0  0  0  0  0  0
  2  1  1  0
  3  2  2  0
  4  2  1  0
  5  4  1  0
  6  5  1  0
  7  6  1  0
  8  7  1  0
  8  9  1  6
 10  8  1  0
 10 12  1  0
 11 10  2  0
 13 21  1  0
 13 12  1  0
 13 14  1  6
 15 14  1  0
 16 15  2  0
 17 16  1  0
 18 19  1  0
 18 17  2  0
 19 20  2  0
 20 15  1  0
 21 27  1  0
 22 21  2  0
 24 23  1  1
 24 25  1  0
 24 26  1  0
 26 28  1  0
 26 27  1  1
 28 29  2  0
 28 30  1  0
M  END
$$$$
