RFV.pdb
     RDKit          3D

 30 30  0  0  1  0  0  0  0  0999 V2000
   27.0635  -16.4457  -16.2966 N   0  0  0  0  0  0  0  0  0  0  0  0
   27.2505  -17.8386  -16.5116 C   0  0  0  0  0  0  0  0  0  0  0  0
   26.7282  -18.3815  -17.5739 N   0  0  0  0  0  0  0  0  0  0  0  0
   27.9984  -18.6037  -15.5697 N   0  0  0  0  0  0  0  0  0  0  0  0
   27.6425  -18.4961  -14.1564 C   0  0  0  0  0  0  0  0  0  0  0  0
   26.1633  -18.3823  -13.9739 C   0  0  0  0  0  0  0  0  0  0  0  0
   25.6680  -19.2807  -12.8905 C   0  0  0  0  0  0  0  0  0  0  0  0
   26.5290  -20.4524  -12.6122 C   0  0  2  0  0  0  0  0  0  0  0  0
   26.3543  -21.6108  -13.4114 N   0  0  0  0  0  0  0  0  0  0  0  0
   26.5091  -20.7445  -11.1484 C   0  0  0  0  0  0  0  0  0  0  0  0
   25.9874  -21.8193  -10.7803 O   0  0  0  0  0  0  0  0  0  0  0  0
   26.8446  -19.3884  -17.7923 N   0  0  0  0  0  0  0  0  0  0  0  0
   27.0437  -19.8778  -10.1682 C   0  0  1  0  0  0  0  0  0  0  0  0
   26.9514  -20.1258   -8.7465 C   0  0  0  0  0  0  0  0  0  0  0  0
   27.9438  -19.2865   -7.9703 C   0  0  0  0  0  0  0  0  0  0  0  0
   27.9002  -19.5411   -6.5305 C   0  0  0  0  0  0  0  0  0  0  0  0
   28.6690  -18.8620   -5.6204 C   0  0  0  0  0  0  0  0  0  0  0  0
   28.5599  -19.1698   -4.2745 C   0  0  0  0  0  0  0  0  0  0  0  0
   27.6940  -20.1463   -3.8224 C   0  0  0  0  0  0  0  0  0  0  0  0
   26.9249  -20.8251   -4.7373 C   0  0  0  0  0  0  0  0  0  0  0  0
   27.0429  -20.5106   -6.0651 C   0  0  0  0  0  0  0  0  0  0  0  0
   25.5939  -19.8335   -8.2426 O   0  0  0  0  0  0  0  0  0  0  0  0
   25.1462  -18.6585   -8.1516 C   0  0  0  0  0  0  0  0  0  0  0  0
   22.7013  -20.3339   -9.7037 C   0  0  2  0  0  0  0  0  0  0  0  0
   22.4817  -21.1888   -8.4612 C   0  0  0  0  0  0  0  0  0  0  0  0
   22.6878  -22.6172   -8.8480 C   0  0  2  0  0  0  0  0  0  0  0  0
   23.4159  -20.7431   -7.3391 N   0  0  0  0  0  0  0  0  0  0  0  0
   24.7617  -20.9183   -7.8492 C   0  0  0  0  0  0  0  0  0  0  0  0
   23.2484  -21.6017   -6.1615 O   0  0  0  0  0  0  0  0  0  0  0  0
   23.9759  -22.5943   -5.9833 O   0  0  0  0  0  0  0  0  0  0  0  0
  2  1  1  0
  3  2  2  0
  4  2  1  0
  5  4  1  0
  6  5  1  0
  7  6  1  0
  8  7  1  0
  8  9  1  6
 10  8  1  0
 10 12  1  0
 11 10  2  0
 13 21  1  0
 13 12  1  0
 13 14  1  1
 15 14  1  0
 16 15  2  0
 17 16  1  0
 18 19  1  0
 18 17  2  0
 19 20  2  0
 20 15  1  0
 21 27  1  0
 22 21  2  0
 24 23  1  6
 24 25  1  0
 24 26  1  0
 26 28  1  0
 26 27  1  1
 28 29  2  0
 28 30  1  0
M  END
$$$$
