RFV.pdb
     RDKit          3D

 30 30  0  0  1  0  0  0  0  0999 V2000
   28.7351  -18.1558  -16.0399 N   0  0  0  0  0  0  0  0  0  0  0  0
   28.7606  -19.5293  -16.4061 C   0  0  0  0  0  0  0  0  0  0  0  0
   29.3619  -19.8696  -17.5100 N   0  0  0  0  0  0  0  0  0  0  0  0
   28.1341  -20.4952  -15.5656 N   0  0  0  0  0  0  0  0  0  0  0  0
   28.0165  -20.1960  -14.1400 C   0  0  0  0  0  0  0  0  0  0  0  0
   29.3336  -19.7974  -13.5563 C   0  0  0  0  0  0  0  0  0  0  0  0
   29.2235  -19.4869  -12.1010 C   0  0  0  0  0  0  0  0  0  0  0  0
   29.5185  -20.6230  -11.1988 C   0  0  2  0  0  0  0  0  0  0  0  0
   30.1842  -21.7500  -11.7446 N   0  0  0  0  0  0  0  0  0  0  0  0
   28.2855  -20.9845  -10.4389 C   0  0  0  0  0  0  0  0  0  0  0  0
   27.8217  -22.1339  -10.6024 O   0  0  0  0  0  0  0  0  0  0  0  0
   29.3422  -20.8411  -17.8715 N   0  0  0  0  0  0  0  0  0  0  0  0
   27.6229  -20.1037   -9.5541 C   0  0  1  0  0  0  0  0  0  0  0  0
   26.2929  -20.3407   -9.0380 C   0  0  0  0  0  0  0  0  0  0  0  0
   26.0517  -19.5785   -7.7524 C   0  0  0  0  0  0  0  0  0  0  0  0
   27.1079  -19.7861   -6.7618 C   0  0  0  0  0  0  0  0  0  0  0  0
   28.1706  -18.9342   -6.6020 C   0  0  0  0  0  0  0  0  0  0  0  0
   29.1235  -19.2103   -5.6356 C   0  0  0  0  0  0  0  0  0  0  0  0
   29.0319  -20.3251   -4.8253 C   0  0  0  0  0  0  0  0  0  0  0  0
   27.9655  -21.1769   -4.9882 C   0  0  0  0  0  0  0  0  0  0  0  0
   27.0305  -20.8918   -5.9476 C   0  0  0  0  0  0  0  0  0  0  0  0
   25.2629  -19.9436  -10.0195 O   0  0  0  0  0  0  0  0  0  0  0  0
   25.1454  -18.7582  -10.4324 C   0  0  0  0  0  0  0  0  0  0  0  0
   23.5884  -23.1391  -12.1100 C   0  0  2  0  0  0  0  0  0  0  0  0
   23.7535  -21.7313  -12.6699 C   0  0  0  0  0  0  0  0  0  0  0  0
   22.8684  -21.6099  -13.8675 C   0  0  1  0  0  0  0  0  0  0  0  0
   23.4358  -20.6933  -11.5966 N   0  0  0  0  0  0  0  0  0  0  0  0
   24.3743  -20.9363  -10.5184 C   0  0  0  0  0  0  0  0  0  0  0  0
   22.0754  -20.8872  -11.0828 O   0  0  0  0  0  0  0  0  0  0  0  0
   21.8598  -21.6156  -10.0984 O   0  0  0  0  0  0  0  0  0  0  0  0
  2  1  1  0
  3  2  2  0
  4  2  1  0
  5  4  1  0
  6  5  1  0
  7  6  1  0
  8  7  1  0
  8  9  1  6
 10  8  1  0
 10 12  1  0
 11 10  2  0
 13 21  1  0
 13 12  1  0
 13 14  1  6
 15 14  1  0
 16 15  2  0
 17 16  1  0
 18 19  1  0
 18 17  2  0
 19 20  2  0
 20 15  1  0
 21 27  1  0
 22 21  2  0
 24 23  1  6
 24 25  1  0
 24 26  1  0
 26 28  1  0
 26 27  1  6
 28 29  2  0
 28 30  1  0
M  END
$$$$
