RFV.pdb
     RDKit          3D

 30 30  0  0  1  0  0  0  0  0999 V2000
   32.5981  -30.5281  -16.5010 N   0  0  0  0  0  0  0  0  0  0  0  0
   32.4668  -29.5190  -17.4939 C   0  0  0  0  0  0  0  0  0  0  0  0
   33.5469  -28.9744  -17.9765 N   0  0  0  0  0  0  0  0  0  0  0  0
   31.1690  -29.1288  -17.9359 N   0  0  0  0  0  0  0  0  0  0  0  0
   30.9543  -27.7279  -18.2924 C   0  0  0  0  0  0  0  0  0  0  0  0
   30.7899  -26.8750  -17.0759 C   0  0  0  0  0  0  0  0  0  0  0  0
   29.3851  -26.8913  -16.5736 C   0  0  0  0  0  0  0  0  0  0  0  0
   28.3883  -26.3005  -17.4951 C   0  0  2  0  0  0  0  0  0  0  0  0
   27.6003  -25.2217  -17.0193 N   0  0  0  0  0  0  0  0  0  0  0  0
   27.5751  -27.3911  -18.1096 C   0  0  0  0  0  0  0  0  0  0  0  0
   26.3977  -27.5284  -17.7125 O   0  0  0  0  0  0  0  0  0  0  0  0
   33.5134  -28.2123  -18.6787 N   0  0  0  0  0  0  0  0  0  0  0  0
   28.0627  -28.2667  -19.1064 C   0  0  2  0  0  0  0  0  0  0  0  0
   27.2758  -29.3306  -19.6896 C   0  0  0  0  0  0  0  0  0  0  0  0
   27.6316  -29.5517  -21.1443 C   0  0  0  0  0  0  0  0  0  0  0  0
   26.7892  -30.5592  -21.7887 C   0  0  0  0  0  0  0  0  0  0  0  0
   27.1519  -31.8754  -21.9180 C   0  0  0  0  0  0  0  0  0  0  0  0
   26.2883  -32.7601  -22.5423 C   0  0  0  0  0  0  0  0  0  0  0  0
   25.0668  -32.3507  -23.0402 C   0  0  0  0  0  0  0  0  0  0  0  0
   24.7065  -31.0308  -22.9090 C   0  0  0  0  0  0  0  0  0  0  0  0
   25.5700  -30.1667  -22.2895 C   0  0  0  0  0  0  0  0  0  0  0  0
   27.4732  -30.5997  -18.9598 O   0  0  0  0  0  0  0  0  0  0  0  0
   28.6165  -31.0908  -18.7570 C   0  0  0  0  0  0  0  0  0  0  0  0
   25.6051  -31.3095  -15.6275 C   0  0  2  0  0  0  0  0  0  0  0  0
   25.2971  -32.4056  -16.6406 C   0  0  0  0  0  0  0  0  0  0  0  0
   23.9705  -32.0985  -17.2556 C   0  0  2  0  0  0  0  0  0  0  0  0
   26.4161  -32.5017  -17.6745 N   0  0  0  0  0  0  0  0  0  0  0  0
   26.3314  -31.2897  -18.4657 C   0  0  0  0  0  0  0  0  0  0  0  0
   26.1992  -33.6518  -18.5590 O   0  0  0  0  0  0  0  0  0  0  0  0
   25.3522  -33.6103  -19.4684 O   0  0  0  0  0  0  0  0  0  0  0  0
  2  1  1  0
  3  2  2  0
  4  2  1  0
  5  4  1  0
  6  5  1  0
  7  6  1  0
  8  7  1  0
  8  9  1  1
 10  8  1  0
 10 12  1  0
 11 10  2  0
 13 21  1  0
 13 12  1  0
 13 14  1  6
 15 14  1  0
 16 15  2  0
 17 16  1  0
 18 19  1  0
 18 17  2  0
 19 20  2  0
 20 15  1  0
 21 27  1  0
 22 21  2  0
 24 23  1  1
 24 25  1  0
 24 26  1  0
 26 28  1  0
 26 27  1  1
 28 29  2  0
 28 30  1  0
M  END
$$$$
