RFV.pdb
     RDKit          3D

 30 30  0  0  1  0  0  0  0  0999 V2000
   29.0823  -21.6535  -18.1951 N   0  0  0  0  0  0  0  0  0  0  0  0
   29.6373  -22.9394  -17.9503 C   0  0  0  0  0  0  0  0  0  0  0  0
   30.7305  -23.2758  -18.5730 N   0  0  0  0  0  0  0  0  0  0  0  0
   28.9922  -23.8241  -17.0377 N   0  0  0  0  0  0  0  0  0  0  0  0
   27.8355  -23.3264  -16.2960 C   0  0  0  0  0  0  0  0  0  0  0  0
   26.6561  -23.1302  -17.1930 C   0  0  0  0  0  0  0  0  0  0  0  0
   25.4267  -22.7806  -16.4233 C   0  0  0  0  0  0  0  0  0  0  0  0
   25.4525  -23.1763  -14.9970 C   0  0  2  0  0  0  0  0  0  0  0  0
   25.8255  -24.5081  -14.6831 N   0  0  0  0  0  0  0  0  0  0  0  0
   24.1769  -22.7580  -14.3442 C   0  0  0  0  0  0  0  0  0  0  0  0
   23.3393  -23.6497  -14.0871 O   0  0  0  0  0  0  0  0  0  0  0  0
   31.1654  -24.2099  -18.4575 N   0  0  0  0  0  0  0  0  0  0  0  0
   23.8708  -21.4201  -14.0059 C   0  0  1  0  0  0  0  0  0  0  0  0
   22.7201  -21.0387  -13.2174 C   0  0  0  0  0  0  0  0  0  0  0  0
   23.0134  -19.8294  -12.3552 C   0  0  0  0  0  0  0  0  0  0  0  0
   23.8889  -20.1365  -11.2242 C   0  0  0  0  0  0  0  0  0  0  0  0
   25.2578  -20.1264  -11.3052 C   0  0  0  0  0  0  0  0  0  0  0  0
   26.0074  -20.4290  -10.1806 C   0  0  0  0  0  0  0  0  0  0  0  0
   25.4108  -20.7419   -8.9748 C   0  0  0  0  0  0  0  0  0  0  0  0
   24.0385  -20.7512   -8.8972 C   0  0  0  0  0  0  0  0  0  0  0  0
   23.3095  -20.4501  -10.0170 C   0  0  0  0  0  0  0  0  0  0  0  0
   21.5622  -20.7300  -14.0810 O   0  0  0  0  0  0  0  0  0  0  0  0
   21.6158  -19.8674  -14.9989 C   0  0  0  0  0  0  0  0  0  0  0  0
   17.4528  -22.6127  -15.9290 C   0  0  2  0  0  0  0  0  0  0  0  0
   18.7254  -22.6720  -15.0926 C   0  0  0  0  0  0  0  0  0  0  0  0
   19.7577  -23.4072  -15.8840 C   0  0  1  0  0  0  0  0  0  0  0  0
   19.1727  -21.2642  -14.7074 N   0  0  0  0  0  0  0  0  0  0  0  0
   20.3442  -21.4344  -13.8703 C   0  0  0  0  0  0  0  0  0  0  0  0
   18.1318  -20.5929  -13.9212 O   0  0  0  0  0  0  0  0  0  0  0  0
   18.0347  -20.7782  -12.6955 O   0  0  0  0  0  0  0  0  0  0  0  0
  2  1  1  0
  3  2  2  0
  4  2  1  0
  5  4  1  0
  6  5  1  0
  7  6  1  0
  8  7  1  0
  8  9  1  6
 10  8  1  0
 10 12  1  0
 11 10  2  0
 13 21  1  0
 13 12  1  0
 13 14  1  1
 15 14  1  0
 16 15  2  0
 17 16  1  0
 18 19  1  0
 18 17  2  0
 19 20  2  0
 20 15  1  0
 21 27  1  0
 22 21  2  0
 24 23  1  1
 24 25  1  0
 24 26  1  0
 26 28  1  0
 26 27  1  1
 28 29  2  0
 28 30  1  0
M  END
$$$$
