RFV.pdb
     RDKit          3D

 30 30  0  0  1  0  0  0  0  0999 V2000
   26.3894  -20.2025  -18.2510 N   0  0  0  0  0  0  0  0  0  0  0  0
   27.5796  -19.6117  -18.7568 C   0  0  0  0  0  0  0  0  0  0  0  0
   27.9242  -19.8590  -19.9881 N   0  0  0  0  0  0  0  0  0  0  0  0
   28.3625  -18.7697  -17.9142 N   0  0  0  0  0  0  0  0  0  0  0  0
   28.9010  -19.3380  -16.6803 C   0  0  0  0  0  0  0  0  0  0  0  0
   27.8243  -19.9615  -15.8520 C   0  0  0  0  0  0  0  0  0  0  0  0
   27.9025  -19.5301  -14.4258 C   0  0  0  0  0  0  0  0  0  0  0  0
   28.2589  -20.6032  -13.4702 C   0  0  2  0  0  0  0  0  0  0  0  0
   28.9818  -21.7193  -13.9630 N   0  0  0  0  0  0  0  0  0  0  0  0
   27.0482  -20.9909  -12.6876 C   0  0  0  0  0  0  0  0  0  0  0  0
   26.4467  -22.0316  -13.0309 O   0  0  0  0  0  0  0  0  0  0  0  0
   28.7367  -19.3965  -20.4365 N   0  0  0  0  0  0  0  0  0  0  0  0
   26.5526  -20.2499  -11.5907 C   0  0  2  0  0  0  0  0  0  0  0  0
   25.4010  -20.6485  -10.8123 C   0  0  0  0  0  0  0  0  0  0  0  0
   25.3648  -19.9443   -9.4727 C   0  0  0  0  0  0  0  0  0  0  0  0
   26.5964  -20.1220   -8.7037 C   0  0  0  0  0  0  0  0  0  0  0  0
   27.4726  -21.1565   -8.9105 C   0  0  0  0  0  0  0  0  0  0  0  0
   28.6163  -21.2439   -8.1344 C   0  0  0  0  0  0  0  0  0  0  0  0
   28.8994  -20.3135   -7.1537 C   0  0  0  0  0  0  0  0  0  0  0  0
   28.0190  -19.2779   -6.9490 C   0  0  0  0  0  0  0  0  0  0  0  0
   26.8919  -19.2036   -7.7236 C   0  0  0  0  0  0  0  0  0  0  0  0
   24.1449  -20.3539  -11.5316 O   0  0  0  0  0  0  0  0  0  0  0  0
   23.8327  -19.1877  -11.8949 C   0  0  0  0  0  0  0  0  0  0  0  0
   23.2951  -22.3708  -14.5123 C   0  0  2  0  0  0  0  0  0  0  0  0
   22.0640  -22.4364  -13.6163 C   0  0  0  0  0  0  0  0  0  0  0  0
   22.0673  -23.7652  -12.9332 C   0  0  2  0  0  0  0  0  0  0  0  0
   22.0620  -21.2696  -12.6319 N   0  0  0  0  0  0  0  0  0  0  0  0
   23.2579  -21.4262  -11.8273 C   0  0  0  0  0  0  0  0  0  0  0  0
   20.8930  -21.3459  -11.7490 O   0  0  0  0  0  0  0  0  0  0  0  0
   19.8011  -20.8565  -12.0874 O   0  0  0  0  0  0  0  0  0  0  0  0
  2  1  1  0
  3  2  2  0
  4  2  1  0
  5  4  1  0
  6  5  1  0
  7  6  1  0
  8  7  1  0
  8  9  1  6
 10  8  1  0
 10 12  1  0
 11 10  2  0
 13 21  1  0
 13 12  1  0
 13 14  1  1
 15 14  1  0
 16 15  2  0
 17 16  1  0
 18 19  1  0
 18 17  2  0
 19 20  2  0
 20 15  1  0
 21 27  1  0
 22 21  2  0
 24 23  1  6
 24 25  1  0
 24 26  1  0
 26 28  1  0
 26 27  1  6
 28 29  2  0
 28 30  1  0
M  END
$$$$
