RFV.pdb
     RDKit          3D

 30 30  0  0  1  0  0  0  0  0999 V2000
   24.3688  -25.5115  -17.8665 N   0  0  0  0  0  0  0  0  0  0  0  0
   25.1358  -26.5509  -17.2726 C   0  0  0  0  0  0  0  0  0  0  0  0
   24.5789  -27.7150  -17.0975 N   0  0  0  0  0  0  0  0  0  0  0  0
   26.4844  -26.2995  -16.8855 N   0  0  0  0  0  0  0  0  0  0  0  0
   27.0547  -24.9878  -17.1854 C   0  0  0  0  0  0  0  0  0  0  0  0
   28.4617  -24.8795  -16.6924 C   0  0  0  0  0  0  0  0  0  0  0  0
   29.0033  -23.4995  -16.8614 C   0  0  0  0  0  0  0  0  0  0  0  0
   28.0070  -22.4874  -17.2797 C   0  0  2  0  0  0  0  0  0  0  0  0
   28.2416  -21.7833  -18.4881 N   0  0  0  0  0  0  0  0  0  0  0  0
   27.7034  -21.5868  -16.1286 C   0  0  0  0  0  0  0  0  0  0  0  0
   28.6571  -20.9615  -15.6164 O   0  0  0  0  0  0  0  0  0  0  0  0
   25.0841  -28.5073  -16.6590 N   0  0  0  0  0  0  0  0  0  0  0  0
   26.4073  -21.4067  -15.5940 C   0  0  2  0  0  0  0  0  0  0  0  0
   26.0974  -20.4491  -14.5556 C   0  0  0  0  0  0  0  0  0  0  0  0
   25.2864  -19.2894  -15.0932 C   0  0  0  0  0  0  0  0  0  0  0  0
   26.1113  -18.2737  -15.7472 C   0  0  0  0  0  0  0  0  0  0  0  0
   26.3529  -18.2522  -17.0970 C   0  0  0  0  0  0  0  0  0  0  0  0
   27.1461  -17.2495  -17.6295 C   0  0  0  0  0  0  0  0  0  0  0  0
   27.7027  -16.2667  -16.8345 C   0  0  0  0  0  0  0  0  0  0  0  0
   27.4586  -16.2914  -15.4820 C   0  0  0  0  0  0  0  0  0  0  0  0
   26.6724  -17.2886  -14.9688 C   0  0  0  0  0  0  0  0  0  0  0  0
   25.3399  -21.0824  -13.4569 O   0  0  0  0  0  0  0  0  0  0  0  0
   24.3672  -21.8566  -13.6664 C   0  0  0  0  0  0  0  0  0  0  0  0
   26.0372  -19.3925   -9.6600 C   0  0  2  0  0  0  0  0  0  0  0  0
   25.7985  -20.8955   -9.7411 C   0  0  0  0  0  0  0  0  0  0  0  0
   25.1590  -21.3256   -8.4611 C   0  0  1  0  0  0  0  0  0  0  0  0
   24.9496  -21.2322  -10.9644 N   0  0  0  0  0  0  0  0  0  0  0  0
   25.7251  -20.8105  -12.1146 C   0  0  0  0  0  0  0  0  0  0  0  0
   23.6957  -20.4711  -10.9433 O   0  0  0  0  0  0  0  0  0  0  0  0
   23.6452  -19.3068  -11.3768 O   0  0  0  0  0  0  0  0  0  0  0  0
  2  1  1  0
  3  2  2  0
  4  2  1  0
  5  4  1  0
  6  5  1  0
  7  6  1  0
  8  7  1  0
  8  9  1  6
 10  8  1  0
 10 12  1  0
 11 10  2  0
 13 21  1  0
 13 12  1  0
 13 14  1  6
 15 14  1  0
 16 15  2  0
 17 16  1  0
 18 19  1  0
 18 17  2  0
 19 20  2  0
 20 15  1  0
 21 27  1  0
 22 21  2  0
 24 23  1  1
 24 25  1  0
 24 26  1  0
 26 28  1  0
 26 27  1  1
 28 29  2  0
 28 30  1  0
M  END
$$$$
