RFV.pdb
     RDKit          3D

 30 30  0  0  1  0  0  0  0  0999 V2000
   29.3639  -20.0934  -17.9576 N   0  0  0  0  0  0  0  0  0  0  0  0
   28.4169  -19.0428  -17.8134 C   0  0  0  0  0  0  0  0  0  0  0  0
   27.3908  -19.0136  -18.6148 N   0  0  0  0  0  0  0  0  0  0  0  0
   28.6085  -18.0538  -16.8049 N   0  0  0  0  0  0  0  0  0  0  0  0
   28.5163  -18.4682  -15.4065 C   0  0  0  0  0  0  0  0  0  0  0  0
   27.2278  -19.1741  -15.1311 C   0  0  0  0  0  0  0  0  0  0  0  0
   27.1053  -19.5635  -13.6960 C   0  0  0  0  0  0  0  0  0  0  0  0
   28.1017  -20.5562  -13.2338 C   0  0  2  0  0  0  0  0  0  0  0  0
   28.3767  -21.6638  -14.0756 N   0  0  0  0  0  0  0  0  0  0  0  0
   27.7894  -20.9536  -11.8292 C   0  0  0  0  0  0  0  0  0  0  0  0
   26.9340  -21.8492  -11.6583 O   0  0  0  0  0  0  0  0  0  0  0  0
   26.6952  -18.2451  -18.5918 N   0  0  0  0  0  0  0  0  0  0  0  0
   28.4042  -20.3757  -10.6952 C   0  0  2  0  0  0  0  0  0  0  0  0
   27.9298  -20.5703   -9.3431 C   0  0  0  0  0  0  0  0  0  0  0  0
   28.8837  -19.9763   -8.3286 C   0  0  0  0  0  0  0  0  0  0  0  0
   28.3687  -20.0368   -6.9608 C   0  0  0  0  0  0  0  0  0  0  0  0
   27.6814  -19.0093   -6.3671 C   0  0  0  0  0  0  0  0  0  0  0  0
   27.2292  -19.1564   -5.0663 C   0  0  0  0  0  0  0  0  0  0  0  0
   27.4528  -20.3148   -4.3480 C   0  0  0  0  0  0  0  0  0  0  0  0
   28.1421  -21.3426   -4.9462 C   0  0  0  0  0  0  0  0  0  0  0  0
   28.5836  -21.1837   -6.2329 C   0  0  0  0  0  0  0  0  0  0  0  0
   26.5998  -19.9565   -9.1525 O   0  0  0  0  0  0  0  0  0  0  0  0
   26.4329  -18.7077   -9.1076 C   0  0  0  0  0  0  0  0  0  0  0  0
   24.2853  -19.9300  -11.3818 C   0  0  2  0  0  0  0  0  0  0  0  0
   23.4617  -20.5708  -10.2711 C   0  0  0  0  0  0  0  0  0  0  0  0
   23.3367  -22.0276  -10.5783 C   0  0  2  0  0  0  0  0  0  0  0  0
   24.1087  -20.3097   -8.9133 N   0  0  0  0  0  0  0  0  0  0  0  0
   25.4668  -20.8064   -9.0181 C   0  0  0  0  0  0  0  0  0  0  0  0
   23.4165  -21.0637   -7.8624 O   0  0  0  0  0  0  0  0  0  0  0  0
   22.2761  -20.7403   -7.4867 O   0  0  0  0  0  0  0  0  0  0  0  0
  2  1  1  0
  3  2  2  0
  4  2  1  0
  5  4  1  0
  6  5  1  0
  7  6  1  0
  8  7  1  0
  8  9  1  6
 10  8  1  0
 10 12  1  0
 11 10  2  0
 13 21  1  0
 13 12  1  0
 13 14  1  1
 15 14  1  0
 16 15  2  0
 17 16  1  0
 18 19  1  0
 18 17  2  0
 19 20  2  0
 20 15  1  0
 21 27  1  0
 22 21  2  0
 24 23  1  6
 24 25  1  0
 24 26  1  0
 26 28  1  0
 26 27  1  1
 28 29  2  0
 28 30  1  0
M  END
$$$$
