RFV.pdb
     RDKit          3D

 30 30  0  0  1  0  0  0  0  0999 V2000
   26.1206  -20.5803  -17.7487 N   0  0  0  0  0  0  0  0  0  0  0  0
   24.7396  -20.8306  -17.5215 C   0  0  0  0  0  0  0  0  0  0  0  0
   23.9817  -21.1172  -18.5409 N   0  0  0  0  0  0  0  0  0  0  0  0
   24.2192  -20.7633  -16.1962 N   0  0  0  0  0  0  0  0  0  0  0  0
   25.1670  -20.7126  -15.0849 C   0  0  0  0  0  0  0  0  0  0  0  0
   25.5812  -22.0841  -14.6588 C   0  0  0  0  0  0  0  0  0  0  0  0
   25.7082  -22.1888  -13.1759 C   0  0  0  0  0  0  0  0  0  0  0  0
   25.7751  -20.8922  -12.4645 C   0  0  2  0  0  0  0  0  0  0  0  0
   26.5518  -19.8559  -13.0425 N   0  0  0  0  0  0  0  0  0  0  0  0
   26.0993  -21.1325  -11.0273 C   0  0  0  0  0  0  0  0  0  0  0  0
   25.5635  -22.1150  -10.4701 O   0  0  0  0  0  0  0  0  0  0  0  0
   22.9600  -21.2647  -18.4439 N   0  0  0  0  0  0  0  0  0  0  0  0
   26.9711  -20.3152  -10.2724 C   0  0  2  0  0  0  0  0  0  0  0  0
   27.1373  -20.4330   -8.8407 C   0  0  0  0  0  0  0  0  0  0  0  0
   28.2937  -19.5915   -8.3444 C   0  0  0  0  0  0  0  0  0  0  0  0
   28.4545  -19.6469   -6.8915 C   0  0  0  0  0  0  0  0  0  0  0  0
   28.9378  -20.7448   -6.2270 C   0  0  0  0  0  0  0  0  0  0  0  0
   29.0575  -20.7063   -4.8478 C   0  0  0  0  0  0  0  0  0  0  0  0
   28.7016  -19.5872   -4.1205 C   0  0  0  0  0  0  0  0  0  0  0  0
   28.2175  -18.4885   -4.7897 C   0  0  0  0  0  0  0  0  0  0  0  0
   28.1044  -18.5403   -6.1537 C   0  0  0  0  0  0  0  0  0  0  0  0
   25.9130  -20.0162   -8.1270 O   0  0  0  0  0  0  0  0  0  0  0  0
   25.2670  -18.9807   -8.4430 C   0  0  0  0  0  0  0  0  0  0  0  0
   23.0454  -20.7182   -8.5334 C   0  0  2  0  0  0  0  0  0  0  0  0
   23.1094  -21.2457   -7.1050 C   0  0  0  0  0  0  0  0  0  0  0  0
   23.3087  -22.7248   -7.1735 C   0  0  2  0  0  0  0  0  0  0  0  0
   24.2168  -20.5387   -6.3278 N   0  0  0  0  0  0  0  0  0  0  0  0
   25.4454  -20.8148   -7.0465 C   0  0  0  0  0  0  0  0  0  0  0  0
   24.3318  -21.0978   -4.9764 O   0  0  0  0  0  0  0  0  0  0  0  0
   23.4615  -20.8785   -4.1158 O   0  0  0  0  0  0  0  0  0  0  0  0
  2  1  1  0
  3  2  2  0
  4  2  1  0
  5  4  1  0
  6  5  1  0
  7  6  1  0
  8  7  1  0
  8  9  1  6
 10  8  1  0
 10 12  1  0
 11 10  2  0
 13 21  1  0
 13 12  1  0
 13 14  1  6
 15 14  1  0
 16 15  2  0
 17 16  1  0
 18 19  1  0
 18 17  2  0
 19 20  2  0
 20 15  1  0
 21 27  1  0
 22 21  2  0
 24 23  1  6
 24 25  1  0
 24 26  1  0
 26 28  1  0
 26 27  1  1
 28 29  2  0
 28 30  1  0
M  END
$$$$
