MHE.pdb
     RDKit          3D

 28 28  0  0  1  0  0  0  0  0999 V2000
    8.4813  -11.3012   26.4495 C   0  0  0  0  0  0  0  0  0  0  0  0
    7.0545  -12.3056   26.0670 S   0  0  0  0  0  0  0  0  0  0  0  0
    7.4196  -13.9122   25.3863 C   0  0  0  0  0  0  0  0  0  0  0  0
    6.4537  -14.3510   24.3078 C   0  0  0  0  0  0  0  0  0  0  0  0
    7.2123  -14.6766   23.0204 C   0  0  2  0  0  0  0  0  0  0  0  0
    6.3428  -14.6326   21.8762 N   0  0  0  0  0  0  0  0  0  0  0  0
    7.9037  -15.9694   23.1762 C   0  0  0  0  0  0  0  0  0  0  0  0
    7.2033  -16.9686   23.4682 O   0  0  0  0  0  0  0  0  0  0  0  0
    9.3379  -16.1112   23.0039 N   0  0  0  0  0  0  0  0  0  0  0  0
    9.9087  -17.3843   23.2853 C   0  0  1  0  0  0  0  0  0  0  0  0
   10.2929  -18.1125   22.0535 C   0  0  0  0  0  0  0  0  0  0  0  0
   10.7552  -17.3081   20.9214 C   0  0  0  0  0  0  0  0  0  0  0  0
   10.4837  -16.0409   20.4999 C   0  0  0  0  0  0  0  0  0  0  0  0
   11.2230  -15.7937   19.3914 N   0  0  0  0  0  0  0  0  0  0  0  0
   11.9445  -16.8900   19.1266 C   0  0  0  0  0  0  0  0  0  0  0  0
   11.6706  -17.8114   20.0439 N   0  0  0  0  0  0  0  0  0  0  0  0
   11.0300  -17.2671   24.2616 C   0  0  0  0  0  0  0  0  0  0  0  0
   11.7666  -16.2547   24.3297 O   0  0  0  0  0  0  0  0  0  0  0  0
   11.2946  -18.3304   25.1596 N   0  0  0  0  0  0  0  0  0  0  0  0
   12.3454  -18.2284   26.1259 C   0  0  1  0  0  0  0  0  0  0  0  0
   11.9803  -18.7586   27.4916 C   0  0  0  0  0  0  0  0  0  0  0  0
   11.1962  -20.0282   27.4834 C   0  0  0  0  0  0  0  0  0  0  0  0
   10.9113  -20.3943   28.8871 C   0  0  0  0  0  0  0  0  0  0  0  0
   11.4360  -21.4301   29.3479 O   0  0  0  0  0  0  0  0  0  0  0  0
   13.5945  -18.8824   25.6677 C   0  0  0  0  0  0  0  0  0  0  0  0
   13.5587  -19.5686   24.6204 O   0  0  0  0  0  0  0  0  0  0  0  0
   10.0946  -19.6445   29.7069 O   0  0  0  0  0  0  0  0  0  0  0  0
   14.7969  -18.7748   26.3376 O   0  0  0  0  0  0  0  0  0  0  0  0
  2  1  1  0
  3  2  1  0
  3  4  1  0
  5  4  1  0
  5  6  1  6
  7  5  1  0
  7  8  2  0
  9  7  1  0
 10  9  1  0
 10 11  1  6
 12 11  1  0
 12 16  1  0
 13 12  2  0
 14 13  1  0
 14 15  1  0
 15 16  2  0
 17 10  1  0
 18 17  2  0
 19 17  1  0
 20 19  1  0
 20 25  1  0
 20 21  1  1
 22 21  1  0
 22 23  1  0
 23 24  2  0
 25 28  1  0
 26 25  2  0
 27 23  1  0
M  END
$$$$
