MHE.pdb
     RDKit          3D

 28 28  0  0  1  0  0  0  0  0999 V2000
    8.6813  -11.4712   20.4249 C   0  0  0  0  0  0  0  0  0  0  0  0
    7.8795  -12.0223   18.9268 S   0  0  0  0  0  0  0  0  0  0  0  0
    7.8066  -13.7906   18.7130 C   0  0  0  0  0  0  0  0  0  0  0  0
    7.6497  -14.5552   20.0089 C   0  0  0  0  0  0  0  0  0  0  0  0
    7.4999  -16.0504   19.7248 C   0  0  2  0  0  0  0  0  0  0  0  0
    6.3350  -16.3162   18.9252 N   0  0  0  0  0  0  0  0  0  0  0  0
    7.5123  -16.7919   20.9991 C   0  0  0  0  0  0  0  0  0  0  0  0
    6.4895  -16.7172   21.7220 O   0  0  0  0  0  0  0  0  0  0  0  0
    8.6493  -17.5864   21.4268 N   0  0  0  0  0  0  0  0  0  0  0  0
    8.5474  -18.2547   22.6792 C   0  0  1  0  0  0  0  0  0  0  0  0
    8.5385  -19.7288   22.5305 C   0  0  0  0  0  0  0  0  0  0  0  0
    8.6437  -20.5222   23.7560 C   0  0  0  0  0  0  0  0  0  0  0  0
    8.6887  -20.2001   25.0794 C   0  0  0  0  0  0  0  0  0  0  0  0
    8.7607  -21.3489   25.7947 N   0  0  0  0  0  0  0  0  0  0  0  0
    8.7600  -22.3711   24.9301 C   0  0  0  0  0  0  0  0  0  0  0  0
    8.6896  -21.8844   23.6958 N   0  0  0  0  0  0  0  0  0  0  0  0
    9.5908  -17.7755   23.6310 C   0  0  0  0  0  0  0  0  0  0  0  0
   10.8101  -17.7426   23.3400 O   0  0  0  0  0  0  0  0  0  0  0  0
    9.2146  -17.3348   24.9237 N   0  0  0  0  0  0  0  0  0  0  0  0
   10.1856  -16.7904   25.8232 C   0  0  1  0  0  0  0  0  0  0  0  0
    9.6336  -15.7543   26.7725 C   0  0  0  0  0  0  0  0  0  0  0  0
   10.6271  -15.1887   27.7316 C   0  0  0  0  0  0  0  0  0  0  0  0
    9.9321  -14.1846   28.5650 C   0  0  0  0  0  0  0  0  0  0  0  0
    8.6831  -14.1927   28.5850 O   0  0  0  0  0  0  0  0  0  0  0  0
   10.8812  -17.8427   26.6020 C   0  0  0  0  0  0  0  0  0  0  0  0
   10.2393  -18.8691   26.9236 O   0  0  0  0  0  0  0  0  0  0  0  0
   10.6005  -13.2431   29.3187 O   0  0  0  0  0  0  0  0  0  0  0  0
   12.2022  -17.7492   26.9925 O   0  0  0  0  0  0  0  0  0  0  0  0
  2  1  1  0
  3  2  1  0
  3  4  1  0
  5  4  1  0
  5  6  1  1
  7  5  1  0
  7  8  2  0
  9  7  1  0
 10  9  1  0
 10 11  1  6
 12 11  1  0
 12 16  1  0
 13 12  2  0
 14 13  1  0
 14 15  1  0
 15 16  2  0
 17 10  1  0
 18 17  2  0
 19 17  1  0
 20 19  1  0
 20 25  1  0
 20 21  1  1
 22 21  1  0
 22 23  1  0
 23 24  2  0
 25 28  1  0
 26 25  2  0
 27 23  1  0
M  END
$$$$
