MHE.pdb
     RDKit          3D

 28 28  0  0  1  0  0  0  0  0999 V2000
    7.1454  -11.4305   20.7483 C   0  0  0  0  0  0  0  0  0  0  0  0
    8.4390  -12.4005   19.9890 S   0  0  0  0  0  0  0  0  0  0  0  0
    7.9020  -13.9277   19.2428 C   0  0  0  0  0  0  0  0  0  0  0  0
    9.0275  -14.7426   18.6446 C   0  0  0  0  0  0  0  0  0  0  0  0
   10.3768  -14.1071   18.9825 C   0  0  2  0  0  0  0  0  0  0  0  0
   10.9076  -13.3803   17.8613 N   0  0  0  0  0  0  0  0  0  0  0  0
   11.2921  -15.1468   19.4877 C   0  0  0  0  0  0  0  0  0  0  0  0
   10.9068  -15.8309   20.4663 O   0  0  0  0  0  0  0  0  0  0  0  0
   12.5943  -15.3925   18.8955 N   0  0  0  0  0  0  0  0  0  0  0  0
   13.3951  -16.4161   19.4757 C   0  0  1  0  0  0  0  0  0  0  0  0
   14.4508  -16.8945   18.5527 C   0  0  0  0  0  0  0  0  0  0  0  0
   14.0170  -17.6710   17.3903 C   0  0  0  0  0  0  0  0  0  0  0  0
   12.9485  -18.4825   17.1517 C   0  0  0  0  0  0  0  0  0  0  0  0
   13.0291  -18.9274   15.8742 N   0  0  0  0  0  0  0  0  0  0  0  0
   14.1305  -18.4006   15.3250 C   0  0  0  0  0  0  0  0  0  0  0  0
   14.7355  -17.6398   16.2309 N   0  0  0  0  0  0  0  0  0  0  0  0
   13.9333  -15.9922   20.8004 C   0  0  0  0  0  0  0  0  0  0  0  0
   14.2428  -14.8046   21.0578 O   0  0  0  0  0  0  0  0  0  0  0  0
   14.1122  -16.9521   21.8267 N   0  0  0  0  0  0  0  0  0  0  0  0
   14.5554  -16.5577   23.1291 C   0  0  1  0  0  0  0  0  0  0  0  0
   13.8501  -17.2657   24.2608 C   0  0  0  0  0  0  0  0  0  0  0  0
   12.3689  -17.3686   24.1111 C   0  0  0  0  0  0  0  0  0  0  0  0
   11.8614  -18.2268   25.2026 C   0  0  0  0  0  0  0  0  0  0  0  0
   12.6794  -18.6754   26.0334 O   0  0  0  0  0  0  0  0  0  0  0  0
   16.0203  -16.7145   23.2946 C   0  0  0  0  0  0  0  0  0  0  0  0
   16.6561  -17.3403   22.4154 O   0  0  0  0  0  0  0  0  0  0  0  0
   10.5289  -18.5523   25.3431 O   0  0  0  0  0  0  0  0  0  0  0  0
   16.7209  -16.2062   24.3703 O   0  0  0  0  0  0  0  0  0  0  0  0
  2  1  1  0
  3  2  1  0
  3  4  1  0
  5  4  1  0
  5  6  1  6
  7  5  1  0
  7  8  2  0
  9  7  1  0
 10  9  1  0
 10 11  1  6
 12 11  1  0
 12 16  1  0
 13 12  2  0
 14 13  1  0
 14 15  1  0
 15 16  2  0
 17 10  1  0
 18 17  2  0
 19 17  1  0
 20 19  1  0
 20 25  1  0
 20 21  1  1
 22 21  1  0
 22 23  1  0
 23 24  2  0
 25 28  1  0
 26 25  2  0
 27 23  1  0
M  END
$$$$
