MHE.pdb
     RDKit          3D

 28 28  0  0  1  0  0  0  0  0999 V2000
    6.6568  -10.7365   26.8621 C   0  0  0  0  0  0  0  0  0  0  0  0
    6.6934  -12.1665   27.9319 S   0  0  0  0  0  0  0  0  0  0  0  0
    6.1366  -13.6861   27.1846 C   0  0  0  0  0  0  0  0  0  0  0  0
    6.9781  -14.1312   26.0088 C   0  0  0  0  0  0  0  0  0  0  0  0
    6.3138  -15.3132   25.3015 C   0  0  2  0  0  0  0  0  0  0  0  0
    6.2328  -16.4602   26.1645 N   0  0  0  0  0  0  0  0  0  0  0  0
    7.0224  -15.5851   24.0374 C   0  0  0  0  0  0  0  0  0  0  0  0
    7.7171  -16.6282   23.9764 O   0  0  0  0  0  0  0  0  0  0  0  0
    6.9378  -14.6989   22.8910 N   0  0  0  0  0  0  0  0  0  0  0  0
    7.7625  -14.9974   21.7701 C   0  0  1  0  0  0  0  0  0  0  0  0
    7.5345  -14.0657   20.6408 C   0  0  0  0  0  0  0  0  0  0  0  0
    8.2261  -14.3601   19.3849 C   0  0  0  0  0  0  0  0  0  0  0  0
    9.1109  -15.3251   19.0067 C   0  0  0  0  0  0  0  0  0  0  0  0
    9.4114  -15.1377   17.6986 N   0  0  0  0  0  0  0  0  0  0  0  0
    8.7239  -14.0726   17.2682 C   0  0  0  0  0  0  0  0  0  0  0  0
    8.0043  -13.5944   18.2777 N   0  0  0  0  0  0  0  0  0  0  0  0
    9.1975  -15.0858   22.1665 C   0  0  0  0  0  0  0  0  0  0  0  0
    9.7664  -14.2049   22.8541 O   0  0  0  0  0  0  0  0  0  0  0  0
    9.9717  -16.2008   21.7612 N   0  0  0  0  0  0  0  0  0  0  0  0
   11.3772  -16.2516   22.0263 C   0  0  1  0  0  0  0  0  0  0  0  0
   11.7971  -17.4042   22.9064 C   0  0  0  0  0  0  0  0  0  0  0  0
   11.1324  -17.4494   24.2417 C   0  0  0  0  0  0  0  0  0  0  0  0
   11.5717  -18.6844   24.9253 C   0  0  0  0  0  0  0  0  0  0  0  0
   12.5518  -19.3033   24.4597 O   0  0  0  0  0  0  0  0  0  0  0  0
   12.1826  -16.2709   20.7817 C   0  0  0  0  0  0  0  0  0  0  0  0
   13.4270  -16.1634   20.8750 O   0  0  0  0  0  0  0  0  0  0  0  0
   10.9489  -19.1808   26.0509 O   0  0  0  0  0  0  0  0  0  0  0  0
   11.6305  -16.4005   19.5228 O   0  0  0  0  0  0  0  0  0  0  0  0
  2  1  1  0
  3  2  1  0
  3  4  1  0
  5  4  1  0
  5  6  1  1
  7  5  1  0
  7  8  2  0
  9  7  1  0
 10  9  1  0
 10 11  1  6
 12 11  1  0
 12 16  1  0
 13 12  2  0
 14 13  1  0
 14 15  1  0
 15 16  2  0
 17 10  1  0
 18 17  2  0
 19 17  1  0
 20 19  1  0
 20 25  1  0
 20 21  1  6
 22 21  1  0
 22 23  1  0
 23 24  2  0
 25 28  1  0
 26 25  2  0
 27 23  1  0
M  END
$$$$
