MHE.pdb
     RDKit          3D

 28 28  0  0  1  0  0  0  0  0999 V2000
    7.8988  -11.3231   20.4199 C   0  0  0  0  0  0  0  0  0  0  0  0
    6.7640  -12.6080   19.9180 S   0  0  0  0  0  0  0  0  0  0  0  0
    7.1947  -14.2519   20.4564 C   0  0  0  0  0  0  0  0  0  0  0  0
    8.5877  -14.6807   20.0507 C   0  0  0  0  0  0  0  0  0  0  0  0
    8.9296  -16.0306   20.6828 C   0  0  2  0  0  0  0  0  0  0  0  0
    7.9005  -17.0020   20.4292 N   0  0  0  0  0  0  0  0  0  0  0  0
    9.2085  -15.8398   22.1180 C   0  0  0  0  0  0  0  0  0  0  0  0
   10.1977  -15.1322   22.4261 O   0  0  0  0  0  0  0  0  0  0  0  0
    8.3874  -16.4347   23.1566 N   0  0  0  0  0  0  0  0  0  0  0  0
    8.7776  -16.2131   24.5073 C   0  0  1  0  0  0  0  0  0  0  0  0
    7.6228  -15.9022   25.3820 C   0  0  0  0  0  0  0  0  0  0  0  0
    7.1291  -14.5244   25.3680 C   0  0  0  0  0  0  0  0  0  0  0  0
    7.5039  -13.4019   24.6923 C   0  0  0  0  0  0  0  0  0  0  0  0
    6.6702  -12.3939   25.0462 N   0  0  0  0  0  0  0  0  0  0  0  0
    5.7889  -12.8811   25.9285 C   0  0  0  0  0  0  0  0  0  0  0  0
    6.0559  -14.1669   26.1307 N   0  0  0  0  0  0  0  0  0  0  0  0
    9.6045  -17.3431   25.0206 C   0  0  0  0  0  0  0  0  0  0  0  0
    9.2314  -18.5387   24.9593 O   0  0  0  0  0  0  0  0  0  0  0  0
   10.8673  -17.0811   25.6069 N   0  0  0  0  0  0  0  0  0  0  0  0
   11.6785  -18.1491   26.1063 C   0  0  1  0  0  0  0  0  0  0  0  0
   13.1517  -17.9916   25.8161 C   0  0  0  0  0  0  0  0  0  0  0  0
   13.4822  -17.6833   24.3939 C   0  0  0  0  0  0  0  0  0  0  0  0
   14.8190  -17.0525   24.3655 C   0  0  0  0  0  0  0  0  0  0  0  0
   15.8243  -17.7940   24.3503 O   0  0  0  0  0  0  0  0  0  0  0  0
   11.4892  -18.3645   27.5609 C   0  0  0  0  0  0  0  0  0  0  0  0
   10.7727  -17.5562   28.1951 O   0  0  0  0  0  0  0  0  0  0  0  0
   15.0036  -15.6861   24.3548 O   0  0  0  0  0  0  0  0  0  0  0  0
   12.0637  -19.4114   28.2538 O   0  0  0  0  0  0  0  0  0  0  0  0
  2  1  1  0
  3  2  1  0
  3  4  1  0
  5  4  1  0
  5  6  1  1
  7  5  1  0
  7  8  2  0
  9  7  1  0
 10  9  1  0
 10 11  1  1
 12 11  1  0
 12 16  1  0
 13 12  2  0
 14 13  1  0
 14 15  1  0
 15 16  2  0
 17 10  1  0
 18 17  2  0
 19 17  1  0
 20 19  1  0
 20 25  1  0
 20 21  1  1
 22 21  1  0
 22 23  1  0
 23 24  2  0
 25 28  1  0
 26 25  2  0
 27 23  1  0
M  END
$$$$
