MHE.pdb
     RDKit          3D

 28 28  0  0  1  0  0  0  0  0999 V2000
    4.6948  -11.5543   26.7593 C   0  0  0  0  0  0  0  0  0  0  0  0
    6.0672  -11.4182   25.6240 S   0  0  0  0  0  0  0  0  0  0  0  0
    7.4065  -12.5584   25.9143 C   0  0  0  0  0  0  0  0  0  0  0  0
    7.0572  -13.9987   25.6109 C   0  0  0  0  0  0  0  0  0  0  0  0
    8.2479  -14.9071   25.9202 C   0  0  2  0  0  0  0  0  0  0  0  0
    9.3709  -14.1504   26.4031 N   0  0  0  0  0  0  0  0  0  0  0  0
    8.5623  -15.7199   24.7309 C   0  0  0  0  0  0  0  0  0  0  0  0
    7.6672  -16.4869   24.3011 O   0  0  0  0  0  0  0  0  0  0  0  0
    9.8488  -15.6558   24.0618 N   0  0  0  0  0  0  0  0  0  0  0  0
   10.2259  -16.7691   23.2592 C   0  0  1  0  0  0  0  0  0  0  0  0
   10.5055  -16.3816   21.8567 C   0  0  0  0  0  0  0  0  0  0  0  0
   10.8770  -17.4532   20.9315 C   0  0  0  0  0  0  0  0  0  0  0  0
   11.0921  -18.7902   21.0845 C   0  0  0  0  0  0  0  0  0  0  0  0
   11.3883  -19.3151   19.8707 N   0  0  0  0  0  0  0  0  0  0  0  0
   11.3576  -18.3205   18.9750 C   0  0  0  0  0  0  0  0  0  0  0  0
   11.0499  -17.1911   19.6038 N   0  0  0  0  0  0  0  0  0  0  0  0
   11.3473  -17.5277   23.8844 C   0  0  0  0  0  0  0  0  0  0  0  0
   12.4306  -16.9883   24.2129 O   0  0  0  0  0  0  0  0  0  0  0  0
   11.2079  -18.9165   24.1270 N   0  0  0  0  0  0  0  0  0  0  0  0
   12.2573  -19.6589   24.7562 C   0  0  1  0  0  0  0  0  0  0  0  0
   12.3316  -19.4738   26.2527 C   0  0  0  0  0  0  0  0  0  0  0  0
   11.0733  -19.7937   26.9883 C   0  0  0  0  0  0  0  0  0  0  0  0
   11.3377  -19.6266   28.4332 C   0  0  0  0  0  0  0  0  0  0  0  0
   10.3629  -19.4913   29.2027 O   0  0  0  0  0  0  0  0  0  0  0  0
   12.1827  -21.1072   24.4479 C   0  0  0  0  0  0  0  0  0  0  0  0
   13.1328  -21.8421   24.8032 O   0  0  0  0  0  0  0  0  0  0  0  0
   12.6092  -19.6140   28.9666 O   0  0  0  0  0  0  0  0  0  0  0  0
   11.1186  -21.6884   23.7875 O   0  0  0  0  0  0  0  0  0  0  0  0
  2  1  1  0
  3  2  1  0
  3  4  1  0
  5  4  1  0
  5  6  1  6
  7  5  1  0
  7  8  2  0
  9  7  1  0
 10  9  1  0
 10 11  1  6
 12 11  1  0
 12 16  1  0
 13 12  2  0
 14 13  1  0
 14 15  1  0
 15 16  2  0
 17 10  1  0
 18 17  2  0
 19 17  1  0
 20 19  1  0
 20 25  1  0
 20 21  1  1
 22 21  1  0
 22 23  1  0
 23 24  2  0
 25 28  1  0
 26 25  2  0
 27 23  1  0
M  END
$$$$
