MHE.pdb
     RDKit          3D

 28 28  0  0  1  0  0  0  0  0999 V2000
    7.3844  -11.0612   27.2976 C   0  0  0  0  0  0  0  0  0  0  0  0
    6.0110  -12.2019   27.3535 S   0  0  0  0  0  0  0  0  0  0  0  0
    5.6013  -12.9712   25.7985 C   0  0  0  0  0  0  0  0  0  0  0  0
    6.4539  -14.1774   25.4719 C   0  0  0  0  0  0  0  0  0  0  0  0
    7.8307  -13.7323   24.9768 C   0  0  2  0  0  0  0  0  0  0  0  0
    7.7594  -12.4627   24.3059 N   0  0  0  0  0  0  0  0  0  0  0  0
    8.4168  -14.7983   24.1438 C   0  0  0  0  0  0  0  0  0  0  0  0
    8.3649  -15.9718   24.5848 O   0  0  0  0  0  0  0  0  0  0  0  0
    9.0361  -14.5306   22.8586 N   0  0  0  0  0  0  0  0  0  0  0  0
    9.5986  -15.6355   22.1597 C   0  0  1  0  0  0  0  0  0  0  0  0
    9.8307  -15.3352   20.7275 C   0  0  0  0  0  0  0  0  0  0  0  0
    8.7087  -14.7720   19.9751 C   0  0  0  0  0  0  0  0  0  0  0  0
    7.3925  -14.5714   20.2658 C   0  0  0  0  0  0  0  0  0  0  0  0
    6.8060  -13.9799   19.1969 N   0  0  0  0  0  0  0  0  0  0  0  0
    7.7426  -13.8138   18.2548 C   0  0  0  0  0  0  0  0  0  0  0  0
    8.8960  -14.2882   18.7132 N   0  0  0  0  0  0  0  0  0  0  0  0
   10.8193  -16.1435   22.8496 C   0  0  0  0  0  0  0  0  0  0  0  0
   11.7284  -15.3858   23.2643 O   0  0  0  0  0  0  0  0  0  0  0  0
   10.9825  -17.5354   23.0564 N   0  0  0  0  0  0  0  0  0  0  0  0
   12.1170  -18.0421   23.7665 C   0  0  1  0  0  0  0  0  0  0  0  0
   11.8743  -18.2605   25.2406 C   0  0  0  0  0  0  0  0  0  0  0  0
   10.8184  -19.2651   25.5611 C   0  0  0  0  0  0  0  0  0  0  0  0
   10.7726  -19.4219   27.0304 C   0  0  0  0  0  0  0  0  0  0  0  0
   11.7690  -19.9080   27.6062 O   0  0  0  0  0  0  0  0  0  0  0  0
   12.6400  -19.2939   23.1686 C   0  0  0  0  0  0  0  0  0  0  0  0
   11.9809  -19.8381   22.2530 O   0  0  0  0  0  0  0  0  0  0  0  0
    9.6818  -19.0558   27.7902 O   0  0  0  0  0  0  0  0  0  0  0  0
   13.8176  -19.8923   23.5704 O   0  0  0  0  0  0  0  0  0  0  0  0
  2  1  1  0
  3  2  1  0
  3  4  1  0
  5  4  1  0
  5  6  1  6
  7  5  1  0
  7  8  2  0
  9  7  1  0
 10  9  1  0
 10 11  1  6
 12 11  1  0
 12 16  1  0
 13 12  2  0
 14 13  1  0
 14 15  1  0
 15 16  2  0
 17 10  1  0
 18 17  2  0
 19 17  1  0
 20 19  1  0
 20 25  1  0
 20 21  1  1
 22 21  1  0
 22 23  1  0
 23 24  2  0
 25 28  1  0
 26 25  2  0
 27 23  1  0
M  END
$$$$
