MHE.pdb
     RDKit          3D

 28 28  0  0  1  0  0  0  0  0999 V2000
    8.1605  -12.1049   27.5317 C   0  0  0  0  0  0  0  0  0  0  0  0
    6.5956  -11.9782   26.6798 S   0  0  0  0  0  0  0  0  0  0  0  0
    6.1199  -13.4229   25.7502 C   0  0  0  0  0  0  0  0  0  0  0  0
    7.2824  -14.3136   25.3708 C   0  0  0  0  0  0  0  0  0  0  0  0
    6.8263  -15.3819   24.3761 C   0  0  2  0  0  0  0  0  0  0  0  0
    5.8357  -16.2474   24.9565 N   0  0  0  0  0  0  0  0  0  0  0  0
    8.0044  -16.1066   23.8654 C   0  0  0  0  0  0  0  0  0  0  0  0
    8.2983  -17.1946   24.4167 O   0  0  0  0  0  0  0  0  0  0  0  0
    8.8116  -15.6053   22.7681 N   0  0  0  0  0  0  0  0  0  0  0  0
    9.8786  -16.4287   22.3105 C   0  0  1  0  0  0  0  0  0  0  0  0
   10.2073  -16.1827   20.8868 C   0  0  0  0  0  0  0  0  0  0  0  0
    9.1808  -16.5183   19.8989 C   0  0  0  0  0  0  0  0  0  0  0  0
    7.9281  -16.0423   19.6509 C   0  0  0  0  0  0  0  0  0  0  0  0
    7.4251  -16.7052   18.5813 N   0  0  0  0  0  0  0  0  0  0  0  0
    8.3505  -17.5804   18.1688 C   0  0  0  0  0  0  0  0  0  0  0  0
    9.4153  -17.4768   18.9567 N   0  0  0  0  0  0  0  0  0  0  0  0
   11.0659  -16.3177   23.2059 C   0  0  0  0  0  0  0  0  0  0  0  0
   11.6289  -15.2248   23.4530 O   0  0  0  0  0  0  0  0  0  0  0  0
   11.5993  -17.4806   23.8142 N   0  0  0  0  0  0  0  0  0  0  0  0
   12.6707  -17.3874   24.7585 C   0  0  1  0  0  0  0  0  0  0  0  0
   12.2897  -17.7852   26.1642 C   0  0  0  0  0  0  0  0  0  0  0  0
   11.6930  -19.1470   26.2915 C   0  0  0  0  0  0  0  0  0  0  0  0
   11.4206  -19.3906   27.7240 C   0  0  0  0  0  0  0  0  0  0  0  0
   10.9371  -20.4935   28.0565 O   0  0  0  0  0  0  0  0  0  0  0  0
   13.8593  -18.1669   24.3372 C   0  0  0  0  0  0  0  0  0  0  0  0
   13.7476  -18.9438   23.3610 O   0  0  0  0  0  0  0  0  0  0  0  0
   11.6765  -18.4567   28.7056 O   0  0  0  0  0  0  0  0  0  0  0  0
   15.0849  -18.0813   24.9671 O   0  0  0  0  0  0  0  0  0  0  0  0
  2  1  1  0
  3  2  1  0
  3  4  1  0
  5  4  1  0
  5  6  1  1
  7  5  1  0
  7  8  2  0
  9  7  1  0
 10  9  1  0
 10 11  1  6
 12 11  1  0
 12 16  1  0
 13 12  2  0
 14 13  1  0
 14 15  1  0
 15 16  2  0
 17 10  1  0
 18 17  2  0
 19 17  1  0
 20 19  1  0
 20 25  1  0
 20 21  1  1
 22 21  1  0
 22 23  1  0
 23 24  2  0
 25 28  1  0
 26 25  2  0
 27 23  1  0
M  END
$$$$
