MHE.pdb
     RDKit          3D

 28 28  0  0  1  0  0  0  0  0999 V2000
    8.3317  -11.9372   27.1603 C   0  0  0  0  0  0  0  0  0  0  0  0
    6.7930  -12.8354   27.2887 S   0  0  0  0  0  0  0  0  0  0  0  0
    6.8087  -14.4705   26.5787 C   0  0  0  0  0  0  0  0  0  0  0  0
    6.5199  -14.4929   25.0938 C   0  0  0  0  0  0  0  0  0  0  0  0
    6.5084  -15.9333   24.5800 C   0  0  2  0  0  0  0  0  0  0  0  0
    6.3549  -16.8716   25.6584 N   0  0  0  0  0  0  0  0  0  0  0  0
    7.7171  -16.1710   23.7697 C   0  0  0  0  0  0  0  0  0  0  0  0
    7.9928  -17.3594   23.4769 O   0  0  0  0  0  0  0  0  0  0  0  0
    8.5736  -15.0916   23.3136 N   0  0  0  0  0  0  0  0  0  0  0  0
    9.6306  -15.4266   22.4213 C   0  0  1  0  0  0  0  0  0  0  0  0
    9.8313  -14.3959   21.3759 C   0  0  0  0  0  0  0  0  0  0  0  0
    8.7387  -14.1922   20.4235 C   0  0  0  0  0  0  0  0  0  0  0  0
    7.5512  -14.8261   20.2106 C   0  0  0  0  0  0  0  0  0  0  0  0
    6.9060  -14.1930   19.2009 N   0  0  0  0  0  0  0  0  0  0  0  0
    7.6794  -13.1798   18.7914 C   0  0  0  0  0  0  0  0  0  0  0  0
    8.7889  -13.1690   19.5224 N   0  0  0  0  0  0  0  0  0  0  0  0
   10.8823  -15.7465   23.1661 C   0  0  0  0  0  0  0  0  0  0  0  0
   11.8319  -14.9349   23.2763 O   0  0  0  0  0  0  0  0  0  0  0  0
   11.0294  -17.0133   23.7830 N   0  0  0  0  0  0  0  0  0  0  0  0
   12.0703  -17.2467   24.7371 C   0  0  1  0  0  0  0  0  0  0  0  0
   11.5761  -17.6995   26.0899 C   0  0  0  0  0  0  0  0  0  0  0  0
   10.7561  -18.9462   26.0740 C   0  0  0  0  0  0  0  0  0  0  0  0
   10.4188  -19.2850   27.4729 C   0  0  0  0  0  0  0  0  0  0  0  0
   10.8915  -18.5750   28.3855 O   0  0  0  0  0  0  0  0  0  0  0  0
   13.0810  -18.2110   24.2403 C   0  0  0  0  0  0  0  0  0  0  0  0
   14.1541  -18.3302   24.8752 O   0  0  0  0  0  0  0  0  0  0  0  0
    9.6076  -20.3469   27.8128 O   0  0  0  0  0  0  0  0  0  0  0  0
   12.9003  -18.9850   23.1113 O   0  0  0  0  0  0  0  0  0  0  0  0
  2  1  1  0
  3  2  1  0
  3  4  1  0
  5  4  1  0
  5  6  1  1
  7  5  1  0
  7  8  2  0
  9  7  1  0
 10  9  1  0
 10 11  1  6
 12 11  1  0
 12 16  1  0
 13 12  2  0
 14 13  1  0
 14 15  1  0
 15 16  2  0
 17 10  1  0
 18 17  2  0
 19 17  1  0
 20 19  1  0
 20 25  1  0
 20 21  1  1
 22 21  1  0
 22 23  1  0
 23 24  2  0
 25 28  1  0
 26 25  2  0
 27 23  1  0
M  END
$$$$
