MHE.pdb
     RDKit          3D

 28 28  0  0  1  0  0  0  0  0999 V2000
    7.6529  -11.5126   20.5721 C   0  0  0  0  0  0  0  0  0  0  0  0
    6.6878  -12.7300   19.6902 S   0  0  0  0  0  0  0  0  0  0  0  0
    7.2816  -14.4059   19.8194 C   0  0  0  0  0  0  0  0  0  0  0  0
    8.7901  -14.5178   19.8435 C   0  0  0  0  0  0  0  0  0  0  0  0
    9.2080  -15.9654   20.1052 C   0  0  2  0  0  0  0  0  0  0  0  0
    8.4004  -16.8866   19.3527 N   0  0  0  0  0  0  0  0  0  0  0  0
    9.1860  -16.2239   21.5566 C   0  0  0  0  0  0  0  0  0  0  0  0
    9.9070  -15.4995   22.2843 O   0  0  0  0  0  0  0  0  0  0  0  0
    8.3711  -17.2687   22.1493 N   0  0  0  0  0  0  0  0  0  0  0  0
    8.4887  -17.4742   23.5527 C   0  0  1  0  0  0  0  0  0  0  0  0
    7.2158  -17.9242   24.1632 C   0  0  0  0  0  0  0  0  0  0  0  0
    7.2769  -18.4243   25.5374 C   0  0  0  0  0  0  0  0  0  0  0  0
    7.7069  -17.8844   26.7125 C   0  0  0  0  0  0  0  0  0  0  0  0
    7.5040  -18.7927   27.6975 N   0  0  0  0  0  0  0  0  0  0  0  0
    6.9553  -19.8816   27.1448 C   0  0  0  0  0  0  0  0  0  0  0  0
    6.8131  -19.6711   25.8406 N   0  0  0  0  0  0  0  0  0  0  0  0
    9.6333  -18.3760   23.8703 C   0  0  0  0  0  0  0  0  0  0  0  0
    9.7423  -19.5285   23.3885 O   0  0  0  0  0  0  0  0  0  0  0  0
   10.6522  -17.9358   24.7507 N   0  0  0  0  0  0  0  0  0  0  0  0
   11.7241  -18.8074   25.1241 C   0  0  1  0  0  0  0  0  0  0  0  0
   13.0700  -18.3992   24.5752 C   0  0  0  0  0  0  0  0  0  0  0  0
   13.3984  -16.9517   24.7293 C   0  0  0  0  0  0  0  0  0  0  0  0
   14.3961  -16.6005   23.6965 C   0  0  0  0  0  0  0  0  0  0  0  0
   15.3303  -17.4007   23.4781 O   0  0  0  0  0  0  0  0  0  0  0  0
   11.8274  -18.9719   26.5939 C   0  0  0  0  0  0  0  0  0  0  0  0
   12.6864  -19.7632   27.0464 O   0  0  0  0  0  0  0  0  0  0  0  0
   14.3404  -15.4324   22.9661 O   0  0  0  0  0  0  0  0  0  0  0  0
   11.0234  -18.2974   27.4911 O   0  0  0  0  0  0  0  0  0  0  0  0
  2  1  1  0
  3  2  1  0
  3  4  1  0
  5  4  1  0
  5  6  1  6
  7  5  1  0
  7  8  2  0
  9  7  1  0
 10  9  1  0
 10 11  1  6
 12 11  1  0
 12 16  1  0
 13 12  2  0
 14 13  1  0
 14 15  1  0
 15 16  2  0
 17 10  1  0
 18 17  2  0
 19 17  1  0
 20 19  1  0
 20 25  1  0
 20 21  1  1
 22 21  1  0
 22 23  1  0
 23 24  2  0
 25 28  1  0
 26 25  2  0
 27 23  1  0
M  END
$$$$
