MHE.pdb
     RDKit          3D

 28 28  0  0  1  0  0  0  0  0999 V2000
    9.5926  -12.7713   20.8047 C   0  0  0  0  0  0  0  0  0  0  0  0
    7.9552  -12.8274   20.0929 S   0  0  0  0  0  0  0  0  0  0  0  0
    7.3144  -14.4640   19.7950 C   0  0  0  0  0  0  0  0  0  0  0  0
    7.6618  -15.0153   18.4297 C   0  0  0  0  0  0  0  0  0  0  0  0
    7.1780  -16.4608   18.3052 C   0  0  2  0  0  0  0  0  0  0  0  0
    5.7583  -16.5562   18.5114 N   0  0  0  0  0  0  0  0  0  0  0  0
    7.9572  -17.3156   19.2194 C   0  0  0  0  0  0  0  0  0  0  0  0
    7.4841  -17.5220   20.3630 O   0  0  0  0  0  0  0  0  0  0  0  0
    9.2256  -17.9097   18.8386 N   0  0  0  0  0  0  0  0  0  0  0  0
    9.8176  -18.8297   19.7490 C   0  0  1  0  0  0  0  0  0  0  0  0
   10.3339  -20.0403   19.0684 C   0  0  0  0  0  0  0  0  0  0  0  0
    9.3643  -21.0895   18.7500 C   0  0  0  0  0  0  0  0  0  0  0  0
    8.0305  -21.2359   18.9879 C   0  0  0  0  0  0  0  0  0  0  0  0
    7.6264  -22.4071   18.4389 N   0  0  0  0  0  0  0  0  0  0  0  0
    8.6920  -22.9814   17.8671 C   0  0  0  0  0  0  0  0  0  0  0  0
    9.7476  -22.1950   18.0483 N   0  0  0  0  0  0  0  0  0  0  0  0
   10.8452  -18.1607   20.5979 C   0  0  0  0  0  0  0  0  0  0  0  0
   11.2686  -17.0037   20.3645 O   0  0  0  0  0  0  0  0  0  0  0  0
   11.3813  -18.8397   21.7197 N   0  0  0  0  0  0  0  0  0  0  0  0
   12.2739  -18.1755   22.6199 C   0  0  1  0  0  0  0  0  0  0  0  0
   12.1953  -18.6715   24.0437 C   0  0  0  0  0  0  0  0  0  0  0  0
   13.0899  -17.9636   25.0056 C   0  0  0  0  0  0  0  0  0  0  0  0
   12.8744  -18.5538   26.3439 C   0  0  0  0  0  0  0  0  0  0  0  0
   11.7871  -18.3368   26.9195 O   0  0  0  0  0  0  0  0  0  0  0  0
   13.6821  -18.2360   22.1603 C   0  0  0  0  0  0  0  0  0  0  0  0
   14.4384  -17.2739   22.4274 O   0  0  0  0  0  0  0  0  0  0  0  0
   13.8180  -19.3308   26.9818 O   0  0  0  0  0  0  0  0  0  0  0  0
   14.2036  -19.2997   21.4511 O   0  0  0  0  0  0  0  0  0  0  0  0
  2  1  1  0
  3  2  1  0
  3  4  1  0
  5  4  1  0
  5  6  1  1
  7  5  1  0
  7  8  2  0
  9  7  1  0
 10  9  1  0
 10 11  1  6
 12 11  1  0
 12 16  1  0
 13 12  2  0
 14 13  1  0
 14 15  1  0
 15 16  2  0
 17 10  1  0
 18 17  2  0
 19 17  1  0
 20 19  1  0
 20 25  1  0
 20 21  1  1
 22 21  1  0
 22 23  1  0
 23 24  2  0
 25 28  1  0
 26 25  2  0
 27 23  1  0
M  END
$$$$
