NHH.pdb
     RDKit          3D

 29 30  0  0  1  0  0  0  0  0999 V2000
   26.3904  -13.3057  -16.8906 N   0  0  0  0  0  0  0  0  0  0  0  0
   26.7482  -12.0974  -16.1350 C   0  0  0  0  0  0  0  0  0  0  0  0
   27.8863  -11.9125  -15.8980 O   0  0  0  0  0  0  0  0  0  0  0  0
   25.5721  -11.2563  -15.6775 C   0  0  0  0  0  0  0  0  0  0  0  0
   24.3551  -11.9499  -16.2051 C   0  0  2  0  0  0  0  0  0  0  0  0
   24.6775  -13.0398  -17.0989 N   0  0  0  0  0  0  0  0  0  0  0  0
   23.2872  -11.1644  -16.5965 C   0  0  0  0  0  0  0  0  0  0  0  0
   23.4348  -10.6446  -17.8162 O   0  0  0  0  0  0  0  0  0  0  0  0
   22.1736  -10.9369  -15.6935 N   0  0  0  0  0  0  0  0  0  0  0  0
   21.0501  -10.1966  -16.0229 C   0  0  1  0  0  0  0  0  0  0  0  0
   19.6574  -10.6081  -15.8951 C   0  0  0  0  0  0  0  0  0  0  0  0
   19.5181  -11.8930  -16.5459 C   0  0  0  0  0  0  0  0  0  0  0  0
   19.3366  -13.0743  -15.9215 C   0  0  0  0  0  0  0  0  0  0  0  0
   19.1627  -14.0157  -16.8692 N   0  0  0  0  0  0  0  0  0  0  0  0
   19.2968  -13.4124  -18.0622 C   0  0  0  0  0  0  0  0  0  0  0  0
   19.5506  -12.0774  -17.8938 N   0  0  0  0  0  0  0  0  0  0  0  0
   21.1846   -8.7823  -15.3304 C   0  0  0  0  0  0  0  0  0  0  0  0
   22.0286   -8.7133  -14.4859 O   0  0  0  0  0  0  0  0  0  0  0  0
   20.2465   -7.8091  -15.8066 N   0  0  0  0  0  0  0  0  0  0  0  0
   20.5288   -6.4963  -15.3175 C   0  0  1  0  0  0  0  0  0  0  0  0
   21.9909   -6.0251  -15.7877 C   0  0  0  0  0  0  0  0  0  0  0  0
   21.8932   -4.5893  -15.2879 C   0  0  0  0  0  0  0  0  0  0  0  0
   22.7195   -4.0252  -14.3364 C   0  0  0  0  0  0  0  0  0  0  0  0
   22.5404   -2.6950  -14.4014 N   0  0  0  0  0  0  0  0  0  0  0  0
   21.6463   -2.4343  -15.3509 C   0  0  0  0  0  0  0  0  0  0  0  0
   21.1849   -3.6314  -15.9092 N   0  0  0  0  0  0  0  0  0  0  0  0
   19.5622   -5.4954  -15.7671 C   0  0  0  0  0  0  0  0  0  0  0  0
   19.2550   -4.4180  -14.9734 O   0  0  0  0  0  0  0  0  0  0  0  0
   18.9349   -5.6457  -16.9008 O   0  0  0  0  0  0  0  0  0  0  0  0
  1  2  1  0
  2  3  2  0
  4  2  1  0
  4  5  1  0
  5  6  1  6
  5  7  1  0
  7  8  2  0
  9  7  1  0
  9 10  1  0
 10 11  1  1
 11 12  1  0
 12 16  1  0
 13 14  1  0
 13 12  2  0
 14 15  1  0
 15 16  2  0
 17 10  1  0
 17 18  2  0
 19 17  1  0
 20 27  1  0
 20 19  1  0
 20 21  1  6
 22 21  1  0
 23 22  2  0
 24 25  1  0
 24 23  1  0
 25 26  2  0
 26 22  1  0
 27 28  1  0
 29 27  2  0
M  END
$$$$
