NHH.pdb
     RDKit          3D

 29 30  0  0  1  0  0  0  0  0999 V2000
   38.1201  -35.3294    1.6621 N   0  0  0  0  0  0  0  0  0  0  0  0
   37.9017  -33.9438    2.0993 C   0  0  0  0  0  0  0  0  0  0  0  0
   38.8213  -33.3518    2.5349 O   0  0  0  0  0  0  0  0  0  0  0  0
   36.4674  -33.4604    2.0034 C   0  0  0  0  0  0  0  0  0  0  0  0
   35.7005  -34.5992    1.4073 C   0  0  2  0  0  0  0  0  0  0  0  0
   36.4892  -35.3771    0.4779 N   0  0  0  0  0  0  0  0  0  0  0  0
   34.3965  -34.3605    1.0160 C   0  0  0  0  0  0  0  0  0  0  0  0
   34.0449  -33.0771    1.1103 O   0  0  0  0  0  0  0  0  0  0  0  0
   33.5420  -35.4581    0.6013 N   0  0  0  0  0  0  0  0  0  0  0  0
   32.2138  -35.3090    0.2374 C   0  0  1  0  0  0  0  0  0  0  0  0
   31.4301  -36.1967   -0.6130 C   0  0  0  0  0  0  0  0  0  0  0  0
   32.0356  -36.1928   -1.9273 C   0  0  0  0  0  0  0  0  0  0  0  0
   32.6390  -35.1376   -2.5110 C   0  0  0  0  0  0  0  0  0  0  0  0
   33.1506  -35.5566   -3.6847 N   0  0  0  0  0  0  0  0  0  0  0  0
   32.8059  -36.8466   -3.8340 C   0  0  0  0  0  0  0  0  0  0  0  0
   32.0767  -37.2716   -2.7558 N   0  0  0  0  0  0  0  0  0  0  0  0
   31.3770  -35.0663    1.5559 C   0  0  0  0  0  0  0  0  0  0  0  0
   32.0042  -35.1413    2.5715 O   0  0  0  0  0  0  0  0  0  0  0  0
   29.9835  -34.8235    1.3250 N   0  0  0  0  0  0  0  0  0  0  0  0
   29.3373  -34.2412    2.4589 C   0  0  1  0  0  0  0  0  0  0  0  0
   29.9606  -32.7954    2.7783 C   0  0  0  0  0  0  0  0  0  0  0  0
   29.0760  -32.4719    3.9756 C   0  0  0  0  0  0  0  0  0  0  0  0
   28.7370  -33.3650    4.9726 C   0  0  0  0  0  0  0  0  0  0  0  0
   28.2351  -32.6444    5.9896 N   0  0  0  0  0  0  0  0  0  0  0  0
   28.2601  -31.3587    5.6502 C   0  0  0  0  0  0  0  0  0  0  0  0
   28.7573  -31.2214    4.3495 N   0  0  0  0  0  0  0  0  0  0  0  0
   27.8944  -34.0848    2.2806 C   0  0  0  0  0  0  0  0  0  0  0  0
   27.0283  -34.4058    3.2964 O   0  0  0  0  0  0  0  0  0  0  0  0
   27.4090  -33.6964    1.1339 O   0  0  0  0  0  0  0  0  0  0  0  0
  1  2  1  0
  2  3  2  0
  4  2  1  0
  4  5  1  0
  5  6  1  6
  5  7  1  0
  7  8  2  0
  9  7  1  0
  9 10  1  0
 10 11  1  1
 11 12  1  0
 12 16  1  0
 13 14  1  0
 13 12  2  0
 14 15  1  0
 15 16  2  0
 17 10  1  0
 17 18  2  0
 19 17  1  0
 20 27  1  0
 20 19  1  0
 20 21  1  6
 22 21  1  0
 23 22  2  0
 24 25  1  0
 24 23  1  0
 25 26  2  0
 26 22  1  0
 27 28  1  0
 29 27  2  0
M  END
$$$$
