NHH.pdb
     RDKit          3D

 29 30  0  0  1  0  0  0  0  0999 V2000
   20.7034  -15.4577  -19.3102 N   0  0  0  0  0  0  0  0  0  0  0  0
   21.5405  -14.2745  -19.5512 C   0  0  0  0  0  0  0  0  0  0  0  0
   21.7964  -13.9983  -20.6665 O   0  0  0  0  0  0  0  0  0  0  0  0
   22.0462  -13.5821  -18.3003 C   0  0  0  0  0  0  0  0  0  0  0  0
   21.9269  -12.1162  -18.5786 C   0  0  2  0  0  0  0  0  0  0  0  0
   22.6022  -11.7226  -19.7951 N   0  0  0  0  0  0  0  0  0  0  0  0
   22.0764  -11.2462  -17.5148 C   0  0  0  0  0  0  0  0  0  0  0  0
   21.3451  -11.5839  -16.4515 O   0  0  0  0  0  0  0  0  0  0  0  0
   22.9273  -10.0766  -17.6373 N   0  0  0  0  0  0  0  0  0  0  0  0
   23.0460   -9.1014  -16.6609 C   0  0  1  0  0  0  0  0  0  0  0  0
   24.2668   -8.4286  -16.2338 C   0  0  0  0  0  0  0  0  0  0  0  0
   25.2610   -9.4474  -15.9734 C   0  0  0  0  0  0  0  0  0  0  0  0
   25.0787  -10.7763  -16.1110 C   0  0  0  0  0  0  0  0  0  0  0  0
   26.2576  -11.3789  -15.8628 N   0  0  0  0  0  0  0  0  0  0  0  0
   27.1334  -10.4195  -15.5200 C   0  0  0  0  0  0  0  0  0  0  0  0
   26.5292   -9.1911  -15.5515 N   0  0  0  0  0  0  0  0  0  0  0  0
   21.9772   -7.9785  -16.9685 C   0  0  0  0  0  0  0  0  0  0  0  0
   21.9446   -7.6124  -18.1066 O   0  0  0  0  0  0  0  0  0  0  0  0
   21.2328   -7.5527  -15.8202 N   0  0  0  0  0  0  0  0  0  0  0  0
   20.3636   -6.4562  -16.1110 C   0  0  1  0  0  0  0  0  0  0  0  0
   19.0558   -6.5151  -15.1799 C   0  0  0  0  0  0  0  0  0  0  0  0
   18.3534   -7.6481  -15.9172 C   0  0  0  0  0  0  0  0  0  0  0  0
   18.6554   -8.0647  -17.1985 C   0  0  0  0  0  0  0  0  0  0  0  0
   18.0669   -9.2604  -17.3703 N   0  0  0  0  0  0  0  0  0  0  0  0
   17.4276   -9.5824  -16.2493 C   0  0  0  0  0  0  0  0  0  0  0  0
   17.5609   -8.5501  -15.3142 N   0  0  0  0  0  0  0  0  0  0  0  0
   20.9990   -5.1530  -15.9203 C   0  0  0  0  0  0  0  0  0  0  0  0
   20.2876   -3.9956  -16.1187 O   0  0  0  0  0  0  0  0  0  0  0  0
   22.2656   -5.0737  -15.6188 O   0  0  0  0  0  0  0  0  0  0  0  0
  1  2  1  0
  2  3  2  0
  4  2  1  0
  4  5  1  0
  5  6  1  6
  5  7  1  0
  7  8  2  0
  9  7  1  0
  9 10  1  0
 10 11  1  6
 11 12  1  0
 12 16  1  0
 13 14  1  0
 13 12  2  0
 14 15  1  0
 15 16  2  0
 17 10  1  0
 17 18  2  0
 19 17  1  0
 20 27  1  0
 20 19  1  0
 20 21  1  1
 22 21  1  0
 23 22  2  0
 24 25  1  0
 24 23  1  0
 25 26  2  0
 26 22  1  0
 27 28  1  0
 29 27  2  0
M  END
$$$$
