NHH.pdb
     RDKit          3D

 29 30  0  0  1  0  0  0  0  0999 V2000
   19.6295  -17.6504  -12.2999 N   0  0  0  0  0  0  0  0  0  0  0  0
   18.8910  -16.6258  -13.0507 C   0  0  0  0  0  0  0  0  0  0  0  0
   17.7411  -16.5027  -12.8303 O   0  0  0  0  0  0  0  0  0  0  0  0
   19.7042  -15.8869  -14.0960 C   0  0  0  0  0  0  0  0  0  0  0  0
   18.7040  -15.3257  -15.0578 C   0  0  2  0  0  0  0  0  0  0  0  0
   17.8774  -16.3466  -15.6622 N   0  0  0  0  0  0  0  0  0  0  0  0
   19.1274  -14.3277  -15.9154 C   0  0  0  0  0  0  0  0  0  0  0  0
   20.3579  -14.5280  -16.3899 O   0  0  0  0  0  0  0  0  0  0  0  0
   18.2771  -13.1826  -16.1856 N   0  0  0  0  0  0  0  0  0  0  0  0
   18.5700  -12.2066  -17.1237 C   0  0  1  0  0  0  0  0  0  0  0  0
   17.7541  -11.8111  -18.2653 C   0  0  0  0  0  0  0  0  0  0  0  0
   17.5634  -12.9815  -19.0947 C   0  0  0  0  0  0  0  0  0  0  0  0
   18.3891  -13.3894  -20.0796 C   0  0  0  0  0  0  0  0  0  0  0  0
   17.9172  -14.5600  -20.5506 N   0  0  0  0  0  0  0  0  0  0  0  0
   16.7780  -14.8272  -19.8904 C   0  0  0  0  0  0  0  0  0  0  0  0
   16.5103  -13.8363  -18.9841 N   0  0  0  0  0  0  0  0  0  0  0  0
   18.9518  -10.8865  -16.3430 C   0  0  0  0  0  0  0  0  0  0  0  0
   18.2595  -10.6417  -15.3989 O   0  0  0  0  0  0  0  0  0  0  0  0
   20.0555  -10.1715  -16.9126 N   0  0  0  0  0  0  0  0  0  0  0  0
   20.3142   -8.9401  -16.2350 C   0  0  1  0  0  0  0  0  0  0  0  0
   21.7032   -9.0229  -15.4321 C   0  0  0  0  0  0  0  0  0  0  0  0
   21.6960   -7.5954  -14.9004 C   0  0  0  0  0  0  0  0  0  0  0  0
   21.1974   -7.2118  -13.6713 C   0  0  0  0  0  0  0  0  0  0  0  0
   21.6546   -5.9709  -13.4333 N   0  0  0  0  0  0  0  0  0  0  0  0
   22.4077   -5.5927  -14.4622 C   0  0  0  0  0  0  0  0  0  0  0  0
   22.4203   -6.5981  -15.4353 N   0  0  0  0  0  0  0  0  0  0  0  0
   20.3781   -7.7905  -17.1364 C   0  0  0  0  0  0  0  0  0  0  0  0
   20.0855   -6.5296  -16.6788 O   0  0  0  0  0  0  0  0  0  0  0  0
   20.6544   -7.9570  -18.4003 O   0  0  0  0  0  0  0  0  0  0  0  0
  1  2  1  0
  2  3  2  0
  4  2  1  0
  4  5  1  0
  5  6  1  6
  5  7  1  0
  7  8  2  0
  9  7  1  0
  9 10  1  0
 10 11  1  6
 11 12  1  0
 12 16  1  0
 13 14  1  0
 13 12  2  0
 14 15  1  0
 15 16  2  0
 17 10  1  0
 17 18  2  0
 19 17  1  0
 20 27  1  0
 20 19  1  0
 20 21  1  6
 22 21  1  0
 23 22  2  0
 24 25  1  0
 24 23  1  0
 25 26  2  0
 26 22  1  0
 27 28  1  0
 29 27  2  0
M  END
$$$$
