NHH.pdb
     RDKit          3D

 29 30  0  0  1  0  0  0  0  0999 V2000
   16.6728  -24.6206  -10.9508 N   0  0  0  0  0  0  0  0  0  0  0  0
   17.7508  -23.9495  -11.6899 C   0  0  0  0  0  0  0  0  0  0  0  0
   17.5333  -22.8803  -12.1320 O   0  0  0  0  0  0  0  0  0  0  0  0
   19.0161  -24.7679  -11.8611 C   0  0  0  0  0  0  0  0  0  0  0  0
   18.7206  -26.0963  -11.2377 C   0  0  2  0  0  0  0  0  0  0  0  0
   18.4353  -25.9978   -9.8235 N   0  0  0  0  0  0  0  0  0  0  0  0
   19.5120  -27.1684  -11.6048 C   0  0  0  0  0  0  0  0  0  0  0  0
   18.9953  -27.8870  -12.6029 O   0  0  0  0  0  0  0  0  0  0  0  0
   20.7467  -27.4466  -10.8941 N   0  0  0  0  0  0  0  0  0  0  0  0
   21.6946  -28.3623  -11.3204 C   0  0  1  0  0  0  0  0  0  0  0  0
   23.0824  -28.0907  -11.6751 C   0  0  0  0  0  0  0  0  0  0  0  0
   23.0884  -27.4776  -12.9858 C   0  0  0  0  0  0  0  0  0  0  0  0
   22.0019  -27.2486  -13.7509 C   0  0  0  0  0  0  0  0  0  0  0  0
   22.4083  -26.5851  -14.8506 N   0  0  0  0  0  0  0  0  0  0  0  0
   23.7444  -26.4660  -14.7754 C   0  0  0  0  0  0  0  0  0  0  0  0
   24.2091  -27.0443  -13.6246 N   0  0  0  0  0  0  0  0  0  0  0  0
   21.7015  -29.5630  -10.2928 C   0  0  0  0  0  0  0  0  0  0  0  0
   21.1741  -29.3318   -9.2446 O   0  0  0  0  0  0  0  0  0  0  0  0
   22.3705  -30.7362  -10.7724 N   0  0  0  0  0  0  0  0  0  0  0  0
   22.3560  -31.7995   -9.8177 C   0  0  1  0  0  0  0  0  0  0  0  0
   22.8026  -33.1795  -10.5084 C   0  0  0  0  0  0  0  0  0  0  0  0
   21.4151  -33.6203  -10.9573 C   0  0  0  0  0  0  0  0  0  0  0  0
   20.2292  -33.0602  -10.5255 C   0  0  0  0  0  0  0  0  0  0  0  0
   19.2690  -33.4801  -11.3665 N   0  0  0  0  0  0  0  0  0  0  0  0
   19.8247  -34.2644  -12.2857 C   0  0  0  0  0  0  0  0  0  0  0  0
   21.1925  -34.4041  -12.0255 N   0  0  0  0  0  0  0  0  0  0  0  0
   23.2357  -31.5578   -8.6749 C   0  0  0  0  0  0  0  0  0  0  0  0
   23.2123  -32.3968   -7.5883 O   0  0  0  0  0  0  0  0  0  0  0  0
   24.0093  -30.5080   -8.6475 O   0  0  0  0  0  0  0  0  0  0  0  0
  1  2  1  0
  2  3  2  0
  4  2  1  0
  4  5  1  0
  5  6  1  1
  5  7  1  0
  7  8  2  0
  9  7  1  0
  9 10  1  0
 10 11  1  1
 11 12  1  0
 12 16  1  0
 13 14  1  0
 13 12  2  0
 14 15  1  0
 15 16  2  0
 17 10  1  0
 17 18  2  0
 19 17  1  0
 20 27  1  0
 20 19  1  0
 20 21  1  6
 22 21  1  0
 23 22  2  0
 24 25  1  0
 24 23  1  0
 25 26  2  0
 26 22  1  0
 27 28  1  0
 29 27  2  0
M  END
$$$$
