NHH.pdb
     RDKit          3D

 29 30  0  0  1  0  0  0  0  0999 V2000
   20.7011  -14.0654  -20.8555 N   0  0  0  0  0  0  0  0  0  0  0  0
   20.2186  -14.9472  -19.7838 C   0  0  0  0  0  0  0  0  0  0  0  0
   19.5078  -15.8374  -20.0805 O   0  0  0  0  0  0  0  0  0  0  0  0
   20.6452  -14.5472  -18.3845 C   0  0  0  0  0  0  0  0  0  0  0  0
   21.5031  -13.3332  -18.5595 C   0  0  2  0  0  0  0  0  0  0  0  0
   22.6089  -13.5572  -19.4638 N   0  0  0  0  0  0  0  0  0  0  0  0
   21.8057  -12.5926  -17.4323 C   0  0  0  0  0  0  0  0  0  0  0  0
   20.7434  -12.3437  -16.6648 O   0  0  0  0  0  0  0  0  0  0  0  0
   23.1615  -12.1281  -17.2014 N   0  0  0  0  0  0  0  0  0  0  0  0
   23.5507  -11.4019  -16.0880 C   0  0  1  0  0  0  0  0  0  0  0  0
   24.8650  -11.3964  -15.4572 C   0  0  0  0  0  0  0  0  0  0  0  0
   25.3188  -12.7681  -15.3766 C   0  0  0  0  0  0  0  0  0  0  0  0
   24.8195  -13.7137  -14.5551 C   0  0  0  0  0  0  0  0  0  0  0  0
   25.4409  -14.8741  -14.8414 N   0  0  0  0  0  0  0  0  0  0  0  0
   26.3532  -14.6155  -15.7933 C   0  0  0  0  0  0  0  0  0  0  0  0
   26.3225  -13.2895  -16.1334 N   0  0  0  0  0  0  0  0  0  0  0  0
   23.1418   -9.8944  -16.3285 C   0  0  0  0  0  0  0  0  0  0  0  0
   23.7425   -9.3430  -17.2035 O   0  0  0  0  0  0  0  0  0  0  0  0
   22.1306   -9.4152  -15.4331 N   0  0  0  0  0  0  0  0  0  0  0  0
   21.6766   -8.1043  -15.7763 C   0  0  1  0  0  0  0  0  0  0  0  0
   20.5343   -8.1836  -16.9030 C   0  0  0  0  0  0  0  0  0  0  0  0
   20.3276   -6.6829  -17.0643 C   0  0  0  0  0  0  0  0  0  0  0  0
   19.7681   -5.8548  -16.1116 C   0  0  0  0  0  0  0  0  0  0  0  0
   20.0501   -4.5925  -16.4759 N   0  0  0  0  0  0  0  0  0  0  0  0
   20.7562   -4.6248  -17.6025 C   0  0  0  0  0  0  0  0  0  0  0  0
   20.9157   -5.9494  -18.0242 N   0  0  0  0  0  0  0  0  0  0  0  0
   21.1386   -7.3653  -14.6349 C   0  0  0  0  0  0  0  0  0  0  0  0
   20.9441   -7.9917  -13.4287 O   0  0  0  0  0  0  0  0  0  0  0  0
   20.7800   -6.1180  -14.7654 O   0  0  0  0  0  0  0  0  0  0  0  0
  1  2  1  0
  2  3  2  0
  4  2  1  0
  4  5  1  0
  5  6  1  1
  5  7  1  0
  7  8  2  0
  9  7  1  0
  9 10  1  0
 10 11  1  6
 11 12  1  0
 12 16  1  0
 13 14  1  0
 13 12  2  0
 14 15  1  0
 15 16  2  0
 17 10  1  0
 17 18  2  0
 19 17  1  0
 20 27  1  0
 20 19  1  0
 20 21  1  6
 22 21  1  0
 23 22  2  0
 24 25  1  0
 24 23  1  0
 25 26  2  0
 26 22  1  0
 27 28  1  0
 29 27  2  0
M  END
$$$$
