NHH.pdb
     RDKit          3D

 29 30  0  0  1  0  0  0  0  0999 V2000
   28.6601  -24.6475  -16.3211 N   0  0  0  0  0  0  0  0  0  0  0  0
   29.2893  -25.9374  -16.6357 C   0  0  0  0  0  0  0  0  0  0  0  0
   28.8663  -26.9004  -16.1070 O   0  0  0  0  0  0  0  0  0  0  0  0
   30.4835  -25.8575  -17.5671 C   0  0  0  0  0  0  0  0  0  0  0  0
   30.6959  -24.3977  -17.8207 C   0  0  2  0  0  0  0  0  0  0  0  0
   29.7148  -23.8400  -18.7246 N   0  0  0  0  0  0  0  0  0  0  0  0
   31.9928  -23.9622  -18.0186 C   0  0  0  0  0  0  0  0  0  0  0  0
   32.2050  -22.7217  -17.5764 O   0  0  0  0  0  0  0  0  0  0  0  0
   32.9578  -24.8123  -18.6918 N   0  0  0  0  0  0  0  0  0  0  0  0
   34.2895  -24.4772  -18.8729 C   0  0  1  0  0  0  0  0  0  0  0  0
   35.2673  -24.1686  -17.8365 C   0  0  0  0  0  0  0  0  0  0  0  0
   35.9982  -22.9934  -18.2589 C   0  0  0  0  0  0  0  0  0  0  0  0
   35.8923  -22.3925  -19.4613 C   0  0  0  0  0  0  0  0  0  0  0  0
   36.6609  -21.2865  -19.4352 N   0  0  0  0  0  0  0  0  0  0  0  0
   37.2735  -21.2527  -18.2399 C   0  0  0  0  0  0  0  0  0  0  0  0
   36.8996  -22.3312  -17.4836 N   0  0  0  0  0  0  0  0  0  0  0  0
   34.9371  -25.5674  -19.8162 C   0  0  0  0  0  0  0  0  0  0  0  0
   34.9137  -26.6833  -19.3865 O   0  0  0  0  0  0  0  0  0  0  0  0
   35.4808  -25.0371  -21.0316 N   0  0  0  0  0  0  0  0  0  0  0  0
   36.0403  -26.0532  -21.8663 C   0  0  1  0  0  0  0  0  0  0  0  0
   35.7618  -25.7239  -23.4138 C   0  0  0  0  0  0  0  0  0  0  0  0
   36.0691  -27.1133  -23.9579 C   0  0  0  0  0  0  0  0  0  0  0  0
   35.2632  -28.2225  -23.7947 C   0  0  0  0  0  0  0  0  0  0  0  0
   35.6918  -29.1496  -24.6679 N   0  0  0  0  0  0  0  0  0  0  0  0
   36.7166  -28.6465  -25.3503 C   0  0  0  0  0  0  0  0  0  0  0  0
   37.0060  -27.3575  -24.8895 N   0  0  0  0  0  0  0  0  0  0  0  0
   37.4829  -26.2134  -21.6882 C   0  0  0  0  0  0  0  0  0  0  0  0
   38.2058  -25.2807  -20.9865 O   0  0  0  0  0  0  0  0  0  0  0  0
   38.1101  -27.2122  -22.2453 O   0  0  0  0  0  0  0  0  0  0  0  0
  1  2  1  0
  2  3  2  0
  4  2  1  0
  4  5  1  0
  5  6  1  6
  5  7  1  0
  7  8  2  0
  9  7  1  0
  9 10  1  0
 10 11  1  1
 11 12  1  0
 12 16  1  0
 13 14  1  0
 13 12  2  0
 14 15  1  0
 15 16  2  0
 17 10  1  0
 17 18  2  0
 19 17  1  0
 20 27  1  0
 20 19  1  0
 20 21  1  6
 22 21  1  0
 23 22  2  0
 24 25  1  0
 24 23  1  0
 25 26  2  0
 26 22  1  0
 27 28  1  0
 29 27  2  0
M  END
$$$$
