NHH.pdb
     RDKit          3D

 29 30  0  0  1  0  0  0  0  0999 V2000
   21.1435   -3.4770  -15.7093 N   0  0  0  0  0  0  0  0  0  0  0  0
   21.1043   -3.3349  -17.1712 C   0  0  0  0  0  0  0  0  0  0  0  0
   20.6861   -2.3284  -17.6160 O   0  0  0  0  0  0  0  0  0  0  0  0
   21.5476   -4.5608  -17.9461 C   0  0  0  0  0  0  0  0  0  0  0  0
   21.7797   -5.6224  -16.9167 C   0  0  2  0  0  0  0  0  0  0  0  0
   22.6626   -5.1883  -15.8570 N   0  0  0  0  0  0  0  0  0  0  0  0
   21.9860   -6.9146  -17.3619 C   0  0  0  0  0  0  0  0  0  0  0  0
   21.1664   -7.2672  -18.3536 O   0  0  0  0  0  0  0  0  0  0  0  0
   22.9835   -7.7584  -16.7293 N   0  0  0  0  0  0  0  0  0  0  0  0
   23.2600   -9.0571  -17.1237 C   0  0  1  0  0  0  0  0  0  0  0  0
   24.5357   -9.7551  -17.0191 C   0  0  0  0  0  0  0  0  0  0  0  0
   25.5085   -9.0086  -17.7874 C   0  0  0  0  0  0  0  0  0  0  0  0
   25.8993   -9.2911  -19.0466 C   0  0  0  0  0  0  0  0  0  0  0  0
   26.7440   -8.3187  -19.4409 N   0  0  0  0  0  0  0  0  0  0  0  0
   26.9067   -7.4837  -18.4009 C   0  0  0  0  0  0  0  0  0  0  0  0
   26.1632   -7.9062  -17.3315 N   0  0  0  0  0  0  0  0  0  0  0  0
   22.1595   -9.9980  -16.4903 C   0  0  0  0  0  0  0  0  0  0  0  0
   22.2392  -10.1396  -15.3054 O   0  0  0  0  0  0  0  0  0  0  0  0
   21.2531  -10.5605  -17.4475 N   0  0  0  0  0  0  0  0  0  0  0  0
   20.3041  -11.4430  -16.8451 C   0  0  1  0  0  0  0  0  0  0  0  0
   18.8290  -10.8104  -16.9120 C   0  0  0  0  0  0  0  0  0  0  0  0
   18.1173  -11.9161  -16.1428 C   0  0  0  0  0  0  0  0  0  0  0  0
   17.9875  -11.9665  -14.7691 C   0  0  0  0  0  0  0  0  0  0  0  0
   17.0450  -12.8852  -14.4984 N   0  0  0  0  0  0  0  0  0  0  0  0
   16.6006  -13.3868  -15.6473 C   0  0  0  0  0  0  0  0  0  0  0  0
   17.2976  -12.8130  -16.7163 N   0  0  0  0  0  0  0  0  0  0  0  0
   20.2626  -12.7608  -17.4776 C   0  0  0  0  0  0  0  0  0  0  0  0
   19.6473  -13.8155  -16.8499 O   0  0  0  0  0  0  0  0  0  0  0  0
   20.8623  -12.9652  -18.6177 O   0  0  0  0  0  0  0  0  0  0  0  0
  1  2  1  0
  2  3  2  0
  4  2  1  0
  4  5  1  0
  5  6  1  6
  5  7  1  0
  7  8  2  0
  9  7  1  0
  9 10  1  0
 10 11  1  1
 11 12  1  0
 12 16  1  0
 13 14  1  0
 13 12  2  0
 14 15  1  0
 15 16  2  0
 17 10  1  0
 17 18  2  0
 19 17  1  0
 20 27  1  0
 20 19  1  0
 20 21  1  6
 22 21  1  0
 23 22  2  0
 24 25  1  0
 24 23  1  0
 25 26  2  0
 26 22  1  0
 27 28  1  0
 29 27  2  0
M  END
$$$$
