NHH.pdb
     RDKit          3D

 29 30  0  0  1  0  0  0  0  0999 V2000
   20.5170  -14.6760  -20.1217 N   0  0  0  0  0  0  0  0  0  0  0  0
   20.5358  -13.2069  -20.1147 C   0  0  0  0  0  0  0  0  0  0  0  0
   21.5051  -12.6662  -20.5072 O   0  0  0  0  0  0  0  0  0  0  0  0
   19.3043  -12.5533  -19.5179 C   0  0  0  0  0  0  0  0  0  0  0  0
   19.8087  -11.6960  -18.3994 C   0  0  2  0  0  0  0  0  0  0  0  0
   20.7884  -12.3708  -17.5774 N   0  0  0  0  0  0  0  0  0  0  0  0
   18.8861  -10.9332  -17.7084 C   0  0  0  0  0  0  0  0  0  0  0  0
   18.0743  -10.2377  -18.5065 O   0  0  0  0  0  0  0  0  0  0  0  0
   18.8945  -10.9078  -16.2571 N   0  0  0  0  0  0  0  0  0  0  0  0
   17.9555  -10.2378  -15.4902 C   0  0  1  0  0  0  0  0  0  0  0  0
   17.1189  -10.7988  -14.4363 C   0  0  0  0  0  0  0  0  0  0  0  0
   16.3780  -11.9037  -15.0058 C   0  0  0  0  0  0  0  0  0  0  0  0
   16.7506  -13.1992  -14.9730 C   0  0  0  0  0  0  0  0  0  0  0  0
   15.7590  -13.9243  -15.5259 N   0  0  0  0  0  0  0  0  0  0  0  0
   14.8170  -13.0618  -15.9431 C   0  0  0  0  0  0  0  0  0  0  0  0
   15.1895  -11.7758  -15.6562 N   0  0  0  0  0  0  0  0  0  0  0  0
   18.6487   -8.9466  -14.8986 C   0  0  0  0  0  0  0  0  0  0  0  0
   18.8842   -8.9934  -13.7270 O   0  0  0  0  0  0  0  0  0  0  0  0
   18.8586   -7.9054  -15.8609 N   0  0  0  0  0  0  0  0  0  0  0  0
   19.4705   -6.7487  -15.2865 C   0  0  1  0  0  0  0  0  0  0  0  0
   20.8066   -6.3633  -16.0908 C   0  0  0  0  0  0  0  0  0  0  0  0
   21.1575   -5.1199  -15.2836 C   0  0  0  0  0  0  0  0  0  0  0  0
   21.9879   -5.1015  -14.1806 C   0  0  0  0  0  0  0  0  0  0  0  0
   22.3054   -3.8161  -13.9512 N   0  0  0  0  0  0  0  0  0  0  0  0
   21.7060   -3.0619  -14.8681 C   0  0  0  0  0  0  0  0  0  0  0  0
   20.9319   -3.8665  -15.7115 N   0  0  0  0  0  0  0  0  0  0  0  0
   18.5927   -5.5793  -15.2766 C   0  0  0  0  0  0  0  0  0  0  0  0
   17.3870   -5.6079  -15.9328 O   0  0  0  0  0  0  0  0  0  0  0  0
   18.9712   -4.4744  -14.6957 O   0  0  0  0  0  0  0  0  0  0  0  0
  1  2  1  0
  2  3  2  0
  4  2  1  0
  4  5  1  0
  5  6  1  1
  5  7  1  0
  7  8  2  0
  9  7  1  0
  9 10  1  0
 10 11  1  1
 11 12  1  0
 12 16  1  0
 13 14  1  0
 13 12  2  0
 14 15  1  0
 15 16  2  0
 17 10  1  0
 17 18  2  0
 19 17  1  0
 20 27  1  0
 20 19  1  0
 20 21  1  6
 22 21  1  0
 23 22  2  0
 24 25  1  0
 24 23  1  0
 25 26  2  0
 26 22  1  0
 27 28  1  0
 29 27  2  0
M  END
$$$$
