NHH.pdb
     RDKit          3D

 29 30  0  0  1  0  0  0  0  0999 V2000
   37.3445  -12.5907  -19.5092 N   0  0  0  0  0  0  0  0  0  0  0  0
   36.7289  -12.1410  -18.2532 C   0  0  0  0  0  0  0  0  0  0  0  0
   37.3617  -12.2344  -17.2649 O   0  0  0  0  0  0  0  0  0  0  0  0
   35.2923  -11.6710  -18.3762 C   0  0  0  0  0  0  0  0  0  0  0  0
   35.2537  -10.3266  -17.7193 C   0  0  2  0  0  0  0  0  0  0  0  0
   35.6105  -10.3794  -16.3191 N   0  0  0  0  0  0  0  0  0  0  0  0
   34.1950   -9.4922  -18.0256 C   0  0  0  0  0  0  0  0  0  0  0  0
   34.3649   -8.8231  -19.1670 O   0  0  0  0  0  0  0  0  0  0  0  0
   33.0670   -9.3751  -17.1195 N   0  0  0  0  0  0  0  0  0  0  0  0
   31.9802   -8.5454  -17.3414 C   0  0  1  0  0  0  0  0  0  0  0  0
   30.5813   -8.8311  -17.0470 C   0  0  0  0  0  0  0  0  0  0  0  0
   30.2211  -10.0389  -17.7580 C   0  0  0  0  0  0  0  0  0  0  0  0
   30.8651  -10.5402  -18.8314 C   0  0  0  0  0  0  0  0  0  0  0  0
   30.2846  -11.7146  -19.1452 N   0  0  0  0  0  0  0  0  0  0  0  0
   29.2566  -11.8920  -18.2986 C   0  0  0  0  0  0  0  0  0  0  0  0
   29.1705  -10.8384  -17.4282 N   0  0  0  0  0  0  0  0  0  0  0  0
   32.3124   -7.1360  -16.7080 C   0  0  0  0  0  0  0  0  0  0  0  0
   31.5065   -6.2810  -16.9313 O   0  0  0  0  0  0  0  0  0  0  0  0
   33.5506   -7.0985  -15.9874 N   0  0  0  0  0  0  0  0  0  0  0  0
   33.8681   -5.7863  -15.5189 C   0  0  1  0  0  0  0  0  0  0  0  0
   34.2441   -5.8240  -13.9575 C   0  0  0  0  0  0  0  0  0  0  0  0
   34.7268   -4.3833  -13.8476 C   0  0  0  0  0  0  0  0  0  0  0  0
   33.9070   -3.2854  -13.6779 C   0  0  0  0  0  0  0  0  0  0  0  0
   34.6946   -2.2625  -13.3051 N   0  0  0  0  0  0  0  0  0  0  0  0
   35.9500   -2.6969  -13.2401 C   0  0  0  0  0  0  0  0  0  0  0  0
   36.0064   -4.0422  -13.6206 N   0  0  0  0  0  0  0  0  0  0  0  0
   34.9824   -5.1726  -16.2400 C   0  0  0  0  0  0  0  0  0  0  0  0
   34.9879   -3.8237  -16.4959 O   0  0  0  0  0  0  0  0  0  0  0  0
   35.9552   -5.9085  -16.7022 O   0  0  0  0  0  0  0  0  0  0  0  0
  1  2  1  0
  2  3  2  0
  4  2  1  0
  4  5  1  0
  5  6  1  1
  5  7  1  0
  7  8  2  0
  9  7  1  0
  9 10  1  0
 10 11  1  1
 11 12  1  0
 12 16  1  0
 13 14  1  0
 13 12  2  0
 14 15  1  0
 15 16  2  0
 17 10  1  0
 17 18  2  0
 19 17  1  0
 20 27  1  0
 20 19  1  0
 20 21  1  1
 22 21  1  0
 23 22  2  0
 24 25  1  0
 24 23  1  0
 25 26  2  0
 26 22  1  0
 27 28  1  0
 29 27  2  0
M  END
$$$$
