NHH.pdb
     RDKit          3D

 29 30  0  0  1  0  0  0  0  0999 V2000
   12.4606  -19.2361    3.3371 N   0  0  0  0  0  0  0  0  0  0  0  0
   13.5948  -19.4578    2.4298 C   0  0  0  0  0  0  0  0  0  0  0  0
   13.5046  -20.3222    1.6358 O   0  0  0  0  0  0  0  0  0  0  0  0
   14.8006  -18.5739    2.6839 C   0  0  0  0  0  0  0  0  0  0  0  0
   14.6448  -18.0787    4.0878 C   0  0  2  0  0  0  0  0  0  0  0  0
   13.6472  -17.0385    4.2050 N   0  0  0  0  0  0  0  0  0  0  0  0
   15.7939  -17.8778    4.8293 C   0  0  0  0  0  0  0  0  0  0  0  0
   16.6971  -18.8471    4.6740 O   0  0  0  0  0  0  0  0  0  0  0  0
   15.9109  -16.7253    5.7040 N   0  0  0  0  0  0  0  0  0  0  0  0
   17.0444  -16.4269    6.4421 C   0  0  1  0  0  0  0  0  0  0  0  0
   17.6165  -15.1073    6.6803 C   0  0  0  0  0  0  0  0  0  0  0  0
   18.0334  -14.5726    5.4019 C   0  0  0  0  0  0  0  0  0  0  0  0
   17.9867  -15.2270    4.2239 C   0  0  0  0  0  0  0  0  0  0  0  0
   18.3735  -14.3665    3.2622 N   0  0  0  0  0  0  0  0  0  0  0  0
   18.7078  -13.2142    3.8668 C   0  0  0  0  0  0  0  0  0  0  0  0
   18.5324  -13.3196    5.2208 N   0  0  0  0  0  0  0  0  0  0  0  0
   16.9050  -17.1361    7.8476 C   0  0  0  0  0  0  0  0  0  0  0  0
   15.8438  -16.9937    8.3805 O   0  0  0  0  0  0  0  0  0  0  0  0
   18.0912  -17.8162    8.2771 N   0  0  0  0  0  0  0  0  0  0  0  0
   17.9469  -18.3945    9.5759 C   0  0  1  0  0  0  0  0  0  0  0  0
   18.9181  -19.6642    9.7354 C   0  0  0  0  0  0  0  0  0  0  0  0
   18.0963  -20.6336    8.8954 C   0  0  0  0  0  0  0  0  0  0  0  0
   16.7249  -20.7767    8.9680 C   0  0  0  0  0  0  0  0  0  0  0  0
   16.3449  -21.4647    7.8781 N   0  0  0  0  0  0  0  0  0  0  0  0
   17.4253  -21.7387    7.1525 C   0  0  0  0  0  0  0  0  0  0  0  0
   18.5667  -21.2526    7.7996 N   0  0  0  0  0  0  0  0  0  0  0  0
   18.2428  -17.4571   10.6585 C   0  0  0  0  0  0  0  0  0  0  0  0
   17.8540  -17.7346   11.9457 O   0  0  0  0  0  0  0  0  0  0  0  0
   18.8256  -16.3181   10.4049 O   0  0  0  0  0  0  0  0  0  0  0  0
  1  2  1  0
  2  3  2  0
  4  2  1  0
  4  5  1  0
  5  6  1  6
  5  7  1  0
  7  8  2  0
  9  7  1  0
  9 10  1  0
 10 11  1  1
 11 12  1  0
 12 16  1  0
 13 14  1  0
 13 12  2  0
 14 15  1  0
 15 16  2  0
 17 10  1  0
 17 18  2  0
 19 17  1  0
 20 27  1  0
 20 19  1  0
 20 21  1  6
 22 21  1  0
 23 22  2  0
 24 25  1  0
 24 23  1  0
 25 26  2  0
 26 22  1  0
 27 28  1  0
 29 27  2  0
M  END
$$$$
