NHH.pdb
     RDKit          3D

 29 30  0  0  1  0  0  0  0  0999 V2000
   23.0133  -11.8072  -19.6493 N   0  0  0  0  0  0  0  0  0  0  0  0
   23.8757  -12.7647  -20.3551 C   0  0  0  0  0  0  0  0  0  0  0  0
   24.5251  -12.3646  -21.2518 O   0  0  0  0  0  0  0  0  0  0  0  0
   23.7633  -14.2001  -19.8787 C   0  0  0  0  0  0  0  0  0  0  0  0
   22.7315  -14.1820  -18.7944 C   0  0  2  0  0  0  0  0  0  0  0  0
   22.9313  -13.1035  -17.8521 N   0  0  0  0  0  0  0  0  0  0  0  0
   22.3666  -15.3920  -18.2347 C   0  0  0  0  0  0  0  0  0  0  0  0
   22.1308  -16.3418  -19.1412 O   0  0  0  0  0  0  0  0  0  0  0  0
   22.2291  -15.5233  -16.7956 N   0  0  0  0  0  0  0  0  0  0  0  0
   21.8499  -16.6935  -16.1588 C   0  0  1  0  0  0  0  0  0  0  0  0
   22.3503  -17.2055  -14.8888 C   0  0  0  0  0  0  0  0  0  0  0  0
   22.0271  -18.6146  -14.8258 C   0  0  0  0  0  0  0  0  0  0  0  0
   22.5534  -19.5770  -15.6099 C   0  0  0  0  0  0  0  0  0  0  0  0
   22.0705  -20.7606  -15.1850 N   0  0  0  0  0  0  0  0  0  0  0  0
   21.2105  -20.5062  -14.1846 C   0  0  0  0  0  0  0  0  0  0  0  0
   21.1376  -19.1589  -13.9516 N   0  0  0  0  0  0  0  0  0  0  0  0
   20.2716  -16.7096  -16.0796 C   0  0  0  0  0  0  0  0  0  0  0  0
   19.7919  -15.8395  -15.4139 O   0  0  0  0  0  0  0  0  0  0  0  0
   19.6632  -17.7902  -16.7981 N   0  0  0  0  0  0  0  0  0  0  0  0
   18.2513  -17.8570  -16.5878 C   0  0  1  0  0  0  0  0  0  0  0  0
   17.4734  -17.8339  -17.9932 C   0  0  0  0  0  0  0  0  0  0  0  0
   16.0867  -17.5430  -17.4335 C   0  0  0  0  0  0  0  0  0  0  0  0
   15.7141  -16.3654  -16.8164 C   0  0  0  0  0  0  0  0  0  0  0  0
   14.3716  -16.3612  -16.7593 N   0  0  0  0  0  0  0  0  0  0  0  0
   13.9207  -17.4813  -17.3168 C   0  0  0  0  0  0  0  0  0  0  0  0
   14.9985  -18.2761  -17.7225 N   0  0  0  0  0  0  0  0  0  0  0  0
   17.8349  -19.0534  -15.8574 C   0  0  0  0  0  0  0  0  0  0  0  0
   16.8941  -18.9690  -14.8611 O   0  0  0  0  0  0  0  0  0  0  0  0
   18.3964  -20.2051  -16.1020 O   0  0  0  0  0  0  0  0  0  0  0  0
  1  2  1  0
  2  3  2  0
  4  2  1  0
  4  5  1  0
  5  6  1  1
  5  7  1  0
  7  8  2  0
  9  7  1  0
  9 10  1  0
 10 11  1  1
 11 12  1  0
 12 16  1  0
 13 14  1  0
 13 12  2  0
 14 15  1  0
 15 16  2  0
 17 10  1  0
 17 18  2  0
 19 17  1  0
 20 27  1  0
 20 19  1  0
 20 21  1  6
 22 21  1  0
 23 22  2  0
 24 25  1  0
 24 23  1  0
 25 26  2  0
 26 22  1  0
 27 28  1  0
 29 27  2  0
M  END
$$$$
