YVD.pdb
     RDKit          3D

 28 28  0  0  1  0  0  0  0  0999 V2000
   19.0110  -23.2090   -9.7688 O   0  0  0  0  0  0  0  0  0  0  0  0
   20.0786  -22.4275  -10.1810 C   0  0  0  0  0  0  0  0  0  0  0  0
   20.7619  -22.6849  -11.3423 C   0  0  0  0  0  0  0  0  0  0  0  0
   21.8293  -21.9137  -11.7664 C   0  0  0  0  0  0  0  0  0  0  0  0
   22.1895  -20.8483  -10.9555 C   0  0  0  0  0  0  0  0  0  0  0  0
   23.3187  -20.0105  -11.3780 C   0  0  0  0  0  0  0  0  0  0  0  0
   24.6131  -20.8174  -11.2450 C   0  0  2  0  0  0  0  0  0  0  0  0
   24.9299  -20.8859   -9.8563 N   0  0  0  0  0  0  0  0  0  0  0  0
   25.7110  -20.0299  -11.9504 C   0  0  0  0  0  0  0  0  0  0  0  0
   26.1425  -19.0112  -11.3840 O   0  0  0  0  0  0  0  0  0  0  0  0
   21.5255  -20.5654   -9.7884 C   0  0  0  0  0  0  0  0  0  0  0  0
   20.4605  -21.3503   -9.3834 C   0  0  0  0  0  0  0  0  0  0  0  0
   28.3506  -21.9077  -14.5015 C   0  0  0  0  0  0  0  0  0  0  0  0
   28.4747  -20.4825  -13.9899 C   0  0  2  0  0  0  0  0  0  0  0  0
   29.0397  -20.5942  -12.5919 C   0  0  0  0  0  0  0  0  0  0  0  0
   27.1328  -19.8343  -14.0924 C   0  0  2  0  0  0  0  0  0  0  0  0
   26.1996  -20.4516  -13.1829 N   0  0  0  0  0  0  0  0  0  0  0  0
   26.5689  -19.6641  -15.4218 C   0  0  0  0  0  0  0  0  0  0  0  0
   25.6004  -20.4178  -15.7750 O   0  0  0  0  0  0  0  0  0  0  0  0
   27.0005  -18.7196  -16.3770 N   0  0  0  0  0  0  0  0  0  0  0  0
   26.1561  -18.3535  -17.5197 C   0  0  1  0  0  0  0  0  0  0  0  0
   25.0428  -17.4457  -17.0545 C   0  0  0  0  0  0  0  0  0  0  0  0
   24.1766  -16.9530  -18.1384 C   0  0  0  0  0  0  0  0  0  0  0  0
   23.8888  -17.7299  -19.0987 O   0  0  0  0  0  0  0  0  0  0  0  0
   26.9928  -17.6632  -18.5126 C   0  0  0  0  0  0  0  0  0  0  0  0
   28.3244  -17.3720  -18.2598 O   0  0  0  0  0  0  0  0  0  0  0  0
   23.6303  -15.6825  -18.2108 O   0  0  0  0  0  0  0  0  0  0  0  0
   26.5108  -17.3249  -19.6114 O   0  0  0  0  0  0  0  0  0  0  0  0
  2  3  2  0
  2  1  1  0
  4  3  1  0
  5  4  2  0
  6  5  1  0
  7  6  1  0
  7  9  1  0
  7  8  1  1
  9 10  2  0
  9 17  1  0
 11  5  1  0
 11 12  2  0
 12  2  1  0
 14 13  1  1
 14 15  1  0
 16 14  1  0
 16 17  1  1
 18 16  1  0
 18 19  2  0
 20 18  1  0
 21 20  1  0
 21 25  1  0
 21 22  1  1
 23 24  2  0
 23 22  1  0
 25 26  1  0
 27 23  1  0
 28 25  2  0
M  END
$$$$
