YVD.pdb
     RDKit          3D

 28 28  0  0  1  0  0  0  0  0999 V2000
   12.7531  -22.1807   -2.0080 O   0  0  0  0  0  0  0  0  0  0  0  0
   13.4969  -23.0201   -1.1939 C   0  0  0  0  0  0  0  0  0  0  0  0
   14.1843  -22.5525   -0.1028 C   0  0  0  0  0  0  0  0  0  0  0  0
   14.9307  -23.3783    0.7188 C   0  0  0  0  0  0  0  0  0  0  0  0
   14.9577  -24.7250    0.3900 C   0  0  0  0  0  0  0  0  0  0  0  0
   15.7412  -25.6278    1.2424 C   0  0  0  0  0  0  0  0  0  0  0  0
   17.2153  -25.5382    0.8382 C   0  0  2  0  0  0  0  0  0  0  0  0
   17.3358  -26.1177   -0.4592 N   0  0  0  0  0  0  0  0  0  0  0  0
   18.0063  -26.3925    1.8219 C   0  0  0  0  0  0  0  0  0  0  0  0
   18.2809  -27.5560    1.4815 O   0  0  0  0  0  0  0  0  0  0  0  0
   14.2806  -25.2228   -0.6948 C   0  0  0  0  0  0  0  0  0  0  0  0
   13.5401  -24.3784   -1.5030 C   0  0  0  0  0  0  0  0  0  0  0  0
   20.2335  -24.3009    4.9554 C   0  0  0  0  0  0  0  0  0  0  0  0
   20.5454  -25.5130    4.0940 C   0  0  2  0  0  0  0  0  0  0  0  0
   21.0180  -24.9647    2.7666 C   0  0  0  0  0  0  0  0  0  0  0  0
   19.3229  -26.3697    4.0386 C   0  0  2  0  0  0  0  0  0  0  0  0
   18.3979  -25.8715    3.0511 N   0  0  0  0  0  0  0  0  0  0  0  0
   18.6638  -26.6817    5.2966 C   0  0  0  0  0  0  0  0  0  0  0  0
   17.3957  -26.5493    5.3704 O   0  0  0  0  0  0  0  0  0  0  0  0
   19.3101  -27.1305    6.4677 N   0  0  0  0  0  0  0  0  0  0  0  0
   18.5646  -27.3450    7.7130 C   0  0  1  0  0  0  0  0  0  0  0  0
   17.4481  -28.3319    7.4696 C   0  0  0  0  0  0  0  0  0  0  0  0
   16.6928  -28.6956    8.6800 C   0  0  0  0  0  0  0  0  0  0  0  0
   17.1810  -29.5535    9.4764 O   0  0  0  0  0  0  0  0  0  0  0  0
   19.4934  -27.8688    8.7256 C   0  0  0  0  0  0  0  0  0  0  0  0
   20.8078  -28.1773    8.4111 O   0  0  0  0  0  0  0  0  0  0  0  0
   15.4619  -28.1740    9.0418 O   0  0  0  0  0  0  0  0  0  0  0  0
   19.1076  -28.0457    9.8978 O   0  0  0  0  0  0  0  0  0  0  0  0
  2  3  2  0
  2  1  1  0
  4  3  1  0
  5  4  2  0
  6  5  1  0
  7  6  1  0
  7  9  1  0
  7  8  1  6
  9 10  2  0
  9 17  1  0
 11  5  1  0
 11 12  2  0
 12  2  1  0
 14 13  1  1
 14 15  1  0
 16 14  1  0
 16 17  1  6
 18 16  1  0
 18 19  2  0
 20 18  1  0
 21 20  1  0
 21 25  1  0
 21 22  1  6
 23 24  2  0
 23 22  1  0
 25 26  1  0
 27 23  1  0
 28 25  2  0
M  END
$$$$
