YVD.pdb
     RDKit          3D

 28 28  0  0  1  0  0  0  0  0999 V2000
   24.5912  -20.7274   -5.9086 O   0  0  0  0  0  0  0  0  0  0  0  0
   25.1792  -20.5758   -7.1544 C   0  0  0  0  0  0  0  0  0  0  0  0
   25.0434  -21.5186   -8.1415 C   0  0  0  0  0  0  0  0  0  0  0  0
   25.6243  -21.3812   -9.3895 C   0  0  0  0  0  0  0  0  0  0  0  0
   26.3646  -20.2295   -9.6088 C   0  0  0  0  0  0  0  0  0  0  0  0
   26.9942  -20.0538  -10.9234 C   0  0  0  0  0  0  0  0  0  0  0  0
   25.9073  -20.0744  -12.0016 C   0  0  2  0  0  0  0  0  0  0  0  0
   25.4787  -21.4268  -12.1466 N   0  0  0  0  0  0  0  0  0  0  0  0
   26.5579  -19.6335  -13.3076 C   0  0  0  0  0  0  0  0  0  0  0  0
   27.0675  -18.5004  -13.3422 O   0  0  0  0  0  0  0  0  0  0  0  0
   26.5187  -19.2684   -8.6415 C   0  0  0  0  0  0  0  0  0  0  0  0
   25.9286  -19.4268   -7.4001 C   0  0  0  0  0  0  0  0  0  0  0  0
   28.5228  -20.5715  -17.5884 C   0  0  0  0  0  0  0  0  0  0  0  0
   28.1912  -20.9161  -16.1463 C   0  0  2  0  0  0  0  0  0  0  0  0
   28.1691  -22.4263  -16.0780 C   0  0  0  0  0  0  0  0  0  0  0  0
   26.9097  -20.2363  -15.7896 C   0  0  2  0  0  0  0  0  0  0  0  0
   26.5711  -20.4823  -14.4099 N   0  0  0  0  0  0  0  0  0  0  0  0
   25.7740  -20.4369  -16.6752 C   0  0  0  0  0  0  0  0  0  0  0  0
   25.1587  -21.5552  -16.6348 O   0  0  0  0  0  0  0  0  0  0  0  0
   25.2761  -19.4874  -17.5924 N   0  0  0  0  0  0  0  0  0  0  0  0
   23.8342  -19.2703  -17.7546 C   0  0  1  0  0  0  0  0  0  0  0  0
   23.2205  -18.9342  -16.4167 C   0  0  0  0  0  0  0  0  0  0  0  0
   21.7847  -18.6137  -16.4775 C   0  0  0  0  0  0  0  0  0  0  0  0
   21.0441  -19.2537  -17.2839 O   0  0  0  0  0  0  0  0  0  0  0  0
   23.6353  -18.1597  -18.6978 C   0  0  0  0  0  0  0  0  0  0  0  0
   24.7091  -17.4971  -19.2721 O   0  0  0  0  0  0  0  0  0  0  0  0
   21.1473  -17.6495  -15.7145 O   0  0  0  0  0  0  0  0  0  0  0  0
   22.4828  -17.7925  -18.9992 O   0  0  0  0  0  0  0  0  0  0  0  0
  2  3  2  0
  2  1  1  0
  4  3  1  0
  5  4  2  0
  6  5  1  0
  7  6  1  0
  7  9  1  0
  7  8  1  6
  9 10  2  0
  9 17  1  0
 11  5  1  0
 11 12  2  0
 12  2  1  0
 14 13  1  6
 14 15  1  0
 16 14  1  0
 16 17  1  1
 18 16  1  0
 18 19  2  0
 20 18  1  0
 21 20  1  0
 21 25  1  0
 21 22  1  1
 23 24  2  0
 23 22  1  0
 25 26  1  0
 27 23  1  0
 28 25  2  0
M  END
$$$$
