YVD.pdb
     RDKit          3D

 28 28  0  0  1  0  0  0  0  0999 V2000
   11.1938   -4.9476   -7.1553 O   0  0  0  0  0  0  0  0  0  0  0  0
   12.3462   -5.6051   -7.5557 C   0  0  0  0  0  0  0  0  0  0  0  0
   13.3782   -4.9494   -8.1775 C   0  0  0  0  0  0  0  0  0  0  0  0
   14.5342   -5.5922   -8.5828 C   0  0  0  0  0  0  0  0  0  0  0  0
   14.6113   -6.9535   -8.3308 C   0  0  0  0  0  0  0  0  0  0  0  0
   15.8255   -7.6650   -8.7488 C   0  0  0  0  0  0  0  0  0  0  0  0
   15.5508   -8.3802  -10.0744 C   0  0  2  0  0  0  0  0  0  0  0  0
   14.9237   -9.6229   -9.7644 N   0  0  0  0  0  0  0  0  0  0  0  0
   16.9009   -8.6707  -10.7194 C   0  0  0  0  0  0  0  0  0  0  0  0
   17.6394   -9.4989  -10.1594 O   0  0  0  0  0  0  0  0  0  0  0  0
   13.5959   -7.6372   -7.7107 C   0  0  0  0  0  0  0  0  0  0  0  0
   12.4483   -6.9739   -7.3138 C   0  0  0  0  0  0  0  0  0  0  0  0
   17.1186   -8.6444  -14.7085 C   0  0  0  0  0  0  0  0  0  0  0  0
   18.2115   -9.1747  -13.7960 C   0  0  2  0  0  0  0  0  0  0  0  0
   17.7342  -10.5302  -13.3259 C   0  0  0  0  0  0  0  0  0  0  0  0
   18.4474   -8.1660  -12.7197 C   0  0  2  0  0  0  0  0  0  0  0  0
   17.2754   -8.0227  -11.8922 N   0  0  0  0  0  0  0  0  0  0  0  0
   18.9987   -6.8796  -13.1141 C   0  0  0  0  0  0  0  0  0  0  0  0
   18.2038   -5.8882  -13.2414 O   0  0  0  0  0  0  0  0  0  0  0  0
   20.3614   -6.6194  -13.3710 N   0  0  0  0  0  0  0  0  0  0  0  0
   20.8027   -5.3198  -13.8897 C   0  0  1  0  0  0  0  0  0  0  0  0
   22.3030   -5.2081  -13.7615 C   0  0  0  0  0  0  0  0  0  0  0  0
   22.8476   -3.9087  -14.1890 C   0  0  0  0  0  0  0  0  0  0  0  0
   23.8609   -3.8859  -14.9514 O   0  0  0  0  0  0  0  0  0  0  0  0
   20.4055   -5.2248  -15.3024 C   0  0  0  0  0  0  0  0  0  0  0  0
   19.7964   -4.0866  -15.8077 O   0  0  0  0  0  0  0  0  0  0  0  0
   22.3430   -2.6712  -13.8255 O   0  0  0  0  0  0  0  0  0  0  0  0
   20.6132   -6.1791  -16.0772 O   0  0  0  0  0  0  0  0  0  0  0  0
  2  3  2  0
  2  1  1  0
  4  3  1  0
  5  4  2  0
  6  5  1  0
  7  6  1  0
  7  9  1  0
  7  8  1  1
  9 10  2  0
  9 17  1  0
 11  5  1  0
 11 12  2  0
 12  2  1  0
 14 13  1  6
 14 15  1  0
 16 14  1  0
 16 17  1  6
 18 16  1  0
 18 19  2  0
 20 18  1  0
 21 20  1  0
 21 25  1  0
 21 22  1  6
 23 24  2  0
 23 22  1  0
 25 26  1  0
 27 23  1  0
 28 25  2  0
M  END
$$$$
