YVD.pdb
     RDKit          3D

 28 28  0  0  1  0  0  0  0  0999 V2000
   17.8317  -24.8989  -11.1794 O   0  0  0  0  0  0  0  0  0  0  0  0
   18.7160  -23.9449  -11.6575 C   0  0  0  0  0  0  0  0  0  0  0  0
   18.6159  -22.6219  -11.3090 C   0  0  0  0  0  0  0  0  0  0  0  0
   19.4910  -21.6585  -11.7782 C   0  0  0  0  0  0  0  0  0  0  0  0
   20.4942  -22.0908  -12.6321 C   0  0  0  0  0  0  0  0  0  0  0  0
   21.4392  -21.0925  -13.1475 C   0  0  0  0  0  0  0  0  0  0  0  0
   22.8553  -21.4759  -12.7093 C   0  0  2  0  0  0  0  0  0  0  0  0
   22.8936  -21.4027  -11.2856 N   0  0  0  0  0  0  0  0  0  0  0  0
   23.8029  -20.4223  -13.2707 C   0  0  0  0  0  0  0  0  0  0  0  0
   23.9320  -19.3652  -12.6298 O   0  0  0  0  0  0  0  0  0  0  0  0
   20.6203  -23.4071  -12.9989 C   0  0  0  0  0  0  0  0  0  0  0  0
   19.7336  -24.3539  -12.5175 C   0  0  0  0  0  0  0  0  0  0  0  0
   26.6192  -21.7447  -16.1194 C   0  0  0  0  0  0  0  0  0  0  0  0
   26.7614  -20.4996  -15.2604 C   0  0  2  0  0  0  0  0  0  0  0  0
   27.3300  -20.9716  -13.9414 C   0  0  0  0  0  0  0  0  0  0  0  0
   25.4266  -19.8331  -15.1848 C   0  0  2  0  0  0  0  0  0  0  0  0
   24.4896  -20.6536  -14.4584 N   0  0  0  0  0  0  0  0  0  0  0  0
   24.8602  -19.3218  -16.4226 C   0  0  0  0  0  0  0  0  0  0  0  0
   24.0024  -20.0366  -17.0423 O   0  0  0  0  0  0  0  0  0  0  0  0
   25.1754  -18.0796  -17.0129 N   0  0  0  0  0  0  0  0  0  0  0  0
   24.2359  -17.4073  -17.9172 C   0  0  1  0  0  0  0  0  0  0  0  0
   22.9289  -17.1675  -17.2002 C   0  0  0  0  0  0  0  0  0  0  0  0
   21.9066  -16.4981  -18.0218 C   0  0  0  0  0  0  0  0  0  0  0  0
   21.8646  -15.2307  -18.0414 O   0  0  0  0  0  0  0  0  0  0  0  0
   24.8283  -16.1276  -18.3343 C   0  0  0  0  0  0  0  0  0  0  0  0
   26.0853  -15.7365  -17.8997 O   0  0  0  0  0  0  0  0  0  0  0  0
   20.9573  -17.1415  -18.7983 O   0  0  0  0  0  0  0  0  0  0  0  0
   24.2008  -15.3651  -19.0952 O   0  0  0  0  0  0  0  0  0  0  0  0
  2  3  2  0
  2  1  1  0
  4  3  1  0
  5  4  2  0
  6  5  1  0
  7  6  1  0
  7  9  1  0
  7  8  1  1
  9 10  2  0
  9 17  1  0
 11  5  1  0
 11 12  2  0
 12  2  1  0
 14 13  1  6
 14 15  1  0
 16 14  1  0
 16 17  1  6
 18 16  1  0
 18 19  2  0
 20 18  1  0
 21 20  1  0
 21 25  1  0
 21 22  1  1
 23 24  2  0
 23 22  1  0
 25 26  1  0
 27 23  1  0
 28 25  2  0
M  END
$$$$
