YVD.pdb
     RDKit          3D

 28 28  0  0  1  0  0  0  0  0999 V2000
   15.2650  -10.9500  -22.3677 O   0  0  0  0  0  0  0  0  0  0  0  0
   15.8436  -10.5056  -21.1893 C   0  0  0  0  0  0  0  0  0  0  0  0
   17.1708  -10.7103  -20.9092 C   0  0  0  0  0  0  0  0  0  0  0  0
   17.7621  -10.2727  -19.7376 C   0  0  0  0  0  0  0  0  0  0  0  0
   16.9445   -9.6051  -18.8385 C   0  0  0  0  0  0  0  0  0  0  0  0
   17.5421   -9.1280  -17.5852 C   0  0  0  0  0  0  0  0  0  0  0  0
   18.0870  -10.3282  -16.8061 C   0  0  2  0  0  0  0  0  0  0  0  0
   16.9674  -11.1027  -16.3817 N   0  0  0  0  0  0  0  0  0  0  0  0
   18.7907   -9.7822  -15.5692 C   0  0  0  0  0  0  0  0  0  0  0  0
   18.0872   -9.5058  -14.5824 O   0  0  0  0  0  0  0  0  0  0  0  0
   15.6136   -9.3851  -19.0901 C   0  0  0  0  0  0  0  0  0  0  0  0
   15.0430   -9.8317  -20.2689 C   0  0  0  0  0  0  0  0  0  0  0  0
   23.2044   -9.4110  -13.4008 C   0  0  0  0  0  0  0  0  0  0  0  0
   22.3393   -9.9081  -14.5466 C   0  0  2  0  0  0  0  0  0  0  0  0
   23.1794   -9.7540  -15.7942 C   0  0  0  0  0  0  0  0  0  0  0  0
   21.0607   -9.1357  -14.5316 C   0  0  2  0  0  0  0  0  0  0  0  0
   20.1708   -9.6065  -15.5637 N   0  0  0  0  0  0  0  0  0  0  0  0
   21.1528   -7.6848  -14.5093 C   0  0  0  0  0  0  0  0  0  0  0  0
   21.6944   -7.1231  -13.4983 O   0  0  0  0  0  0  0  0  0  0  0  0
   20.6920   -6.8217  -15.5258 N   0  0  0  0  0  0  0  0  0  0  0  0
   20.8109   -5.3649  -15.3983 C   0  0  1  0  0  0  0  0  0  0  0  0
   19.5162   -4.7971  -14.8680 C   0  0  0  0  0  0  0  0  0  0  0  0
   19.5477   -3.3434  -14.6363 C   0  0  0  0  0  0  0  0  0  0  0  0
   19.5813   -2.5610  -15.6339 O   0  0  0  0  0  0  0  0  0  0  0  0
   21.9128   -5.0687  -14.4706 C   0  0  0  0  0  0  0  0  0  0  0  0
   22.1999   -3.7701  -14.0793 O   0  0  0  0  0  0  0  0  0  0  0  0
   19.5447   -2.7311  -13.3941 O   0  0  0  0  0  0  0  0  0  0  0  0
   22.6148   -5.9932  -14.0161 O   0  0  0  0  0  0  0  0  0  0  0  0
  2  3  2  0
  2  1  1  0
  4  3  1  0
  5  4  2  0
  6  5  1  0
  7  6  1  0
  7  9  1  0
  7  8  1  1
  9 10  2  0
  9 17  1  0
 11  5  1  0
 11 12  2  0
 12  2  1  0
 14 13  1  1
 14 15  1  0
 16 14  1  0
 16 17  1  6
 18 16  1  0
 18 19  2  0
 20 18  1  0
 21 20  1  0
 21 25  1  0
 21 22  1  1
 23 24  2  0
 23 22  1  0
 25 26  1  0
 27 23  1  0
 28 25  2  0
M  END
$$$$
