YVD.pdb
     RDKit          3D

 28 28  0  0  1  0  0  0  0  0999 V2000
   20.1792  -13.0483  -19.2352 O   0  0  0  0  0  0  0  0  0  0  0  0
   20.8040  -14.2110  -18.8127 C   0  0  0  0  0  0  0  0  0  0  0  0
   21.2690  -15.1492  -19.6988 C   0  0  0  0  0  0  0  0  0  0  0  0
   21.8945  -16.3142  -19.2920 C   0  0  0  0  0  0  0  0  0  0  0  0
   22.0364  -16.5008  -17.9254 C   0  0  0  0  0  0  0  0  0  0  0  0
   22.6960  -17.7275  -17.4613 C   0  0  0  0  0  0  0  0  0  0  0  0
   24.2130  -17.5394  -17.5485 C   0  0  2  0  0  0  0  0  0  0  0  0
   24.5840  -17.7084  -18.9150 N   0  0  0  0  0  0  0  0  0  0  0  0
   24.8545  -18.6570  -16.7343 C   0  0  0  0  0  0  0  0  0  0  0  0
   24.7946  -19.8103  -17.1938 O   0  0  0  0  0  0  0  0  0  0  0  0
   21.5818  -15.5808  -17.0144 C   0  0  0  0  0  0  0  0  0  0  0  0
   20.9589  -14.4223  -17.4439 C   0  0  0  0  0  0  0  0  0  0  0  0
   28.3743  -18.6963  -15.4692 C   0  0  0  0  0  0  0  0  0  0  0  0
   27.4968  -18.6673  -14.2292 C   0  0  2  0  0  0  0  0  0  0  0  0
   28.2617  -19.4216  -13.1653 C   0  0  0  0  0  0  0  0  0  0  0  0
   26.1641  -19.2372  -14.5905 C   0  0  2  0  0  0  0  0  0  0  0  0
   25.4797  -18.3769  -15.5234 N   0  0  0  0  0  0  0  0  0  0  0  0
   25.2981  -19.6622  -13.5025 C   0  0  0  0  0  0  0  0  0  0  0  0
   24.7287  -18.7677  -12.7907 O   0  0  0  0  0  0  0  0  0  0  0  0
   25.0201  -21.0013  -13.1555 N   0  0  0  0  0  0  0  0  0  0  0  0
   24.1705  -21.3280  -12.0048 C   0  0  1  0  0  0  0  0  0  0  0  0
   23.3852  -22.5839  -12.2974 C   0  0  0  0  0  0  0  0  0  0  0  0
   22.2003  -22.3682  -13.1444 C   0  0  0  0  0  0  0  0  0  0  0  0
   21.8641  -21.1825  -13.4434 O   0  0  0  0  0  0  0  0  0  0  0  0
   25.0349  -21.5312  -10.8326 C   0  0  0  0  0  0  0  0  0  0  0  0
   24.6527  -21.1066   -9.5695 O   0  0  0  0  0  0  0  0  0  0  0  0
   21.3933  -23.3684  -13.6607 O   0  0  0  0  0  0  0  0  0  0  0  0
   26.1391  -22.0960  -10.9588 O   0  0  0  0  0  0  0  0  0  0  0  0
  2  3  2  0
  2  1  1  0
  4  3  1  0
  5  4  2  0
  6  5  1  0
  7  6  1  0
  7  9  1  0
  7  8  1  6
  9 10  2  0
  9 17  1  0
 11  5  1  0
 11 12  2  0
 12  2  1  0
 14 13  1  6
 14 15  1  0
 16 14  1  0
 16 17  1  1
 18 16  1  0
 18 19  2  0
 20 18  1  0
 21 20  1  0
 21 25  1  0
 21 22  1  6
 23 24  2  0
 23 22  1  0
 25 26  1  0
 27 23  1  0
 28 25  2  0
M  END
$$$$
