YVD.pdb
     RDKit          3D

 28 28  0  0  1  0  0  0  0  0999 V2000
   28.8713  -20.0994   -3.4520 O   0  0  0  0  0  0  0  0  0  0  0  0
   28.2931  -19.9416   -4.7016 C   0  0  0  0  0  0  0  0  0  0  0  0
   27.1484  -20.6060   -5.0618 C   0  0  0  0  0  0  0  0  0  0  0  0
   26.5599  -20.4585   -6.3052 C   0  0  0  0  0  0  0  0  0  0  0  0
   27.1850  -19.5949   -7.1918 C   0  0  0  0  0  0  0  0  0  0  0  0
   26.5851  -19.4166   -8.5199 C   0  0  0  0  0  0  0  0  0  0  0  0
   26.8214  -20.6839   -9.3461 C   0  0  2  0  0  0  0  0  0  0  0  0
   28.2298  -20.9022   -9.3953 N   0  0  0  0  0  0  0  0  0  0  0  0
   26.3291  -20.3997  -10.7603 C   0  0  0  0  0  0  0  0  0  0  0  0
   26.7673  -19.3849  -11.3286 O   0  0  0  0  0  0  0  0  0  0  0  0
   28.3307  -18.9162   -6.8609 C   0  0  0  0  0  0  0  0  0  0  0  0
   28.9022  -19.0790   -5.6113 C   0  0  0  0  0  0  0  0  0  0  0  0
   24.5355  -22.2318  -14.8669 C   0  0  0  0  0  0  0  0  0  0  0  0
   25.2351  -22.3446  -13.5230 C   0  0  2  0  0  0  0  0  0  0  0  0
   24.8904  -23.7181  -12.9929 C   0  0  0  0  0  0  0  0  0  0  0  0
   24.7955  -21.1973  -12.6733 C   0  0  2  0  0  0  0  0  0  0  0  0
   25.4223  -21.2565  -11.3762 N   0  0  0  0  0  0  0  0  0  0  0  0
   23.3675  -20.9398  -12.5790 C   0  0  0  0  0  0  0  0  0  0  0  0
   22.6987  -21.5361  -11.6690 O   0  0  0  0  0  0  0  0  0  0  0  0
   22.6376  -20.0700  -13.4164 N   0  0  0  0  0  0  0  0  0  0  0  0
   21.1870  -19.9094  -13.2664 C   0  0  1  0  0  0  0  0  0  0  0  0
   20.8062  -18.4751  -13.5448 C   0  0  0  0  0  0  0  0  0  0  0  0
   19.3636  -18.2033  -13.4313 C   0  0  0  0  0  0  0  0  0  0  0  0
   18.6858  -18.8268  -12.5594 O   0  0  0  0  0  0  0  0  0  0  0  0
   20.5196  -20.8065  -14.2216 C   0  0  0  0  0  0  0  0  0  0  0  0
   19.4185  -21.5645  -13.8542 O   0  0  0  0  0  0  0  0  0  0  0  0
   18.6552  -17.3042  -14.2110 O   0  0  0  0  0  0  0  0  0  0  0  0
   20.9393  -20.8999  -15.3917 O   0  0  0  0  0  0  0  0  0  0  0  0
  2  3  2  0
  2  1  1  0
  4  3  1  0
  5  4  2  0
  6  5  1  0
  7  6  1  0
  7  9  1  0
  7  8  1  6
  9 10  2  0
  9 17  1  0
 11  5  1  0
 11 12  2  0
 12  2  1  0
 14 13  1  6
 14 15  1  0
 16 14  1  0
 16 17  1  1
 18 16  1  0
 18 19  2  0
 20 18  1  0
 21 20  1  0
 21 25  1  0
 21 22  1  6
 23 24  2  0
 23 22  1  0
 25 26  1  0
 27 23  1  0
 28 25  2  0
M  END
$$$$
