YVD.pdb
     RDKit          3D

 28 28  0  0  1  0  0  0  0  0999 V2000
   15.8237    3.5573    1.4279 O   0  0  0  0  0  0  0  0  0  0  0  0
   17.2010    3.5174    1.2792 C   0  0  0  0  0  0  0  0  0  0  0  0
   18.0512    3.9456    2.2668 C   0  0  0  0  0  0  0  0  0  0  0  0
   19.4278    3.9119    2.1327 C   0  0  0  0  0  0  0  0  0  0  0  0
   19.9253    3.4181    0.9363 C   0  0  0  0  0  0  0  0  0  0  0  0
   21.3824    3.3693    0.7628 C   0  0  0  0  0  0  0  0  0  0  0  0
   21.8927    2.0029    1.2284 C   0  0  2  0  0  0  0  0  0  0  0  0
   21.9010    2.0161    2.6543 N   0  0  0  0  0  0  0  0  0  0  0  0
   23.3303    1.8672    0.7404 C   0  0  0  0  0  0  0  0  0  0  0  0
   24.2003    2.5390    1.3206 O   0  0  0  0  0  0  0  0  0  0  0  0
   19.1006    2.9824   -0.0701 C   0  0  0  0  0  0  0  0  0  0  0  0
   17.7264    3.0254    0.0857 C   0  0  0  0  0  0  0  0  0  0  0  0
   24.2886   -1.5977   -1.2873 C   0  0  0  0  0  0  0  0  0  0  0  0
   25.3333   -0.6551   -0.7141 C   0  0  2  0  0  0  0  0  0  0  0  0
   25.4706   -1.0298    0.7442 C   0  0  0  0  0  0  0  0  0  0  0  0
   24.8895    0.7463   -0.9801 C   0  0  2  0  0  0  0  0  0  0  0  0
   23.6381    1.0173   -0.3172 N   0  0  0  0  0  0  0  0  0  0  0  0
   24.8851    1.1985   -2.3620 C   0  0  0  0  0  0  0  0  0  0  0  0
   23.7678    1.5014   -2.9015 O   0  0  0  0  0  0  0  0  0  0  0  0
   26.0270    1.3401   -3.1785 N   0  0  0  0  0  0  0  0  0  0  0  0
   25.9327    1.9161   -4.5246 C   0  0  1  0  0  0  0  0  0  0  0  0
   25.4754    3.3519   -4.4286 C   0  0  0  0  0  0  0  0  0  0  0  0
   25.4392    4.0588   -5.7197 C   0  0  0  0  0  0  0  0  0  0  0  0
   24.5692    4.9632   -5.9029 O   0  0  0  0  0  0  0  0  0  0  0  0
   27.2603    1.8471   -5.1531 C   0  0  0  0  0  0  0  0  0  0  0  0
   27.4156    1.9357   -6.5278 O   0  0  0  0  0  0  0  0  0  0  0  0
   26.2909    3.8216   -6.7857 O   0  0  0  0  0  0  0  0  0  0  0  0
   28.2799    1.7060   -4.4497 O   0  0  0  0  0  0  0  0  0  0  0  0
  2  3  2  0
  2  1  1  0
  4  3  1  0
  5  4  2  0
  6  5  1  0
  7  6  1  0
  7  9  1  0
  7  8  1  1
  9 10  2  0
  9 17  1  0
 11  5  1  0
 11 12  2  0
 12  2  1  0
 14 13  1  1
 14 15  1  0
 16 14  1  0
 16 17  1  6
 18 16  1  0
 18 19  2  0
 20 18  1  0
 21 20  1  0
 21 25  1  0
 21 22  1  1
 23 24  2  0
 23 22  1  0
 25 26  1  0
 27 23  1  0
 28 25  2  0
M  END
$$$$
