YVD.pdb
     RDKit          3D

 28 28  0  0  1  0  0  0  0  0999 V2000
   15.9133  -14.4853  -21.9931 O   0  0  0  0  0  0  0  0  0  0  0  0
   16.4801  -13.8361  -20.9078 C   0  0  0  0  0  0  0  0  0  0  0  0
   16.1778  -12.5337  -20.6012 C   0  0  0  0  0  0  0  0  0  0  0  0
   16.7356  -11.8726  -19.5214 C   0  0  0  0  0  0  0  0  0  0  0  0
   17.6306  -12.5925  -18.7447 C   0  0  0  0  0  0  0  0  0  0  0  0
   18.2401  -11.9191  -17.5912 C   0  0  0  0  0  0  0  0  0  0  0  0
   19.3218  -10.9579  -18.0915 C   0  0  2  0  0  0  0  0  0  0  0  0
   20.4084  -11.7508  -18.5649 N   0  0  0  0  0  0  0  0  0  0  0  0
   19.8018  -10.1527  -16.8895 C   0  0  0  0  0  0  0  0  0  0  0  0
   18.9473   -9.7862  -16.0647 O   0  0  0  0  0  0  0  0  0  0  0  0
   17.9530  -13.8963  -19.0258 C   0  0  0  0  0  0  0  0  0  0  0  0
   17.3830  -14.5379  -20.1111 C   0  0  0  0  0  0  0  0  0  0  0  0
   22.6690  -11.0270  -14.5999 C   0  0  0  0  0  0  0  0  0  0  0  0
   23.0767   -9.7346  -15.2868 C   0  0  2  0  0  0  0  0  0  0  0  0
   23.9019   -8.9725  -14.2748 C   0  0  0  0  0  0  0  0  0  0  0  0
   21.8361   -9.0469  -15.7555 C   0  0  2  0  0  0  0  0  0  0  0  0
   21.1511   -9.8491  -16.7384 N   0  0  0  0  0  0  0  0  0  0  0  0
   21.9537   -7.6579  -16.1693 C   0  0  0  0  0  0  0  0  0  0  0  0
   22.2964   -7.4069  -17.3737 O   0  0  0  0  0  0  0  0  0  0  0  0
   21.7153   -6.5375  -15.3456 N   0  0  0  0  0  0  0  0  0  0  0  0
   21.7687   -5.1734  -15.8832 C   0  0  1  0  0  0  0  0  0  0  0  0
   20.7460   -5.0240  -16.9838 C   0  0  0  0  0  0  0  0  0  0  0  0
   20.5801   -3.6430  -17.4668 C   0  0  0  0  0  0  0  0  0  0  0  0
   21.4605   -3.1485  -18.2341 O   0  0  0  0  0  0  0  0  0  0  0  0
   21.4800   -4.2323  -14.7907 C   0  0  0  0  0  0  0  0  0  0  0  0
   21.7751   -2.8824  -14.9016 O   0  0  0  0  0  0  0  0  0  0  0  0
   19.5215   -2.8072  -17.1520 O   0  0  0  0  0  0  0  0  0  0  0  0
   20.9584   -4.6398  -13.7342 O   0  0  0  0  0  0  0  0  0  0  0  0
  2  3  2  0
  2  1  1  0
  4  3  1  0
  5  4  2  0
  6  5  1  0
  7  6  1  0
  7  9  1  0
  7  8  1  1
  9 10  2  0
  9 17  1  0
 11  5  1  0
 11 12  2  0
 12  2  1  0
 14 13  1  1
 14 15  1  0
 16 14  1  0
 16 17  1  6
 18 16  1  0
 18 19  2  0
 20 18  1  0
 21 20  1  0
 21 25  1  0
 21 22  1  6
 23 24  2  0
 23 22  1  0
 25 26  1  0
 27 23  1  0
 28 25  2  0
M  END
$$$$
