YVD.pdb
     RDKit          3D

 28 28  0  0  1  0  0  0  0  0999 V2000
   15.8291  -14.3243  -21.4375 O   0  0  0  0  0  0  0  0  0  0  0  0
   16.3567  -13.6100  -20.3735 C   0  0  0  0  0  0  0  0  0  0  0  0
   15.9360  -13.8112  -19.0835 C   0  0  0  0  0  0  0  0  0  0  0  0
   16.4532  -13.1059  -18.0115 C   0  0  0  0  0  0  0  0  0  0  0  0
   17.4339  -12.1684  -18.2973 C   0  0  0  0  0  0  0  0  0  0  0  0
   18.0031  -11.4031  -17.1812 C   0  0  0  0  0  0  0  0  0  0  0  0
   19.3754  -11.9839  -16.8292 C   0  0  2  0  0  0  0  0  0  0  0  0
   19.1596  -13.2865  -16.2905 N   0  0  0  0  0  0  0  0  0  0  0  0
   19.9715  -11.1043  -15.7364 C   0  0  0  0  0  0  0  0  0  0  0  0
   19.4397  -11.1424  -14.6136 O   0  0  0  0  0  0  0  0  0  0  0  0
   17.8756  -11.9445  -19.5772 C   0  0  0  0  0  0  0  0  0  0  0  0
   17.3440  -12.6616  -20.6344 C   0  0  0  0  0  0  0  0  0  0  0  0
   23.8287   -9.6555  -16.5171 C   0  0  0  0  0  0  0  0  0  0  0  0
   23.2609   -9.8035  -15.1157 C   0  0  2  0  0  0  0  0  0  0  0  0
   23.5310  -11.2350  -14.7106 C   0  0  0  0  0  0  0  0  0  0  0  0
   21.8215   -9.4056  -15.1538 C   0  0  2  0  0  0  0  0  0  0  0  0
   21.0710  -10.2951  -16.0049 N   0  0  0  0  0  0  0  0  0  0  0  0
   21.5178   -8.0087  -15.4200 C   0  0  0  0  0  0  0  0  0  0  0  0
   20.8472   -7.7189  -16.4675 O   0  0  0  0  0  0  0  0  0  0  0  0
   21.9011   -6.9206  -14.6077 N   0  0  0  0  0  0  0  0  0  0  0  0
   21.5376   -5.5436  -14.9601 C   0  0  1  0  0  0  0  0  0  0  0  0
   20.0341   -5.4178  -15.0202 C   0  0  0  0  0  0  0  0  0  0  0  0
   19.5558   -4.0539  -15.3010 C   0  0  0  0  0  0  0  0  0  0  0  0
   20.3042   -3.2591  -15.9466 O   0  0  0  0  0  0  0  0  0  0  0  0
   22.0817   -4.6426  -13.9331 C   0  0  0  0  0  0  0  0  0  0  0  0
   22.7376   -5.1329  -12.8145 O   0  0  0  0  0  0  0  0  0  0  0  0
   18.3288   -3.5410  -14.9144 O   0  0  0  0  0  0  0  0  0  0  0  0
   21.9600   -3.4079  -14.0546 O   0  0  0  0  0  0  0  0  0  0  0  0
  2  3  2  0
  2  1  1  0
  4  3  1  0
  5  4  2  0
  6  5  1  0
  7  6  1  0
  7  9  1  0
  7  8  1  1
  9 10  2  0
  9 17  1  0
 11  5  1  0
 11 12  2  0
 12  2  1  0
 14 13  1  6
 14 15  1  0
 16 14  1  0
 16 17  1  6
 18 16  1  0
 18 19  2  0
 20 18  1  0
 21 20  1  0
 21 25  1  0
 21 22  1  1
 23 24  2  0
 23 22  1  0
 25 26  1  0
 27 23  1  0
 28 25  2  0
M  END
$$$$
