YVD.pdb
     RDKit          3D

 28 28  0  0  1  0  0  0  0  0999 V2000
   21.7373  -17.6633  -21.9129 O   0  0  0  0  0  0  0  0  0  0  0  0
   21.8978  -16.6031  -21.0349 C   0  0  0  0  0  0  0  0  0  0  0  0
   22.6294  -15.4906  -21.3650 C   0  0  0  0  0  0  0  0  0  0  0  0
   22.7983  -14.4248  -20.4993 C   0  0  0  0  0  0  0  0  0  0  0  0
   22.1868  -14.5265  -19.2590 C   0  0  0  0  0  0  0  0  0  0  0  0
   22.3472  -13.4118  -18.3172 C   0  0  0  0  0  0  0  0  0  0  0  0
   23.7736  -13.4325  -17.7610 C   0  0  2  0  0  0  0  0  0  0  0  0
   23.8932  -14.5938  -16.9420 N   0  0  0  0  0  0  0  0  0  0  0  0
   23.9316  -12.2016  -16.8761 C   0  0  0  0  0  0  0  0  0  0  0  0
   23.3152  -12.1864  -15.7969 O   0  0  0  0  0  0  0  0  0  0  0  0
   21.4488  -15.6262  -18.8997 C   0  0  0  0  0  0  0  0  0  0  0  0
   21.2930  -16.6808  -19.7817 C   0  0  0  0  0  0  0  0  0  0  0  0
   27.2215   -9.6851  -17.7547 C   0  0  0  0  0  0  0  0  0  0  0  0
   26.5455   -9.8032  -16.3992 C   0  0  2  0  0  0  0  0  0  0  0  0
   27.1844  -10.9947  -15.7224 C   0  0  0  0  0  0  0  0  0  0  0  0
   25.0719   -9.9031  -16.6228 C   0  0  2  0  0  0  0  0  0  0  0  0
   24.7406  -11.1437  -17.2786 N   0  0  0  0  0  0  0  0  0  0  0  0
   24.4072   -8.7654  -17.2378 C   0  0  0  0  0  0  0  0  0  0  0  0
   24.4566   -8.6432  -18.5081 O   0  0  0  0  0  0  0  0  0  0  0  0
   23.6941   -7.7640  -16.5453 N   0  0  0  0  0  0  0  0  0  0  0  0
   23.0583   -6.6513  -17.2597 C   0  0  1  0  0  0  0  0  0  0  0  0
   21.6076   -6.9803  -17.5181 C   0  0  0  0  0  0  0  0  0  0  0  0
   20.8494   -5.8926  -18.1583 C   0  0  0  0  0  0  0  0  0  0  0  0
   21.4776   -5.0036  -18.8090 O   0  0  0  0  0  0  0  0  0  0  0  0
   23.1646   -5.4440  -16.4269 C   0  0  0  0  0  0  0  0  0  0  0  0
   22.7259   -4.2102  -16.8819 O   0  0  0  0  0  0  0  0  0  0  0  0
   19.4732   -5.7437  -18.1152 O   0  0  0  0  0  0  0  0  0  0  0  0
   23.6574   -5.5128  -15.2838 O   0  0  0  0  0  0  0  0  0  0  0  0
  2  3  2  0
  2  1  1  0
  4  3  1  0
  5  4  2  0
  6  5  1  0
  7  6  1  0
  7  9  1  0
  7  8  1  1
  9 10  2  0
  9 17  1  0
 11  5  1  0
 11 12  2  0
 12  2  1  0
 14 13  1  6
 14 15  1  0
 16 14  1  0
 16 17  1  6
 18 16  1  0
 18 19  2  0
 20 18  1  0
 21 20  1  0
 21 25  1  0
 21 22  1  1
 23 24  2  0
 23 22  1  0
 25 26  1  0
 27 23  1  0
 28 25  2  0
M  END
$$$$
