YVD.pdb
     RDKit          3D

 28 28  0  0  1  0  0  0  0  0999 V2000
   19.6337  -23.6133   -7.8451 O   0  0  0  0  0  0  0  0  0  0  0  0
   20.5508  -22.7793   -8.4647 C   0  0  0  0  0  0  0  0  0  0  0  0
   20.8036  -22.8501   -9.8111 C   0  0  0  0  0  0  0  0  0  0  0  0
   21.7160  -22.0245  -10.4434 C   0  0  0  0  0  0  0  0  0  0  0  0
   22.3790  -21.1032   -9.6470 C   0  0  0  0  0  0  0  0  0  0  0  0
   23.3540  -20.2123  -10.2881 C   0  0  0  0  0  0  0  0  0  0  0  0
   24.6968  -20.9401  -10.3955 C   0  0  2  0  0  0  0  0  0  0  0  0
   25.2744  -20.9599   -9.0919 N   0  0  0  0  0  0  0  0  0  0  0  0
   25.5913  -20.1062  -11.3053 C   0  0  0  0  0  0  0  0  0  0  0  0
   26.0796  -19.0649  -10.8340 O   0  0  0  0  0  0  0  0  0  0  0  0
   22.1479  -21.0082   -8.2977 C   0  0  0  0  0  0  0  0  0  0  0  0
   21.2307  -21.8444   -7.6861 C   0  0  0  0  0  0  0  0  0  0  0  0
   28.6184  -19.7951  -14.9948 C   0  0  0  0  0  0  0  0  0  0  0  0
   27.8422  -20.5915  -13.9597 C   0  0  2  0  0  0  0  0  0  0  0  0
   27.6932  -21.9814  -14.5359 C   0  0  0  0  0  0  0  0  0  0  0  0
   26.5646  -19.8694  -13.6811 C   0  0  2  0  0  0  0  0  0  0  0  0
   25.8405  -20.5120  -12.6125 N   0  0  0  0  0  0  0  0  0  0  0  0
   25.7069  -19.5604  -14.8139 C   0  0  0  0  0  0  0  0  0  0  0  0
   24.8057  -20.4026  -15.1446 O   0  0  0  0  0  0  0  0  0  0  0  0
   25.7781  -18.3884  -15.5962 N   0  0  0  0  0  0  0  0  0  0  0  0
   24.8848  -18.1835  -16.7419 C   0  0  1  0  0  0  0  0  0  0  0  0
   24.1934  -16.8476  -16.6107 C   0  0  0  0  0  0  0  0  0  0  0  0
   23.3996  -16.4633  -17.7897 C   0  0  0  0  0  0  0  0  0  0  0  0
   23.2976  -17.2781  -18.7562 O   0  0  0  0  0  0  0  0  0  0  0  0
   25.6911  -18.2193  -17.9712 C   0  0  0  0  0  0  0  0  0  0  0  0
   25.2291  -18.8398  -19.1216 O   0  0  0  0  0  0  0  0  0  0  0  0
   22.7342  -15.2591  -17.9480 O   0  0  0  0  0  0  0  0  0  0  0  0
   26.8171  -17.6850  -17.9977 O   0  0  0  0  0  0  0  0  0  0  0  0
  2  3  2  0
  2  1  1  0
  4  3  1  0
  5  4  2  0
  6  5  1  0
  7  6  1  0
  7  9  1  0
  7  8  1  1
  9 10  2  0
  9 17  1  0
 11  5  1  0
 11 12  2  0
 12  2  1  0
 14 13  1  6
 14 15  1  0
 16 14  1  0
 16 17  1  1
 18 16  1  0
 18 19  2  0
 20 18  1  0
 21 20  1  0
 21 25  1  0
 21 22  1  1
 23 24  2  0
 23 22  1  0
 25 26  1  0
 27 23  1  0
 28 25  2  0
M  END
$$$$
