YVD.pdb
     RDKit          3D

 28 28  0  0  1  0  0  0  0  0999 V2000
   27.5467  -17.5391  -15.4914 O   0  0  0  0  0  0  0  0  0  0  0  0
   26.7573  -16.4519  -15.8312 C   0  0  0  0  0  0  0  0  0  0  0  0
   26.3006  -16.2570  -17.1099 C   0  0  0  0  0  0  0  0  0  0  0  0
   25.5120  -15.1768  -17.4640 C   0  0  0  0  0  0  0  0  0  0  0  0
   25.1944  -14.2800  -16.4553 C   0  0  0  0  0  0  0  0  0  0  0  0
   24.3589  -13.1227  -16.7988 C   0  0  0  0  0  0  0  0  0  0  0  0
   22.9299  -13.3797  -16.3128 C   0  0  2  0  0  0  0  0  0  0  0  0
   22.4596  -14.5507  -16.9770 N   0  0  0  0  0  0  0  0  0  0  0  0
   22.0799  -12.1973  -16.7631 C   0  0  0  0  0  0  0  0  0  0  0  0
   21.6198  -12.2265  -17.9174 O   0  0  0  0  0  0  0  0  0  0  0  0
   25.6360  -14.4478  -15.1669 C   0  0  0  0  0  0  0  0  0  0  0  0
   26.4238  -15.5358  -14.8353 C   0  0  0  0  0  0  0  0  0  0  0  0
   19.0021  -11.2718  -16.7846 C   0  0  0  0  0  0  0  0  0  0  0  0
   19.5470  -10.4155  -15.6541 C   0  0  2  0  0  0  0  0  0  0  0  0
   18.5620   -9.2810  -15.4846 C   0  0  0  0  0  0  0  0  0  0  0  0
   20.9406  -10.0109  -16.0087 C   0  0  2  0  0  0  0  0  0  0  0  0
   21.8388  -11.1335  -15.8995 N   0  0  0  0  0  0  0  0  0  0  0  0
   21.4764   -8.8184  -15.3720 C   0  0  0  0  0  0  0  0  0  0  0  0
   21.8874   -8.9030  -14.1659 O   0  0  0  0  0  0  0  0  0  0  0  0
   21.5897   -7.5497  -15.9788 N   0  0  0  0  0  0  0  0  0  0  0  0
   22.0558   -6.3832  -15.2208 C   0  0  1  0  0  0  0  0  0  0  0  0
   22.2523   -5.2168  -16.1593 C   0  0  0  0  0  0  0  0  0  0  0  0
   22.7395   -3.9924  -15.5025 C   0  0  0  0  0  0  0  0  0  0  0  0
   23.0222   -4.0268  -14.2666 O   0  0  0  0  0  0  0  0  0  0  0  0
   21.0431   -6.0539  -14.2067 C   0  0  0  0  0  0  0  0  0  0  0  0
   19.7114   -5.8720  -14.5464 O   0  0  0  0  0  0  0  0  0  0  0  0
   22.9233   -2.7693  -16.1257 O   0  0  0  0  0  0  0  0  0  0  0  0
   21.3712   -5.9316  -13.0103 O   0  0  0  0  0  0  0  0  0  0  0  0
  2  3  2  0
  2  1  1  0
  4  3  1  0
  5  4  2  0
  6  5  1  0
  7  6  1  0
  7  9  1  0
  7  8  1  6
  9 10  2  0
  9 17  1  0
 11  5  1  0
 11 12  2  0
 12  2  1  0
 14 13  1  6
 14 15  1  0
 16 14  1  0
 16 17  1  1
 18 16  1  0
 18 19  2  0
 20 18  1  0
 21 20  1  0
 21 25  1  0
 21 22  1  6
 23 24  2  0
 23 22  1  0
 25 26  1  0
 27 23  1  0
 28 25  2  0
M  END
$$$$
