HRK.pdb
     RDKit          3D

 31 31  0  0  1  0  0  0  0  0999 V2000
    9.5709  -13.3669   18.4079 N   0  0  0  0  0  0  0  0  0  0  0  0
   10.1674  -14.3316   19.2664 C   0  0  1  0  0  0  0  0  0  0  0  0
   11.5235  -13.8141   19.7043 C   0  0  0  0  0  0  0  0  0  0  0  0
   12.5407  -14.0048   18.6593 C   0  0  0  0  0  0  0  0  0  0  0  0
   12.3369  -14.5112   17.3975 C   0  0  0  0  0  0  0  0  0  0  0  0
   13.5080  -14.5158   16.7613 N   0  0  0  0  0  0  0  0  0  0  0  0
   14.4352  -14.0056   17.6262 C   0  0  0  0  0  0  0  0  0  0  0  0
   13.8536  -13.6859   18.7827 N   0  0  0  0  0  0  0  0  0  0  0  0
    9.3104  -14.5726   20.4496 C   0  0  0  0  0  0  0  0  0  0  0  0
    8.6319  -13.6180   20.8938 O   0  0  0  0  0  0  0  0  0  0  0  0
    5.9638  -20.9586   18.9827 N   0  0  0  0  0  0  0  0  0  0  0  0
    7.2326  -21.4548   19.3781 C   0  0  0  0  0  0  0  0  0  0  0  0
    7.6952  -22.6061   18.9635 N   0  0  0  0  0  0  0  0  0  0  0  0
    8.0524  -20.6768   20.2754 N   0  0  0  0  0  0  0  0  0  0  0  0
    7.5291  -19.4456   20.7372 C   0  0  0  0  0  0  0  0  0  0  0  0
    8.4095  -18.8112   21.8438 C   0  0  0  0  0  0  0  0  0  0  0  0
    7.7424  -17.5290   22.1426 C   0  0  0  0  0  0  0  0  0  0  0  0
    8.5352  -16.2680   22.1600 C   0  0  2  0  0  0  0  0  0  0  0  0
    9.2573  -15.8246   21.0603 N   0  0  0  0  0  0  0  0  0  0  0  0
    9.4190  -16.3383   23.3478 C   0  0  0  0  0  0  0  0  0  0  0  0
   10.6470  -16.6337   23.0689 O   0  0  0  0  0  0  0  0  0  0  0  0
    8.6863  -22.8302   19.2675 N   0  0  0  0  0  0  0  0  0  0  0  0
    9.0159  -16.1297   24.6538 C   0  0  2  0  0  0  0  0  0  0  0  0
    9.9814  -16.2998   25.8127 C   0  0  0  0  0  0  0  0  0  0  0  0
    9.5229  -15.3946   26.8769 C   0  0  0  0  0  0  0  0  0  0  0  0
   10.2254  -15.3232   28.1529 C   0  0  0  0  0  0  0  0  0  0  0  0
    9.7611  -14.3818   29.2193 C   0  0  0  0  0  0  0  0  0  0  0  0
   10.6739  -14.5096   30.4690 N   0  0  0  0  0  0  0  0  0  0  0  0
   10.2189  -13.4934   31.4074 C   0  0  0  0  0  0  0  0  0  0  0  0
    9.8599  -17.7684   26.0296 O   0  0  0  0  0  0  0  0  0  0  0  0
   10.8329  -18.5359   26.5968 O   0  0  0  0  0  0  0  0  0  0  0  0
  2  1  1  6
  2  9  1  0
  2  3  1  0
  3  4  1  0
  4  8  1  0
  4  5  2  0
  5  6  1  0
  7  6  1  0
  8  7  2  0
  9 10  2  0
 12 14  1  0
 12 11  1  0
 13 12  2  0
 15 16  1  0
 15 14  1  0
 16 17  1  0
 18 17  1  6
 19 18  1  0
 19  9  1  0
 20 18  1  0
 21 20  2  0
 22 20  1  0
 23 22  1  0
 24 25  1  0
 23 24  1  1
 25 26  1  0
 26 27  1  0
 27 28  1  0
 29 23  1  0
 29 30  1  0
 31 29  2  0
M  END
$$$$
