HRK.pdb
     RDKit          3D

 31 31  0  0  1  0  0  0  0  0999 V2000
    8.7412  -15.8391   17.5851 N   0  0  0  0  0  0  0  0  0  0  0  0
    9.2961  -16.5389   18.6923 C   0  0  1  0  0  0  0  0  0  0  0  0
   10.7965  -16.3212   18.6972 C   0  0  0  0  0  0  0  0  0  0  0  0
   11.4722  -17.1749   17.7082 C   0  0  0  0  0  0  0  0  0  0  0  0
   11.8377  -18.4900   17.8718 C   0  0  0  0  0  0  0  0  0  0  0  0
   12.4181  -18.8997   16.7442 N   0  0  0  0  0  0  0  0  0  0  0  0
   12.4054  -17.8408   15.8801 C   0  0  0  0  0  0  0  0  0  0  0  0
   11.8254  -16.7876   16.4569 N   0  0  0  0  0  0  0  0  0  0  0  0
    8.7087  -16.0508   19.9609 C   0  0  0  0  0  0  0  0  0  0  0  0
    8.3243  -14.8599   20.0159 O   0  0  0  0  0  0  0  0  0  0  0  0
    2.3734  -20.3388   22.6690 N   0  0  0  0  0  0  0  0  0  0  0  0
    2.2498  -19.6126   21.4566 C   0  0  0  0  0  0  0  0  0  0  0  0
    1.1954  -19.7063   20.6879 N   0  0  0  0  0  0  0  0  0  0  0  0
    3.3200  -18.7395   21.0383 N   0  0  0  0  0  0  0  0  0  0  0  0
    4.4577  -18.6526   21.8755 C   0  0  0  0  0  0  0  0  0  0  0  0
    5.4946  -17.6260   21.3530 C   0  0  0  0  0  0  0  0  0  0  0  0
    6.5611  -17.6414   22.3732 C   0  0  0  0  0  0  0  0  0  0  0  0
    7.7729  -16.7947   22.1906 C   0  0  2  0  0  0  0  0  0  0  0  0
    8.5865  -16.8871   21.0694 N   0  0  0  0  0  0  0  0  0  0  0  0
    8.5882  -16.9495   23.4187 C   0  0  0  0  0  0  0  0  0  0  0  0
    9.5326  -17.8269   23.3120 O   0  0  0  0  0  0  0  0  0  0  0  0
    1.2542  -19.1712   19.7740 N   0  0  0  0  0  0  0  0  0  0  0  0
    8.3910  -16.2556   24.5982 C   0  0  2  0  0  0  0  0  0  0  0  0
    9.2182  -16.5545   25.8354 C   0  0  0  0  0  0  0  0  0  0  0  0
    9.1311  -15.3650   26.6954 C   0  0  0  0  0  0  0  0  0  0  0  0
    9.7989  -15.3280   27.9914 C   0  0  0  0  0  0  0  0  0  0  0  0
    9.7519  -14.0899   28.8304 C   0  0  0  0  0  0  0  0  0  0  0  0
   10.4973  -14.3331   30.1708 N   0  0  0  0  0  0  0  0  0  0  0  0
   10.3893  -13.0916   30.9242 C   0  0  0  0  0  0  0  0  0  0  0  0
    8.5522  -17.8074   26.2883 O   0  0  0  0  0  0  0  0  0  0  0  0
    9.1757  -18.7818   27.0090 O   0  0  0  0  0  0  0  0  0  0  0  0
  2  1  1  6
  2  9  1  0
  2  3  1  0
  3  4  1  0
  4  8  1  0
  4  5  2  0
  5  6  1  0
  7  6  1  0
  8  7  2  0
  9 10  2  0
 12 14  1  0
 12 11  1  0
 13 12  2  0
 15 16  1  0
 15 14  1  0
 16 17  1  0
 18 17  1  6
 19 18  1  0
 19  9  1  0
 20 18  1  0
 21 20  2  0
 22 20  1  0
 23 22  1  0
 24 25  1  0
 23 24  1  6
 25 26  1  0
 26 27  1  0
 27 28  1  0
 29 23  1  0
 29 30  1  0
 31 29  2  0
M  END
$$$$
