HRK.pdb
     RDKit          3D

 31 31  0  0  1  0  0  0  0  0999 V2000
   10.1737  -15.5332   17.6331 N   0  0  0  0  0  0  0  0  0  0  0  0
   10.6682  -14.8085   18.7528 C   0  0  1  0  0  0  0  0  0  0  0  0
    9.5361  -14.6207   19.7436 C   0  0  0  0  0  0  0  0  0  0  0  0
    8.4623  -13.7828   19.1885 C   0  0  0  0  0  0  0  0  0  0  0  0
    8.3596  -13.3302   17.8945 C   0  0  0  0  0  0  0  0  0  0  0  0
    7.2430  -12.6089   17.7978 N   0  0  0  0  0  0  0  0  0  0  0  0
    6.6508  -12.6210   19.0295 C   0  0  0  0  0  0  0  0  0  0  0  0
    7.3836  -13.3391   19.8814 N   0  0  0  0  0  0  0  0  0  0  0  0
   11.7851  -15.5411   19.3919 C   0  0  0  0  0  0  0  0  0  0  0  0
   11.5072  -16.4604   20.1959 O   0  0  0  0  0  0  0  0  0  0  0  0
   15.9696  -14.6212   15.4269 N   0  0  0  0  0  0  0  0  0  0  0  0
   16.9093  -13.5608   15.4994 C   0  0  0  0  0  0  0  0  0  0  0  0
   17.2182  -12.8261   14.4620 N   0  0  0  0  0  0  0  0  0  0  0  0
   17.5621  -13.2736   16.7539 N   0  0  0  0  0  0  0  0  0  0  0  0
   17.2609  -14.1110   17.8543 C   0  0  0  0  0  0  0  0  0  0  0  0
   15.7379  -14.3540   18.0080 C   0  0  0  0  0  0  0  0  0  0  0  0
   15.6359  -15.2835   19.1499 C   0  0  0  0  0  0  0  0  0  0  0  0
   14.2972  -15.7482   19.6093 C   0  0  2  0  0  0  0  0  0  0  0  0
   13.1128  -15.2199   19.1138 N   0  0  0  0  0  0  0  0  0  0  0  0
   14.3045  -15.6676   21.0892 C   0  0  0  0  0  0  0  0  0  0  0  0
   14.3677  -14.4593   21.5466 O   0  0  0  0  0  0  0  0  0  0  0  0
   18.0030  -12.1301   14.6195 N   0  0  0  0  0  0  0  0  0  0  0  0
   14.2629  -16.7519   21.9461 C   0  0  2  0  0  0  0  0  0  0  0  0
   14.2558  -16.5654   23.4525 C   0  0  0  0  0  0  0  0  0  0  0  0
   13.4520  -17.6645   24.0073 C   0  0  0  0  0  0  0  0  0  0  0  0
   13.3603  -17.8714   25.4481 C   0  0  0  0  0  0  0  0  0  0  0  0
   12.6822  -19.0880   25.9950 C   0  0  0  0  0  0  0  0  0  0  0  0
   12.7445  -19.0734   27.5465 N   0  0  0  0  0  0  0  0  0  0  0  0
   12.0290  -20.2613   27.9908 C   0  0  0  0  0  0  0  0  0  0  0  0
   15.7223  -16.5574   23.7132 O   0  0  0  0  0  0  0  0  0  0  0  0
   16.6387  -17.1801   22.9195 O   0  0  0  0  0  0  0  0  0  0  0  0
  2  1  1  6
  2  9  1  0
  2  3  1  0
  3  4  1  0
  4  8  1  0
  4  5  2  0
  5  6  1  0
  7  6  1  0
  8  7  2  0
  9 10  2  0
 12 14  1  0
 12 11  1  0
 13 12  2  0
 15 16  1  0
 15 14  1  0
 16 17  1  0
 18 17  1  6
 19 18  1  0
 19  9  1  0
 20 18  1  0
 21 20  2  0
 22 20  1  0
 23 22  1  0
 24 25  1  0
 23 24  1  6
 25 26  1  0
 26 27  1  0
 27 28  1  0
 29 23  1  0
 29 30  1  0
 31 29  2  0
M  END
$$$$
