HRK.pdb
     RDKit          3D

 31 31  0  0  1  0  0  0  0  0999 V2000
   13.1187  -18.5678   14.0613 N   0  0  0  0  0  0  0  0  0  0  0  0
   12.3329  -19.1864   15.0729 C   0  0  1  0  0  0  0  0  0  0  0  0
   12.6345  -20.6722   15.0764 C   0  0  0  0  0  0  0  0  0  0  0  0
   12.0429  -21.3490   13.9122 C   0  0  0  0  0  0  0  0  0  0  0  0
   12.3484  -21.1270   12.5904 C   0  0  0  0  0  0  0  0  0  0  0  0
   11.5978  -21.9435   11.8512 N   0  0  0  0  0  0  0  0  0  0  0  0
   10.8332  -22.6759   12.7154 C   0  0  0  0  0  0  0  0  0  0  0  0
   11.1023  -22.3248   13.9734 N   0  0  0  0  0  0  0  0  0  0  0  0
   12.6420  -18.6031   16.3983 C   0  0  0  0  0  0  0  0  0  0  0  0
   13.8051  -18.1872   16.6056 O   0  0  0  0  0  0  0  0  0  0  0  0
    7.7242  -14.3429   20.3599 N   0  0  0  0  0  0  0  0  0  0  0  0
    8.0494  -14.0662   19.0070 C   0  0  0  0  0  0  0  0  0  0  0  0
    8.2613  -12.8510   18.5715 N   0  0  0  0  0  0  0  0  0  0  0  0
    8.1473  -15.1530   18.0625 N   0  0  0  0  0  0  0  0  0  0  0  0
    8.6957  -16.3731   18.5245 C   0  0  0  0  0  0  0  0  0  0  0  0
   10.0712  -16.1762   19.2112 C   0  0  0  0  0  0  0  0  0  0  0  0
   10.5572  -17.5505   19.4426 C   0  0  0  0  0  0  0  0  0  0  0  0
   11.7476  -18.0500   18.6994 C   0  0  2  0  0  0  0  0  0  0  0  0
   11.6709  -18.5188   17.3948 N   0  0  0  0  0  0  0  0  0  0  0  0
   12.3913  -19.0678   19.5634 C   0  0  0  0  0  0  0  0  0  0  0  0
   12.1021  -20.2864   19.2401 O   0  0  0  0  0  0  0  0  0  0  0  0
    8.4907  -12.7753   17.5387 N   0  0  0  0  0  0  0  0  0  0  0  0
   13.2206  -18.7933   20.6351 C   0  0  2  0  0  0  0  0  0  0  0  0
   14.2376  -19.8085   21.1241 C   0  0  0  0  0  0  0  0  0  0  0  0
   15.2245  -19.9665   20.0454 C   0  0  0  0  0  0  0  0  0  0  0  0
   16.3293  -20.9097   20.1741 C   0  0  0  0  0  0  0  0  0  0  0  0
   17.3102  -21.0812   19.0572 C   0  0  0  0  0  0  0  0  0  0  0  0
   18.4415  -22.0513   19.4937 N   0  0  0  0  0  0  0  0  0  0  0  0
   19.3484  -22.1512   18.3588 C   0  0  0  0  0  0  0  0  0  0  0  0
   14.6678  -19.1472   22.3875 O   0  0  0  0  0  0  0  0  0  0  0  0
   15.2051  -19.8124   23.4488 O   0  0  0  0  0  0  0  0  0  0  0  0
  2  1  1  6
  2  9  1  0
  2  3  1  0
  3  4  1  0
  4  8  1  0
  4  5  2  0
  5  6  1  0
  7  6  1  0
  8  7  2  0
  9 10  2  0
 12 14  1  0
 12 11  1  0
 13 12  2  0
 15 16  1  0
 15 14  1  0
 16 17  1  0
 18 17  1  1
 19 18  1  0
 19  9  1  0
 20 18  1  0
 21 20  2  0
 22 20  1  0
 23 22  1  0
 24 25  1  0
 23 24  1  6
 25 26  1  0
 26 27  1  0
 27 28  1  0
 29 23  1  0
 29 30  1  0
 31 29  2  0
M  END
$$$$
