HRK.pdb
     RDKit          3D

 31 31  0  0  1  0  0  0  0  0999 V2000
    8.9203  -16.2239   19.3262 N   0  0  0  0  0  0  0  0  0  0  0  0
    8.1924  -15.1171   19.8446 C   0  0  1  0  0  0  0  0  0  0  0  0
    7.0319  -14.8249   18.9138 C   0  0  0  0  0  0  0  0  0  0  0  0
    7.4958  -14.4279   17.5757 C   0  0  0  0  0  0  0  0  0  0  0  0
    8.7966  -14.4026   17.1316 C   0  0  0  0  0  0  0  0  0  0  0  0
    8.7913  -13.9902   15.8642 N   0  0  0  0  0  0  0  0  0  0  0  0
    7.4872  -13.7673   15.5215 C   0  0  0  0  0  0  0  0  0  0  0  0
    6.6905  -14.0373   16.5562 N   0  0  0  0  0  0  0  0  0  0  0  0
    7.6886  -15.4192   21.2038 C   0  0  0  0  0  0  0  0  0  0  0  0
    7.0421  -14.5317   21.8066 O   0  0  0  0  0  0  0  0  0  0  0  0
    7.3127  -19.2415   27.5291 N   0  0  0  0  0  0  0  0  0  0  0  0
    6.9998  -20.5478   27.0728 C   0  0  0  0  0  0  0  0  0  0  0  0
    6.0158  -21.2487   27.5748 N   0  0  0  0  0  0  0  0  0  0  0  0
    7.7902  -21.1424   26.0220 N   0  0  0  0  0  0  0  0  0  0  0  0
    7.7055  -20.5639   24.7332 C   0  0  0  0  0  0  0  0  0  0  0  0
    7.5024  -19.0284   24.7907 C   0  0  0  0  0  0  0  0  0  0  0  0
    7.6101  -18.5987   23.3828 C   0  0  0  0  0  0  0  0  0  0  0  0
    7.5428  -17.1499   23.0435 C   0  0  2  0  0  0  0  0  0  0  0  0
    7.9262  -16.6545   21.8044 N   0  0  0  0  0  0  0  0  0  0  0  0
    8.2626  -16.4278   24.1193 C   0  0  0  0  0  0  0  0  0  0  0  0
    9.5481  -16.4225   23.9758 O   0  0  0  0  0  0  0  0  0  0  0  0
    5.8435  -22.1846   27.1066 N   0  0  0  0  0  0  0  0  0  0  0  0
    7.6647  -15.8122   25.2033 C   0  0  2  0  0  0  0  0  0  0  0  0
    8.4643  -14.9378   26.1521 C   0  0  0  0  0  0  0  0  0  0  0  0
    7.5057  -14.0194   26.7844 C   0  0  0  0  0  0  0  0  0  0  0  0
    7.1678  -12.7448   26.1613 C   0  0  0  0  0  0  0  0  0  0  0  0
    6.1549  -11.8411   26.7908 C   0  0  0  0  0  0  0  0  0  0  0  0
    6.0707  -10.5095   25.9963 N   0  0  0  0  0  0  0  0  0  0  0  0
    5.1454   -9.6584   26.7310 C   0  0  0  0  0  0  0  0  0  0  0  0
    9.0979  -15.9911   26.9934 O   0  0  0  0  0  0  0  0  0  0  0  0
    8.7466  -17.3074   26.9556 O   0  0  0  0  0  0  0  0  0  0  0  0
  2  1  1  6
  2  9  1  0
  2  3  1  0
  3  4  1  0
  4  8  1  0
  4  5  2  0
  5  6  1  0
  7  6  1  0
  8  7  2  0
  9 10  2  0
 12 14  1  0
 12 11  1  0
 13 12  2  0
 15 16  1  0
 15 14  1  0
 16 17  1  0
 18 17  1  6
 19 18  1  0
 19  9  1  0
 20 18  1  0
 21 20  2  0
 22 20  1  0
 23 22  1  0
 24 25  1  0
 23 24  1  6
 25 26  1  0
 26 27  1  0
 27 28  1  0
 29 23  1  0
 29 30  1  0
 31 29  2  0
M  END
$$$$
