HRK.pdb
     RDKit          3D

 31 31  0  0  1  0  0  0  0  0999 V2000
    6.5761  -16.8014   20.1187 N   0  0  0  0  0  0  0  0  0  0  0  0
    7.9000  -16.3582   20.3915 C   0  0  1  0  0  0  0  0  0  0  0  0
    7.8251  -15.0018   21.0647 C   0  0  0  0  0  0  0  0  0  0  0  0
    7.9091  -13.9055   20.0879 C   0  0  0  0  0  0  0  0  0  0  0  0
    7.9764  -14.0276   18.7202 C   0  0  0  0  0  0  0  0  0  0  0  0
    8.0360  -12.8021   18.1996 N   0  0  0  0  0  0  0  0  0  0  0  0
    7.9983  -11.9214   19.2441 C   0  0  0  0  0  0  0  0  0  0  0  0
    7.9147  -12.5848   20.3979 N   0  0  0  0  0  0  0  0  0  0  0  0
    8.5985  -17.3230   21.2711 C   0  0  0  0  0  0  0  0  0  0  0  0
    7.9064  -18.0478   22.0227 O   0  0  0  0  0  0  0  0  0  0  0  0
   16.6184  -19.2669   22.0471 N   0  0  0  0  0  0  0  0  0  0  0  0
   16.2364  -20.6079   22.3084 C   0  0  0  0  0  0  0  0  0  0  0  0
   17.0141  -21.4473   22.9425 N   0  0  0  0  0  0  0  0  0  0  0  0
   14.9493  -21.0812   21.8590 N   0  0  0  0  0  0  0  0  0  0  0  0
   14.0729  -20.1360   21.2748 C   0  0  0  0  0  0  0  0  0  0  0  0
   12.8857  -19.7816   22.2060 C   0  0  0  0  0  0  0  0  0  0  0  0
   12.0846  -18.8244   21.4184 C   0  0  0  0  0  0  0  0  0  0  0  0
   10.8380  -18.2498   21.9968 C   0  0  2  0  0  0  0  0  0  0  0  0
    9.9887  -17.4256   21.2709 N   0  0  0  0  0  0  0  0  0  0  0  0
   11.2250  -17.5841   23.2633 C   0  0  0  0  0  0  0  0  0  0  0  0
   11.9838  -16.5495   23.0993 O   0  0  0  0  0  0  0  0  0  0  0  0
   16.6007  -22.4102   23.1059 N   0  0  0  0  0  0  0  0  0  0  0  0
   10.8485  -17.9976   24.5277 C   0  0  1  0  0  0  0  0  0  0  0  0
   11.3915  -17.3193   25.7723 C   0  0  0  0  0  0  0  0  0  0  0  0
   10.2933  -16.5108   26.3223 C   0  0  0  0  0  0  0  0  0  0  0  0
   10.5336  -15.5534   27.3958 C   0  0  0  0  0  0  0  0  0  0  0  0
    9.4277  -14.6705   27.8823 C   0  0  0  0  0  0  0  0  0  0  0  0
    9.9710  -13.6884   28.9555 N   0  0  0  0  0  0  0  0  0  0  0  0
    8.8636  -12.8048   29.2921 C   0  0  0  0  0  0  0  0  0  0  0  0
   11.8427  -18.5159   26.5361 O   0  0  0  0  0  0  0  0  0  0  0  0
   12.7274  -18.4673   27.5716 O   0  0  0  0  0  0  0  0  0  0  0  0
  2  1  1  1
  2  9  1  0
  2  3  1  0
  3  4  1  0
  4  8  1  0
  4  5  2  0
  5  6  1  0
  7  6  1  0
  8  7  2  0
  9 10  2  0
 12 14  1  0
 12 11  1  0
 13 12  2  0
 15 16  1  0
 15 14  1  0
 16 17  1  0
 18 17  1  6
 19 18  1  0
 19  9  1  0
 20 18  1  0
 21 20  2  0
 22 20  1  0
 23 22  1  0
 24 25  1  0
 23 24  1  1
 25 26  1  0
 26 27  1  0
 27 28  1  0
 29 23  1  0
 29 30  1  0
 31 29  2  0
M  END
$$$$
