HRK.pdb
     RDKit          3D

 31 31  0  0  1  0  0  0  0  0999 V2000
   10.5472  -15.1427   17.7467 N   0  0  0  0  0  0  0  0  0  0  0  0
   11.1116  -15.4236   19.0219 C   0  0  1  0  0  0  0  0  0  0  0  0
   11.8946  -14.2090   19.4805 C   0  0  0  0  0  0  0  0  0  0  0  0
   13.3346  -14.3626   19.2237 C   0  0  0  0  0  0  0  0  0  0  0  0
   13.9560  -15.4490   18.6547 C   0  0  0  0  0  0  0  0  0  0  0  0
   15.2624  -15.1917   18.5946 N   0  0  0  0  0  0  0  0  0  0  0  0
   15.4489  -13.9436   19.1194 C   0  0  0  0  0  0  0  0  0  0  0  0
   14.2791  -13.4286   19.4995 N   0  0  0  0  0  0  0  0  0  0  0  0
   10.0472  -15.7401   20.0013 C   0  0  0  0  0  0  0  0  0  0  0  0
    8.9938  -15.0629   19.9707 O   0  0  0  0  0  0  0  0  0  0  0  0
    6.7112  -20.4943   25.6609 N   0  0  0  0  0  0  0  0  0  0  0  0
    8.0375  -20.6246   26.1474 C   0  0  0  0  0  0  0  0  0  0  0  0
    8.3154  -20.6553   27.4254 N   0  0  0  0  0  0  0  0  0  0  0  0
    9.1319  -20.7211   25.2117 N   0  0  0  0  0  0  0  0  0  0  0  0
    8.8510  -20.4649   23.8485 C   0  0  0  0  0  0  0  0  0  0  0  0
    8.5072  -18.9760   23.5893 C   0  0  0  0  0  0  0  0  0  0  0  0
    9.4202  -18.5810   22.4990 C   0  0  0  0  0  0  0  0  0  0  0  0
    9.3726  -17.1934   21.9593 C   0  0  2  0  0  0  0  0  0  0  0  0
   10.2069  -16.7606   20.9374 N   0  0  0  0  0  0  0  0  0  0  0  0
    9.4854  -16.2813   23.1221 C   0  0  0  0  0  0  0  0  0  0  0  0
   10.6999  -16.0999   23.5284 O   0  0  0  0  0  0  0  0  0  0  0  0
    9.3457  -20.7430   27.6611 N   0  0  0  0  0  0  0  0  0  0  0  0
    8.4227  -15.6669   23.7583 C   0  0  2  0  0  0  0  0  0  0  0  0
    8.6391  -14.7630   24.9584 C   0  0  0  0  0  0  0  0  0  0  0  0
    7.4531  -13.8988   25.0519 C   0  0  0  0  0  0  0  0  0  0  0  0
    7.3441  -12.8881   26.0975 C   0  0  0  0  0  0  0  0  0  0  0  0
    6.1315  -12.0154   26.1812 C   0  0  0  0  0  0  0  0  0  0  0  0
    6.2885  -11.0059   27.3507 N   0  0  0  0  0  0  0  0  0  0  0  0
    5.0567  -10.2299   27.3828 C   0  0  0  0  0  0  0  0  0  0  0  0
    8.8521  -15.7916   26.0145 O   0  0  0  0  0  0  0  0  0  0  0  0
    9.7200  -15.6442   27.0549 O   0  0  0  0  0  0  0  0  0  0  0  0
  2  1  1  6
  2  9  1  0
  2  3  1  0
  3  4  1  0
  4  8  1  0
  4  5  2  0
  5  6  1  0
  7  6  1  0
  8  7  2  0
  9 10  2  0
 12 14  1  0
 12 11  1  0
 13 12  2  0
 15 16  1  0
 15 14  1  0
 16 17  1  0
 18 17  1  1
 19 18  1  0
 19  9  1  0
 20 18  1  0
 21 20  2  0
 22 20  1  0
 23 22  1  0
 24 25  1  0
 23 24  1  6
 25 26  1  0
 26 27  1  0
 27 28  1  0
 29 23  1  0
 29 30  1  0
 31 29  2  0
M  END
$$$$
