HRK.pdb
     RDKit          3D

 31 31  0  0  1  0  0  0  0  0999 V2000
    8.0858  -17.0190   19.0697 N   0  0  0  0  0  0  0  0  0  0  0  0
    8.4347  -16.0852   20.0846 C   0  0  1  0  0  0  0  0  0  0  0  0
    7.5549  -14.8596   19.9350 C   0  0  0  0  0  0  0  0  0  0  0  0
    7.8178  -14.1535   18.6718 C   0  0  0  0  0  0  0  0  0  0  0  0
    8.3772  -12.9058   18.5294 C   0  0  0  0  0  0  0  0  0  0  0  0
    8.4475  -12.6319   17.2270 N   0  0  0  0  0  0  0  0  0  0  0  0
    7.9385  -13.7126   16.5629 C   0  0  0  0  0  0  0  0  0  0  0  0
    7.5581  -14.6469   17.4350 N   0  0  0  0  0  0  0  0  0  0  0  0
    8.2469  -16.6835   21.4259 C   0  0  0  0  0  0  0  0  0  0  0  0
    7.0850  -16.9887   21.7808 O   0  0  0  0  0  0  0  0  0  0  0  0
   14.5508  -18.5980   21.8413 N   0  0  0  0  0  0  0  0  0  0  0  0
   14.5879  -19.6340   22.8097 C   0  0  0  0  0  0  0  0  0  0  0  0
   15.1792  -20.7798   22.5880 N   0  0  0  0  0  0  0  0  0  0  0  0
   13.9492  -19.4355   24.0885 N   0  0  0  0  0  0  0  0  0  0  0  0
   12.5387  -19.5403   24.1379 C   0  0  0  0  0  0  0  0  0  0  0  0
   11.8374  -18.2074   23.7724 C   0  0  0  0  0  0  0  0  0  0  0  0
   10.3989  -18.5113   23.9006 C   0  0  0  0  0  0  0  0  0  0  0  0
    9.3885  -17.4782   23.5392 C   0  0  2  0  0  0  0  0  0  0  0  0
    9.3285  -16.9013   22.2778 N   0  0  0  0  0  0  0  0  0  0  0  0
    9.4745  -16.4199   24.5734 C   0  0  0  0  0  0  0  0  0  0  0  0
   10.4221  -15.5639   24.3679 O   0  0  0  0  0  0  0  0  0  0  0  0
   15.0388  -21.5132   23.3411 N   0  0  0  0  0  0  0  0  0  0  0  0
    8.6522  -16.3196   25.6804 C   0  0  1  0  0  0  0  0  0  0  0  0
    8.9054  -15.2809   26.7579 C   0  0  0  0  0  0  0  0  0  0  0  0
    7.7068  -14.4306   26.8105 C   0  0  0  0  0  0  0  0  0  0  0  0
    7.7205  -13.0826   26.2542 C   0  0  0  0  0  0  0  0  0  0  0  0
    6.6170  -12.1230   26.5716 C   0  0  0  0  0  0  0  0  0  0  0  0
    6.9145  -10.7443   25.9220 N   0  0  0  0  0  0  0  0  0  0  0  0
    5.7764   -9.8936   26.2404 C   0  0  0  0  0  0  0  0  0  0  0  0
    9.1897  -16.1781   27.9124 O   0  0  0  0  0  0  0  0  0  0  0  0
    9.8677  -15.7885   29.0286 O   0  0  0  0  0  0  0  0  0  0  0  0
  2  1  1  6
  2  9  1  0
  2  3  1  0
  3  4  1  0
  4  8  1  0
  4  5  2  0
  5  6  1  0
  7  6  1  0
  8  7  2  0
  9 10  2  0
 12 14  1  0
 12 11  1  0
 13 12  2  0
 15 16  1  0
 15 14  1  0
 16 17  1  0
 18 17  1  6
 19 18  1  0
 19  9  1  0
 20 18  1  0
 21 20  2  0
 22 20  1  0
 23 22  1  0
 24 25  1  0
 23 24  1  1
 25 26  1  0
 26 27  1  0
 27 28  1  0
 29 23  1  0
 29 30  1  0
 31 29  2  0
M  END
$$$$
