HRK.pdb
     RDKit          3D

 31 31  0  0  1  0  0  0  0  0999 V2000
    4.0644  -20.4434   21.0162 N   0  0  0  0  0  0  0  0  0  0  0  0
    4.0122  -19.2185   21.7375 C   0  0  1  0  0  0  0  0  0  0  0  0
    2.9681  -19.3463   22.8294 C   0  0  0  0  0  0  0  0  0  0  0  0
    1.6267  -19.5796   22.2733 C   0  0  0  0  0  0  0  0  0  0  0  0
    1.3028  -19.7300   20.9457 C   0  0  0  0  0  0  0  0  0  0  0  0
   -0.0127  -19.9272   20.8623 N   0  0  0  0  0  0  0  0  0  0  0  0
   -0.5021  -19.9063   22.1382 C   0  0  0  0  0  0  0  0  0  0  0  0
    0.4906  -19.7013   23.0047 N   0  0  0  0  0  0  0  0  0  0  0  0
    5.3328  -18.9105   22.3321 C   0  0  0  0  0  0  0  0  0  0  0  0
    6.0014  -19.8553   22.8110 O   0  0  0  0  0  0  0  0  0  0  0  0
    8.6064  -11.2632   20.4853 N   0  0  0  0  0  0  0  0  0  0  0  0
    8.8475  -12.4491   19.7450 C   0  0  0  0  0  0  0  0  0  0  0  0
    8.8733  -12.4658   18.4371 N   0  0  0  0  0  0  0  0  0  0  0  0
    9.0675  -13.6919   20.4446 N   0  0  0  0  0  0  0  0  0  0  0  0
    8.1396  -14.7380   20.2264 C   0  0  0  0  0  0  0  0  0  0  0  0
    8.4883  -16.0115   21.0381 C   0  0  0  0  0  0  0  0  0  0  0  0
    7.6733  -15.8915   22.2627 C   0  0  0  0  0  0  0  0  0  0  0  0
    7.0256  -17.1010   22.8427 C   0  0  2  0  0  0  0  0  0  0  0  0
    5.8240  -17.6064   22.3649 N   0  0  0  0  0  0  0  0  0  0  0  0
    6.9303  -16.8722   24.3040 C   0  0  0  0  0  0  0  0  0  0  0  0
    5.7292  -16.6284   24.7177 O   0  0  0  0  0  0  0  0  0  0  0  0
    8.8938  -13.4313   17.9985 N   0  0  0  0  0  0  0  0  0  0  0  0
    7.9961  -16.8930   25.1845 C   0  0  2  0  0  0  0  0  0  0  0  0
    7.8609  -17.4971   26.5704 C   0  0  0  0  0  0  0  0  0  0  0  0
    7.4496  -18.8959   26.3799 C   0  0  0  0  0  0  0  0  0  0  0  0
    7.2838  -19.7893   27.5205 C   0  0  0  0  0  0  0  0  0  0  0  0
    6.9295  -21.2276   27.3085 C   0  0  0  0  0  0  0  0  0  0  0  0
    6.8880  -21.9668   28.6735 N   0  0  0  0  0  0  0  0  0  0  0  0
    6.3491  -23.2915   28.3993 C   0  0  0  0  0  0  0  0  0  0  0  0
    9.2266  -17.2252   27.0992 O   0  0  0  0  0  0  0  0  0  0  0  0
   10.3257  -17.0519   26.3121 O   0  0  0  0  0  0  0  0  0  0  0  0
  2  1  1  1
  2  9  1  0
  2  3  1  0
  3  4  1  0
  4  8  1  0
  4  5  2  0
  5  6  1  0
  7  6  1  0
  8  7  2  0
  9 10  2  0
 12 14  1  0
 12 11  1  0
 13 12  2  0
 15 16  1  0
 15 14  1  0
 16 17  1  0
 18 17  1  6
 19 18  1  0
 19  9  1  0
 20 18  1  0
 21 20  2  0
 22 20  1  0
 23 22  1  0
 24 25  1  0
 23 24  1  6
 25 26  1  0
 26 27  1  0
 27 28  1  0
 29 23  1  0
 29 30  1  0
 31 29  2  0
M  END
$$$$
