HRK.pdb
     RDKit          3D

 31 31  0  0  1  0  0  0  0  0999 V2000
   10.5239  -18.5515   18.4013 N   0  0  0  0  0  0  0  0  0  0  0  0
    9.6383  -18.9648   19.4350 C   0  0  1  0  0  0  0  0  0  0  0  0
    9.8905  -20.4308   19.7281 C   0  0  0  0  0  0  0  0  0  0  0  0
    9.7435  -21.2589   18.5215 C   0  0  0  0  0  0  0  0  0  0  0  0
    9.1373  -20.8929   17.3432 C   0  0  0  0  0  0  0  0  0  0  0  0
    9.2181  -21.9227   16.5010 N   0  0  0  0  0  0  0  0  0  0  0  0
    9.8806  -22.9233   17.1550 C   0  0  0  0  0  0  0  0  0  0  0  0
   10.2099  -22.5254   18.3844 N   0  0  0  0  0  0  0  0  0  0  0  0
    9.8566  -18.1584   20.6575 C   0  0  0  0  0  0  0  0  0  0  0  0
   11.0317  -18.0021   21.0619 O   0  0  0  0  0  0  0  0  0  0  0  0
   10.0438  -13.8876   19.1579 N   0  0  0  0  0  0  0  0  0  0  0  0
    9.0775  -12.9023   19.4866 C   0  0  0  0  0  0  0  0  0  0  0  0
    9.2637  -11.6301   19.2453 N   0  0  0  0  0  0  0  0  0  0  0  0
    7.8417  -13.3004   20.1166 N   0  0  0  0  0  0  0  0  0  0  0  0
    7.8104  -14.5636   20.7541 C   0  0  0  0  0  0  0  0  0  0  0  0
    7.7268  -14.4411   22.2969 C   0  0  0  0  0  0  0  0  0  0  0  0
    7.6465  -15.8387   22.7644 C   0  0  0  0  0  0  0  0  0  0  0  0
    8.7636  -16.7812   22.4767 C   0  0  2  0  0  0  0  0  0  0  0  0
    8.7878  -17.5880   21.3471 N   0  0  0  0  0  0  0  0  0  0  0  0
    8.9434  -17.6105   23.6920 C   0  0  0  0  0  0  0  0  0  0  0  0
    8.1533  -18.6330   23.7486 O   0  0  0  0  0  0  0  0  0  0  0  0
    8.4652  -10.9944   19.5340 N   0  0  0  0  0  0  0  0  0  0  0  0
    9.8467  -17.3518   24.7062 C   0  0  2  0  0  0  0  0  0  0  0  0
   10.4079  -18.4704   25.5652 C   0  0  0  0  0  0  0  0  0  0  0  0
   11.3584  -19.2103   24.7218 C   0  0  0  0  0  0  0  0  0  0  0  0
   12.1483  -20.3071   25.2695 C   0  0  0  0  0  0  0  0  0  0  0  0
   13.0400  -21.1140   24.3791 C   0  0  0  0  0  0  0  0  0  0  0  0
   13.8881  -22.0957   25.2326 N   0  0  0  0  0  0  0  0  0  0  0  0
   14.8492  -22.6983   24.3195 C   0  0  0  0  0  0  0  0  0  0  0  0
   10.9423  -17.6715   26.7032 O   0  0  0  0  0  0  0  0  0  0  0  0
   11.4631  -16.4188   26.5739 O   0  0  0  0  0  0  0  0  0  0  0  0
  2  1  1  6
  2  9  1  0
  2  3  1  0
  3  4  1  0
  4  8  1  0
  4  5  2  0
  5  6  1  0
  7  6  1  0
  8  7  2  0
  9 10  2  0
 12 14  1  0
 12 11  1  0
 13 12  2  0
 15 16  1  0
 15 14  1  0
 16 17  1  0
 18 17  1  1
 19 18  1  0
 19  9  1  0
 20 18  1  0
 21 20  2  0
 22 20  1  0
 23 22  1  0
 24 25  1  0
 23 24  1  6
 25 26  1  0
 26 27  1  0
 27 28  1  0
 29 23  1  0
 29 30  1  0
 31 29  2  0
M  END
$$$$
