HRK.pdb
     RDKit          3D

 31 31  0  0  1  0  0  0  0  0999 V2000
    7.5797  -16.7672   18.8680 N   0  0  0  0  0  0  0  0  0  0  0  0
    8.4174  -16.1091   19.8107 C   0  0  1  0  0  0  0  0  0  0  0  0
    7.9211  -14.6873   19.9864 C   0  0  0  0  0  0  0  0  0  0  0  0
    8.0112  -13.9221   18.7336 C   0  0  0  0  0  0  0  0  0  0  0  0
    7.5974  -12.6269   18.5308 C   0  0  0  0  0  0  0  0  0  0  0  0
    7.8586  -12.3043   17.2643 N   0  0  0  0  0  0  0  0  0  0  0  0
    8.4406  -13.3969   16.6851 C   0  0  0  0  0  0  0  0  0  0  0  0
    8.5432  -14.3850   17.5746 N   0  0  0  0  0  0  0  0  0  0  0  0
    8.3929  -16.8189   21.1099 C   0  0  0  0  0  0  0  0  0  0  0  0
    7.4143  -17.5589   21.3621 O   0  0  0  0  0  0  0  0  0  0  0  0
   14.1763  -21.8596   24.2653 N   0  0  0  0  0  0  0  0  0  0  0  0
   13.3176  -21.8850   25.3943 C   0  0  0  0  0  0  0  0  0  0  0  0
   13.3960  -22.8124   26.3137 N   0  0  0  0  0  0  0  0  0  0  0  0
   12.3113  -20.8619   25.5457 N   0  0  0  0  0  0  0  0  0  0  0  0
   12.1021  -19.9843   24.4552 C   0  0  0  0  0  0  0  0  0  0  0  0
   10.9107  -19.0225   24.6952 C   0  0  0  0  0  0  0  0  0  0  0  0
   10.7708  -18.2979   23.4171 C   0  0  0  0  0  0  0  0  0  0  0  0
    9.6649  -17.3158   23.2397 C   0  0  2  0  0  0  0  0  0  0  0  0
    9.4258  -16.6701   22.0341 N   0  0  0  0  0  0  0  0  0  0  0  0
    9.8047  -16.3178   24.3266 C   0  0  0  0  0  0  0  0  0  0  0  0
   10.9258  -15.6730   24.3031 O   0  0  0  0  0  0  0  0  0  0  0  0
   12.7132  -22.7088   27.1186 N   0  0  0  0  0  0  0  0  0  0  0  0
    8.8612  -16.0701   25.3064 C   0  0  2  0  0  0  0  0  0  0  0  0
    9.1597  -15.1427   26.4704 C   0  0  0  0  0  0  0  0  0  0  0  0
    7.9327  -14.3706   26.7167 C   0  0  0  0  0  0  0  0  0  0  0  0
    7.7054  -13.0937   26.0498 C   0  0  0  0  0  0  0  0  0  0  0  0
    6.4296  -12.3433   26.2693 C   0  0  0  0  0  0  0  0  0  0  0  0
    6.4792  -10.9873   25.5142 N   0  0  0  0  0  0  0  0  0  0  0  0
    5.2024  -10.3355   25.7699 C   0  0  0  0  0  0  0  0  0  0  0  0
    9.5843  -16.1435   27.4887 O   0  0  0  0  0  0  0  0  0  0  0  0
   10.3436  -15.8424   28.5796 O   0  0  0  0  0  0  0  0  0  0  0  0
  2  1  1  6
  2  9  1  0
  2  3  1  0
  3  4  1  0
  4  8  1  0
  4  5  2  0
  5  6  1  0
  7  6  1  0
  8  7  2  0
  9 10  2  0
 12 14  1  0
 12 11  1  0
 13 12  2  0
 15 16  1  0
 15 14  1  0
 16 17  1  0
 18 17  1  6
 19 18  1  0
 19  9  1  0
 20 18  1  0
 21 20  2  0
 22 20  1  0
 23 22  1  0
 24 25  1  0
 23 24  1  6
 25 26  1  0
 26 27  1  0
 27 28  1  0
 29 23  1  0
 29 30  1  0
 31 29  2  0
M  END
$$$$
