KDE.pdb
     RDKit          3D

 27 26  0  0  1  0  0  0  0  0999 V2000
   11.3809  -20.6522   15.6345 N   0  0  0  0  0  0  0  0  0  0  0  0
   11.6584  -19.4176   16.2919 C   0  0  1  0  0  0  0  0  0  0  0  0
   10.4197  -18.6181   16.5210 C   0  0  0  0  0  0  0  0  0  0  0  0
    9.2793  -18.9001   15.6081 C   0  0  0  0  0  0  0  0  0  0  0  0
    8.7037  -17.7322   14.8909 C   0  0  0  0  0  0  0  0  0  0  0  0
    7.5807  -18.0654   13.9492 C   0  0  0  0  0  0  0  0  0  0  0  0
    7.1838  -16.8324   13.2795 N   0  0  0  0  0  0  0  0  0  0  0  0
   12.5236  -19.5151   17.4832 C   0  0  0  0  0  0  0  0  0  0  0  0
   12.0578  -20.0622   18.5408 O   0  0  0  0  0  0  0  0  0  0  0  0
   13.8609  -19.0485   17.5780 N   0  0  0  0  0  0  0  0  0  0  0  0
   14.6633  -19.1080   18.7846 C   0  0  1  0  0  0  0  0  0  0  0  0
   16.1154  -18.8442   18.5671 C   0  0  0  0  0  0  0  0  0  0  0  0
   16.3011  -17.5957   17.8151 C   0  0  0  0  0  0  0  0  0  0  0  0
   16.3994  -16.5001   18.4148 O   0  0  0  0  0  0  0  0  0  0  0  0
   14.1843  -18.1306   19.8023 C   0  0  0  0  0  0  0  0  0  0  0  0
   13.6559  -17.0543   19.4337 O   0  0  0  0  0  0  0  0  0  0  0  0
   16.3766  -17.5610   16.4182 O   0  0  0  0  0  0  0  0  0  0  0  0
   14.3145  -18.3951   21.1748 N   0  0  0  0  0  0  0  0  0  0  0  0
   13.7835  -17.5426   22.2221 C   0  0  1  0  0  0  0  0  0  0  0  0
   13.3565  -18.3378   23.4396 C   0  0  0  0  0  0  0  0  0  0  0  0
   12.8050  -17.4475   24.5071 C   0  0  0  0  0  0  0  0  0  0  0  0
   12.4208  -18.2469   25.6910 C   0  0  0  0  0  0  0  0  0  0  0  0
   12.5395  -19.4930   25.6398 O   0  0  0  0  0  0  0  0  0  0  0  0
   14.8544  -16.5877   22.6080 C   0  0  0  0  0  0  0  0  0  0  0  0
   16.0693  -16.7549   22.3297 O   0  0  0  0  0  0  0  0  0  0  0  0
   11.9348  -17.6899   26.8576 O   0  0  0  0  0  0  0  0  0  0  0  0
   14.5482  -15.4171   23.3245 O   0  0  0  0  0  0  0  0  0  0  0  0
  2  1  1  1
  2  3  1  0
  3  4  1  0
  4  5  1  0
  6  5  1  0
  7  6  1  0
  8  2  1  0
  9  8  2  0
 10  8  1  0
 11 10  1  0
 12 13  1  0
 11 12  1  6
 13 17  1  0
 14 13  2  0
 15 11  1  0
 15 18  1  0
 16 15  2  0
 19 24  1  0
 19 18  1  0
 20 21  1  0
 19 20  1  1
 21 22  1  0
 22 23  2  0
 22 26  1  0
 24 27  1  0
 25 24  2  0
M  END
$$$$
