KDE.pdb
     RDKit          3D

 27 26  0  0  1  0  0  0  0  0999 V2000
    9.0353  -16.5467   19.5199 N   0  0  0  0  0  0  0  0  0  0  0  0
    9.8454  -15.3764   19.6066 C   0  0  1  0  0  0  0  0  0  0  0  0
    9.2675  -14.3669   20.5409 C   0  0  0  0  0  0  0  0  0  0  0  0
    8.0120  -13.7046   20.0953 C   0  0  0  0  0  0  0  0  0  0  0  0
    8.0109  -13.1532   18.7149 C   0  0  0  0  0  0  0  0  0  0  0  0
    6.7121  -12.5271   18.2903 C   0  0  0  0  0  0  0  0  0  0  0  0
    6.8913  -12.0086   16.9393 N   0  0  0  0  0  0  0  0  0  0  0  0
   11.2855  -15.6176   19.8196 C   0  0  0  0  0  0  0  0  0  0  0  0
   11.6433  -16.5559   20.6110 O   0  0  0  0  0  0  0  0  0  0  0  0
   12.3464  -14.8914   19.2178 N   0  0  0  0  0  0  0  0  0  0  0  0
   13.7531  -15.1569   19.4503 C   0  0  1  0  0  0  0  0  0  0  0  0
   14.6729  -14.4392   18.5206 C   0  0  0  0  0  0  0  0  0  0  0  0
   14.5218  -14.9548   17.1530 C   0  0  0  0  0  0  0  0  0  0  0  0
   14.3240  -14.1712   16.1957 O   0  0  0  0  0  0  0  0  0  0  0  0
   14.1516  -14.7882   20.8381 C   0  0  0  0  0  0  0  0  0  0  0  0
   14.5631  -13.6286   21.0819 O   0  0  0  0  0  0  0  0  0  0  0  0
   14.5886  -16.3193   16.8500 O   0  0  0  0  0  0  0  0  0  0  0  0
   14.0738  -15.7216   21.8837 N   0  0  0  0  0  0  0  0  0  0  0  0
   14.4542  -15.4408   23.2556 C   0  0  1  0  0  0  0  0  0  0  0  0
   13.5498  -16.1407   24.2501 C   0  0  0  0  0  0  0  0  0  0  0  0
   13.5124  -17.6162   24.0095 C   0  0  0  0  0  0  0  0  0  0  0  0
   12.6703  -18.2790   25.0291 C   0  0  0  0  0  0  0  0  0  0  0  0
   12.2635  -17.6052   26.0039 O   0  0  0  0  0  0  0  0  0  0  0  0
   15.8498  -15.9162   23.4394 C   0  0  0  0  0  0  0  0  0  0  0  0
   16.4273  -16.7028   22.6461 O   0  0  0  0  0  0  0  0  0  0  0  0
   12.3058  -19.6095   24.9642 O   0  0  0  0  0  0  0  0  0  0  0  0
   16.6121  -15.4949   24.5434 O   0  0  0  0  0  0  0  0  0  0  0  0
  2  1  1  1
  2  3  1  0
  3  4  1  0
  4  5  1  0
  6  5  1  0
  7  6  1  0
  8  2  1  0
  9  8  2  0
 10  8  1  0
 11 10  1  0
 12 13  1  0
 11 12  1  6
 13 17  1  0
 14 13  2  0
 15 11  1  0
 15 18  1  0
 16 15  2  0
 19 24  1  0
 19 18  1  0
 20 21  1  0
 19 20  1  1
 21 22  1  0
 22 23  2  0
 22 26  1  0
 24 27  1  0
 25 24  2  0
M  END
$$$$
