KDE.pdb
     RDKit          3D

 27 26  0  0  1  0  0  0  0  0999 V2000
   10.3671  -15.7418   20.0555 N   0  0  0  0  0  0  0  0  0  0  0  0
    9.6651  -15.4851   21.2699 C   0  0  1  0  0  0  0  0  0  0  0  0
    8.2162  -15.2213   21.0305 C   0  0  0  0  0  0  0  0  0  0  0  0
    7.8745  -14.5608   19.7419 C   0  0  0  0  0  0  0  0  0  0  0  0
    7.4831  -13.1288   19.8178 C   0  0  0  0  0  0  0  0  0  0  0  0
    7.7245  -12.3447   18.5585 C   0  0  0  0  0  0  0  0  0  0  0  0
    7.2965  -13.1692   17.4346 N   0  0  0  0  0  0  0  0  0  0  0  0
    9.9148  -16.4466   22.3610 C   0  0  0  0  0  0  0  0  0  0  0  0
    9.2074  -16.3715   23.4233 O   0  0  0  0  0  0  0  0  0  0  0  0
   10.8909  -17.4772   22.3515 N   0  0  0  0  0  0  0  0  0  0  0  0
   11.2235  -18.2980   23.5000 C   0  0  1  0  0  0  0  0  0  0  0  0
   12.3456  -19.2525   23.2654 C   0  0  0  0  0  0  0  0  0  0  0  0
   12.2973  -20.3485   24.2429 C   0  0  0  0  0  0  0  0  0  0  0  0
   11.3305  -20.4546   25.0327 O   0  0  0  0  0  0  0  0  0  0  0  0
   11.5945  -17.4602   24.6752 C   0  0  0  0  0  0  0  0  0  0  0  0
   12.5672  -16.6720   24.5974 O   0  0  0  0  0  0  0  0  0  0  0  0
   13.3057  -21.3133   24.3443 O   0  0  0  0  0  0  0  0  0  0  0  0
   10.8697  -17.5378   25.8749 N   0  0  0  0  0  0  0  0  0  0  0  0
   11.1576  -16.7408   27.0529 C   0  0  1  0  0  0  0  0  0  0  0  0
    9.9779  -15.8803   27.4584 C   0  0  0  0  0  0  0  0  0  0  0  0
   10.3433  -14.4304   27.4846 C   0  0  0  0  0  0  0  0  0  0  0  0
    9.1888  -13.6204   27.9309 C   0  0  0  0  0  0  0  0  0  0  0  0
    8.3116  -13.3099   27.0920 O   0  0  0  0  0  0  0  0  0  0  0  0
   11.4868  -17.6780   28.1579 C   0  0  0  0  0  0  0  0  0  0  0  0
   11.2334  -18.9093   28.1249 O   0  0  0  0  0  0  0  0  0  0  0  0
    9.0245  -13.1850   29.2312 O   0  0  0  0  0  0  0  0  0  0  0  0
   12.1164  -17.2159   29.3273 O   0  0  0  0  0  0  0  0  0  0  0  0
  2  1  1  6
  2  3  1  0
  3  4  1  0
  4  5  1  0
  6  5  1  0
  7  6  1  0
  8  2  1  0
  9  8  2  0
 10  8  1  0
 11 10  1  0
 12 13  1  0
 11 12  1  6
 13 17  1  0
 14 13  2  0
 15 11  1  0
 15 18  1  0
 16 15  2  0
 19 24  1  0
 19 18  1  0
 20 21  1  0
 19 20  1  1
 21 22  1  0
 22 23  2  0
 22 26  1  0
 24 27  1  0
 25 24  2  0
M  END
$$$$
