KDE.pdb
     RDKit          3D

 27 26  0  0  1  0  0  0  0  0999 V2000
    6.7284  -15.8453   20.6734 N   0  0  0  0  0  0  0  0  0  0  0  0
    8.0798  -15.3985   20.5875 C   0  0  1  0  0  0  0  0  0  0  0  0
    8.1693  -13.9133   20.4765 C   0  0  0  0  0  0  0  0  0  0  0  0
    7.5710  -13.3102   19.2551 C   0  0  0  0  0  0  0  0  0  0  0  0
    8.1386  -13.7530   17.9546 C   0  0  0  0  0  0  0  0  0  0  0  0
    7.5466  -13.0781   16.7492 C   0  0  0  0  0  0  0  0  0  0  0  0
    8.1248  -13.7010   15.5643 N   0  0  0  0  0  0  0  0  0  0  0  0
    9.0003  -15.9694   21.5896 C   0  0  0  0  0  0  0  0  0  0  0  0
    9.0923  -15.4067   22.7340 O   0  0  0  0  0  0  0  0  0  0  0  0
    9.8198  -17.1140   21.4067 N   0  0  0  0  0  0  0  0  0  0  0  0
   10.7767  -17.5981   22.3830 C   0  0  1  0  0  0  0  0  0  0  0  0
   10.5582  -19.0122   22.8046 C   0  0  0  0  0  0  0  0  0  0  0  0
   11.5270  -19.3917   23.8421 C   0  0  0  0  0  0  0  0  0  0  0  0
   12.3939  -20.2669   23.6138 O   0  0  0  0  0  0  0  0  0  0  0  0
   12.1718  -17.5010   21.8682 C   0  0  0  0  0  0  0  0  0  0  0  0
   12.5837  -18.3303   21.0220 O   0  0  0  0  0  0  0  0  0  0  0  0
   11.5352  -18.8102   25.1149 O   0  0  0  0  0  0  0  0  0  0  0  0
   13.0380  -16.4914   22.3161 N   0  0  0  0  0  0  0  0  0  0  0  0
   14.4481  -16.4206   21.9808 C   0  0  1  0  0  0  0  0  0  0  0  0
   14.7441  -15.2991   21.0053 C   0  0  0  0  0  0  0  0  0  0  0  0
   14.3393  -15.6656   19.6131 C   0  0  0  0  0  0  0  0  0  0  0  0
   14.7176  -14.5898   18.6710 C   0  0  0  0  0  0  0  0  0  0  0  0
   13.8517  -13.7463   18.3420 O   0  0  0  0  0  0  0  0  0  0  0  0
   15.1971  -16.1866   23.2425 C   0  0  0  0  0  0  0  0  0  0  0  0
   14.6527  -15.8342   24.3199 O   0  0  0  0  0  0  0  0  0  0  0  0
   15.9824  -14.4642   18.1308 O   0  0  0  0  0  0  0  0  0  0  0  0
   16.5925  -16.3540   23.2904 O   0  0  0  0  0  0  0  0  0  0  0  0
  2  1  1  1
  2  3  1  0
  3  4  1  0
  4  5  1  0
  6  5  1  0
  7  6  1  0
  8  2  1  0
  9  8  2  0
 10  8  1  0
 11 10  1  0
 12 13  1  0
 11 12  1  6
 13 17  1  0
 14 13  2  0
 15 11  1  0
 15 18  1  0
 16 15  2  0
 19 24  1  0
 19 18  1  0
 20 21  1  0
 19 20  1  6
 21 22  1  0
 22 23  2  0
 22 26  1  0
 24 27  1  0
 25 24  2  0
M  END
$$$$
