KDE.pdb
     RDKit          3D

 27 26  0  0  1  0  0  0  0  0999 V2000
    7.7322  -17.7936   21.4971 N   0  0  0  0  0  0  0  0  0  0  0  0
    8.9191  -17.0132   21.6225 C   0  0  1  0  0  0  0  0  0  0  0  0
    8.6385  -15.5517   21.5154 C   0  0  0  0  0  0  0  0  0  0  0  0
    8.5377  -15.0031   20.1362 C   0  0  0  0  0  0  0  0  0  0  0  0
    8.2479  -13.5495   20.0237 C   0  0  0  0  0  0  0  0  0  0  0  0
    8.0848  -13.0493   18.6159 C   0  0  0  0  0  0  0  0  0  0  0  0
    7.8630  -11.6095   18.6804 N   0  0  0  0  0  0  0  0  0  0  0  0
    9.7891  -17.3626   22.7621 C   0  0  0  0  0  0  0  0  0  0  0  0
    9.2490  -17.7463   23.8555 O   0  0  0  0  0  0  0  0  0  0  0  0
   11.2077  -17.3136   22.7685 N   0  0  0  0  0  0  0  0  0  0  0  0
   12.0269  -17.5171   23.9478 C   0  0  1  0  0  0  0  0  0  0  0  0
   13.4873  -17.6311   23.6660 C   0  0  0  0  0  0  0  0  0  0  0  0
   14.2067  -18.0751   24.8678 C   0  0  0  0  0  0  0  0  0  0  0  0
   15.4003  -17.7432   25.0540 O   0  0  0  0  0  0  0  0  0  0  0  0
   11.8512  -16.4078   24.9272 C   0  0  0  0  0  0  0  0  0  0  0  0
   12.5102  -15.3486   24.7952 O   0  0  0  0  0  0  0  0  0  0  0  0
   13.6123  -18.8757   25.8496 O   0  0  0  0  0  0  0  0  0  0  0  0
   10.9554  -16.5280   26.0012 N   0  0  0  0  0  0  0  0  0  0  0  0
   10.6518  -15.4569   26.9320 C   0  0  1  0  0  0  0  0  0  0  0  0
    9.2746  -14.8710   26.6937 C   0  0  0  0  0  0  0  0  0  0  0  0
    8.9924  -13.7409   27.6316 C   0  0  0  0  0  0  0  0  0  0  0  0
    7.7083  -13.0952   27.2821 C   0  0  0  0  0  0  0  0  0  0  0  0
    6.6863  -13.8109   27.1687 O   0  0  0  0  0  0  0  0  0  0  0  0
   10.7152  -16.0244   28.3037 C   0  0  0  0  0  0  0  0  0  0  0  0
   10.5794  -17.2486   28.5574 O   0  0  0  0  0  0  0  0  0  0  0  0
    7.5742  -11.7367   27.0724 O   0  0  0  0  0  0  0  0  0  0  0  0
   10.9368  -15.1920   29.4153 O   0  0  0  0  0  0  0  0  0  0  0  0
  2  1  1  1
  2  3  1  0
  3  4  1  0
  4  5  1  0
  6  5  1  0
  7  6  1  0
  8  2  1  0
  9  8  2  0
 10  8  1  0
 11 10  1  0
 12 13  1  0
 11 12  1  6
 13 17  1  0
 14 13  2  0
 15 11  1  0
 15 18  1  0
 16 15  2  0
 19 24  1  0
 19 18  1  0
 20 21  1  0
 19 20  1  6
 21 22  1  0
 22 23  2  0
 22 26  1  0
 24 27  1  0
 25 24  2  0
M  END
$$$$
