KDE.pdb
     RDKit          3D

 27 26  0  0  1  0  0  0  0  0999 V2000
    6.9215  -17.7078   21.0005 N   0  0  0  0  0  0  0  0  0  0  0  0
    8.0853  -17.0794   20.4674 C   0  0  1  0  0  0  0  0  0  0  0  0
    7.9934  -15.5916   20.5310 C   0  0  0  0  0  0  0  0  0  0  0  0
    7.2771  -14.9306   19.4069 C   0  0  0  0  0  0  0  0  0  0  0  0
    7.3086  -13.4445   19.3873 C   0  0  0  0  0  0  0  0  0  0  0  0
    6.6450  -12.8186   18.1928 C   0  0  0  0  0  0  0  0  0  0  0  0
    6.7108  -11.3713   18.3575 N   0  0  0  0  0  0  0  0  0  0  0  0
    9.3721  -17.6101   20.9573 C   0  0  0  0  0  0  0  0  0  0  0  0
    9.3896  -18.2744   22.0496 O   0  0  0  0  0  0  0  0  0  0  0  0
   10.6310  -17.4527   20.3206 N   0  0  0  0  0  0  0  0  0  0  0  0
   11.8886  -17.9217   20.8699 C   0  0  1  0  0  0  0  0  0  0  0  0
   12.9655  -18.1136   19.8555 C   0  0  0  0  0  0  0  0  0  0  0  0
   12.6633  -19.2708   19.0020 C   0  0  0  0  0  0  0  0  0  0  0  0
   12.4945  -20.4058   19.5050 O   0  0  0  0  0  0  0  0  0  0  0  0
   12.4141  -16.9814   21.8996 C   0  0  0  0  0  0  0  0  0  0  0  0
   12.9223  -15.8901   21.5468 O   0  0  0  0  0  0  0  0  0  0  0  0
   12.5498  -19.1724   17.6107 O   0  0  0  0  0  0  0  0  0  0  0  0
   12.3496  -17.2972   23.2658 N   0  0  0  0  0  0  0  0  0  0  0  0
   12.7981  -16.4153   24.3273 C   0  0  1  0  0  0  0  0  0  0  0  0
   12.1826  -16.7771   25.6641 C   0  0  0  0  0  0  0  0  0  0  0  0
   12.4773  -18.1957   26.0345 C   0  0  0  0  0  0  0  0  0  0  0  0
   12.0610  -18.4565   27.4298 C   0  0  0  0  0  0  0  0  0  0  0  0
   11.5749  -17.5152   28.0985 O   0  0  0  0  0  0  0  0  0  0  0  0
   14.2762  -16.5373   24.4161 C   0  0  0  0  0  0  0  0  0  0  0  0
   14.9265  -17.4935   23.9220 O   0  0  0  0  0  0  0  0  0  0  0  0
   12.1803  -19.6900   28.0394 O   0  0  0  0  0  0  0  0  0  0  0  0
   15.0388  -15.5584   25.0777 O   0  0  0  0  0  0  0  0  0  0  0  0
  2  1  1  1
  2  3  1  0
  3  4  1  0
  4  5  1  0
  6  5  1  0
  7  6  1  0
  8  2  1  0
  9  8  2  0
 10  8  1  0
 11 10  1  0
 12 13  1  0
 11 12  1  6
 13 17  1  0
 14 13  2  0
 15 11  1  0
 15 18  1  0
 16 15  2  0
 19 24  1  0
 19 18  1  0
 20 21  1  0
 19 20  1  1
 21 22  1  0
 22 23  2  0
 22 26  1  0
 24 27  1  0
 25 24  2  0
M  END
$$$$
