KDE.pdb
     RDKit          3D

 27 26  0  0  1  0  0  0  0  0999 V2000
   10.2584  -15.9803   17.1102 N   0  0  0  0  0  0  0  0  0  0  0  0
   10.9383  -14.9426   17.8133 C   0  0  1  0  0  0  0  0  0  0  0  0
   10.0458  -14.2559   18.7921 C   0  0  0  0  0  0  0  0  0  0  0  0
    8.7261  -13.8064   18.2725 C   0  0  0  0  0  0  0  0  0  0  0  0
    7.8740  -13.0346   19.2148 C   0  0  0  0  0  0  0  0  0  0  0  0
    6.6072  -12.4923   18.6149 C   0  0  0  0  0  0  0  0  0  0  0  0
    5.9478  -11.6809   19.6313 N   0  0  0  0  0  0  0  0  0  0  0  0
   12.2514  -15.3135   18.3751 C   0  0  0  0  0  0  0  0  0  0  0  0
   12.3773  -16.4472   18.9525 O   0  0  0  0  0  0  0  0  0  0  0  0
   13.4245  -14.5151   18.3395 N   0  0  0  0  0  0  0  0  0  0  0  0
   14.6859  -14.8889   18.9499 C   0  0  1  0  0  0  0  0  0  0  0  0
   15.8623  -14.1273   18.4386 C   0  0  0  0  0  0  0  0  0  0  0  0
   16.1656  -14.5226   17.0564 C   0  0  0  0  0  0  0  0  0  0  0  0
   16.2642  -15.7328   16.7476 O   0  0  0  0  0  0  0  0  0  0  0  0
   14.6482  -14.7037   20.4280 C   0  0  0  0  0  0  0  0  0  0  0  0
   14.7379  -13.5512   20.9151 O   0  0  0  0  0  0  0  0  0  0  0  0
   16.3572  -13.5905   16.0304 O   0  0  0  0  0  0  0  0  0  0  0  0
   14.5128  -15.8032   21.2902 N   0  0  0  0  0  0  0  0  0  0  0  0
   14.4801  -15.7037   22.7375 C   0  0  1  0  0  0  0  0  0  0  0  0
   13.5673  -16.7425   23.3575 C   0  0  0  0  0  0  0  0  0  0  0  0
   12.1542  -16.5709   22.8990 C   0  0  0  0  0  0  0  0  0  0  0  0
   11.3019  -17.6429   23.4578 C   0  0  0  0  0  0  0  0  0  0  0  0
   11.5699  -18.8336   23.1749 O   0  0  0  0  0  0  0  0  0  0  0  0
   15.8663  -15.9079   23.2318 C   0  0  0  0  0  0  0  0  0  0  0  0
   16.7972  -16.3686   22.5228 O   0  0  0  0  0  0  0  0  0  0  0  0
   10.2191  -17.4005   24.2802 O   0  0  0  0  0  0  0  0  0  0  0  0
   16.2109  -15.5852   24.5564 O   0  0  0  0  0  0  0  0  0  0  0  0
  2  1  1  1
  2  3  1  0
  3  4  1  0
  4  5  1  0
  6  5  1  0
  7  6  1  0
  8  2  1  0
  9  8  2  0
 10  8  1  0
 11 10  1  0
 12 13  1  0
 11 12  1  6
 13 17  1  0
 14 13  2  0
 15 11  1  0
 15 18  1  0
 16 15  2  0
 19 24  1  0
 19 18  1  0
 20 21  1  0
 19 20  1  1
 21 22  1  0
 22 23  2  0
 22 26  1  0
 24 27  1  0
 25 24  2  0
M  END
$$$$
