KDE.pdb
     RDKit          3D

 27 26  0  0  1  0  0  0  0  0999 V2000
    6.7053  -17.2087   21.3892 N   0  0  0  0  0  0  0  0  0  0  0  0
    7.9604  -16.8009   20.8488 C   0  0  1  0  0  0  0  0  0  0  0  0
    8.0659  -15.3163   20.7445 C   0  0  0  0  0  0  0  0  0  0  0  0
    7.3460  -14.6865   19.6050 C   0  0  0  0  0  0  0  0  0  0  0  0
    7.5359  -13.2223   19.4328 C   0  0  0  0  0  0  0  0  0  0  0  0
    6.6787  -12.5995   18.3668 C   0  0  0  0  0  0  0  0  0  0  0  0
    6.9086  -11.1599   18.3986 N   0  0  0  0  0  0  0  0  0  0  0  0
    9.1470  -17.4332   21.4568 C   0  0  0  0  0  0  0  0  0  0  0  0
    9.0109  -18.0699   22.5572 O   0  0  0  0  0  0  0  0  0  0  0  0
   10.4644  -17.4048   20.9291 N   0  0  0  0  0  0  0  0  0  0  0  0
   11.6082  -18.0420   21.5528 C   0  0  1  0  0  0  0  0  0  0  0  0
   12.7341  -18.3290   20.6171 C   0  0  0  0  0  0  0  0  0  0  0  0
   13.7510  -19.1571   21.2798 C   0  0  0  0  0  0  0  0  0  0  0  0
   13.4854  -19.7590   22.3460 O   0  0  0  0  0  0  0  0  0  0  0  0
   12.1555  -17.2085   22.6601 C   0  0  0  0  0  0  0  0  0  0  0  0
   12.4772  -16.0156   22.4430 O   0  0  0  0  0  0  0  0  0  0  0  0
   15.0439  -19.3161   20.7689 O   0  0  0  0  0  0  0  0  0  0  0  0
   12.3178  -17.7379   23.9500 N   0  0  0  0  0  0  0  0  0  0  0  0
   12.6961  -16.9531   25.1105 C   0  0  1  0  0  0  0  0  0  0  0  0
   11.9170  -17.3556   26.3465 C   0  0  0  0  0  0  0  0  0  0  0  0
   12.2620  -16.4889   27.5155 C   0  0  0  0  0  0  0  0  0  0  0  0
   11.5942  -16.9888   28.7370 C   0  0  0  0  0  0  0  0  0  0  0  0
   10.3476  -17.1140   28.7327 O   0  0  0  0  0  0  0  0  0  0  0  0
   14.1459  -17.1752   25.3479 C   0  0  0  0  0  0  0  0  0  0  0  0
   14.8352  -16.4843   26.1409 O   0  0  0  0  0  0  0  0  0  0  0  0
   12.2752  -17.3272   29.8898 O   0  0  0  0  0  0  0  0  0  0  0  0
   14.8345  -18.2003   24.6752 O   0  0  0  0  0  0  0  0  0  0  0  0
  2  1  1  1
  2  3  1  0
  3  4  1  0
  4  5  1  0
  6  5  1  0
  7  6  1  0
  8  2  1  0
  9  8  2  0
 10  8  1  0
 11 10  1  0
 12 13  1  0
 11 12  1  6
 13 17  1  0
 14 13  2  0
 15 11  1  0
 15 18  1  0
 16 15  2  0
 19 24  1  0
 19 18  1  0
 20 21  1  0
 19 20  1  1
 21 22  1  0
 22 23  2  0
 22 26  1  0
 24 27  1  0
 25 24  2  0
M  END
$$$$
