KDE.pdb
     RDKit          3D

 27 26  0  0  1  0  0  0  0  0999 V2000
   11.0157  -15.5240   20.4191 N   0  0  0  0  0  0  0  0  0  0  0  0
   10.9293  -15.5966   18.9976 C   0  0  1  0  0  0  0  0  0  0  0  0
   10.3088  -14.3716   18.4142 C   0  0  0  0  0  0  0  0  0  0  0  0
    9.3591  -13.6362   19.2922 C   0  0  0  0  0  0  0  0  0  0  0  0
    8.0211  -13.3410   18.7158 C   0  0  0  0  0  0  0  0  0  0  0  0
    7.0703  -12.6551   19.6562 C   0  0  0  0  0  0  0  0  0  0  0  0
    5.9008  -12.2493   18.8856 N   0  0  0  0  0  0  0  0  0  0  0  0
   12.1656  -16.0143   18.3086 C   0  0  0  0  0  0  0  0  0  0  0  0
   12.1983  -15.9886   17.0308 O   0  0  0  0  0  0  0  0  0  0  0  0
   13.3582  -16.4560   18.9392 N   0  0  0  0  0  0  0  0  0  0  0  0
   14.5038  -15.6075   19.2059 C   0  0  1  0  0  0  0  0  0  0  0  0
   14.4286  -14.2604   18.5695 C   0  0  0  0  0  0  0  0  0  0  0  0
   15.6721  -13.9680   17.8434 C   0  0  0  0  0  0  0  0  0  0  0  0
   16.0438  -12.7844   17.6688 O   0  0  0  0  0  0  0  0  0  0  0  0
   14.6916  -15.3952   20.6688 C   0  0  0  0  0  0  0  0  0  0  0  0
   15.4354  -14.4703   21.0747 O   0  0  0  0  0  0  0  0  0  0  0  0
   16.4924  -14.9726   17.3180 O   0  0  0  0  0  0  0  0  0  0  0  0
   14.0463  -16.2170   21.6063 N   0  0  0  0  0  0  0  0  0  0  0  0
   13.9910  -15.9403   23.0297 C   0  0  1  0  0  0  0  0  0  0  0  0
   12.6817  -16.3916   23.6454 C   0  0  0  0  0  0  0  0  0  0  0  0
   11.5103  -15.7738   22.9508 C   0  0  0  0  0  0  0  0  0  0  0  0
   10.2567  -16.4311   23.3802 C   0  0  0  0  0  0  0  0  0  0  0  0
   10.3281  -17.5260   23.9850 O   0  0  0  0  0  0  0  0  0  0  0  0
   15.1148  -16.6702   23.6717 C   0  0  0  0  0  0  0  0  0  0  0  0
   15.4340  -16.5326   24.8802 O   0  0  0  0  0  0  0  0  0  0  0  0
    9.0032  -15.8996   23.1486 O   0  0  0  0  0  0  0  0  0  0  0  0
   15.8969  -17.5762   22.9335 O   0  0  0  0  0  0  0  0  0  0  0  0
  2  1  1  1
  2  3  1  0
  3  4  1  0
  4  5  1  0
  6  5  1  0
  7  6  1  0
  8  2  1  0
  9  8  2  0
 10  8  1  0
 11 10  1  0
 12 13  1  0
 11 12  1  6
 13 17  1  0
 14 13  2  0
 15 11  1  0
 15 18  1  0
 16 15  2  0
 19 24  1  0
 19 18  1  0
 20 21  1  0
 19 20  1  1
 21 22  1  0
 22 23  2  0
 22 26  1  0
 24 27  1  0
 25 24  2  0
M  END
$$$$
