KDE.pdb
     RDKit          3D

 27 26  0  0  1  0  0  0  0  0999 V2000
    7.3067  -17.7697   19.8460 N   0  0  0  0  0  0  0  0  0  0  0  0
    8.5483  -17.0782   19.7294 C   0  0  1  0  0  0  0  0  0  0  0  0
    8.4065  -15.6241   20.0321 C   0  0  0  0  0  0  0  0  0  0  0  0
    7.6704  -14.8137   19.0247 C   0  0  0  0  0  0  0  0  0  0  0  0
    7.4790  -13.3753   19.3471 C   0  0  0  0  0  0  0  0  0  0  0  0
    6.7418  -12.5900   18.2989 C   0  0  0  0  0  0  0  0  0  0  0  0
    6.5359  -11.2430   18.8178 N   0  0  0  0  0  0  0  0  0  0  0  0
    9.6925  -17.7118   20.4128 C   0  0  0  0  0  0  0  0  0  0  0  0
    9.4798  -18.3786   21.4827 O   0  0  0  0  0  0  0  0  0  0  0  0
   11.0466  -17.6539   19.9910 N   0  0  0  0  0  0  0  0  0  0  0  0
   12.1448  -18.3067   20.6774 C   0  0  1  0  0  0  0  0  0  0  0  0
   13.3906  -18.4241   19.8652 C   0  0  0  0  0  0  0  0  0  0  0  0
   14.3756  -19.2652   20.5590 C   0  0  0  0  0  0  0  0  0  0  0  0
   14.0022  -20.2152   21.2853 O   0  0  0  0  0  0  0  0  0  0  0  0
   12.5021  -17.5884   21.9332 C   0  0  0  0  0  0  0  0  0  0  0  0
   12.8469  -16.3833   21.8862 O   0  0  0  0  0  0  0  0  0  0  0  0
   15.7550  -19.0567   20.4499 O   0  0  0  0  0  0  0  0  0  0  0  0
   12.4589  -18.2408   23.1754 N   0  0  0  0  0  0  0  0  0  0  0  0
   12.6648  -17.5787   24.4502 C   0  0  1  0  0  0  0  0  0  0  0  0
   12.1068  -18.3854   25.6055 C   0  0  0  0  0  0  0  0  0  0  0  0
   12.4198  -17.7447   26.9200 C   0  0  0  0  0  0  0  0  0  0  0  0
   11.8281  -18.5301   28.0250 C   0  0  0  0  0  0  0  0  0  0  0  0
   11.1603  -19.5528   27.7459 O   0  0  0  0  0  0  0  0  0  0  0  0
   14.1290  -17.4045   24.6327 C   0  0  0  0  0  0  0  0  0  0  0  0
   14.9903  -18.1528   24.1040 O   0  0  0  0  0  0  0  0  0  0  0  0
   11.9728  -18.1946   29.3569 O   0  0  0  0  0  0  0  0  0  0  0  0
   14.6338  -16.3620   25.4301 O   0  0  0  0  0  0  0  0  0  0  0  0
  2  1  1  1
  2  3  1  0
  3  4  1  0
  4  5  1  0
  6  5  1  0
  7  6  1  0
  8  2  1  0
  9  8  2  0
 10  8  1  0
 11 10  1  0
 12 13  1  0
 11 12  1  6
 13 17  1  0
 14 13  2  0
 15 11  1  0
 15 18  1  0
 16 15  2  0
 19 24  1  0
 19 18  1  0
 20 21  1  0
 19 20  1  1
 21 22  1  0
 22 23  2  0
 22 26  1  0
 24 27  1  0
 25 24  2  0
M  END
$$$$
