KDE.pdb
     RDKit          3D

 27 26  0  0  1  0  0  0  0  0999 V2000
    9.1402  -13.6642   16.8153 N   0  0  0  0  0  0  0  0  0  0  0  0
    9.3351  -14.9438   17.4136 C   0  0  1  0  0  0  0  0  0  0  0  0
    8.7119  -16.0353   16.6096 C   0  0  0  0  0  0  0  0  0  0  0  0
    8.7642  -15.8723   15.1317 C   0  0  0  0  0  0  0  0  0  0  0  0
    7.9448  -14.7718   14.5597 C   0  0  0  0  0  0  0  0  0  0  0  0
    7.9208  -14.7228   13.0577 C   0  0  0  0  0  0  0  0  0  0  0  0
    7.1294  -13.5627   12.6651 N   0  0  0  0  0  0  0  0  0  0  0  0
   10.7172  -15.2411   17.8364 C   0  0  0  0  0  0  0  0  0  0  0  0
   10.9639  -16.3661   18.3915 O   0  0  0  0  0  0  0  0  0  0  0  0
   11.8347  -14.3788   17.6858 N   0  0  0  0  0  0  0  0  0  0  0  0
   13.1905  -14.7243   18.0675 C   0  0  1  0  0  0  0  0  0  0  0  0
   14.2446  -13.9631   17.3363 C   0  0  0  0  0  0  0  0  0  0  0  0
   15.5710  -14.5304   17.6152 C   0  0  0  0  0  0  0  0  0  0  0  0
   16.4744  -13.8207   18.1151 O   0  0  0  0  0  0  0  0  0  0  0  0
   13.4161  -14.5035   19.5239 C   0  0  0  0  0  0  0  0  0  0  0  0
   13.5685  -13.3381   19.9621 O   0  0  0  0  0  0  0  0  0  0  0  0
   15.8925  -15.8650   17.3439 O   0  0  0  0  0  0  0  0  0  0  0  0
   13.4608  -15.5835   20.4194 N   0  0  0  0  0  0  0  0  0  0  0  0
   13.6238  -15.4448   21.8547 C   0  0  1  0  0  0  0  0  0  0  0  0
   12.7436  -16.4107   22.6221 C   0  0  0  0  0  0  0  0  0  0  0  0
   12.9878  -16.3197   24.0947 C   0  0  0  0  0  0  0  0  0  0  0  0
   12.2331  -17.3757   24.8040 C   0  0  0  0  0  0  0  0  0  0  0  0
   12.0305  -17.2477   26.0338 O   0  0  0  0  0  0  0  0  0  0  0  0
   15.0493  -15.7188   22.1718 C   0  0  0  0  0  0  0  0  0  0  0  0
   15.7871  -16.4614   21.4749 O   0  0  0  0  0  0  0  0  0  0  0  0
   11.7363  -18.5031   24.1797 O   0  0  0  0  0  0  0  0  0  0  0  0
   15.6571  -15.1419   23.3011 O   0  0  0  0  0  0  0  0  0  0  0  0
  2  1  1  6
  2  3  1  0
  3  4  1  0
  4  5  1  0
  6  5  1  0
  7  6  1  0
  8  2  1  0
  9  8  2  0
 10  8  1  0
 11 10  1  0
 12 13  1  0
 11 12  1  6
 13 17  1  0
 14 13  2  0
 15 11  1  0
 15 18  1  0
 16 15  2  0
 19 24  1  0
 19 18  1  0
 20 21  1  0
 19 20  1  1
 21 22  1  0
 22 23  2  0
 22 26  1  0
 24 27  1  0
 25 24  2  0
M  END
$$$$
