KDE.pdb
     RDKit          3D

 27 26  0  0  1  0  0  0  0  0999 V2000
    5.9871  -16.6194   22.4466 N   0  0  0  0  0  0  0  0  0  0  0  0
    7.2896  -16.0777   22.2383 C   0  0  1  0  0  0  0  0  0  0  0  0
    7.3286  -14.6079   22.4924 C   0  0  0  0  0  0  0  0  0  0  0  0
    6.9728  -13.7343   21.3419 C   0  0  0  0  0  0  0  0  0  0  0  0
    7.9784  -13.6369   20.2516 C   0  0  0  0  0  0  0  0  0  0  0  0
    7.6438  -12.6415   19.1764 C   0  0  0  0  0  0  0  0  0  0  0  0
    8.7282  -12.6610   18.2018 N   0  0  0  0  0  0  0  0  0  0  0  0
    8.3927  -16.8151   22.8839 C   0  0  0  0  0  0  0  0  0  0  0  0
    8.2168  -17.2820   24.0611 O   0  0  0  0  0  0  0  0  0  0  0  0
    9.6685  -17.0658   22.3142 N   0  0  0  0  0  0  0  0  0  0  0  0
   10.7453  -17.7589   22.9950 C   0  0  1  0  0  0  0  0  0  0  0  0
   11.9437  -18.0131   22.1438 C   0  0  0  0  0  0  0  0  0  0  0  0
   12.9558  -18.7656   22.8977 C   0  0  0  0  0  0  0  0  0  0  0  0
   14.1315  -18.3413   22.9832 O   0  0  0  0  0  0  0  0  0  0  0  0
   11.2063  -17.0004   24.1919 C   0  0  0  0  0  0  0  0  0  0  0  0
   11.4850  -15.7816   24.0890 O   0  0  0  0  0  0  0  0  0  0  0  0
   12.6698  -19.9713   23.5477 O   0  0  0  0  0  0  0  0  0  0  0  0
   11.3345  -17.6295   25.4402 N   0  0  0  0  0  0  0  0  0  0  0  0
   11.3294  -16.9273   26.7101 C   0  0  1  0  0  0  0  0  0  0  0  0
    9.9844  -16.2931   27.0028 C   0  0  0  0  0  0  0  0  0  0  0  0
    9.9682  -15.6450   28.3504 C   0  0  0  0  0  0  0  0  0  0  0  0
    9.2749  -14.3401   28.2816 C   0  0  0  0  0  0  0  0  0  0  0  0
    8.6766  -14.0318   27.2249 O   0  0  0  0  0  0  0  0  0  0  0  0
   11.6483  -17.9179   27.7706 C   0  0  0  0  0  0  0  0  0  0  0  0
   11.8459  -17.6101   28.9738 O   0  0  0  0  0  0  0  0  0  0  0  0
    9.2514  -13.4372   29.3263 O   0  0  0  0  0  0  0  0  0  0  0  0
   11.7465  -19.2875   27.4673 O   0  0  0  0  0  0  0  0  0  0  0  0
  2  1  1  1
  2  3  1  0
  3  4  1  0
  4  5  1  0
  6  5  1  0
  7  6  1  0
  8  2  1  0
  9  8  2  0
 10  8  1  0
 11 10  1  0
 12 13  1  0
 11 12  1  6
 13 17  1  0
 14 13  2  0
 15 11  1  0
 15 18  1  0
 16 15  2  0
 19 24  1  0
 19 18  1  0
 20 21  1  0
 19 20  1  1
 21 22  1  0
 22 23  2  0
 22 26  1  0
 24 27  1  0
 25 24  2  0
M  END
$$$$
