KDE.pdb
     RDKit          3D

 27 26  0  0  1  0  0  0  0  0999 V2000
    6.6075  -17.2111   21.6129 N   0  0  0  0  0  0  0  0  0  0  0  0
    7.7094  -16.4040   21.2032 C   0  0  1  0  0  0  0  0  0  0  0  0
    7.6063  -15.0119   21.7300 C   0  0  0  0  0  0  0  0  0  0  0  0
    7.0008  -14.0078   20.8142 C   0  0  0  0  0  0  0  0  0  0  0  0
    7.8071  -13.6293   19.6241 C   0  0  0  0  0  0  0  0  0  0  0  0
    7.1903  -12.5645   18.7612 C   0  0  0  0  0  0  0  0  0  0  0  0
    8.0201  -12.4238   17.5704 N   0  0  0  0  0  0  0  0  0  0  0  0
    9.0422  -17.0077   21.3949 C   0  0  0  0  0  0  0  0  0  0  0  0
    9.3028  -17.5880   22.5039 O   0  0  0  0  0  0  0  0  0  0  0  0
   10.0970  -17.0088   20.4450 N   0  0  0  0  0  0  0  0  0  0  0  0
   11.4171  -17.5568   20.6907 C   0  0  1  0  0  0  0  0  0  0  0  0
   12.2718  -17.6630   19.4727 C   0  0  0  0  0  0  0  0  0  0  0  0
   13.4236  -18.5379   19.7312 C   0  0  0  0  0  0  0  0  0  0  0  0
   13.3017  -19.7836   19.6753 O   0  0  0  0  0  0  0  0  0  0  0  0
   12.1662  -16.7392   21.6862 C   0  0  0  0  0  0  0  0  0  0  0  0
   12.4971  -15.5624   21.4047 O   0  0  0  0  0  0  0  0  0  0  0  0
   14.6926  -18.0402   20.0473 O   0  0  0  0  0  0  0  0  0  0  0  0
   12.5096  -17.2659   22.9412 N   0  0  0  0  0  0  0  0  0  0  0  0
   13.2282  -16.5293   23.9643 C   0  0  1  0  0  0  0  0  0  0  0  0
   13.1804  -17.2297   25.3074 C   0  0  0  0  0  0  0  0  0  0  0  0
   11.7818  -17.3123   25.8304 C   0  0  0  0  0  0  0  0  0  0  0  0
   11.7389  -18.1582   27.0432 C   0  0  0  0  0  0  0  0  0  0  0  0
   11.8384  -17.6078   28.1643 O   0  0  0  0  0  0  0  0  0  0  0  0
   14.6413  -16.4101   23.5209 C   0  0  0  0  0  0  0  0  0  0  0  0
   15.4668  -15.6121   24.0339 O   0  0  0  0  0  0  0  0  0  0  0  0
   11.5942  -19.5311   27.0062 O   0  0  0  0  0  0  0  0  0  0  0  0
   15.1350  -17.2094   22.4745 O   0  0  0  0  0  0  0  0  0  0  0  0
  2  1  1  1
  2  3  1  0
  3  4  1  0
  4  5  1  0
  6  5  1  0
  7  6  1  0
  8  2  1  0
  9  8  2  0
 10  8  1  0
 11 10  1  0
 12 13  1  0
 11 12  1  6
 13 17  1  0
 14 13  2  0
 15 11  1  0
 15 18  1  0
 16 15  2  0
 19 24  1  0
 19 18  1  0
 20 21  1  0
 19 20  1  1
 21 22  1  0
 22 23  2  0
 22 26  1  0
 24 27  1  0
 25 24  2  0
M  END
$$$$
