KDE.pdb
     RDKit          3D

 27 26  0  0  1  0  0  0  0  0999 V2000
    6.9511  -17.5544   21.7393 N   0  0  0  0  0  0  0  0  0  0  0  0
    8.1955  -16.8740   21.8874 C   0  0  1  0  0  0  0  0  0  0  0  0
    8.0633  -15.4097   21.6335 C   0  0  0  0  0  0  0  0  0  0  0  0
    8.2015  -14.9750   20.2174 C   0  0  0  0  0  0  0  0  0  0  0  0
    8.2707  -13.5091   19.9809 C   0  0  0  0  0  0  0  0  0  0  0  0
    8.4245  -13.1127   18.5393 C   0  0  0  0  0  0  0  0  0  0  0  0
    8.5599  -11.6616   18.4910 N   0  0  0  0  0  0  0  0  0  0  0  0
    8.9485  -17.1917   23.1161 C   0  0  0  0  0  0  0  0  0  0  0  0
    8.3061  -17.3456   24.2108 O   0  0  0  0  0  0  0  0  0  0  0  0
   10.3563  -17.3477   23.2096 N   0  0  0  0  0  0  0  0  0  0  0  0
   11.0743  -17.5570   24.4522 C   0  0  1  0  0  0  0  0  0  0  0  0
   12.5253  -17.8561   24.2773 C   0  0  0  0  0  0  0  0  0  0  0  0
   13.1331  -18.2107   25.5672 C   0  0  0  0  0  0  0  0  0  0  0  0
   12.5054  -18.9102   26.3956 O   0  0  0  0  0  0  0  0  0  0  0  0
   10.9728  -16.3670   25.3433 C   0  0  0  0  0  0  0  0  0  0  0  0
   11.4382  -15.2644   24.9675 O   0  0  0  0  0  0  0  0  0  0  0  0
   14.4181  -17.7962   25.9344 O   0  0  0  0  0  0  0  0  0  0  0  0
   10.3613  -16.4587   26.6036 N   0  0  0  0  0  0  0  0  0  0  0  0
   10.2058  -15.3414   27.5163 C   0  0  1  0  0  0  0  0  0  0  0  0
    8.7821  -14.8224   27.5410 C   0  0  0  0  0  0  0  0  0  0  0  0
    8.7420  -13.3325   27.4191 C   0  0  0  0  0  0  0  0  0  0  0  0
    7.3407  -12.8611   27.3726 C   0  0  0  0  0  0  0  0  0  0  0  0
    6.4189  -13.7049   27.4612 O   0  0  0  0  0  0  0  0  0  0  0  0
   10.5806  -15.8164   28.8733 C   0  0  0  0  0  0  0  0  0  0  0  0
   10.7334  -17.0292   29.1687 O   0  0  0  0  0  0  0  0  0  0  0  0
    6.9913  -11.5320   27.2358 O   0  0  0  0  0  0  0  0  0  0  0  0
   10.7881  -14.9024   29.9218 O   0  0  0  0  0  0  0  0  0  0  0  0
  2  1  1  1
  2  3  1  0
  3  4  1  0
  4  5  1  0
  6  5  1  0
  7  6  1  0
  8  2  1  0
  9  8  2  0
 10  8  1  0
 11 10  1  0
 12 13  1  0
 11 12  1  6
 13 17  1  0
 14 13  2  0
 15 11  1  0
 15 18  1  0
 16 15  2  0
 19 24  1  0
 19 18  1  0
 20 21  1  0
 19 20  1  1
 21 22  1  0
 22 23  2  0
 22 26  1  0
 24 27  1  0
 25 24  2  0
M  END
$$$$
