KDE.pdb
     RDKit          3D

 27 26  0  0  1  0  0  0  0  0999 V2000
    9.8961  -17.1181   18.4716 N   0  0  0  0  0  0  0  0  0  0  0  0
   10.8659  -16.0742   18.5287 C   0  0  1  0  0  0  0  0  0  0  0  0
   10.3198  -14.8411   19.1671 C   0  0  0  0  0  0  0  0  0  0  0  0
    9.0327  -14.3346   18.6192 C   0  0  0  0  0  0  0  0  0  0  0  0
    8.5379  -13.0492   19.1783 C   0  0  0  0  0  0  0  0  0  0  0  0
    7.2982  -12.5137   18.5184 C   0  0  0  0  0  0  0  0  0  0  0  0
    6.9535  -11.2586   19.1758 N   0  0  0  0  0  0  0  0  0  0  0  0
   12.1899  -16.4677   19.0480 C   0  0  0  0  0  0  0  0  0  0  0  0
   12.2623  -17.4290   19.8879 O   0  0  0  0  0  0  0  0  0  0  0  0
   13.4290  -15.8689   18.7003 N   0  0  0  0  0  0  0  0  0  0  0  0
   14.7109  -16.2650   19.2512 C   0  0  1  0  0  0  0  0  0  0  0  0
   15.8878  -15.6999   18.5294 C   0  0  0  0  0  0  0  0  0  0  0  0
   16.2924  -16.5921   17.4343 C   0  0  0  0  0  0  0  0  0  0  0  0
   15.4401  -17.2795   16.8256 O   0  0  0  0  0  0  0  0  0  0  0  0
   14.8339  -15.8619   20.6805 C   0  0  0  0  0  0  0  0  0  0  0  0
   14.9500  -14.6491   20.9790 O   0  0  0  0  0  0  0  0  0  0  0  0
   17.6225  -16.7212   17.0193 O   0  0  0  0  0  0  0  0  0  0  0  0
   14.8217  -16.8215   21.7049 N   0  0  0  0  0  0  0  0  0  0  0  0
   14.8410  -16.5018   23.1202 C   0  0  1  0  0  0  0  0  0  0  0  0
   14.2741  -17.6258   23.9640 C   0  0  0  0  0  0  0  0  0  0  0  0
   14.2524  -17.2621   25.4144 C   0  0  0  0  0  0  0  0  0  0  0  0
   13.7385  -18.3932   26.2172 C   0  0  0  0  0  0  0  0  0  0  0  0
   13.2955  -19.4020   25.6208 O   0  0  0  0  0  0  0  0  0  0  0  0
   16.2557  -16.2616   23.5056 C   0  0  0  0  0  0  0  0  0  0  0  0
   17.2380  -16.7266   22.8729 O   0  0  0  0  0  0  0  0  0  0  0  0
   13.7204  -18.3973   27.5982 O   0  0  0  0  0  0  0  0  0  0  0  0
   16.5700  -15.4788   24.6308 O   0  0  0  0  0  0  0  0  0  0  0  0
  2  1  1  1
  2  3  1  0
  3  4  1  0
  4  5  1  0
  6  5  1  0
  7  6  1  0
  8  2  1  0
  9  8  2  0
 10  8  1  0
 11 10  1  0
 12 13  1  0
 11 12  1  6
 13 17  1  0
 14 13  2  0
 15 11  1  0
 15 18  1  0
 16 15  2  0
 19 24  1  0
 19 18  1  0
 20 21  1  0
 19 20  1  1
 21 22  1  0
 22 23  2  0
 22 26  1  0
 24 27  1  0
 25 24  2  0
M  END
$$$$
