IQQ.pdb
     RDKit          3D

 27 26  0  0  1  0  0  0  0  0999 V2000
    6.6716  -11.7184   27.9064 C   0  0  0  0  0  0  0  0  0  0  0  0
    6.0087  -12.8535   27.1555 C   0  0  0  0  0  0  0  0  0  0  0  0
    6.9651  -13.4499   26.1521 C   0  0  2  0  0  0  0  0  0  0  0  0
    7.4918  -12.3577   25.2849 C   0  0  0  0  0  0  0  0  0  0  0  0
    6.4043  -14.6122   25.4069 C   0  0  2  0  0  0  0  0  0  0  0  0
    6.0843  -15.6711   26.3470 N   0  0  0  0  0  0  0  0  0  0  0  0
    7.1527  -15.0725   24.2465 C   0  0  0  0  0  0  0  0  0  0  0  0
    7.8252  -16.1405   24.3517 O   0  0  0  0  0  0  0  0  0  0  0  0
    7.8773  -12.7561   18.3954 N   0  0  0  0  0  0  0  0  0  0  0  0
    8.6349  -13.9455   18.2812 C   0  0  0  0  0  0  0  0  0  0  0  0
    9.1586  -14.2409   17.1988 O   0  0  0  0  0  0  0  0  0  0  0  0
    8.7445  -14.7806   19.5279 C   0  0  0  0  0  0  0  0  0  0  0  0
    7.9425  -14.1897   20.6420 C   0  0  0  0  0  0  0  0  0  0  0  0
    8.0088  -14.9465   21.8618 C   0  0  2  0  0  0  0  0  0  0  0  0
    7.2290  -14.4643   22.9829 N   0  0  0  0  0  0  0  0  0  0  0  0
    9.4284  -14.9488   22.3880 C   0  0  0  0  0  0  0  0  0  0  0  0
   10.1096  -13.9102   22.5256 O   0  0  0  0  0  0  0  0  0  0  0  0
   10.1920  -18.6428   27.0360 N   0  0  0  0  0  0  0  0  0  0  0  0
   11.2902  -17.7660   27.2006 C   0  0  0  0  0  0  0  0  0  0  0  0
   11.7801  -17.5753   28.3260 O   0  0  0  0  0  0  0  0  0  0  0  0
   11.8234  -17.0898   25.9666 C   0  0  0  0  0  0  0  0  0  0  0  0
   10.7046  -16.9221   24.9895 C   0  0  0  0  0  0  0  0  0  0  0  0
   11.1607  -16.2390   23.7297 C   0  0  2  0  0  0  0  0  0  0  0  0
   10.0764  -16.1579   22.7616 N   0  0  0  0  0  0  0  0  0  0  0  0
   12.2918  -16.9202   23.1152 C   0  0  0  0  0  0  0  0  0  0  0  0
   13.4219  -16.8969   23.6928 O   0  0  0  0  0  0  0  0  0  0  0  0
   12.2200  -17.6023   21.9326 O   0  0  0  0  0  0  0  0  0  0  0  0
  1  2  1  0
  3  2  1  0
  3  4  1  6
  5  3  1  0
  5  6  1  1
  7  8  2  0
  7  5  1  0
  9 10  1  0
 10 11  2  0
 10 12  1  0
 12 13  1  0
 14 13  1  6
 14 15  1  0
 15  7  1  0
 16 14  1  0
 16 24  1  0
 17 16  2  0
 19 21  1  0
 19 18  1  0
 20 19  2  0
 23 22  1  1
 22 21  1  0
 23 24  1  0
 23 25  1  0
 25 27  1  0
 26 25  2  0
M  END
$$$$
