IQQ.pdb
     RDKit          3D

 27 26  0  0  1  0  0  0  0  0999 V2000
    6.6881  -11.6708   27.9154 C   0  0  0  0  0  0  0  0  0  0  0  0
    5.9512  -12.7460   27.1455 C   0  0  0  0  0  0  0  0  0  0  0  0
    6.8623  -13.3786   26.1222 C   0  0  2  0  0  0  0  0  0  0  0  0
    7.4736  -12.3002   25.2939 C   0  0  0  0  0  0  0  0  0  0  0  0
    6.2168  -14.4679   25.3367 C   0  0  2  0  0  0  0  0  0  0  0  0
    5.6862  -15.4637   26.2502 N   0  0  0  0  0  0  0  0  0  0  0  0
    6.9900  -15.0370   24.2427 C   0  0  0  0  0  0  0  0  0  0  0  0
    7.4438  -16.2118   24.3767 O   0  0  0  0  0  0  0  0  0  0  0  0
    8.1564  -13.1113   18.3309 N   0  0  0  0  0  0  0  0  0  0  0  0
    8.8581  -14.3399   18.3321 C   0  0  0  0  0  0  0  0  0  0  0  0
    9.3690  -14.7588   17.2850 O   0  0  0  0  0  0  0  0  0  0  0  0
    8.9270  -15.0594   19.6517 C   0  0  0  0  0  0  0  0  0  0  0  0
    8.0646  -14.3911   20.6731 C   0  0  0  0  0  0  0  0  0  0  0  0
    8.0927  -15.0339   21.9581 C   0  0  2  0  0  0  0  0  0  0  0  0
    7.3099  -14.4308   23.0169 N   0  0  0  0  0  0  0  0  0  0  0  0
    9.5040  -15.0238   22.5062 C   0  0  0  0  0  0  0  0  0  0  0  0
   10.4214  -14.3258   22.0236 O   0  0  0  0  0  0  0  0  0  0  0  0
   10.0642  -14.6831   28.8740 N   0  0  0  0  0  0  0  0  0  0  0  0
   10.0138  -15.7015   27.8930 C   0  0  0  0  0  0  0  0  0  0  0  0
    9.9258  -16.8943   28.2281 O   0  0  0  0  0  0  0  0  0  0  0  0
   10.0711  -15.2735   26.4515 C   0  0  0  0  0  0  0  0  0  0  0  0
   11.0507  -16.1430   25.7311 C   0  0  0  0  0  0  0  0  0  0  0  0
   11.1675  -15.7690   24.2791 C   0  0  2  0  0  0  0  0  0  0  0  0
    9.8691  -15.8246   23.6229 N   0  0  0  0  0  0  0  0  0  0  0  0
   12.0953  -16.6336   23.5632 C   0  0  0  0  0  0  0  0  0  0  0  0
   13.3233  -16.6312   23.8842 O   0  0  0  0  0  0  0  0  0  0  0  0
   11.7275  -17.4704   22.5465 O   0  0  0  0  0  0  0  0  0  0  0  0
  1  2  1  0
  3  2  1  0
  3  4  1  6
  5  3  1  0
  5  6  1  1
  7  8  2  0
  7  5  1  0
  9 10  1  0
 10 11  2  0
 10 12  1  0
 12 13  1  0
 14 13  1  6
 14 15  1  0
 15  7  1  0
 16 14  1  0
 16 24  1  0
 17 16  2  0
 19 21  1  0
 19 18  1  0
 20 19  2  0
 23 22  1  1
 22 21  1  0
 23 24  1  0
 23 25  1  0
 25 27  1  0
 26 25  2  0
M  END
$$$$
