IQQ.pdb
     RDKit          3D

 27 26  0  0  1  0  0  0  0  0999 V2000
    6.3629  -11.4986   26.5786 C   0  0  0  0  0  0  0  0  0  0  0  0
    5.8452  -12.8079   26.0223 C   0  0  0  0  0  0  0  0  0  0  0  0
    6.9934  -13.6860   25.5890 C   0  0  2  0  0  0  0  0  0  0  0  0
    7.8761  -12.9043   24.6766 C   0  0  0  0  0  0  0  0  0  0  0  0
    6.5668  -15.0082   25.0502 C   0  0  2  0  0  0  0  0  0  0  0  0
    5.6780  -15.6468   26.0041 N   0  0  0  0  0  0  0  0  0  0  0  0
    7.6167  -15.8871   24.5565 C   0  0  0  0  0  0  0  0  0  0  0  0
    8.1980  -16.6504   25.3833 O   0  0  0  0  0  0  0  0  0  0  0  0
   10.1926  -16.1169   18.3907 N   0  0  0  0  0  0  0  0  0  0  0  0
    9.0014  -16.0175   19.1476 C   0  0  0  0  0  0  0  0  0  0  0  0
    7.9046  -16.1677   18.5931 O   0  0  0  0  0  0  0  0  0  0  0  0
    9.1733  -15.7278   20.6140 C   0  0  0  0  0  0  0  0  0  0  0  0
    9.3795  -16.9885   21.3896 C   0  0  0  0  0  0  0  0  0  0  0  0
    9.1923  -16.8290   22.8055 C   0  0  2  0  0  0  0  0  0  0  0  0
    8.0852  -16.0011   23.2375 N   0  0  0  0  0  0  0  0  0  0  0  0
   10.4034  -16.1511   23.4103 C   0  0  0  0  0  0  0  0  0  0  0  0
   10.5992  -14.9183   23.3511 O   0  0  0  0  0  0  0  0  0  0  0  0
    9.4789  -15.6607   28.3737 N   0  0  0  0  0  0  0  0  0  0  0  0
   10.8380  -15.4626   28.7136 C   0  0  0  0  0  0  0  0  0  0  0  0
   11.1542  -15.1033   29.8598 O   0  0  0  0  0  0  0  0  0  0  0  0
   11.8603  -15.7049   27.6363 C   0  0  0  0  0  0  0  0  0  0  0  0
   11.1500  -16.0846   26.3770 C   0  0  0  0  0  0  0  0  0  0  0  0
   12.1132  -16.4233   25.2726 C   0  0  2  0  0  0  0  0  0  0  0  0
   11.4040  -16.8961   24.0924 N   0  0  0  0  0  0  0  0  0  0  0  0
   13.0796  -17.4342   25.6789 C   0  0  0  0  0  0  0  0  0  0  0  0
   13.9297  -17.1572   26.5798 O   0  0  0  0  0  0  0  0  0  0  0  0
   13.1354  -18.6925   25.1472 O   0  0  0  0  0  0  0  0  0  0  0  0
  1  2  1  0
  3  2  1  0
  3  4  1  6
  5  3  1  0
  5  6  1  1
  7  8  2  0
  7  5  1  0
  9 10  1  0
 10 11  2  0
 10 12  1  0
 12 13  1  0
 14 13  1  6
 14 15  1  0
 15  7  1  0
 16 14  1  0
 16 24  1  0
 17 16  2  0
 19 21  1  0
 19 18  1  0
 20 19  2  0
 23 22  1  1
 22 21  1  0
 23 24  1  0
 23 25  1  0
 25 27  1  0
 26 25  2  0
M  END
$$$$
