IQQ.pdb
     RDKit          3D

 27 26  0  0  1  0  0  0  0  0999 V2000
    6.9373  -11.8411   27.8301 C   0  0  0  0  0  0  0  0  0  0  0  0
    6.0926  -12.7176   26.9301 C   0  0  0  0  0  0  0  0  0  0  0  0
    6.9706  -13.5084   25.9914 C   0  0  2  0  0  0  0  0  0  0  0  0
    7.8222  -12.5595   25.2189 C   0  0  0  0  0  0  0  0  0  0  0  0
    6.2228  -14.4877   25.1533 C   0  0  2  0  0  0  0  0  0  0  0  0
    5.3876  -15.3087   26.0111 N   0  0  0  0  0  0  0  0  0  0  0  0
    6.9978  -15.2559   24.1900 C   0  0  0  0  0  0  0  0  0  0  0  0
    7.4877  -16.3632   24.5610 O   0  0  0  0  0  0  0  0  0  0  0  0
    7.9099  -14.5915   18.0078 N   0  0  0  0  0  0  0  0  0  0  0  0
    8.4132  -13.5664   18.8428 C   0  0  0  0  0  0  0  0  0  0  0  0
    8.7568  -12.4835   18.3504 O   0  0  0  0  0  0  0  0  0  0  0  0
    8.4914  -13.8891   20.3103 C   0  0  0  0  0  0  0  0  0  0  0  0
    8.1031  -15.3089   20.5690 C   0  0  0  0  0  0  0  0  0  0  0  0
    8.1345  -15.6687   21.9600 C   0  0  2  0  0  0  0  0  0  0  0  0
    7.2832  -14.9157   22.8577 N   0  0  0  0  0  0  0  0  0  0  0  0
    9.5252  -15.4477   22.5161 C   0  0  0  0  0  0  0  0  0  0  0  0
    9.8651  -14.4060   23.1169 O   0  0  0  0  0  0  0  0  0  0  0  0
    9.8362  -18.2674   26.8276 N   0  0  0  0  0  0  0  0  0  0  0  0
   11.2501  -18.2257   26.8592 C   0  0  0  0  0  0  0  0  0  0  0  0
   11.8696  -18.6305   27.8568 O   0  0  0  0  0  0  0  0  0  0  0  0
   11.9508  -17.6767   25.6459 C   0  0  0  0  0  0  0  0  0  0  0  0
   10.9226  -17.2806   24.6357 C   0  0  0  0  0  0  0  0  0  0  0  0
   11.5502  -16.7107   23.3935 C   0  0  2  0  0  0  0  0  0  0  0  0
   10.5405  -16.4340   22.3820 N   0  0  0  0  0  0  0  0  0  0  0  0
   12.5532  -17.6021   22.8275 C   0  0  0  0  0  0  0  0  0  0  0  0
   12.2889  -18.2418   21.7635 O   0  0  0  0  0  0  0  0  0  0  0  0
   13.7908  -17.8013   23.3730 O   0  0  0  0  0  0  0  0  0  0  0  0
  1  2  1  0
  3  2  1  0
  3  4  1  6
  5  3  1  0
  5  6  1  1
  7  8  2  0
  7  5  1  0
  9 10  1  0
 10 11  2  0
 10 12  1  0
 12 13  1  0
 14 13  1  6
 14 15  1  0
 15  7  1  0
 16 14  1  0
 16 24  1  0
 17 16  2  0
 19 21  1  0
 19 18  1  0
 20 19  2  0
 23 22  1  1
 22 21  1  0
 23 24  1  0
 23 25  1  0
 25 27  1  0
 26 25  2  0
M  END
$$$$
