IQQ.pdb
     RDKit          3D

 27 26  0  0  1  0  0  0  0  0999 V2000
    6.7586  -11.1866   26.6606 C   0  0  0  0  0  0  0  0  0  0  0  0
    6.1132  -12.3764   25.9826 C   0  0  0  0  0  0  0  0  0  0  0  0
    7.1587  -13.3953   25.6006 C   0  0  2  0  0  0  0  0  0  0  0  0
    8.1911  -12.7286   24.7567 C   0  0  0  0  0  0  0  0  0  0  0  0
    6.5937  -14.6425   25.0127 C   0  0  2  0  0  0  0  0  0  0  0  0
    5.5225  -15.1276   25.8641 N   0  0  0  0  0  0  0  0  0  0  0  0
    7.5428  -15.6767   24.6275 C   0  0  0  0  0  0  0  0  0  0  0  0
    7.7251  -16.6483   25.4192 O   0  0  0  0  0  0  0  0  0  0  0  0
   10.2059  -18.1383   19.0374 N   0  0  0  0  0  0  0  0  0  0  0  0
   11.0697  -17.7792   20.0988 C   0  0  0  0  0  0  0  0  0  0  0  0
   12.1744  -18.3278   20.2068 O   0  0  0  0  0  0  0  0  0  0  0  0
   10.5556  -16.7240   21.0401 C   0  0  0  0  0  0  0  0  0  0  0  0
    9.2905  -17.1657   21.7020 C   0  0  0  0  0  0  0  0  0  0  0  0
    9.2148  -16.8093   23.0922 C   0  0  2  0  0  0  0  0  0  0  0  0
    8.3092  -15.7379   23.4523 N   0  0  0  0  0  0  0  0  0  0  0  0
   10.5634  -16.3133   23.5691 C   0  0  0  0  0  0  0  0  0  0  0  0
   11.5152  -16.0682   22.7974 O   0  0  0  0  0  0  0  0  0  0  0  0
    8.6968  -19.3101   27.8715 N   0  0  0  0  0  0  0  0  0  0  0  0
   10.0334  -19.7185   28.0923 C   0  0  0  0  0  0  0  0  0  0  0  0
   10.2930  -20.5945   28.9338 O   0  0  0  0  0  0  0  0  0  0  0  0
   11.1029  -19.0501   27.2714 C   0  0  0  0  0  0  0  0  0  0  0  0
   10.4615  -18.0324   26.3840 C   0  0  0  0  0  0  0  0  0  0  0  0
   11.4683  -17.0663   25.8230 C   0  0  2  0  0  0  0  0  0  0  0  0
   10.8250  -16.0954   24.9496 N   0  0  0  0  0  0  0  0  0  0  0  0
   12.5227  -17.7429   25.0805 C   0  0  0  0  0  0  0  0  0  0  0  0
   12.2365  -18.3447   24.0002 O   0  0  0  0  0  0  0  0  0  0  0  0
   13.8319  -17.7740   25.4731 O   0  0  0  0  0  0  0  0  0  0  0  0
  1  2  1  0
  3  2  1  0
  3  4  1  6
  5  3  1  0
  5  6  1  1
  7  8  2  0
  7  5  1  0
  9 10  1  0
 10 11  2  0
 10 12  1  0
 12 13  1  0
 14 13  1  6
 14 15  1  0
 15  7  1  0
 16 14  1  0
 16 24  1  0
 17 16  2  0
 19 21  1  0
 19 18  1  0
 20 19  2  0
 23 22  1  6
 22 21  1  0
 23 24  1  0
 23 25  1  0
 25 27  1  0
 26 25  2  0
M  END
$$$$
