IQQ.pdb
     RDKit          3D

 27 26  0  0  1  0  0  0  0  0999 V2000
   11.0960  -22.7143   20.8951 C   0  0  0  0  0  0  0  0  0  0  0  0
   10.6795  -21.6100   19.9471 C   0  0  0  0  0  0  0  0  0  0  0  0
   10.7164  -20.2737   20.6473 C   0  0  2  0  0  0  0  0  0  0  0  0
    9.9476  -20.3789   21.9202 C   0  0  0  0  0  0  0  0  0  0  0  0
   10.3169  -19.1306   19.7788 C   0  0  2  0  0  0  0  0  0  0  0  0
   10.9877  -19.2494   18.4968 N   0  0  0  0  0  0  0  0  0  0  0  0
   10.4078  -17.7995   20.3605 C   0  0  0  0  0  0  0  0  0  0  0  0
   11.5586  -17.3140   20.5704 O   0  0  0  0  0  0  0  0  0  0  0  0
    6.8680  -12.8009   19.9530 N   0  0  0  0  0  0  0  0  0  0  0  0
    7.6396  -13.3964   18.9275 C   0  0  0  0  0  0  0  0  0  0  0  0
    7.4639  -13.0588   17.7492 O   0  0  0  0  0  0  0  0  0  0  0  0
    8.6438  -14.4257   19.3700 C   0  0  0  0  0  0  0  0  0  0  0  0
    8.6043  -14.6115   20.8524 C   0  0  0  0  0  0  0  0  0  0  0  0
    9.4871  -15.6418   21.3259 C   0  0  2  0  0  0  0  0  0  0  0  0
    9.3486  -16.9559   20.7330 N   0  0  0  0  0  0  0  0  0  0  0  0
    9.2454  -15.8872   22.8002 C   0  0  0  0  0  0  0  0  0  0  0  0
    8.1570  -16.2975   23.2570 O   0  0  0  0  0  0  0  0  0  0  0  0
   10.3601  -20.5107   24.8475 N   0  0  0  0  0  0  0  0  0  0  0  0
   11.5772  -19.9697   25.3250 C   0  0  0  0  0  0  0  0  0  0  0  0
   12.4790  -20.7173   25.7381 O   0  0  0  0  0  0  0  0  0  0  0  0
   11.7199  -18.4719   25.3070 C   0  0  0  0  0  0  0  0  0  0  0  0
   10.4634  -17.8764   24.7580 C   0  0  0  0  0  0  0  0  0  0  0  0
   10.3882  -16.3963   25.0139 C   0  0  2  0  0  0  0  0  0  0  0  0
   10.2651  -15.6592   23.7645 N   0  0  0  0  0  0  0  0  0  0  0  0
   11.5523  -15.9054   25.7384 C   0  0  0  0  0  0  0  0  0  0  0  0
   12.4148  -15.2017   25.1284 O   0  0  0  0  0  0  0  0  0  0  0  0
   11.7860  -16.1526   27.0625 O   0  0  0  0  0  0  0  0  0  0  0  0
  1  2  1  0
  3  2  1  0
  3  4  1  1
  5  3  1  0
  5  6  1  6
  7  8  2  0
  7  5  1  0
  9 10  1  0
 10 11  2  0
 10 12  1  0
 12 13  1  0
 14 13  1  6
 14 15  1  0
 15  7  1  0
 16 14  1  0
 16 24  1  0
 17 16  2  0
 19 21  1  0
 19 18  1  0
 20 19  2  0
 23 22  1  6
 22 21  1  0
 23 24  1  0
 23 25  1  0
 25 27  1  0
 26 25  2  0
M  END
$$$$
