IQQ.pdb
     RDKit          3D

 27 26  0  0  1  0  0  0  0  0999 V2000
    6.5573  -11.4926   27.8465 C   0  0  0  0  0  0  0  0  0  0  0  0
    5.8906  -12.6376   27.1141 C   0  0  0  0  0  0  0  0  0  0  0  0
    6.8053  -13.1813   26.0440 C   0  0  2  0  0  0  0  0  0  0  0  0
    7.2693  -12.0502   25.1909 C   0  0  0  0  0  0  0  0  0  0  0  0
    6.2274  -14.3274   25.2871 C   0  0  2  0  0  0  0  0  0  0  0  0
    5.8599  -15.3774   26.2198 N   0  0  0  0  0  0  0  0  0  0  0  0
    6.9854  -14.8079   24.1411 C   0  0  0  0  0  0  0  0  0  0  0  0
    7.4984  -15.9641   24.2036 O   0  0  0  0  0  0  0  0  0  0  0  0
    7.8411  -13.0999   17.9020 N   0  0  0  0  0  0  0  0  0  0  0  0
    8.4440  -14.3218   18.2827 C   0  0  0  0  0  0  0  0  0  0  0  0
    8.4220  -15.2875   17.5080 O   0  0  0  0  0  0  0  0  0  0  0  0
    9.0836  -14.3464   19.6443 C   0  0  0  0  0  0  0  0  0  0  0  0
    8.1613  -13.7903   20.6806 C   0  0  0  0  0  0  0  0  0  0  0  0
    7.9771  -14.6583   21.8109 C   0  0  2  0  0  0  0  0  0  0  0  0
    7.2308  -14.1317   22.9350 N   0  0  0  0  0  0  0  0  0  0  0  0
    9.3215  -15.0143   22.4093 C   0  0  0  0  0  0  0  0  0  0  0  0
   10.1742  -14.1607   22.7346 O   0  0  0  0  0  0  0  0  0  0  0  0
   12.9771  -18.5432   26.7574 N   0  0  0  0  0  0  0  0  0  0  0  0
   11.8919  -18.8457   25.9014 C   0  0  0  0  0  0  0  0  0  0  0  0
   10.8170  -19.2568   26.3689 O   0  0  0  0  0  0  0  0  0  0  0  0
   12.1027  -18.6476   24.4246 C   0  0  0  0  0  0  0  0  0  0  0  0
   10.8202  -18.1808   23.8148 C   0  0  0  0  0  0  0  0  0  0  0  0
   10.9301  -16.7759   23.2894 C   0  0  2  0  0  0  0  0  0  0  0  0
    9.6940  -16.3673   22.6380 N   0  0  0  0  0  0  0  0  0  0  0  0
   12.0311  -16.6273   22.3477 C   0  0  0  0  0  0  0  0  0  0  0  0
   13.2228  -16.5897   22.7832 O   0  0  0  0  0  0  0  0  0  0  0  0
   11.8679  -16.5258   20.9942 O   0  0  0  0  0  0  0  0  0  0  0  0
  1  2  1  0
  3  2  1  0
  3  4  1  6
  5  3  1  0
  5  6  1  1
  7  8  2  0
  7  5  1  0
  9 10  1  0
 10 11  2  0
 10 12  1  0
 12 13  1  0
 14 13  1  6
 14 15  1  0
 15  7  1  0
 16 14  1  0
 16 24  1  0
 17 16  2  0
 19 21  1  0
 19 18  1  0
 20 19  2  0
 23 22  1  6
 22 21  1  0
 23 24  1  0
 23 25  1  0
 25 27  1  0
 26 25  2  0
M  END
$$$$
