IQQ.pdb
     RDKit          3D

 27 26  0  0  1  0  0  0  0  0999 V2000
    8.2673  -12.4013   27.1563 C   0  0  0  0  0  0  0  0  0  0  0  0
    7.7561  -13.7695   26.7582 C   0  0  0  0  0  0  0  0  0  0  0  0
    6.9255  -13.6758   25.5018 C   0  0  2  0  0  0  0  0  0  0  0  0
    5.7984  -12.7302   25.7426 C   0  0  0  0  0  0  0  0  0  0  0  0
    6.5134  -14.9995   24.9555 C   0  0  2  0  0  0  0  0  0  0  0  0
    5.8717  -15.7693   26.0059 N   0  0  0  0  0  0  0  0  0  0  0  0
    7.5200  -15.7492   24.2185 C   0  0  0  0  0  0  0  0  0  0  0  0
    8.0110  -16.7845   24.7579 O   0  0  0  0  0  0  0  0  0  0  0  0
   10.0262  -19.1840   20.2946 N   0  0  0  0  0  0  0  0  0  0  0  0
    9.8228  -17.9759   19.5869 C   0  0  0  0  0  0  0  0  0  0  0  0
    9.2323  -17.9911   18.4987 O   0  0  0  0  0  0  0  0  0  0  0  0
   10.3598  -16.7306   20.2386 C   0  0  0  0  0  0  0  0  0  0  0  0
    9.2592  -15.9324   20.8592 C   0  0  0  0  0  0  0  0  0  0  0  0
    9.0336  -16.2442   22.2438 C   0  0  2  0  0  0  0  0  0  0  0  0
    8.0356  -15.4623   22.9441 N   0  0  0  0  0  0  0  0  0  0  0  0
   10.2998  -16.0018   23.0375 C   0  0  0  0  0  0  0  0  0  0  0  0
   10.7969  -14.8675   23.2046 O   0  0  0  0  0  0  0  0  0  0  0  0
   11.7160  -19.4410   28.4456 N   0  0  0  0  0  0  0  0  0  0  0  0
   11.0578  -18.7259   27.4173 C   0  0  0  0  0  0  0  0  0  0  0  0
    9.9481  -18.2069   27.6225 O   0  0  0  0  0  0  0  0  0  0  0  0
   11.7574  -18.6286   26.0886 C   0  0  0  0  0  0  0  0  0  0  0  0
   12.0933  -17.1957   25.8266 C   0  0  0  0  0  0  0  0  0  0  0  0
   12.2682  -16.9222   24.3582 C   0  0  2  0  0  0  0  0  0  0  0  0
   11.0063  -17.0739   23.6482 N   0  0  0  0  0  0  0  0  0  0  0  0
   13.2594  -17.7997   23.7512 C   0  0  0  0  0  0  0  0  0  0  0  0
   12.9055  -18.5941   22.8267 O   0  0  0  0  0  0  0  0  0  0  0  0
   14.5772  -17.8269   24.1139 O   0  0  0  0  0  0  0  0  0  0  0  0
  1  2  1  0
  3  2  1  0
  3  4  1  1
  5  3  1  0
  5  6  1  1
  7  8  2  0
  7  5  1  0
  9 10  1  0
 10 11  2  0
 10 12  1  0
 12 13  1  0
 14 13  1  6
 14 15  1  0
 15  7  1  0
 16 14  1  0
 16 24  1  0
 17 16  2  0
 19 21  1  0
 19 18  1  0
 20 19  2  0
 23 22  1  1
 22 21  1  0
 23 24  1  0
 23 25  1  0
 25 27  1  0
 26 25  2  0
M  END
$$$$
