IQQ.pdb
     RDKit          3D

 27 26  0  0  1  0  0  0  0  0999 V2000
    8.4740  -11.7824   27.1510 C   0  0  0  0  0  0  0  0  0  0  0  0
    8.0217  -13.1949   26.8477 C   0  0  0  0  0  0  0  0  0  0  0  0
    6.7383  -13.1774   26.0540 C   0  0  2  0  0  0  0  0  0  0  0  0
    5.6924  -12.4745   26.8506 C   0  0  0  0  0  0  0  0  0  0  0  0
    6.3294  -14.5173   25.5461 C   0  0  2  0  0  0  0  0  0  0  0  0
    6.3237  -15.4629   26.6477 N   0  0  0  0  0  0  0  0  0  0  0  0
    7.0173  -15.0098   24.3617 C   0  0  0  0  0  0  0  0  0  0  0  0
    7.4921  -16.1836   24.3886 O   0  0  0  0  0  0  0  0  0  0  0  0
    7.9699  -12.6624   18.4379 N   0  0  0  0  0  0  0  0  0  0  0  0
    8.3183  -14.0329   18.3937 C   0  0  0  0  0  0  0  0  0  0  0  0
    8.2600  -14.6493   17.3214 O   0  0  0  0  0  0  0  0  0  0  0  0
    8.7451  -14.6480   19.6988 C   0  0  0  0  0  0  0  0  0  0  0  0
    8.0434  -14.0040   20.8505 C   0  0  0  0  0  0  0  0  0  0  0  0
    7.9858  -14.8318   22.0238 C   0  0  2  0  0  0  0  0  0  0  0  0
    7.2310  -14.3281   23.1526 N   0  0  0  0  0  0  0  0  0  0  0  0
    9.3790  -15.0269   22.5833 C   0  0  0  0  0  0  0  0  0  0  0  0
    9.9829  -14.1508   23.2386 O   0  0  0  0  0  0  0  0  0  0  0  0
    9.2400  -19.7289   25.7830 N   0  0  0  0  0  0  0  0  0  0  0  0
   10.5041  -19.1907   25.4448 C   0  0  0  0  0  0  0  0  0  0  0  0
   11.5406  -19.8454   25.6445 O   0  0  0  0  0  0  0  0  0  0  0  0
   10.5276  -17.8118   24.8428 C   0  0  0  0  0  0  0  0  0  0  0  0
   11.4452  -17.8187   23.6627 C   0  0  0  0  0  0  0  0  0  0  0  0
   11.4173  -16.5081   22.9255 C   0  0  2  0  0  0  0  0  0  0  0  0
   10.0902  -16.2427   22.3891 N   0  0  0  0  0  0  0  0  0  0  0  0
   12.3826  -16.4714   21.8357 C   0  0  0  0  0  0  0  0  0  0  0  0
   11.9677  -16.4452   20.6364 O   0  0  0  0  0  0  0  0  0  0  0  0
   13.7375  -16.4602   22.0176 O   0  0  0  0  0  0  0  0  0  0  0  0
  1  2  1  0
  3  2  1  0
  3  4  1  1
  5  3  1  0
  5  6  1  1
  7  8  2  0
  7  5  1  0
  9 10  1  0
 10 11  2  0
 10 12  1  0
 12 13  1  0
 14 13  1  6
 14 15  1  0
 15  7  1  0
 16 14  1  0
 16 24  1  0
 17 16  2  0
 19 21  1  0
 19 18  1  0
 20 19  2  0
 23 22  1  6
 22 21  1  0
 23 24  1  0
 23 25  1  0
 25 27  1  0
 26 25  2  0
M  END
$$$$
