IQQ.pdb
     RDKit          3D

 27 26  0  0  1  0  0  0  0  0999 V2000
    8.6647  -11.9468   27.3362 C   0  0  0  0  0  0  0  0  0  0  0  0
    8.0016  -13.2691   27.0142 C   0  0  0  0  0  0  0  0  0  0  0  0
    7.0356  -13.1074   25.8661 C   0  0  2  0  0  0  0  0  0  0  0  0
    5.9966  -12.1102   26.2515 C   0  0  0  0  0  0  0  0  0  0  0  0
    6.4921  -14.3969   25.3539 C   0  0  2  0  0  0  0  0  0  0  0  0
    5.7740  -15.0688   26.4218 N   0  0  0  0  0  0  0  0  0  0  0  0
    7.4187  -15.2646   24.6417 C   0  0  0  0  0  0  0  0  0  0  0  0
    7.8746  -16.2799   25.2461 O   0  0  0  0  0  0  0  0  0  0  0  0
    8.4004  -18.3951   20.6048 N   0  0  0  0  0  0  0  0  0  0  0  0
    7.3873  -17.4849   20.2216 C   0  0  0  0  0  0  0  0  0  0  0  0
    6.3487  -17.9050   19.6944 O   0  0  0  0  0  0  0  0  0  0  0  0
    7.6666  -16.0323   20.4964 C   0  0  0  0  0  0  0  0  0  0  0  0
    8.9542  -15.8639   21.2362 C   0  0  0  0  0  0  0  0  0  0  0  0
    8.8208  -16.0022   22.6604 C   0  0  2  0  0  0  0  0  0  0  0  0
    7.8895  -15.1157   23.3270 N   0  0  0  0  0  0  0  0  0  0  0  0
   10.1441  -15.7013   23.3316 C   0  0  0  0  0  0  0  0  0  0  0  0
   10.7220  -14.5969   23.2423 O   0  0  0  0  0  0  0  0  0  0  0  0
   12.0485  -17.9313   28.6223 N   0  0  0  0  0  0  0  0  0  0  0  0
   11.2773  -16.7597   28.4362 C   0  0  0  0  0  0  0  0  0  0  0  0
   10.6654  -16.2509   29.3899 O   0  0  0  0  0  0  0  0  0  0  0  0
   11.2374  -16.1735   27.0509 C   0  0  0  0  0  0  0  0  0  0  0  0
   12.1099  -16.9946   26.1568 C   0  0  0  0  0  0  0  0  0  0  0  0
   12.1110  -16.4742   24.7457 C   0  0  2  0  0  0  0  0  0  0  0  0
   10.8147  -16.6795   24.1158 N   0  0  0  0  0  0  0  0  0  0  0  0
   13.1378  -17.1064   23.9290 C   0  0  0  0  0  0  0  0  0  0  0  0
   12.7944  -17.9080   23.0067 O   0  0  0  0  0  0  0  0  0  0  0  0
   14.4783  -16.8899   24.0876 O   0  0  0  0  0  0  0  0  0  0  0  0
  1  2  1  0
  3  2  1  0
  3  4  1  1
  5  3  1  0
  5  6  1  1
  7  8  2  0
  7  5  1  0
  9 10  1  0
 10 11  2  0
 10 12  1  0
 12 13  1  0
 14 13  1  6
 14 15  1  0
 15  7  1  0
 16 14  1  0
 16 24  1  0
 17 16  2  0
 19 21  1  0
 19 18  1  0
 20 19  2  0
 23 22  1  1
 22 21  1  0
 23 24  1  0
 23 25  1  0
 25 27  1  0
 26 25  2  0
M  END
$$$$
