VSR.pdb
     RDKit          3D

 25 24  0  0  1  0  0  0  0  0999 V2000
   27.4905  -15.6001  -15.8520 C   0  0  0  0  0  0  0  0  0  0  0  0
   26.6605  -14.3992  -16.3330 C   0  0  2  0  0  0  0  0  0  0  0  0
   26.3359  -13.6207  -15.0769 C   0  0  0  0  0  0  0  0  0  0  0  0
   25.3707  -14.9793  -16.8789 C   0  0  2  0  0  0  0  0  0  0  0  0
   25.7900  -15.7508  -18.0723 N   0  0  0  0  0  0  0  0  0  0  0  0
   24.4156  -13.9576  -17.3520 C   0  0  0  0  0  0  0  0  0  0  0  0
   24.6749  -13.3380  -18.4221 O   0  0  0  0  0  0  0  0  0  0  0  0
   20.4600  -13.8532  -16.7100 O   0  0  0  0  0  0  0  0  0  0  0  0
   21.0989  -13.1016  -17.6947 C   0  0  0  0  0  0  0  0  0  0  0  0
   22.3961  -12.4696  -17.1525 C   0  0  2  0  0  0  0  0  0  0  0  0
   23.2064  -13.5879  -16.7206 N   0  0  0  0  0  0  0  0  0  0  0  0
   22.1094  -11.4743  -16.1241 C   0  0  0  0  0  0  0  0  0  0  0  0
   22.0303  -11.8745  -14.9114 O   0  0  0  0  0  0  0  0  0  0  0  0
   22.4058   -2.5201  -16.3311 N   0  0  0  0  0  0  0  0  0  0  0  0
   22.0945   -2.9322  -14.9873 C   0  0  0  0  0  0  0  0  0  0  0  0
   21.9161   -2.0113  -14.1199 N   0  0  0  0  0  0  0  0  0  0  0  0
   21.9908   -4.2769  -14.6319 N   0  0  0  0  0  0  0  0  0  0  0  0
   22.1750   -5.3264  -15.6572 C   0  0  0  0  0  0  0  0  0  0  0  0
   21.8847   -6.6098  -14.9548 C   0  0  0  0  0  0  0  0  0  0  0  0
   21.9180   -7.8509  -15.7072 C   0  0  0  0  0  0  0  0  0  0  0  0
   21.5475   -9.1766  -15.1881 C   0  0  2  0  0  0  0  0  0  0  0  0
   21.9090  -10.0941  -16.3402 N   0  0  0  0  0  0  0  0  0  0  0  0
   20.2086   -9.4956  -14.7629 C   0  0  0  0  0  0  0  0  0  0  0  0
   19.3499  -10.0586  -15.5562 O   0  0  0  0  0  0  0  0  0  0  0  0
   19.6988   -9.2601  -13.5032 O   0  0  0  0  0  0  0  0  0  0  0  0
  2  1  1  1
  2  3  1  0
  4  2  1  0
  4  5  1  6
  4  6  1  0
  6  7  2  0
 10  9  1  1
  9  8  1  0
 10 12  1  0
 11  6  1  0
 11 10  1  0
 12 13  2  0
 15 14  1  0
 16 15  2  0
 17 15  1  0
 18 17  1  0
 19 18  1  0
 20 19  1  0
 21 20  1  6
 21 23  1  0
 22 21  1  0
 22 12  1  0
 23 25  1  0
 24 23  2  0
M  END
$$$$
