VSR.pdb
     RDKit          3D

 25 24  0  0  1  0  0  0  0  0999 V2000
   27.2348  -19.0780  -19.5851 C   0  0  0  0  0  0  0  0  0  0  0  0
   26.0142  -18.1441  -19.5702 C   0  0  2  0  0  0  0  0  0  0  0  0
   26.5170  -16.8351  -20.1384 C   0  0  0  0  0  0  0  0  0  0  0  0
   25.6757  -17.9285  -18.1083 C   0  0  2  0  0  0  0  0  0  0  0  0
   26.8651  -17.2418  -17.5523 N   0  0  0  0  0  0  0  0  0  0  0  0
   25.5188  -19.1831  -17.3456 C   0  0  0  0  0  0  0  0  0  0  0  0
   24.5222  -19.9193  -17.5926 O   0  0  0  0  0  0  0  0  0  0  0  0
   28.3073  -20.7731  -14.5428 O   0  0  0  0  0  0  0  0  0  0  0  0
   27.4614  -21.5333  -15.3488 C   0  0  0  0  0  0  0  0  0  0  0  0
   26.1013  -20.8329  -15.5371 C   0  0  2  0  0  0  0  0  0  0  0  0
   26.3887  -19.6649  -16.3415 N   0  0  0  0  0  0  0  0  0  0  0  0
   25.4635  -20.5627  -14.2524 C   0  0  0  0  0  0  0  0  0  0  0  0
   25.7699  -19.4761  -13.6504 O   0  0  0  0  0  0  0  0  0  0  0  0
   17.3995  -22.7135  -10.8396 N   0  0  0  0  0  0  0  0  0  0  0  0
   17.8645  -21.3515  -10.8007 C   0  0  0  0  0  0  0  0  0  0  0  0
   16.9783  -20.4323  -10.7561 N   0  0  0  0  0  0  0  0  0  0  0  0
   19.2224  -21.0334  -10.8127 N   0  0  0  0  0  0  0  0  0  0  0  0
   20.1419  -21.7618  -11.7130 C   0  0  0  0  0  0  0  0  0  0  0  0
   21.4750  -21.1266  -11.5022 C   0  0  0  0  0  0  0  0  0  0  0  0
   22.6049  -21.5740  -12.2961 C   0  0  0  0  0  0  0  0  0  0  0  0
   23.9623  -21.0089  -12.2477 C   0  0  2  0  0  0  0  0  0  0  0  0
   24.5281  -21.3948  -13.6007 N   0  0  0  0  0  0  0  0  0  0  0  0
   24.9203  -21.3798  -11.2379 C   0  0  0  0  0  0  0  0  0  0  0  0
   25.8071  -22.3058  -11.4369 O   0  0  0  0  0  0  0  0  0  0  0  0
   25.0151  -20.8085   -9.9861 O   0  0  0  0  0  0  0  0  0  0  0  0
  2  1  1  1
  2  3  1  0
  4  2  1  0
  4  5  1  1
  4  6  1  0
  6  7  2  0
 10  9  1  1
  9  8  1  0
 10 12  1  0
 11  6  1  0
 11 10  1  0
 12 13  2  0
 15 14  1  0
 16 15  2  0
 17 15  1  0
 18 17  1  0
 19 18  1  0
 20 19  1  0
 21 20  1  1
 21 23  1  0
 22 21  1  0
 22 12  1  0
 23 25  1  0
 24 23  2  0
M  END
$$$$
