VSR.pdb
     RDKit          3D

 25 24  0  0  1  0  0  0  0  0999 V2000
   28.8351  -21.4759  -15.5402 C   0  0  0  0  0  0  0  0  0  0  0  0
   28.0438  -20.8340  -16.6909 C   0  0  2  0  0  0  0  0  0  0  0  0
   29.0389  -19.9402  -17.3982 C   0  0  0  0  0  0  0  0  0  0  0  0
   26.9983  -19.9544  -16.0343 C   0  0  2  0  0  0  0  0  0  0  0  0
   27.7834  -18.9376  -15.2961 N   0  0  0  0  0  0  0  0  0  0  0  0
   26.1753  -20.6604  -15.0320 C   0  0  0  0  0  0  0  0  0  0  0  0
   25.3631  -21.5422  -15.4304 O   0  0  0  0  0  0  0  0  0  0  0  0
   24.9867  -21.3710  -10.3471 O   0  0  0  0  0  0  0  0  0  0  0  0
   25.8330  -20.8508  -11.3249 C   0  0  0  0  0  0  0  0  0  0  0  0
   25.2247  -21.0236  -12.7306 C   0  0  2  0  0  0  0  0  0  0  0  0
   26.1996  -20.4522  -13.6343 N   0  0  0  0  0  0  0  0  0  0  0  0
   23.8894  -20.4389  -12.8043 C   0  0  0  0  0  0  0  0  0  0  0  0
   23.7918  -19.1643  -12.7505 O   0  0  0  0  0  0  0  0  0  0  0  0
   21.0407  -16.2182  -17.1998 N   0  0  0  0  0  0  0  0  0  0  0  0
   19.7259  -16.2631  -16.6151 C   0  0  0  0  0  0  0  0  0  0  0  0
   18.7795  -15.6973  -17.2604 N   0  0  0  0  0  0  0  0  0  0  0  0
   19.4807  -16.8927  -15.3950 N   0  0  0  0  0  0  0  0  0  0  0  0
   20.5876  -17.5547  -14.6718 C   0  0  0  0  0  0  0  0  0  0  0  0
   20.5276  -18.9837  -15.0952 C   0  0  0  0  0  0  0  0  0  0  0  0
   21.4320  -19.9408  -14.4842 C   0  0  0  0  0  0  0  0  0  0  0  0
   21.3622  -20.4174  -13.0941 C   0  0  2  0  0  0  0  0  0  0  0  0
   22.6785  -21.1527  -12.9316 N   0  0  0  0  0  0  0  0  0  0  0  0
   20.3066  -21.2765  -12.6219 C   0  0  0  0  0  0  0  0  0  0  0  0
   20.3756  -22.5687  -12.7175 O   0  0  0  0  0  0  0  0  0  0  0  0
   19.1415  -20.8459  -12.0223 O   0  0  0  0  0  0  0  0  0  0  0  0
  2  1  1  1
  2  3  1  0
  4  2  1  0
  4  5  1  1
  4  6  1  0
  6  7  2  0
 10  9  1  1
  9  8  1  0
 10 12  1  0
 11  6  1  0
 11 10  1  0
 12 13  2  0
 15 14  1  0
 16 15  2  0
 17 15  1  0
 18 17  1  0
 19 18  1  0
 20 19  1  0
 21 20  1  6
 21 23  1  0
 22 21  1  0
 22 12  1  0
 23 25  1  0
 24 23  2  0
M  END
$$$$
