VSR.pdb
     RDKit          3D

 25 24  0  0  1  0  0  0  0  0999 V2000
   28.3538  -20.9626  -16.1887 C   0  0  0  0  0  0  0  0  0  0  0  0
   28.1462  -22.4273  -16.6058 C   0  0  2  0  0  0  0  0  0  0  0  0
   28.8219  -22.5489  -17.9541 C   0  0  0  0  0  0  0  0  0  0  0  0
   26.6527  -22.5931  -16.8062 C   0  0  2  0  0  0  0  0  0  0  0  0
   26.2986  -21.5595  -17.8071 N   0  0  0  0  0  0  0  0  0  0  0  0
   25.8569  -22.2993  -15.5977 C   0  0  0  0  0  0  0  0  0  0  0  0
   25.9336  -23.0918  -14.6168 O   0  0  0  0  0  0  0  0  0  0  0  0
   23.8645  -18.7401  -15.0316 O   0  0  0  0  0  0  0  0  0  0  0  0
   24.2995  -19.4774  -13.9315 C   0  0  0  0  0  0  0  0  0  0  0  0
   24.2140  -20.9906  -14.2120 C   0  0  2  0  0  0  0  0  0  0  0  0
   24.9951  -21.1946  -15.4128 N   0  0  0  0  0  0  0  0  0  0  0  0
   22.8263  -21.4365  -14.2886 C   0  0  0  0  0  0  0  0  0  0  0  0
   22.2521  -21.4078  -15.4316 O   0  0  0  0  0  0  0  0  0  0  0  0
   18.9779  -25.8831   -9.4067 N   0  0  0  0  0  0  0  0  0  0  0  0
   17.8131  -25.0448   -9.2916 C   0  0  0  0  0  0  0  0  0  0  0  0
   17.1993  -25.0477   -8.1711 N   0  0  0  0  0  0  0  0  0  0  0  0
   17.3607  -24.2585  -10.3509 N   0  0  0  0  0  0  0  0  0  0  0  0
   18.1286  -24.2109  -11.6137 C   0  0  0  0  0  0  0  0  0  0  0  0
   18.8931  -22.9315  -11.5545 C   0  0  0  0  0  0  0  0  0  0  0  0
   20.2268  -22.8777  -12.1252 C   0  0  0  0  0  0  0  0  0  0  0  0
   20.5838  -22.2545  -13.4091 C   0  0  2  0  0  0  0  0  0  0  0  0
   22.0455  -21.9033  -13.2095 N   0  0  0  0  0  0  0  0  0  0  0  0
   19.9075  -21.0894  -13.9193 C   0  0  0  0  0  0  0  0  0  0  0  0
   20.2188  -19.8894  -13.5361 O   0  0  0  0  0  0  0  0  0  0  0  0
   18.8912  -21.1065  -14.8516 O   0  0  0  0  0  0  0  0  0  0  0  0
  2  1  1  6
  2  3  1  0
  4  2  1  0
  4  5  1  6
  4  6  1  0
  6  7  2  0
 10  9  1  6
  9  8  1  0
 10 12  1  0
 11  6  1  0
 11 10  1  0
 12 13  2  0
 15 14  1  0
 16 15  2  0
 17 15  1  0
 18 17  1  0
 19 18  1  0
 20 19  1  0
 21 20  1  1
 21 23  1  0
 22 21  1  0
 22 12  1  0
 23 25  1  0
 24 23  2  0
M  END
$$$$
