VSR.pdb
     RDKit          3D

 25 24  0  0  1  0  0  0  0  0999 V2000
   24.5734  -10.6086  -15.3015 C   0  0  0  0  0  0  0  0  0  0  0  0
   23.7296  -11.8875  -15.4231 C   0  0  2  0  0  0  0  0  0  0  0  0
   24.3005  -12.6200  -16.6176 C   0  0  0  0  0  0  0  0  0  0  0  0
   22.3283  -11.4273  -15.7735 C   0  0  2  0  0  0  0  0  0  0  0  0
   22.4817  -10.7394  -17.0768 N   0  0  0  0  0  0  0  0  0  0  0  0
   21.7801  -10.4299  -14.8328 C   0  0  0  0  0  0  0  0  0  0  0  0
   21.5244  -10.7923  -13.6498 O   0  0  0  0  0  0  0  0  0  0  0  0
   21.5607   -6.3716  -15.6426 O   0  0  0  0  0  0  0  0  0  0  0  0
   21.6508   -6.8407  -14.3331 C   0  0  0  0  0  0  0  0  0  0  0  0
   20.8903   -8.1715  -14.1696 C   0  0  2  0  0  0  0  0  0  0  0  0
   21.5042   -9.0739  -15.1197 N   0  0  0  0  0  0  0  0  0  0  0  0
   19.4521   -7.9817  -14.3307 C   0  0  0  0  0  0  0  0  0  0  0  0
   18.9572   -8.1331  -15.5008 O   0  0  0  0  0  0  0  0  0  0  0  0
   12.6614  -10.9835   -9.8807 N   0  0  0  0  0  0  0  0  0  0  0  0
   12.1300   -9.9161  -10.6877 C   0  0  0  0  0  0  0  0  0  0  0  0
   10.8641   -9.7447  -10.6702 N   0  0  0  0  0  0  0  0  0  0  0  0
   12.9503   -9.0967  -11.4627 N   0  0  0  0  0  0  0  0  0  0  0  0
   14.4206   -9.2159  -11.3586 C   0  0  0  0  0  0  0  0  0  0  0  0
   14.9586   -8.3158  -12.4194 C   0  0  0  0  0  0  0  0  0  0  0  0
   16.3961   -8.1922  -12.5797 C   0  0  0  0  0  0  0  0  0  0  0  0
   17.0768   -7.4092  -13.6226 C   0  0  2  0  0  0  0  0  0  0  0  0
   18.5415   -7.6433  -13.3069 N   0  0  0  0  0  0  0  0  0  0  0  0
   16.8731   -5.9923  -13.7844 C   0  0  0  0  0  0  0  0  0  0  0  0
   17.6603   -5.1167  -13.2391 O   0  0  0  0  0  0  0  0  0  0  0  0
   15.8599   -5.4153  -14.5212 O   0  0  0  0  0  0  0  0  0  0  0  0
  2  1  1  6
  2  3  1  0
  4  2  1  0
  4  5  1  6
  4  6  1  0
  6  7  2  0
 10  9  1  6
  9  8  1  0
 10 12  1  0
 11  6  1  0
 11 10  1  0
 12 13  2  0
 15 14  1  0
 16 15  2  0
 17 15  1  0
 18 17  1  0
 19 18  1  0
 20 19  1  0
 21 20  1  1
 21 23  1  0
 22 21  1  0
 22 12  1  0
 23 25  1  0
 24 23  2  0
M  END
$$$$
