VSR.pdb
     RDKit          3D

 25 24  0  0  1  0  0  0  0  0999 V2000
   32.0708  -32.1520  -17.4529 C   0  0  0  0  0  0  0  0  0  0  0  0
   33.0140  -31.8357  -18.6245 C   0  0  2  0  0  0  0  0  0  0  0  0
   33.7343  -30.5697  -18.2151 C   0  0  0  0  0  0  0  0  0  0  0  0
   32.1167  -31.5119  -19.8027 C   0  0  2  0  0  0  0  0  0  0  0  0
   33.0551  -31.2474  -20.9184 N   0  0  0  0  0  0  0  0  0  0  0  0
   31.3214  -30.2812  -19.6205 C   0  0  0  0  0  0  0  0  0  0  0  0
   30.4863  -30.2366  -18.6736 O   0  0  0  0  0  0  0  0  0  0  0  0
   32.2508  -26.3133  -20.1399 O   0  0  0  0  0  0  0  0  0  0  0  0
   31.2192  -26.8064  -20.9372 C   0  0  0  0  0  0  0  0  0  0  0  0
   30.5043  -27.9855  -20.2484 C   0  0  2  0  0  0  0  0  0  0  0  0
   31.3964  -29.1129  -20.4122 N   0  0  0  0  0  0  0  0  0  0  0  0
   29.1591  -28.1731  -20.7829 C   0  0  0  0  0  0  0  0  0  0  0  0
   29.0375  -28.8182  -21.8812 O   0  0  0  0  0  0  0  0  0  0  0  0
   24.0546  -30.8933  -16.1761 N   0  0  0  0  0  0  0  0  0  0  0  0
   25.1519  -31.6829  -16.6714 C   0  0  0  0  0  0  0  0  0  0  0  0
   25.6338  -32.5702  -15.8887 N   0  0  0  0  0  0  0  0  0  0  0  0
   25.6786  -31.4969  -17.9494 N   0  0  0  0  0  0  0  0  0  0  0  0
   26.3572  -30.2278  -18.2892 C   0  0  0  0  0  0  0  0  0  0  0  0
   25.3526  -29.4475  -19.0683 C   0  0  0  0  0  0  0  0  0  0  0  0
   25.7450  -28.1811  -19.6596 C   0  0  0  0  0  0  0  0  0  0  0  0
   26.6204  -28.0181  -20.8307 C   0  0  2  0  0  0  0  0  0  0  0  0
   27.9627  -27.7063  -20.1976 N   0  0  0  0  0  0  0  0  0  0  0  0
   26.3686  -27.0376  -21.8556 C   0  0  0  0  0  0  0  0  0  0  0  0
   27.0084  -25.9097  -21.9017 O   0  0  0  0  0  0  0  0  0  0  0  0
   25.4578  -27.1783  -22.8817 O   0  0  0  0  0  0  0  0  0  0  0  0
  2  1  1  1
  2  3  1  0
  4  2  1  0
  4  5  1  6
  4  6  1  0
  6  7  2  0
 10  9  1  6
  9  8  1  0
 10 12  1  0
 11  6  1  0
 11 10  1  0
 12 13  2  0
 15 14  1  0
 16 15  2  0
 17 15  1  0
 18 17  1  0
 19 18  1  0
 20 19  1  0
 21 20  1  1
 21 23  1  0
 22 21  1  0
 22 12  1  0
 23 25  1  0
 24 23  2  0
M  END
$$$$
