VSR.pdb
     RDKit          3D

 25 24  0  0  1  0  0  0  0  0999 V2000
   26.6933  -20.0715  -11.4564 C   0  0  0  0  0  0  0  0  0  0  0  0
   25.5433  -20.5871  -10.5767 C   0  0  2  0  0  0  0  0  0  0  0  0
   26.2001  -21.5189   -9.5819 C   0  0  0  0  0  0  0  0  0  0  0  0
   24.6612  -21.4140  -11.4911 C   0  0  2  0  0  0  0  0  0  0  0  0
   25.5944  -22.3598  -12.1467 N   0  0  0  0  0  0  0  0  0  0  0  0
   24.0283  -20.6304  -12.5707 C   0  0  0  0  0  0  0  0  0  0  0  0
   23.1570  -19.7695  -12.2610 O   0  0  0  0  0  0  0  0  0  0  0  0
   25.2791  -21.1090  -16.2785 O   0  0  0  0  0  0  0  0  0  0  0  0
   24.5097  -19.9509  -16.1802 C   0  0  0  0  0  0  0  0  0  0  0  0
   23.5617  -20.0190  -14.9667 C   0  0  2  0  0  0  0  0  0  0  0  0
   24.3006  -20.7405  -13.9531 N   0  0  0  0  0  0  0  0  0  0  0  0
   22.2750  -20.6026  -15.3331 C   0  0  0  0  0  0  0  0  0  0  0  0
   22.1462  -21.8720  -15.2375 O   0  0  0  0  0  0  0  0  0  0  0  0
   18.1435  -16.8338  -20.9196 N   0  0  0  0  0  0  0  0  0  0  0  0
   19.1087  -16.2508  -20.0244 C   0  0  0  0  0  0  0  0  0  0  0  0
   19.7860  -15.2591  -20.4603 N   0  0  0  0  0  0  0  0  0  0  0  0
   19.3083  -16.7388  -18.7332 N   0  0  0  0  0  0  0  0  0  0  0  0
   18.7604  -18.0581  -18.3511 C   0  0  0  0  0  0  0  0  0  0  0  0
   19.1686  -18.2504  -16.9294 C   0  0  0  0  0  0  0  0  0  0  0  0
   18.8957  -19.5202  -16.2811 C   0  0  0  0  0  0  0  0  0  0  0  0
   19.8561  -20.6230  -16.1203 C   0  0  2  0  0  0  0  0  0  0  0  0
   21.1432  -19.8930  -15.7883 N   0  0  0  0  0  0  0  0  0  0  0  0
   20.1340  -21.5677  -17.1717 C   0  0  0  0  0  0  0  0  0  0  0  0
   21.1534  -21.4366  -17.9637 O   0  0  0  0  0  0  0  0  0  0  0  0
   19.3837  -22.6918  -17.4472 O   0  0  0  0  0  0  0  0  0  0  0  0
  2  1  1  6
  2  3  1  0
  4  2  1  0
  4  5  1  6
  4  6  1  0
  6  7  2  0
 10  9  1  6
  9  8  1  0
 10 12  1  0
 11  6  1  0
 11 10  1  0
 12 13  2  0
 15 14  1  0
 16 15  2  0
 17 15  1  0
 18 17  1  0
 19 18  1  0
 20 19  1  0
 21 20  1  6
 21 23  1  0
 22 21  1  0
 22 12  1  0
 23 25  1  0
 24 23  2  0
M  END
$$$$
