VSR.pdb
     RDKit          3D

 25 24  0  0  1  0  0  0  0  0999 V2000
   25.6386  -15.2224  -15.1911 C   0  0  0  0  0  0  0  0  0  0  0  0
   26.5007  -16.4915  -15.2826 C   0  0  2  0  0  0  0  0  0  0  0  0
   27.6900  -16.0956  -16.1300 C   0  0  0  0  0  0  0  0  0  0  0  0
   25.6761  -17.4970  -16.0617 C   0  0  2  0  0  0  0  0  0  0  0  0
   25.4526  -16.8505  -17.3761 N   0  0  0  0  0  0  0  0  0  0  0  0
   24.3410  -17.7443  -15.4816 C   0  0  0  0  0  0  0  0  0  0  0  0
   24.2660  -18.3506  -14.3757 O   0  0  0  0  0  0  0  0  0  0  0  0
   21.0793  -15.2286  -15.4524 O   0  0  0  0  0  0  0  0  0  0  0  0
   20.8955  -16.4928  -16.0102 C   0  0  0  0  0  0  0  0  0  0  0  0
   21.8371  -17.5255  -15.3600 C   0  0  2  0  0  0  0  0  0  0  0  0
   23.1017  -17.3636  -16.0443 N   0  0  0  0  0  0  0  0  0  0  0  0
   21.2672  -18.8682  -15.4142 C   0  0  0  0  0  0  0  0  0  0  0  0
   21.4558  -19.5545  -16.4774 O   0  0  0  0  0  0  0  0  0  0  0  0
   21.6367  -26.0643  -13.6373 N   0  0  0  0  0  0  0  0  0  0  0  0
   21.0252  -25.9530  -12.3386 C   0  0  0  0  0  0  0  0  0  0  0  0
   21.3064  -26.8570  -11.4807 N   0  0  0  0  0  0  0  0  0  0  0  0
   20.1587  -24.9087  -12.0167 N   0  0  0  0  0  0  0  0  0  0  0  0
   19.7185  -23.9659  -13.0675 C   0  0  0  0  0  0  0  0  0  0  0  0
   20.8237  -22.9710  -13.1834 C   0  0  0  0  0  0  0  0  0  0  0  0
   20.4963  -21.5639  -13.3258 C   0  0  0  0  0  0  0  0  0  0  0  0
   20.0234  -20.9158  -14.5590 C   0  0  2  0  0  0  0  0  0  0  0  0
   20.5184  -19.4920  -14.3934 N   0  0  0  0  0  0  0  0  0  0  0  0
   18.6306  -20.8675  -14.9236 C   0  0  0  0  0  0  0  0  0  0  0  0
   17.9030  -19.8115  -14.7255 O   0  0  0  0  0  0  0  0  0  0  0  0
   17.9293  -21.8967  -15.5164 O   0  0  0  0  0  0  0  0  0  0  0  0
  2  1  1  6
  2  3  1  0
  4  2  1  0
  4  5  1  6
  4  6  1  0
  6  7  2  0
 10  9  1  6
  9  8  1  0
 10 12  1  0
 11  6  1  0
 11 10  1  0
 12 13  2  0
 15 14  1  0
 16 15  2  0
 17 15  1  0
 18 17  1  0
 19 18  1  0
 20 19  1  0
 21 20  1  1
 21 23  1  0
 22 21  1  0
 22 12  1  0
 23 25  1  0
 24 23  2  0
M  END
$$$$
