VSR.pdb
     RDKit          3D

 25 24  0  0  1  0  0  0  0  0999 V2000
   24.3398  -15.7178  -15.1129 C   0  0  0  0  0  0  0  0  0  0  0  0
   25.0568  -14.5339  -15.7813 C   0  0  2  0  0  0  0  0  0  0  0  0
   24.1191  -13.3596  -15.6052 C   0  0  0  0  0  0  0  0  0  0  0  0
   25.1242  -14.8706  -17.2578 C   0  0  2  0  0  0  0  0  0  0  0  0
   23.7750  -14.5393  -17.7730 N   0  0  0  0  0  0  0  0  0  0  0  0
   25.3374  -16.3064  -17.5285 C   0  0  0  0  0  0  0  0  0  0  0  0
   24.3416  -17.0828  -17.4889 O   0  0  0  0  0  0  0  0  0  0  0  0
   29.0934  -18.1288  -17.6154 O   0  0  0  0  0  0  0  0  0  0  0  0
   28.1508  -18.5409  -18.5560 C   0  0  0  0  0  0  0  0  0  0  0  0
   26.7176  -18.3521  -18.0210 C   0  0  2  0  0  0  0  0  0  0  0  0
   26.5702  -16.9243  -17.8381 N   0  0  0  0  0  0  0  0  0  0  0  0
   26.4884  -19.1598  -16.8271 C   0  0  0  0  0  0  0  0  0  0  0  0
   26.7976  -18.6519  -15.6941 O   0  0  0  0  0  0  0  0  0  0  0  0
   20.7743  -20.7724  -12.7277 N   0  0  0  0  0  0  0  0  0  0  0  0
   20.7390  -22.0850  -13.3180 C   0  0  0  0  0  0  0  0  0  0  0  0
   19.6049  -22.6706  -13.3735 N   0  0  0  0  0  0  0  0  0  0  0  0
   21.8869  -22.7048  -13.8112 N   0  0  0  0  0  0  0  0  0  0  0  0
   23.2158  -22.1129  -13.5456 C   0  0  0  0  0  0  0  0  0  0  0  0
   23.3835  -21.0551  -14.5838 C   0  0  0  0  0  0  0  0  0  0  0  0
   24.7060  -20.5095  -14.8300 C   0  0  0  0  0  0  0  0  0  0  0  0
   25.8142  -21.2166  -15.4906 C   0  0  2  0  0  0  0  0  0  0  0  0
   25.9507  -20.4644  -16.8003 N   0  0  0  0  0  0  0  0  0  0  0  0
   25.7678  -22.6260  -15.7849 C   0  0  0  0  0  0  0  0  0  0  0  0
   25.5104  -23.0729  -16.9756 O   0  0  0  0  0  0  0  0  0  0  0  0
   25.9944  -23.6351  -14.8723 O   0  0  0  0  0  0  0  0  0  0  0  0
  2  1  1  1
  2  3  1  0
  4  2  1  0
  4  5  1  6
  4  6  1  0
  6  7  2  0
 10  9  1  1
  9  8  1  0
 10 12  1  0
 11  6  1  0
 11 10  1  0
 12 13  2  0
 15 14  1  0
 16 15  2  0
 17 15  1  0
 18 17  1  0
 19 18  1  0
 20 19  1  0
 21 20  1  6
 21 23  1  0
 22 21  1  0
 22 12  1  0
 23 25  1  0
 24 23  2  0
M  END
$$$$
