VSR.pdb
     RDKit          3D

 25 24  0  0  1  0  0  0  0  0999 V2000
   23.9721  -13.0946  -16.0285 C   0  0  0  0  0  0  0  0  0  0  0  0
   23.1772  -13.4110  -17.3053 C   0  0  2  0  0  0  0  0  0  0  0  0
   24.2156  -13.8569  -18.3114 C   0  0  0  0  0  0  0  0  0  0  0  0
   22.6004  -12.0891  -17.7723 C   0  0  2  0  0  0  0  0  0  0  0  0
   23.7849  -11.2846  -18.1534 N   0  0  0  0  0  0  0  0  0  0  0  0
   21.9053  -11.3375  -16.7083 C   0  0  0  0  0  0  0  0  0  0  0  0
   20.8460  -11.8225  -16.2197 O   0  0  0  0  0  0  0  0  0  0  0  0
   21.7850   -8.2642  -13.0809 O   0  0  0  0  0  0  0  0  0  0  0  0
   22.4550   -8.9720  -14.0775 C   0  0  0  0  0  0  0  0  0  0  0  0
   21.4996   -9.3428  -15.2289 C   0  0  2  0  0  0  0  0  0  0  0  0
   22.3092  -10.0993  -16.1595 N   0  0  0  0  0  0  0  0  0  0  0  0
   20.8562   -8.1565  -15.7847 C   0  0  0  0  0  0  0  0  0  0  0  0
   21.4887   -7.4990  -16.6818 O   0  0  0  0  0  0  0  0  0  0  0  0
   12.3956   -8.2093  -16.1928 N   0  0  0  0  0  0  0  0  0  0  0  0
   13.2793   -8.9125  -17.0858 C   0  0  0  0  0  0  0  0  0  0  0  0
   12.7589   -9.7972  -17.8465 N   0  0  0  0  0  0  0  0  0  0  0  0
   14.6486   -8.6510  -17.1284 N   0  0  0  0  0  0  0  0  0  0  0  0
   15.2269   -7.6069  -16.2555 C   0  0  0  0  0  0  0  0  0  0  0  0
   16.6793   -7.5792  -16.5941 C   0  0  0  0  0  0  0  0  0  0  0  0
   17.5470   -6.6379  -15.9097 C   0  0  0  0  0  0  0  0  0  0  0  0
   18.9881   -6.4695  -16.1531 C   0  0  2  0  0  0  0  0  0  0  0  0
   19.5861   -7.6574  -15.4244 N   0  0  0  0  0  0  0  0  0  0  0  0
   19.7084   -5.2880  -15.7528 C   0  0  0  0  0  0  0  0  0  0  0  0
   20.3308   -5.2126  -14.6167 O   0  0  0  0  0  0  0  0  0  0  0  0
   19.8292   -4.1389  -16.5061 O   0  0  0  0  0  0  0  0  0  0  0  0
  2  1  1  1
  2  3  1  0
  4  2  1  0
  4  5  1  1
  4  6  1  0
  6  7  2  0
 10  9  1  1
  9  8  1  0
 10 12  1  0
 11  6  1  0
 11 10  1  0
 12 13  2  0
 15 14  1  0
 16 15  2  0
 17 15  1  0
 18 17  1  0
 19 18  1  0
 20 19  1  0
 21 20  1  1
 21 23  1  0
 22 21  1  0
 22 12  1  0
 23 25  1  0
 24 23  2  0
M  END
$$$$
