VSR.pdb
     RDKit          3D

 25 24  0  0  1  0  0  0  0  0999 V2000
   24.4693   -9.3132  -19.0555 C   0  0  0  0  0  0  0  0  0  0  0  0
   23.3261   -9.5909  -20.0446 C   0  0  2  0  0  0  0  0  0  0  0  0
   23.8643   -9.1648  -21.3930 C   0  0  0  0  0  0  0  0  0  0  0  0
   22.2063   -8.6444  -19.6596 C   0  0  2  0  0  0  0  0  0  0  0  0
   22.7965   -7.2940  -19.8127 N   0  0  0  0  0  0  0  0  0  0  0  0
   21.7889   -8.7641  -18.2483 C   0  0  0  0  0  0  0  0  0  0  0  0
   21.2027   -9.8207  -17.8795 O   0  0  0  0  0  0  0  0  0  0  0  0
   21.4545   -6.6716  -13.8330 O   0  0  0  0  0  0  0  0  0  0  0  0
   21.9505   -6.6945  -15.1354 C   0  0  0  0  0  0  0  0  0  0  0  0
   21.4203   -7.9191  -15.9069 C   0  0  2  0  0  0  0  0  0  0  0  0
   21.9813   -7.7977  -17.2351 N   0  0  0  0  0  0  0  0  0  0  0  0
   19.9636   -7.9895  -15.8501 C   0  0  0  0  0  0  0  0  0  0  0  0
   19.2978   -7.2104  -16.6162 O   0  0  0  0  0  0  0  0  0  0  0  0
   14.4920  -14.7901  -15.3087 N   0  0  0  0  0  0  0  0  0  0  0  0
   13.6954  -13.6209  -15.0419 C   0  0  0  0  0  0  0  0  0  0  0  0
   12.4374  -13.7909  -14.8984 N   0  0  0  0  0  0  0  0  0  0  0  0
   14.2594  -12.3491  -14.9433 N   0  0  0  0  0  0  0  0  0  0  0  0
   15.7196  -12.1764  -15.1001 C   0  0  0  0  0  0  0  0  0  0  0  0
   15.9540  -10.7101  -14.9585 C   0  0  0  0  0  0  0  0  0  0  0  0
   17.3095  -10.1987  -15.0503 C   0  0  0  0  0  0  0  0  0  0  0  0
   17.6923   -8.7786  -15.0194 C   0  0  2  0  0  0  0  0  0  0  0  0
   19.2073   -8.8458  -15.0214 N   0  0  0  0  0  0  0  0  0  0  0  0
   17.2836   -7.8888  -13.9627 C   0  0  0  0  0  0  0  0  0  0  0  0
   16.1106   -7.3344  -13.9444 O   0  0  0  0  0  0  0  0  0  0  0  0
   18.0573   -7.5397  -12.8756 O   0  0  0  0  0  0  0  0  0  0  0  0
  2  1  1  1
  2  3  1  0
  4  2  1  0
  4  5  1  1
  4  6  1  0
  6  7  2  0
 10  9  1  1
  9  8  1  0
 10 12  1  0
 11  6  1  0
 11 10  1  0
 12 13  2  0
 15 14  1  0
 16 15  2  0
 17 15  1  0
 18 17  1  0
 19 18  1  0
 20 19  1  0
 21 20  1  1
 21 23  1  0
 22 21  1  0
 22 12  1  0
 23 25  1  0
 24 23  2  0
M  END
$$$$
