VSR.pdb
     RDKit          3D

 25 24  0  0  1  0  0  0  0  0999 V2000
   26.3297  -18.8591  -15.3725 C   0  0  0  0  0  0  0  0  0  0  0  0
   26.8144  -19.5245  -14.0746 C   0  0  2  0  0  0  0  0  0  0  0  0
   28.1616  -20.1201  -14.4206 C   0  0  0  0  0  0  0  0  0  0  0  0
   25.8477  -20.6608  -13.8057 C   0  0  2  0  0  0  0  0  0  0  0  0
   25.9622  -21.5319  -14.9988 N   0  0  0  0  0  0  0  0  0  0  0  0
   24.4366  -20.2325  -13.7308 C   0  0  0  0  0  0  0  0  0  0  0  0
   24.0729  -19.5201  -12.7529 O   0  0  0  0  0  0  0  0  0  0  0  0
   22.1655  -20.4264  -16.8728 O   0  0  0  0  0  0  0  0  0  0  0  0
   21.5437  -19.7082  -15.8527 C   0  0  0  0  0  0  0  0  0  0  0  0
   22.0314  -20.1798  -14.4687 C   0  0  2  0  0  0  0  0  0  0  0  0
   23.4194  -20.5400  -14.6625 N   0  0  0  0  0  0  0  0  0  0  0  0
   21.1801  -21.2419  -13.9418 C   0  0  0  0  0  0  0  0  0  0  0  0
   21.6388  -22.4363  -13.9542 O   0  0  0  0  0  0  0  0  0  0  0  0
   19.0225  -25.9790   -7.5208 N   0  0  0  0  0  0  0  0  0  0  0  0
   18.3037  -24.7377   -7.3973 C   0  0  0  0  0  0  0  0  0  0  0  0
   17.5523  -24.5967   -6.3737 N   0  0  0  0  0  0  0  0  0  0  0  0
   18.4116  -23.7234   -8.3484 N   0  0  0  0  0  0  0  0  0  0  0  0
   19.1978  -23.9489   -9.5804 C   0  0  0  0  0  0  0  0  0  0  0  0
   19.1947  -22.6359  -10.2880 C   0  0  0  0  0  0  0  0  0  0  0  0
   19.8186  -22.5357  -11.5950 C   0  0  0  0  0  0  0  0  0  0  0  0
   19.1175  -22.2644  -12.8595 C   0  0  2  0  0  0  0  0  0  0  0  0
   19.8824  -21.0772  -13.4121 N   0  0  0  0  0  0  0  0  0  0  0  0
   17.7110  -21.9577  -12.9151 C   0  0  0  0  0  0  0  0  0  0  0  0
   17.2754  -20.7408  -13.0289 O   0  0  0  0  0  0  0  0  0  0  0  0
   16.6936  -22.8878  -12.8672 O   0  0  0  0  0  0  0  0  0  0  0  0
  2  1  1  6
  2  3  1  0
  4  2  1  0
  4  5  1  6
  4  6  1  0
  6  7  2  0
 10  9  1  6
  9  8  1  0
 10 12  1  0
 11  6  1  0
 11 10  1  0
 12 13  2  0
 15 14  1  0
 16 15  2  0
 17 15  1  0
 18 17  1  0
 19 18  1  0
 20 19  1  0
 21 20  1  1
 21 23  1  0
 22 21  1  0
 22 12  1  0
 23 25  1  0
 24 23  2  0
M  END
$$$$
