NPC.pdb
     RDKit          3D

 22 22  0  0  1  0  0  0  0  0999 V2000
   10.6726  -19.9462   19.6562 N   0  0  0  0  0  0  0  0  0  0  0  0
   11.6604  -19.2388   20.4138 C   0  0  0  0  0  0  0  0  0  0  0  0
   12.8861  -19.5556   20.3209 O   0  0  0  0  0  0  0  0  0  0  0  0
   11.2294  -18.1301   21.3061 C   0  0  0  0  0  0  0  0  0  0  0  0
   10.6181  -16.9970   20.4851 C   0  0  2  0  0  0  0  0  0  0  0  0
   11.7035  -16.4706   19.6198 N   0  0  0  0  0  0  0  0  0  0  0  0
   10.1467  -15.8968   21.3484 C   0  0  0  0  0  0  0  0  0  0  0  0
   11.0185  -15.1957   21.8963 O   0  0  0  0  0  0  0  0  0  0  0  0
    8.7864  -15.6169   21.5695 N   0  0  0  0  0  0  0  0  0  0  0  0
    7.8050  -15.7825   20.4680 C   0  0  0  0  0  0  0  0  0  0  0  0
    6.5091  -16.1818   21.1290 C   0  0  0  0  0  0  0  0  0  0  0  0
    6.8169  -16.1924   22.6062 C   0  0  0  0  0  0  0  0  0  0  0  0
    7.9880  -15.1703   22.6472 C   0  0  1  0  0  0  0  0  0  0  0  0
    8.5011  -15.2049   23.9997 C   0  0  0  0  0  0  0  0  0  0  0  0
    9.3414  -16.0254   24.3930 O   0  0  0  0  0  0  0  0  0  0  0  0
    8.0624  -14.2676   25.0157 N   0  0  0  0  0  0  0  0  0  0  0  0
    8.5279  -14.3090   26.3632 C   0  0  1  0  0  0  0  0  0  0  0  0
    7.9062  -13.2208   27.2554 C   0  0  0  0  0  0  0  0  0  0  0  0
    7.8039  -11.7395   26.1810 S   0  0  0  0  0  0  0  0  0  0  0  0
    8.1245  -15.5945   26.9797 C   0  0  0  0  0  0  0  0  0  0  0  0
    7.2401  -16.2878   26.4286 O   0  0  0  0  0  0  0  0  0  0  0  0
    8.6756  -16.0972   28.1606 O   0  0  0  0  0  0  0  0  0  0  0  0
  1  2  1  0
  2  3  2  0
  4  2  1  0
  4  5  1  0
  5  6  1  6
  7  5  1  0
  7  8  2  0
  9  7  1  0
 10  9  1  0
 11 10  1  0
 11 12  1  0
 12 13  1  0
 13  9  1  0
 13 14  1  1
 15 14  2  0
 16 14  1  0
 17 20  1  0
 17 16  1  0
 17 18  1  1
 19 18  1  0
 20 22  1  0
 21 20  2  0
M  END
$$$$
