NPC.pdb
     RDKit          3D

 22 22  0  0  1  0  0  0  0  0999 V2000
    9.3917  -19.3202   20.9591 N   0  0  0  0  0  0  0  0  0  0  0  0
    7.9826  -19.0669   20.9356 C   0  0  0  0  0  0  0  0  0  0  0  0
    7.1760  -19.8864   21.4730 O   0  0  0  0  0  0  0  0  0  0  0  0
    7.4815  -17.8320   20.2758 C   0  0  0  0  0  0  0  0  0  0  0  0
    8.6513  -16.9820   19.7852 C   0  0  2  0  0  0  0  0  0  0  0  0
    9.7967  -17.9081   19.6004 N   0  0  0  0  0  0  0  0  0  0  0  0
    9.0394  -15.9676   20.7844 C   0  0  0  0  0  0  0  0  0  0  0  0
    9.8360  -16.3259   21.6726 O   0  0  0  0  0  0  0  0  0  0  0  0
    8.5572  -14.6466   20.7718 N   0  0  0  0  0  0  0  0  0  0  0  0
    8.0159  -14.0652   19.5177 C   0  0  0  0  0  0  0  0  0  0  0  0
    6.9461  -13.0911   19.9448 C   0  0  0  0  0  0  0  0  0  0  0  0
    6.9551  -13.1453   21.4528 C   0  0  0  0  0  0  0  0  0  0  0  0
    8.4247  -13.5889   21.7002 C   0  0  1  0  0  0  0  0  0  0  0  0
    8.5306  -13.8460   23.1202 C   0  0  0  0  0  0  0  0  0  0  0  0
    9.5883  -14.1609   23.6825 O   0  0  0  0  0  0  0  0  0  0  0  0
    7.3877  -13.7550   24.0083 N   0  0  0  0  0  0  0  0  0  0  0  0
    7.4748  -13.9895   25.4124 C   0  0  1  0  0  0  0  0  0  0  0  0
    6.2165  -13.5517   26.1816 C   0  0  0  0  0  0  0  0  0  0  0  0
    6.1616  -11.7301   25.9873 S   0  0  0  0  0  0  0  0  0  0  0  0
    7.5934  -15.4459   25.6576 C   0  0  0  0  0  0  0  0  0  0  0  0
    7.3353  -16.2465   24.7309 O   0  0  0  0  0  0  0  0  0  0  0  0
    7.9819  -15.9994   26.8797 O   0  0  0  0  0  0  0  0  0  0  0  0
  1  2  1  0
  2  3  2  0
  4  2  1  0
  4  5  1  0
  5  6  1  1
  7  5  1  0
  7  8  2  0
  9  7  1  0
 10  9  1  0
 11 10  1  0
 11 12  1  0
 12 13  1  0
 13  9  1  0
 13 14  1  1
 15 14  2  0
 16 14  1  0
 17 20  1  0
 17 16  1  0
 17 18  1  1
 19 18  1  0
 20 22  1  0
 21 20  2  0
M  END
$$$$
