NPC.pdb
     RDKit          3D

 22 22  0  0  1  0  0  0  0  0999 V2000
    7.0472  -19.7418   21.4077 N   0  0  0  0  0  0  0  0  0  0  0  0
    6.0351  -18.8676   21.9191 C   0  0  0  0  0  0  0  0  0  0  0  0
    5.3465  -19.2077   22.9297 O   0  0  0  0  0  0  0  0  0  0  0  0
    5.8059  -17.5589   21.2512 C   0  0  0  0  0  0  0  0  0  0  0  0
    6.8623  -17.3221   20.1743 C   0  0  2  0  0  0  0  0  0  0  0  0
    7.4319  -18.6524   19.8431 N   0  0  0  0  0  0  0  0  0  0  0  0
    7.9573  -16.4657   20.6697 C   0  0  0  0  0  0  0  0  0  0  0  0
    8.8331  -17.0147   21.3650 O   0  0  0  0  0  0  0  0  0  0  0  0
    8.0475  -15.0897   20.3934 N   0  0  0  0  0  0  0  0  0  0  0  0
    7.5814  -14.5622   19.0863 C   0  0  0  0  0  0  0  0  0  0  0  0
    7.0772  -13.1675   19.3625 C   0  0  0  0  0  0  0  0  0  0  0  0
    7.3163  -12.9560   20.8374 C   0  0  0  0  0  0  0  0  0  0  0  0
    8.5056  -13.9320   21.0627 C   0  0  1  0  0  0  0  0  0  0  0  0
    8.7365  -13.9572   22.4909 C   0  0  0  0  0  0  0  0  0  0  0  0
    8.5544  -12.9815   23.2318 O   0  0  0  0  0  0  0  0  0  0  0  0
    9.2082  -15.1454   23.1755 N   0  0  0  0  0  0  0  0  0  0  0  0
    9.4610  -15.1844   24.5785 C   0  0  1  0  0  0  0  0  0  0  0  0
    8.1968  -14.9777   25.4306 C   0  0  0  0  0  0  0  0  0  0  0  0
    7.0280  -16.2646   24.8501 S   0  0  0  0  0  0  0  0  0  0  0  0
    9.9626  -16.5290   24.9470 C   0  0  0  0  0  0  0  0  0  0  0  0
    9.9294  -17.4491   24.0993 O   0  0  0  0  0  0  0  0  0  0  0  0
   10.4816  -16.8477   26.2040 O   0  0  0  0  0  0  0  0  0  0  0  0
  1  2  1  0
  2  3  2  0
  4  2  1  0
  4  5  1  0
  5  6  1  1
  7  5  1  0
  7  8  2  0
  9  7  1  0
 10  9  1  0
 11 10  1  0
 11 12  1  0
 12 13  1  0
 13  9  1  0
 13 14  1  1
 15 14  2  0
 16 14  1  0
 17 20  1  0
 17 16  1  0
 17 18  1  1
 19 18  1  0
 20 22  1  0
 21 20  2  0
M  END
$$$$
