NPC.pdb
     RDKit          3D

 22 22  0  0  1  0  0  0  0  0999 V2000
   10.7398  -19.6550   18.7934 N   0  0  0  0  0  0  0  0  0  0  0  0
   11.8763  -19.2237   19.5500 C   0  0  0  0  0  0  0  0  0  0  0  0
   12.9532  -19.8953   19.5265 O   0  0  0  0  0  0  0  0  0  0  0  0
   11.7760  -17.9800   20.3591 C   0  0  0  0  0  0  0  0  0  0  0  0
   10.3791  -17.3767   20.2313 C   0  0  2  0  0  0  0  0  0  0  0  0
   10.3256  -16.7153   18.9034 N   0  0  0  0  0  0  0  0  0  0  0  0
   10.1366  -16.3506   21.2639 C   0  0  0  0  0  0  0  0  0  0  0  0
   11.0949  -16.0557   22.0031 O   0  0  0  0  0  0  0  0  0  0  0  0
    8.8973  -15.7094   21.4400 N   0  0  0  0  0  0  0  0  0  0  0  0
    7.9508  -15.5965   20.3018 C   0  0  0  0  0  0  0  0  0  0  0  0
    6.5709  -15.6277   20.9105 C   0  0  0  0  0  0  0  0  0  0  0  0
    6.8075  -15.7268   22.3976 C   0  0  0  0  0  0  0  0  0  0  0  0
    8.2111  -15.0647   22.4943 C   0  0  1  0  0  0  0  0  0  0  0  0
    8.6432  -15.2427   23.8637 C   0  0  0  0  0  0  0  0  0  0  0  0
    9.0398  -16.3228   24.3221 O   0  0  0  0  0  0  0  0  0  0  0  0
    8.6432  -14.1532   24.8208 N   0  0  0  0  0  0  0  0  0  0  0  0
    9.0053  -14.3222   26.1898 C   0  0  1  0  0  0  0  0  0  0  0  0
    8.7466  -13.0709   27.0466 C   0  0  0  0  0  0  0  0  0  0  0  0
    9.4485  -13.4781   28.6900 S   0  0  0  0  0  0  0  0  0  0  0  0
    8.1647  -15.3847   26.7895 C   0  0  0  0  0  0  0  0  0  0  0  0
    6.9369  -15.4047   26.5474 O   0  0  0  0  0  0  0  0  0  0  0  0
    8.6592  -16.3882   27.6257 O   0  0  0  0  0  0  0  0  0  0  0  0
  1  2  1  0
  2  3  2  0
  4  2  1  0
  4  5  1  0
  5  6  1  6
  7  5  1  0
  7  8  2  0
  9  7  1  0
 10  9  1  0
 11 10  1  0
 11 12  1  0
 12 13  1  0
 13  9  1  0
 13 14  1  1
 15 14  2  0
 16 14  1  0
 17 20  1  0
 17 16  1  0
 17 18  1  1
 19 18  1  0
 20 22  1  0
 21 20  2  0
M  END
$$$$
