NPC.pdb
     RDKit          3D

 22 22  0  0  1  0  0  0  0  0999 V2000
   11.1002  -18.9982   19.1011 N   0  0  0  0  0  0  0  0  0  0  0  0
   11.1513  -17.5748   18.9546 C   0  0  0  0  0  0  0  0  0  0  0  0
   11.8267  -17.0519   18.0157 O   0  0  0  0  0  0  0  0  0  0  0  0
   10.4016  -16.7222   19.9151 C   0  0  0  0  0  0  0  0  0  0  0  0
    9.7935  -17.5806   21.0218 C   0  0  2  0  0  0  0  0  0  0  0  0
    8.4372  -17.9670   20.5582 N   0  0  0  0  0  0  0  0  0  0  0  0
    9.6484  -16.8201   22.2783 C   0  0  0  0  0  0  0  0  0  0  0  0
   10.5708  -16.0367   22.5738 O   0  0  0  0  0  0  0  0  0  0  0  0
    8.5374  -16.9427   23.1317 N   0  0  0  0  0  0  0  0  0  0  0  0
    7.3101  -17.6315   22.6594 C   0  0  0  0  0  0  0  0  0  0  0  0
    6.7025  -18.2727   23.8823 C   0  0  0  0  0  0  0  0  0  0  0  0
    7.6167  -17.8814   25.0173 C   0  0  0  0  0  0  0  0  0  0  0  0
    8.2031  -16.5577   24.4501 C   0  0  1  0  0  0  0  0  0  0  0  0
    9.2373  -16.1498   25.3763 C   0  0  0  0  0  0  0  0  0  0  0  0
   10.3767  -16.6352   25.3883 O   0  0  0  0  0  0  0  0  0  0  0  0
    9.0151  -15.1262   26.3793 N   0  0  0  0  0  0  0  0  0  0  0  0
    9.9962  -14.7626   27.3483 C   0  0  1  0  0  0  0  0  0  0  0  0
    9.6238  -13.5022   28.1481 C   0  0  0  0  0  0  0  0  0  0  0  0
    8.5204  -12.5528   27.0344 S   0  0  0  0  0  0  0  0  0  0  0  0
   10.1107  -15.8427   28.3561 C   0  0  0  0  0  0  0  0  0  0  0  0
    9.2568  -16.7575   28.3738 O   0  0  0  0  0  0  0  0  0  0  0  0
   11.1291  -15.9117   29.3095 O   0  0  0  0  0  0  0  0  0  0  0  0
  1  2  1  0
  2  3  2  0
  4  2  1  0
  4  5  1  0
  5  6  1  6
  7  5  1  0
  7  8  2  0
  9  7  1  0
 10  9  1  0
 11 10  1  0
 11 12  1  0
 12 13  1  0
 13  9  1  0
 13 14  1  1
 15 14  2  0
 16 14  1  0
 17 20  1  0
 17 16  1  0
 17 18  1  1
 19 18  1  0
 20 22  1  0
 21 20  2  0
M  END
$$$$
