NPC.pdb
     RDKit          3D

 22 22  0  0  1  0  0  0  0  0999 V2000
    7.1433  -19.2500   21.6092 N   0  0  0  0  0  0  0  0  0  0  0  0
    5.9458  -18.4945   21.8219 C   0  0  0  0  0  0  0  0  0  0  0  0
    5.1806  -18.7688   22.7968 O   0  0  0  0  0  0  0  0  0  0  0  0
    5.6151  -17.3862   20.8871 C   0  0  0  0  0  0  0  0  0  0  0  0
    6.8007  -17.0963   19.9695 C   0  0  2  0  0  0  0  0  0  0  0  0
    7.3581  -18.4136   19.5723 N   0  0  0  0  0  0  0  0  0  0  0  0
    7.8583  -16.3451   20.6731 C   0  0  0  0  0  0  0  0  0  0  0  0
    8.5319  -16.9712   21.5134 O   0  0  0  0  0  0  0  0  0  0  0  0
    8.1277  -14.9852   20.4368 N   0  0  0  0  0  0  0  0  0  0  0  0
    8.0040  -14.4306   19.0652 C   0  0  0  0  0  0  0  0  0  0  0  0
    7.5776  -12.9942   19.2399 C   0  0  0  0  0  0  0  0  0  0  0  0
    7.5098  -12.7910   20.7336 C   0  0  0  0  0  0  0  0  0  0  0  0
    8.5309  -13.8664   21.2010 C   0  0  1  0  0  0  0  0  0  0  0  0
    8.4442  -13.8987   22.6450 C   0  0  0  0  0  0  0  0  0  0  0  0
    7.7924  -13.0825   23.3107 O   0  0  0  0  0  0  0  0  0  0  0  0
    9.1261  -14.9042   23.4368 N   0  0  0  0  0  0  0  0  0  0  0  0
    8.9871  -15.0034   24.8527 C   0  0  1  0  0  0  0  0  0  0  0  0
    7.5719  -15.4102   25.2982 C   0  0  0  0  0  0  0  0  0  0  0  0
    6.6219  -13.8430   25.3206 S   0  0  0  0  0  0  0  0  0  0  0  0
    9.8766  -16.0760   25.3565 C   0  0  0  0  0  0  0  0  0  0  0  0
   10.5274  -16.7664   24.5403 O   0  0  0  0  0  0  0  0  0  0  0  0
   10.0423  -16.3766   26.7104 O   0  0  0  0  0  0  0  0  0  0  0  0
  1  2  1  0
  2  3  2  0
  4  2  1  0
  4  5  1  0
  5  6  1  1
  7  5  1  0
  7  8  2  0
  9  7  1  0
 10  9  1  0
 11 10  1  0
 11 12  1  0
 12 13  1  0
 13  9  1  0
 13 14  1  1
 15 14  2  0
 16 14  1  0
 17 20  1  0
 17 16  1  0
 17 18  1  6
 19 18  1  0
 20 22  1  0
 21 20  2  0
M  END
$$$$
