NPC.pdb
     RDKit          3D

 22 22  0  0  1  0  0  0  0  0999 V2000
    5.3511  -18.6044   17.4234 N   0  0  0  0  0  0  0  0  0  0  0  0
    6.6359  -18.4507   16.8105 C   0  0  0  0  0  0  0  0  0  0  0  0
    6.7555  -18.5201   15.5487 O   0  0  0  0  0  0  0  0  0  0  0  0
    7.8232  -18.2075   17.6723 C   0  0  0  0  0  0  0  0  0  0  0  0
    8.4042  -16.8230   17.3944 C   0  0  2  0  0  0  0  0  0  0  0  0
    9.3670  -16.9868   16.2763 N   0  0  0  0  0  0  0  0  0  0  0  0
    9.1422  -16.3018   18.5613 C   0  0  0  0  0  0  0  0  0  0  0  0
   10.1274  -16.9599   18.9463 O   0  0  0  0  0  0  0  0  0  0  0  0
    8.7851  -15.1213   19.2371 N   0  0  0  0  0  0  0  0  0  0  0  0
    8.2972  -13.9461   18.4724 C   0  0  0  0  0  0  0  0  0  0  0  0
    7.3238  -13.2391   19.3826 C   0  0  0  0  0  0  0  0  0  0  0  0
    7.3314  -14.0468   20.6572 C   0  0  0  0  0  0  0  0  0  0  0  0
    8.7539  -14.6695   20.5761 C   0  0  1  0  0  0  0  0  0  0  0  0
    8.8389  -15.6149   21.6682 C   0  0  0  0  0  0  0  0  0  0  0  0
    7.9705  -16.4649   21.9078 O   0  0  0  0  0  0  0  0  0  0  0  0
    9.9646  -15.6392   22.5821 N   0  0  0  0  0  0  0  0  0  0  0  0
   10.0934  -16.5978   23.6302 C   0  0  1  0  0  0  0  0  0  0  0  0
   11.0517  -17.7510   23.2857 C   0  0  0  0  0  0  0  0  0  0  0  0
   12.5740  -16.9276   22.6827 S   0  0  0  0  0  0  0  0  0  0  0  0
   10.6850  -15.9431   24.8205 C   0  0  0  0  0  0  0  0  0  0  0  0
   11.0505  -14.7485   24.7448 O   0  0  0  0  0  0  0  0  0  0  0  0
   10.8674  -16.5821   26.0490 O   0  0  0  0  0  0  0  0  0  0  0  0
  1  2  1  0
  2  3  2  0
  4  2  1  0
  4  5  1  0
  5  6  1  6
  7  5  1  0
  7  8  2  0
  9  7  1  0
 10  9  1  0
 11 10  1  0
 11 12  1  0
 12 13  1  0
 13  9  1  0
 13 14  1  1
 15 14  2  0
 16 14  1  0
 17 20  1  0
 17 16  1  0
 17 18  1  6
 19 18  1  0
 20 22  1  0
 21 20  2  0
M  END
$$$$
