NPC.pdb
     RDKit          3D

 22 22  0  0  1  0  0  0  0  0999 V2000
    6.4228  -18.9868   15.8863 N   0  0  0  0  0  0  0  0  0  0  0  0
    7.1776  -17.7812   15.7226 C   0  0  0  0  0  0  0  0  0  0  0  0
    6.9556  -17.0164   14.7341 O   0  0  0  0  0  0  0  0  0  0  0  0
    8.2202  -17.4395   16.7263 C   0  0  0  0  0  0  0  0  0  0  0  0
    8.7686  -16.0387   16.4641 C   0  0  2  0  0  0  0  0  0  0  0  0
    9.7026  -16.1599   15.3166 N   0  0  0  0  0  0  0  0  0  0  0  0
    9.5293  -15.5301   17.6219 C   0  0  0  0  0  0  0  0  0  0  0  0
   10.6051  -16.1004   17.8853 O   0  0  0  0  0  0  0  0  0  0  0  0
    9.0976  -14.4540   18.4177 N   0  0  0  0  0  0  0  0  0  0  0  0
    8.4576  -13.2727   17.7862 C   0  0  0  0  0  0  0  0  0  0  0  0
    7.4718  -12.7483   18.8006 C   0  0  0  0  0  0  0  0  0  0  0  0
    7.6269  -13.6575   19.9949 C   0  0  0  0  0  0  0  0  0  0  0  0
    9.0963  -14.1242   19.7923 C   0  0  1  0  0  0  0  0  0  0  0  0
    9.3316  -15.1464   20.7889 C   0  0  0  0  0  0  0  0  0  0  0  0
    8.6007  -16.1343   20.9431 O   0  0  0  0  0  0  0  0  0  0  0  0
   10.4586  -15.0911   21.7000 N   0  0  0  0  0  0  0  0  0  0  0  0
   10.7237  -16.1028   22.6695 C   0  0  1  0  0  0  0  0  0  0  0  0
   11.9882  -15.8309   23.5026 C   0  0  0  0  0  0  0  0  0  0  0  0
   12.2205  -17.3472   24.5056 S   0  0  0  0  0  0  0  0  0  0  0  0
    9.6134  -16.1425   23.6498 C   0  0  0  0  0  0  0  0  0  0  0  0
    9.0598  -15.0736   23.9925 O   0  0  0  0  0  0  0  0  0  0  0  0
    9.1312  -17.3174   24.2312 O   0  0  0  0  0  0  0  0  0  0  0  0
  1  2  1  0
  2  3  2  0
  4  2  1  0
  4  5  1  0
  5  6  1  6
  7  5  1  0
  7  8  2  0
  9  7  1  0
 10  9  1  0
 11 10  1  0
 11 12  1  0
 12 13  1  0
 13  9  1  0
 13 14  1  1
 15 14  2  0
 16 14  1  0
 17 20  1  0
 17 16  1  0
 17 18  1  1
 19 18  1  0
 20 22  1  0
 21 20  2  0
M  END
$$$$
