NPC.pdb
     RDKit          3D

 22 22  0  0  1  0  0  0  0  0999 V2000
    6.4443  -19.7802   16.9526 N   0  0  0  0  0  0  0  0  0  0  0  0
    6.6972  -18.3742   16.8557 C   0  0  0  0  0  0  0  0  0  0  0  0
    6.4315  -17.7485   15.7838 O   0  0  0  0  0  0  0  0  0  0  0  0
    7.2722  -17.6611   18.0272 C   0  0  0  0  0  0  0  0  0  0  0  0
    8.3139  -16.6433   17.5683 C   0  0  2  0  0  0  0  0  0  0  0  0
    9.2608  -17.3761   16.6906 N   0  0  0  0  0  0  0  0  0  0  0  0
    9.0755  -16.0973   18.7083 C   0  0  0  0  0  0  0  0  0  0  0  0
   10.0427  -16.7689   19.1149 O   0  0  0  0  0  0  0  0  0  0  0  0
    8.7595  -14.8792   19.3361 N   0  0  0  0  0  0  0  0  0  0  0  0
    8.3566  -13.7057   18.5209 C   0  0  0  0  0  0  0  0  0  0  0  0
    7.3938  -12.9215   19.3776 C   0  0  0  0  0  0  0  0  0  0  0  0
    7.3208  -13.6875   20.6757 C   0  0  0  0  0  0  0  0  0  0  0  0
    8.7110  -14.3838   20.6592 C   0  0  1  0  0  0  0  0  0  0  0  0
    8.7136  -15.2970   21.7816 C   0  0  0  0  0  0  0  0  0  0  0  0
    7.7196  -15.9415   22.1429 O   0  0  0  0  0  0  0  0  0  0  0  0
    9.8990  -15.5302   22.5839 N   0  0  0  0  0  0  0  0  0  0  0  0
    9.9292  -16.4463   23.6765 C   0  0  1  0  0  0  0  0  0  0  0  0
   11.1209  -17.4178   23.6232 C   0  0  0  0  0  0  0  0  0  0  0  0
   10.9646  -18.2587   22.0022 S   0  0  0  0  0  0  0  0  0  0  0  0
   10.0982  -15.6927   24.9409 C   0  0  0  0  0  0  0  0  0  0  0  0
   10.3346  -14.4644   24.8955 O   0  0  0  0  0  0  0  0  0  0  0  0
   10.0103  -16.2718   26.2089 O   0  0  0  0  0  0  0  0  0  0  0  0
  1  2  1  0
  2  3  2  0
  4  2  1  0
  4  5  1  0
  5  6  1  6
  7  5  1  0
  7  8  2  0
  9  7  1  0
 10  9  1  0
 11 10  1  0
 11 12  1  0
 12 13  1  0
 13  9  1  0
 13 14  1  1
 15 14  2  0
 16 14  1  0
 17 20  1  0
 17 16  1  0
 17 18  1  6
 19 18  1  0
 20 22  1  0
 21 20  2  0
M  END
$$$$
