NPC.pdb
     RDKit          3D

 22 22  0  0  1  0  0  0  0  0999 V2000
   12.1041  -15.8380   18.0121 N   0  0  0  0  0  0  0  0  0  0  0  0
   12.7590  -15.4467   19.2238 C   0  0  0  0  0  0  0  0  0  0  0  0
   14.0126  -15.5992   19.3517 O   0  0  0  0  0  0  0  0  0  0  0  0
   11.9504  -14.8592   20.3249 C   0  0  0  0  0  0  0  0  0  0  0  0
   10.4686  -14.8687   19.9566 C   0  0  2  0  0  0  0  0  0  0  0  0
   10.3004  -13.8809   18.8612 N   0  0  0  0  0  0  0  0  0  0  0  0
    9.6265  -14.4421   21.0910 C   0  0  0  0  0  0  0  0  0  0  0  0
   10.0851  -13.5509   21.8309 O   0  0  0  0  0  0  0  0  0  0  0  0
    8.3591  -14.9886   21.3608 N   0  0  0  0  0  0  0  0  0  0  0  0
    7.5727  -15.6159   20.2691 C   0  0  0  0  0  0  0  0  0  0  0  0
    6.7657  -16.7111   20.9212 C   0  0  0  0  0  0  0  0  0  0  0  0
    7.1172  -16.6288   22.3864 C   0  0  0  0  0  0  0  0  0  0  0  0
    7.5159  -15.1293   22.4866 C   0  0  1  0  0  0  0  0  0  0  0  0
    8.0428  -14.9445   23.8215 C   0  0  0  0  0  0  0  0  0  0  0  0
    9.1222  -15.4167   24.2036 O   0  0  0  0  0  0  0  0  0  0  0  0
    7.3353  -14.1815   24.8317 N   0  0  0  0  0  0  0  0  0  0  0  0
    7.7804  -14.0819   26.1829 C   0  0  1  0  0  0  0  0  0  0  0  0
    6.8616  -13.2183   27.0642 C   0  0  0  0  0  0  0  0  0  0  0  0
    6.6405  -11.6618   26.1220 S   0  0  0  0  0  0  0  0  0  0  0  0
    7.7619  -15.4273   26.8034 C   0  0  0  0  0  0  0  0  0  0  0  0
    7.0342  -16.3190   26.3118 O   0  0  0  0  0  0  0  0  0  0  0  0
    8.5175  -15.7767   27.9249 O   0  0  0  0  0  0  0  0  0  0  0  0
  1  2  1  0
  2  3  2  0
  4  2  1  0
  4  5  1  0
  5  6  1  6
  7  5  1  0
  7  8  2  0
  9  7  1  0
 10  9  1  0
 11 10  1  0
 11 12  1  0
 12 13  1  0
 13  9  1  0
 13 14  1  1
 15 14  2  0
 16 14  1  0
 17 20  1  0
 17 16  1  0
 17 18  1  1
 19 18  1  0
 20 22  1  0
 21 20  2  0
M  END
$$$$
