EVT.pdb
     RDKit          3D

 24 23  0  0  1  0  0  0  0  0999 V2000
   17.7601  -11.7243  -17.2891 N   0  0  0  0  0  0  0  0  0  0  0  0
   18.6666  -10.6853  -17.5571 C   0  0  1  0  0  0  0  0  0  0  0  0
   18.2609   -9.5788  -18.4397 C   0  0  0  0  0  0  0  0  0  0  0  0
   17.6423   -9.8788  -19.7470 C   0  0  0  0  0  0  0  0  0  0  0  0
   18.5762  -10.0885  -20.8528 C   0  0  0  0  0  0  0  0  0  0  0  0
   19.8100  -10.1020  -20.6651 O   0  0  0  0  0  0  0  0  0  0  0  0
   19.3018  -10.1779  -16.2708 C   0  0  0  0  0  0  0  0  0  0  0  0
   18.5816  -10.0641  -15.2537 O   0  0  0  0  0  0  0  0  0  0  0  0
   18.0927  -10.2772  -22.1351 O   0  0  0  0  0  0  0  0  0  0  0  0
   23.5392  -10.4720  -15.7844 C   0  0  0  0  0  0  0  0  0  0  0  0
   22.5847  -10.1584  -14.6628 C   0  0  1  0  0  0  0  0  0  0  0  0
   23.2990   -9.5937  -13.4758 C   0  0  0  0  0  0  0  0  0  0  0  0
   21.4289   -9.3629  -15.1642 C   0  0  2  0  0  0  0  0  0  0  0  0
   20.6501   -9.8505  -16.2436 N   0  0  0  0  0  0  0  0  0  0  0  0
   21.8349   -7.9517  -15.3715 C   0  0  0  0  0  0  0  0  0  0  0  0
   22.6760   -7.7041  -16.2589 O   0  0  0  0  0  0  0  0  0  0  0  0
   19.9456   -4.9638  -16.4641 C   0  0  0  0  0  0  0  0  0  0  0  0
   20.5424   -4.6408  -15.0956 C   0  0  1  0  0  0  0  0  0  0  0  0
   19.5720   -4.9946  -14.1580 O   0  0  0  0  0  0  0  0  0  0  0  0
   21.7383   -5.5077  -14.8402 C   0  0  2  0  0  0  0  0  0  0  0  0
   21.3126   -6.8856  -14.6092 N   0  0  0  0  0  0  0  0  0  0  0  0
   22.3450   -5.0033  -13.5569 C   0  0  0  0  0  0  0  0  0  0  0  0
   23.0319   -3.8072  -13.5051 O   0  0  0  0  0  0  0  0  0  0  0  0
   22.2102   -5.7026  -12.5281 O   0  0  0  0  0  0  0  0  0  0  0  0
  2  1  1  1
  2  3  1  0
  3  4  1  0
  4  5  1  0
  5  9  1  0
  5  6  2  0
  7 14  1  0
  7  2  1  0
  8  7  2  0
 11 10  1  6
 11 13  1  0
 12 11  1  0
 13 15  1  0
 13 14  1  6
 15 21  1  0
 16 15  2  0
 18 17  1  6
 18 19  1  0
 20 18  1  0
 20 21  1  1
 22 23  1  0
 22 20  1  0
 24 22  2  0
M  END
$$$$
