EVT.pdb
     RDKit          3D

 24 23  0  0  1  0  0  0  0  0999 V2000
   14.7395  -11.7957  -11.2426 N   0  0  0  0  0  0  0  0  0  0  0  0
   15.6652  -10.7392  -11.2377 C   0  0  1  0  0  0  0  0  0  0  0  0
   16.7214  -10.6959  -12.2627 C   0  0  0  0  0  0  0  0  0  0  0  0
   17.5538  -11.8923  -12.5023 C   0  0  0  0  0  0  0  0  0  0  0  0
   17.6769  -12.3050  -13.8999 C   0  0  0  0  0  0  0  0  0  0  0  0
   17.8790  -11.4711  -14.8062 O   0  0  0  0  0  0  0  0  0  0  0  0
   14.9555   -9.4001  -11.1012 C   0  0  0  0  0  0  0  0  0  0  0  0
   13.8926   -9.2202  -11.7368 O   0  0  0  0  0  0  0  0  0  0  0  0
   17.5692  -13.6430  -14.2341 O   0  0  0  0  0  0  0  0  0  0  0  0
   13.3971   -7.6997   -8.1388 C   0  0  0  0  0  0  0  0  0  0  0  0
   14.5577   -6.8369   -8.5581 C   0  0  1  0  0  0  0  0  0  0  0  0
   15.6597   -6.8697   -7.5470 C   0  0  0  0  0  0  0  0  0  0  0  0
   14.9554   -7.1383   -9.9621 C   0  0  2  0  0  0  0  0  0  0  0  0
   15.4894   -8.4103  -10.2881 N   0  0  0  0  0  0  0  0  0  0  0  0
   15.7884   -6.0366  -10.5021 C   0  0  0  0  0  0  0  0  0  0  0  0
   17.0258   -6.1093  -10.3616 O   0  0  0  0  0  0  0  0  0  0  0  0
   16.5375   -2.3707  -13.6254 C   0  0  0  0  0  0  0  0  0  0  0  0
   15.6674   -3.5029  -13.0829 C   0  0  1  0  0  0  0  0  0  0  0  0
   15.9334   -4.6126  -13.8852 O   0  0  0  0  0  0  0  0  0  0  0  0
   16.0937   -3.8545  -11.6895 C   0  0  2  0  0  0  0  0  0  0  0  0
   15.2408   -4.9165  -11.1623 N   0  0  0  0  0  0  0  0  0  0  0  0
   15.8426   -2.6225  -10.8597 C   0  0  0  0  0  0  0  0  0  0  0  0
   16.8107   -1.6520  -10.6984 O   0  0  0  0  0  0  0  0  0  0  0  0
   14.7235   -2.4992  -10.3140 O   0  0  0  0  0  0  0  0  0  0  0  0
  2  1  1  6
  2  3  1  0
  3  4  1  0
  4  5  1  0
  5  9  1  0
  5  6  2  0
  7 14  1  0
  7  2  1  0
  8  7  2  0
 11 10  1  1
 11 13  1  0
 12 11  1  0
 13 15  1  0
 13 14  1  1
 15 21  1  0
 16 15  2  0
 18 17  1  6
 18 19  1  0
 20 18  1  0
 20 21  1  1
 22 23  1  0
 22 20  1  0
 24 22  2  0
M  END
$$$$
