EVT.pdb
     RDKit          3D

 24 23  0  0  1  0  0  0  0  0999 V2000
   14.7513  -12.2040  -13.3202 N   0  0  0  0  0  0  0  0  0  0  0  0
   15.5703  -11.4000  -12.5103 C   0  0  1  0  0  0  0  0  0  0  0  0
   16.9624  -11.1432  -12.9153 C   0  0  0  0  0  0  0  0  0  0  0  0
   17.2341  -10.4521  -14.1921 C   0  0  0  0  0  0  0  0  0  0  0  0
   18.6456  -10.3296  -14.5547 C   0  0  0  0  0  0  0  0  0  0  0  0
   19.5470  -10.7498  -13.8006 O   0  0  0  0  0  0  0  0  0  0  0  0
   14.8504  -10.1177  -12.1189 C   0  0  0  0  0  0  0  0  0  0  0  0
   14.1331   -9.5511  -12.9735 O   0  0  0  0  0  0  0  0  0  0  0  0
   18.9989   -9.7387  -15.7545 O   0  0  0  0  0  0  0  0  0  0  0  0
   12.5444   -9.7106   -9.1307 C   0  0  0  0  0  0  0  0  0  0  0  0
   13.5951   -8.6421   -8.9827 C   0  0  1  0  0  0  0  0  0  0  0  0
   14.4144   -8.8452   -7.7476 C   0  0  0  0  0  0  0  0  0  0  0  0
   14.3608   -8.4797  -10.2505 C   0  0  2  0  0  0  0  0  0  0  0  0
   14.9986   -9.6002  -10.8397 N   0  0  0  0  0  0  0  0  0  0  0  0
   15.2755   -7.3170  -10.1466 C   0  0  0  0  0  0  0  0  0  0  0  0
   16.4707   -7.5306   -9.8601 O   0  0  0  0  0  0  0  0  0  0  0  0
   16.1904   -2.4929  -10.8164 C   0  0  0  0  0  0  0  0  0  0  0  0
   15.1929   -3.6479  -10.8800 C   0  0  1  0  0  0  0  0  0  0  0  0
   15.0293   -3.9427  -12.2336 O   0  0  0  0  0  0  0  0  0  0  0  0
   15.7773   -4.8664  -10.2315 C   0  0  2  0  0  0  0  0  0  0  0  0
   14.8503   -5.9882  -10.3557 N   0  0  0  0  0  0  0  0  0  0  0  0
   15.8912   -4.5373   -8.7658 C   0  0  0  0  0  0  0  0  0  0  0  0
   14.8818   -4.8465   -7.8766 O   0  0  0  0  0  0  0  0  0  0  0  0
   16.9340   -3.9703   -8.3699 O   0  0  0  0  0  0  0  0  0  0  0  0
  2  1  1  6
  2  3  1  0
  3  4  1  0
  4  5  1  0
  5  9  1  0
  5  6  2  0
  7 14  1  0
  7  2  1  0
  8  7  2  0
 11 10  1  6
 11 13  1  0
 12 11  1  0
 13 15  1  0
 13 14  1  1
 15 21  1  0
 16 15  2  0
 18 17  1  6
 18 19  1  0
 20 18  1  0
 20 21  1  1
 22 23  1  0
 22 20  1  0
 24 22  2  0
M  END
$$$$
