EVT.pdb
     RDKit          3D

 24 23  0  0  1  0  0  0  0  0999 V2000
   18.3150  -13.0806  -16.5692 N   0  0  0  0  0  0  0  0  0  0  0  0
   18.6491  -11.7549  -16.8920 C   0  0  1  0  0  0  0  0  0  0  0  0
   17.6496  -10.8938  -17.5457 C   0  0  0  0  0  0  0  0  0  0  0  0
   17.0178  -11.3374  -18.8051 C   0  0  0  0  0  0  0  0  0  0  0  0
   16.0500  -10.4077  -19.3862 C   0  0  0  0  0  0  0  0  0  0  0  0
   14.9126  -10.7884  -19.7314 O   0  0  0  0  0  0  0  0  0  0  0  0
   19.3053  -11.0600  -15.7079 C   0  0  0  0  0  0  0  0  0  0  0  0
   18.6554  -10.9522  -14.6439 O   0  0  0  0  0  0  0  0  0  0  0  0
   16.3918   -9.0786  -19.5606 O   0  0  0  0  0  0  0  0  0  0  0  0
   23.5317  -10.8225  -15.6425 C   0  0  0  0  0  0  0  0  0  0  0  0
   22.6943  -10.4913  -14.4356 C   0  0  1  0  0  0  0  0  0  0  0  0
   23.4718   -9.7072  -13.4264 C   0  0  0  0  0  0  0  0  0  0  0  0
   21.3883   -9.9046  -14.8480 C   0  0  2  0  0  0  0  0  0  0  0  0
   20.5949  -10.5603  -15.8227 N   0  0  0  0  0  0  0  0  0  0  0  0
   21.5522   -8.4621  -15.1509 C   0  0  0  0  0  0  0  0  0  0  0  0
   22.0171   -8.1421  -16.2634 O   0  0  0  0  0  0  0  0  0  0  0  0
   20.3187   -3.7947  -14.5784 C   0  0  0  0  0  0  0  0  0  0  0  0
   20.1195   -5.2802  -14.2841 C   0  0  1  0  0  0  0  0  0  0  0  0
   19.1610   -5.7287  -15.1928 O   0  0  0  0  0  0  0  0  0  0  0  0
   21.3836   -6.0335  -14.5697 C   0  0  2  0  0  0  0  0  0  0  0  0
   21.2070   -7.4445  -14.2368 N   0  0  0  0  0  0  0  0  0  0  0  0
   22.4170   -5.4748  -13.6266 C   0  0  0  0  0  0  0  0  0  0  0  0
   23.2082   -4.3999  -13.9782 O   0  0  0  0  0  0  0  0  0  0  0  0
   22.5423   -6.0149  -12.5049 O   0  0  0  0  0  0  0  0  0  0  0  0
  2  1  1  1
  2  3  1  0
  3  4  1  0
  4  5  1  0
  5  9  1  0
  5  6  2  0
  7 14  1  0
  7  2  1  0
  8  7  2  0
 11 10  1  6
 11 13  1  0
 12 11  1  0
 13 15  1  0
 13 14  1  6
 15 21  1  0
 16 15  2  0
 18 17  1  6
 18 19  1  0
 20 18  1  0
 20 21  1  1
 22 23  1  0
 22 20  1  0
 24 22  2  0
M  END
$$$$
