EVT.pdb
     RDKit          3D

 24 23  0  0  1  0  0  0  0  0999 V2000
   25.7039  -10.6040  -20.6032 N   0  0  0  0  0  0  0  0  0  0  0  0
   24.3091  -10.7643  -20.5584 C   0  0  1  0  0  0  0  0  0  0  0  0
   23.6983  -11.9678  -21.1469 C   0  0  0  0  0  0  0  0  0  0  0  0
   24.4877  -12.8084  -22.0700 C   0  0  0  0  0  0  0  0  0  0  0  0
   23.8068  -13.9997  -22.5760 C   0  0  0  0  0  0  0  0  0  0  0  0
   23.6353  -15.0035  -21.8544 O   0  0  0  0  0  0  0  0  0  0  0  0
   23.7787  -10.4885  -19.1590 C   0  0  0  0  0  0  0  0  0  0  0  0
   22.5899  -10.7831  -18.9024 O   0  0  0  0  0  0  0  0  0  0  0  0
   23.3396  -14.0243  -23.8778 O   0  0  0  0  0  0  0  0  0  0  0  0
   26.6448   -9.9436  -16.0111 C   0  0  0  0  0  0  0  0  0  0  0  0
   25.1936  -10.2715  -15.7788 C   0  0  1  0  0  0  0  0  0  0  0  0
   24.7868   -9.9917  -14.3666 C   0  0  0  0  0  0  0  0  0  0  0  0
   24.3409   -9.6560  -16.8343 C   0  0  2  0  0  0  0  0  0  0  0  0
   24.6069   -9.9202  -18.2013 N   0  0  0  0  0  0  0  0  0  0  0  0
   24.1797   -8.2047  -16.5752 C   0  0  0  0  0  0  0  0  0  0  0  0
   25.1170   -7.4424  -16.8858 O   0  0  0  0  0  0  0  0  0  0  0  0
   20.4145   -6.5720  -16.2021 C   0  0  0  0  0  0  0  0  0  0  0  0
   21.6393   -5.7702  -16.6381 C   0  0  1  0  0  0  0  0  0  0  0  0
   21.3827   -4.4471  -16.2784 O   0  0  0  0  0  0  0  0  0  0  0  0
   22.8437   -6.2118  -15.8626 C   0  0  2  0  0  0  0  0  0  0  0  0
   23.0171   -7.6560  -15.9941 N   0  0  0  0  0  0  0  0  0  0  0  0
   22.5293   -5.9263  -14.4172 C   0  0  0  0  0  0  0  0  0  0  0  0
   22.6187   -4.6506  -13.8979 O   0  0  0  0  0  0  0  0  0  0  0  0
   22.1817   -6.8841  -13.6909 O   0  0  0  0  0  0  0  0  0  0  0  0
  2  1  1  1
  2  3  1  0
  3  4  1  0
  4  5  1  0
  5  9  1  0
  5  6  2  0
  7 14  1  0
  7  2  1  0
  8  7  2  0
 11 10  1  1
 11 13  1  0
 12 11  1  0
 13 15  1  0
 13 14  1  6
 15 21  1  0
 16 15  2  0
 18 17  1  1
 18 19  1  0
 20 18  1  0
 20 21  1  1
 22 23  1  0
 22 20  1  0
 24 22  2  0
M  END
$$$$
