EVT.pdb
     RDKit          3D

 24 23  0  0  1  0  0  0  0  0999 V2000
   17.6922  -11.7365  -17.3464 N   0  0  0  0  0  0  0  0  0  0  0  0
   18.6230  -10.7088  -17.5709 C   0  0  1  0  0  0  0  0  0  0  0  0
   18.2388   -9.5496  -18.3936 C   0  0  0  0  0  0  0  0  0  0  0  0
   17.7423   -9.7640  -19.7680 C   0  0  0  0  0  0  0  0  0  0  0  0
   17.9727   -8.6613  -20.7006 C   0  0  0  0  0  0  0  0  0  0  0  0
   18.7232   -7.7089  -20.4050 O   0  0  0  0  0  0  0  0  0  0  0  0
   19.2816  -10.2825  -16.2670 C   0  0  0  0  0  0  0  0  0  0  0  0
   18.5764  -10.2175  -15.2353 O   0  0  0  0  0  0  0  0  0  0  0  0
   17.3519   -8.6648  -21.9369 O   0  0  0  0  0  0  0  0  0  0  0  0
   23.4964  -10.5989  -15.8134 C   0  0  0  0  0  0  0  0  0  0  0  0
   22.5896  -10.2167  -14.6736 C   0  0  1  0  0  0  0  0  0  0  0  0
   23.3520   -9.5786  -13.5558 C   0  0  0  0  0  0  0  0  0  0  0  0
   21.4107   -9.4550  -15.1736 C   0  0  2  0  0  0  0  0  0  0  0  0
   20.6343   -9.9736  -16.2402 N   0  0  0  0  0  0  0  0  0  0  0  0
   21.7808   -8.0370  -15.4007 C   0  0  0  0  0  0  0  0  0  0  0  0
   22.5898   -7.7775  -16.3142 O   0  0  0  0  0  0  0  0  0  0  0  0
   19.9739   -5.2184  -16.6666 C   0  0  0  0  0  0  0  0  0  0  0  0
   20.4509   -4.7885  -15.2806 C   0  0  1  0  0  0  0  0  0  0  0  0
   19.4220   -5.1190  -14.3986 O   0  0  0  0  0  0  0  0  0  0  0  0
   21.6505   -5.5925  -14.8790 C   0  0  2  0  0  0  0  0  0  0  0  0
   21.2593   -6.9773  -14.6290 N   0  0  0  0  0  0  0  0  0  0  0  0
   22.1140   -5.0125  -13.5683 C   0  0  0  0  0  0  0  0  0  0  0  0
   22.7110   -3.7699  -13.5003 O   0  0  0  0  0  0  0  0  0  0  0  0
   21.9433   -5.6920  -12.5315 O   0  0  0  0  0  0  0  0  0  0  0  0
  2  1  1  1
  2  3  1  0
  3  4  1  0
  4  5  1  0
  5  9  1  0
  5  6  2  0
  7 14  1  0
  7  2  1  0
  8  7  2  0
 11 10  1  6
 11 13  1  0
 12 11  1  0
 13 15  1  0
 13 14  1  6
 15 21  1  0
 16 15  2  0
 18 17  1  6
 18 19  1  0
 20 18  1  0
 20 21  1  1
 22 23  1  0
 22 20  1  0
 24 22  2  0
M  END
$$$$
