EVT.pdb
     RDKit          3D

 24 23  0  0  1  0  0  0  0  0999 V2000
   19.0629  -12.6636  -17.2561 N   0  0  0  0  0  0  0  0  0  0  0  0
   19.1647  -11.2684  -17.3833 C   0  0  1  0  0  0  0  0  0  0  0  0
   18.0069  -10.4980  -17.8669 C   0  0  0  0  0  0  0  0  0  0  0  0
   17.2401  -10.9880  -19.0303 C   0  0  0  0  0  0  0  0  0  0  0  0
   15.8312  -11.2866  -18.7762 C   0  0  0  0  0  0  0  0  0  0  0  0
   14.9392  -10.4436  -19.0026 O   0  0  0  0  0  0  0  0  0  0  0  0
   19.7673  -10.6544  -16.1281 C   0  0  0  0  0  0  0  0  0  0  0  0
   19.1379  -10.7583  -15.0515 O   0  0  0  0  0  0  0  0  0  0  0  0
   15.4698  -12.5246  -18.2757 O   0  0  0  0  0  0  0  0  0  0  0  0
   22.6866  -11.4361  -14.1629 C   0  0  0  0  0  0  0  0  0  0  0  0
   22.9765  -10.0418  -14.6522 C   0  0  1  0  0  0  0  0  0  0  0  0
   24.1429  -10.0201  -15.5886 C   0  0  0  0  0  0  0  0  0  0  0  0
   21.7320   -9.3909  -15.1499 C   0  0  2  0  0  0  0  0  0  0  0  0
   20.9868   -9.9952  -16.1934 N   0  0  0  0  0  0  0  0  0  0  0  0
   21.9807   -7.9527  -15.4124 C   0  0  0  0  0  0  0  0  0  0  0  0
   22.6592   -7.6443  -16.4127 O   0  0  0  0  0  0  0  0  0  0  0  0
   19.9157   -5.3895  -16.5922 C   0  0  0  0  0  0  0  0  0  0  0  0
   20.4202   -4.8569  -15.2524 C   0  0  1  0  0  0  0  0  0  0  0  0
   19.4801   -5.2526  -14.3009 O   0  0  0  0  0  0  0  0  0  0  0  0
   21.7163   -5.5186  -14.8929 C   0  0  2  0  0  0  0  0  0  0  0  0
   21.4852   -6.9265  -14.5806 N   0  0  0  0  0  0  0  0  0  0  0  0
   22.1829   -4.8479  -13.6273 C   0  0  0  0  0  0  0  0  0  0  0  0
   22.6558   -3.5512  -13.6303 O   0  0  0  0  0  0  0  0  0  0  0  0
   22.1314   -5.5021  -12.5619 O   0  0  0  0  0  0  0  0  0  0  0  0
  2  1  1  1
  2  3  1  0
  3  4  1  0
  4  5  1  0
  5  9  1  0
  5  6  2  0
  7 14  1  0
  7  2  1  0
  8  7  2  0
 11 10  1  6
 11 13  1  0
 12 11  1  0
 13 15  1  0
 13 14  1  6
 15 21  1  0
 16 15  2  0
 18 17  1  6
 18 19  1  0
 20 18  1  0
 20 21  1  1
 22 23  1  0
 22 20  1  0
 24 22  2  0
M  END
$$$$
