EVT.pdb
     RDKit          3D

 24 23  0  0  1  0  0  0  0  0999 V2000
   14.6921  -13.5134  -15.4397 N   0  0  0  0  0  0  0  0  0  0  0  0
   15.9472  -12.9264  -15.2090 C   0  0  1  0  0  0  0  0  0  0  0  0
   17.0147  -13.0797  -16.2115 C   0  0  0  0  0  0  0  0  0  0  0  0
   17.4572  -14.4333  -16.6035 C   0  0  0  0  0  0  0  0  0  0  0  0
   18.5597  -14.4827  -17.5630 C   0  0  0  0  0  0  0  0  0  0  0  0
   19.0480  -13.4392  -18.0432 O   0  0  0  0  0  0  0  0  0  0  0  0
   15.7929  -11.4791  -14.7652 C   0  0  0  0  0  0  0  0  0  0  0  0
   15.0416  -10.7285  -15.4271 O   0  0  0  0  0  0  0  0  0  0  0  0
   19.0789  -15.7045  -17.9521 O   0  0  0  0  0  0  0  0  0  0  0  0
   16.9234  -10.6160  -10.8204 C   0  0  0  0  0  0  0  0  0  0  0  0
   16.1995   -9.5621  -11.6157 C   0  0  1  0  0  0  0  0  0  0  0  0
   16.4334   -8.1946  -11.0559 C   0  0  0  0  0  0  0  0  0  0  0  0
   16.4726   -9.7232  -13.0716 C   0  0  2  0  0  0  0  0  0  0  0  0
   16.4789  -11.0170  -13.6508 N   0  0  0  0  0  0  0  0  0  0  0  0
   17.6753   -8.9435  -13.4524 C   0  0  0  0  0  0  0  0  0  0  0  0
   18.7769   -9.2904  -12.9810 O   0  0  0  0  0  0  0  0  0  0  0  0
   19.4007   -8.6437  -16.6195 C   0  0  0  0  0  0  0  0  0  0  0  0
   18.9949   -7.2257  -16.2221 C   0  0  1  0  0  0  0  0  0  0  0  0
   17.7343   -7.0140  -16.7806 O   0  0  0  0  0  0  0  0  0  0  0  0
   18.8381   -7.1353  -14.7341 C   0  0  2  0  0  0  0  0  0  0  0  0
   17.6232   -7.8318  -14.3194 N   0  0  0  0  0  0  0  0  0  0  0  0
   18.6444   -5.6728  -14.4293 C   0  0  0  0  0  0  0  0  0  0  0  0
   19.6848   -4.7712  -14.5292 O   0  0  0  0  0  0  0  0  0  0  0  0
   17.5054   -5.2910  -14.0793 O   0  0  0  0  0  0  0  0  0  0  0  0
  2  1  1  6
  2  3  1  0
  3  4  1  0
  4  5  1  0
  5  9  1  0
  5  6  2  0
  7 14  1  0
  7  2  1  0
  8  7  2  0
 11 10  1  1
 11 13  1  0
 12 11  1  0
 13 15  1  0
 13 14  1  1
 15 21  1  0
 16 15  2  0
 18 17  1  1
 18 19  1  0
 20 18  1  0
 20 21  1  6
 22 23  1  0
 22 20  1  0
 24 22  2  0
M  END
$$$$
