EVT.pdb
     RDKit          3D

 24 23  0  0  1  0  0  0  0  0999 V2000
   13.6242  -10.5591  -10.7514 N   0  0  0  0  0  0  0  0  0  0  0  0
   15.0199  -10.4722  -10.6190 C   0  0  1  0  0  0  0  0  0  0  0  0
   15.8654  -11.5695  -11.1181 C   0  0  0  0  0  0  0  0  0  0  0  0
   15.3222  -12.5105  -12.1188 C   0  0  0  0  0  0  0  0  0  0  0  0
   15.8605  -12.3722  -13.4715 C   0  0  0  0  0  0  0  0  0  0  0  0
   15.3290  -11.6108  -14.3055 O   0  0  0  0  0  0  0  0  0  0  0  0
   15.5230   -9.1143  -11.0863 C   0  0  0  0  0  0  0  0  0  0  0  0
   15.1209   -8.6751  -12.1869 O   0  0  0  0  0  0  0  0  0  0  0  0
   16.9802  -13.0943  -13.8435 O   0  0  0  0  0  0  0  0  0  0  0  0
   16.1555   -6.6476   -8.1865 C   0  0  0  0  0  0  0  0  0  0  0  0
   16.6531   -6.0299   -9.4665 C   0  0  1  0  0  0  0  0  0  0  0  0
   17.7774   -5.0758   -9.2147 C   0  0  0  0  0  0  0  0  0  0  0  0
   16.9102   -7.0807  -10.4911 C   0  0  2  0  0  0  0  0  0  0  0  0
   16.4096   -8.3930  -10.2990 N   0  0  0  0  0  0  0  0  0  0  0  0
   18.3458   -7.0879  -10.8626 C   0  0  0  0  0  0  0  0  0  0  0  0
   19.1523   -7.6440  -10.0902 O   0  0  0  0  0  0  0  0  0  0  0  0
   21.8431   -7.1328  -14.2274 C   0  0  0  0  0  0  0  0  0  0  0  0
   20.3696   -7.0550  -13.8325 C   0  0  1  0  0  0  0  0  0  0  0  0
   19.8894   -8.3640  -13.8731 O   0  0  0  0  0  0  0  0  0  0  0  0
   20.2429   -6.5832  -12.4153 C   0  0  2  0  0  0  0  0  0  0  0  0
   18.8327   -6.4937  -12.0459 N   0  0  0  0  0  0  0  0  0  0  0  0
   20.8024   -5.1846  -12.3962 C   0  0  0  0  0  0  0  0  0  0  0  0
   22.1402   -4.9463  -12.1541 O   0  0  0  0  0  0  0  0  0  0  0  0
   20.0165   -4.2340  -12.6069 O   0  0  0  0  0  0  0  0  0  0  0  0
  2  1  1  6
  2  3  1  0
  3  4  1  0
  4  5  1  0
  5  9  1  0
  5  6  2  0
  7 14  1  0
  7  2  1  0
  8  7  2  0
 11 10  1  1
 11 13  1  0
 12 11  1  0
 13 15  1  0
 13 14  1  1
 15 21  1  0
 16 15  2  0
 18 17  1  1
 18 19  1  0
 20 18  1  0
 20 21  1  6
 22 23  1  0
 22 20  1  0
 24 22  2  0
M  END
$$$$
