EVT.pdb
     RDKit          3D

 24 23  0  0  1  0  0  0  0  0999 V2000
   18.4334  -12.2453  -17.7925 N   0  0  0  0  0  0  0  0  0  0  0  0
   19.2468  -11.1061  -17.9096 C   0  0  1  0  0  0  0  0  0  0  0  0
   18.7907   -9.9705  -18.7283 C   0  0  0  0  0  0  0  0  0  0  0  0
   18.3978  -10.1971  -20.1340 C   0  0  0  0  0  0  0  0  0  0  0  0
   17.9036   -9.0203  -20.8479 C   0  0  0  0  0  0  0  0  0  0  0  0
   17.8284   -7.9073  -20.2882 O   0  0  0  0  0  0  0  0  0  0  0  0
   19.7429  -10.6543  -16.5438 C   0  0  0  0  0  0  0  0  0  0  0  0
   18.9481  -10.6905  -15.5779 O   0  0  0  0  0  0  0  0  0  0  0  0
   17.5098   -9.1323  -22.1693 O   0  0  0  0  0  0  0  0  0  0  0  0
   23.9125  -10.5963  -15.6920 C   0  0  0  0  0  0  0  0  0  0  0  0
   22.8593  -10.3443  -14.6457 C   0  0  1  0  0  0  0  0  0  0  0  0
   23.4389   -9.6956  -13.4286 C   0  0  0  0  0  0  0  0  0  0  0  0
   21.6772   -9.6628  -15.2442 C   0  0  2  0  0  0  0  0  0  0  0  0
   21.0495  -10.2124  -16.3902 N   0  0  0  0  0  0  0  0  0  0  0  0
   21.9546   -8.2154  -15.4092 C   0  0  0  0  0  0  0  0  0  0  0  0
   22.7895   -7.8690  -16.2689 O   0  0  0  0  0  0  0  0  0  0  0  0
   19.9096   -5.4409  -16.5843 C   0  0  0  0  0  0  0  0  0  0  0  0
   20.3662   -5.0600  -15.1773 C   0  0  1  0  0  0  0  0  0  0  0  0
   19.3668   -5.5069  -14.3128 O   0  0  0  0  0  0  0  0  0  0  0  0
   21.6185   -5.8049  -14.8253 C   0  0  2  0  0  0  0  0  0  0  0  0
   21.3173   -7.2215  -14.6369 N   0  0  0  0  0  0  0  0  0  0  0  0
   22.0613   -5.2581  -13.4933 C   0  0  0  0  0  0  0  0  0  0  0  0
   21.8667   -5.9640  -12.3232 O   0  0  0  0  0  0  0  0  0  0  0  0
   22.6153   -4.1364  -13.4729 O   0  0  0  0  0  0  0  0  0  0  0  0
  2  1  1  1
  2  3  1  0
  3  4  1  0
  4  5  1  0
  5  9  1  0
  5  6  2  0
  7 14  1  0
  7  2  1  0
  8  7  2  0
 11 10  1  6
 11 13  1  0
 12 11  1  0
 13 15  1  0
 13 14  1  6
 15 21  1  0
 16 15  2  0
 18 17  1  6
 18 19  1  0
 20 18  1  0
 20 21  1  1
 22 23  1  0
 22 20  1  0
 24 22  2  0
M  END
$$$$
