EVT.pdb
     RDKit          3D

 24 23  0  0  1  0  0  0  0  0999 V2000
   21.3802  -22.5803  -18.6276 N   0  0  0  0  0  0  0  0  0  0  0  0
   20.7803  -22.7755  -17.3726 C   0  0  1  0  0  0  0  0  0  0  0  0
   19.4794  -22.1485  -17.0854 C   0  0  0  0  0  0  0  0  0  0  0  0
   19.3504  -20.6783  -17.1440 C   0  0  0  0  0  0  0  0  0  0  0  0
   20.0513  -19.9417  -16.0929 C   0  0  0  0  0  0  0  0  0  0  0  0
   20.7932  -18.9752  -16.3635 O   0  0  0  0  0  0  0  0  0  0  0  0
   20.7938  -24.2485  -16.9911 C   0  0  0  0  0  0  0  0  0  0  0  0
   20.1366  -25.0522  -17.6898 O   0  0  0  0  0  0  0  0  0  0  0  0
   19.8952  -20.3150  -14.7700 O   0  0  0  0  0  0  0  0  0  0  0  0
   24.1750  -25.8446  -15.2718 C   0  0  0  0  0  0  0  0  0  0  0  0
   23.0028  -26.6984  -15.6770 C   0  0  1  0  0  0  0  0  0  0  0  0
   23.1148  -28.0834  -15.1229 C   0  0  0  0  0  0  0  0  0  0  0  0
   21.7197  -25.9917  -15.4044 C   0  0  2  0  0  0  0  0  0  0  0  0
   21.5214  -24.6743  -15.8886 N   0  0  0  0  0  0  0  0  0  0  0  0
   21.3702  -26.1088  -13.9679 C   0  0  0  0  0  0  0  0  0  0  0  0
   21.7873  -25.2309  -13.1859 O   0  0  0  0  0  0  0  0  0  0  0  0
   18.5828  -28.1301  -10.4125 C   0  0  0  0  0  0  0  0  0  0  0  0
   18.9190  -27.9649  -11.8934 C   0  0  1  0  0  0  0  0  0  0  0  0
   17.9097  -27.1667  -12.4317 O   0  0  0  0  0  0  0  0  0  0  0  0
   20.2055  -27.2107  -12.0460 C   0  0  2  0  0  0  0  0  0  0  0  0
   20.5915  -27.1670  -13.4540 N   0  0  0  0  0  0  0  0  0  0  0  0
   21.2462  -28.0221  -11.3194 C   0  0  0  0  0  0  0  0  0  0  0  0
   21.6047  -27.7356  -10.0177 O   0  0  0  0  0  0  0  0  0  0  0  0
   21.7839  -28.9719  -11.9312 O   0  0  0  0  0  0  0  0  0  0  0  0
  2  1  1  6
  2  3  1  0
  3  4  1  0
  4  5  1  0
  5  9  1  0
  5  6  2  0
  7 14  1  0
  7  2  1  0
  8  7  2  0
 11 10  1  1
 11 13  1  0
 12 11  1  0
 13 15  1  0
 13 14  1  1
 15 21  1  0
 16 15  2  0
 18 17  1  1
 18 19  1  0
 20 18  1  0
 20 21  1  6
 22 23  1  0
 22 20  1  0
 24 22  2  0
M  END
$$$$
