EVT.pdb
     RDKit          3D

 24 23  0  0  1  0  0  0  0  0999 V2000
   13.9941  -11.8792  -12.5232 N   0  0  0  0  0  0  0  0  0  0  0  0
   15.1103  -11.0336  -12.4126 C   0  0  1  0  0  0  0  0  0  0  0  0
   16.1312  -11.0380  -13.4735 C   0  0  0  0  0  0  0  0  0  0  0  0
   15.7113  -11.0937  -14.8885 C   0  0  0  0  0  0  0  0  0  0  0  0
   16.7859  -11.3094  -15.8568 C   0  0  0  0  0  0  0  0  0  0  0  0
   17.0972  -10.4299  -16.6858 O   0  0  0  0  0  0  0  0  0  0  0  0
   14.6824   -9.6200  -12.0463 C   0  0  0  0  0  0  0  0  0  0  0  0
   13.6771   -9.1351  -12.6121 O   0  0  0  0  0  0  0  0  0  0  0  0
   17.4769  -12.5078  -15.8619 O   0  0  0  0  0  0  0  0  0  0  0  0
   16.5489   -7.8356   -8.6042 C   0  0  0  0  0  0  0  0  0  0  0  0
   15.2794   -7.2733   -9.1868 C   0  0  1  0  0  0  0  0  0  0  0  0
   15.0877   -5.8398   -8.8044 C   0  0  0  0  0  0  0  0  0  0  0  0
   15.1922   -7.5741  -10.6435 C   0  0  2  0  0  0  0  0  0  0  0  0
   15.4033   -8.8973  -11.1061 N   0  0  0  0  0  0  0  0  0  0  0  0
   15.9871   -6.5878  -11.4146 C   0  0  0  0  0  0  0  0  0  0  0  0
   17.2257   -6.7305  -11.4548 O   0  0  0  0  0  0  0  0  0  0  0  0
   15.9210   -5.7273  -15.0890 C   0  0  0  0  0  0  0  0  0  0  0  0
   15.6214   -4.4676  -14.2787 C   0  0  1  0  0  0  0  0  0  0  0  0
   14.2352   -4.4255  -14.1288 O   0  0  0  0  0  0  0  0  0  0  0  0
   16.2094   -4.5895  -12.9052 C   0  0  2  0  0  0  0  0  0  0  0  0
   15.4024   -5.5012  -12.0986 N   0  0  0  0  0  0  0  0  0  0  0  0
   16.0956   -3.2208  -12.2865 C   0  0  0  0  0  0  0  0  0  0  0  0
   15.1741   -2.9520  -11.2946 O   0  0  0  0  0  0  0  0  0  0  0  0
   16.8645   -2.3236  -12.6982 O   0  0  0  0  0  0  0  0  0  0  0  0
  2  1  1  6
  2  3  1  0
  3  4  1  0
  4  5  1  0
  5  9  1  0
  5  6  2  0
  7 14  1  0
  7  2  1  0
  8  7  2  0
 11 10  1  6
 11 13  1  0
 12 11  1  0
 13 15  1  0
 13 14  1  1
 15 21  1  0
 16 15  2  0
 18 17  1  6
 18 19  1  0
 20 18  1  0
 20 21  1  1
 22 23  1  0
 22 20  1  0
 24 22  2  0
M  END
$$$$
