EVT.pdb
     RDKit          3D

 24 23  0  0  1  0  0  0  0  0999 V2000
   32.4529  -24.7550  -19.9529 N   0  0  0  0  0  0  0  0  0  0  0  0
   31.1329  -24.3424  -19.7067 C   0  0  1  0  0  0  0  0  0  0  0  0
   30.2916  -23.8954  -20.8293 C   0  0  0  0  0  0  0  0  0  0  0  0
   30.7047  -22.7235  -21.6279 C   0  0  0  0  0  0  0  0  0  0  0  0
   30.2961  -21.4235  -21.0973 C   0  0  0  0  0  0  0  0  0  0  0  0
   31.1271  -20.6369  -20.5989 O   0  0  0  0  0  0  0  0  0  0  0  0
   30.4088  -25.3483  -18.8238 C   0  0  0  0  0  0  0  0  0  0  0  0
   30.7602  -26.5483  -18.8738 O   0  0  0  0  0  0  0  0  0  0  0  0
   28.9653  -21.0487  -21.1444 O   0  0  0  0  0  0  0  0  0  0  0  0
   29.5196  -24.3822  -15.0335 C   0  0  0  0  0  0  0  0  0  0  0  0
   28.3113  -24.9714  -15.7120 C   0  0  1  0  0  0  0  0  0  0  0  0
   27.2023  -23.9735  -15.8220 C   0  0  0  0  0  0  0  0  0  0  0  0
   28.7006  -25.6520  -16.9790 C   0  0  2  0  0  0  0  0  0  0  0  0
   29.3822  -24.9285  -17.9897 N   0  0  0  0  0  0  0  0  0  0  0  0
   27.5472  -26.4074  -17.5253 C   0  0  0  0  0  0  0  0  0  0  0  0
   27.1606  -26.1396  -18.6807 O   0  0  0  0  0  0  0  0  0  0  0  0
   24.3704  -30.1923  -17.2055 C   0  0  0  0  0  0  0  0  0  0  0  0
   25.6712  -29.5120  -16.7834 C   0  0  1  0  0  0  0  0  0  0  0  0
   26.7006  -30.2540  -17.3627 O   0  0  0  0  0  0  0  0  0  0  0  0
   25.7409  -28.1326  -17.3660 C   0  0  2  0  0  0  0  0  0  0  0  0
   26.8735  -27.4088  -16.7947 N   0  0  0  0  0  0  0  0  0  0  0  0
   24.4858  -27.4321  -16.9149 C   0  0  0  0  0  0  0  0  0  0  0  0
   23.3296  -27.4676  -17.6679 O   0  0  0  0  0  0  0  0  0  0  0  0
   24.5173  -26.8102  -15.8296 O   0  0  0  0  0  0  0  0  0  0  0  0
  2  1  1  6
  2  3  1  0
  3  4  1  0
  4  5  1  0
  5  9  1  0
  5  6  2  0
  7 14  1  0
  7  2  1  0
  8  7  2  0
 11 10  1  6
 11 13  1  0
 12 11  1  0
 13 15  1  0
 13 14  1  6
 15 21  1  0
 16 15  2  0
 18 17  1  6
 18 19  1  0
 20 18  1  0
 20 21  1  1
 22 23  1  0
 22 20  1  0
 24 22  2  0
M  END
$$$$
