EVT.pdb
     RDKit          3D

 24 23  0  0  1  0  0  0  0  0999 V2000
   21.1237  -36.4725   -9.5050 N   0  0  0  0  0  0  0  0  0  0  0  0
   21.2466  -35.7760   -8.2914 C   0  0  1  0  0  0  0  0  0  0  0  0
   20.3806  -36.1378   -7.1569 C   0  0  0  0  0  0  0  0  0  0  0  0
   18.9134  -36.1249   -7.3271 C   0  0  0  0  0  0  0  0  0  0  0  0
   18.2657  -37.4360   -7.3125 C   0  0  0  0  0  0  0  0  0  0  0  0
   18.3700  -38.1992   -6.3304 O   0  0  0  0  0  0  0  0  0  0  0  0
   22.7065  -35.6690   -7.8757 C   0  0  0  0  0  0  0  0  0  0  0  0
   23.3747  -36.7214   -7.7662 O   0  0  0  0  0  0  0  0  0  0  0  0
   17.5204  -37.8474   -8.4029 O   0  0  0  0  0  0  0  0  0  0  0  0
   26.6098  -32.6959   -7.1353 C   0  0  0  0  0  0  0  0  0  0  0  0
   25.1861  -32.7945   -7.6154 C   0  0  1  0  0  0  0  0  0  0  0  0
   25.0666  -32.4220   -9.0594 C   0  0  0  0  0  0  0  0  0  0  0  0
   24.5925  -34.1062   -7.2319 C   0  0  2  0  0  0  0  0  0  0  0  0
   23.2683  -34.4250   -7.6249 N   0  0  0  0  0  0  0  0  0  0  0  0
   24.8152  -34.3623   -5.7883 C   0  0  0  0  0  0  0  0  0  0  0  0
   24.0375  -33.8337   -4.9686 O   0  0  0  0  0  0  0  0  0  0  0  0
   26.5907  -37.1315   -2.1710 C   0  0  0  0  0  0  0  0  0  0  0  0
   26.2482  -36.8867   -3.6393 C   0  0  1  0  0  0  0  0  0  0  0  0
   25.0234  -37.5167   -3.8602 O   0  0  0  0  0  0  0  0  0  0  0  0
   26.0398  -35.4219   -3.8798 C   0  0  2  0  0  0  0  0  0  0  0  0
   25.8653  -35.1731   -5.3084 N   0  0  0  0  0  0  0  0  0  0  0  0
   27.3209  -34.7500   -3.4594 C   0  0  0  0  0  0  0  0  0  0  0  0
   28.2932  -34.4116   -4.3787 O   0  0  0  0  0  0  0  0  0  0  0  0
   27.4841  -34.5039   -2.2435 O   0  0  0  0  0  0  0  0  0  0  0  0
  2  1  1  6
  2  3  1  0
  3  4  1  0
  4  5  1  0
  5  9  1  0
  5  6  2  0
  7 14  1  0
  7  2  1  0
  8  7  2  0
 11 10  1  6
 11 13  1  0
 12 11  1  0
 13 15  1  0
 13 14  1  1
 15 21  1  0
 16 15  2  0
 18 17  1  1
 18 19  1  0
 20 18  1  0
 20 21  1  6
 22 23  1  0
 22 20  1  0
 24 22  2  0
M  END
$$$$
