VEA.pdb
     RDKit          3D

 22 21  0  0  1  0  0  0  0  0999 V2000
   15.9804  -10.7516  -18.5918 C   0  0  0  0  0  0  0  0  0  0  0  0
   16.2152  -11.8086  -17.5352 C   0  0  2  0  0  0  0  0  0  0  0  0
   14.8815  -12.4231  -17.1719 C   0  0  0  0  0  0  0  0  0  0  0  0
   16.8209  -11.2263  -16.2792 C   0  0  2  0  0  0  0  0  0  0  0  0
   15.8514  -10.6125  -15.4265 N   0  0  0  0  0  0  0  0  0  0  0  0
   17.9277  -10.3053  -16.5488 C   0  0  0  0  0  0  0  0  0  0  0  0
   18.9987  -10.6426  -17.1286 O   0  0  0  0  0  0  0  0  0  0  0  0
   17.8299   -8.9444  -16.1507 N   0  0  0  0  0  0  0  0  0  0  0  0
   18.9037   -7.9777  -16.4227 C   0  0  1  0  0  0  0  0  0  0  0  0
   18.2916   -6.8928  -17.2416 C   0  0  0  0  0  0  0  0  0  0  0  0
   19.1933   -5.7750  -17.6289 C   0  0  0  0  0  0  0  0  0  0  0  0
   18.5968   -4.7504  -18.4903 C   0  0  0  0  0  0  0  0  0  0  0  0
   17.7083   -5.0344  -19.3311 O   0  0  0  0  0  0  0  0  0  0  0  0
   19.4998   -7.4985  -15.1488 C   0  0  0  0  0  0  0  0  0  0  0  0
   18.8094   -7.0400  -14.2063 O   0  0  0  0  0  0  0  0  0  0  0  0
   18.9714   -3.4035  -18.4356 O   0  0  0  0  0  0  0  0  0  0  0  0
   22.5861   -8.1932  -13.3118 C   0  0  0  0  0  0  0  0  0  0  0  0
   21.4940   -7.2244  -13.6801 C   0  0  2  0  0  0  0  0  0  0  0  0
   20.9026   -7.5585  -14.9842 N   0  0  0  0  0  0  0  0  0  0  0  0
   22.0271   -5.8342  -13.7306 C   0  0  0  0  0  0  0  0  0  0  0  0
   22.1649   -5.3090  -14.8605 O   0  0  0  0  0  0  0  0  0  0  0  0
   22.3671   -5.1243  -12.5766 O   0  0  0  0  0  0  0  0  0  0  0  0
  2  1  1  6
  2  3  1  0
  2  4  1  0
  4  6  1  0
  4  5  1  6
  6  8  1  0
  6  7  2  0
  8  9  1  0
  9 14  1  0
 10 11  1  0
  9 10  1  1
 12 16  1  0
 12 11  1  0
 13 12  2  0
 14 19  1  0
 14 15  2  0
 18 17  1  6
 18 20  1  0
 19 18  1  0
 20 22  1  0
 21 20  2  0
M  END
$$$$
