VEA.pdb
     RDKit          3D

 22 21  0  0  1  0  0  0  0  0999 V2000
   16.4225  -11.3318  -17.6265 C   0  0  0  0  0  0  0  0  0  0  0  0
   16.7063  -12.0234  -16.3113 C   0  0  2  0  0  0  0  0  0  0  0  0
   15.5112  -12.8800  -15.9562 C   0  0  0  0  0  0  0  0  0  0  0  0
   16.9246  -11.0349  -15.1893 C   0  0  2  0  0  0  0  0  0  0  0  0
   15.7115  -10.4278  -14.7384 N   0  0  0  0  0  0  0  0  0  0  0  0
   17.9245  -10.0135  -15.5101 C   0  0  0  0  0  0  0  0  0  0  0  0
   19.0974  -10.2750  -15.9012 O   0  0  0  0  0  0  0  0  0  0  0  0
   17.5951   -8.6364  -15.3872 N   0  0  0  0  0  0  0  0  0  0  0  0
   18.5581   -7.5760  -15.7185 C   0  0  1  0  0  0  0  0  0  0  0  0
   17.7666   -6.4666  -16.3227 C   0  0  0  0  0  0  0  0  0  0  0  0
   18.5426   -5.2888  -16.7950 C   0  0  0  0  0  0  0  0  0  0  0  0
   17.7506   -4.2005  -17.3746 C   0  0  0  0  0  0  0  0  0  0  0  0
   17.9806   -2.9983  -17.0935 O   0  0  0  0  0  0  0  0  0  0  0  0
   19.3185   -7.1743  -14.5068 C   0  0  0  0  0  0  0  0  0  0  0  0
   18.7684   -6.9664  -13.3980 O   0  0  0  0  0  0  0  0  0  0  0  0
   16.6980   -4.4232  -18.2690 O   0  0  0  0  0  0  0  0  0  0  0  0
   22.5692   -7.7053  -13.1349 C   0  0  0  0  0  0  0  0  0  0  0  0
   21.4931   -6.6845  -13.3932 C   0  0  2  0  0  0  0  0  0  0  0  0
   20.7205   -7.0178  -14.5990 N   0  0  0  0  0  0  0  0  0  0  0  0
   22.0903   -5.3297  -13.5583 C   0  0  0  0  0  0  0  0  0  0  0  0
   22.0283   -4.8057  -14.6955 O   0  0  0  0  0  0  0  0  0  0  0  0
   22.7007   -4.6506  -12.5012 O   0  0  0  0  0  0  0  0  0  0  0  0
  2  1  1  6
  2  3  1  0
  2  4  1  0
  4  6  1  0
  4  5  1  6
  6  8  1  0
  6  7  2  0
  8  9  1  0
  9 14  1  0
 10 11  1  0
  9 10  1  1
 12 16  1  0
 12 11  1  0
 13 12  2  0
 14 19  1  0
 14 15  2  0
 18 17  1  6
 18 20  1  0
 19 18  1  0
 20 22  1  0
 21 20  2  0
M  END
$$$$
