VEA.pdb
     RDKit          3D

 22 21  0  0  1  0  0  0  0  0999 V2000
   16.9467  -13.1472  -15.7110 C   0  0  0  0  0  0  0  0  0  0  0  0
   17.6470  -11.8920  -16.1827 C   0  0  2  0  0  0  0  0  0  0  0  0
   19.0809  -12.2426  -16.5135 C   0  0  0  0  0  0  0  0  0  0  0  0
   17.6602  -10.8190  -15.1187 C   0  0  2  0  0  0  0  0  0  0  0  0
   16.3486  -10.4350  -14.6992 N   0  0  0  0  0  0  0  0  0  0  0  0
   18.4453   -9.6424  -15.4992 C   0  0  0  0  0  0  0  0  0  0  0  0
   19.6266   -9.6984  -15.9447 O   0  0  0  0  0  0  0  0  0  0  0  0
   17.8812   -8.3437  -15.3750 N   0  0  0  0  0  0  0  0  0  0  0  0
   18.6313   -7.1339  -15.7426 C   0  0  1  0  0  0  0  0  0  0  0  0
   17.6533   -6.2184  -16.3967 C   0  0  0  0  0  0  0  0  0  0  0  0
   17.2432   -6.5772  -17.7807 C   0  0  0  0  0  0  0  0  0  0  0  0
   16.2697   -5.6775  -18.4054 C   0  0  0  0  0  0  0  0  0  0  0  0
   16.6249   -4.6100  -18.9634 O   0  0  0  0  0  0  0  0  0  0  0  0
   19.2846   -6.5490  -14.5430 C   0  0  0  0  0  0  0  0  0  0  0  0
   18.6792   -6.3737  -13.4577 O   0  0  0  0  0  0  0  0  0  0  0  0
   14.8961   -5.9427  -18.4229 O   0  0  0  0  0  0  0  0  0  0  0  0
   22.4379   -6.3426  -12.9496 C   0  0  0  0  0  0  0  0  0  0  0  0
   21.2837   -5.5245  -13.4645 C   0  0  2  0  0  0  0  0  0  0  0  0
   20.6450   -6.1718  -14.6199 N   0  0  0  0  0  0  0  0  0  0  0  0
   21.7463   -4.1658  -13.8635 C   0  0  0  0  0  0  0  0  0  0  0  0
   22.2513   -3.4427  -12.9726 O   0  0  0  0  0  0  0  0  0  0  0  0
   21.6320   -3.6947  -15.1736 O   0  0  0  0  0  0  0  0  0  0  0  0
  2  1  1  1
  2  3  1  0
  2  4  1  0
  4  6  1  0
  4  5  1  6
  6  8  1  0
  6  7  2  0
  8  9  1  0
  9 14  1  0
 10 11  1  0
  9 10  1  1
 12 16  1  0
 12 11  1  0
 13 12  2  0
 14 19  1  0
 14 15  2  0
 18 17  1  6
 18 20  1  0
 19 18  1  0
 20 22  1  0
 21 20  2  0
M  END
$$$$
