VEA.pdb
     RDKit          3D

 22 21  0  0  1  0  0  0  0  0999 V2000
   21.1610  -12.0685  -16.0415 C   0  0  0  0  0  0  0  0  0  0  0  0
   19.7517  -12.6137  -16.1132 C   0  0  2  0  0  0  0  0  0  0  0  0
   19.6643  -13.5534  -17.2953 C   0  0  0  0  0  0  0  0  0  0  0  0
   18.7314  -11.5165  -16.3099 C   0  0  2  0  0  0  0  0  0  0  0  0
   18.7483  -10.9712  -17.6313 N   0  0  0  0  0  0  0  0  0  0  0  0
   18.8343  -10.4505  -15.3105 C   0  0  0  0  0  0  0  0  0  0  0  0
   18.7351  -10.6412  -14.0652 O   0  0  0  0  0  0  0  0  0  0  0  0
   19.0586   -9.1097  -15.7253 N   0  0  0  0  0  0  0  0  0  0  0  0
   19.0752   -7.9941  -14.7678 C   0  0  1  0  0  0  0  0  0  0  0  0
   20.4542   -7.4293  -14.8081 C   0  0  0  0  0  0  0  0  0  0  0  0
   20.7132   -6.2667  -13.9172 C   0  0  0  0  0  0  0  0  0  0  0  0
   22.0968   -5.7847  -13.8922 C   0  0  0  0  0  0  0  0  0  0  0  0
   23.0043   -6.3574  -14.5445 O   0  0  0  0  0  0  0  0  0  0  0  0
   18.0172   -7.0079  -15.1083 C   0  0  0  0  0  0  0  0  0  0  0  0
   17.9415   -6.4542  -16.2320 O   0  0  0  0  0  0  0  0  0  0  0  0
   22.4964   -4.6683  -13.1496 O   0  0  0  0  0  0  0  0  0  0  0  0
   14.7323   -6.0223  -13.6540 C   0  0  0  0  0  0  0  0  0  0  0  0
   15.9649   -5.7455  -14.4730 C   0  0  2  0  0  0  0  0  0  0  0  0
   17.0521   -6.6743  -14.1305 N   0  0  0  0  0  0  0  0  0  0  0  0
   16.4326   -4.3483  -14.2530 C   0  0  0  0  0  0  0  0  0  0  0  0
   15.6711   -3.4205  -14.6148 O   0  0  0  0  0  0  0  0  0  0  0  0
   17.6678   -4.0594  -13.6682 O   0  0  0  0  0  0  0  0  0  0  0  0
  2  1  1  6
  2  3  1  0
  2  4  1  0
  4  6  1  0
  4  5  1  6
  6  8  1  0
  6  7  2  0
  8  9  1  0
  9 14  1  0
 10 11  1  0
  9 10  1  6
 12 16  1  0
 12 11  1  0
 13 12  2  0
 14 19  1  0
 14 15  2  0
 18 17  1  1
 18 20  1  0
 19 18  1  0
 20 22  1  0
 21 20  2  0
M  END
$$$$
