VEA.pdb
     RDKit          3D

 22 21  0  0  1  0  0  0  0  0999 V2000
   15.5740  -10.7530  -16.9919 C   0  0  0  0  0  0  0  0  0  0  0  0
   15.7297   -9.6083  -16.0152 C   0  0  2  0  0  0  0  0  0  0  0  0
   15.6655   -8.3101  -16.7890 C   0  0  0  0  0  0  0  0  0  0  0  0
   17.0563   -9.6588  -15.2932 C   0  0  2  0  0  0  0  0  0  0  0  0
   17.2166  -10.8408  -14.5053 N   0  0  0  0  0  0  0  0  0  0  0  0
   17.3182   -8.4630  -14.4887 C   0  0  0  0  0  0  0  0  0  0  0  0
   16.7841   -8.2394  -13.3654 O   0  0  0  0  0  0  0  0  0  0  0  0
   18.2198   -7.4725  -14.9644 N   0  0  0  0  0  0  0  0  0  0  0  0
   18.4888   -6.2410  -14.2078 C   0  0  1  0  0  0  0  0  0  0  0  0
   19.9712   -6.1397  -14.0877 C   0  0  0  0  0  0  0  0  0  0  0  0
   20.4927   -4.9249  -13.4060 C   0  0  0  0  0  0  0  0  0  0  0  0
   21.9445   -4.8827  -13.2113 C   0  0  0  0  0  0  0  0  0  0  0  0
   22.6692   -4.0745  -13.8428 O   0  0  0  0  0  0  0  0  0  0  0  0
   17.8647   -5.0745  -14.8843 C   0  0  0  0  0  0  0  0  0  0  0  0
   17.9619   -4.8741  -16.1195 O   0  0  0  0  0  0  0  0  0  0  0  0
   22.6139   -5.7287  -12.3204 O   0  0  0  0  0  0  0  0  0  0  0  0
   15.2899   -2.5228  -14.0044 C   0  0  0  0  0  0  0  0  0  0  0  0
   16.4980   -2.9942  -14.7693 C   0  0  2  0  0  0  0  0  0  0  0  0
   17.1292   -4.1474  -14.1109 N   0  0  0  0  0  0  0  0  0  0  0  0
   17.4980   -1.8966  -14.8899 C   0  0  0  0  0  0  0  0  0  0  0  0
   18.4419   -1.8818  -14.0649 O   0  0  0  0  0  0  0  0  0  0  0  0
   17.4078   -0.9114  -15.8759 O   0  0  0  0  0  0  0  0  0  0  0  0
  2  1  1  6
  2  3  1  0
  2  4  1  0
  4  6  1  0
  4  5  1  1
  6  8  1  0
  6  7  2  0
  8  9  1  0
  9 14  1  0
 10 11  1  0
  9 10  1  6
 12 16  1  0
 12 11  1  0
 13 12  2  0
 14 19  1  0
 14 15  2  0
 18 17  1  1
 18 20  1  0
 19 18  1  0
 20 22  1  0
 21 20  2  0
M  END
$$$$
