VEA.pdb
     RDKit          3D

 22 21  0  0  1  0  0  0  0  0999 V2000
   12.2437  -14.0856  -12.0338 C   0  0  0  0  0  0  0  0  0  0  0  0
   13.1192  -13.0503  -11.3629 C   0  0  2  0  0  0  0  0  0  0  0  0
   12.3782  -11.7315  -11.3578 C   0  0  0  0  0  0  0  0  0  0  0  0
   14.4242  -12.8521  -12.0987 C   0  0  2  0  0  0  0  0  0  0  0  0
   15.1759  -14.0604  -12.2340 N   0  0  0  0  0  0  0  0  0  0  0  0
   15.2530  -11.7906  -11.5224 C   0  0  0  0  0  0  0  0  0  0  0  0
   15.9749  -11.9402  -10.4960 O   0  0  0  0  0  0  0  0  0  0  0  0
   15.2739  -10.5028  -12.1235 N   0  0  0  0  0  0  0  0  0  0  0  0
   16.2069   -9.4559  -11.6820 C   0  0  1  0  0  0  0  0  0  0  0  0
   16.8530   -8.9245  -12.9160 C   0  0  0  0  0  0  0  0  0  0  0  0
   17.8394   -7.8285  -12.7201 C   0  0  0  0  0  0  0  0  0  0  0  0
   18.4921   -7.3398  -13.9376 C   0  0  0  0  0  0  0  0  0  0  0  0
   18.2271   -7.8245  -15.0655 O   0  0  0  0  0  0  0  0  0  0  0  0
   15.4858   -8.4224  -10.8947 C   0  0  0  0  0  0  0  0  0  0  0  0
   14.3731   -7.9577  -11.2426 O   0  0  0  0  0  0  0  0  0  0  0  0
   19.4426   -6.3132  -13.9273 O   0  0  0  0  0  0  0  0  0  0  0  0
   15.8315   -6.9491   -7.4669 C   0  0  0  0  0  0  0  0  0  0  0  0
   15.3507   -6.9437   -8.8937 C   0  0  2  0  0  0  0  0  0  0  0  0
   16.0715   -7.9376   -9.7028 N   0  0  0  0  0  0  0  0  0  0  0  0
   15.5375   -5.5960   -9.5004 C   0  0  0  0  0  0  0  0  0  0  0  0
   16.4418   -5.4695  -10.3595 O   0  0  0  0  0  0  0  0  0  0  0  0
   14.7477   -4.5013   -9.1414 O   0  0  0  0  0  0  0  0  0  0  0  0
  2  1  1  6
  2  3  1  0
  2  4  1  0
  4  6  1  0
  4  5  1  1
  6  8  1  0
  6  7  2  0
  8  9  1  0
  9 14  1  0
 10 11  1  0
  9 10  1  6
 12 16  1  0
 12 11  1  0
 13 12  2  0
 14 19  1  0
 14 15  2  0
 18 17  1  1
 18 20  1  0
 19 18  1  0
 20 22  1  0
 21 20  2  0
M  END
$$$$
