VEA.pdb
     RDKit          3D

 22 21  0  0  1  0  0  0  0  0999 V2000
   18.1383  -15.1469  -18.5797 C   0  0  0  0  0  0  0  0  0  0  0  0
   18.9061  -15.3009  -17.2854 C   0  0  2  0  0  0  0  0  0  0  0  0
   18.7233  -16.7182  -16.7892 C   0  0  0  0  0  0  0  0  0  0  0  0
   18.4025  -14.3607  -16.2149 C   0  0  2  0  0  0  0  0  0  0  0  0
   17.1805  -14.8007  -15.6176 N   0  0  0  0  0  0  0  0  0  0  0  0
   18.2815  -12.9760  -16.6772 C   0  0  0  0  0  0  0  0  0  0  0  0
   18.1736  -12.6465  -17.8925 O   0  0  0  0  0  0  0  0  0  0  0  0
   18.2813  -11.9119  -15.7349 N   0  0  0  0  0  0  0  0  0  0  0  0
   18.2749  -10.5032  -16.1558 C   0  0  1  0  0  0  0  0  0  0  0  0
   16.9640   -9.9429  -15.7200 C   0  0  0  0  0  0  0  0  0  0  0  0
   15.7733  -10.3782  -16.4978 C   0  0  0  0  0  0  0  0  0  0  0  0
   14.4966   -9.7916  -16.0815 C   0  0  0  0  0  0  0  0  0  0  0  0
   13.6555   -9.3846  -16.9206 O   0  0  0  0  0  0  0  0  0  0  0  0
   19.4470   -9.7902  -15.5852 C   0  0  0  0  0  0  0  0  0  0  0  0
   19.8672   -9.9978  -14.4210 O   0  0  0  0  0  0  0  0  0  0  0  0
   14.1320   -9.6467  -14.7385 O   0  0  0  0  0  0  0  0  0  0  0  0
   22.0432   -7.4066  -16.9274 C   0  0  0  0  0  0  0  0  0  0  0  0
   21.3143   -8.1613  -15.8476 C   0  0  2  0  0  0  0  0  0  0  0  0
   20.1222   -8.8366  -16.3812 N   0  0  0  0  0  0  0  0  0  0  0  0
   20.9005   -7.2365  -14.7554 C   0  0  0  0  0  0  0  0  0  0  0  0
   21.8026   -6.7711  -14.0197 O   0  0  0  0  0  0  0  0  0  0  0  0
   19.5652   -6.8874  -14.5407 O   0  0  0  0  0  0  0  0  0  0  0  0
  2  1  1  6
  2  3  1  0
  2  4  1  0
  4  6  1  0
  4  5  1  6
  6  8  1  0
  6  7  2  0
  8  9  1  0
  9 14  1  0
 10 11  1  0
  9 10  1  1
 12 16  1  0
 12 11  1  0
 13 12  2  0
 14 19  1  0
 14 15  2  0
 18 17  1  6
 18 20  1  0
 19 18  1  0
 20 22  1  0
 21 20  2  0
M  END
$$$$
