VEA.pdb
     RDKit          3D

 22 21  0  0  1  0  0  0  0  0999 V2000
   17.6651  -14.6994  -19.0342 C   0  0  0  0  0  0  0  0  0  0  0  0
   18.0888  -15.5703  -17.8721 C   0  0  2  0  0  0  0  0  0  0  0  0
   16.9881  -16.5723  -17.6020 C   0  0  0  0  0  0  0  0  0  0  0  0
   18.3082  -14.7640  -16.6130 C   0  0  2  0  0  0  0  0  0  0  0  0
   17.0889  -14.4357  -15.9427 N   0  0  0  0  0  0  0  0  0  0  0  0
   19.1153  -13.5617  -16.8342 C   0  0  0  0  0  0  0  0  0  0  0  0
   20.2893  -13.5782  -17.3015 O   0  0  0  0  0  0  0  0  0  0  0  0
   18.5826  -12.2826  -16.5174 N   0  0  0  0  0  0  0  0  0  0  0  0
   19.3335  -11.0448  -16.7730 C   0  0  1  0  0  0  0  0  0  0  0  0
   18.3937  -10.1228  -17.4724 C   0  0  0  0  0  0  0  0  0  0  0  0
   18.2557  -10.3166  -18.9406 C   0  0  0  0  0  0  0  0  0  0  0  0
   17.3500   -9.3857  -19.6193 C   0  0  0  0  0  0  0  0  0  0  0  0
   17.7463   -8.2695  -20.0365 O   0  0  0  0  0  0  0  0  0  0  0  0
   19.8700  -10.4961  -15.5006 C   0  0  0  0  0  0  0  0  0  0  0  0
   19.1570  -10.3210  -14.4827 O   0  0  0  0  0  0  0  0  0  0  0  0
   15.9996   -9.6729  -19.8459 O   0  0  0  0  0  0  0  0  0  0  0  0
   23.2165   -9.7180  -14.0345 C   0  0  0  0  0  0  0  0  0  0  0  0
   21.7481   -9.4541  -14.2374 C   0  0  2  0  0  0  0  0  0  0  0  0
   21.2399  -10.1548  -15.4259 N   0  0  0  0  0  0  0  0  0  0  0  0
   21.4987   -7.9934  -14.3913 C   0  0  0  0  0  0  0  0  0  0  0  0
   21.3607   -7.5504  -15.5559 O   0  0  0  0  0  0  0  0  0  0  0  0
   21.4178   -7.1318  -13.2948 O   0  0  0  0  0  0  0  0  0  0  0  0
  2  1  1  6
  2  3  1  0
  2  4  1  0
  4  6  1  0
  4  5  1  6
  6  8  1  0
  6  7  2  0
  8  9  1  0
  9 14  1  0
 10 11  1  0
  9 10  1  1
 12 16  1  0
 12 11  1  0
 13 12  2  0
 14 19  1  0
 14 15  2  0
 18 17  1  6
 18 20  1  0
 19 18  1  0
 20 22  1  0
 21 20  2  0
M  END
$$$$
