VEA.pdb
     RDKit          3D

 22 21  0  0  1  0  0  0  0  0999 V2000
   13.9762  -10.6600  -13.1742 C   0  0  0  0  0  0  0  0  0  0  0  0
   15.0103  -10.6492  -14.2783 C   0  0  2  0  0  0  0  0  0  0  0  0
   14.5259  -11.5497  -15.3930 C   0  0  0  0  0  0  0  0  0  0  0  0
   16.3479  -11.1683  -13.8039 C   0  0  2  0  0  0  0  0  0  0  0  0
   16.3138  -12.5527  -13.4491 N   0  0  0  0  0  0  0  0  0  0  0  0
   16.9206  -10.3710  -12.7167 C   0  0  0  0  0  0  0  0  0  0  0  0
   16.8974  -10.7178  -11.5017 O   0  0  0  0  0  0  0  0  0  0  0  0
   17.5481   -9.1284  -13.0038 N   0  0  0  0  0  0  0  0  0  0  0  0
   18.1024   -8.2758  -11.9420 C   0  0  1  0  0  0  0  0  0  0  0  0
   19.1818   -7.4667  -12.5766 C   0  0  0  0  0  0  0  0  0  0  0  0
   19.9095   -6.5272  -11.6821 C   0  0  0  0  0  0  0  0  0  0  0  0
   20.9741   -5.7456  -12.3171 C   0  0  0  0  0  0  0  0  0  0  0  0
   22.1868   -5.9839  -12.0942 O   0  0  0  0  0  0  0  0  0  0  0  0
   17.0270   -7.4560  -11.3262 C   0  0  0  0  0  0  0  0  0  0  0  0
   16.1693   -6.8406  -12.0051 O   0  0  0  0  0  0  0  0  0  0  0  0
   20.7158   -4.6943  -13.2033 O   0  0  0  0  0  0  0  0  0  0  0  0
   15.6979   -7.0538   -7.8328 C   0  0  0  0  0  0  0  0  0  0  0  0
   15.8119   -6.6911   -9.2897 C   0  0  2  0  0  0  0  0  0  0  0  0
   16.9608   -7.3604   -9.9172 N   0  0  0  0  0  0  0  0  0  0  0  0
   15.9621   -5.2175   -9.4486 C   0  0  0  0  0  0  0  0  0  0  0  0
   15.0176   -4.4945   -9.0525 O   0  0  0  0  0  0  0  0  0  0  0  0
   17.1021   -4.6415  -10.0141 O   0  0  0  0  0  0  0  0  0  0  0  0
  2  1  1  1
  2  3  1  0
  2  4  1  0
  4  6  1  0
  4  5  1  1
  6  8  1  0
  6  7  2  0
  8  9  1  0
  9 14  1  0
 10 11  1  0
  9 10  1  6
 12 16  1  0
 12 11  1  0
 13 12  2  0
 14 19  1  0
 14 15  2  0
 18 17  1  1
 18 20  1  0
 19 18  1  0
 20 22  1  0
 21 20  2  0
M  END
$$$$
