VEA.pdb
     RDKit          3D

 22 21  0  0  1  0  0  0  0  0999 V2000
   14.7021  -13.6379  -12.3385 C   0  0  0  0  0  0  0  0  0  0  0  0
   14.3961  -12.1693  -12.1432 C   0  0  2  0  0  0  0  0  0  0  0  0
   13.2181  -11.8077  -13.0207 C   0  0  0  0  0  0  0  0  0  0  0  0
   15.5617  -11.2924  -12.5381 C   0  0  2  0  0  0  0  0  0  0  0  0
   16.7089  -11.4839  -11.7070 N   0  0  0  0  0  0  0  0  0  0  0  0
   15.2116   -9.8721  -12.6152 C   0  0  0  0  0  0  0  0  0  0  0  0
   14.2291   -9.4239  -13.2714 O   0  0  0  0  0  0  0  0  0  0  0  0
   15.9984   -8.9100  -11.9254 N   0  0  0  0  0  0  0  0  0  0  0  0
   15.5939   -7.4996  -11.8331 C   0  0  1  0  0  0  0  0  0  0  0  0
   15.7453   -7.1144  -10.4009 C   0  0  0  0  0  0  0  0  0  0  0  0
   14.5537   -7.3238   -9.5357 C   0  0  0  0  0  0  0  0  0  0  0  0
   14.6584   -6.7904   -8.1749 C   0  0  0  0  0  0  0  0  0  0  0  0
   15.7200   -6.2686   -7.7532 O   0  0  0  0  0  0  0  0  0  0  0  0
   16.4039   -6.6699  -12.7621 C   0  0  0  0  0  0  0  0  0  0  0  0
   17.6501   -6.7815  -12.8610 O   0  0  0  0  0  0  0  0  0  0  0  0
   13.5969   -6.8255   -7.2641 O   0  0  0  0  0  0  0  0  0  0  0  0
   15.7472   -4.2849  -15.5706 C   0  0  0  0  0  0  0  0  0  0  0  0
   16.5495   -4.8039  -14.4071 C   0  0  2  0  0  0  0  0  0  0  0  0
   15.7506   -5.7126  -13.5717 N   0  0  0  0  0  0  0  0  0  0  0  0
   17.0373   -3.6746  -13.5667 C   0  0  0  0  0  0  0  0  0  0  0  0
   16.5417   -3.5503  -12.4219 O   0  0  0  0  0  0  0  0  0  0  0  0
   18.0084   -2.7768  -14.0161 O   0  0  0  0  0  0  0  0  0  0  0  0
  2  1  1  6
  2  3  1  0
  2  4  1  0
  4  6  1  0
  4  5  1  1
  6  8  1  0
  6  7  2  0
  8  9  1  0
  9 14  1  0
 10 11  1  0
  9 10  1  1
 12 16  1  0
 12 11  1  0
 13 12  2  0
 14 19  1  0
 14 15  2  0
 18 17  1  6
 18 20  1  0
 19 18  1  0
 20 22  1  0
 21 20  2  0
M  END
$$$$
