VEA.pdb
     RDKit          3D

 22 21  0  0  1  0  0  0  0  0999 V2000
   14.5668   -8.7185  -14.0364 C   0  0  0  0  0  0  0  0  0  0  0  0
   14.5879   -9.1523  -12.5873 C   0  0  2  0  0  0  0  0  0  0  0  0
   14.3184   -7.9401  -11.7234 C   0  0  0  0  0  0  0  0  0  0  0  0
   15.9289   -9.7235  -12.1885 C   0  0  2  0  0  0  0  0  0  0  0  0
   15.9530  -10.1982  -10.8403 N   0  0  0  0  0  0  0  0  0  0  0  0
   17.0410   -8.8014  -12.4308 C   0  0  0  0  0  0  0  0  0  0  0  0
   17.5199   -8.0298  -11.5520 O   0  0  0  0  0  0  0  0  0  0  0  0
   17.6440   -8.7410  -13.7165 N   0  0  0  0  0  0  0  0  0  0  0  0
   18.7886   -7.8616  -13.9957 C   0  0  1  0  0  0  0  0  0  0  0  0
   19.8666   -8.7378  -14.5367 C   0  0  0  0  0  0  0  0  0  0  0  0
   21.1277   -8.0568  -14.9345 C   0  0  0  0  0  0  0  0  0  0  0  0
   22.2278   -8.9417  -15.3272 C   0  0  0  0  0  0  0  0  0  0  0  0
   22.4020  -10.0575  -14.7778 O   0  0  0  0  0  0  0  0  0  0  0  0
   18.3863   -6.7712  -14.9215 C   0  0  0  0  0  0  0  0  0  0  0  0
   17.7465   -6.9814  -15.9806 O   0  0  0  0  0  0  0  0  0  0  0  0
   23.1473   -8.6085  -16.3277 O   0  0  0  0  0  0  0  0  0  0  0  0
   17.7536   -3.1921  -14.7539 C   0  0  0  0  0  0  0  0  0  0  0  0
   18.3457   -4.3507  -15.5115 C   0  0  2  0  0  0  0  0  0  0  0  0
   18.7351   -5.4388  -14.6026 N   0  0  0  0  0  0  0  0  0  0  0  0
   19.5419   -3.9108  -16.2828 C   0  0  0  0  0  0  0  0  0  0  0  0
   20.6689   -4.1692  -15.7982 O   0  0  0  0  0  0  0  0  0  0  0  0
   19.4360   -3.2353  -17.5008 O   0  0  0  0  0  0  0  0  0  0  0  0
  2  1  1  6
  2  3  1  0
  2  4  1  0
  4  6  1  0
  4  5  1  1
  6  8  1  0
  6  7  2  0
  8  9  1  0
  9 14  1  0
 10 11  1  0
  9 10  1  6
 12 16  1  0
 12 11  1  0
 13 12  2  0
 14 19  1  0
 14 15  2  0
 18 17  1  1
 18 20  1  0
 19 18  1  0
 20 22  1  0
 21 20  2  0
M  END
$$$$
