LHG.pdb
     RDKit          3D

 23 23  0  0  1  0  0  0  0  0999 V2000
   32.9320  -35.3986   -6.6092 C   0  0  0  0  0  0  0  0  0  0  0  0
   32.3538  -34.0117   -6.4558 C   0  0  2  0  0  0  0  0  0  0  0  0
   33.4028  -32.9361   -6.6754 C   0  0  0  0  0  0  0  0  0  0  0  0
   31.8519  -33.8672   -5.0479 C   0  0  0  0  0  0  0  0  0  0  0  0
   30.6549  -34.7535   -4.7760 C   0  0  2  0  0  0  0  0  0  0  0  0
   29.5039  -34.1749   -5.4266 N   0  0  0  0  0  0  0  0  0  0  0  0
   30.4305  -34.7320   -3.3065 C   0  0  0  0  0  0  0  0  0  0  0  0
   29.8950  -33.7315   -2.7702 O   0  0  0  0  0  0  0  0  0  0  0  0
   30.8083  -35.8123   -2.5121 N   0  0  0  0  0  0  0  0  0  0  0  0
   30.5955  -35.6621   -1.0229 C   0  0  1  0  0  0  0  0  0  0  0  0
   29.3085  -36.4167   -0.8389 C   0  0  0  0  0  0  0  0  0  0  0  0
   28.1614  -35.7408   -0.2689 C   0  0  0  0  0  0  0  0  0  0  0  0
   27.9786  -34.4156   -0.0227 C   0  0  0  0  0  0  0  0  0  0  0  0
   26.6984  -34.2815    0.4340 N   0  0  0  0  0  0  0  0  0  0  0  0
   26.1267  -35.4913    0.4606 C   0  0  0  0  0  0  0  0  0  0  0  0
   26.9927  -36.3919    0.0390 N   0  0  0  0  0  0  0  0  0  0  0  0
   31.7587  -36.4394   -0.4576 C   0  0  0  0  0  0  0  0  0  0  0  0
   32.0183  -37.5797   -1.0139 O   0  0  0  0  0  0  0  0  0  0  0  0
   32.5889  -36.0564    0.6015 N   0  0  0  0  0  0  0  0  0  0  0  0
   33.6719  -36.9585    1.0369 C   0  0  0  0  0  0  0  0  0  0  0  0
   34.5604  -36.2512    1.9859 C   0  0  0  0  0  0  0  0  0  0  0  0
   34.3304  -34.9173    2.3229 O   0  0  0  0  0  0  0  0  0  0  0  0
   35.5097  -36.8920    2.4635 O   0  0  0  0  0  0  0  0  0  0  0  0
  2  1  1  1
  2  3  1  0
  4  2  1  0
  4  5  1  0
  5  7  1  0
  5  6  1  6
  7  8  2  0
  9  7  1  0
  9 10  1  0
 11 12  1  0
 10 11  1  1
 12 16  1  0
 13 14  1  0
 13 12  2  0
 14 15  1  0
 15 16  2  0
 17 10  1  0
 17 19  1  0
 18 17  2  0
 20 19  1  0
 20 21  1  0
 21 22  1  0
 23 21  2  0
M  END
$$$$
