LHG.pdb
     RDKit          3D

 23 23  0  0  1  0  0  0  0  0999 V2000
   37.6972   -1.1699  -11.3591 C   0  0  0  0  0  0  0  0  0  0  0  0
   36.6462   -2.2529  -11.2953 C   0  0  2  0  0  0  0  0  0  0  0  0
   35.2707   -1.6864  -10.9909 C   0  0  0  0  0  0  0  0  0  0  0  0
   37.0041   -3.1869  -10.1752 C   0  0  0  0  0  0  0  0  0  0  0  0
   38.3495   -3.8466  -10.3916 C   0  0  2  0  0  0  0  0  0  0  0  0
   38.3000   -4.5841  -11.6311 N   0  0  0  0  0  0  0  0  0  0  0  0
   38.5399   -4.8085   -9.2740 C   0  0  0  0  0  0  0  0  0  0  0  0
   37.6645   -4.9100   -8.3803 O   0  0  0  0  0  0  0  0  0  0  0  0
   39.6823   -5.6029   -9.2043 N   0  0  0  0  0  0  0  0  0  0  0  0
   39.7408   -6.6033   -8.0724 C   0  0  1  0  0  0  0  0  0  0  0  0
   38.8679   -7.7010   -8.6136 C   0  0  0  0  0  0  0  0  0  0  0  0
   38.6675   -8.9032   -7.8313 C   0  0  0  0  0  0  0  0  0  0  0  0
   39.0250   -9.1617   -6.5446 C   0  0  0  0  0  0  0  0  0  0  0  0
   38.5315  -10.4005   -6.2490 N   0  0  0  0  0  0  0  0  0  0  0  0
   37.8941  -10.8733   -7.3265 C   0  0  0  0  0  0  0  0  0  0  0  0
   37.9622   -9.9845   -8.2982 N   0  0  0  0  0  0  0  0  0  0  0  0
   41.1924   -7.0146   -8.0890 C   0  0  0  0  0  0  0  0  0  0  0  0
   41.7768   -7.0301   -9.2446 O   0  0  0  0  0  0  0  0  0  0  0  0
   41.9749   -7.3772   -6.9873 N   0  0  0  0  0  0  0  0  0  0  0  0
   43.3953   -7.7210   -7.1882 C   0  0  0  0  0  0  0  0  0  0  0  0
   43.5055   -9.0938   -7.7302 C   0  0  0  0  0  0  0  0  0  0  0  0
   44.6807   -9.8301   -7.5801 O   0  0  0  0  0  0  0  0  0  0  0  0
   42.5151   -9.5555   -8.3182 O   0  0  0  0  0  0  0  0  0  0  0  0
  2  1  1  1
  2  3  1  0
  4  2  1  0
  4  5  1  0
  5  7  1  0
  5  6  1  6
  7  8  2  0
  9  7  1  0
  9 10  1  0
 11 12  1  0
 10 11  1  6
 12 16  1  0
 13 14  1  0
 13 12  2  0
 14 15  1  0
 15 16  2  0
 17 10  1  0
 17 19  1  0
 18 17  2  0
 20 19  1  0
 20 21  1  0
 21 22  1  0
 23 21  2  0
M  END
$$$$
