LHG.pdb
     RDKit          3D

 23 23  0  0  1  0  0  0  0  0999 V2000
   28.0617  -13.2510  -16.4399 C   0  0  0  0  0  0  0  0  0  0  0  0
   27.3175  -11.9589  -16.6806 C   0  0  2  0  0  0  0  0  0  0  0  0
   28.1776  -10.7467  -16.3701 C   0  0  0  0  0  0  0  0  0  0  0  0
   26.1365  -11.9195  -15.7538 C   0  0  0  0  0  0  0  0  0  0  0  0
   25.1612  -13.0451  -16.0260 C   0  0  2  0  0  0  0  0  0  0  0  0
   25.0713  -13.2333  -17.4540 N   0  0  0  0  0  0  0  0  0  0  0  0
   23.8367  -12.5958  -15.5219 C   0  0  0  0  0  0  0  0  0  0  0  0
   23.7084  -12.2509  -14.3219 O   0  0  0  0  0  0  0  0  0  0  0  0
   22.7300  -12.5520  -16.3670 N   0  0  0  0  0  0  0  0  0  0  0  0
   21.4440  -12.0289  -15.7686 C   0  0  1  0  0  0  0  0  0  0  0  0
   21.3962  -10.6455  -16.3548 C   0  0  0  0  0  0  0  0  0  0  0  0
   21.5241   -9.4969  -15.4820 C   0  0  0  0  0  0  0  0  0  0  0  0
   21.6933   -9.4564  -14.1329 C   0  0  0  0  0  0  0  0  0  0  0  0
   21.8486   -8.1400  -13.8034 N   0  0  0  0  0  0  0  0  0  0  0  0
   21.7764   -7.4094  -14.9223 C   0  0  0  0  0  0  0  0  0  0  0  0
   21.5805   -8.2085  -15.9528 N   0  0  0  0  0  0  0  0  0  0  0  0
   20.4105  -12.9203  -16.4122 C   0  0  0  0  0  0  0  0  0  0  0  0
   20.6329  -13.2733  -17.6382 O   0  0  0  0  0  0  0  0  0  0  0  0
   19.2394  -13.4090  -15.8230 N   0  0  0  0  0  0  0  0  0  0  0  0
   18.3411  -14.2778  -16.6068 C   0  0  0  0  0  0  0  0  0  0  0  0
   17.3366  -13.4513  -17.3125 C   0  0  0  0  0  0  0  0  0  0  0  0
   16.3492  -14.0429  -18.1004 O   0  0  0  0  0  0  0  0  0  0  0  0
   17.4117  -12.2205  -17.1730 O   0  0  0  0  0  0  0  0  0  0  0  0
  2  1  1  1
  2  3  1  0
  4  2  1  0
  4  5  1  0
  5  7  1  0
  5  6  1  6
  7  8  2  0
  9  7  1  0
  9 10  1  0
 11 12  1  0
 10 11  1  6
 12 16  1  0
 13 14  1  0
 13 12  2  0
 14 15  1  0
 15 16  2  0
 17 10  1  0
 17 19  1  0
 18 17  2  0
 20 19  1  0
 20 21  1  0
 21 22  1  0
 23 21  2  0
M  END
$$$$
