LHG.pdb
     RDKit          3D

 23 23  0  0  1  0  0  0  0  0999 V2000
   27.1651  -34.5541  -15.2028 C   0  0  0  0  0  0  0  0  0  0  0  0
   27.0321  -33.1130  -15.6351 C   0  0  2  0  0  0  0  0  0  0  0  0
   28.3523  -32.3699  -15.5338 C   0  0  0  0  0  0  0  0  0  0  0  0
   26.0638  -32.4343  -14.7094 C   0  0  0  0  0  0  0  0  0  0  0  0
   24.7016  -33.0950  -14.7260 C   0  0  2  0  0  0  0  0  0  0  0  0
   23.9784  -32.6165  -15.8795 N   0  0  0  0  0  0  0  0  0  0  0  0
   23.9917  -32.6442  -13.4999 C   0  0  0  0  0  0  0  0  0  0  0  0
   23.3944  -31.5403  -13.4932 O   0  0  0  0  0  0  0  0  0  0  0  0
   23.9799  -33.4340  -12.3522 N   0  0  0  0  0  0  0  0  0  0  0  0
   23.1433  -32.9333  -11.1969 C   0  0  1  0  0  0  0  0  0  0  0  0
   22.2197  -34.1001  -10.9840 C   0  0  0  0  0  0  0  0  0  0  0  0
   20.9593  -34.1504  -11.6957 C   0  0  0  0  0  0  0  0  0  0  0  0
   20.4626  -33.2924  -12.6271 C   0  0  0  0  0  0  0  0  0  0  0  0
   19.2827  -33.8303  -13.0561 N   0  0  0  0  0  0  0  0  0  0  0  0
   19.0761  -34.9797  -12.4027 C   0  0  0  0  0  0  0  0  0  0  0  0
   20.0780  -35.1958  -11.5731 N   0  0  0  0  0  0  0  0  0  0  0  0
   24.1601  -32.8443  -10.0857 C   0  0  0  0  0  0  0  0  0  0  0  0
   24.9176  -33.8798   -9.9095 O   0  0  0  0  0  0  0  0  0  0  0  0
   24.3739  -31.7596   -9.2281 N   0  0  0  0  0  0  0  0  0  0  0  0
   25.4709  -31.8185   -8.2437 C   0  0  0  0  0  0  0  0  0  0  0  0
   25.0391  -32.5949   -7.0600 C   0  0  0  0  0  0  0  0  0  0  0  0
   25.9234  -32.8538   -6.0126 O   0  0  0  0  0  0  0  0  0  0  0  0
   23.8667  -33.0010   -7.0415 O   0  0  0  0  0  0  0  0  0  0  0  0
  2  1  1  1
  2  3  1  0
  4  2  1  0
  4  5  1  0
  5  7  1  0
  5  6  1  6
  7  8  2  0
  9  7  1  0
  9 10  1  0
 11 12  1  0
 10 11  1  1
 12 16  1  0
 13 14  1  0
 13 12  2  0
 14 15  1  0
 15 16  2  0
 17 10  1  0
 17 19  1  0
 18 17  2  0
 20 19  1  0
 20 21  1  0
 21 22  1  0
 23 21  2  0
M  END
$$$$
