LHG.pdb
     RDKit          3D

 23 23  0  0  1  0  0  0  0  0999 V2000
   27.1119  -13.0576  -15.0077 C   0  0  0  0  0  0  0  0  0  0  0  0
   27.1649  -12.2209  -16.2641 C   0  0  2  0  0  0  0  0  0  0  0  0
   28.4826  -11.4772  -16.3909 C   0  0  0  0  0  0  0  0  0  0  0  0
   26.0747  -11.1910  -16.1866 C   0  0  0  0  0  0  0  0  0  0  0  0
   24.6967  -11.8179  -16.2031 C   0  0  2  0  0  0  0  0  0  0  0  0
   24.6266  -12.7322  -17.3175 N   0  0  0  0  0  0  0  0  0  0  0  0
   23.7267  -10.7148  -16.4320 C   0  0  0  0  0  0  0  0  0  0  0  0
   23.5746  -10.2452  -17.5860 O   0  0  0  0  0  0  0  0  0  0  0  0
   22.9801  -10.1921  -15.3783 N   0  0  0  0  0  0  0  0  0  0  0  0
   21.9712   -9.1228  -15.7310 C   0  0  1  0  0  0  0  0  0  0  0  0
   20.6860   -9.8040  -15.3517 C   0  0  0  0  0  0  0  0  0  0  0  0
   20.1171  -10.7973  -16.2390 C   0  0  0  0  0  0  0  0  0  0  0  0
   19.6999  -10.6621  -17.5267 C   0  0  0  0  0  0  0  0  0  0  0  0
   19.3303  -11.9087  -17.9448 N   0  0  0  0  0  0  0  0  0  0  0  0
   19.5209  -12.7696  -16.9381 C   0  0  0  0  0  0  0  0  0  0  0  0
   19.9973  -12.1205  -15.8938 N   0  0  0  0  0  0  0  0  0  0  0  0
   22.3107   -8.0311  -14.7463 C   0  0  0  0  0  0  0  0  0  0  0  0
   22.9009   -8.3994  -13.6539 O   0  0  0  0  0  0  0  0  0  0  0  0
   22.0589   -6.6624  -14.8905 N   0  0  0  0  0  0  0  0  0  0  0  0
   22.4945   -5.7295  -13.8341 C   0  0  0  0  0  0  0  0  0  0  0  0
   22.2171   -4.3369  -14.2514 C   0  0  0  0  0  0  0  0  0  0  0  0
   22.3756   -3.2772  -13.3583 O   0  0  0  0  0  0  0  0  0  0  0  0
   21.8410   -4.1564  -15.4201 O   0  0  0  0  0  0  0  0  0  0  0  0
  2  1  1  1
  2  3  1  0
  4  2  1  0
  4  5  1  0
  5  7  1  0
  5  6  1  6
  7  8  2  0
  9  7  1  0
  9 10  1  0
 11 12  1  0
 10 11  1  1
 12 16  1  0
 13 14  1  0
 13 12  2  0
 14 15  1  0
 15 16  2  0
 17 10  1  0
 17 19  1  0
 18 17  2  0
 20 19  1  0
 20 21  1  0
 21 22  1  0
 23 21  2  0
M  END
$$$$
