LHG.pdb
     RDKit          3D

 23 23  0  0  1  0  0  0  0  0999 V2000
   21.8991  -11.3165  -18.0196 C   0  0  0  0  0  0  0  0  0  0  0  0
   20.5841  -10.7713  -18.5244 C   0  0  2  0  0  0  0  0  0  0  0  0
   20.7222  -10.1545  -19.9049 C   0  0  0  0  0  0  0  0  0  0  0  0
   20.1393   -9.6831  -17.5899 C   0  0  0  0  0  0  0  0  0  0  0  0
   20.0065  -10.1754  -16.1644 C   0  0  2  0  0  0  0  0  0  0  0  0
   18.9996  -11.2088  -16.1324 N   0  0  0  0  0  0  0  0  0  0  0  0
   19.5298   -9.0227  -15.3555 C   0  0  0  0  0  0  0  0  0  0  0  0
   18.3528   -8.6081  -15.4905 O   0  0  0  0  0  0  0  0  0  0  0  0
   20.3754   -8.3928  -14.4449 N   0  0  0  0  0  0  0  0  0  0  0  0
   19.7938   -7.2264  -13.6789 C   0  0  1  0  0  0  0  0  0  0  0  0
   19.6740   -7.8177  -12.3021 C   0  0  0  0  0  0  0  0  0  0  0  0
   18.4294   -8.4390  -11.8991 C   0  0  0  0  0  0  0  0  0  0  0  0
   17.2730   -8.5824  -12.6009 C   0  0  0  0  0  0  0  0  0  0  0  0
   16.4321   -9.3149  -11.8123 N   0  0  0  0  0  0  0  0  0  0  0  0
   17.0648   -9.6051  -10.6694 C   0  0  0  0  0  0  0  0  0  0  0  0
   18.2765   -9.0858  -10.6980 N   0  0  0  0  0  0  0  0  0  0  0  0
   20.9169   -6.2203  -13.7349 C   0  0  0  0  0  0  0  0  0  0  0  0
   22.0929   -6.6456  -13.3981 O   0  0  0  0  0  0  0  0  0  0  0  0
   20.8228   -4.8773  -14.1161 N   0  0  0  0  0  0  0  0  0  0  0  0
   22.0158   -4.0139  -14.0308 C   0  0  0  0  0  0  0  0  0  0  0  0
   21.6568   -2.6272  -14.4030 C   0  0  0  0  0  0  0  0  0  0  0  0
   20.3892   -2.3254  -14.9009 O   0  0  0  0  0  0  0  0  0  0  0  0
   22.5257   -1.7539  -14.2537 O   0  0  0  0  0  0  0  0  0  0  0  0
  2  1  1  1
  2  3  1  0
  4  2  1  0
  4  5  1  0
  5  7  1  0
  5  6  1  6
  7  8  2  0
  9  7  1  0
  9 10  1  0
 11 12  1  0
 10 11  1  1
 12 16  1  0
 13 14  1  0
 13 12  2  0
 14 15  1  0
 15 16  2  0
 17 10  1  0
 17 19  1  0
 18 17  2  0
 20 19  1  0
 20 21  1  0
 21 22  1  0
 23 21  2  0
M  END
$$$$
