LHG.pdb
     RDKit          3D

 23 23  0  0  1  0  0  0  0  0999 V2000
   11.0004  -16.0955    0.3756 C   0  0  0  0  0  0  0  0  0  0  0  0
   10.3972  -16.7731    1.5832 C   0  0  2  0  0  0  0  0  0  0  0  0
   10.0049  -15.7712    2.6546 C   0  0  0  0  0  0  0  0  0  0  0  0
   11.4352  -17.6811    2.1774 C   0  0  0  0  0  0  0  0  0  0  0  0
   11.8674  -18.7623    1.2097 C   0  0  2  0  0  0  0  0  0  0  0  0
   10.6998  -19.5143    0.8173 N   0  0  0  0  0  0  0  0  0  0  0  0
   12.7842  -19.6639    1.9558 C   0  0  0  0  0  0  0  0  0  0  0  0
   12.3175  -20.6265    2.6122 O   0  0  0  0  0  0  0  0  0  0  0  0
   14.1614  -19.4544    1.9367 N   0  0  0  0  0  0  0  0  0  0  0  0
   15.0139  -20.5081    2.6064 C   0  0  1  0  0  0  0  0  0  0  0  0
   15.8710  -20.9580    1.4563 C   0  0  0  0  0  0  0  0  0  0  0  0
   15.4007  -22.0184    0.5892 C   0  0  0  0  0  0  0  0  0  0  0  0
   14.2568  -22.7502    0.6680 C   0  0  0  0  0  0  0  0  0  0  0  0
   14.2389  -23.5570   -0.4339 N   0  0  0  0  0  0  0  0  0  0  0  0
   15.3398  -23.3167   -1.1558 C   0  0  0  0  0  0  0  0  0  0  0  0
   16.0596  -22.3882   -0.5570 N   0  0  0  0  0  0  0  0  0  0  0  0
   15.8175  -19.6887    3.5860 C   0  0  0  0  0  0  0  0  0  0  0  0
   16.2392  -18.5374    3.1691 O   0  0  0  0  0  0  0  0  0  0  0  0
   16.1517  -20.0396    4.8985 N   0  0  0  0  0  0  0  0  0  0  0  0
   16.9849  -19.1265    5.7036 C   0  0  0  0  0  0  0  0  0  0  0  0
   16.1856  -18.5739    6.8199 C   0  0  0  0  0  0  0  0  0  0  0  0
   16.7584  -17.7047    7.7485 O   0  0  0  0  0  0  0  0  0  0  0  0
   14.9948  -18.9154    6.8919 O   0  0  0  0  0  0  0  0  0  0  0  0
  2  1  1  6
  2  3  1  0
  4  2  1  0
  4  5  1  0
  5  7  1  0
  5  6  1  1
  7  8  2  0
  9  7  1  0
  9 10  1  0
 11 12  1  0
 10 11  1  6
 12 16  1  0
 13 14  1  0
 13 12  2  0
 14 15  1  0
 15 16  2  0
 17 10  1  0
 17 19  1  0
 18 17  2  0
 20 19  1  0
 20 21  1  0
 21 22  1  0
 23 21  2  0
M  END
$$$$
