LHG.pdb
     RDKit          3D

 23 23  0  0  1  0  0  0  0  0999 V2000
   27.7080  -13.0959  -15.3611 C   0  0  0  0  0  0  0  0  0  0  0  0
   28.0190  -12.4538  -16.6924 C   0  0  2  0  0  0  0  0  0  0  0  0
   29.3666  -11.7543  -16.6799 C   0  0  0  0  0  0  0  0  0  0  0  0
   26.9746  -11.4093  -16.9633 C   0  0  0  0  0  0  0  0  0  0  0  0
   25.5834  -12.0016  -17.0415 C   0  0  2  0  0  0  0  0  0  0  0  0
   25.5580  -12.9614  -18.1189 N   0  0  0  0  0  0  0  0  0  0  0  0
   24.6606  -10.8855  -17.3778 C   0  0  0  0  0  0  0  0  0  0  0  0
   24.5368  -10.5142  -18.5703 O   0  0  0  0  0  0  0  0  0  0  0  0
   23.9274  -10.2426  -16.3828 N   0  0  0  0  0  0  0  0  0  0  0  0
   22.9598   -9.1749  -16.8406 C   0  0  1  0  0  0  0  0  0  0  0  0
   21.6449   -9.8780  -16.6499 C   0  0  0  0  0  0  0  0  0  0  0  0
   21.1880  -10.8190  -17.6516 C   0  0  0  0  0  0  0  0  0  0  0  0
   20.6789  -10.5776  -18.8897 C   0  0  0  0  0  0  0  0  0  0  0  0
   20.4864  -11.7981  -19.4717 N   0  0  0  0  0  0  0  0  0  0  0  0
   20.8700  -12.7467  -18.6092 C   0  0  0  0  0  0  0  0  0  0  0  0
   21.2993  -12.1788  -17.4992 N   0  0  0  0  0  0  0  0  0  0  0  0
   23.1526   -8.1045  -15.7947 C   0  0  0  0  0  0  0  0  0  0  0  0
   23.3703   -8.5101  -14.5842 O   0  0  0  0  0  0  0  0  0  0  0  0
   23.1249   -6.7201  -15.9953 N   0  0  0  0  0  0  0  0  0  0  0  0
   23.3848   -5.8172  -14.8581 C   0  0  0  0  0  0  0  0  0  0  0  0
   22.1047   -5.4323  -14.2229 C   0  0  0  0  0  0  0  0  0  0  0  0
   22.0854   -4.6443  -13.0720 O   0  0  0  0  0  0  0  0  0  0  0  0
   21.0597   -5.8382  -14.7550 O   0  0  0  0  0  0  0  0  0  0  0  0
  2  1  1  1
  2  3  1  0
  4  2  1  0
  4  5  1  0
  5  7  1  0
  5  6  1  6
  7  8  2  0
  9  7  1  0
  9 10  1  0
 11 12  1  0
 10 11  1  1
 12 16  1  0
 13 14  1  0
 13 12  2  0
 14 15  1  0
 15 16  2  0
 17 10  1  0
 17 19  1  0
 18 17  2  0
 20 19  1  0
 20 21  1  0
 21 22  1  0
 23 21  2  0
M  END
$$$$
