LHG.pdb
     RDKit          3D

 23 23  0  0  1  0  0  0  0  0999 V2000
   21.4636  -10.5358  -22.5179 C   0  0  0  0  0  0  0  0  0  0  0  0
   21.1409  -11.6050  -21.5011 C   0  0  2  0  0  0  0  0  0  0  0  0
   20.2186  -12.6670  -22.0730 C   0  0  0  0  0  0  0  0  0  0  0  0
   20.4207  -10.9571  -20.3535 C   0  0  0  0  0  0  0  0  0  0  0  0
   21.1990   -9.7937  -19.7766 C   0  0  2  0  0  0  0  0  0  0  0  0
   22.4686  -10.2877  -19.3004 N   0  0  0  0  0  0  0  0  0  0  0  0
   20.4194   -9.2904  -18.6150 C   0  0  0  0  0  0  0  0  0  0  0  0
   19.2421   -8.8875  -18.7793 O   0  0  0  0  0  0  0  0  0  0  0  0
   20.9800   -9.2595  -17.3400 N   0  0  0  0  0  0  0  0  0  0  0  0
   20.1406   -8.6355  -16.2484 C   0  0  1  0  0  0  0  0  0  0  0  0
   19.9750   -9.7999  -15.3122 C   0  0  0  0  0  0  0  0  0  0  0  0
   18.8163  -10.6591  -15.4414 C   0  0  0  0  0  0  0  0  0  0  0  0
   17.8245  -10.6313  -16.3719 C   0  0  0  0  0  0  0  0  0  0  0  0
   17.0198  -11.7033  -16.1094 N   0  0  0  0  0  0  0  0  0  0  0  0
   17.5140  -12.3581  -15.0521 C   0  0  0  0  0  0  0  0  0  0  0  0
   18.6025  -11.7453  -14.6296 N   0  0  0  0  0  0  0  0  0  0  0  0
   21.0857   -7.6117  -15.6693 C   0  0  0  0  0  0  0  0  0  0  0  0
   22.3433   -7.9207  -15.6664 O   0  0  0  0  0  0  0  0  0  0  0  0
   20.7472   -6.3620  -15.1389 N   0  0  0  0  0  0  0  0  0  0  0  0
   21.8179   -5.4389  -14.7173 C   0  0  0  0  0  0  0  0  0  0  0  0
   22.1871   -5.7111  -13.3102 C   0  0  0  0  0  0  0  0  0  0  0  0
   23.1902   -4.9758  -12.6786 O   0  0  0  0  0  0  0  0  0  0  0  0
   21.5702   -6.6140  -12.7236 O   0  0  0  0  0  0  0  0  0  0  0  0
  2  1  1  6
  2  3  1  0
  4  2  1  0
  4  5  1  0
  5  7  1  0
  5  6  1  1
  7  8  2  0
  9  7  1  0
  9 10  1  0
 11 12  1  0
 10 11  1  1
 12 16  1  0
 13 14  1  0
 13 12  2  0
 14 15  1  0
 15 16  2  0
 17 10  1  0
 17 19  1  0
 18 17  2  0
 20 19  1  0
 20 21  1  0
 21 22  1  0
 23 21  2  0
M  END
$$$$
