LHG.pdb
     RDKit          3D

 23 23  0  0  1  0  0  0  0  0999 V2000
   26.8051  -11.8165  -14.9525 C   0  0  0  0  0  0  0  0  0  0  0  0
   26.6835  -11.3665  -16.3891 C   0  0  2  0  0  0  0  0  0  0  0  0
   27.9285  -10.6347  -16.8581 C   0  0  0  0  0  0  0  0  0  0  0  0
   25.5357  -10.4026  -16.4819 C   0  0  0  0  0  0  0  0  0  0  0  0
   24.2128  -11.0582  -16.1467 C   0  0  2  0  0  0  0  0  0  0  0  0
   23.9779  -12.1193  -17.0963 N   0  0  0  0  0  0  0  0  0  0  0  0
   23.1629  -10.0207  -16.3247 C   0  0  0  0  0  0  0  0  0  0  0  0
   22.7582   -9.7318  -17.4771 O   0  0  0  0  0  0  0  0  0  0  0  0
   22.6191   -9.3611  -15.2246 N   0  0  0  0  0  0  0  0  0  0  0  0
   21.4832   -8.4037  -15.5053 C   0  0  1  0  0  0  0  0  0  0  0  0
   20.3223   -9.1542  -14.9147 C   0  0  0  0  0  0  0  0  0  0  0  0
   19.6971  -10.2148  -15.6775 C   0  0  0  0  0  0  0  0  0  0  0  0
   19.6566  -11.5501  -15.4207 C   0  0  0  0  0  0  0  0  0  0  0  0
   18.8710  -12.1052  -16.3903 N   0  0  0  0  0  0  0  0  0  0  0  0
   18.4496  -11.1318  -17.2063 C   0  0  0  0  0  0  0  0  0  0  0  0
   18.9364   -9.9772  -16.7952 N   0  0  0  0  0  0  0  0  0  0  0  0
   21.8491   -7.2188  -14.6459 C   0  0  0  0  0  0  0  0  0  0  0  0
   22.4588   -7.4768  -13.5328 O   0  0  0  0  0  0  0  0  0  0  0  0
   21.6030   -5.8703  -14.9264 N   0  0  0  0  0  0  0  0  0  0  0  0
   22.1690   -4.8312  -14.0455 C   0  0  0  0  0  0  0  0  0  0  0  0
   21.7684   -3.4918  -14.5311 C   0  0  0  0  0  0  0  0  0  0  0  0
   22.1249   -2.3401  -13.8292 O   0  0  0  0  0  0  0  0  0  0  0  0
   21.1078   -3.4400  -15.5803 O   0  0  0  0  0  0  0  0  0  0  0  0
  2  1  1  1
  2  3  1  0
  4  2  1  0
  4  5  1  0
  5  7  1  0
  5  6  1  6
  7  8  2  0
  9  7  1  0
  9 10  1  0
 11 12  1  0
 10 11  1  1
 12 16  1  0
 13 14  1  0
 13 12  2  0
 14 15  1  0
 15 16  2  0
 17 10  1  0
 17 19  1  0
 18 17  2  0
 20 19  1  0
 20 21  1  0
 21 22  1  0
 23 21  2  0
M  END
$$$$
