LHG.pdb
     RDKit          3D

 23 23  0  0  1  0  0  0  0  0999 V2000
   26.2918  -20.5761   -6.2482 C   0  0  0  0  0  0  0  0  0  0  0  0
   27.4311  -20.1566   -7.1467 C   0  0  2  0  0  0  0  0  0  0  0  0
   28.2391  -19.0229   -6.5405 C   0  0  0  0  0  0  0  0  0  0  0  0
   26.8490  -19.6524   -8.4359 C   0  0  0  0  0  0  0  0  0  0  0  0
   26.1646  -20.7518   -9.2203 C   0  0  2  0  0  0  0  0  0  0  0  0
   27.0830  -21.8575   -9.3492 N   0  0  0  0  0  0  0  0  0  0  0  0
   25.8881  -20.2038  -10.5744 C   0  0  0  0  0  0  0  0  0  0  0  0
   25.7363  -18.9677  -10.7298 O   0  0  0  0  0  0  0  0  0  0  0  0
   25.7946  -21.0475  -11.6791 N   0  0  0  0  0  0  0  0  0  0  0  0
   25.5571  -20.3843  -13.0168 C   0  0  1  0  0  0  0  0  0  0  0  0
   26.5138  -21.1474  -13.8897 C   0  0  0  0  0  0  0  0  0  0  0  0
   26.5867  -20.8423  -15.3037 C   0  0  0  0  0  0  0  0  0  0  0  0
   25.9677  -19.8535  -16.0033 C   0  0  0  0  0  0  0  0  0  0  0  0
   26.4339  -19.9379  -17.2842 N   0  0  0  0  0  0  0  0  0  0  0  0
   27.3095  -20.9476  -17.3532 C   0  0  0  0  0  0  0  0  0  0  0  0
   27.4195  -21.5110  -16.1661 N   0  0  0  0  0  0  0  0  0  0  0  0
   24.1305  -20.7755  -13.3144 C   0  0  0  0  0  0  0  0  0  0  0  0
   23.7402  -21.9265  -12.8671 O   0  0  0  0  0  0  0  0  0  0  0  0
   23.1836  -20.0243  -14.0191 N   0  0  0  0  0  0  0  0  0  0  0  0
   21.8918  -20.6392  -14.3787 C   0  0  0  0  0  0  0  0  0  0  0  0
   20.8287  -20.1274  -13.4853 C   0  0  0  0  0  0  0  0  0  0  0  0
   19.4851  -20.4002  -13.7425 O   0  0  0  0  0  0  0  0  0  0  0  0
   21.1830  -19.4514  -12.5068 O   0  0  0  0  0  0  0  0  0  0  0  0
  2  1  1  1
  2  3  1  0
  4  2  1  0
  4  5  1  0
  5  7  1  0
  5  6  1  6
  7  8  2  0
  9  7  1  0
  9 10  1  0
 11 12  1  0
 10 11  1  6
 12 16  1  0
 13 14  1  0
 13 12  2  0
 14 15  1  0
 15 16  2  0
 17 10  1  0
 17 19  1  0
 18 17  2  0
 20 19  1  0
 20 21  1  0
 21 22  1  0
 23 21  2  0
M  END
$$$$
