LHG.pdb
     RDKit          3D

 23 23  0  0  1  0  0  0  0  0999 V2000
   25.5711  -22.6840  -17.6989 C   0  0  0  0  0  0  0  0  0  0  0  0
   26.7380  -22.0888  -16.9470 C   0  0  2  0  0  0  0  0  0  0  0  0
   27.3939  -23.1045  -16.0284 C   0  0  0  0  0  0  0  0  0  0  0  0
   26.2194  -20.9741  -16.0847 C   0  0  0  0  0  0  0  0  0  0  0  0
   25.4435  -19.9491  -16.8844 C   0  0  2  0  0  0  0  0  0  0  0  0
   26.3110  -18.8260  -17.1470 N   0  0  0  0  0  0  0  0  0  0  0  0
   24.3224  -19.4916  -16.0219 C   0  0  0  0  0  0  0  0  0  0  0  0
   24.5638  -18.8503  -14.9703 O   0  0  0  0  0  0  0  0  0  0  0  0
   23.0006  -19.7661  -16.3660 N   0  0  0  0  0  0  0  0  0  0  0  0
   21.9333  -19.1559  -15.4863 C   0  0  1  0  0  0  0  0  0  0  0  0
   21.2272  -18.2631  -16.4682 C   0  0  0  0  0  0  0  0  0  0  0  0
   21.8200  -16.9922  -16.8299 C   0  0  0  0  0  0  0  0  0  0  0  0
   22.2825  -15.9984  -16.0243 C   0  0  0  0  0  0  0  0  0  0  0  0
   22.8246  -15.0545  -16.8492 N   0  0  0  0  0  0  0  0  0  0  0  0
   22.6934  -15.4689  -18.1149 C   0  0  0  0  0  0  0  0  0  0  0  0
   22.0882  -16.6404  -18.1295 N   0  0  0  0  0  0  0  0  0  0  0  0
   21.0832  -20.3544  -15.1433 C   0  0  0  0  0  0  0  0  0  0  0  0
   19.9428  -20.4483  -15.7500 O   0  0  0  0  0  0  0  0  0  0  0  0
   21.3986  -21.3772  -14.2422 N   0  0  0  0  0  0  0  0  0  0  0  0
   20.4663  -22.5079  -14.0732 C   0  0  0  0  0  0  0  0  0  0  0  0
   19.4589  -22.1751  -13.0413 C   0  0  0  0  0  0  0  0  0  0  0  0
   19.5212  -22.7461  -11.7701 O   0  0  0  0  0  0  0  0  0  0  0  0
   18.5652  -21.3733  -13.3550 O   0  0  0  0  0  0  0  0  0  0  0  0
  2  1  1  1
  2  3  1  0
  4  2  1  0
  4  5  1  0
  5  7  1  0
  5  6  1  1
  7  8  2  0
  9  7  1  0
  9 10  1  0
 11 12  1  0
 10 11  1  6
 12 16  1  0
 13 14  1  0
 13 12  2  0
 14 15  1  0
 15 16  2  0
 17 10  1  0
 17 19  1  0
 18 17  2  0
 20 19  1  0
 20 21  1  0
 21 22  1  0
 23 21  2  0
M  END
$$$$
