SDS.pdb
     RDKit          3D

 21 20  0  0  1  0  0  0  0  0999 V2000
    7.7935  -14.1024   17.4034 O   0  0  0  0  0  0  0  0  0  0  0  0
    7.4374  -13.4080   18.5517 C   0  0  0  0  0  0  0  0  0  0  0  0
    8.6696  -13.1047   19.3801 C   0  0  2  0  0  0  0  0  0  0  0  0
    9.6135  -12.4160   18.5655 N   0  0  0  0  0  0  0  0  0  0  0  0
    9.1616  -14.3381   19.9988 C   0  0  0  0  0  0  0  0  0  0  0  0
    8.3301  -15.0143   20.6829 O   0  0  0  0  0  0  0  0  0  0  0  0
   10.4908  -14.8377   19.8963 N   0  0  0  0  0  0  0  0  0  0  0  0
   10.9479  -16.0533   20.5141 C   0  0  1  0  0  0  0  0  0  0  0  0
   12.2141  -16.5813   19.8612 C   0  0  0  0  0  0  0  0  0  0  0  0
   11.9251  -17.2862   18.5832 C   0  0  0  0  0  0  0  0  0  0  0  0
   10.7943  -17.7119   18.2447 O   0  0  0  0  0  0  0  0  0  0  0  0
   11.1380  -15.9446   21.9700 C   0  0  0  0  0  0  0  0  0  0  0  0
   12.0177  -15.1067   22.3454 O   0  0  0  0  0  0  0  0  0  0  0  0
   13.0353  -17.4635   17.7255 O   0  0  0  0  0  0  0  0  0  0  0  0
    8.5784  -15.3369   24.4600 O   0  0  0  0  0  0  0  0  0  0  0  0
    9.3102  -16.3827   25.0215 C   0  0  0  0  0  0  0  0  0  0  0  0
   10.6777  -16.5069   24.3292 C   0  0  2  0  0  0  0  0  0  0  0  0
   10.4334  -16.6839   22.9280 N   0  0  0  0  0  0  0  0  0  0  0  0
   11.4794  -17.5842   24.9198 C   0  0  0  0  0  0  0  0  0  0  0  0
   11.8525  -18.5359   24.2073 O   0  0  0  0  0  0  0  0  0  0  0  0
   11.8159  -17.5469   26.2516 O   0  0  0  0  0  0  0  0  0  0  0  0
  1  2  1  0
  2  3  1  0
  3  4  1  6
  5  3  1  0
  5  7  1  0
  6  5  2  0
  8  7  1  0
  8 12  1  0
  8  9  1  6
 10  9  1  0
 11 10  2  0
 12 18  1  0
 13 12  2  0
 14 10  1  0
 16 15  1  0
 17 16  1  1
 17 19  1  0
 18 17  1  0
 19 21  1  0
 20 19  2  0
M  END
$$$$
