SDS.pdb
     RDKit          3D

 21 20  0  0  1  0  0  0  0  0999 V2000
    7.0791  -12.1875   18.5378 O   0  0  0  0  0  0  0  0  0  0  0  0
    7.6125  -13.4683   18.4867 C   0  0  0  0  0  0  0  0  0  0  0  0
    8.2062  -13.7310   17.1174 C   0  0  2  0  0  0  0  0  0  0  0  0
    7.1681  -13.6601   16.1447 N   0  0  0  0  0  0  0  0  0  0  0  0
    8.9555  -14.9897   17.1398 C   0  0  0  0  0  0  0  0  0  0  0  0
    8.3865  -16.0111   16.6402 O   0  0  0  0  0  0  0  0  0  0  0  0
   10.2638  -15.1602   17.6747 N   0  0  0  0  0  0  0  0  0  0  0  0
   10.9515  -16.4213   17.7433 C   0  0  1  0  0  0  0  0  0  0  0  0
   12.4573  -16.2545   17.6273 C   0  0  0  0  0  0  0  0  0  0  0  0
   13.0091  -17.0037   16.4664 C   0  0  0  0  0  0  0  0  0  0  0  0
   12.9367  -18.2481   16.3224 O   0  0  0  0  0  0  0  0  0  0  0  0
   10.6219  -17.2133   18.9398 C   0  0  0  0  0  0  0  0  0  0  0  0
   10.6434  -16.5762   20.0401 O   0  0  0  0  0  0  0  0  0  0  0  0
   13.6497  -16.2126   15.4848 O   0  0  0  0  0  0  0  0  0  0  0  0
    7.6617  -19.4768   19.4627 O   0  0  0  0  0  0  0  0  0  0  0  0
    8.7915  -20.2093   19.8255 C   0  0  0  0  0  0  0  0  0  0  0  0
    9.9592  -19.2619   20.1472 C   0  0  2  0  0  0  0  0  0  0  0  0
   10.2998  -18.5760   18.9356 N   0  0  0  0  0  0  0  0  0  0  0  0
   11.0875  -19.9874   20.7410 C   0  0  0  0  0  0  0  0  0  0  0  0
   12.1363  -20.1383   20.0855 O   0  0  0  0  0  0  0  0  0  0  0  0
   10.9893  -20.5005   22.0120 O   0  0  0  0  0  0  0  0  0  0  0  0
  1  2  1  0
  2  3  1  0
  3  4  1  6
  5  3  1  0
  5  7  1  0
  6  5  2  0
  8  7  1  0
  8 12  1  0
  8  9  1  1
 10  9  1  0
 11 10  2  0
 12 18  1  0
 13 12  2  0
 14 10  1  0
 16 15  1  0
 17 16  1  6
 17 19  1  0
 18 17  1  0
 19 21  1  0
 20 19  2  0
M  END
$$$$
