SDS.pdb
     RDKit          3D

 21 20  0  0  1  0  0  0  0  0999 V2000
   11.3103  -15.9893   21.4597 O   0  0  0  0  0  0  0  0  0  0  0  0
   11.2158  -17.3319   21.1192 C   0  0  0  0  0  0  0  0  0  0  0  0
    9.7614  -17.7540   21.0636 C   0  0  2  0  0  0  0  0  0  0  0  0
    9.1282  -17.0806   19.9799 N   0  0  0  0  0  0  0  0  0  0  0  0
    9.1398  -17.5493   22.3743 C   0  0  0  0  0  0  0  0  0  0  0  0
    8.3782  -16.5392   22.5024 O   0  0  0  0  0  0  0  0  0  0  0  0
    9.3201  -18.3868   23.5113 N   0  0  0  0  0  0  0  0  0  0  0  0
    8.7265  -18.1424   24.7982 C   0  0  1  0  0  0  0  0  0  0  0  0
    8.6980  -19.3947   25.6581 C   0  0  0  0  0  0  0  0  0  0  0  0
    8.0709  -19.1417   26.9833 C   0  0  0  0  0  0  0  0  0  0  0  0
    7.2469  -18.2250   27.2179 O   0  0  0  0  0  0  0  0  0  0  0  0
    9.3514  -17.0346   25.5398 C   0  0  0  0  0  0  0  0  0  0  0  0
   10.6199  -16.9774   25.4706 O   0  0  0  0  0  0  0  0  0  0  0  0
    8.4638  -20.0233   28.0168 O   0  0  0  0  0  0  0  0  0  0  0  0
    9.0221  -12.6631   27.4451 O   0  0  0  0  0  0  0  0  0  0  0  0
    8.3699  -13.7994   26.9678 C   0  0  0  0  0  0  0  0  0  0  0  0
    9.3405  -14.9914   26.9249 C   0  0  2  0  0  0  0  0  0  0  0  0
    8.6556  -16.0782   26.2893 N   0  0  0  0  0  0  0  0  0  0  0  0
    9.8389  -15.3227   28.2643 C   0  0  0  0  0  0  0  0  0  0  0  0
    9.5069  -16.3993   28.7963 O   0  0  0  0  0  0  0  0  0  0  0  0
   10.6655  -14.4505   28.9311 O   0  0  0  0  0  0  0  0  0  0  0  0
  1  2  1  0
  2  3  1  0
  3  4  1  6
  5  3  1  0
  5  7  1  0
  6  5  2  0
  8  7  1  0
  8 12  1  0
  8  9  1  1
 10  9  1  0
 11 10  2  0
 12 18  1  0
 13 12  2  0
 14 10  1  0
 16 15  1  0
 17 16  1  1
 17 19  1  0
 18 17  1  0
 19 21  1  0
 20 19  2  0
M  END
$$$$
