SDS.pdb
     RDKit          3D

 21 20  0  0  1  0  0  0  0  0999 V2000
   10.6114  -18.6018   18.0018 O   0  0  0  0  0  0  0  0  0  0  0  0
   11.2746  -17.9379   16.9786 C   0  0  0  0  0  0  0  0  0  0  0  0
   12.6201  -18.5867   16.7230 C   0  0  2  0  0  0  0  0  0  0  0  0
   12.4080  -19.8957   16.2029 N   0  0  0  0  0  0  0  0  0  0  0  0
   13.4355  -18.5226   17.9384 C   0  0  0  0  0  0  0  0  0  0  0  0
   13.2757  -19.4509   18.7924 O   0  0  0  0  0  0  0  0  0  0  0  0
   14.3879  -17.5079   18.2388 N   0  0  0  0  0  0  0  0  0  0  0  0
   15.0995  -17.4100   19.4846 C   0  0  1  0  0  0  0  0  0  0  0  0
   16.4294  -16.6928   19.3246 C   0  0  0  0  0  0  0  0  0  0  0  0
   17.3137  -17.3790   18.3444 C   0  0  0  0  0  0  0  0  0  0  0  0
   17.5662  -18.6081   18.3517 O   0  0  0  0  0  0  0  0  0  0  0  0
   14.3184  -16.7897   20.5676 C   0  0  0  0  0  0  0  0  0  0  0  0
   13.6507  -15.7587   20.2388 O   0  0  0  0  0  0  0  0  0  0  0  0
   17.8843  -16.5439   17.3561 O   0  0  0  0  0  0  0  0  0  0  0  0
   11.4891  -16.8604   24.1815 O   0  0  0  0  0  0  0  0  0  0  0  0
   12.2707  -17.4506   23.1888 C   0  0  0  0  0  0  0  0  0  0  0  0
   13.4967  -16.5735   22.8853 C   0  0  2  0  0  0  0  0  0  0  0  0
   14.2718  -17.2518   21.8886 N   0  0  0  0  0  0  0  0  0  0  0  0
   14.2538  -16.2733   24.1054 C   0  0  0  0  0  0  0  0  0  0  0  0
   15.3654  -16.8061   24.2873 O   0  0  0  0  0  0  0  0  0  0  0  0
   13.7405  -15.4116   25.0448 O   0  0  0  0  0  0  0  0  0  0  0  0
  1  2  1  0
  2  3  1  0
  3  4  1  1
  5  3  1  0
  5  7  1  0
  6  5  2  0
  8  7  1  0
  8 12  1  0
  8  9  1  6
 10  9  1  0
 11 10  2  0
 12 18  1  0
 13 12  2  0
 14 10  1  0
 16 15  1  0
 17 16  1  1
 17 19  1  0
 18 17  1  0
 19 21  1  0
 20 19  2  0
M  END
$$$$
