SDS.pdb
     RDKit          3D

 21 20  0  0  1  0  0  0  0  0999 V2000
    9.0034  -16.6319   18.0388 O   0  0  0  0  0  0  0  0  0  0  0  0
    9.8351  -17.0881   17.0250 C   0  0  0  0  0  0  0  0  0  0  0  0
   10.2462  -18.5216   17.2940 C   0  0  2  0  0  0  0  0  0  0  0  0
    9.0889  -19.3501   17.2389 N   0  0  0  0  0  0  0  0  0  0  0  0
   11.0029  -18.5891   18.5466 C   0  0  0  0  0  0  0  0  0  0  0  0
   10.3934  -19.0396   19.5676 O   0  0  0  0  0  0  0  0  0  0  0  0
   12.3599  -18.1916   18.7118 N   0  0  0  0  0  0  0  0  0  0  0  0
   13.0915  -18.3045   19.9447 C   0  0  1  0  0  0  0  0  0  0  0  0
   14.5829  -18.0974   19.7416 C   0  0  0  0  0  0  0  0  0  0  0  0
   15.2378  -19.3082   19.1770 C   0  0  0  0  0  0  0  0  0  0  0  0
   14.7955  -19.9703   18.2073 O   0  0  0  0  0  0  0  0  0  0  0  0
   12.5990  -17.4168   21.0110 C   0  0  0  0  0  0  0  0  0  0  0  0
   12.7300  -16.1715   20.7896 O   0  0  0  0  0  0  0  0  0  0  0  0
   16.4393  -19.6983   19.8127 O   0  0  0  0  0  0  0  0  0  0  0  0
    9.4912  -15.9487   23.9868 O   0  0  0  0  0  0  0  0  0  0  0  0
   10.0176  -16.8303   23.0432 C   0  0  0  0  0  0  0  0  0  0  0  0
   11.5465  -16.9118   23.1861 C   0  0  2  0  0  0  0  0  0  0  0  0
   12.0182  -17.8490   22.2096 N   0  0  0  0  0  0  0  0  0  0  0  0
   11.9371  -17.2559   24.5577 C   0  0  0  0  0  0  0  0  0  0  0  0
   11.5927  -16.5170   25.5000 O   0  0  0  0  0  0  0  0  0  0  0  0
   12.6808  -18.3851   24.8036 O   0  0  0  0  0  0  0  0  0  0  0  0
  1  2  1  0
  2  3  1  0
  3  4  1  1
  5  3  1  0
  5  7  1  0
  6  5  2  0
  8  7  1  0
  8 12  1  0
  8  9  1  6
 10  9  1  0
 11 10  2  0
 12 18  1  0
 13 12  2  0
 14 10  1  0
 16 15  1  0
 17 16  1  1
 17 19  1  0
 18 17  1  0
 19 21  1  0
 20 19  2  0
M  END
$$$$
