SDS.pdb
     RDKit          3D

 21 20  0  0  1  0  0  0  0  0999 V2000
   -0.6945  -25.4206   25.5986 O   0  0  0  0  0  0  0  0  0  0  0  0
   -1.8917  -25.7068   26.2408 C   0  0  0  0  0  0  0  0  0  0  0  0
   -1.6754  -25.7762   27.7391 C   0  0  2  0  0  0  0  0  0  0  0  0
   -0.6771  -26.7540   28.0149 N   0  0  0  0  0  0  0  0  0  0  0  0
   -2.9594  -25.9883   28.4118 C   0  0  0  0  0  0  0  0  0  0  0  0
   -3.2012  -27.1603   28.8415 O   0  0  0  0  0  0  0  0  0  0  0  0
   -3.9542  -24.9916   28.6212 N   0  0  0  0  0  0  0  0  0  0  0  0
   -5.1774  -25.2093   29.3454 C   0  0  1  0  0  0  0  0  0  0  0  0
   -4.9303  -25.8611   30.6954 C   0  0  0  0  0  0  0  0  0  0  0  0
   -6.1970  -26.0782   31.4451 C   0  0  0  0  0  0  0  0  0  0  0  0
   -7.2761  -26.4536   30.9263 O   0  0  0  0  0  0  0  0  0  0  0  0
   -5.9929  -23.9950   29.5125 C   0  0  0  0  0  0  0  0  0  0  0  0
   -5.4006  -23.0091   30.0550 O   0  0  0  0  0  0  0  0  0  0  0  0
   -6.1271  -25.8310   32.8357 O   0  0  0  0  0  0  0  0  0  0  0  0
  -10.0237  -21.5629   28.3542 O   0  0  0  0  0  0  0  0  0  0  0  0
   -9.3236  -22.7687   28.3767 C   0  0  0  0  0  0  0  0  0  0  0  0
   -7.9848  -22.5929   29.1125 C   0  0  2  0  0  0  0  0  0  0  0  0
   -7.3324  -23.8690   29.1246 N   0  0  0  0  0  0  0  0  0  0  0  0
   -8.1818  -22.0283   30.4521 C   0  0  0  0  0  0  0  0  0  0  0  0
   -8.0838  -20.7979   30.6226 O   0  0  0  0  0  0  0  0  0  0  0  0
   -8.4703  -22.8506   31.5148 O   0  0  0  0  0  0  0  0  0  0  0  0
  1  2  1  0
  2  3  1  0
  3  4  1  6
  5  3  1  0
  5  7  1  0
  6  5  2  0
  8  7  1  0
  8 12  1  0
  8  9  1  1
 10  9  1  0
 11 10  2  0
 12 18  1  0
 13 12  2  0
 14 10  1  0
 16 15  1  0
 17 16  1  1
 17 19  1  0
 18 17  1  0
 19 21  1  0
 20 19  2  0
M  END
$$$$
