SDS.pdb
     RDKit          3D

 21 20  0  0  1  0  0  0  0  0999 V2000
   13.8186  -16.9156   16.5447 O   0  0  0  0  0  0  0  0  0  0  0  0
   13.0197  -16.7818   17.6722 C   0  0  0  0  0  0  0  0  0  0  0  0
   12.0812  -17.9659   17.7889 C   0  0  2  0  0  0  0  0  0  0  0  0
   11.1466  -17.9198   16.7150 N   0  0  0  0  0  0  0  0  0  0  0  0
   11.4907  -17.9947   19.1294 C   0  0  0  0  0  0  0  0  0  0  0  0
   10.2481  -17.7404   19.2201 O   0  0  0  0  0  0  0  0  0  0  0  0
   12.1938  -18.2826   20.3333 N   0  0  0  0  0  0  0  0  0  0  0  0
   11.5654  -18.4570   21.6150 C   0  0  1  0  0  0  0  0  0  0  0  0
   12.3079  -19.4614   22.4801 C   0  0  0  0  0  0  0  0  0  0  0  0
   11.6322  -19.6705   23.7890 C   0  0  0  0  0  0  0  0  0  0  0  0
   10.5297  -20.2513   23.9365 O   0  0  0  0  0  0  0  0  0  0  0  0
   11.3688  -17.2001   22.3561 C   0  0  0  0  0  0  0  0  0  0  0  0
   12.4189  -16.5095   22.5495 O   0  0  0  0  0  0  0  0  0  0  0  0
   12.3213  -19.1612   24.9139 O   0  0  0  0  0  0  0  0  0  0  0  0
    8.7522  -14.5172   21.8459 O   0  0  0  0  0  0  0  0  0  0  0  0
    8.7363  -14.8331   23.2040 C   0  0  0  0  0  0  0  0  0  0  0  0
   10.0480  -15.5289   23.6037 C   0  0  2  0  0  0  0  0  0  0  0  0
   10.1390  -16.7401   22.8427 N   0  0  0  0  0  0  0  0  0  0  0  0
   10.1169  -15.7468   25.0528 C   0  0  0  0  0  0  0  0  0  0  0  0
   10.0322  -14.7740   25.8267 O   0  0  0  0  0  0  0  0  0  0  0  0
   10.2766  -17.0157   25.5557 O   0  0  0  0  0  0  0  0  0  0  0  0
  1  2  1  0
  2  3  1  0
  3  4  1  6
  5  3  1  0
  5  7  1  0
  6  5  2  0
  8  7  1  0
  8 12  1  0
  8  9  1  1
 10  9  1  0
 11 10  2  0
 12 18  1  0
 13 12  2  0
 14 10  1  0
 16 15  1  0
 17 16  1  1
 17 19  1  0
 18 17  1  0
 19 21  1  0
 20 19  2  0
M  END
$$$$
