SDS.pdb
     RDKit          3D

 21 20  0  0  1  0  0  0  0  0999 V2000
    8.5051  -16.3098   17.5641 O   0  0  0  0  0  0  0  0  0  0  0  0
    9.0288  -15.2164   16.8873 C   0  0  0  0  0  0  0  0  0  0  0  0
   10.3531  -15.5844   16.2492 C   0  0  2  0  0  0  0  0  0  0  0  0
   10.1446  -16.6685   15.3492 N   0  0  0  0  0  0  0  0  0  0  0  0
   11.3523  -15.8236   17.2935 C   0  0  0  0  0  0  0  0  0  0  0  0
   11.5685  -17.0328   17.6218 O   0  0  0  0  0  0  0  0  0  0  0  0
   12.0969  -14.8147   17.9678 N   0  0  0  0  0  0  0  0  0  0  0  0
   13.0047  -15.0692   19.0537 C   0  0  1  0  0  0  0  0  0  0  0  0
   14.0411  -13.9676   19.1980 C   0  0  0  0  0  0  0  0  0  0  0  0
   15.1571  -14.1273   18.2271 C   0  0  0  0  0  0  0  0  0  0  0  0
   15.9923  -13.2332   17.9488 O   0  0  0  0  0  0  0  0  0  0  0  0
   12.3360  -15.3056   20.3439 C   0  0  0  0  0  0  0  0  0  0  0  0
   11.5509  -14.3827   20.7299 O   0  0  0  0  0  0  0  0  0  0  0  0
   15.2386  -15.3930   17.6017 O   0  0  0  0  0  0  0  0  0  0  0  0
   10.2957  -18.1438   21.2571 O   0  0  0  0  0  0  0  0  0  0  0  0
   11.1622  -18.0170   22.3424 C   0  0  0  0  0  0  0  0  0  0  0  0
   11.7842  -16.6109   22.3651 C   0  0  2  0  0  0  0  0  0  0  0  0
   12.5097  -16.4441   21.1403 N   0  0  0  0  0  0  0  0  0  0  0  0
   12.6098  -16.4114   23.5612 C   0  0  0  0  0  0  0  0  0  0  0  0
   13.8337  -16.2127   23.4387 O   0  0  0  0  0  0  0  0  0  0  0  0
   12.0388  -16.4458   24.8107 O   0  0  0  0  0  0  0  0  0  0  0  0
  1  2  1  0
  2  3  1  0
  3  4  1  1
  5  3  1  0
  5  7  1  0
  6  5  2  0
  8  7  1  0
  8 12  1  0
  8  9  1  1
 10  9  1  0
 11 10  2  0
 12 18  1  0
 13 12  2  0
 14 10  1  0
 16 15  1  0
 17 16  1  1
 17 19  1  0
 18 17  1  0
 19 21  1  0
 20 19  2  0
M  END
$$$$
