SDS.pdb
     RDKit          3D

 21 20  0  0  1  0  0  0  0  0999 V2000
    8.0392  -12.1845   20.4087 O   0  0  0  0  0  0  0  0  0  0  0  0
    8.8257  -12.4552   19.2971 C   0  0  0  0  0  0  0  0  0  0  0  0
    8.4605  -13.8068   18.7173 C   0  0  2  0  0  0  0  0  0  0  0  0
    7.1267  -13.7492   18.2209 N   0  0  0  0  0  0  0  0  0  0  0  0
    8.7115  -14.8524   19.7123 C   0  0  0  0  0  0  0  0  0  0  0  0
    7.7037  -15.3097   20.3384 O   0  0  0  0  0  0  0  0  0  0  0  0
    9.9881  -15.3947   20.0334 N   0  0  0  0  0  0  0  0  0  0  0  0
   10.2033  -16.4419   20.9951 C   0  0  1  0  0  0  0  0  0  0  0  0
   11.4992  -17.1923   20.7378 C   0  0  0  0  0  0  0  0  0  0  0  0
   11.3542  -18.1868   19.6407 C   0  0  0  0  0  0  0  0  0  0  0  0
   10.2641  -18.6881   19.2735 O   0  0  0  0  0  0  0  0  0  0  0  0
   10.1543  -15.9836   22.3934 C   0  0  0  0  0  0  0  0  0  0  0  0
   10.9672  -15.0525   22.6923 O   0  0  0  0  0  0  0  0  0  0  0  0
   12.5579  -18.5595   18.9990 O   0  0  0  0  0  0  0  0  0  0  0  0
    7.3205  -14.6795   24.0915 O   0  0  0  0  0  0  0  0  0  0  0  0
    7.8134  -15.5922   25.0235 C   0  0  0  0  0  0  0  0  0  0  0  0
    9.2741  -15.9470   24.6994 C   0  0  2  0  0  0  0  0  0  0  0  0
    9.2975  -16.4956   23.3755 N   0  0  0  0  0  0  0  0  0  0  0  0
    9.8425  -16.8452   25.7106 C   0  0  0  0  0  0  0  0  0  0  0  0
   10.2656  -17.9666   25.3703 O   0  0  0  0  0  0  0  0  0  0  0  0
    9.9063  -16.4546   27.0266 O   0  0  0  0  0  0  0  0  0  0  0  0
  1  2  1  0
  2  3  1  0
  3  4  1  1
  5  3  1  0
  5  7  1  0
  6  5  2  0
  8  7  1  0
  8 12  1  0
  8  9  1  6
 10  9  1  0
 11 10  2  0
 12 18  1  0
 13 12  2  0
 14 10  1  0
 16 15  1  0
 17 16  1  1
 17 19  1  0
 18 17  1  0
 19 21  1  0
 20 19  2  0
M  END
$$$$
