SDS.pdb
     RDKit          3D

 21 20  0  0  1  0  0  0  0  0999 V2000
   10.4185  -13.0532   19.8483 O   0  0  0  0  0  0  0  0  0  0  0  0
    9.9373  -13.1335   18.5485 C   0  0  0  0  0  0  0  0  0  0  0  0
    8.5672  -13.7810   18.5394 C   0  0  2  0  0  0  0  0  0  0  0  0
    7.5850  -12.7828   18.7997 N   0  0  0  0  0  0  0  0  0  0  0  0
    8.5566  -14.9216   19.4586 C   0  0  0  0  0  0  0  0  0  0  0  0
    7.9101  -14.7838   20.5448 O   0  0  0  0  0  0  0  0  0  0  0  0
    9.2100  -16.1665   19.2343 N   0  0  0  0  0  0  0  0  0  0  0  0
    9.2529  -17.2410   20.1892 C   0  0  1  0  0  0  0  0  0  0  0  0
    9.6539  -18.5576   19.5455 C   0  0  0  0  0  0  0  0  0  0  0  0
    9.5676  -19.6914   20.5050 C   0  0  0  0  0  0  0  0  0  0  0  0
    8.5075  -20.0847   21.0491 O   0  0  0  0  0  0  0  0  0  0  0  0
   10.1104  -16.9665   21.3541 C   0  0  0  0  0  0  0  0  0  0  0  0
   11.1038  -16.2037   21.1340 O   0  0  0  0  0  0  0  0  0  0  0  0
   10.7927  -20.3376   20.7899 O   0  0  0  0  0  0  0  0  0  0  0  0
   10.6333  -15.7890   25.7656 O   0  0  0  0  0  0  0  0  0  0  0  0
    9.8899  -16.1799   24.6524 C   0  0  0  0  0  0  0  0  0  0  0  0
   10.7347  -17.0841   23.7395 C   0  0  2  0  0  0  0  0  0  0  0  0
    9.9034  -17.4789   22.6406 N   0  0  0  0  0  0  0  0  0  0  0  0
   11.2941  -18.2191   24.4818 C   0  0  0  0  0  0  0  0  0  0  0  0
   10.8657  -19.3687   24.2643 O   0  0  0  0  0  0  0  0  0  0  0  0
   12.2835  -18.0171   25.4139 O   0  0  0  0  0  0  0  0  0  0  0  0
  1  2  1  0
  2  3  1  0
  3  4  1  1
  5  3  1  0
  5  7  1  0
  6  5  2  0
  8  7  1  0
  8 12  1  0
  8  9  1  6
 10  9  1  0
 11 10  2  0
 12 18  1  0
 13 12  2  0
 14 10  1  0
 16 15  1  0
 17 16  1  1
 17 19  1  0
 18 17  1  0
 19 21  1  0
 20 19  2  0
M  END
$$$$
