SDS.pdb
     RDKit          3D

 21 20  0  0  1  0  0  0  0  0999 V2000
    8.1961  -12.7550   16.3390 O   0  0  0  0  0  0  0  0  0  0  0  0
    8.2663  -13.5756   17.4567 C   0  0  0  0  0  0  0  0  0  0  0  0
    8.6491  -14.9832   17.0461 C   0  0  2  0  0  0  0  0  0  0  0  0
    7.6441  -15.4985   16.1781 N   0  0  0  0  0  0  0  0  0  0  0  0
    8.9148  -15.7886   18.2407 C   0  0  0  0  0  0  0  0  0  0  0  0
    7.9865  -16.5628   18.6351 O   0  0  0  0  0  0  0  0  0  0  0  0
   10.1237  -15.7732   18.9924 N   0  0  0  0  0  0  0  0  0  0  0  0
   10.3502  -16.5581   20.1759 C   0  0  1  0  0  0  0  0  0  0  0  0
   11.7143  -17.2270   20.1618 C   0  0  0  0  0  0  0  0  0  0  0  0
   11.8868  -18.1564   21.3107 C   0  0  0  0  0  0  0  0  0  0  0  0
   11.9296  -19.4068   21.2149 O   0  0  0  0  0  0  0  0  0  0  0  0
   10.1684  -15.8082   21.4298 C   0  0  0  0  0  0  0  0  0  0  0  0
   10.9867  -14.8535   21.6194 O   0  0  0  0  0  0  0  0  0  0  0  0
   12.0062  -17.5379   22.5768 O   0  0  0  0  0  0  0  0  0  0  0  0
    7.3469  -13.8773   22.6635 O   0  0  0  0  0  0  0  0  0  0  0  0
    7.6146  -14.8024   23.6721 C   0  0  0  0  0  0  0  0  0  0  0  0
    9.0717  -15.2847   23.5785 C   0  0  2  0  0  0  0  0  0  0  0  0
    9.1846  -16.0768   22.3893 N   0  0  0  0  0  0  0  0  0  0  0  0
    9.4765  -16.0001   24.7936 C   0  0  0  0  0  0  0  0  0  0  0  0
    9.8573  -17.1838   24.7136 O   0  0  0  0  0  0  0  0  0  0  0  0
    9.4342  -15.3707   26.0145 O   0  0  0  0  0  0  0  0  0  0  0  0
  1  2  1  0
  2  3  1  0
  3  4  1  1
  5  3  1  0
  5  7  1  0
  6  5  2  0
  8  7  1  0
  8 12  1  0
  8  9  1  6
 10  9  1  0
 11 10  2  0
 12 18  1  0
 13 12  2  0
 14 10  1  0
 16 15  1  0
 17 16  1  1
 17 19  1  0
 18 17  1  0
 19 21  1  0
 20 19  2  0
M  END
$$$$
