SDS.pdb
     RDKit          3D

 21 20  0  0  1  0  0  0  0  0999 V2000
    8.3132  -13.2379   15.9018 O   0  0  0  0  0  0  0  0  0  0  0  0
    8.6882  -14.0127   16.9911 C   0  0  0  0  0  0  0  0  0  0  0  0
    8.6632  -15.4815   16.6188 C   0  0  2  0  0  0  0  0  0  0  0  0
    7.3335  -15.8417   16.2569 N   0  0  0  0  0  0  0  0  0  0  0  0
    9.2514  -16.2732   17.7021 C   0  0  0  0  0  0  0  0  0  0  0  0
    8.4510  -16.9342   18.4364 O   0  0  0  0  0  0  0  0  0  0  0  0
   10.6413  -16.3607   17.9976 N   0  0  0  0  0  0  0  0  0  0  0  0
   11.1988  -17.2004   19.0232 C   0  0  1  0  0  0  0  0  0  0  0  0
   12.5769  -17.7180   18.6472 C   0  0  0  0  0  0  0  0  0  0  0  0
   13.0957  -18.6884   19.6486 C   0  0  0  0  0  0  0  0  0  0  0  0
   12.4161  -19.6050   20.1704 O   0  0  0  0  0  0  0  0  0  0  0  0
   11.2425  -16.5665   20.3513 C   0  0  0  0  0  0  0  0  0  0  0  0
   11.9776  -15.5326   20.4397 O   0  0  0  0  0  0  0  0  0  0  0  0
   14.4548  -18.5238   20.0031 O   0  0  0  0  0  0  0  0  0  0  0  0
    9.3319  -15.7016   24.6313 O   0  0  0  0  0  0  0  0  0  0  0  0
    9.2901  -16.3805   23.4140 C   0  0  0  0  0  0  0  0  0  0  0  0
   10.6742  -16.3580   22.7445 C   0  0  2  0  0  0  0  0  0  0  0  0
   10.5486  -17.0204   21.4797 N   0  0  0  0  0  0  0  0  0  0  0  0
   11.6970  -16.9521   23.6124 C   0  0  0  0  0  0  0  0  0  0  0  0
   12.1446  -18.0850   23.3506 O   0  0  0  0  0  0  0  0  0  0  0  0
   12.1580  -16.2656   24.7100 O   0  0  0  0  0  0  0  0  0  0  0  0
  1  2  1  0
  2  3  1  0
  3  4  1  1
  5  3  1  0
  5  7  1  0
  6  5  2  0
  8  7  1  0
  8 12  1  0
  8  9  1  6
 10  9  1  0
 11 10  2  0
 12 18  1  0
 13 12  2  0
 14 10  1  0
 16 15  1  0
 17 16  1  1
 17 19  1  0
 18 17  1  0
 19 21  1  0
 20 19  2  0
M  END
$$$$
