VNR.pdb
     RDKit          3D

 27 26  0  0  1  0  0  0  0  0999 V2000
   28.1435  -14.0901  -21.8351 C   0  0  0  0  0  0  0  0  0  0  0  0
   27.8602  -12.9888  -20.8377 C   0  0  1  0  0  0  0  0  0  0  0  0
   26.3938  -12.7255  -20.7296 C   0  0  0  0  0  0  0  0  0  0  0  0
   28.4629  -13.3705  -19.5041 C   0  0  2  0  0  0  0  0  0  0  0  0
   28.0158  -14.6472  -19.0407 N   0  0  0  0  0  0  0  0  0  0  0  0
   28.0640  -12.3442  -18.4935 C   0  0  0  0  0  0  0  0  0  0  0  0
   27.0581  -12.5377  -17.7437 O   0  0  0  0  0  0  0  0  0  0  0  0
   29.7377   -7.0582  -18.8668 N   0  0  0  0  0  0  0  0  0  0  0  0
   29.8582   -8.4532  -18.7012 C   0  0  0  0  0  0  0  0  0  0  0  0
   30.2043   -9.1915  -19.6544 O   0  0  0  0  0  0  0  0  0  0  0  0
   29.5726   -9.0612  -17.3825 C   0  0  0  0  0  0  0  0  0  0  0  0
   28.4606  -10.0835  -17.4244 C   0  0  2  0  0  0  0  0  0  0  0  0
   28.7888  -11.1345  -18.3418 N   0  0  0  0  0  0  0  0  0  0  0  0
   27.1849   -9.3937  -17.8183 C   0  0  0  0  0  0  0  0  0  0  0  0
   26.8167   -9.4101  -19.0106 O   0  0  0  0  0  0  0  0  0  0  0  0
   18.9175   -9.9756  -14.7472 N   0  0  0  0  0  0  0  0  0  0  0  0
   18.9861   -8.8724  -15.6424 C   0  0  0  0  0  0  0  0  0  0  0  0
   17.8936   -8.2698  -15.9980 N   0  0  0  0  0  0  0  0  0  0  0  0
   20.2262   -8.4083  -16.1618 N   0  0  0  0  0  0  0  0  0  0  0  0
   21.4733   -9.0693  -15.8703 C   0  0  0  0  0  0  0  0  0  0  0  0
   22.6322   -8.4452  -16.4807 C   0  0  0  0  0  0  0  0  0  0  0  0
   24.0147   -8.8850  -16.4791 C   0  0  0  0  0  0  0  0  0  0  0  0
   25.0533   -8.1496  -17.1903 C   0  0  2  0  0  0  0  0  0  0  0  0
   26.3988   -8.7300  -16.8667 N   0  0  0  0  0  0  0  0  0  0  0  0
   25.2405   -6.7399  -16.6796 C   0  0  0  0  0  0  0  0  0  0  0  0
   24.6698   -5.7789  -17.1391 O   0  0  0  0  0  0  0  0  0  0  0  0
   26.1236   -6.5159  -15.6182 O   0  0  0  0  0  0  0  0  0  0  0  0
  2  3  1  1
  2  1  1  0
  4  6  1  0
  4  2  1  0
  4  5  1  1
  6  7  2  0
  9 10  2  0
  9  8  1  0
 11  9  1  0
 12 11  1  6
 13  6  1  0
 13 12  1  0
 14 15  2  0
 14 12  1  0
 16 17  1  0
 17 18  2  0
 19 17  1  0
 19 20  1  0
 20 21  1  0
 21 22  1  0
 23 22  1  1
 23 24  1  0
 24 14  1  0
 25 27  1  0
 25 23  1  0
 26 25  2  0
M  END
$$$$
