VNR.pdb
     RDKit          3D

 27 26  0  0  1  0  0  0  0  0999 V2000
   25.6763  -21.2578  -10.5394 C   0  0  0  0  0  0  0  0  0  0  0  0
   25.9480  -20.9560  -11.9964 C   0  0  1  0  0  0  0  0  0  0  0  0
   27.3751  -21.2272  -12.3447 C   0  0  0  0  0  0  0  0  0  0  0  0
   24.9972  -21.7664  -12.8488 C   0  0  2  0  0  0  0  0  0  0  0  0
   25.2905  -21.6730  -14.2453 N   0  0  0  0  0  0  0  0  0  0  0  0
   23.6108  -21.2527  -12.6304 C   0  0  0  0  0  0  0  0  0  0  0  0
   23.4160  -20.1966  -11.9535 O   0  0  0  0  0  0  0  0  0  0  0  0
   22.2595  -18.9477  -15.1828 N   0  0  0  0  0  0  0  0  0  0  0  0
   21.3052  -19.2977  -14.2056 C   0  0  0  0  0  0  0  0  0  0  0  0
   20.9480  -18.4781  -13.3258 O   0  0  0  0  0  0  0  0  0  0  0  0
   20.7123  -20.6536  -14.2141 C   0  0  0  0  0  0  0  0  0  0  0  0
   21.1212  -21.4916  -13.0249 C   0  0  2  0  0  0  0  0  0  0  0  0
   22.4809  -21.9217  -13.1666 N   0  0  0  0  0  0  0  0  0  0  0  0
   20.1866  -22.6634  -12.9155 C   0  0  0  0  0  0  0  0  0  0  0  0
   20.3702  -23.6686  -13.6318 O   0  0  0  0  0  0  0  0  0  0  0  0
   16.7621  -24.1305   -5.9143 N   0  0  0  0  0  0  0  0  0  0  0  0
   17.8215  -25.0680   -6.0631 C   0  0  0  0  0  0  0  0  0  0  0  0
   18.4074  -25.5423   -5.0073 N   0  0  0  0  0  0  0  0  0  0  0  0
   18.2591  -25.5028   -7.3448 N   0  0  0  0  0  0  0  0  0  0  0  0
   17.4814  -25.2757   -8.5367 C   0  0  0  0  0  0  0  0  0  0  0  0
   17.9628  -24.1821   -9.3597 C   0  0  0  0  0  0  0  0  0  0  0  0
   17.4316  -23.6773  -10.6117 C   0  0  0  0  0  0  0  0  0  0  0  0
   18.1680  -23.8054  -11.8634 C   0  0  2  0  0  0  0  0  0  0  0  0
   19.1087  -22.6467  -12.0201 N   0  0  0  0  0  0  0  0  0  0  0  0
   17.3014  -23.6132  -13.0862 C   0  0  0  0  0  0  0  0  0  0  0  0
   17.0700  -22.5355  -13.5815 O   0  0  0  0  0  0  0  0  0  0  0  0
   16.7234  -24.7351  -13.6896 O   0  0  0  0  0  0  0  0  0  0  0  0
  2  3  1  6
  2  1  1  0
  4  6  1  0
  4  2  1  0
  4  5  1  6
  6  7  2  0
  9 10  2  0
  9  8  1  0
 11  9  1  0
 12 11  1  6
 13  6  1  0
 13 12  1  0
 14 15  2  0
 14 12  1  0
 16 17  1  0
 17 18  2  0
 19 17  1  0
 19 20  1  0
 20 21  1  0
 21 22  1  0
 23 22  1  1
 23 24  1  0
 24 14  1  0
 25 27  1  0
 25 23  1  0
 26 25  2  0
M  END
$$$$
