VNR.pdb
     RDKit          3D

 27 26  0  0  1  0  0  0  0  0999 V2000
   15.7212  -27.0763    4.2504 C   0  0  0  0  0  0  0  0  0  0  0  0
   15.5625  -27.5766    2.8318 C   0  0  1  0  0  0  0  0  0  0  0  0
   14.1201  -27.7100    2.4669 C   0  0  0  0  0  0  0  0  0  0  0  0
   16.2944  -26.6387    1.8981 C   0  0  2  0  0  0  0  0  0  0  0  0
   15.9986  -25.2631    2.1530 N   0  0  0  0  0  0  0  0  0  0  0  0
   15.8822  -26.9500    0.4957 C   0  0  0  0  0  0  0  0  0  0  0  0
   16.0678  -28.1096    0.0137 O   0  0  0  0  0  0  0  0  0  0  0  0
   11.4992  -26.1321   -0.1359 N   0  0  0  0  0  0  0  0  0  0  0  0
   12.4070  -26.6608   -1.0762 C   0  0  0  0  0  0  0  0  0  0  0  0
   12.4308  -27.8879   -1.3351 O   0  0  0  0  0  0  0  0  0  0  0  0
   13.3496  -25.7567   -1.7721 C   0  0  0  0  0  0  0  0  0  0  0  0
   14.7910  -26.1967   -1.6614 C   0  0  2  0  0  0  0  0  0  0  0  0
   15.2770  -25.9702   -0.3323 N   0  0  0  0  0  0  0  0  0  0  0  0
   15.6051  -25.4440   -2.6759 C   0  0  0  0  0  0  0  0  0  0  0  0
   15.9784  -24.2796   -2.4272 O   0  0  0  0  0  0  0  0  0  0  0  0
   19.9505  -26.3024   -9.4507 N   0  0  0  0  0  0  0  0  0  0  0  0
   18.7984  -25.6948  -10.0224 C   0  0  0  0  0  0  0  0  0  0  0  0
   18.5869  -25.8013  -11.2979 N   0  0  0  0  0  0  0  0  0  0  0  0
   17.8662  -24.9692   -9.2302 N   0  0  0  0  0  0  0  0  0  0  0  0
   18.1071  -24.6780   -7.8394 C   0  0  0  0  0  0  0  0  0  0  0  0
   18.1590  -25.8517   -6.9880 C   0  0  0  0  0  0  0  0  0  0  0  0
   17.2505  -26.2560   -5.9316 C   0  0  0  0  0  0  0  0  0  0  0  0
   16.7488  -25.3050   -4.9472 C   0  0  2  0  0  0  0  0  0  0  0  0
   15.9534  -26.0292   -3.9007 N   0  0  0  0  0  0  0  0  0  0  0  0
   15.6872  -24.3818   -5.4984 C   0  0  0  0  0  0  0  0  0  0  0  0
   14.5106  -24.6559   -5.5297 O   0  0  0  0  0  0  0  0  0  0  0  0
   16.0708  -23.1372   -6.0089 O   0  0  0  0  0  0  0  0  0  0  0  0
  2  3  1  6
  2  1  1  0
  4  6  1  0
  4  2  1  0
  4  5  1  1
  6  7  2  0
  9 10  2  0
  9  8  1  0
 11  9  1  0
 12 11  1  1
 13  6  1  0
 13 12  1  0
 14 15  2  0
 14 12  1  0
 16 17  1  0
 17 18  2  0
 19 17  1  0
 19 20  1  0
 20 21  1  0
 21 22  1  0
 23 22  1  6
 23 24  1  0
 24 14  1  0
 25 27  1  0
 25 23  1  0
 26 25  2  0
M  END
$$$$
