VNR.pdb
     RDKit          3D

 27 26  0  0  1  0  0  0  0  0999 V2000
   13.8608  -11.5675   -8.6455 C   0  0  0  0  0  0  0  0  0  0  0  0
   14.1637  -10.2132   -9.2472 C   0  0  1  0  0  0  0  0  0  0  0  0
   13.7784  -10.1674  -10.6897 C   0  0  0  0  0  0  0  0  0  0  0  0
   13.4518   -9.1500   -8.4409 C   0  0  2  0  0  0  0  0  0  0  0  0
   12.0296   -9.2961   -8.4675 N   0  0  0  0  0  0  0  0  0  0  0  0
   13.7919   -7.8131   -9.0159 C   0  0  0  0  0  0  0  0  0  0  0  0
   13.0791   -7.3098   -9.9378 O   0  0  0  0  0  0  0  0  0  0  0  0
   13.0146   -4.6183   -8.2366 N   0  0  0  0  0  0  0  0  0  0  0  0
   14.1982   -4.2414   -7.5695 C   0  0  0  0  0  0  0  0  0  0  0  0
   14.1707   -3.4449   -6.6009 O   0  0  0  0  0  0  0  0  0  0  0  0
   15.4972   -4.7922   -8.0160 C   0  0  0  0  0  0  0  0  0  0  0  0
   15.3630   -5.8296   -9.1066 C   0  0  2  0  0  0  0  0  0  0  0  0
   14.9100   -7.0722   -8.5546 N   0  0  0  0  0  0  0  0  0  0  0  0
   16.6926   -5.9877   -9.7890 C   0  0  0  0  0  0  0  0  0  0  0  0
   17.6999   -6.2881   -9.1164 O   0  0  0  0  0  0  0  0  0  0  0  0
   16.5992  -12.0012  -15.0364 N   0  0  0  0  0  0  0  0  0  0  0  0
   16.5303  -11.9543  -13.6165 C   0  0  0  0  0  0  0  0  0  0  0  0
   16.1888  -13.0187  -12.9583 N   0  0  0  0  0  0  0  0  0  0  0  0
   16.8272  -10.7658  -12.8935 N   0  0  0  0  0  0  0  0  0  0  0  0
   17.2094   -9.5434  -13.5543 C   0  0  0  0  0  0  0  0  0  0  0  0
   17.5105   -8.4495  -12.6500 C   0  0  0  0  0  0  0  0  0  0  0  0
   17.8458   -7.0725  -12.9603 C   0  0  0  0  0  0  0  0  0  0  0  0
   18.0948   -6.0900  -11.9125 C   0  0  2  0  0  0  0  0  0  0  0  0
   16.8213   -5.8031  -11.1721 N   0  0  0  0  0  0  0  0  0  0  0  0
   18.4074   -4.7128  -12.4499 C   0  0  0  0  0  0  0  0  0  0  0  0
   17.6029   -3.8122  -12.4956 O   0  0  0  0  0  0  0  0  0  0  0  0
   19.6949   -4.4492  -12.9291 O   0  0  0  0  0  0  0  0  0  0  0  0
  2  3  1  6
  2  1  1  0
  4  6  1  0
  4  2  1  0
  4  5  1  6
  6  7  2  0
  9 10  2  0
  9  8  1  0
 11  9  1  0
 12 11  1  1
 13  6  1  0
 13 12  1  0
 14 15  2  0
 14 12  1  0
 16 17  1  0
 17 18  2  0
 19 17  1  0
 19 20  1  0
 20 21  1  0
 21 22  1  0
 23 22  1  6
 23 24  1  0
 24 14  1  0
 25 27  1  0
 25 23  1  0
 26 25  2  0
M  END
$$$$
