VNR.pdb
     RDKit          3D

 27 26  0  0  1  0  0  0  0  0999 V2000
   20.1545  -24.9271  -12.7994 C   0  0  0  0  0  0  0  0  0  0  0  0
   19.7071  -23.6148  -12.1948 C   0  0  1  0  0  0  0  0  0  0  0  0
   19.7501  -22.5150  -13.2047 C   0  0  0  0  0  0  0  0  0  0  0  0
   18.3217  -23.7914  -11.6143 C   0  0  2  0  0  0  0  0  0  0  0  0
   17.8608  -22.6290  -10.9207 N   0  0  0  0  0  0  0  0  0  0  0  0
   18.3565  -24.9276  -10.6440 C   0  0  0  0  0  0  0  0  0  0  0  0
   18.8688  -26.0406  -10.9758 O   0  0  0  0  0  0  0  0  0  0  0  0
   19.3694  -24.5992   -6.6560 N   0  0  0  0  0  0  0  0  0  0  0  0
   18.0150  -24.6533   -6.2681 C   0  0  0  0  0  0  0  0  0  0  0  0
   17.6222  -24.1100   -5.2079 O   0  0  0  0  0  0  0  0  0  0  0  0
   17.0365  -25.3620   -7.1228 C   0  0  0  0  0  0  0  0  0  0  0  0
   17.6330  -25.8783   -8.4116 C   0  0  2  0  0  0  0  0  0  0  0  0
   17.8241  -24.7996   -9.3356 N   0  0  0  0  0  0  0  0  0  0  0  0
   16.7202  -26.9285   -8.9797 C   0  0  0  0  0  0  0  0  0  0  0  0
   15.6362  -26.5900   -9.4971 O   0  0  0  0  0  0  0  0  0  0  0  0
   22.2193  -30.5824   -8.9837 N   0  0  0  0  0  0  0  0  0  0  0  0
   21.2726  -30.2443   -9.9901 C   0  0  0  0  0  0  0  0  0  0  0  0
   21.6906  -29.8517  -11.1538 N   0  0  0  0  0  0  0  0  0  0  0  0
   19.8721  -30.3249   -9.7550 N   0  0  0  0  0  0  0  0  0  0  0  0
   19.3262  -31.0156   -8.6139 C   0  0  0  0  0  0  0  0  0  0  0  0
   17.8766  -31.0088   -8.5542 C   0  0  0  0  0  0  0  0  0  0  0  0
   16.9212  -30.6169   -9.5733 C   0  0  0  0  0  0  0  0  0  0  0  0
   16.1794  -29.3649   -9.4868 C   0  0  2  0  0  0  0  0  0  0  0  0
   17.0664  -28.2858   -8.9383 N   0  0  0  0  0  0  0  0  0  0  0  0
   15.0987  -29.3849   -8.4309 C   0  0  0  0  0  0  0  0  0  0  0  0
   14.1015  -30.0634   -8.5047 O   0  0  0  0  0  0  0  0  0  0  0  0
   15.2428  -28.5756   -7.2991 O   0  0  0  0  0  0  0  0  0  0  0  0
  2  3  1  6
  2  1  1  0
  4  6  1  0
  4  2  1  0
  4  5  1  1
  6  7  2  0
  9 10  2  0
  9  8  1  0
 11  9  1  0
 12 11  1  1
 13  6  1  0
 13 12  1  0
 14 15  2  0
 14 12  1  0
 16 17  1  0
 17 18  2  0
 19 17  1  0
 19 20  1  0
 20 21  1  0
 21 22  1  0
 23 22  1  1
 23 24  1  0
 24 14  1  0
 25 27  1  0
 25 23  1  0
 26 25  2  0
M  END
$$$$
