VNR.pdb
     RDKit          3D

 27 26  0  0  1  0  0  0  0  0999 V2000
   16.5212  -26.5505   -7.0210 C   0  0  0  0  0  0  0  0  0  0  0  0
   17.8150  -26.0837   -6.3916 C   0  0  1  0  0  0  0  0  0  0  0  0
   18.9063  -27.0817   -6.6026 C   0  0  0  0  0  0  0  0  0  0  0  0
   18.1740  -24.7290   -6.9601 C   0  0  2  0  0  0  0  0  0  0  0  0
   17.1371  -23.7612   -6.7788 N   0  0  0  0  0  0  0  0  0  0  0  0
   18.4162  -24.8805   -8.4271 C   0  0  0  0  0  0  0  0  0  0  0  0
   19.3776  -25.5938   -8.8493 O   0  0  0  0  0  0  0  0  0  0  0  0
   18.0015  -24.7726  -13.5280 N   0  0  0  0  0  0  0  0  0  0  0  0
   16.7345  -24.9890  -12.9486 C   0  0  0  0  0  0  0  0  0  0  0  0
   15.7577  -25.3565  -13.6446 O   0  0  0  0  0  0  0  0  0  0  0  0
   16.5489  -24.7805  -11.4953 C   0  0  0  0  0  0  0  0  0  0  0  0
   17.7897  -24.2670  -10.8023 C   0  0  2  0  0  0  0  0  0  0  0  0
   17.5886  -24.2389   -9.3836 N   0  0  0  0  0  0  0  0  0  0  0  0
   18.1095  -22.8988  -11.3356 C   0  0  0  0  0  0  0  0  0  0  0  0
   17.4208  -21.9209  -10.9797 O   0  0  0  0  0  0  0  0  0  0  0  0
   25.0402  -22.0137  -11.7876 N   0  0  0  0  0  0  0  0  0  0  0  0
   24.7760  -22.4490  -13.1157 C   0  0  0  0  0  0  0  0  0  0  0  0
   25.3222  -23.5428  -13.5496 N   0  0  0  0  0  0  0  0  0  0  0  0
   23.9248  -21.7144  -13.9868 N   0  0  0  0  0  0  0  0  0  0  0  0
   23.2776  -20.4943  -13.5750 C   0  0  0  0  0  0  0  0  0  0  0  0
   21.9856  -20.6916  -12.9450 C   0  0  0  0  0  0  0  0  0  0  0  0
   20.8299  -21.4178  -13.4367 C   0  0  0  0  0  0  0  0  0  0  0  0
   19.5385  -21.3484  -12.7638 C   0  0  2  0  0  0  0  0  0  0  0  0
   19.1713  -22.7014  -12.2285 N   0  0  0  0  0  0  0  0  0  0  0  0
   18.3853  -21.1140  -13.7116 C   0  0  0  0  0  0  0  0  0  0  0  0
   17.9207  -21.9699  -14.4271 O   0  0  0  0  0  0  0  0  0  0  0  0
   17.8135  -19.8392  -13.7801 O   0  0  0  0  0  0  0  0  0  0  0  0
  2  3  1  6
  2  1  1  0
  4  6  1  0
  4  2  1  0
  4  5  1  6
  6  7  2  0
  9 10  2  0
  9  8  1  0
 11  9  1  0
 12 11  1  6
 13  6  1  0
 13 12  1  0
 14 15  2  0
 14 12  1  0
 16 17  1  0
 17 18  2  0
 19 17  1  0
 19 20  1  0
 20 21  1  0
 21 22  1  0
 23 22  1  6
 23 24  1  0
 24 14  1  0
 25 27  1  0
 25 23  1  0
 26 25  2  0
M  END
$$$$
