VNR.pdb
     RDKit          3D

 27 26  0  0  1  0  0  0  0  0999 V2000
   21.0017  -22.7873   -8.3665 C   0  0  0  0  0  0  0  0  0  0  0  0
   21.6200  -21.9921   -9.4948 C   0  0  1  0  0  0  0  0  0  0  0  0
   20.6755  -20.9501   -9.9987 C   0  0  0  0  0  0  0  0  0  0  0  0
   22.9191  -21.3871   -9.0117 C   0  0  2  0  0  0  0  0  0  0  0  0
   22.7281  -20.4301   -7.9665 N   0  0  0  0  0  0  0  0  0  0  0  0
   23.5749  -20.6936  -10.1618 C   0  0  0  0  0  0  0  0  0  0  0  0
   23.4680  -19.4363  -10.2996 O   0  0  0  0  0  0  0  0  0  0  0  0
   27.7344  -20.3282  -14.0033 N   0  0  0  0  0  0  0  0  0  0  0  0
   26.6695  -21.2513  -14.0431 C   0  0  0  0  0  0  0  0  0  0  0  0
   26.2258  -21.6822  -15.1344 O   0  0  0  0  0  0  0  0  0  0  0  0
   26.0618  -21.7229  -12.7789 C   0  0  0  0  0  0  0  0  0  0  0  0
   24.9360  -20.8404  -12.2917 C   0  0  2  0  0  0  0  0  0  0  0  0
   24.3292  -21.4107  -11.1254 N   0  0  0  0  0  0  0  0  0  0  0  0
   23.9366  -20.6755  -13.4019 C   0  0  0  0  0  0  0  0  0  0  0  0
   23.1456  -21.6045  -13.6636 O   0  0  0  0  0  0  0  0  0  0  0  0
   21.1816  -13.3493  -18.2707 N   0  0  0  0  0  0  0  0  0  0  0  0
   20.2839  -14.4446  -18.4039 C   0  0  0  0  0  0  0  0  0  0  0  0
   19.2022  -14.3018  -19.1056 N   0  0  0  0  0  0  0  0  0  0  0  0
   20.5404  -15.6996  -17.7855 N   0  0  0  0  0  0  0  0  0  0  0  0
   21.6246  -15.8867  -16.8546 C   0  0  0  0  0  0  0  0  0  0  0  0
   21.7672  -17.2489  -16.3761 C   0  0  0  0  0  0  0  0  0  0  0  0
   22.7697  -17.8058  -15.4875 C   0  0  0  0  0  0  0  0  0  0  0  0
   22.7988  -19.2260  -15.1599 C   0  0  2  0  0  0  0  0  0  0  0  0
   23.8772  -19.4925  -14.1509 N   0  0  0  0  0  0  0  0  0  0  0  0
   23.2814  -20.0905  -16.3014 C   0  0  0  0  0  0  0  0  0  0  0  0
   24.4391  -20.1713  -16.6385 O   0  0  0  0  0  0  0  0  0  0  0  0
   22.3484  -20.8436  -17.0219 O   0  0  0  0  0  0  0  0  0  0  0  0
  2  3  1  1
  2  1  1  0
  4  6  1  0
  4  2  1  0
  4  5  1  1
  6  7  2  0
  9 10  2  0
  9  8  1  0
 11  9  1  0
 12 11  1  6
 13  6  1  0
 13 12  1  0
 14 15  2  0
 14 12  1  0
 16 17  1  0
 17 18  2  0
 19 17  1  0
 19 20  1  0
 20 21  1  0
 21 22  1  0
 23 22  1  6
 23 24  1  0
 24 14  1  0
 25 27  1  0
 25 23  1  0
 26 25  2  0
M  END
$$$$
