VNR.pdb
     RDKit          3D

 27 26  0  0  1  0  0  0  0  0999 V2000
   12.5078  -13.8556  -11.9938 C   0  0  0  0  0  0  0  0  0  0  0  0
   12.5866  -12.3765  -11.6874 C   0  0  1  0  0  0  0  0  0  0  0  0
   12.1571  -12.0942  -10.2848 C   0  0  0  0  0  0  0  0  0  0  0  0
   13.9967  -11.8973  -11.9510 C   0  0  2  0  0  0  0  0  0  0  0  0
   14.9539  -12.4822  -11.0642 N   0  0  0  0  0  0  0  0  0  0  0  0
   14.0356  -10.4151  -11.7638 C   0  0  0  0  0  0  0  0  0  0  0  0
   13.3414   -9.6551  -12.5068 O   0  0  0  0  0  0  0  0  0  0  0  0
   16.5348   -6.1682   -8.2464 N   0  0  0  0  0  0  0  0  0  0  0  0
   15.3213   -6.7728   -8.6337 C   0  0  0  0  0  0  0  0  0  0  0  0
   14.2489   -6.1222   -8.6487 O   0  0  0  0  0  0  0  0  0  0  0  0
   15.3076   -8.1985   -9.0301 C   0  0  0  0  0  0  0  0  0  0  0  0
   14.8877   -8.4154  -10.4654 C   0  0  2  0  0  0  0  0  0  0  0  0
   14.8407   -9.8170  -10.7610 N   0  0  0  0  0  0  0  0  0  0  0  0
   15.8558   -7.6999  -11.3652 C   0  0  0  0  0  0  0  0  0  0  0  0
   17.0274   -8.1171  -11.4676 O   0  0  0  0  0  0  0  0  0  0  0  0
   15.2680   -4.6051  -19.7085 N   0  0  0  0  0  0  0  0  0  0  0  0
   16.4468   -4.0802  -19.1100 C   0  0  0  0  0  0  0  0  0  0  0  0
   17.2466   -3.3417  -19.8155 N   0  0  0  0  0  0  0  0  0  0  0  0
   16.7754   -4.3440  -17.7514 N   0  0  0  0  0  0  0  0  0  0  0  0
   15.9300   -5.1434  -16.9010 C   0  0  0  0  0  0  0  0  0  0  0  0
   16.3463   -5.1747  -15.5115 C   0  0  0  0  0  0  0  0  0  0  0  0
   15.7844   -5.9265  -14.4052 C   0  0  0  0  0  0  0  0  0  0  0  0
   16.3714   -5.8811  -13.0716 C   0  0  2  0  0  0  0  0  0  0  0  0
   15.4643   -6.5686  -12.0936 N   0  0  0  0  0  0  0  0  0  0  0  0
   16.3981   -4.4911  -12.4798 C   0  0  0  0  0  0  0  0  0  0  0  0
   17.3101   -3.7136  -12.6349 O   0  0  0  0  0  0  0  0  0  0  0  0
   15.3157   -4.0652  -11.7026 O   0  0  0  0  0  0  0  0  0  0  0  0
  2  3  1  1
  2  1  1  0
  4  6  1  0
  4  2  1  0
  4  5  1  1
  6  7  2  0
  9 10  2  0
  9  8  1  0
 11  9  1  0
 12 11  1  1
 13  6  1  0
 13 12  1  0
 14 15  2  0
 14 12  1  0
 16 17  1  0
 17 18  2  0
 19 17  1  0
 19 20  1  0
 20 21  1  0
 21 22  1  0
 23 22  1  6
 23 24  1  0
 24 14  1  0
 25 27  1  0
 25 23  1  0
 26 25  2  0
M  END
$$$$
