VNR.pdb
     RDKit          3D

 27 26  0  0  1  0  0  0  0  0999 V2000
   25.5927  -13.5672  -17.4006 C   0  0  0  0  0  0  0  0  0  0  0  0
   24.4263  -12.9310  -16.6776 C   0  0  1  0  0  0  0  0  0  0  0  0
   24.8507  -12.3741  -15.3581 C   0  0  0  0  0  0  0  0  0  0  0  0
   23.8202  -11.8690  -17.5676 C   0  0  2  0  0  0  0  0  0  0  0  0
   24.7475  -10.8332  -17.9022 N   0  0  0  0  0  0  0  0  0  0  0  0
   22.6695  -11.2463  -16.8452 C   0  0  0  0  0  0  0  0  0  0  0  0
   21.6615  -11.9455  -16.5187 O   0  0  0  0  0  0  0  0  0  0  0  0
   21.6157  -10.6966  -13.4707 N   0  0  0  0  0  0  0  0  0  0  0  0
   22.0940   -9.3746  -13.3632 C   0  0  0  0  0  0  0  0  0  0  0  0
   22.4683   -8.9085  -12.2605 O   0  0  0  0  0  0  0  0  0  0  0  0
   22.1574   -8.5188  -14.5689 C   0  0  0  0  0  0  0  0  0  0  0  0
   21.6143   -9.1916  -15.8082 C   0  0  2  0  0  0  0  0  0  0  0  0
   22.6673   -9.8694  -16.5051 N   0  0  0  0  0  0  0  0  0  0  0  0
   20.9653   -8.1516  -16.6774 C   0  0  0  0  0  0  0  0  0  0  0  0
   21.6659   -7.4723  -17.4553 O   0  0  0  0  0  0  0  0  0  0  0  0
   12.5167   -9.3720  -17.1871 N   0  0  0  0  0  0  0  0  0  0  0  0
   13.2337   -9.2132  -15.9689 C   0  0  0  0  0  0  0  0  0  0  0  0
   12.6875   -9.5871  -14.8532 N   0  0  0  0  0  0  0  0  0  0  0  0
   14.5406   -8.6526  -15.9394 N   0  0  0  0  0  0  0  0  0  0  0  0
   15.2475   -8.2956  -17.1436 C   0  0  0  0  0  0  0  0  0  0  0  0
   16.5785   -7.7655  -16.9149 C   0  0  0  0  0  0  0  0  0  0  0  0
   17.5870   -7.3773  -17.8829 C   0  0  0  0  0  0  0  0  0  0  0  0
   18.8984   -6.8925  -17.4703 C   0  0  2  0  0  0  0  0  0  0  0  0
   19.5823   -7.9305  -16.6295 N   0  0  0  0  0  0  0  0  0  0  0  0
   18.8275   -5.7521  -16.4816 C   0  0  0  0  0  0  0  0  0  0  0  0
   18.9701   -5.8883  -15.2893 O   0  0  0  0  0  0  0  0  0  0  0  0
   18.5797   -4.4594  -16.9555 O   0  0  0  0  0  0  0  0  0  0  0  0
  2  3  1  1
  2  1  1  0
  4  6  1  0
  4  2  1  0
  4  5  1  1
  6  7  2  0
  9 10  2  0
  9  8  1  0
 11  9  1  0
 12 11  1  1
 13  6  1  0
 13 12  1  0
 14 15  2  0
 14 12  1  0
 16 17  1  0
 17 18  2  0
 19 17  1  0
 19 20  1  0
 20 21  1  0
 21 22  1  0
 23 22  1  1
 23 24  1  0
 24 14  1  0
 25 27  1  0
 25 23  1  0
 26 25  2  0
M  END
$$$$
