VNR.pdb
     RDKit          3D

 27 26  0  0  1  0  0  0  0  0999 V2000
   21.2194  -28.2580  -17.3482 C   0  0  0  0  0  0  0  0  0  0  0  0
   20.3272  -28.3688  -16.1319 C   0  0  1  0  0  0  0  0  0  0  0  0
   20.5732  -29.6471  -15.3992 C   0  0  0  0  0  0  0  0  0  0  0  0
   20.5528  -27.1619  -15.2488 C   0  0  2  0  0  0  0  0  0  0  0  0
   21.9213  -27.0065  -14.8645 N   0  0  0  0  0  0  0  0  0  0  0  0
   19.7376  -27.3252  -14.0069 C   0  0  0  0  0  0  0  0  0  0  0  0
   18.4700  -27.3533  -14.0693 O   0  0  0  0  0  0  0  0  0  0  0  0
   21.5955  -30.1997  -10.0527 N   0  0  0  0  0  0  0  0  0  0  0  0
   20.4427  -29.4600  -10.3872 C   0  0  0  0  0  0  0  0  0  0  0  0
   19.3698  -30.0343  -10.6914 O   0  0  0  0  0  0  0  0  0  0  0  0
   20.4945  -27.9811  -10.3807 C   0  0  0  0  0  0  0  0  0  0  0  0
   19.6668  -27.3496  -11.4760 C   0  0  2  0  0  0  0  0  0  0  0  0
   20.3477  -27.4526  -12.7328 N   0  0  0  0  0  0  0  0  0  0  0  0
   19.4012  -25.9152  -11.1148 C   0  0  0  0  0  0  0  0  0  0  0  0
   20.3355  -25.0883  -11.1429 O   0  0  0  0  0  0  0  0  0  0  0  0
   19.2484  -19.0735  -15.0123 N   0  0  0  0  0  0  0  0  0  0  0  0
   20.1266  -19.4986  -13.9773 C   0  0  0  0  0  0  0  0  0  0  0  0
   21.3541  -19.0790  -13.9691 N   0  0  0  0  0  0  0  0  0  0  0  0
   19.6942  -20.3762  -12.9448 N   0  0  0  0  0  0  0  0  0  0  0  0
   18.3896  -20.9885  -12.9574 C   0  0  0  0  0  0  0  0  0  0  0  0
   18.1359  -21.8670  -11.8309 C   0  0  0  0  0  0  0  0  0  0  0  0
   18.0325  -23.3139  -11.8048 C   0  0  0  0  0  0  0  0  0  0  0  0
   17.7660  -24.0406  -10.5695 C   0  0  2  0  0  0  0  0  0  0  0  0
   18.1184  -25.4886  -10.7458 N   0  0  0  0  0  0  0  0  0  0  0  0
   16.2928  -24.1605  -10.2554 C   0  0  0  0  0  0  0  0  0  0  0  0
   15.5935  -25.0621  -10.6534 O   0  0  0  0  0  0  0  0  0  0  0  0
   15.6872  -23.1792   -9.4635 O   0  0  0  0  0  0  0  0  0  0  0  0
  2  3  1  1
  2  1  1  0
  4  6  1  0
  4  2  1  0
  4  5  1  1
  6  7  2  0
  9 10  2  0
  9  8  1  0
 11  9  1  0
 12 11  1  1
 13  6  1  0
 13 12  1  0
 14 15  2  0
 14 12  1  0
 16 17  1  0
 17 18  2  0
 19 17  1  0
 19 20  1  0
 20 21  1  0
 21 22  1  0
 23 22  1  6
 23 24  1  0
 24 14  1  0
 25 27  1  0
 25 23  1  0
 26 25  2  0
M  END
$$$$
