VNR.pdb
     RDKit          3D

 27 26  0  0  1  0  0  0  0  0999 V2000
   18.7295  -12.1383  -14.9057 C   0  0  0  0  0  0  0  0  0  0  0  0
   19.1456  -10.9873  -15.7946 C   0  0  1  0  0  0  0  0  0  0  0  0
   19.1258  -11.3854  -17.2342 C   0  0  0  0  0  0  0  0  0  0  0  0
   18.2376   -9.8084  -15.5245 C   0  0  2  0  0  0  0  0  0  0  0  0
   18.3333   -8.7956  -16.5294 N   0  0  0  0  0  0  0  0  0  0  0  0
   18.6268   -9.2015  -14.2153 C   0  0  0  0  0  0  0  0  0  0  0  0
   18.5223   -9.8695  -13.1410 O   0  0  0  0  0  0  0  0  0  0  0  0
   22.0495   -5.8896  -11.2520 N   0  0  0  0  0  0  0  0  0  0  0  0
   21.0117   -5.3906  -12.0656 C   0  0  0  0  0  0  0  0  0  0  0  0
   20.4479   -4.3016  -11.8017 O   0  0  0  0  0  0  0  0  0  0  0  0
   20.5769   -6.1609  -13.2521 C   0  0  0  0  0  0  0  0  0  0  0  0
   19.5562   -7.2277  -12.9303 C   0  0  2  0  0  0  0  0  0  0  0  0
   19.1201   -7.8743  -14.1327 N   0  0  0  0  0  0  0  0  0  0  0  0
   18.4046   -6.5911  -12.2042 C   0  0  0  0  0  0  0  0  0  0  0  0
   17.5724   -5.9132  -12.8406 O   0  0  0  0  0  0  0  0  0  0  0  0
   11.5589   -9.2902   -7.9710 N   0  0  0  0  0  0  0  0  0  0  0  0
   12.3808   -9.5823   -9.0945 C   0  0  0  0  0  0  0  0  0  0  0  0
   12.1821  -10.6757   -9.7639 N   0  0  0  0  0  0  0  0  0  0  0  0
   13.4208   -8.7041   -9.5072 N   0  0  0  0  0  0  0  0  0  0  0  0
   13.7941   -7.5447   -8.7369 C   0  0  0  0  0  0  0  0  0  0  0  0
   14.8334   -6.7367   -9.3469 C   0  0  0  0  0  0  0  0  0  0  0  0
   16.2499   -7.0194   -9.4829 C   0  0  0  0  0  0  0  0  0  0  0  0
   17.1757   -6.0421  -10.0422 C   0  0  2  0  0  0  0  0  0  0  0  0
   18.2487   -6.7460  -10.8202 N   0  0  0  0  0  0  0  0  0  0  0  0
   18.0159   -5.3503   -8.9940 C   0  0  0  0  0  0  0  0  0  0  0  0
   19.1978   -5.5512   -8.8421 O   0  0  0  0  0  0  0  0  0  0  0  0
   17.4066   -4.4248   -8.1403 O   0  0  0  0  0  0  0  0  0  0  0  0
  2  3  1  6
  2  1  1  0
  4  6  1  0
  4  2  1  0
  4  5  1  6
  6  7  2  0
  9 10  2  0
  9  8  1  0
 11  9  1  0
 12 11  1  6
 13  6  1  0
 13 12  1  0
 14 15  2  0
 14 12  1  0
 16 17  1  0
 17 18  2  0
 19 17  1  0
 19 20  1  0
 20 21  1  0
 21 22  1  0
 23 22  1  1
 23 24  1  0
 24 14  1  0
 25 27  1  0
 25 23  1  0
 26 25  2  0
M  END
$$$$
