VNR.pdb
     RDKit          3D

 27 26  0  0  1  0  0  0  0  0999 V2000
   19.2303  -20.1495  -11.6405 C   0  0  0  0  0  0  0  0  0  0  0  0
   19.5088  -19.8252  -13.0915 C   0  0  1  0  0  0  0  0  0  0  0  0
   19.2122  -18.3916  -13.3884 C   0  0  0  0  0  0  0  0  0  0  0  0
   20.9456  -20.1788  -13.4042 C   0  0  2  0  0  0  0  0  0  0  0  0
   21.8818  -19.4087  -12.6457 N   0  0  0  0  0  0  0  0  0  0  0  0
   21.1933  -19.9139  -14.8541 C   0  0  0  0  0  0  0  0  0  0  0  0
   20.5956  -20.5950  -15.7430 O   0  0  0  0  0  0  0  0  0  0  0  0
   22.8230  -17.6159  -19.2137 N   0  0  0  0  0  0  0  0  0  0  0  0
   22.9110  -16.6712  -18.1707 C   0  0  0  0  0  0  0  0  0  0  0  0
   23.1785  -15.4686  -18.4064 O   0  0  0  0  0  0  0  0  0  0  0  0
   22.6848  -17.1010  -16.7728 C   0  0  0  0  0  0  0  0  0  0  0  0
   22.3868  -18.5767  -16.6425 C   0  0  2  0  0  0  0  0  0  0  0  0
   22.0944  -18.9040  -15.2782 N   0  0  0  0  0  0  0  0  0  0  0  0
   23.5685  -19.3547  -17.1493 C   0  0  0  0  0  0  0  0  0  0  0  0
   24.6063  -19.4204  -16.4595 O   0  0  0  0  0  0  0  0  0  0  0  0
   27.3671  -26.7903  -16.9396 N   0  0  0  0  0  0  0  0  0  0  0  0
   27.9387  -25.5272  -16.6219 C   0  0  0  0  0  0  0  0  0  0  0  0
   29.1850  -25.4613  -16.2675 N   0  0  0  0  0  0  0  0  0  0  0  0
   27.1778  -24.3270  -16.6820 N   0  0  0  0  0  0  0  0  0  0  0  0
   25.8051  -24.3123  -17.1206 C   0  0  0  0  0  0  0  0  0  0  0  0
   25.4863  -23.2326  -18.0359 C   0  0  0  0  0  0  0  0  0  0  0  0
   24.7519  -22.0071  -17.7839 C   0  0  0  0  0  0  0  0  0  0  0  0
   24.5703  -20.9964  -18.8187 C   0  0  2  0  0  0  0  0  0  0  0  0
   23.5250  -20.0099  -18.3873 N   0  0  0  0  0  0  0  0  0  0  0  0
   23.9250  -21.5380  -20.0731 C   0  0  0  0  0  0  0  0  0  0  0  0
   22.8314  -21.2028  -20.4631 O   0  0  0  0  0  0  0  0  0  0  0  0
   24.6170  -22.4846  -20.8361 O   0  0  0  0  0  0  0  0  0  0  0  0
  2  3  1  1
  2  1  1  0
  4  6  1  0
  4  2  1  0
  4  5  1  1
  6  7  2  0
  9 10  2  0
  9  8  1  0
 11  9  1  0
 12 11  1  1
 13  6  1  0
 13 12  1  0
 14 15  2  0
 14 12  1  0
 16 17  1  0
 17 18  2  0
 19 17  1  0
 19 20  1  0
 20 21  1  0
 21 22  1  0
 23 22  1  1
 23 24  1  0
 24 14  1  0
 25 27  1  0
 25 23  1  0
 26 25  2  0
M  END
$$$$
