VNR.pdb
     RDKit          3D

 27 26  0  0  1  0  0  0  0  0999 V2000
   28.4511  -18.7937  -18.6606 C   0  0  0  0  0  0  0  0  0  0  0  0
   27.9708  -19.7696  -17.6095 C   0  0  1  0  0  0  0  0  0  0  0  0
   29.0015  -19.9649  -16.5460 C   0  0  0  0  0  0  0  0  0  0  0  0
   26.6624  -19.2692  -17.0396 C   0  0  2  0  0  0  0  0  0  0  0  0
   26.7605  -17.9439  -16.5116 N   0  0  0  0  0  0  0  0  0  0  0  0
   26.2498  -20.1815  -15.9300 C   0  0  0  0  0  0  0  0  0  0  0  0
   26.0495  -21.4150  -16.1532 O   0  0  0  0  0  0  0  0  0  0  0  0
   25.0151  -22.0329  -11.2739 N   0  0  0  0  0  0  0  0  0  0  0  0
   25.9885  -21.0266  -11.1074 C   0  0  0  0  0  0  0  0  0  0  0  0
   26.5601  -20.8539  -10.0043 O   0  0  0  0  0  0  0  0  0  0  0  0
   26.3452  -20.1569  -12.2505 C   0  0  0  0  0  0  0  0  0  0  0  0
   25.5716  -20.4768  -13.5085 C   0  0  2  0  0  0  0  0  0  0  0  0
   26.0709  -19.7033  -14.6068 N   0  0  0  0  0  0  0  0  0  0  0  0
   24.1149  -20.2000  -13.2633 C   0  0  0  0  0  0  0  0  0  0  0  0
   23.7115  -19.0204  -13.2077 O   0  0  0  0  0  0  0  0  0  0  0  0
   16.5982  -24.8894  -15.3403 N   0  0  0  0  0  0  0  0  0  0  0  0
   16.2677  -23.7322  -14.5821 C   0  0  0  0  0  0  0  0  0  0  0  0
   15.0225  -23.3985  -14.4365 N   0  0  0  0  0  0  0  0  0  0  0  0
   17.2700  -22.9256  -13.9754 N   0  0  0  0  0  0  0  0  0  0  0  0
   18.6747  -23.2147  -14.1178 C   0  0  0  0  0  0  0  0  0  0  0  0
   19.5488  -22.1861  -13.5859 C   0  0  0  0  0  0  0  0  0  0  0  0
   20.9984  -22.1540  -13.5357 C   0  0  0  0  0  0  0  0  0  0  0  0
   21.7205  -21.0183  -12.9755 C   0  0  2  0  0  0  0  0  0  0  0  0
   23.1988  -21.2470  -13.0955 N   0  0  0  0  0  0  0  0  0  0  0  0
   21.5878  -20.9103  -11.4743 C   0  0  0  0  0  0  0  0  0  0  0  0
   22.3291  -21.4602  -10.6942 O   0  0  0  0  0  0  0  0  0  0  0  0
   20.5517  -20.1372  -10.9399 O   0  0  0  0  0  0  0  0  0  0  0  0
  2  3  1  1
  2  1  1  0
  4  6  1  0
  4  2  1  0
  4  5  1  1
  6  7  2  0
  9 10  2  0
  9  8  1  0
 11  9  1  0
 12 11  1  1
 13  6  1  0
 13 12  1  0
 14 15  2  0
 14 12  1  0
 16 17  1  0
 17 18  2  0
 19 17  1  0
 19 20  1  0
 20 21  1  0
 21 22  1  0
 23 22  1  1
 23 24  1  0
 24 14  1  0
 25 27  1  0
 25 23  1  0
 26 25  2  0
M  END
$$$$
