VNR.pdb
     RDKit          3D

 27 26  0  0  1  0  0  0  0  0999 V2000
   17.0982  -14.0842  -16.6541 C   0  0  0  0  0  0  0  0  0  0  0  0
   17.0084  -12.9491  -15.6584 C   0  0  1  0  0  0  0  0  0  0  0  0
   18.3377  -12.6742  -15.0350 C   0  0  0  0  0  0  0  0  0  0  0  0
   16.4518  -11.7289  -16.3574 C   0  0  2  0  0  0  0  0  0  0  0  0
   17.2047  -11.3650  -17.5174 N   0  0  0  0  0  0  0  0  0  0  0  0
   16.4861  -10.5797  -15.4025 C   0  0  0  0  0  0  0  0  0  0  0  0
   15.7800  -10.5993  -14.3478 O   0  0  0  0  0  0  0  0  0  0  0  0
   18.8851   -9.1836  -12.5506 N   0  0  0  0  0  0  0  0  0  0  0  0
   19.5662   -8.3478  -13.4592 C   0  0  0  0  0  0  0  0  0  0  0  0
   20.7489   -7.9877  -13.2472 O   0  0  0  0  0  0  0  0  0  0  0  0
   18.8783   -7.8851  -14.6851 C   0  0  0  0  0  0  0  0  0  0  0  0
   17.4334   -8.3212  -14.7600 C   0  0  2  0  0  0  0  0  0  0  0  0
   17.3000   -9.4430  -15.6418 N   0  0  0  0  0  0  0  0  0  0  0  0
   16.6016   -7.1592  -15.2251 C   0  0  0  0  0  0  0  0  0  0  0  0
   16.6331   -6.8185  -16.4252 O   0  0  0  0  0  0  0  0  0  0  0  0
    8.2963   -4.2163  -13.4080 N   0  0  0  0  0  0  0  0  0  0  0  0
    8.7763   -3.8971  -14.7083 C   0  0  0  0  0  0  0  0  0  0  0  0
    7.9517   -3.4376  -15.5983 N   0  0  0  0  0  0  0  0  0  0  0  0
   10.1431   -4.0685  -15.0626 N   0  0  0  0  0  0  0  0  0  0  0  0
   11.0710   -4.7731  -14.2143 C   0  0  0  0  0  0  0  0  0  0  0  0
   12.4310   -4.8028  -14.7187 C   0  0  0  0  0  0  0  0  0  0  0  0
   13.6102   -5.4126  -14.1337 C   0  0  0  0  0  0  0  0  0  0  0  0
   14.9211   -5.3025  -14.7618 C   0  0  2  0  0  0  0  0  0  0  0  0
   15.7885   -6.4491  -14.3316 N   0  0  0  0  0  0  0  0  0  0  0  0
   15.7354   -4.1413  -14.2406 C   0  0  0  0  0  0  0  0  0  0  0  0
   16.2961   -4.1423  -13.1701 O   0  0  0  0  0  0  0  0  0  0  0  0
   15.8542   -2.9905  -15.0270 O   0  0  0  0  0  0  0  0  0  0  0  0
  2  3  1  6
  2  1  1  0
  4  6  1  0
  4  2  1  0
  4  5  1  6
  6  7  2  0
  9 10  2  0
  9  8  1  0
 11  9  1  0
 12 11  1  6
 13  6  1  0
 13 12  1  0
 14 15  2  0
 14 12  1  0
 16 17  1  0
 17 18  2  0
 19 17  1  0
 19 20  1  0
 20 21  1  0
 21 22  1  0
 23 22  1  1
 23 24  1  0
 24 14  1  0
 25 27  1  0
 25 23  1  0
 26 25  2  0
M  END
$$$$
