VNR.pdb
     RDKit          3D

 27 26  0  0  1  0  0  0  0  0999 V2000
   19.8193  -13.7215  -18.2183 C   0  0  0  0  0  0  0  0  0  0  0  0
   20.0579  -12.7859  -17.0540 C   0  0  1  0  0  0  0  0  0  0  0  0
   21.4241  -12.1852  -17.1182 C   0  0  0  0  0  0  0  0  0  0  0  0
   18.9778  -11.7273  -17.0485 C   0  0  2  0  0  0  0  0  0  0  0  0
   18.9392  -10.9708  -18.2614 N   0  0  0  0  0  0  0  0  0  0  0  0
   19.2459  -10.7835  -15.9211 C   0  0  0  0  0  0  0  0  0  0  0  0
   19.1578  -11.1782  -14.7179 O   0  0  0  0  0  0  0  0  0  0  0  0
   21.1484   -6.8326  -13.2700 N   0  0  0  0  0  0  0  0  0  0  0  0
   21.4887   -6.6107  -14.6201 C   0  0  0  0  0  0  0  0  0  0  0  0
   22.3392   -5.7461  -14.9405 O   0  0  0  0  0  0  0  0  0  0  0  0
   20.8341   -7.4087  -15.6807 C   0  0  0  0  0  0  0  0  0  0  0  0
   19.8969   -8.4643  -15.1413 C   0  0  2  0  0  0  0  0  0  0  0  0
   19.6034   -9.4314  -16.1574 N   0  0  0  0  0  0  0  0  0  0  0  0
   18.6457   -7.7931  -14.6488 C   0  0  0  0  0  0  0  0  0  0  0  0
   17.8045   -7.3755  -15.4706 O   0  0  0  0  0  0  0  0  0  0  0  0
   13.6170   -8.4581   -7.0604 N   0  0  0  0  0  0  0  0  0  0  0  0
   13.1143   -7.4662   -7.9473 C   0  0  0  0  0  0  0  0  0  0  0  0
   11.9388   -6.9589   -7.7375 N   0  0  0  0  0  0  0  0  0  0  0  0
   13.8686   -7.0120   -9.0644 N   0  0  0  0  0  0  0  0  0  0  0  0
   15.0492   -7.7006   -9.5216 C   0  0  0  0  0  0  0  0  0  0  0  0
   15.6407   -7.1331  -10.7187 C   0  0  0  0  0  0  0  0  0  0  0  0
   16.7808   -7.5997  -11.4849 C   0  0  0  0  0  0  0  0  0  0  0  0
   17.1634   -6.9762  -12.7458 C   0  0  2  0  0  0  0  0  0  0  0  0
   18.4063   -7.6274  -13.2780 N   0  0  0  0  0  0  0  0  0  0  0  0
   17.6545   -5.5564  -12.5829 C   0  0  0  0  0  0  0  0  0  0  0  0
   18.7128   -5.2668  -12.0767 O   0  0  0  0  0  0  0  0  0  0  0  0
   16.8493   -4.5055  -13.0348 O   0  0  0  0  0  0  0  0  0  0  0  0
  2  3  1  6
  2  1  1  0
  4  6  1  0
  4  2  1  0
  4  5  1  6
  6  7  2  0
  9 10  2  0
  9  8  1  0
 11  9  1  0
 12 11  1  6
 13  6  1  0
 13 12  1  0
 14 15  2  0
 14 12  1  0
 16 17  1  0
 17 18  2  0
 19 17  1  0
 19 20  1  0
 20 21  1  0
 21 22  1  0
 23 22  1  1
 23 24  1  0
 24 14  1  0
 25 27  1  0
 25 23  1  0
 26 25  2  0
M  END
$$$$
