VNR.pdb
     RDKit          3D

 27 26  0  0  1  0  0  0  0  0999 V2000
   28.5196  -16.8503  -18.8381 C   0  0  0  0  0  0  0  0  0  0  0  0
   28.1043  -18.0662  -18.0400 C   0  0  1  0  0  0  0  0  0  0  0  0
   28.4652  -17.9122  -16.5986 C   0  0  0  0  0  0  0  0  0  0  0  0
   26.6204  -18.2902  -18.2274 C   0  0  2  0  0  0  0  0  0  0  0  0
   25.8289  -17.2268  -17.6912 N   0  0  0  0  0  0  0  0  0  0  0  0
   26.2398  -19.5525  -17.5235 C   0  0  0  0  0  0  0  0  0  0  0  0
   26.8538  -20.6359  -17.7699 O   0  0  0  0  0  0  0  0  0  0  0  0
   25.4956  -23.7180  -14.9879 N   0  0  0  0  0  0  0  0  0  0  0  0
   25.7049  -22.5090  -14.2933 C   0  0  0  0  0  0  0  0  0  0  0  0
   25.6417  -22.4614  -13.0414 O   0  0  0  0  0  0  0  0  0  0  0  0
   26.0046  -21.2727  -15.0496 C   0  0  0  0  0  0  0  0  0  0  0  0
   24.8094  -20.7227  -15.7928 C   0  0  2  0  0  0  0  0  0  0  0  0
   25.1917  -19.5797  -16.5682 N   0  0  0  0  0  0  0  0  0  0  0  0
   23.7398  -20.3735  -14.7964 C   0  0  0  0  0  0  0  0  0  0  0  0
   24.0547  -19.8329  -13.7167 O   0  0  0  0  0  0  0  0  0  0  0  0
   16.2166  -25.0813  -12.7446 N   0  0  0  0  0  0  0  0  0  0  0  0
   16.1372  -23.7428  -12.2700 C   0  0  0  0  0  0  0  0  0  0  0  0
   15.0261  -23.3120  -11.7574 N   0  0  0  0  0  0  0  0  0  0  0  0
   17.2486  -22.8580  -12.3419 N   0  0  0  0  0  0  0  0  0  0  0  0
   18.1618  -22.8655  -13.4568 C   0  0  0  0  0  0  0  0  0  0  0  0
   19.2597  -21.9254  -13.3306 C   0  0  0  0  0  0  0  0  0  0  0  0
   20.3355  -21.6453  -14.2628 C   0  0  0  0  0  0  0  0  0  0  0  0
   21.3361  -20.6203  -13.9922 C   0  0  2  0  0  0  0  0  0  0  0  0
   22.3906  -20.6454  -15.0597 N   0  0  0  0  0  0  0  0  0  0  0  0
   22.1805  -20.9192  -12.7754 C   0  0  0  0  0  0  0  0  0  0  0  0
   23.0537  -21.7543  -12.7538 O   0  0  0  0  0  0  0  0  0  0  0  0
   21.9493  -20.2007  -11.5976 O   0  0  0  0  0  0  0  0  0  0  0  0
  2  3  1  1
  2  1  1  0
  4  6  1  0
  4  2  1  0
  4  5  1  1
  6  7  2  0
  9 10  2  0
  9  8  1  0
 11  9  1  0
 12 11  1  1
 13  6  1  0
 13 12  1  0
 14 15  2  0
 14 12  1  0
 16 17  1  0
 17 18  2  0
 19 17  1  0
 19 20  1  0
 20 21  1  0
 21 22  1  0
 23 22  1  6
 23 24  1  0
 24 14  1  0
 25 27  1  0
 25 23  1  0
 26 25  2  0
M  END
$$$$
