YTP.pdb
     RDKit          3D

 27 28  0  0  1  0  0  0  0  0999 V2000
   20.2053  -20.2163  -14.6237 O   0  0  0  0  0  0  0  0  0  0  0  0
   20.6464  -18.9380  -14.8635 C   0  0  0  0  0  0  0  0  0  0  0  0
   19.7424  -17.9226  -15.0227 C   0  0  0  0  0  0  0  0  0  0  0  0
   20.1561  -16.6120  -15.2680 C   0  0  0  0  0  0  0  0  0  0  0  0
   21.5139  -16.3967  -15.3405 C   0  0  0  0  0  0  0  0  0  0  0  0
   22.0294  -15.0097  -15.6020 C   0  0  0  0  0  0  0  0  0  0  0  0
   21.7583  -14.7496  -17.0808 C   0  0  2  0  0  0  0  0  0  0  0  0
   22.5915  -15.5497  -17.9243 N   0  0  0  0  0  0  0  0  0  0  0  0
   21.9142  -13.2897  -17.3592 C   0  0  0  0  0  0  0  0  0  0  0  0
   23.0401  -12.8854  -17.7664 O   0  0  0  0  0  0  0  0  0  0  0  0
   22.4386  -17.4071  -15.1826 C   0  0  0  0  0  0  0  0  0  0  0  0
   21.9828  -18.6747  -14.9442 C   0  0  0  0  0  0  0  0  0  0  0  0
   18.9420  -10.7828  -19.0171 C   0  0  0  0  0  0  0  0  0  0  0  0
   20.4685  -10.8008  -18.9844 C   0  0  1  0  0  0  0  0  0  0  0  0
   20.7583   -9.4235  -19.3850 O   0  0  0  0  0  0  0  0  0  0  0  0
   21.0125  -10.9279  -17.6333 C   0  0  2  0  0  0  0  0  0  0  0  0
   20.8849  -12.3593  -17.1927 N   0  0  0  0  0  0  0  0  0  0  0  0
   20.6296  -10.0625  -16.5454 C   0  0  0  0  0  0  0  0  0  0  0  0
   19.3497  -10.3432  -16.1584 O   0  0  0  0  0  0  0  0  0  0  0  0
   21.1544   -9.0409  -15.7668 N   0  0  0  0  0  0  0  0  0  0  0  0
   22.7009   -8.8241  -15.7333 C   0  0  0  0  0  0  0  0  0  0  0  0
   22.7227   -7.3181  -16.0170 C   0  0  0  0  0  0  0  0  0  0  0  0
   21.3043   -6.7973  -15.6593 C   0  0  0  0  0  0  0  0  0  0  0  0
   20.8409   -7.9990  -14.8569 C   0  0  1  0  0  0  0  0  0  0  0  0
   19.6569   -7.9114  -14.0814 C   0  0  0  0  0  0  0  0  0  0  0  0
   19.7455   -7.5105  -12.7381 O   0  0  0  0  0  0  0  0  0  0  0  0
   18.4782   -8.1611  -14.4954 O   0  0  0  0  0  0  0  0  0  0  0  0
  2 12  2  0
  2  1  1  0
  3  2  1  0
  4  5  1  0
  4  3  2  0
  5 11  2  0
  6  7  1  0
  6  5  1  0
  7  9  1  0
  7  8  1  6
  9 17  1  0
  9 10  2  0
 11 12  1  0
 14 13  1  1
 15 14  1  0
 16 14  1  0
 16 18  1  0
 16 17  1  1
 18 19  2  0
 20 21  1  0
 20 18  1  0
 22 21  1  0
 23 24  1  0
 23 22  1  0
 24 20  1  0
 24 25  1  6
 25 26  1  0
 27 25  2  0
M  END
$$$$
