YTP.pdb
     RDKit          3D

 27 28  0  0  1  0  0  0  0  0999 V2000
   37.0523   -9.9727   -5.7809 O   0  0  0  0  0  0  0  0  0  0  0  0
   37.7410  -10.2111   -6.9449 C   0  0  0  0  0  0  0  0  0  0  0  0
   38.8719  -10.9819   -6.9232 C   0  0  0  0  0  0  0  0  0  0  0  0
   39.5963  -11.2439   -8.0875 C   0  0  0  0  0  0  0  0  0  0  0  0
   39.1151  -10.6889   -9.2518 C   0  0  0  0  0  0  0  0  0  0  0  0
   39.8456  -10.9301  -10.5426 C   0  0  0  0  0  0  0  0  0  0  0  0
   40.9035   -9.8334  -10.6196 C   0  0  2  0  0  0  0  0  0  0  0  0
   40.3540   -8.5935  -11.0737 N   0  0  0  0  0  0  0  0  0  0  0  0
   42.0306  -10.2983  -11.4839 C   0  0  0  0  0  0  0  0  0  0  0  0
   41.8064  -10.4351  -12.7200 O   0  0  0  0  0  0  0  0  0  0  0  0
   37.9780   -9.9102   -9.2924 C   0  0  0  0  0  0  0  0  0  0  0  0
   37.3034   -9.6826   -8.1243 C   0  0  0  0  0  0  0  0  0  0  0  0
   44.5717   -8.4932  -12.4898 C   0  0  0  0  0  0  0  0  0  0  0  0
   45.3205   -9.7367  -12.0161 C   0  0  1  0  0  0  0  0  0  0  0  0
   45.6284   -9.3518  -10.6382 O   0  0  0  0  0  0  0  0  0  0  0  0
   44.4622  -10.9147  -11.9006 C   0  0  2  0  0  0  0  0  0  0  0  0
   43.3080  -10.5860  -10.9956 N   0  0  0  0  0  0  0  0  0  0  0  0
   44.9639  -12.2254  -11.5700 C   0  0  0  0  0  0  0  0  0  0  0  0
   45.0608  -12.3558  -10.2133 O   0  0  0  0  0  0  0  0  0  0  0  0
   45.3723  -13.3945  -12.1958 N   0  0  0  0  0  0  0  0  0  0  0  0
   44.7037  -13.8121  -13.5443 C   0  0  0  0  0  0  0  0  0  0  0  0
   45.9779  -14.0690  -14.3565 C   0  0  0  0  0  0  0  0  0  0  0  0
   47.1089  -14.2879  -13.3154 C   0  0  0  0  0  0  0  0  0  0  0  0
   46.2283  -14.5215  -12.1018 C   0  0  1  0  0  0  0  0  0  0  0  0
   46.8002  -15.0237  -10.9054 C   0  0  0  0  0  0  0  0  0  0  0  0
   47.7982  -14.2777  -10.2568 O   0  0  0  0  0  0  0  0  0  0  0  0
   46.4850  -16.1180  -10.3343 O   0  0  0  0  0  0  0  0  0  0  0  0
  2 12  2  0
  2  1  1  0
  3  2  1  0
  4  5  1  0
  4  3  2  0
  5 11  2  0
  6  7  1  0
  6  5  1  0
  7  9  1  0
  7  8  1  6
  9 17  1  0
  9 10  2  0
 11 12  1  0
 14 13  1  1
 15 14  1  0
 16 14  1  0
 16 18  1  0
 16 17  1  1
 18 19  2  0
 20 21  1  0
 20 18  1  0
 22 21  1  0
 23 24  1  0
 23 22  1  0
 24 20  1  0
 24 25  1  1
 25 26  1  0
 27 25  2  0
M  END
$$$$
