YTP.pdb
     RDKit          3D

 27 28  0  0  1  0  0  0  0  0999 V2000
   22.2123  -10.6142  -16.7911 O   0  0  0  0  0  0  0  0  0  0  0  0
   22.4061  -11.9176  -16.4045 C   0  0  0  0  0  0  0  0  0  0  0  0
   21.3479  -12.7854  -16.3755 C   0  0  0  0  0  0  0  0  0  0  0  0
   21.5092  -14.1167  -15.9873 C   0  0  0  0  0  0  0  0  0  0  0  0
   22.7820  -14.5077  -15.6374 C   0  0  0  0  0  0  0  0  0  0  0  0
   23.0277  -15.9270  -15.2093 C   0  0  0  0  0  0  0  0  0  0  0  0
   24.0093  -16.4934  -16.2307 C   0  0  2  0  0  0  0  0  0  0  0  0
   23.4220  -16.6044  -17.5301 N   0  0  0  0  0  0  0  0  0  0  0  0
   24.5307  -17.8037  -15.7364 C   0  0  0  0  0  0  0  0  0  0  0  0
   23.8562  -18.8406  -15.9947 O   0  0  0  0  0  0  0  0  0  0  0  0
   23.8592  -13.6476  -15.6607 C   0  0  0  0  0  0  0  0  0  0  0  0
   23.6494  -12.3525  -16.0484 C   0  0  0  0  0  0  0  0  0  0  0  0
   27.5321  -19.2524  -16.7129 C   0  0  0  0  0  0  0  0  0  0  0  0
   27.5510  -19.4889  -15.2045 C   0  0  1  0  0  0  0  0  0  0  0  0
   28.3791  -18.3632  -14.7702 O   0  0  0  0  0  0  0  0  0  0  0  0
   26.2504  -19.2720  -14.5730 C   0  0  2  0  0  0  0  0  0  0  0  0
   25.7169  -17.9363  -15.0095 N   0  0  0  0  0  0  0  0  0  0  0  0
   26.0257  -19.4312  -13.1576 C   0  0  0  0  0  0  0  0  0  0  0  0
   26.1842  -18.2304  -12.5253 O   0  0  0  0  0  0  0  0  0  0  0  0
   25.6941  -20.4177  -12.2401 N   0  0  0  0  0  0  0  0  0  0  0  0
   24.5408  -21.4162  -12.5761 C   0  0  0  0  0  0  0  0  0  0  0  0
   25.2785  -22.7236  -12.2668 C   0  0  0  0  0  0  0  0  0  0  0  0
   26.4667  -22.3340  -11.3463 C   0  0  0  0  0  0  0  0  0  0  0  0
   25.9796  -20.9506  -10.9569 C   0  0  1  0  0  0  0  0  0  0  0  0
   26.6166  -20.2537   -9.8990 C   0  0  0  0  0  0  0  0  0  0  0  0
   26.1490  -20.4255   -8.5856 O   0  0  0  0  0  0  0  0  0  0  0  0
   27.6099  -19.4653  -10.0214 O   0  0  0  0  0  0  0  0  0  0  0  0
  2 12  2  0
  2  1  1  0
  3  2  1  0
  4  5  1  0
  4  3  2  0
  5 11  2  0
  6  7  1  0
  6  5  1  0
  7  9  1  0
  7  8  1  6
  9 17  1  0
  9 10  2  0
 11 12  1  0
 14 13  1  6
 15 14  1  0
 16 14  1  0
 16 18  1  0
 16 17  1  1
 18 19  2  0
 20 21  1  0
 20 18  1  0
 22 21  1  0
 23 24  1  0
 23 22  1  0
 24 20  1  0
 24 25  1  6
 25 26  1  0
 27 25  2  0
M  END
$$$$
