YTP.pdb
     RDKit          3D

 27 28  0  0  1  0  0  0  0  0999 V2000
   24.5662  -20.1714   -6.1928 O   0  0  0  0  0  0  0  0  0  0  0  0
   24.9955  -20.1587   -7.4973 C   0  0  0  0  0  0  0  0  0  0  0  0
   24.0820  -20.1689   -8.5166 C   0  0  0  0  0  0  0  0  0  0  0  0
   24.4835  -20.1569   -9.8536 C   0  0  0  0  0  0  0  0  0  0  0  0
   25.8395  -20.1341  -10.0906 C   0  0  0  0  0  0  0  0  0  0  0  0
   26.3421  -20.1201  -11.5067 C   0  0  0  0  0  0  0  0  0  0  0  0
   25.6584  -21.3005  -12.1901 C   0  0  2  0  0  0  0  0  0  0  0  0
   26.2164  -22.5513  -11.7783 N   0  0  0  0  0  0  0  0  0  0  0  0
   25.7255  -21.1161  -13.6716 C   0  0  0  0  0  0  0  0  0  0  0  0
   26.8113  -21.4020  -14.2515 O   0  0  0  0  0  0  0  0  0  0  0  0
   26.7736  -20.1234   -9.0767 C   0  0  0  0  0  0  0  0  0  0  0  0
   26.3295  -20.1361   -7.7828 C   0  0  0  0  0  0  0  0  0  0  0  0
   23.4725  -21.0055  -18.0338 C   0  0  0  0  0  0  0  0  0  0  0  0
   23.4551  -20.9480  -16.5081 C   0  0  1  0  0  0  0  0  0  0  0  0
   23.3511  -22.3727  -16.1904 O   0  0  0  0  0  0  0  0  0  0  0  0
   24.7306  -20.5212  -15.9349 C   0  0  2  0  0  0  0  0  0  0  0  0
   24.6557  -20.6476  -14.4390 N   0  0  0  0  0  0  0  0  0  0  0  0
   25.3672  -19.2723  -16.2726 C   0  0  0  0  0  0  0  0  0  0  0  0
   24.5200  -18.2337  -16.0073 O   0  0  0  0  0  0  0  0  0  0  0  0
   26.5693  -18.7958  -16.7755 N   0  0  0  0  0  0  0  0  0  0  0  0
   27.9075  -19.2382  -16.1020 C   0  0  0  0  0  0  0  0  0  0  0  0
   28.6593  -19.6771  -17.3634 C   0  0  0  0  0  0  0  0  0  0  0  0
   27.9414  -18.9800  -18.5507 C   0  0  0  0  0  0  0  0  0  0  0  0
   27.1665  -17.9522  -17.7469 C   0  0  1  0  0  0  0  0  0  0  0  0
   26.5221  -16.8795  -18.4139 C   0  0  0  0  0  0  0  0  0  0  0  0
   27.2628  -15.7315  -18.7404 O   0  0  0  0  0  0  0  0  0  0  0  0
   25.2982  -16.8526  -18.7664 O   0  0  0  0  0  0  0  0  0  0  0  0
  2 12  2  0
  2  1  1  0
  3  2  1  0
  4  5  1  0
  4  3  2  0
  5 11  2  0
  6  7  1  0
  6  5  1  0
  7  9  1  0
  7  8  1  6
  9 17  1  0
  9 10  2  0
 11 12  1  0
 14 13  1  6
 15 14  1  0
 16 14  1  0
 16 18  1  0
 16 17  1  1
 18 19  2  0
 20 21  1  0
 20 18  1  0
 22 21  1  0
 23 24  1  0
 23 22  1  0
 24 20  1  0
 24 25  1  6
 25 26  1  0
 27 25  2  0
M  END
$$$$
