YTP.pdb
     RDKit          3D

 27 28  0  0  1  0  0  0  0  0999 V2000
   28.7243  -18.3489   -3.2580 O   0  0  0  0  0  0  0  0  0  0  0  0
   28.4355  -18.9684   -4.4492 C   0  0  0  0  0  0  0  0  0  0  0  0
   28.6397  -18.3065   -5.6298 C   0  0  0  0  0  0  0  0  0  0  0  0
   28.3566  -18.9061   -6.8584 C   0  0  0  0  0  0  0  0  0  0  0  0
   27.8642  -20.1911   -6.8192 C   0  0  0  0  0  0  0  0  0  0  0  0
   27.5377  -20.8970   -8.1049 C   0  0  0  0  0  0  0  0  0  0  0  0
   26.1249  -20.4478   -8.4655 C   0  0  2  0  0  0  0  0  0  0  0  0
   25.1675  -20.8631   -7.4875 N   0  0  0  0  0  0  0  0  0  0  0  0
   25.7846  -20.9475   -9.8321 C   0  0  0  0  0  0  0  0  0  0  0  0
   25.3042  -22.1123   -9.9300 O   0  0  0  0  0  0  0  0  0  0  0  0
   27.6523  -20.8728   -5.6397 C   0  0  0  0  0  0  0  0  0  0  0  0
   27.9453  -20.2416   -4.4618 C   0  0  0  0  0  0  0  0  0  0  0  0
   23.7030  -21.9046  -11.1092 C   0  0  0  0  0  0  0  0  0  0  0  0
   24.0469  -20.9422  -12.2437 C   0  0  1  0  0  0  0  0  0  0  0  0
   23.4429  -19.7091  -11.7375 O   0  0  0  0  0  0  0  0  0  0  0  0
   25.4773  -20.6552  -12.3394 C   0  0  2  0  0  0  0  0  0  0  0  0
   25.9701  -20.1961  -10.9957 N   0  0  0  0  0  0  0  0  0  0  0  0
   26.0451  -19.8142  -13.3638 C   0  0  0  0  0  0  0  0  0  0  0  0
   25.4190  -18.5997  -13.3661 O   0  0  0  0  0  0  0  0  0  0  0  0
   27.0293  -19.8496  -14.3412 N   0  0  0  0  0  0  0  0  0  0  0  0
   28.4486  -20.3899  -13.9760 C   0  0  0  0  0  0  0  0  0  0  0  0
   28.6152  -21.3824  -15.1321 C   0  0  0  0  0  0  0  0  0  0  0  0
   27.6110  -20.9321  -16.2274 C   0  0  0  0  0  0  0  0  0  0  0  0
   27.3337  -19.5397  -15.6914 C   0  0  1  0  0  0  0  0  0  0  0  0
   26.6397  -18.6021  -16.4978 C   0  0  0  0  0  0  0  0  0  0  0  0
   25.2351  -18.5907  -16.4811 O   0  0  0  0  0  0  0  0  0  0  0  0
   27.1793  -17.7333  -17.2575 O   0  0  0  0  0  0  0  0  0  0  0  0
  2 12  2  0
  2  1  1  0
  3  2  1  0
  4  5  1  0
  4  3  2  0
  5 11  2  0
  6  7  1  0
  6  5  1  0
  7  9  1  0
  7  8  1  1
  9 17  1  0
  9 10  2  0
 11 12  1  0
 14 13  1  1
 15 14  1  0
 16 14  1  0
 16 18  1  0
 16 17  1  1
 18 19  2  0
 20 21  1  0
 20 18  1  0
 22 21  1  0
 23 24  1  0
 23 22  1  0
 24 20  1  0
 24 25  1  6
 25 26  1  0
 27 25  2  0
M  END
$$$$
