YTP.pdb
     RDKit          3D

 27 28  0  0  1  0  0  0  0  0999 V2000
   18.5538  -25.9867  -12.1830 O   0  0  0  0  0  0  0  0  0  0  0  0
   18.2248  -26.0368  -10.8507 C   0  0  0  0  0  0  0  0  0  0  0  0
   16.9928  -25.6088  -10.4353 C   0  0  0  0  0  0  0  0  0  0  0  0
   16.6256  -25.6454   -9.0889 C   0  0  0  0  0  0  0  0  0  0  0  0
   17.5635  -26.1324   -8.2065 C   0  0  0  0  0  0  0  0  0  0  0  0
   17.2350  -26.2001   -6.7417 C   0  0  0  0  0  0  0  0  0  0  0  0
   17.3013  -24.7589   -6.2453 C   0  0  2  0  0  0  0  0  0  0  0  0
   18.6258  -24.2258   -6.3312 N   0  0  0  0  0  0  0  0  0  0  0  0
   16.7586  -24.6931   -4.8545 C   0  0  0  0  0  0  0  0  0  0  0  0
   17.5651  -24.8760   -3.8990 O   0  0  0  0  0  0  0  0  0  0  0  0
   18.8088  -26.5677   -8.6069 C   0  0  0  0  0  0  0  0  0  0  0  0
   19.1208  -26.5114   -9.9377 C   0  0  0  0  0  0  0  0  0  0  0  0
   13.1086  -23.3193   -1.7538 C   0  0  0  0  0  0  0  0  0  0  0  0
   13.6800  -23.5400   -3.1525 C   0  0  1  0  0  0  0  0  0  0  0  0
   14.1178  -22.1819   -3.4772 O   0  0  0  0  0  0  0  0  0  0  0  0
   14.9004  -24.3451   -3.1538 C   0  0  2  0  0  0  0  0  0  0  0  0
   15.4153  -24.4414   -4.5627 N   0  0  0  0  0  0  0  0  0  0  0  0
   14.9897  -25.6411   -2.5282 C   0  0  0  0  0  0  0  0  0  0  0  0
   14.1935  -26.5317   -3.1913 O   0  0  0  0  0  0  0  0  0  0  0  0
   15.6335  -26.2668   -1.4703 N   0  0  0  0  0  0  0  0  0  0  0  0
   17.0988  -25.8560   -1.1180 C   0  0  0  0  0  0  0  0  0  0  0  0
   16.9127  -25.6283    0.3862 C   0  0  0  0  0  0  0  0  0  0  0  0
   15.6234  -26.4004    0.7769 C   0  0  0  0  0  0  0  0  0  0  0  0
   15.5157  -27.2627   -0.4672 C   0  0  1  0  0  0  0  0  0  0  0  0
   14.6077  -28.3516   -0.4905 C   0  0  0  0  0  0  0  0  0  0  0  0
   13.2445  -28.1026   -0.7209 O   0  0  0  0  0  0  0  0  0  0  0  0
   14.9138  -29.5771   -0.3252 O   0  0  0  0  0  0  0  0  0  0  0  0
  2 12  2  0
  2  1  1  0
  3  2  1  0
  4  5  1  0
  4  3  2  0
  5 11  2  0
  6  7  1  0
  6  5  1  0
  7  9  1  0
  7  8  1  1
  9 17  1  0
  9 10  2  0
 11 12  1  0
 14 13  1  1
 15 14  1  0
 16 14  1  0
 16 18  1  0
 16 17  1  6
 18 19  2  0
 20 21  1  0
 20 18  1  0
 22 21  1  0
 23 24  1  0
 23 22  1  0
 24 20  1  0
 24 25  1  1
 25 26  1  0
 27 25  2  0
M  END
$$$$
