YTP.pdb
     RDKit          3D

 27 28  0  0  1  0  0  0  0  0999 V2000
   43.3798   -7.6535   -2.1531 O   0  0  0  0  0  0  0  0  0  0  0  0
   43.1367   -8.5451   -3.1689 C   0  0  0  0  0  0  0  0  0  0  0  0
   43.9040   -9.6726   -3.2855 C   0  0  0  0  0  0  0  0  0  0  0  0
   43.6846  -10.5996   -4.3060 C   0  0  0  0  0  0  0  0  0  0  0  0
   42.6611  -10.3208   -5.1836 C   0  0  0  0  0  0  0  0  0  0  0  0
   42.3695  -11.2760   -6.3064 C   0  0  0  0  0  0  0  0  0  0  0  0
   43.4599  -11.0256   -7.3438 C   0  0  2  0  0  0  0  0  0  0  0  0
   43.3297   -9.7388   -7.9543 N   0  0  0  0  0  0  0  0  0  0  0  0
   43.4421  -12.1295   -8.3510 C   0  0  0  0  0  0  0  0  0  0  0  0
   42.6611  -12.0131   -9.3376 O   0  0  0  0  0  0  0  0  0  0  0  0
   41.8783   -9.1905   -5.0813 C   0  0  0  0  0  0  0  0  0  0  0  0
   42.1333   -8.3125   -4.0637 C   0  0  0  0  0  0  0  0  0  0  0  0
   44.6777  -12.2234  -10.7763 C   0  0  0  0  0  0  0  0  0  0  0  0
   45.1227  -13.6509  -10.4667 C   0  0  1  0  0  0  0  0  0  0  0  0
   46.4534  -13.3992   -9.9123 O   0  0  0  0  0  0  0  0  0  0  0  0
   44.3652  -14.2651   -9.3774 C   0  0  2  0  0  0  0  0  0  0  0  0
   44.2399  -13.2729   -8.2553 N   0  0  0  0  0  0  0  0  0  0  0  0
   44.6829  -15.5605   -8.8297 C   0  0  0  0  0  0  0  0  0  0  0  0
   45.6569  -15.4358   -7.8796 O   0  0  0  0  0  0  0  0  0  0  0  0
   44.3064  -16.8895   -8.9607 N   0  0  0  0  0  0  0  0  0  0  0  0
   42.8200  -17.2912   -8.6973 C   0  0  0  0  0  0  0  0  0  0  0  0
   42.5744  -18.0953   -9.9788 C   0  0  0  0  0  0  0  0  0  0  0  0
   43.9793  -18.4911  -10.5085 C   0  0  0  0  0  0  0  0  0  0  0  0
   44.7647  -18.2018   -9.2427 C   0  0  1  0  0  0  0  0  0  0  0  0
   46.1064  -18.6471   -9.1316 C   0  0  0  0  0  0  0  0  0  0  0  0
   46.5690  -19.6520   -9.9972 O   0  0  0  0  0  0  0  0  0  0  0  0
   46.9680  -18.2081   -8.3020 O   0  0  0  0  0  0  0  0  0  0  0  0
  2 12  2  0
  2  1  1  0
  3  2  1  0
  4  5  1  0
  4  3  2  0
  5 11  2  0
  6  7  1  0
  6  5  1  0
  7  9  1  0
  7  8  1  6
  9 17  1  0
  9 10  2  0
 11 12  1  0
 14 13  1  1
 15 14  1  0
 16 14  1  0
 16 18  1  0
 16 17  1  1
 18 19  2  0
 20 21  1  0
 20 18  1  0
 22 21  1  0
 23 24  1  0
 23 22  1  0
 24 20  1  0
 24 25  1  6
 25 26  1  0
 27 25  2  0
M  END
$$$$
