YTP.pdb
     RDKit          3D

 27 28  0  0  1  0  0  0  0  0999 V2000
   16.5247  -18.8983  -15.6559 O   0  0  0  0  0  0  0  0  0  0  0  0
   17.7834  -19.3871  -15.4056 C   0  0  0  0  0  0  0  0  0  0  0  0
   18.0557  -20.7118  -15.6172 C   0  0  0  0  0  0  0  0  0  0  0  0
   19.3239  -21.2419  -15.3728 C   0  0  0  0  0  0  0  0  0  0  0  0
   20.2803  -20.3663  -14.9104 C   0  0  0  0  0  0  0  0  0  0  0  0
   21.6674  -20.8695  -14.6263 C   0  0  0  0  0  0  0  0  0  0  0  0
   22.5549  -20.2319  -15.6910 C   0  0  2  0  0  0  0  0  0  0  0  0
   22.2987  -20.7704  -16.9911 N   0  0  0  0  0  0  0  0  0  0  0  0
   23.9870  -20.3845  -15.2922 C   0  0  0  0  0  0  0  0  0  0  0  0
   24.5950  -21.4261  -15.6694 O   0  0  0  0  0  0  0  0  0  0  0  0
   20.0239  -19.0295  -14.6916 C   0  0  0  0  0  0  0  0  0  0  0  0
   18.7650  -18.5583  -14.9461 C   0  0  0  0  0  0  0  0  0  0  0  0
   26.7693  -18.2096  -15.9823 C   0  0  0  0  0  0  0  0  0  0  0  0
   26.9080  -18.5209  -14.4939 C   0  0  1  0  0  0  0  0  0  0  0  0
   26.2578  -17.3445  -13.9154 O   0  0  0  0  0  0  0  0  0  0  0  0
   26.0927  -19.6567  -14.0664 C   0  0  2  0  0  0  0  0  0  0  0  0
   24.6794  -19.4399  -14.5299 N   0  0  0  0  0  0  0  0  0  0  0  0
   26.0756  -20.1480  -12.7110 C   0  0  0  0  0  0  0  0  0  0  0  0
   24.9941  -19.6407  -12.0477 O   0  0  0  0  0  0  0  0  0  0  0  0
   26.8079  -20.9770  -11.8733 N   0  0  0  0  0  0  0  0  0  0  0  0
   27.7871  -22.0213  -12.4983 C   0  0  0  0  0  0  0  0  0  0  0  0
   29.0316  -21.6867  -11.6686 C   0  0  0  0  0  0  0  0  0  0  0  0
   28.5143  -20.9470  -10.4053 C   0  0  0  0  0  0  0  0  0  0  0  0
   27.0525  -21.3370  -10.5233 C   0  0  1  0  0  0  0  0  0  0  0  0
   26.1730  -21.1021   -9.4361 C   0  0  0  0  0  0  0  0  0  0  0  0
   25.7896  -19.7843   -9.1370 O   0  0  0  0  0  0  0  0  0  0  0  0
   25.6714  -21.9967   -8.6804 O   0  0  0  0  0  0  0  0  0  0  0  0
  2 12  2  0
  2  1  1  0
  3  2  1  0
  4  5  1  0
  4  3  2  0
  5 11  2  0
  6  7  1  0
  6  5  1  0
  7  9  1  0
  7  8  1  6
  9 17  1  0
  9 10  2  0
 11 12  1  0
 14 13  1  6
 15 14  1  0
 16 14  1  0
 16 18  1  0
 16 17  1  1
 18 19  2  0
 20 21  1  0
 20 18  1  0
 22 21  1  0
 23 24  1  0
 23 22  1  0
 24 20  1  0
 24 25  1  1
 25 26  1  0
 27 25  2  0
M  END
$$$$
