YTP.pdb
     RDKit          3D

 27 28  0  0  1  0  0  0  0  0999 V2000
   19.6616  -12.8968  -17.0625 O   0  0  0  0  0  0  0  0  0  0  0  0
   20.1420  -14.0776  -16.5515 C   0  0  0  0  0  0  0  0  0  0  0  0
   19.2708  -15.0198  -16.0753 C   0  0  0  0  0  0  0  0  0  0  0  0
   19.7248  -16.2305  -15.5489 C   0  0  0  0  0  0  0  0  0  0  0  0
   21.0877  -16.4249  -15.5346 C   0  0  0  0  0  0  0  0  0  0  0  0
   21.6457  -17.7059  -14.9818 C   0  0  0  0  0  0  0  0  0  0  0  0
   22.4415  -18.3273  -16.1257 C   0  0  2  0  0  0  0  0  0  0  0  0
   21.5903  -18.9596  -17.0855 N   0  0  0  0  0  0  0  0  0  0  0  0
   23.4531  -19.2726  -15.5632 C   0  0  0  0  0  0  0  0  0  0  0  0
   23.1127  -20.4810  -15.4187 O   0  0  0  0  0  0  0  0  0  0  0  0
   21.9797  -15.4873  -16.0099 C   0  0  0  0  0  0  0  0  0  0  0  0
   21.4849  -14.3164  -16.5158 C   0  0  0  0  0  0  0  0  0  0  0  0
   27.9780  -20.8723  -14.9414 C   0  0  0  0  0  0  0  0  0  0  0  0
   26.9586  -19.8243  -15.3820 C   0  0  1  0  0  0  0  0  0  0  0  0
   26.5795  -20.3571  -16.6911 O   0  0  0  0  0  0  0  0  0  0  0  0
   25.7303  -19.8493  -14.5894 C   0  0  2  0  0  0  0  0  0  0  0  0
   24.7448  -18.8884  -15.1933 N   0  0  0  0  0  0  0  0  0  0  0  0
   25.7153  -19.7027  -13.1551 C   0  0  0  0  0  0  0  0  0  0  0  0
   26.0289  -18.4165  -12.8173 O   0  0  0  0  0  0  0  0  0  0  0  0
   25.4770  -20.4550  -12.0139 N   0  0  0  0  0  0  0  0  0  0  0  0
   24.4908  -21.6641  -12.0887 C   0  0  0  0  0  0  0  0  0  0  0  0
   25.3852  -22.7240  -11.4362 C   0  0  0  0  0  0  0  0  0  0  0  0
   26.4604  -21.9395  -10.6365 C   0  0  0  0  0  0  0  0  0  0  0  0
   25.7681  -20.5891  -10.6321 C   0  0  1  0  0  0  0  0  0  0  0  0
   26.2488  -19.5562   -9.7878 C   0  0  0  0  0  0  0  0  0  0  0  0
   27.3472  -18.7860  -10.2042 O   0  0  0  0  0  0  0  0  0  0  0  0
   25.7644  -19.2394   -8.6529 O   0  0  0  0  0  0  0  0  0  0  0  0
  2 12  2  0
  2  1  1  0
  3  2  1  0
  4  5  1  0
  4  3  2  0
  5 11  2  0
  6  7  1  0
  6  5  1  0
  7  9  1  0
  7  8  1  6
  9 17  1  0
  9 10  2  0
 11 12  1  0
 14 13  1  1
 15 14  1  0
 16 14  1  0
 16 18  1  0
 16 17  1  6
 18 19  2  0
 20 21  1  0
 20 18  1  0
 22 21  1  0
 23 24  1  0
 23 22  1  0
 24 20  1  0
 24 25  1  6
 25 26  1  0
 27 25  2  0
M  END
$$$$
