YTP.pdb
     RDKit          3D

 27 28  0  0  1  0  0  0  0  0999 V2000
   28.1231  -18.6092  -13.6504 O   0  0  0  0  0  0  0  0  0  0  0  0
   27.7594  -17.7014  -14.6146 C   0  0  0  0  0  0  0  0  0  0  0  0
   28.5737  -17.4893  -15.6942 C   0  0  0  0  0  0  0  0  0  0  0  0
   28.2349  -16.5739  -16.6923 C   0  0  0  0  0  0  0  0  0  0  0  0
   27.0449  -15.9000  -16.5337 C   0  0  0  0  0  0  0  0  0  0  0  0
   26.6181  -14.8997  -17.5707 C   0  0  0  0  0  0  0  0  0  0  0  0
   25.8357  -15.7005  -18.6072 C   0  0  2  0  0  0  0  0  0  0  0  0
   26.6817  -16.5845  -19.3477 N   0  0  0  0  0  0  0  0  0  0  0  0
   25.0924  -14.7577  -19.4971 C   0  0  0  0  0  0  0  0  0  0  0  0
   25.6492  -14.4033  -20.5747 O   0  0  0  0  0  0  0  0  0  0  0  0
   26.2125  -16.1009  -15.4532 C   0  0  0  0  0  0  0  0  0  0  0  0
   26.5893  -17.0088  -14.5016 C   0  0  0  0  0  0  0  0  0  0  0  0
   21.0815  -13.4434  -21.7060 C   0  0  0  0  0  0  0  0  0  0  0  0
   21.8987  -14.1808  -20.6478 C   0  0  1  0  0  0  0  0  0  0  0  0
   22.4764  -15.2532  -21.4588 O   0  0  0  0  0  0  0  0  0  0  0  0
   23.0427  -13.4090  -20.1648 C   0  0  2  0  0  0  0  0  0  0  0  0
   23.8236  -14.2542  -19.1979 N   0  0  0  0  0  0  0  0  0  0  0  0
   22.9245  -12.0727  -19.6362 C   0  0  0  0  0  0  0  0  0  0  0  0
   22.1952  -12.0942  -18.4809 O   0  0  0  0  0  0  0  0  0  0  0  0
   23.3231  -10.7764  -19.9291 N   0  0  0  0  0  0  0  0  0  0  0  0
   24.6233  -10.5479  -20.7641 C   0  0  0  0  0  0  0  0  0  0  0  0
   24.0523   -9.5833  -21.8093 C   0  0  0  0  0  0  0  0  0  0  0  0
   22.7602   -8.9931  -21.1824 C   0  0  0  0  0  0  0  0  0  0  0  0
   23.0242   -9.4021  -19.7451 C   0  0  1  0  0  0  0  0  0  0  0  0
   22.2247   -8.8655  -18.7041 C   0  0  0  0  0  0  0  0  0  0  0  0
   22.5787   -7.6310  -18.1350 O   0  0  0  0  0  0  0  0  0  0  0  0
   21.1767   -9.4043  -18.2199 O   0  0  0  0  0  0  0  0  0  0  0  0
  2 12  2  0
  2  1  1  0
  3  2  1  0
  4  5  1  0
  4  3  2  0
  5 11  2  0
  6  7  1  0
  6  5  1  0
  7  9  1  0
  7  8  1  6
  9 17  1  0
  9 10  2  0
 11 12  1  0
 14 13  1  6
 15 14  1  0
 16 14  1  0
 16 18  1  0
 16 17  1  1
 18 19  2  0
 20 21  1  0
 20 18  1  0
 22 21  1  0
 23 24  1  0
 23 22  1  0
 24 20  1  0
 24 25  1  1
 25 26  1  0
 27 25  2  0
M  END
$$$$
