YTP.pdb
     RDKit          3D

 27 28  0  0  1  0  0  0  0  0999 V2000
   18.2033  -23.2654  -10.5013 O   0  0  0  0  0  0  0  0  0  0  0  0
   19.2946  -22.4550  -10.6967 C   0  0  0  0  0  0  0  0  0  0  0  0
   20.1378  -22.6877  -11.7496 C   0  0  0  0  0  0  0  0  0  0  0  0
   21.2563  -21.8840  -11.9774 C   0  0  0  0  0  0  0  0  0  0  0  0
   21.4646  -20.8508  -11.0918 C   0  0  0  0  0  0  0  0  0  0  0  0
   22.6499  -19.9459  -11.2773 C   0  0  0  0  0  0  0  0  0  0  0  0
   23.8638  -20.7851  -10.8901 C   0  0  2  0  0  0  0  0  0  0  0  0
   24.0501  -20.8310   -9.4727 N   0  0  0  0  0  0  0  0  0  0  0  0
   25.0702  -20.2594  -11.5983 C   0  0  0  0  0  0  0  0  0  0  0  0
   25.7150  -19.3231  -11.0465 O   0  0  0  0  0  0  0  0  0  0  0  0
   20.6261  -20.6016  -10.0261 C   0  0  0  0  0  0  0  0  0  0  0  0
   19.5433  -21.4180   -9.8455 C   0  0  0  0  0  0  0  0  0  0  0  0
   28.0593  -21.5054  -11.8260 C   0  0  0  0  0  0  0  0  0  0  0  0
   27.8446  -21.1582  -13.2974 C   0  0  1  0  0  0  0  0  0  0  0  0
   27.3545  -22.4408  -13.8036 O   0  0  0  0  0  0  0  0  0  0  0  0
   26.7453  -20.2183  -13.5111 C   0  0  2  0  0  0  0  0  0  0  0  0
   25.5152  -20.7488  -12.8293 N   0  0  0  0  0  0  0  0  0  0  0  0
   26.3837  -19.7118  -14.8117 C   0  0  0  0  0  0  0  0  0  0  0  0
   25.4838  -20.5530  -15.4029 O   0  0  0  0  0  0  0  0  0  0  0  0
   26.6579  -18.6377  -15.6462 N   0  0  0  0  0  0  0  0  0  0  0  0
   26.9127  -17.2298  -15.0196 C   0  0  0  0  0  0  0  0  0  0  0  0
   28.2178  -16.8923  -15.7489 C   0  0  0  0  0  0  0  0  0  0  0  0
   28.2563  -17.8120  -16.9993 C   0  0  0  0  0  0  0  0  0  0  0  0
   26.7959  -18.2242  -16.9960 C   0  0  1  0  0  0  0  0  0  0  0  0
   26.2524  -18.8932  -18.1219 C   0  0  0  0  0  0  0  0  0  0  0  0
   25.8648  -18.1425  -19.2442 O   0  0  0  0  0  0  0  0  0  0  0  0
   26.0802  -20.1512  -18.2262 O   0  0  0  0  0  0  0  0  0  0  0  0
  2 12  2  0
  2  1  1  0
  3  2  1  0
  4  5  1  0
  4  3  2  0
  5 11  2  0
  6  7  1  0
  6  5  1  0
  7  9  1  0
  7  8  1  1
  9 17  1  0
  9 10  2  0
 11 12  1  0
 14 13  1  1
 15 14  1  0
 16 14  1  0
 16 18  1  0
 16 17  1  6
 18 19  2  0
 20 21  1  0
 20 18  1  0
 22 21  1  0
 23 24  1  0
 23 22  1  0
 24 20  1  0
 24 25  1  6
 25 26  1  0
 27 25  2  0
M  END
$$$$
