YTP.pdb
     RDKit          3D

 27 28  0  0  1  0  0  0  0  0999 V2000
   27.1166  -20.1794   -5.7397 O   0  0  0  0  0  0  0  0  0  0  0  0
   26.6540  -20.0881   -7.0295 C   0  0  0  0  0  0  0  0  0  0  0  0
   25.8171  -21.0515   -7.5243 C   0  0  0  0  0  0  0  0  0  0  0  0
   25.3286  -20.9900   -8.8307 C   0  0  0  0  0  0  0  0  0  0  0  0
   25.7312  -19.9146   -9.5901 C   0  0  0  0  0  0  0  0  0  0  0  0
   25.2434  -19.7853  -11.0055 C   0  0  0  0  0  0  0  0  0  0  0  0
   25.5807  -21.1154  -11.6726 C   0  0  2  0  0  0  0  0  0  0  0  0
   26.9925  -21.3030  -11.8040 N   0  0  0  0  0  0  0  0  0  0  0  0
   24.8785  -21.1963  -12.9892 C   0  0  0  0  0  0  0  0  0  0  0  0
   25.4046  -20.6043  -13.9740 O   0  0  0  0  0  0  0  0  0  0  0  0
   26.5734  -18.9351   -9.1084 C   0  0  0  0  0  0  0  0  0  0  0  0
   27.0251  -19.0407   -7.8214 C   0  0  0  0  0  0  0  0  0  0  0  0
   24.5849  -24.0320  -14.7890 C   0  0  0  0  0  0  0  0  0  0  0  0
   23.1676  -23.4789  -14.9200 C   0  0  1  0  0  0  0  0  0  0  0  0
   22.4960  -24.2143  -13.8478 O   0  0  0  0  0  0  0  0  0  0  0  0
   23.0633  -22.0708  -14.5406 C   0  0  2  0  0  0  0  0  0  0  0  0
   23.6799  -21.8885  -13.1820 N   0  0  0  0  0  0  0  0  0  0  0  0
   21.8295  -21.3275  -14.6035 C   0  0  0  0  0  0  0  0  0  0  0  0
   21.0795  -21.5793  -13.4895 O   0  0  0  0  0  0  0  0  0  0  0  0
   21.1696  -20.4346  -15.4356 N   0  0  0  0  0  0  0  0  0  0  0  0
   21.9966  -19.3604  -16.2115 C   0  0  0  0  0  0  0  0  0  0  0  0
   21.4210  -19.6019  -17.6114 C   0  0  0  0  0  0  0  0  0  0  0  0
   20.0655  -20.3274  -17.3945 C   0  0  0  0  0  0  0  0  0  0  0  0
   19.9018  -20.0194  -15.9176 C   0  0  1  0  0  0  0  0  0  0  0  0
   18.6582  -20.2659  -15.2824 C   0  0  0  0  0  0  0  0  0  0  0  0
   17.6885  -19.2499  -15.2566 O   0  0  0  0  0  0  0  0  0  0  0  0
   18.3156  -21.3559  -14.7191 O   0  0  0  0  0  0  0  0  0  0  0  0
  2 12  2  0
  2  1  1  0
  3  2  1  0
  4  5  1  0
  4  3  2  0
  5 11  2  0
  6  7  1  0
  6  5  1  0
  7  9  1  0
  7  8  1  6
  9 17  1  0
  9 10  2  0
 11 12  1  0
 14 13  1  1
 15 14  1  0
 16 14  1  0
 16 18  1  0
 16 17  1  1
 18 19  2  0
 20 21  1  0
 20 18  1  0
 22 21  1  0
 23 24  1  0
 23 22  1  0
 24 20  1  0
 24 25  1  1
 25 26  1  0
 27 25  2  0
M  END
$$$$
