YTP.pdb
     RDKit          3D

 27 28  0  0  1  0  0  0  0  0999 V2000
   16.6823  -23.2135    2.5080 O   0  0  0  0  0  0  0  0  0  0  0  0
   16.9038  -21.8877    2.7893 C   0  0  0  0  0  0  0  0  0  0  0  0
   16.6280  -20.9346    1.8464 C   0  0  0  0  0  0  0  0  0  0  0  0
   16.8416  -19.5783    2.0987 C   0  0  0  0  0  0  0  0  0  0  0  0
   17.3415  -19.2526    3.3394 C   0  0  0  0  0  0  0  0  0  0  0  0
   17.5956  -17.8109    3.6787 C   0  0  0  0  0  0  0  0  0  0  0  0
   16.3391  -17.3385    4.4039 C   0  0  2  0  0  0  0  0  0  0  0  0
   15.2528  -17.1180    3.4999 N   0  0  0  0  0  0  0  0  0  0  0  0
   16.6626  -16.1170    5.2016 C   0  0  0  0  0  0  0  0  0  0  0  0
   16.7187  -15.0126    4.5900 O   0  0  0  0  0  0  0  0  0  0  0  0
   17.6250  -20.1990    4.3011 C   0  0  0  0  0  0  0  0  0  0  0  0
   17.3984  -21.5153    4.0052 C   0  0  0  0  0  0  0  0  0  0  0  0
   14.7775  -14.9734    8.1788 C   0  0  0  0  0  0  0  0  0  0  0  0
   16.2585  -14.8976    8.5428 C   0  0  1  0  0  0  0  0  0  0  0  0
   16.4502  -16.2154    9.1494 O   0  0  0  0  0  0  0  0  0  0  0  0
   17.1371  -14.8838    7.3743 C   0  0  2  0  0  0  0  0  0  0  0  0
   16.9034  -16.1370    6.5780 N   0  0  0  0  0  0  0  0  0  0  0  0
   18.5547  -14.6340    7.4576 C   0  0  0  0  0  0  0  0  0  0  0  0
   19.1976  -15.7553    7.9008 O   0  0  0  0  0  0  0  0  0  0  0  0
   19.4686  -13.6165    7.2238 N   0  0  0  0  0  0  0  0  0  0  0  0
   19.2152  -12.6178    6.0498 C   0  0  0  0  0  0  0  0  0  0  0  0
   19.4097  -11.3087    6.8228 C   0  0  0  0  0  0  0  0  0  0  0  0
   20.2219  -11.6812    8.0926 C   0  0  0  0  0  0  0  0  0  0  0  0
   20.7004  -13.0472    7.6368 C   0  0  1  0  0  0  0  0  0  0  0  0
   21.7126  -13.7173    8.3696 C   0  0  0  0  0  0  0  0  0  0  0  0
   21.3504  -14.5119    9.4699 O   0  0  0  0  0  0  0  0  0  0  0  0
   22.9610  -13.6768    8.1186 O   0  0  0  0  0  0  0  0  0  0  0  0
  2 12  2  0
  2  1  1  0
  3  2  1  0
  4  5  1  0
  4  3  2  0
  5 11  2  0
  6  7  1  0
  6  5  1  0
  7  9  1  0
  7  8  1  6
  9 17  1  0
  9 10  2  0
 11 12  1  0
 14 13  1  6
 15 14  1  0
 16 14  1  0
 16 18  1  0
 16 17  1  1
 18 19  2  0
 20 21  1  0
 20 18  1  0
 22 21  1  0
 23 24  1  0
 23 22  1  0
 24 20  1  0
 24 25  1  1
 25 26  1  0
 27 25  2  0
M  END
$$$$
