YTP.pdb
     RDKit          3D

 27 28  0  0  1  0  0  0  0  0999 V2000
   21.6425  -20.0732  -13.6438 O   0  0  0  0  0  0  0  0  0  0  0  0
   21.0663  -18.9831  -14.2484 C   0  0  0  0  0  0  0  0  0  0  0  0
   20.8057  -17.8556  -13.5173 C   0  0  0  0  0  0  0  0  0  0  0  0
   20.2206  -16.7298  -14.0998 C   0  0  0  0  0  0  0  0  0  0  0  0
   19.9215  -16.8139  -15.4410 C   0  0  0  0  0  0  0  0  0  0  0  0
   19.2899  -15.6386  -16.1325 C   0  0  0  0  0  0  0  0  0  0  0  0
   17.8071  -15.7114  -15.7806 C   0  0  2  0  0  0  0  0  0  0  0  0
   17.1947  -16.8972  -16.2947 N   0  0  0  0  0  0  0  0  0  0  0  0
   17.1263  -14.4724  -16.2649 C   0  0  0  0  0  0  0  0  0  0  0  0
   16.6822  -14.4693  -17.4481 O   0  0  0  0  0  0  0  0  0  0  0  0
   20.1768  -17.9410  -16.1927 C   0  0  0  0  0  0  0  0  0  0  0  0
   20.7514  -19.0183  -15.5755 C   0  0  0  0  0  0  0  0  0  0  0  0
   14.7486  -12.0794  -13.8356 C   0  0  0  0  0  0  0  0  0  0  0  0
   14.7789  -12.3068  -15.3453 C   0  0  1  0  0  0  0  0  0  0  0  0
   14.0379  -11.1317  -15.8052 O   0  0  0  0  0  0  0  0  0  0  0  0
   16.1154  -12.1646  -15.9206 C   0  0  2  0  0  0  0  0  0  0  0  0
   16.9585  -13.3284  -15.4801 N   0  0  0  0  0  0  0  0  0  0  0  0
   16.8915  -10.9536  -15.8199 C   0  0  0  0  0  0  0  0  0  0  0  0
   17.3565  -10.8059  -14.5436 O   0  0  0  0  0  0  0  0  0  0  0  0
   17.3179   -9.8973  -16.6122 N   0  0  0  0  0  0  0  0  0  0  0  0
   17.3102  -10.0570  -18.1660 C   0  0  0  0  0  0  0  0  0  0  0  0
   16.5665   -8.7647  -18.5208 C   0  0  0  0  0  0  0  0  0  0  0  0
   16.7152   -7.8356  -17.2857 C   0  0  0  0  0  0  0  0  0  0  0  0
   17.8468   -8.5813  -16.6031 C   0  0  1  0  0  0  0  0  0  0  0  0
   18.5329   -7.9770  -15.5191 C   0  0  0  0  0  0  0  0  0  0  0  0
   17.9573   -8.0127  -14.2383 O   0  0  0  0  0  0  0  0  0  0  0  0
   19.6616   -7.3905  -15.5894 O   0  0  0  0  0  0  0  0  0  0  0  0
  2 12  2  0
  2  1  1  0
  3  2  1  0
  4  5  1  0
  4  3  2  0
  5 11  2  0
  6  7  1  0
  6  5  1  0
  7  9  1  0
  7  8  1  6
  9 17  1  0
  9 10  2  0
 11 12  1  0
 14 13  1  1
 15 14  1  0
 16 14  1  0
 16 18  1  0
 16 17  1  1
 18 19  2  0
 20 21  1  0
 20 18  1  0
 22 21  1  0
 23 24  1  0
 23 22  1  0
 24 20  1  0
 24 25  1  1
 25 26  1  0
 27 25  2  0
M  END
$$$$
