YTP.pdb
     RDKit          3D

 27 28  0  0  1  0  0  0  0  0999 V2000
   21.4442  -21.3054   -8.4063 O   0  0  0  0  0  0  0  0  0  0  0  0
   22.5466  -20.9253   -9.1318 C   0  0  0  0  0  0  0  0  0  0  0  0
   22.5014  -20.9392  -10.4998 C   0  0  0  0  0  0  0  0  0  0  0  0
   23.6036  -20.5596  -11.2680 C   0  0  0  0  0  0  0  0  0  0  0  0
   24.7315  -20.1726  -10.5801 C   0  0  0  0  0  0  0  0  0  0  0  0
   25.9550  -19.7514  -11.3442 C   0  0  0  0  0  0  0  0  0  0  0  0
   26.4986  -21.0302  -11.9741 C   0  0  2  0  0  0  0  0  0  0  0  0
   27.2441  -21.8114  -11.0362 N   0  0  0  0  0  0  0  0  0  0  0  0
   27.3076  -20.6779  -13.1802 C   0  0  0  0  0  0  0  0  0  0  0  0
   28.4991  -20.2978  -12.9990 O   0  0  0  0  0  0  0  0  0  0  0  0
   24.7949  -20.1524   -9.2030 C   0  0  0  0  0  0  0  0  0  0  0  0
   23.6881  -20.5337   -8.4952 C   0  0  0  0  0  0  0  0  0  0  0  0
   27.1763  -22.7687  -16.6862 C   0  0  0  0  0  0  0  0  0  0  0  0
   28.2334  -21.8316  -16.1066 C   0  0  1  0  0  0  0  0  0  0  0  0
   29.0209  -21.5460  -17.3064 O   0  0  0  0  0  0  0  0  0  0  0  0
   27.6895  -20.5398  -15.6905 C   0  0  2  0  0  0  0  0  0  0  0  0
   26.8148  -20.7481  -14.4860 N   0  0  0  0  0  0  0  0  0  0  0  0
   27.0348  -19.6314  -16.5988 C   0  0  0  0  0  0  0  0  0  0  0  0
   25.7403  -20.0231  -16.7931 O   0  0  0  0  0  0  0  0  0  0  0  0
   27.3050  -18.4840  -17.3307 N   0  0  0  0  0  0  0  0  0  0  0  0
   28.1756  -17.3568  -16.6893 C   0  0  0  0  0  0  0  0  0  0  0  0
   29.1747  -17.1650  -17.8357 C   0  0  0  0  0  0  0  0  0  0  0  0
   28.4898  -17.7522  -19.0995 C   0  0  0  0  0  0  0  0  0  0  0  0
   27.0737  -17.8102  -18.5572 C   0  0  1  0  0  0  0  0  0  0  0  0
   25.9927  -18.0568  -19.4412 C   0  0  0  0  0  0  0  0  0  0  0  0
   25.4723  -16.9956  -20.2004 O   0  0  0  0  0  0  0  0  0  0  0  0
   25.4300  -19.1842  -19.6294 O   0  0  0  0  0  0  0  0  0  0  0  0
  2 12  2  0
  2  1  1  0
  3  2  1  0
  4  5  1  0
  4  3  2  0
  5 11  2  0
  6  7  1  0
  6  5  1  0
  7  9  1  0
  7  8  1  1
  9 17  1  0
  9 10  2  0
 11 12  1  0
 14 13  1  6
 15 14  1  0
 16 14  1  0
 16 18  1  0
 16 17  1  1
 18 19  2  0
 20 21  1  0
 20 18  1  0
 22 21  1  0
 23 24  1  0
 23 22  1  0
 24 20  1  0
 24 25  1  6
 25 26  1  0
 27 25  2  0
M  END
$$$$
