YTP.pdb
     RDKit          3D

 27 28  0  0  1  0  0  0  0  0999 V2000
   18.5930  -14.5353  -18.0186 O   0  0  0  0  0  0  0  0  0  0  0  0
   19.3046  -15.4899  -17.3343 C   0  0  0  0  0  0  0  0  0  0  0  0
   20.6583  -15.3547  -17.1836 C   0  0  0  0  0  0  0  0  0  0  0  0
   21.4123  -16.3063  -16.4944 C   0  0  0  0  0  0  0  0  0  0  0  0
   20.7254  -17.3815  -15.9773 C   0  0  0  0  0  0  0  0  0  0  0  0
   21.4746  -18.4439  -15.2236 C   0  0  0  0  0  0  0  0  0  0  0  0
   22.4199  -19.0725  -16.2430 C   0  0  2  0  0  0  0  0  0  0  0  0
   21.7240  -19.9118  -17.1687 N   0  0  0  0  0  0  0  0  0  0  0  0
   23.5015  -19.8087  -15.5208 C   0  0  0  0  0  0  0  0  0  0  0  0
   23.2296  -20.9556  -15.0653 O   0  0  0  0  0  0  0  0  0  0  0  0
   19.3626  -17.5339  -16.1194 C   0  0  0  0  0  0  0  0  0  0  0  0
   18.6684  -16.5740  -16.8035 C   0  0  0  0  0  0  0  0  0  0  0  0
   27.0757  -20.0835  -16.7319 C   0  0  0  0  0  0  0  0  0  0  0  0
   27.1330  -19.8389  -15.2258 C   0  0  1  0  0  0  0  0  0  0  0  0
   27.3562  -18.3929  -15.2004 O   0  0  0  0  0  0  0  0  0  0  0  0
   25.8456  -20.0382  -14.5623 C   0  0  2  0  0  0  0  0  0  0  0  0
   24.7865  -19.2948  -15.3271 N   0  0  0  0  0  0  0  0  0  0  0  0
   25.6460  -19.8256  -13.1502 C   0  0  0  0  0  0  0  0  0  0  0  0
   25.5084  -18.4898  -12.8975 O   0  0  0  0  0  0  0  0  0  0  0  0
   25.5442  -20.5508  -11.9717 N   0  0  0  0  0  0  0  0  0  0  0  0
   24.6510  -21.8318  -11.9385 C   0  0  0  0  0  0  0  0  0  0  0  0
   25.6663  -22.7974  -11.3173 C   0  0  0  0  0  0  0  0  0  0  0  0
   26.7299  -21.9060  -10.6207 C   0  0  0  0  0  0  0  0  0  0  0  0
   25.9379  -20.6116  -10.6104 C   0  0  1  0  0  0  0  0  0  0  0  0
   26.3940  -19.5153   -9.8353 C   0  0  0  0  0  0  0  0  0  0  0  0
   27.0154  -18.4323  -10.4788 O   0  0  0  0  0  0  0  0  0  0  0  0
   26.2874  -19.4050   -8.5705 O   0  0  0  0  0  0  0  0  0  0  0  0
  2 12  2  0
  2  1  1  0
  3  2  1  0
  4  5  1  0
  4  3  2  0
  5 11  2  0
  6  7  1  0
  6  5  1  0
  7  9  1  0
  7  8  1  6
  9 17  1  0
  9 10  2  0
 11 12  1  0
 14 13  1  6
 15 14  1  0
 16 14  1  0
 16 18  1  0
 16 17  1  6
 18 19  2  0
 20 21  1  0
 20 18  1  0
 22 21  1  0
 23 24  1  0
 23 22  1  0
 24 20  1  0
 24 25  1  6
 25 26  1  0
 27 25  2  0
M  END
$$$$
