NKT.pdb
     RDKit          3D

 25 24  0  0  1  0  0  0  0  0999 V2000
   24.7100  -14.5015  -16.5484 N   0  0  0  0  0  0  0  0  0  0  0  0
   25.0926  -13.2950  -15.9227 C   0  0  0  0  0  0  0  0  0  0  0  0
   26.1409  -13.2245  -15.2590 O   0  0  0  0  0  0  0  0  0  0  0  0
   24.2338  -12.0824  -16.0526 C   0  0  0  0  0  0  0  0  0  0  0  0
   22.9876  -12.3859  -16.8779 C   0  0  2  0  0  0  0  0  0  0  0  0
   23.3602  -12.6761  -18.2433 N   0  0  0  0  0  0  0  0  0  0  0  0
   22.1683  -11.1259  -16.8706 C   0  0  0  0  0  0  0  0  0  0  0  0
   22.4538  -10.2455  -17.7171 O   0  0  0  0  0  0  0  0  0  0  0  0
   21.1123  -10.9031  -15.9680 N   0  0  0  0  0  0  0  0  0  0  0  0
   20.2308   -9.7001  -16.0664 C   0  0  1  0  0  0  0  0  0  0  0  0
   18.8342  -10.1523  -15.7677 C   0  0  0  0  0  0  0  0  0  0  0  0
   17.8044   -9.0836  -15.8107 C   0  0  0  0  0  0  0  0  0  0  0  0
   16.4001   -9.6385  -15.5793 C   0  0  0  0  0  0  0  0  0  0  0  0
   15.3603   -8.5567  -15.6191 C   0  0  0  0  0  0  0  0  0  0  0  0
   14.0831   -9.1065  -15.1485 N   0  0  0  0  0  0  0  0  0  0  0  0
   20.7659   -8.6586  -15.1395 C   0  0  0  0  0  0  0  0  0  0  0  0
   21.0120   -9.0064  -13.9614 O   0  0  0  0  0  0  0  0  0  0  0  0
   23.7033   -6.6488  -15.8873 C   0  0  0  0  0  0  0  0  0  0  0  0
   22.6719   -5.5729  -15.5816 C   0  0  1  0  0  0  0  0  0  0  0  0
   22.2574   -5.1267  -16.8723 O   0  0  0  0  0  0  0  0  0  0  0  0
   21.4973   -6.1997  -14.9013 C   0  0  2  0  0  0  0  0  0  0  0  0
   20.9901   -7.3464  -15.5636 N   0  0  0  0  0  0  0  0  0  0  0  0
   20.5278   -5.2435  -14.3156 C   0  0  0  0  0  0  0  0  0  0  0  0
   20.8221   -4.2435  -13.4079 O   0  0  0  0  0  0  0  0  0  0  0  0
   19.2973   -5.2939  -14.6469 O   0  0  0  0  0  0  0  0  0  0  0  0
  1  2  1  0
  2  3  2  0
  4  2  1  0
  4  5  1  0
  5  7  1  0
  5  6  1  6
  7  8  2  0
  9 10  1  0
  9  7  1  0
 10 11  1  1
 11 12  1  0
 13 12  1  0
 13 14  1  0
 14 15  1  0
 16 17  2  0
 16 10  1  0
 19 18  1  6
 19 21  1  0
 20 19  1  0
 21 22  1  6
 21 23  1  0
 22 16  1  0
 23 24  1  0
 25 23  2  0
M  END
$$$$
