NKT.pdb
     RDKit          3D

 25 24  0  0  1  0  0  0  0  0999 V2000
   17.1581  -15.5029  -14.6018 N   0  0  0  0  0  0  0  0  0  0  0  0
   18.0430  -14.4205  -14.7990 C   0  0  0  0  0  0  0  0  0  0  0  0
   19.2738  -14.5846  -14.7474 O   0  0  0  0  0  0  0  0  0  0  0  0
   17.5042  -13.0569  -15.0728 C   0  0  0  0  0  0  0  0  0  0  0  0
   15.9810  -13.0496  -14.9948 C   0  0  2  0  0  0  0  0  0  0  0  0
   15.4252  -13.6875  -16.1659 N   0  0  0  0  0  0  0  0  0  0  0  0
   15.5720  -11.6034  -15.0071 C   0  0  0  0  0  0  0  0  0  0  0  0
   15.6361  -10.9936  -16.1013 O   0  0  0  0  0  0  0  0  0  0  0  0
   15.1268  -10.9226  -13.8591 N   0  0  0  0  0  0  0  0  0  0  0  0
   14.5364   -9.5517  -13.9341 C   0  0  1  0  0  0  0  0  0  0  0  0
   13.3577   -9.5289  -13.0097 C   0  0  0  0  0  0  0  0  0  0  0  0
   12.6341   -8.2340  -12.9450 C   0  0  0  0  0  0  0  0  0  0  0  0
   11.4828   -8.2764  -11.9419 C   0  0  0  0  0  0  0  0  0  0  0  0
   10.7319   -6.9774  -11.9007 C   0  0  0  0  0  0  0  0  0  0  0  0
    9.7519   -7.0285  -10.8089 N   0  0  0  0  0  0  0  0  0  0  0  0
   15.6109   -8.5676  -13.6067 C   0  0  0  0  0  0  0  0  0  0  0  0
   16.2526   -8.7460  -12.5456 O   0  0  0  0  0  0  0  0  0  0  0  0
   18.5188   -7.8213  -15.5379 C   0  0  0  0  0  0  0  0  0  0  0  0
   17.8573   -6.4525  -15.4776 C   0  0  1  0  0  0  0  0  0  0  0  0
   17.1597   -6.3601  -16.7192 O   0  0  0  0  0  0  0  0  0  0  0  0
   16.8515   -6.4430  -14.3714 C   0  0  2  0  0  0  0  0  0  0  0  0
   15.8982   -7.4900  -14.4482 N   0  0  0  0  0  0  0  0  0  0  0  0
   16.3825   -5.0979  -13.9616 C   0  0  0  0  0  0  0  0  0  0  0  0
   17.1851   -4.0455  -13.5630 O   0  0  0  0  0  0  0  0  0  0  0  0
   15.1367   -4.8248  -13.9638 O   0  0  0  0  0  0  0  0  0  0  0  0
  1  2  1  0
  2  3  2  0
  4  2  1  0
  4  5  1  0
  5  7  1  0
  5  6  1  6
  7  8  2  0
  9 10  1  0
  9  7  1  0
 10 11  1  1
 11 12  1  0
 13 12  1  0
 13 14  1  0
 14 15  1  0
 16 17  2  0
 16 10  1  0
 19 18  1  6
 19 21  1  0
 20 19  1  0
 21 22  1  6
 21 23  1  0
 22 16  1  0
 23 24  1  0
 25 23  2  0
M  END
$$$$
