NKT.pdb
     RDKit          3D

 25 24  0  0  1  0  0  0  0  0999 V2000
   27.8885  -34.4112   -5.4632 N   0  0  0  0  0  0  0  0  0  0  0  0
   29.0959  -34.3003   -6.1867 C   0  0  0  0  0  0  0  0  0  0  0  0
   29.1230  -33.7567   -7.3040 O   0  0  0  0  0  0  0  0  0  0  0  0
   30.3620  -34.8403   -5.6121 C   0  0  0  0  0  0  0  0  0  0  0  0
   30.1441  -35.3310   -4.1846 C   0  0  2  0  0  0  0  0  0  0  0  0
   29.8443  -34.2129   -3.3201 N   0  0  0  0  0  0  0  0  0  0  0  0
   31.4524  -35.9275   -3.7469 C   0  0  0  0  0  0  0  0  0  0  0  0
   31.9173  -36.8687   -4.4334 O   0  0  0  0  0  0  0  0  0  0  0  0
   32.1617  -35.4763   -2.6188 N   0  0  0  0  0  0  0  0  0  0  0  0
   33.4703  -36.0766   -2.2174 C   0  0  1  0  0  0  0  0  0  0  0  0
   34.4005  -34.9421   -1.9145 C   0  0  0  0  0  0  0  0  0  0  0  0
   35.7549  -35.3440   -1.4579 C   0  0  0  0  0  0  0  0  0  0  0  0
   36.6752  -34.1379   -1.2793 C   0  0  0  0  0  0  0  0  0  0  0  0
   38.0608  -34.5497   -0.8747 C   0  0  0  0  0  0  0  0  0  0  0  0
   38.9295  -33.3663   -0.8794 N   0  0  0  0  0  0  0  0  0  0  0  0
   33.2208  -37.0066   -1.0759 C   0  0  0  0  0  0  0  0  0  0  0  0
   32.3680  -36.6608   -0.2259 O   0  0  0  0  0  0  0  0  0  0  0  0
   32.6234  -40.7192   -1.5004 C   0  0  0  0  0  0  0  0  0  0  0  0
   33.8060  -40.6266   -0.5476 C   0  0  1  0  0  0  0  0  0  0  0  0
   34.9381  -40.8150   -1.3959 O   0  0  0  0  0  0  0  0  0  0  0  0
   33.8695  -39.2455    0.0215 C   0  0  2  0  0  0  0  0  0  0  0  0
   33.9049  -38.2189   -0.9561 N   0  0  0  0  0  0  0  0  0  0  0  0
   34.7285  -39.1001    1.2208 C   0  0  0  0  0  0  0  0  0  0  0  0
   34.7282  -39.9321    2.3246 O   0  0  0  0  0  0  0  0  0  0  0  0
   35.5693  -38.1442    1.2954 O   0  0  0  0  0  0  0  0  0  0  0  0
  1  2  1  0
  2  3  2  0
  4  2  1  0
  4  5  1  0
  5  7  1  0
  5  6  1  1
  7  8  2  0
  9 10  1  0
  9  7  1  0
 10 11  1  1
 11 12  1  0
 13 12  1  0
 13 14  1  0
 14 15  1  0
 16 17  2  0
 16 10  1  0
 19 18  1  6
 19 21  1  0
 20 19  1  0
 21 22  1  6
 21 23  1  0
 22 16  1  0
 23 24  1  0
 25 23  2  0
M  END
$$$$
