NKT.pdb
     RDKit          3D

 25 24  0  0  1  0  0  0  0  0999 V2000
   25.3861  -13.1880  -18.5093 N   0  0  0  0  0  0  0  0  0  0  0  0
   25.2219  -12.0117  -19.2727 C   0  0  0  0  0  0  0  0  0  0  0  0
   25.8246  -11.8597  -20.3489 O   0  0  0  0  0  0  0  0  0  0  0  0
   24.3159  -10.9295  -18.7900 C   0  0  0  0  0  0  0  0  0  0  0  0
   23.7804  -11.2508  -17.3985 C   0  0  2  0  0  0  0  0  0  0  0  0
   22.9464  -12.4293  -17.4521 N   0  0  0  0  0  0  0  0  0  0  0  0
   22.9206  -10.0825  -17.0051 C   0  0  0  0  0  0  0  0  0  0  0  0
   23.0586   -9.0183  -17.6545 O   0  0  0  0  0  0  0  0  0  0  0  0
   21.9836  -10.1384  -15.9572 N   0  0  0  0  0  0  0  0  0  0  0  0
   21.0095   -9.0321  -15.7097 C   0  0  1  0  0  0  0  0  0  0  0  0
   19.7926   -9.6476  -15.0897 C   0  0  0  0  0  0  0  0  0  0  0  0
   18.9881  -10.5031  -15.9983 C   0  0  0  0  0  0  0  0  0  0  0  0
   17.7552  -11.0723  -15.2988 C   0  0  0  0  0  0  0  0  0  0  0  0
   17.0020  -12.0226  -16.1835 C   0  0  0  0  0  0  0  0  0  0  0  0
   15.9354  -12.6582  -15.4002 N   0  0  0  0  0  0  0  0  0  0  0  0
   21.6876   -7.9988  -14.8714 C   0  0  0  0  0  0  0  0  0  0  0  0
   22.3343   -8.3977  -13.8754 O   0  0  0  0  0  0  0  0  0  0  0  0
   24.2401   -5.7140  -15.7368 C   0  0  0  0  0  0  0  0  0  0  0  0
   23.1472   -4.7419  -15.3178 C   0  0  1  0  0  0  0  0  0  0  0  0
   22.5676   -4.3322  -16.5559 O   0  0  0  0  0  0  0  0  0  0  0  0
   22.1095   -5.4797  -14.5342 C   0  0  2  0  0  0  0  0  0  0  0  0
   21.6119   -6.6388  -15.1821 N   0  0  0  0  0  0  0  0  0  0  0  0
   21.1493   -4.6211  -13.8005 C   0  0  0  0  0  0  0  0  0  0  0  0
   19.7714   -4.7147  -13.8553 O   0  0  0  0  0  0  0  0  0  0  0  0
   21.5737   -3.7000  -13.0273 O   0  0  0  0  0  0  0  0  0  0  0  0
  1  2  1  0
  2  3  2  0
  4  2  1  0
  4  5  1  0
  5  7  1  0
  5  6  1  6
  7  8  2  0
  9 10  1  0
  9  7  1  0
 10 11  1  1
 11 12  1  0
 13 12  1  0
 13 14  1  0
 14 15  1  0
 16 17  2  0
 16 10  1  0
 19 18  1  6
 19 21  1  0
 20 19  1  0
 21 22  1  6
 21 23  1  0
 22 16  1  0
 23 24  1  0
 25 23  2  0
M  END
$$$$
