NKT.pdb
     RDKit          3D

 25 24  0  0  1  0  0  0  0  0999 V2000
   28.4465  -18.3563  -15.1193 N   0  0  0  0  0  0  0  0  0  0  0  0
   27.2958  -18.3289  -15.9370 C   0  0  0  0  0  0  0  0  0  0  0  0
   27.3405  -17.8591  -17.0867 O   0  0  0  0  0  0  0  0  0  0  0  0
   26.0030  -18.8678  -15.4238 C   0  0  0  0  0  0  0  0  0  0  0  0
   26.2402  -20.0545  -14.4955 C   0  0  2  0  0  0  0  0  0  0  0  0
   26.8714  -21.1307  -15.2239 N   0  0  0  0  0  0  0  0  0  0  0  0
   24.8788  -20.5168  -14.0574 C   0  0  0  0  0  0  0  0  0  0  0  0
   24.2050  -21.1877  -14.8754 O   0  0  0  0  0  0  0  0  0  0  0  0
   24.3441  -20.2320  -12.7877 N   0  0  0  0  0  0  0  0  0  0  0  0
   23.0099  -20.7513  -12.3588 C   0  0  1  0  0  0  0  0  0  0  0  0
   23.0257  -20.8228  -10.8625 C   0  0  0  0  0  0  0  0  0  0  0  0
   21.7896  -21.3671  -10.2457 C   0  0  0  0  0  0  0  0  0  0  0  0
   21.8768  -21.3862   -8.7207 C   0  0  0  0  0  0  0  0  0  0  0  0
   20.7179  -22.1156   -8.1058 C   0  0  0  0  0  0  0  0  0  0  0  0
   20.8078  -22.0060   -6.6446 N   0  0  0  0  0  0  0  0  0  0  0  0
   21.9601  -19.8585  -12.9342 C   0  0  0  0  0  0  0  0  0  0  0  0
   22.1067  -18.6236  -12.7826 O   0  0  0  0  0  0  0  0  0  0  0  0
   21.1053  -19.0345  -16.0891 C   0  0  0  0  0  0  0  0  0  0  0  0
   19.7712  -19.6446  -15.6851 C   0  0  1  0  0  0  0  0  0  0  0  0
   19.8225  -20.9609  -16.2341 O   0  0  0  0  0  0  0  0  0  0  0  0
   19.7158  -19.7583  -14.1954 C   0  0  2  0  0  0  0  0  0  0  0  0
   20.8569  -20.3728  -13.6199 N   0  0  0  0  0  0  0  0  0  0  0  0
   18.3835  -20.0980  -13.6414 C   0  0  0  0  0  0  0  0  0  0  0  0
   17.1994  -19.4395  -13.9147 O   0  0  0  0  0  0  0  0  0  0  0  0
   18.2539  -21.0819  -12.8404 O   0  0  0  0  0  0  0  0  0  0  0  0
  1  2  1  0
  2  3  2  0
  4  2  1  0
  4  5  1  0
  5  7  1  0
  5  6  1  6
  7  8  2  0
  9 10  1  0
  9  7  1  0
 10 11  1  1
 11 12  1  0
 13 12  1  0
 13 14  1  0
 14 15  1  0
 16 17  2  0
 16 10  1  0
 19 18  1  1
 19 21  1  0
 20 19  1  0
 21 22  1  6
 21 23  1  0
 22 16  1  0
 23 24  1  0
 25 23  2  0
M  END
$$$$
