NKT.pdb
     RDKit          3D

 25 24  0  0  1  0  0  0  0  0999 V2000
   21.3385   -9.8687  -12.6789 N   0  0  0  0  0  0  0  0  0  0  0  0
   21.2720   -8.5193  -12.2686 C   0  0  0  0  0  0  0  0  0  0  0  0
   22.3069   -7.8575  -12.0805 O   0  0  0  0  0  0  0  0  0  0  0  0
   19.9467   -7.8694  -12.0541 C   0  0  0  0  0  0  0  0  0  0  0  0
   18.8109   -8.8489  -12.3309 C   0  0  2  0  0  0  0  0  0  0  0  0
   18.6751   -9.0555  -13.7544 N   0  0  0  0  0  0  0  0  0  0  0  0
   17.5592   -8.1848  -11.8296 C   0  0  0  0  0  0  0  0  0  0  0  0
   17.0811   -7.2545  -12.5218 O   0  0  0  0  0  0  0  0  0  0  0  0
   16.9158   -8.5625  -10.6368 N   0  0  0  0  0  0  0  0  0  0  0  0
   15.6466   -7.9148  -10.1857 C   0  0  1  0  0  0  0  0  0  0  0  0
   14.8098   -8.9820   -9.5493 C   0  0  0  0  0  0  0  0  0  0  0  0
   13.4822   -8.5322   -9.0600 C   0  0  0  0  0  0  0  0  0  0  0  0
   12.6390   -9.6999   -8.5510 C   0  0  0  0  0  0  0  0  0  0  0  0
   11.3243   -9.2364   -7.9943 C   0  0  0  0  0  0  0  0  0  0  0  0
   10.5776  -10.4016   -7.5045 N   0  0  0  0  0  0  0  0  0  0  0  0
   16.0032   -6.7765   -9.2871 C   0  0  0  0  0  0  0  0  0  0  0  0
   16.8905   -6.9776   -8.4259 O   0  0  0  0  0  0  0  0  0  0  0  0
   15.7536   -2.7364  -10.5340 C   0  0  0  0  0  0  0  0  0  0  0  0
   16.4344   -3.3288   -9.3091 C   0  0  1  0  0  0  0  0  0  0  0  0
   16.5716   -2.2147   -8.4277 O   0  0  0  0  0  0  0  0  0  0  0  0
   15.5171   -4.3224   -8.6715 C   0  0  2  0  0  0  0  0  0  0  0  0
   15.3791   -5.5316   -9.3994 N   0  0  0  0  0  0  0  0  0  0  0  0
   14.3074   -3.7439   -8.0395 C   0  0  0  0  0  0  0  0  0  0  0  0
   14.2895   -2.8891   -6.9535 O   0  0  0  0  0  0  0  0  0  0  0  0
   13.1500   -4.0173   -8.5002 O   0  0  0  0  0  0  0  0  0  0  0  0
  1  2  1  0
  2  3  2  0
  4  2  1  0
  4  5  1  0
  5  7  1  0
  5  6  1  6
  7  8  2  0
  9 10  1  0
  9  7  1  0
 10 11  1  1
 11 12  1  0
 13 12  1  0
 13 14  1  0
 14 15  1  0
 16 17  2  0
 16 10  1  0
 19 18  1  6
 19 21  1  0
 20 19  1  0
 21 22  1  6
 21 23  1  0
 22 16  1  0
 23 24  1  0
 25 23  2  0
M  END
$$$$
