NKT.pdb
     RDKit          3D

 25 24  0  0  1  0  0  0  0  0999 V2000
   33.1398  -32.3565  -16.6710 N   0  0  0  0  0  0  0  0  0  0  0  0
   31.7852  -32.6847  -16.8964 C   0  0  0  0  0  0  0  0  0  0  0  0
   31.4301  -33.2427  -17.9485 O   0  0  0  0  0  0  0  0  0  0  0  0
   30.7576  -32.3609  -15.8648 C   0  0  0  0  0  0  0  0  0  0  0  0
   29.5203  -31.7422  -16.5070 C   0  0  2  0  0  0  0  0  0  0  0  0
   29.7358  -30.3315  -16.7320 N   0  0  0  0  0  0  0  0  0  0  0  0
   28.4118  -31.8954  -15.5036 C   0  0  0  0  0  0  0  0  0  0  0  0
   28.5051  -31.2453  -14.4350 O   0  0  0  0  0  0  0  0  0  0  0  0
   27.2944  -32.7235  -15.7158 N   0  0  0  0  0  0  0  0  0  0  0  0
   26.1480  -32.7627  -14.7577 C   0  0  1  0  0  0  0  0  0  0  0  0
   24.9061  -32.4770  -15.5453 C   0  0  0  0  0  0  0  0  0  0  0  0
   23.6436  -32.5151  -14.7649 C   0  0  0  0  0  0  0  0  0  0  0  0
   22.4235  -32.2512  -15.6453 C   0  0  0  0  0  0  0  0  0  0  0  0
   21.1453  -32.3230  -14.8616 C   0  0  0  0  0  0  0  0  0  0  0  0
   20.0230  -31.9990  -15.7508 N   0  0  0  0  0  0  0  0  0  0  0  0
   26.1654  -34.0887  -14.0709 C   0  0  0  0  0  0  0  0  0  0  0  0
   26.6136  -35.0657  -14.7144 O   0  0  0  0  0  0  0  0  0  0  0  0
   25.4926  -36.2665   -9.6210 C   0  0  0  0  0  0  0  0  0  0  0  0
   25.2978  -35.0277  -10.4826 C   0  0  1  0  0  0  0  0  0  0  0  0
   26.2990  -34.1273  -10.0098 O   0  0  0  0  0  0  0  0  0  0  0  0
   25.6054  -35.3677  -11.9057 C   0  0  2  0  0  0  0  0  0  0  0  0
   25.7055  -34.2406  -12.7604 N   0  0  0  0  0  0  0  0  0  0  0  0
   24.9258  -36.5797  -12.4220 C   0  0  0  0  0  0  0  0  0  0  0  0
   25.4726  -37.8471  -12.4957 O   0  0  0  0  0  0  0  0  0  0  0  0
   23.7242  -36.5108  -12.8436 O   0  0  0  0  0  0  0  0  0  0  0  0
  1  2  1  0
  2  3  2  0
  4  2  1  0
  4  5  1  0
  5  7  1  0
  5  6  1  1
  7  8  2  0
  9 10  1  0
  9  7  1  0
 10 11  1  6
 11 12  1  0
 13 12  1  0
 13 14  1  0
 14 15  1  0
 16 17  2  0
 16 10  1  0
 19 18  1  1
 19 21  1  0
 20 19  1  0
 21 22  1  6
 21 23  1  0
 22 16  1  0
 23 24  1  0
 25 23  2  0
M  END
$$$$
