NKT.pdb
     RDKit          3D

 25 24  0  0  1  0  0  0  0  0999 V2000
   24.1088  -12.5385  -15.4277 N   0  0  0  0  0  0  0  0  0  0  0  0
   22.7369  -12.2495  -15.2603 C   0  0  0  0  0  0  0  0  0  0  0  0
   21.9312  -13.1402  -14.9407 O   0  0  0  0  0  0  0  0  0  0  0  0
   22.2366  -10.8598  -15.4684 C   0  0  0  0  0  0  0  0  0  0  0  0
   20.8791  -10.8703  -16.1636 C   0  0  2  0  0  0  0  0  0  0  0  0
   21.0353  -11.2732  -17.5423 N   0  0  0  0  0  0  0  0  0  0  0  0
   20.3904   -9.4491  -16.1405 C   0  0  0  0  0  0  0  0  0  0  0  0
   20.9622   -8.6285  -16.8973 O   0  0  0  0  0  0  0  0  0  0  0  0
   19.3344   -9.0147  -15.3186 N   0  0  0  0  0  0  0  0  0  0  0  0
   18.7703   -7.6346  -15.4222 C   0  0  1  0  0  0  0  0  0  0  0  0
   17.3246   -7.7200  -15.0388 C   0  0  0  0  0  0  0  0  0  0  0  0
   16.6154   -6.4177  -14.9655 C   0  0  0  0  0  0  0  0  0  0  0  0
   15.6050   -6.2566  -16.0998 C   0  0  0  0  0  0  0  0  0  0  0  0
   14.8286   -4.9779  -15.9767 C   0  0  0  0  0  0  0  0  0  0  0  0
   13.8479   -4.9096  -17.0669 N   0  0  0  0  0  0  0  0  0  0  0  0
   19.5957   -6.7328  -14.5644 C   0  0  0  0  0  0  0  0  0  0  0  0
   19.6904   -7.0206  -13.3489 O   0  0  0  0  0  0  0  0  0  0  0  0
   23.0467   -5.8769  -14.9251 C   0  0  0  0  0  0  0  0  0  0  0  0
   22.4145   -4.4943  -14.9856 C   0  0  1  0  0  0  0  0  0  0  0  0
   22.3834   -4.1985  -16.3814 O   0  0  0  0  0  0  0  0  0  0  0  0
   21.0060   -4.5779  -14.4913 C   0  0  2  0  0  0  0  0  0  0  0  0
   20.2436   -5.6125  -15.0908 N   0  0  0  0  0  0  0  0  0  0  0  0
   20.3469   -3.2720  -14.2511 C   0  0  0  0  0  0  0  0  0  0  0  0
   20.8125   -2.2687  -13.4221 O   0  0  0  0  0  0  0  0  0  0  0  0
   19.2522   -2.9880  -14.8405 O   0  0  0  0  0  0  0  0  0  0  0  0
  1  2  1  0
  2  3  2  0
  4  2  1  0
  4  5  1  0
  5  7  1  0
  5  6  1  6
  7  8  2  0
  9 10  1  0
  9  7  1  0
 10 11  1  1
 11 12  1  0
 13 12  1  0
 13 14  1  0
 14 15  1  0
 16 17  2  0
 16 10  1  0
 19 18  1  6
 19 21  1  0
 20 19  1  0
 21 22  1  6
 21 23  1  0
 22 16  1  0
 23 24  1  0
 25 23  2  0
M  END
$$$$
