NKT.pdb
     RDKit          3D

 25 24  0  0  1  0  0  0  0  0999 V2000
   25.3907  -12.7694  -16.1832 N   0  0  0  0  0  0  0  0  0  0  0  0
   25.6704  -11.4609  -15.7325 C   0  0  0  0  0  0  0  0  0  0  0  0
   26.7314  -11.2032  -15.1389 O   0  0  0  0  0  0  0  0  0  0  0  0
   24.6856  -10.3652  -15.9659 C   0  0  0  0  0  0  0  0  0  0  0  0
   23.4441  -10.8938  -16.6769 C   0  0  2  0  0  0  0  0  0  0  0  0
   23.7508  -11.1724  -18.0610 N   0  0  0  0  0  0  0  0  0  0  0  0
   22.4352   -9.7806  -16.6326 C   0  0  0  0  0  0  0  0  0  0  0  0
   22.6577   -8.7699  -17.3413 O   0  0  0  0  0  0  0  0  0  0  0  0
   21.2723   -9.8307  -15.8424 N   0  0  0  0  0  0  0  0  0  0  0  0
   20.2296   -8.7617  -15.9043 C   0  0  1  0  0  0  0  0  0  0  0  0
   18.9104   -9.4173  -15.6320 C   0  0  0  0  0  0  0  0  0  0  0  0
   17.7369   -8.5085  -15.6690 C   0  0  0  0  0  0  0  0  0  0  0  0
   16.4305   -9.2570  -15.4106 C   0  0  0  0  0  0  0  0  0  0  0  0
   15.2376   -8.3546  -15.5351 C   0  0  0  0  0  0  0  0  0  0  0  0
   14.0208   -9.1370  -15.2857 N   0  0  0  0  0  0  0  0  0  0  0  0
   20.6099   -7.6893  -14.9371 C   0  0  0  0  0  0  0  0  0  0  0  0
   20.9135   -8.0426  -13.7741 O   0  0  0  0  0  0  0  0  0  0  0  0
   23.3066   -5.5472  -14.7986 C   0  0  0  0  0  0  0  0  0  0  0  0
   22.1994   -4.5095  -14.9094 C   0  0  1  0  0  0  0  0  0  0  0  0
   22.1959   -4.1668  -16.2948 O   0  0  0  0  0  0  0  0  0  0  0  0
   20.8905   -5.1531  -14.5810 C   0  0  2  0  0  0  0  0  0  0  0  0
   20.6327   -6.3427  -15.3086 N   0  0  0  0  0  0  0  0  0  0  0  0
   19.7672   -4.2119  -14.3576 C   0  0  0  0  0  0  0  0  0  0  0  0
   19.7456   -3.1776  -13.4410 O   0  0  0  0  0  0  0  0  0  0  0  0
   18.7003   -4.3109  -15.0492 O   0  0  0  0  0  0  0  0  0  0  0  0
  1  2  1  0
  2  3  2  0
  4  2  1  0
  4  5  1  0
  5  7  1  0
  5  6  1  6
  7  8  2  0
  9 10  1  0
  9  7  1  0
 10 11  1  1
 11 12  1  0
 13 12  1  0
 13 14  1  0
 14 15  1  0
 16 17  2  0
 16 10  1  0
 19 18  1  6
 19 21  1  0
 20 19  1  0
 21 22  1  6
 21 23  1  0
 22 16  1  0
 23 24  1  0
 25 23  2  0
M  END
$$$$
