NKT.pdb
     RDKit          3D

 25 24  0  0  1  0  0  0  0  0999 V2000
   23.3436   -5.5216  -14.2979 N   0  0  0  0  0  0  0  0  0  0  0  0
   22.3416   -5.7033  -13.3199 C   0  0  0  0  0  0  0  0  0  0  0  0
   22.5342   -5.3682  -12.1387 O   0  0  0  0  0  0  0  0  0  0  0  0
   21.0305   -6.3056  -13.6981 C   0  0  0  0  0  0  0  0  0  0  0  0
   20.9449   -6.5157  -15.2063 C   0  0  2  0  0  0  0  0  0  0  0  0
   20.7657   -5.2455  -15.8709 N   0  0  0  0  0  0  0  0  0  0  0  0
   19.7149   -7.3474  -15.4400 C   0  0  0  0  0  0  0  0  0  0  0  0
   18.6116   -6.7518  -15.4720 O   0  0  0  0  0  0  0  0  0  0  0  0
   19.7554   -8.7418  -15.6225 N   0  0  0  0  0  0  0  0  0  0  0  0
   18.5597   -9.5127  -16.0804 C   0  0  1  0  0  0  0  0  0  0  0  0
   19.0571  -10.6060  -16.9756 C   0  0  0  0  0  0  0  0  0  0  0  0
   18.0012  -11.4757  -17.5528 C   0  0  0  0  0  0  0  0  0  0  0  0
   18.5907  -12.5800  -18.4284 C   0  0  0  0  0  0  0  0  0  0  0  0
   17.5198  -13.4048  -19.0808 C   0  0  0  0  0  0  0  0  0  0  0  0
   18.1499  -14.5119  -19.8105 N   0  0  0  0  0  0  0  0  0  0  0  0
   17.8200   -9.9795  -14.8698 C   0  0  0  0  0  0  0  0  0  0  0  0
   18.4997  -10.3972  -13.9040 O   0  0  0  0  0  0  0  0  0  0  0  0
   16.3735   -8.7213  -12.2774 C   0  0  0  0  0  0  0  0  0  0  0  0
   15.1144   -9.3759  -12.8261 C   0  0  1  0  0  0  0  0  0  0  0  0
   14.4493   -8.3112  -13.5050 O   0  0  0  0  0  0  0  0  0  0  0  0
   15.4997  -10.4091  -13.8357 C   0  0  2  0  0  0  0  0  0  0  0  0
   16.4246   -9.9504  -14.8079 N   0  0  0  0  0  0  0  0  0  0  0  0
   14.3962  -11.2928  -14.2815 C   0  0  0  0  0  0  0  0  0  0  0  0
   13.5906  -12.0610  -13.4620 O   0  0  0  0  0  0  0  0  0  0  0  0
   14.1120  -11.3886  -15.5210 O   0  0  0  0  0  0  0  0  0  0  0  0
  1  2  1  0
  2  3  2  0
  4  2  1  0
  4  5  1  0
  5  7  1  0
  5  6  1  6
  7  8  2  0
  9 10  1  0
  9  7  1  0
 10 11  1  1
 11 12  1  0
 13 12  1  0
 13 14  1  0
 14 15  1  0
 16 17  2  0
 16 10  1  0
 19 18  1  6
 19 21  1  0
 20 19  1  0
 21 22  1  6
 21 23  1  0
 22 16  1  0
 23 24  1  0
 25 23  2  0
M  END
$$$$
