NKT.pdb
     RDKit          3D

 25 24  0  0  1  0  0  0  0  0999 V2000
   25.3459  -13.4164  -16.4850 N   0  0  0  0  0  0  0  0  0  0  0  0
   25.8070  -12.1350  -16.1121 C   0  0  0  0  0  0  0  0  0  0  0  0
   26.9619  -11.9720  -15.6830 O   0  0  0  0  0  0  0  0  0  0  0  0
   24.9037  -10.9538  -16.2298 C   0  0  0  0  0  0  0  0  0  0  0  0
   23.5118  -11.3785  -16.6863 C   0  0  2  0  0  0  0  0  0  0  0  0
   23.5378  -11.7233  -18.0890 N   0  0  0  0  0  0  0  0  0  0  0  0
   22.6327  -10.1717  -16.5138 C   0  0  0  0  0  0  0  0  0  0  0  0
   22.7382   -9.2534  -17.3617 O   0  0  0  0  0  0  0  0  0  0  0  0
   21.7123  -10.0380  -15.4581 N   0  0  0  0  0  0  0  0  0  0  0  0
   20.6898   -8.9481  -15.4360 C   0  0  1  0  0  0  0  0  0  0  0  0
   19.4413   -9.5279  -14.8452 C   0  0  0  0  0  0  0  0  0  0  0  0
   18.6801  -10.4310  -15.7450 C   0  0  0  0  0  0  0  0  0  0  0  0
   17.5375  -11.1317  -15.0123 C   0  0  0  0  0  0  0  0  0  0  0  0
   16.8186  -12.1037  -15.9019 C   0  0  0  0  0  0  0  0  0  0  0  0
   15.8245  -12.8329  -15.1050 N   0  0  0  0  0  0  0  0  0  0  0  0
   21.2631   -7.7923  -14.6839 C   0  0  0  0  0  0  0  0  0  0  0  0
   21.7638   -8.0270  -13.5597 O   0  0  0  0  0  0  0  0  0  0  0  0
   23.8919   -5.6000  -15.7144 C   0  0  0  0  0  0  0  0  0  0  0  0
   22.7645   -4.6017  -15.4969 C   0  0  1  0  0  0  0  0  0  0  0  0
   22.2644   -4.3659  -16.8126 O   0  0  0  0  0  0  0  0  0  0  0  0
   21.6841   -5.2506  -14.6925 C   0  0  2  0  0  0  0  0  0  0  0  0
   21.2491   -6.4977  -15.2088 N   0  0  0  0  0  0  0  0  0  0  0  0
   20.6631   -4.3231  -14.1498 C   0  0  0  0  0  0  0  0  0  0  0  0
   19.2956   -4.4333  -14.3186 O   0  0  0  0  0  0  0  0  0  0  0  0
   21.0173   -3.3181  -13.4493 O   0  0  0  0  0  0  0  0  0  0  0  0
  1  2  1  0
  2  3  2  0
  4  2  1  0
  4  5  1  0
  5  7  1  0
  5  6  1  6
  7  8  2  0
  9 10  1  0
  9  7  1  0
 10 11  1  1
 11 12  1  0
 13 12  1  0
 13 14  1  0
 14 15  1  0
 16 17  2  0
 16 10  1  0
 19 18  1  6
 19 21  1  0
 20 19  1  0
 21 22  1  6
 21 23  1  0
 22 16  1  0
 23 24  1  0
 25 23  2  0
M  END
$$$$
