NKT.pdb
     RDKit          3D

 25 24  0  0  1  0  0  0  0  0999 V2000
   29.6051  -24.3024  -18.1250 N   0  0  0  0  0  0  0  0  0  0  0  0
   28.2741  -24.6883  -17.8547 C   0  0  0  0  0  0  0  0  0  0  0  0
   27.8502  -25.8042  -18.2006 O   0  0  0  0  0  0  0  0  0  0  0  0
   27.3552  -23.7514  -17.1457 C   0  0  0  0  0  0  0  0  0  0  0  0
   28.1089  -22.5195  -16.6553 C   0  0  2  0  0  0  0  0  0  0  0  0
   29.0509  -22.8959  -15.6266 N   0  0  0  0  0  0  0  0  0  0  0  0
   27.0750  -21.6182  -16.0406 C   0  0  0  0  0  0  0  0  0  0  0  0
   26.7773  -21.8154  -14.8382 O   0  0  0  0  0  0  0  0  0  0  0  0
   26.4430  -20.5806  -16.7500 N   0  0  0  0  0  0  0  0  0  0  0  0
   25.4738  -19.6518  -16.0929 C   0  0  1  0  0  0  0  0  0  0  0  0
   25.6878  -18.2959  -16.6928 C   0  0  0  0  0  0  0  0  0  0  0  0
   24.9274  -17.1957  -16.0480 C   0  0  0  0  0  0  0  0  0  0  0  0
   25.1871  -15.8520  -16.7266 C   0  0  0  0  0  0  0  0  0  0  0  0
   24.3863  -14.7477  -16.1002 C   0  0  0  0  0  0  0  0  0  0  0  0
   24.7330  -13.4792  -16.7527 N   0  0  0  0  0  0  0  0  0  0  0  0
   24.1013  -20.2109  -16.2768 C   0  0  0  0  0  0  0  0  0  0  0  0
   23.7981  -20.6323  -17.4169 O   0  0  0  0  0  0  0  0  0  0  0  0
   22.8069  -22.9482  -15.4712 C   0  0  0  0  0  0  0  0  0  0  0  0
   21.6957  -22.1581  -14.7959 C   0  0  1  0  0  0  0  0  0  0  0  0
   21.9691  -22.3142  -13.4039 O   0  0  0  0  0  0  0  0  0  0  0  0
   21.8419  -20.7116  -15.1444 C   0  0  2  0  0  0  0  0  0  0  0  0
   23.1869  -20.2690  -15.2221 N   0  0  0  0  0  0  0  0  0  0  0  0
   20.8439  -19.8116  -14.5188 C   0  0  0  0  0  0  0  0  0  0  0  0
   19.4724  -19.9828  -14.5384 O   0  0  0  0  0  0  0  0  0  0  0  0
   21.2253  -18.7730  -13.8847 O   0  0  0  0  0  0  0  0  0  0  0  0
  1  2  1  0
  2  3  2  0
  4  2  1  0
  4  5  1  0
  5  7  1  0
  5  6  1  1
  7  8  2  0
  9 10  1  0
  9  7  1  0
 10 11  1  6
 11 12  1  0
 13 12  1  0
 13 14  1  0
 14 15  1  0
 16 17  2  0
 16 10  1  0
 19 18  1  6
 19 21  1  0
 20 19  1  0
 21 22  1  1
 21 23  1  0
 22 16  1  0
 23 24  1  0
 25 23  2  0
M  END
$$$$
