SGL.pdb
     RDKit          3D

 19 18  0  0  1  0  0  0  0  0999 V2000
    5.9230  -17.9289   20.4628 O   0  0  0  0  0  0  0  0  0  0  0  0
    5.7472  -18.0415   19.0874 C   0  0  0  0  0  0  0  0  0  0  0  0
    6.8443  -18.9001   18.4719 C   0  0  2  0  0  0  0  0  0  0  0  0
    6.8615  -20.1618   19.1292 N   0  0  0  0  0  0  0  0  0  0  0  0
    8.1294  -18.1992   18.4608 C   0  0  0  0  0  0  0  0  0  0  0  0
    8.2149  -17.1411   17.7742 O   0  0  0  0  0  0  0  0  0  0  0  0
    9.2841  -18.6096   19.1561 N   0  0  0  0  0  0  0  0  0  0  0  0
   10.5244  -17.9013   19.1411 C   0  0  0  0  0  0  0  0  0  0  0  0
   10.5437  -16.8084   20.1684 C   0  0  0  0  0  0  0  0  0  0  0  0
   11.5904  -16.1893   20.3750 O   0  0  0  0  0  0  0  0  0  0  0  0
    8.6737  -12.9521   20.1664 C   0  0  0  0  0  0  0  0  0  0  0  0
    7.6427  -14.0699   20.4010 C   0  0  2  0  0  0  0  0  0  0  0  0
    6.2935  -13.3841   20.4003 C   0  0  0  0  0  0  0  0  0  0  0  0
    7.9730  -14.6392   21.7564 C   0  0  0  0  0  0  0  0  0  0  0  0
    9.2829  -15.3717   21.8215 C   0  0  2  0  0  0  0  0  0  0  0  0
    9.3804  -16.4684   20.9116 N   0  0  0  0  0  0  0  0  0  0  0  0
    9.7020  -15.7681   23.1759 C   0  0  0  0  0  0  0  0  0  0  0  0
    9.7934  -16.9868   23.4445 O   0  0  0  0  0  0  0  0  0  0  0  0
   10.0032  -14.8632   24.1752 O   0  0  0  0  0  0  0  0  0  0  0  0
  1  2  1  0
  2  3  1  0
  3  4  1  1
  3  5  1  0
  5  6  2  0
  7  5  1  0
  7  8  1  0
  9  8  1  0
  9 10  2  0
 12 14  1  0
 12 11  1  1
 13 12  1  0
 15 14  1  1
 15 16  1  0
 16  9  1  0
 17 15  1  0
 17 19  1  0
 18 17  2  0
M  END
$$$$
