SGL.pdb
     RDKit          3D

 19 18  0  0  1  0  0  0  0  0999 V2000
   11.7275  -17.9621   20.2713 O   0  0  0  0  0  0  0  0  0  0  0  0
   10.8034  -18.9543   20.5828 C   0  0  0  0  0  0  0  0  0  0  0  0
    9.4750  -18.6923   19.8853 C   0  0  2  0  0  0  0  0  0  0  0  0
    9.7319  -18.0918   18.6215 N   0  0  0  0  0  0  0  0  0  0  0  0
    8.5588  -17.9404   20.7445 C   0  0  0  0  0  0  0  0  0  0  0  0
    8.1761  -16.8046   20.3424 O   0  0  0  0  0  0  0  0  0  0  0  0
    8.0665  -18.3815   21.9888 N   0  0  0  0  0  0  0  0  0  0  0  0
    7.1071  -17.6687   22.7710 C   0  0  0  0  0  0  0  0  0  0  0  0
    7.7583  -16.5960   23.5926 C   0  0  0  0  0  0  0  0  0  0  0  0
    8.9850  -16.4701   23.5626 O   0  0  0  0  0  0  0  0  0  0  0  0
    5.8006  -11.7167   26.9069 C   0  0  0  0  0  0  0  0  0  0  0  0
    7.0398  -12.4902   26.4235 C   0  0  2  0  0  0  0  0  0  0  0  0
    7.8454  -11.4991   25.6115 C   0  0  0  0  0  0  0  0  0  0  0  0
    6.5037  -13.6044   25.5624 C   0  0  0  0  0  0  0  0  0  0  0  0
    7.5262  -14.6303   25.1639 C   0  0  2  0  0  0  0  0  0  0  0  0
    6.9925  -15.7182   24.4077 N   0  0  0  0  0  0  0  0  0  0  0  0
    8.3750  -15.1159   26.2643 C   0  0  0  0  0  0  0  0  0  0  0  0
    7.9809  -16.0909   26.9424 O   0  0  0  0  0  0  0  0  0  0  0  0
    9.5922  -14.5518   26.5930 O   0  0  0  0  0  0  0  0  0  0  0  0
  1  2  1  0
  2  3  1  0
  3  4  1  6
  3  5  1  0
  5  6  2  0
  7  5  1  0
  7  8  1  0
  9  8  1  0
  9 10  2  0
 12 14  1  0
 12 11  1  6
 13 12  1  0
 15 14  1  1
 15 16  1  0
 16  9  1  0
 17 15  1  0
 17 19  1  0
 18 17  2  0
M  END
$$$$
