SGL.pdb
     RDKit          3D

 19 18  0  0  1  0  0  0  0  0999 V2000
    9.9427  -16.5333   17.9261 O   0  0  0  0  0  0  0  0  0  0  0  0
    9.6377  -16.4910   19.2828 C   0  0  0  0  0  0  0  0  0  0  0  0
    8.3399  -17.2356   19.5673 C   0  0  2  0  0  0  0  0  0  0  0  0
    7.2736  -16.5676   18.9034 N   0  0  0  0  0  0  0  0  0  0  0  0
    8.1388  -17.4303   21.0042 C   0  0  0  0  0  0  0  0  0  0  0  0
    8.9800  -18.1424   21.6234 O   0  0  0  0  0  0  0  0  0  0  0  0
    7.0791  -16.8862   21.7567 N   0  0  0  0  0  0  0  0  0  0  0  0
    6.9279  -17.0528   23.1673 C   0  0  0  0  0  0  0  0  0  0  0  0
    7.8418  -16.1384   23.9281 C   0  0  0  0  0  0  0  0  0  0  0  0
    8.9828  -15.9337   23.5064 O   0  0  0  0  0  0  0  0  0  0  0  0
    6.4155  -11.4896   27.0325 C   0  0  0  0  0  0  0  0  0  0  0  0
    7.3356  -12.2949   26.0986 C   0  0  2  0  0  0  0  0  0  0  0  0
    6.6000  -12.3799   24.7786 C   0  0  0  0  0  0  0  0  0  0  0  0
    7.4719  -13.6497   26.7439 C   0  0  0  0  0  0  0  0  0  0  0  0
    8.2425  -14.6514   25.9318 C   0  0  2  0  0  0  0  0  0  0  0  0
    7.4225  -15.5004   25.1274 N   0  0  0  0  0  0  0  0  0  0  0  0
    9.2300  -15.4345   26.6925 C   0  0  0  0  0  0  0  0  0  0  0  0
    8.9382  -16.6029   27.0320 O   0  0  0  0  0  0  0  0  0  0  0  0
   10.4711  -14.9485   27.0553 O   0  0  0  0  0  0  0  0  0  0  0  0
  1  2  1  0
  2  3  1  0
  3  4  1  1
  3  5  1  0
  5  6  2  0
  7  5  1  0
  7  8  1  0
  9  8  1  0
  9 10  2  0
 12 14  1  0
 12 11  1  1
 13 12  1  0
 15 14  1  1
 15 16  1  0
 16  9  1  0
 17 15  1  0
 17 19  1  0
 18 17  2  0
M  END
$$$$
