SGL.pdb
     RDKit          3D

 19 18  0  0  1  0  0  0  0  0999 V2000
   10.7637  -12.6385   17.9369 O   0  0  0  0  0  0  0  0  0  0  0  0
    9.8867  -12.9252   18.9781 C   0  0  0  0  0  0  0  0  0  0  0  0
    9.0028  -14.1147   18.6268 C   0  0  2  0  0  0  0  0  0  0  0  0
    8.1756  -13.7610   17.5246 N   0  0  0  0  0  0  0  0  0  0  0  0
    8.2798  -14.6090   19.7998 C   0  0  0  0  0  0  0  0  0  0  0  0
    7.1416  -14.1137   20.0395 O   0  0  0  0  0  0  0  0  0  0  0  0
    8.7513  -15.5964   20.6875 N   0  0  0  0  0  0  0  0  0  0  0  0
    8.0278  -16.0625   21.8274 C   0  0  0  0  0  0  0  0  0  0  0  0
    8.4306  -15.3262   23.0707 C   0  0  0  0  0  0  0  0  0  0  0  0
    9.5292  -14.7670   23.1148 O   0  0  0  0  0  0  0  0  0  0  0  0
    5.6084  -11.9775   27.2269 C   0  0  0  0  0  0  0  0  0  0  0  0
    6.9225  -12.7398   26.9826 C   0  0  2  0  0  0  0  0  0  0  0  0
    7.9707  -11.6747   26.7430 C   0  0  0  0  0  0  0  0  0  0  0  0
    6.6806  -13.5657   25.7459 C   0  0  0  0  0  0  0  0  0  0  0  0
    7.8195  -14.4697   25.3684 C   0  0  2  0  0  0  0  0  0  0  0  0
    7.5732  -15.2576   24.2027 N   0  0  0  0  0  0  0  0  0  0  0  0
    8.3404  -15.2987   26.4679 C   0  0  0  0  0  0  0  0  0  0  0  0
    7.9373  -16.4784   26.5745 O   0  0  0  0  0  0  0  0  0  0  0  0
    9.2570  -14.8441   27.3959 O   0  0  0  0  0  0  0  0  0  0  0  0
  1  2  1  0
  2  3  1  0
  3  4  1  6
  3  5  1  0
  5  6  2  0
  7  5  1  0
  7  8  1  0
  9  8  1  0
  9 10  2  0
 12 14  1  0
 12 11  1  6
 13 12  1  0
 15 14  1  1
 15 16  1  0
 16  9  1  0
 17 15  1  0
 17 19  1  0
 18 17  2  0
M  END
$$$$
