SGL.pdb
     RDKit          3D

 19 18  0  0  1  0  0  0  0  0999 V2000
    6.3748  -19.9986   19.5731 O   0  0  0  0  0  0  0  0  0  0  0  0
    7.5416  -19.3800   20.0102 C   0  0  0  0  0  0  0  0  0  0  0  0
    7.2801  -18.5634   21.2691 C   0  0  2  0  0  0  0  0  0  0  0  0
    5.9850  -17.9818   21.1770 N   0  0  0  0  0  0  0  0  0  0  0  0
    8.3617  -17.6100   21.5226 C   0  0  0  0  0  0  0  0  0  0  0  0
    9.5451  -18.0544   21.5344 O   0  0  0  0  0  0  0  0  0  0  0  0
    8.1904  -16.2310   21.7556 N   0  0  0  0  0  0  0  0  0  0  0  0
    9.2650  -15.3087   21.9418 C   0  0  0  0  0  0  0  0  0  0  0  0
    9.4916  -15.0176   23.3957 C   0  0  0  0  0  0  0  0  0  0  0  0
   10.5137  -14.4203   23.7421 O   0  0  0  0  0  0  0  0  0  0  0  0
    8.1087  -12.1373   26.2039 C   0  0  0  0  0  0  0  0  0  0  0  0
    7.0412  -13.1257   25.7028 C   0  0  2  0  0  0  0  0  0  0  0  0
    5.7229  -12.5997   26.2282 C   0  0  0  0  0  0  0  0  0  0  0  0
    7.3975  -14.4490   26.3290 C   0  0  0  0  0  0  0  0  0  0  0  0
    8.6398  -15.0859   25.7740 C   0  0  2  0  0  0  0  0  0  0  0  0
    8.5530  -15.4152   24.3868 N   0  0  0  0  0  0  0  0  0  0  0  0
    9.1541  -16.2215   26.5570 C   0  0  0  0  0  0  0  0  0  0  0  0
    9.3057  -17.3252   25.9872 O   0  0  0  0  0  0  0  0  0  0  0  0
    9.4820  -16.1369   27.8962 O   0  0  0  0  0  0  0  0  0  0  0  0
  1  2  1  0
  2  3  1  0
  3  4  1  6
  3  5  1  0
  5  6  2  0
  7  5  1  0
  7  8  1  0
  9  8  1  0
  9 10  2  0
 12 14  1  0
 12 11  1  1
 13 12  1  0
 15 14  1  1
 15 16  1  0
 16  9  1  0
 17 15  1  0
 17 19  1  0
 18 17  2  0
M  END
$$$$
