SGL.pdb
     RDKit          3D

 19 18  0  0  1  0  0  0  0  0999 V2000
   10.7045  -13.6794   19.5562 O   0  0  0  0  0  0  0  0  0  0  0  0
    9.7744  -14.2944   18.7244 C   0  0  0  0  0  0  0  0  0  0  0  0
    8.3616  -13.8384   19.0651 C   0  0  2  0  0  0  0  0  0  0  0  0
    8.2410  -12.4541   18.7600 N   0  0  0  0  0  0  0  0  0  0  0  0
    8.0007  -14.1955   20.4381 C   0  0  0  0  0  0  0  0  0  0  0  0
    7.8946  -13.2581   21.2798 O   0  0  0  0  0  0  0  0  0  0  0  0
    7.7608  -15.5047   20.9002 N   0  0  0  0  0  0  0  0  0  0  0  0
    7.1514  -15.8144   22.1543 C   0  0  0  0  0  0  0  0  0  0  0  0
    7.9953  -15.3484   23.3035 C   0  0  0  0  0  0  0  0  0  0  0  0
    9.2178  -15.2637   23.1625 O   0  0  0  0  0  0  0  0  0  0  0  0
    7.1540  -11.6074   25.3127 C   0  0  0  0  0  0  0  0  0  0  0  0
    6.3105  -12.7414   25.9210 C   0  0  2  0  0  0  0  0  0  0  0  0
    5.3891  -12.0719   26.9176 C   0  0  0  0  0  0  0  0  0  0  0  0
    7.2983  -13.6505   26.6052 C   0  0  0  0  0  0  0  0  0  0  0  0
    8.1379  -14.4737   25.6703 C   0  0  2  0  0  0  0  0  0  0  0  0
    7.4174  -15.0009   24.5552 N   0  0  0  0  0  0  0  0  0  0  0  0
    8.9440  -15.5189   26.3222 C   0  0  0  0  0  0  0  0  0  0  0  0
    9.6902  -15.1968   27.2736 O   0  0  0  0  0  0  0  0  0  0  0  0
    8.9227  -16.8462   25.9403 O   0  0  0  0  0  0  0  0  0  0  0  0
  1  2  1  0
  2  3  1  0
  3  4  1  1
  3  5  1  0
  5  6  2  0
  7  5  1  0
  7  8  1  0
  9  8  1  0
  9 10  2  0
 12 14  1  0
 12 11  1  1
 13 12  1  0
 15 14  1  1
 15 16  1  0
 16  9  1  0
 17 15  1  0
 17 19  1  0
 18 17  2  0
M  END
$$$$
