SGL.pdb
     RDKit          3D

 19 18  0  0  1  0  0  0  0  0999 V2000
    9.1941  -17.7989   18.8965 O   0  0  0  0  0  0  0  0  0  0  0  0
    7.8572  -17.5196   18.6321 C   0  0  0  0  0  0  0  0  0  0  0  0
    7.3034  -16.5255   19.6444 C   0  0  2  0  0  0  0  0  0  0  0  0
    8.1750  -15.4029   19.7079 N   0  0  0  0  0  0  0  0  0  0  0  0
    7.0373  -17.1665   20.9333 C   0  0  0  0  0  0  0  0  0  0  0  0
    6.2946  -18.1895   20.9378 O   0  0  0  0  0  0  0  0  0  0  0  0
    7.5438  -16.7341   22.1749 N   0  0  0  0  0  0  0  0  0  0  0  0
    8.3486  -17.5390   23.0379 C   0  0  0  0  0  0  0  0  0  0  0  0
    8.8015  -16.7676   24.2419 C   0  0  0  0  0  0  0  0  0  0  0  0
    9.0364  -17.3682   25.2934 O   0  0  0  0  0  0  0  0  0  0  0  0
    5.7443  -12.4512   26.4121 C   0  0  0  0  0  0  0  0  0  0  0  0
    7.1865  -12.9657   26.5634 C   0  0  2  0  0  0  0  0  0  0  0  0
    8.0567  -11.7281   26.6035 C   0  0  0  0  0  0  0  0  0  0  0  0
    7.4489  -13.7864   25.3273 C   0  0  0  0  0  0  0  0  0  0  0  0
    8.7827  -14.4774   25.3104 C   0  0  2  0  0  0  0  0  0  0  0  0
    8.9670  -15.3561   24.1994 N   0  0  0  0  0  0  0  0  0  0  0  0
    9.1530  -15.1359   26.5739 C   0  0  0  0  0  0  0  0  0  0  0  0
    8.5157  -16.1514   26.9321 O   0  0  0  0  0  0  0  0  0  0  0  0
   10.1733  -14.6928   27.3930 O   0  0  0  0  0  0  0  0  0  0  0  0
  1  2  1  0
  2  3  1  0
  3  4  1  1
  3  5  1  0
  5  6  2  0
  7  5  1  0
  7  8  1  0
  9  8  1  0
  9 10  2  0
 12 14  1  0
 12 11  1  6
 13 12  1  0
 15 14  1  1
 15 16  1  0
 16  9  1  0
 17 15  1  0
 17 19  1  0
 18 17  2  0
M  END
$$$$
