SGL.pdb
     RDKit          3D

 19 18  0  0  1  0  0  0  0  0999 V2000
   10.0787  -14.4345   17.3638 O   0  0  0  0  0  0  0  0  0  0  0  0
    9.6223  -14.3853   18.6770 C   0  0  0  0  0  0  0  0  0  0  0  0
    8.1232  -14.1190   18.7174 C   0  0  2  0  0  0  0  0  0  0  0  0
    7.8577  -12.8924   18.0475 N   0  0  0  0  0  0  0  0  0  0  0  0
    7.6030  -14.1944   20.0837 C   0  0  0  0  0  0  0  0  0  0  0  0
    7.4567  -13.1099   20.7167 O   0  0  0  0  0  0  0  0  0  0  0  0
    7.2505  -15.3826   20.7538 N   0  0  0  0  0  0  0  0  0  0  0  0
    6.7141  -15.4294   22.0767 C   0  0  0  0  0  0  0  0  0  0  0  0
    7.7696  -15.1533   23.1061 C   0  0  0  0  0  0  0  0  0  0  0  0
    8.9559  -15.1364   22.7683 O   0  0  0  0  0  0  0  0  0  0  0  0
    7.2224  -11.4914   27.2376 C   0  0  0  0  0  0  0  0  0  0  0  0
    7.3525  -12.4221   26.0193 C   0  0  2  0  0  0  0  0  0  0  0  0
    5.9455  -12.5956   25.4893 C   0  0  0  0  0  0  0  0  0  0  0  0
    7.9022  -13.7156   26.5624 C   0  0  0  0  0  0  0  0  0  0  0  0
    8.3780  -14.6793   25.5127 C   0  0  2  0  0  0  0  0  0  0  0  0
    7.4338  -14.9099   24.4660 N   0  0  0  0  0  0  0  0  0  0  0  0
    8.9101  -15.9485   26.0354 C   0  0  0  0  0  0  0  0  0  0  0  0
    9.8745  -15.9136   26.8320 O   0  0  0  0  0  0  0  0  0  0  0  0
    8.4006  -17.1861   25.6937 O   0  0  0  0  0  0  0  0  0  0  0  0
  1  2  1  0
  2  3  1  0
  3  4  1  1
  3  5  1  0
  5  6  2  0
  7  5  1  0
  7  8  1  0
  9  8  1  0
  9 10  2  0
 12 14  1  0
 12 11  1  1
 13 12  1  0
 15 14  1  1
 15 16  1  0
 16  9  1  0
 17 15  1  0
 17 19  1  0
 18 17  2  0
M  END
$$$$
