SGL.pdb
     RDKit          3D

 19 18  0  0  1  0  0  0  0  0999 V2000
    8.8366  -18.2863   17.2676 O   0  0  0  0  0  0  0  0  0  0  0  0
    8.0922  -17.8668   18.3655 C   0  0  0  0  0  0  0  0  0  0  0  0
    8.9999  -17.2903   19.4441 C   0  0  2  0  0  0  0  0  0  0  0  0
    9.9354  -18.2877   19.8366 N   0  0  0  0  0  0  0  0  0  0  0  0
    8.2246  -16.7131   20.5435 C   0  0  0  0  0  0  0  0  0  0  0  0
    7.8684  -17.4849   21.4792 O   0  0  0  0  0  0  0  0  0  0  0  0
    7.8411  -15.3610   20.6442 N   0  0  0  0  0  0  0  0  0  0  0  0
    7.0517  -14.8275   21.7083 C   0  0  0  0  0  0  0  0  0  0  0  0
    7.8638  -14.6485   22.9566 C   0  0  0  0  0  0  0  0  0  0  0  0
    9.0901  -14.5442   22.8721 O   0  0  0  0  0  0  0  0  0  0  0  0
    7.6440  -11.2313   25.5228 C   0  0  0  0  0  0  0  0  0  0  0  0
    6.4684  -12.1922   25.7720 C   0  0  2  0  0  0  0  0  0  0  0  0
    5.5582  -11.4756   26.7459 C   0  0  0  0  0  0  0  0  0  0  0  0
    7.0822  -13.4214   26.3908 C   0  0  0  0  0  0  0  0  0  0  0  0
    7.9197  -14.2400   25.4499 C   0  0  2  0  0  0  0  0  0  0  0  0
    7.2516  -14.5962   24.2387 N   0  0  0  0  0  0  0  0  0  0  0  0
    8.5691  -15.4112   26.0611 C   0  0  0  0  0  0  0  0  0  0  0  0
    9.3263  -15.2355   27.0417 O   0  0  0  0  0  0  0  0  0  0  0  0
    8.3879  -16.7042   25.6099 O   0  0  0  0  0  0  0  0  0  0  0  0
  1  2  1  0
  2  3  1  0
  3  4  1  1
  3  5  1  0
  5  6  2  0
  7  5  1  0
  7  8  1  0
  9  8  1  0
  9 10  2  0
 12 14  1  0
 12 11  1  1
 13 12  1  0
 15 14  1  1
 15 16  1  0
 16  9  1  0
 17 15  1  0
 17 19  1  0
 18 17  2  0
M  END
$$$$
