SGL.pdb
     RDKit          3D

 19 18  0  0  1  0  0  0  0  0999 V2000
   10.2290  -17.5924   20.2568 O   0  0  0  0  0  0  0  0  0  0  0  0
    9.2518  -18.2513   20.9959 C   0  0  0  0  0  0  0  0  0  0  0  0
    9.2054  -17.7205   22.4228 C   0  0  2  0  0  0  0  0  0  0  0  0
    8.9339  -16.3245   22.3835 N   0  0  0  0  0  0  0  0  0  0  0  0
   10.4093  -18.0883   23.1699 C   0  0  0  0  0  0  0  0  0  0  0  0
   10.6255  -19.3184   23.3659 O   0  0  0  0  0  0  0  0  0  0  0  0
   11.3510  -17.1789   23.6909 N   0  0  0  0  0  0  0  0  0  0  0  0
   12.5814  -17.5621   24.3069 C   0  0  0  0  0  0  0  0  0  0  0  0
   12.5157  -17.4172   25.7985 C   0  0  0  0  0  0  0  0  0  0  0  0
   13.5262  -17.6300   26.4731 O   0  0  0  0  0  0  0  0  0  0  0  0
    9.3856  -13.6296   28.5718 C   0  0  0  0  0  0  0  0  0  0  0  0
   10.5422  -14.4887   28.0318 C   0  0  2  0  0  0  0  0  0  0  0  0
   10.6061  -14.1968   26.5481 C   0  0  0  0  0  0  0  0  0  0  0  0
   10.1373  -15.9155   28.2977 C   0  0  0  0  0  0  0  0  0  0  0  0
   11.1496  -16.9398   27.8703 C   0  0  2  0  0  0  0  0  0  0  0  0
   11.3125  -17.0393   26.4548 N   0  0  0  0  0  0  0  0  0  0  0  0
   10.9774  -18.2693   28.4786 C   0  0  0  0  0  0  0  0  0  0  0  0
   11.1565  -18.3947   29.7106 O   0  0  0  0  0  0  0  0  0  0  0  0
   10.6259  -19.3956   27.7602 O   0  0  0  0  0  0  0  0  0  0  0  0
  1  2  1  0
  2  3  1  0
  3  4  1  6
  3  5  1  0
  5  6  2  0
  7  5  1  0
  7  8  1  0
  9  8  1  0
  9 10  2  0
 12 14  1  0
 12 11  1  1
 13 12  1  0
 15 14  1  6
 15 16  1  0
 16  9  1  0
 17 15  1  0
 17 19  1  0
 18 17  2  0
M  END
$$$$
