SGL.pdb
     RDKit          3D

 19 18  0  0  1  0  0  0  0  0999 V2000
    6.8495  -14.2737   17.3101 O   0  0  0  0  0  0  0  0  0  0  0  0
    6.9930  -13.1449   18.1104 C   0  0  0  0  0  0  0  0  0  0  0  0
    8.2810  -13.2178   18.9201 C   0  0  2  0  0  0  0  0  0  0  0  0
    9.3831  -13.2820   18.0227 N   0  0  0  0  0  0  0  0  0  0  0  0
    8.2323  -14.2982   19.9066 C   0  0  0  0  0  0  0  0  0  0  0  0
    9.0762  -15.2329   19.7956 O   0  0  0  0  0  0  0  0  0  0  0  0
    7.3173  -14.3816   20.9748 N   0  0  0  0  0  0  0  0  0  0  0  0
    7.2953  -15.4413   21.9323 C   0  0  0  0  0  0  0  0  0  0  0  0
    8.0529  -15.0738   23.1737 C   0  0  0  0  0  0  0  0  0  0  0  0
    9.2449  -14.7683   23.0881 O   0  0  0  0  0  0  0  0  0  0  0  0
    7.6500  -11.6682   25.4547 C   0  0  0  0  0  0  0  0  0  0  0  0
    6.5241  -12.6567   25.8050 C   0  0  2  0  0  0  0  0  0  0  0  0
    5.5823  -11.8942   26.7117 C   0  0  0  0  0  0  0  0  0  0  0  0
    7.1997  -13.7883   26.5354 C   0  0  0  0  0  0  0  0  0  0  0  0
    8.0563  -14.6659   25.6677 C   0  0  2  0  0  0  0  0  0  0  0  0
    7.4274  -15.0695   24.4504 N   0  0  0  0  0  0  0  0  0  0  0  0
    8.6603  -15.8168   26.3590 C   0  0  0  0  0  0  0  0  0  0  0  0
    9.3211  -15.6128   27.4017 O   0  0  0  0  0  0  0  0  0  0  0  0
    8.5374  -17.1201   25.9181 O   0  0  0  0  0  0  0  0  0  0  0  0
  1  2  1  0
  2  3  1  0
  3  4  1  6
  3  5  1  0
  5  6  2  0
  7  5  1  0
  7  8  1  0
  9  8  1  0
  9 10  2  0
 12 14  1  0
 12 11  1  1
 13 12  1  0
 15 14  1  1
 15 16  1  0
 16  9  1  0
 17 15  1  0
 17 19  1  0
 18 17  2  0
M  END
$$$$
