DYR.pdb
     RDKit          3D

 32 32  0  0  1  0  0  0  0  0999 V2000
   31.8022    3.6906  -10.7575 N   0  0  0  0  0  0  0  0  0  0  0  0
   31.9424    2.6010   -9.8257 C   0  0  1  0  0  0  0  0  0  0  0  0
   33.4245    2.4383   -9.5182 C   0  0  0  0  0  0  0  0  0  0  0  0
   34.1462    1.7488  -10.6131 C   0  0  0  0  0  0  0  0  0  0  0  0
   33.9267    2.0008  -11.8249 O   0  0  0  0  0  0  0  0  0  0  0  0
   31.1587    2.8169   -8.5858 C   0  0  0  0  0  0  0  0  0  0  0  0
   31.1705    3.9917   -8.1291 O   0  0  0  0  0  0  0  0  0  0  0  0
   35.1142    0.7750  -10.3004 O   0  0  0  0  0  0  0  0  0  0  0  0
   24.9775    1.7356   -2.1560 O   0  0  0  0  0  0  0  0  0  0  0  0
   25.8442    1.5779   -3.2412 C   0  0  0  0  0  0  0  0  0  0  0  0
   25.7744    2.3948   -4.3506 C   0  0  0  0  0  0  0  0  0  0  0  0
   26.6304    2.2378   -5.4206 C   0  0  0  0  0  0  0  0  0  0  0  0
   27.6017    1.2581   -5.4422 C   0  0  0  0  0  0  0  0  0  0  0  0
   28.5436    1.0243   -6.5538 C   0  0  0  0  0  0  0  0  0  0  0  0
   29.5912    2.0697   -6.7353 C   0  0  2  0  0  0  0  0  0  0  0  0
   30.4203    1.8242   -7.9003 N   0  0  0  0  0  0  0  0  0  0  0  0
   30.4682    2.1163   -5.5426 C   0  0  0  0  0  0  0  0  0  0  0  0
   31.5394    1.4774   -5.6076 O   0  0  0  0  0  0  0  0  0  0  0  0
   27.6688    0.4328   -4.3157 C   0  0  0  0  0  0  0  0  0  0  0  0
   26.8107    0.5948   -3.2498 C   0  0  0  0  0  0  0  0  0  0  0  0
   37.0490    5.6313   -3.6612 N   0  0  0  0  0  0  0  0  0  0  0  0
   36.5468    4.3034   -3.8823 C   0  0  0  0  0  0  0  0  0  0  0  0
   37.2604    3.4203   -4.4824 N   0  0  0  0  0  0  0  0  0  0  0  0
   35.2518    3.9348   -3.4293 N   0  0  0  0  0  0  0  0  0  0  0  0
   34.3985    4.7910   -2.6454 C   0  0  0  0  0  0  0  0  0  0  0  0
   33.1372    3.9944   -2.3082 C   0  0  0  0  0  0  0  0  0  0  0  0
   32.2509    3.8193   -3.4870 C   0  0  0  0  0  0  0  0  0  0  0  0
   30.9679    3.0586   -3.2252 C   0  0  2  0  0  0  0  0  0  0  0  0
   30.1464    2.8351   -4.3712 N   0  0  0  0  0  0  0  0  0  0  0  0
   30.2942    3.6397   -2.0584 C   0  0  0  0  0  0  0  0  0  0  0  0
   30.5722    3.2227   -0.7675 O   0  0  0  0  0  0  0  0  0  0  0  0
   29.4350    4.5445   -2.2100 O   0  0  0  0  0  0  0  0  0  0  0  0
  2  1  1  6
  2  3  1  0
  3  4  1  0
  4  8  1  0
  5  4  2  0
  6  2  1  0
  7  6  2  0
  9 10  1  0
 10 11  2  0
 11 12  1  0
 13 12  2  0
 13 14  1  0
 15 16  1  0
 15 14  1  1
 16  6  1  0
 17 15  1  0
 18 17  2  0
 19 13  1  0
 20 10  1  0
 20 19  2  0
 22 21  1  0
 22 23  2  0
 24 22  1  0
 25 24  1  0
 26 25  1  0
 26 27  1  0
 28 27  1  6
 28 29  1  0
 29 17  1  0
 30 31  1  0
 30 28  1  0
 32 30  2  0
M  END
$$$$
