DYR.pdb
     RDKit          3D

 32 32  0  0  1  0  0  0  0  0999 V2000
   28.0982  -23.1548  -18.2190 N   0  0  0  0  0  0  0  0  0  0  0  0
   26.9034  -23.1048  -17.4159 C   0  0  1  0  0  0  0  0  0  0  0  0
   26.5723  -24.5266  -16.9840 C   0  0  0  0  0  0  0  0  0  0  0  0
   26.0777  -25.3488  -18.1130 C   0  0  0  0  0  0  0  0  0  0  0  0
   25.9176  -24.8773  -19.2672 O   0  0  0  0  0  0  0  0  0  0  0  0
   27.0510  -22.2096  -16.2433 C   0  0  0  0  0  0  0  0  0  0  0  0
   28.1433  -22.2996  -15.6207 O   0  0  0  0  0  0  0  0  0  0  0  0
   25.7723  -26.7070  -17.9003 O   0  0  0  0  0  0  0  0  0  0  0  0
   29.7356  -16.4357  -18.5503 O   0  0  0  0  0  0  0  0  0  0  0  0
   28.8264  -17.0512  -17.6852 C   0  0  0  0  0  0  0  0  0  0  0  0
   29.1904  -17.4565  -16.4180 C   0  0  0  0  0  0  0  0  0  0  0  0
   28.2919  -18.0637  -15.5657 C   0  0  0  0  0  0  0  0  0  0  0  0
   26.9825  -18.2995  -15.9310 C   0  0  0  0  0  0  0  0  0  0  0  0
   25.9703  -18.9520  -15.0784 C   0  0  0  0  0  0  0  0  0  0  0  0
   26.2716  -20.3599  -14.6907 C   0  0  2  0  0  0  0  0  0  0  0  0
   26.0788  -21.2884  -15.7887 N   0  0  0  0  0  0  0  0  0  0  0  0
   25.3923  -20.7736  -13.5728 C   0  0  0  0  0  0  0  0  0  0  0  0
   24.1758  -20.8932  -13.8296 O   0  0  0  0  0  0  0  0  0  0  0  0
   26.6181  -17.8868  -17.2161 C   0  0  0  0  0  0  0  0  0  0  0  0
   27.5204  -17.2807  -18.0629 C   0  0  0  0  0  0  0  0  0  0  0  0
   27.7584  -20.6314   -5.0948 N   0  0  0  0  0  0  0  0  0  0  0  0
   27.3235  -19.5417   -5.9243 C   0  0  0  0  0  0  0  0  0  0  0  0
   27.7373  -18.3449   -5.7109 N   0  0  0  0  0  0  0  0  0  0  0  0
   26.4340  -19.7681   -7.0087 N   0  0  0  0  0  0  0  0  0  0  0  0
   25.8458  -21.0472   -7.3146 C   0  0  0  0  0  0  0  0  0  0  0  0
   24.9796  -20.8653   -8.5619 C   0  0  0  0  0  0  0  0  0  0  0  0
   25.7930  -20.7487   -9.7991 C   0  0  0  0  0  0  0  0  0  0  0  0
   25.1013  -21.1883  -11.0725 C   0  0  2  0  0  0  0  0  0  0  0  0
   25.8656  -21.0298  -12.2679 N   0  0  0  0  0  0  0  0  0  0  0  0
   23.7454  -20.6283  -11.1009 C   0  0  0  0  0  0  0  0  0  0  0  0
   23.4954  -19.3323  -11.5202 O   0  0  0  0  0  0  0  0  0  0  0  0
   22.7652  -21.3266  -10.7384 O   0  0  0  0  0  0  0  0  0  0  0  0
  2  1  1  1
  2  3  1  0
  3  4  1  0
  4  8  1  0
  5  4  2  0
  6  2  1  0
  7  6  2  0
  9 10  1  0
 10 11  2  0
 11 12  1  0
 13 12  2  0
 13 14  1  0
 15 16  1  0
 15 14  1  6
 16  6  1  0
 17 15  1  0
 18 17  2  0
 19 13  1  0
 20 10  1  0
 20 19  2  0
 22 21  1  0
 22 23  2  0
 24 22  1  0
 25 24  1  0
 26 25  1  0
 26 27  1  0
 28 27  1  1
 28 29  1  0
 29 17  1  0
 30 31  1  0
 30 28  1  0
 32 30  2  0
M  END
$$$$
