DYR.pdb
     RDKit          3D

 32 32  0  0  1  0  0  0  0  0999 V2000
   29.4366  -19.3425  -18.8395 N   0  0  0  0  0  0  0  0  0  0  0  0
   28.2891  -18.7922  -18.1645 C   0  0  1  0  0  0  0  0  0  0  0  0
   27.1519  -18.7063  -19.1730 C   0  0  0  0  0  0  0  0  0  0  0  0
   27.3756  -17.6355  -20.1721 C   0  0  0  0  0  0  0  0  0  0  0  0
   28.2498  -16.7454  -20.0179 O   0  0  0  0  0  0  0  0  0  0  0  0
   27.8956  -19.5931  -16.9805 C   0  0  0  0  0  0  0  0  0  0  0  0
   27.8700  -20.8420  -17.1491 O   0  0  0  0  0  0  0  0  0  0  0  0
   26.5890  -17.6008  -21.3397 O   0  0  0  0  0  0  0  0  0  0  0  0
   25.2757  -21.7536   -8.6380 O   0  0  0  0  0  0  0  0  0  0  0  0
   25.7911  -21.1259   -9.7757 C   0  0  0  0  0  0  0  0  0  0  0  0
   27.0193  -21.4699  -10.3010 C   0  0  0  0  0  0  0  0  0  0  0  0
   27.5263  -20.8495  -11.4237 C   0  0  0  0  0  0  0  0  0  0  0  0
   26.8364  -19.8529  -12.0826 C   0  0  0  0  0  0  0  0  0  0  0  0
   27.3194  -19.1386  -13.2801 C   0  0  0  0  0  0  0  0  0  0  0  0
   27.1465  -19.8643  -14.5712 C   0  0  2  0  0  0  0  0  0  0  0  0
   27.5570  -19.0673  -15.7119 N   0  0  0  0  0  0  0  0  0  0  0  0
   25.7246  -20.2373  -14.7528 C   0  0  0  0  0  0  0  0  0  0  0  0
   24.9012  -19.3001  -14.8124 O   0  0  0  0  0  0  0  0  0  0  0  0
   25.5921  -19.5077  -11.5468 C   0  0  0  0  0  0  0  0  0  0  0  0
   25.0909  -20.1313  -10.4249 C   0  0  0  0  0  0  0  0  0  0  0  0
   19.7743  -25.4992  -13.6921 N   0  0  0  0  0  0  0  0  0  0  0  0
   20.5508  -26.3187  -14.5808 C   0  0  0  0  0  0  0  0  0  0  0  0
   19.9856  -27.0055  -15.5071 N   0  0  0  0  0  0  0  0  0  0  0  0
   21.9652  -26.3768  -14.4611 N   0  0  0  0  0  0  0  0  0  0  0  0
   22.7228  -25.6309  -13.4889 C   0  0  0  0  0  0  0  0  0  0  0  0
   22.6496  -24.1558  -13.8863 C   0  0  0  0  0  0  0  0  0  0  0  0
   23.9920  -23.5770  -14.1490 C   0  0  0  0  0  0  0  0  0  0  0  0
   24.0045  -22.1043  -14.5013 C   0  0  2  0  0  0  0  0  0  0  0  0
   25.2807  -21.5730  -14.8578 N   0  0  0  0  0  0  0  0  0  0  0  0
   23.2644  -21.3587  -13.4770 C   0  0  0  0  0  0  0  0  0  0  0  0
   21.8911  -21.1921  -13.5394 O   0  0  0  0  0  0  0  0  0  0  0  0
   23.8735  -20.8465  -12.5041 O   0  0  0  0  0  0  0  0  0  0  0  0
  2  1  1  6
  2  3  1  0
  3  4  1  0
  4  8  1  0
  5  4  2  0
  6  2  1  0
  7  6  2  0
  9 10  1  0
 10 11  2  0
 11 12  1  0
 13 12  2  0
 13 14  1  0
 15 16  1  0
 15 14  1  1
 16  6  1  0
 17 15  1  0
 18 17  2  0
 19 13  1  0
 20 10  1  0
 20 19  2  0
 22 21  1  0
 22 23  2  0
 24 22  1  0
 25 24  1  0
 26 25  1  0
 26 27  1  0
 28 27  1  1
 28 29  1  0
 29 17  1  0
 30 31  1  0
 30 28  1  0
 32 30  2  0
M  END
$$$$
