DYR.pdb
     RDKit          3D

 32 32  0  0  1  0  0  0  0  0999 V2000
   28.9544  -20.8561  -15.0465 N   0  0  0  0  0  0  0  0  0  0  0  0
   28.0772  -19.9230  -14.3869 C   0  0  1  0  0  0  0  0  0  0  0  0
   27.4928  -19.0020  -15.4488 C   0  0  0  0  0  0  0  0  0  0  0  0
   28.5480  -18.3281  -16.2409 C   0  0  0  0  0  0  0  0  0  0  0  0
   29.5018  -17.7118  -15.7017 O   0  0  0  0  0  0  0  0  0  0  0  0
   27.0063  -20.6036  -13.6201 C   0  0  0  0  0  0  0  0  0  0  0  0
   26.0517  -21.0626  -14.3034 O   0  0  0  0  0  0  0  0  0  0  0  0
   28.4935  -18.3709  -17.6474 O   0  0  0  0  0  0  0  0  0  0  0  0
   28.2643  -18.4347   -6.2942 O   0  0  0  0  0  0  0  0  0  0  0  0
   27.8643  -19.3544   -7.2678 C   0  0  0  0  0  0  0  0  0  0  0  0
   28.7795  -20.0292   -8.0487 C   0  0  0  0  0  0  0  0  0  0  0  0
   28.3830  -20.9363   -9.0090 C   0  0  0  0  0  0  0  0  0  0  0  0
   27.0530  -21.2194   -9.2425 C   0  0  0  0  0  0  0  0  0  0  0  0
   26.5549  -22.1677  -10.2574 C   0  0  0  0  0  0  0  0  0  0  0  0
   25.9953  -21.5475  -11.4925 C   0  0  2  0  0  0  0  0  0  0  0  0
   26.9828  -20.7686  -12.2155 N   0  0  0  0  0  0  0  0  0  0  0  0
   24.8665  -20.6552  -11.1409 C   0  0  0  0  0  0  0  0  0  0  0  0
   25.1533  -19.4755  -10.8476 O   0  0  0  0  0  0  0  0  0  0  0  0
   26.1291  -20.5334   -8.4486 C   0  0  0  0  0  0  0  0  0  0  0  0
   26.5315  -19.6282   -7.4907 C   0  0  0  0  0  0  0  0  0  0  0  0
   21.4840  -17.9952  -18.0609 N   0  0  0  0  0  0  0  0  0  0  0  0
   20.5744  -17.5676  -17.0341 C   0  0  0  0  0  0  0  0  0  0  0  0
   19.6277  -16.7400  -17.2948 N   0  0  0  0  0  0  0  0  0  0  0  0
   20.6960  -18.0624  -15.7079 N   0  0  0  0  0  0  0  0  0  0  0  0
   21.7788  -18.8985  -15.2561 C   0  0  0  0  0  0  0  0  0  0  0  0
   21.5196  -19.2268  -13.7850 C   0  0  0  0  0  0  0  0  0  0  0  0
   22.5845  -20.0838  -13.2041 C   0  0  0  0  0  0  0  0  0  0  0  0
   22.3969  -20.4514  -11.7471 C   0  0  2  0  0  0  0  0  0  0  0  0
   23.5198  -21.0775  -11.1263 N   0  0  0  0  0  0  0  0  0  0  0  0
   21.1110  -21.1396  -11.5868 C   0  0  0  0  0  0  0  0  0  0  0  0
   19.9867  -20.4909  -11.1042 O   0  0  0  0  0  0  0  0  0  0  0  0
   21.0020  -22.3546  -11.8897 O   0  0  0  0  0  0  0  0  0  0  0  0
  2  1  1  6
  2  3  1  0
  3  4  1  0
  4  8  1  0
  5  4  2  0
  6  2  1  0
  7  6  2  0
  9 10  1  0
 10 11  2  0
 11 12  1  0
 13 12  2  0
 13 14  1  0
 15 16  1  0
 15 14  1  1
 16  6  1  0
 17 15  1  0
 18 17  2  0
 19 13  1  0
 20 10  1  0
 20 19  2  0
 22 21  1  0
 22 23  2  0
 24 22  1  0
 25 24  1  0
 26 25  1  0
 26 27  1  0
 28 27  1  6
 28 29  1  0
 29 17  1  0
 30 31  1  0
 30 28  1  0
 32 30  2  0
M  END
$$$$
