DYR.pdb
     RDKit          3D

 32 32  0  0  1  0  0  0  0  0999 V2000
   17.1016  -20.8298  -16.7862 N   0  0  0  0  0  0  0  0  0  0  0  0
   16.6116  -21.8154  -15.8569 C   0  0  1  0  0  0  0  0  0  0  0  0
   15.8997  -22.8973  -16.6570 C   0  0  0  0  0  0  0  0  0  0  0  0
   14.5180  -22.5023  -17.0178 C   0  0  0  0  0  0  0  0  0  0  0  0
   13.8016  -23.1922  -17.7866 O   0  0  0  0  0  0  0  0  0  0  0  0
   17.6949  -22.3907  -15.0241 C   0  0  0  0  0  0  0  0  0  0  0  0
   18.5195  -23.1260  -15.6311 O   0  0  0  0  0  0  0  0  0  0  0  0
   13.9755  -21.3153  -16.4889 O   0  0  0  0  0  0  0  0  0  0  0  0
   22.7301  -17.8777  -15.2168 O   0  0  0  0  0  0  0  0  0  0  0  0
   21.9912  -18.7824  -14.4493 C   0  0  0  0  0  0  0  0  0  0  0  0
   22.5414  -19.9588  -13.9843 C   0  0  0  0  0  0  0  0  0  0  0  0
   21.8107  -20.8505  -13.2271 C   0  0  0  0  0  0  0  0  0  0  0  0
   20.4925  -20.6175  -12.8930 C   0  0  0  0  0  0  0  0  0  0  0  0
   19.6472  -21.5284  -12.0973 C   0  0  0  0  0  0  0  0  0  0  0  0
   19.0013  -22.6336  -12.8621 C   0  0  2  0  0  0  0  0  0  0  0  0
   17.8620  -22.1774  -13.6358 N   0  0  0  0  0  0  0  0  0  0  0  0
   18.5377  -23.6872  -11.9299 C   0  0  0  0  0  0  0  0  0  0  0  0
   17.4226  -23.5131  -11.3951 O   0  0  0  0  0  0  0  0  0  0  0  0
   19.9392  -19.4240  -13.3663 C   0  0  0  0  0  0  0  0  0  0  0  0
   20.6744  -18.5371  -14.1223 C   0  0  0  0  0  0  0  0  0  0  0  0
   22.1348  -31.6987  -10.7545 N   0  0  0  0  0  0  0  0  0  0  0  0
   21.0908  -31.1618  -11.5830 C   0  0  0  0  0  0  0  0  0  0  0  0
   20.8001  -31.7030  -12.7106 N   0  0  0  0  0  0  0  0  0  0  0  0
   20.3480  -30.0252  -11.1650 N   0  0  0  0  0  0  0  0  0  0  0  0
   20.5454  -29.3519   -9.9067 C   0  0  0  0  0  0  0  0  0  0  0  0
   19.5388  -28.2023   -9.8406 C   0  0  0  0  0  0  0  0  0  0  0  0
   19.9247  -27.0661  -10.7158 C   0  0  0  0  0  0  0  0  0  0  0  0
   18.9382  -25.9180  -10.7589 C   0  0  2  0  0  0  0  0  0  0  0  0
   19.2881  -24.8454  -11.6338 N   0  0  0  0  0  0  0  0  0  0  0  0
   18.5853  -25.5356   -9.3870 C   0  0  0  0  0  0  0  0  0  0  0  0
   17.5534  -26.1490   -8.6967 O   0  0  0  0  0  0  0  0  0  0  0  0
   19.2244  -24.6264   -8.7998 O   0  0  0  0  0  0  0  0  0  0  0  0
  2  1  1  6
  2  3  1  0
  3  4  1  0
  4  8  1  0
  5  4  2  0
  6  2  1  0
  7  6  2  0
  9 10  1  0
 10 11  2  0
 11 12  1  0
 13 12  2  0
 13 14  1  0
 15 16  1  0
 15 14  1  1
 16  6  1  0
 17 15  1  0
 18 17  2  0
 19 13  1  0
 20 10  1  0
 20 19  2  0
 22 21  1  0
 22 23  2  0
 24 22  1  0
 25 24  1  0
 26 25  1  0
 26 27  1  0
 28 27  1  1
 28 29  1  0
 29 17  1  0
 30 31  1  0
 30 28  1  0
 32 30  2  0
M  END
$$$$
