DYR.pdb
     RDKit          3D

 32 32  0  0  1  0  0  0  0  0999 V2000
   19.6227  -19.9265  -13.0804 N   0  0  0  0  0  0  0  0  0  0  0  0
   20.7805  -20.7507  -12.8453 C   0  0  1  0  0  0  0  0  0  0  0  0
   20.3604  -22.2041  -13.0152 C   0  0  0  0  0  0  0  0  0  0  0  0
   19.3953  -22.6282  -11.9741 C   0  0  0  0  0  0  0  0  0  0  0  0
   19.5315  -22.3144  -10.7645 O   0  0  0  0  0  0  0  0  0  0  0  0
   21.9063  -20.4097  -13.7477 C   0  0  0  0  0  0  0  0  0  0  0  0
   21.6400  -20.4139  -14.9798 O   0  0  0  0  0  0  0  0  0  0  0  0
   18.2822  -23.4106  -12.3376 O   0  0  0  0  0  0  0  0  0  0  0  0
   29.8092  -17.4877  -16.8169 O   0  0  0  0  0  0  0  0  0  0  0  0
   28.7555  -17.9124  -16.0025 C   0  0  0  0  0  0  0  0  0  0  0  0
   28.6727  -19.2093  -15.5400 C   0  0  0  0  0  0  0  0  0  0  0  0
   27.6323  -19.6267  -14.7365 C   0  0  0  0  0  0  0  0  0  0  0  0
   26.6186  -18.7738  -14.3511 C   0  0  0  0  0  0  0  0  0  0  0  0
   25.4709  -19.1513  -13.5040 C   0  0  0  0  0  0  0  0  0  0  0  0
   24.3032  -19.7292  -14.2290 C   0  0  2  0  0  0  0  0  0  0  0  0
   23.2201  -20.0892  -13.3334 N   0  0  0  0  0  0  0  0  0  0  0  0
   24.7194  -20.9445  -14.9664 C   0  0  0  0  0  0  0  0  0  0  0  0
   24.7053  -22.0196  -14.3309 O   0  0  0  0  0  0  0  0  0  0  0  0
   26.7069  -17.4603  -14.8219 C   0  0  0  0  0  0  0  0  0  0  0  0
   27.7490  -17.0494  -15.6244 C   0  0  0  0  0  0  0  0  0  0  0  0
   22.8483  -27.8009  -16.9346 N   0  0  0  0  0  0  0  0  0  0  0  0
   22.4360  -26.6882  -16.1244 C   0  0  0  0  0  0  0  0  0  0  0  0
   21.9026  -26.8744  -14.9711 N   0  0  0  0  0  0  0  0  0  0  0  0
   22.6218  -25.3548  -16.5780 N   0  0  0  0  0  0  0  0  0  0  0  0
   22.7208  -24.9825  -17.9663 C   0  0  0  0  0  0  0  0  0  0  0  0
   23.9537  -24.0895  -18.1131 C   0  0  0  0  0  0  0  0  0  0  0  0
   23.9701  -22.9858  -17.1194 C   0  0  0  0  0  0  0  0  0  0  0  0
   25.1310  -22.0212  -17.2422 C   0  0  2  0  0  0  0  0  0  0  0  0
   25.1188  -20.9313  -16.3201 N   0  0  0  0  0  0  0  0  0  0  0  0
   25.3112  -21.6632  -18.6537 C   0  0  0  0  0  0  0  0  0  0  0  0
   25.2921  -20.3474  -19.0852 O   0  0  0  0  0  0  0  0  0  0  0  0
   25.4896  -22.5603  -19.5158 O   0  0  0  0  0  0  0  0  0  0  0  0
  2  1  1  6
  2  3  1  0
  3  4  1  0
  4  8  1  0
  5  4  2  0
  6  2  1  0
  7  6  2  0
  9 10  1  0
 10 11  2  0
 11 12  1  0
 13 12  2  0
 13 14  1  0
 15 16  1  0
 15 14  1  1
 16  6  1  0
 17 15  1  0
 18 17  2  0
 19 13  1  0
 20 10  1  0
 20 19  2  0
 22 21  1  0
 22 23  2  0
 24 22  1  0
 25 24  1  0
 26 25  1  0
 26 27  1  0
 28 27  1  6
 28 29  1  0
 29 17  1  0
 30 31  1  0
 30 28  1  0
 32 30  2  0
M  END
$$$$
