DYR.pdb
     RDKit          3D

 32 32  0  0  1  0  0  0  0  0999 V2000
   17.2007  -10.0038  -12.8210 N   0  0  0  0  0  0  0  0  0  0  0  0
   17.3934   -8.6753  -12.2987 C   0  0  1  0  0  0  0  0  0  0  0  0
   17.6484   -7.7440  -13.4757 C   0  0  0  0  0  0  0  0  0  0  0  0
   18.9464   -8.0231  -14.1333 C   0  0  0  0  0  0  0  0  0  0  0  0
   19.7159   -8.9359  -13.7397 O   0  0  0  0  0  0  0  0  0  0  0  0
   16.2377   -8.2149  -11.4922 C   0  0  0  0  0  0  0  0  0  0  0  0
   15.1268   -8.1993  -12.0878 O   0  0  0  0  0  0  0  0  0  0  0  0
   19.3450   -7.2469  -15.2386 O   0  0  0  0  0  0  0  0  0  0  0  0
   11.5745  -12.7948   -9.7385 O   0  0  0  0  0  0  0  0  0  0  0  0
   12.3605  -11.7005   -9.3662 C   0  0  0  0  0  0  0  0  0  0  0  0
   11.8040  -10.5504   -8.8463 C   0  0  0  0  0  0  0  0  0  0  0  0
   12.5810   -9.4715   -8.4795 C   0  0  0  0  0  0  0  0  0  0  0  0
   13.9544   -9.4812   -8.6114 C   0  0  0  0  0  0  0  0  0  0  0  0
   14.8472   -8.3631   -8.2508 C   0  0  0  0  0  0  0  0  0  0  0  0
   15.1451   -7.4017   -9.3510 C   0  0  2  0  0  0  0  0  0  0  0  0
   16.2942   -7.8041  -10.1399 N   0  0  0  0  0  0  0  0  0  0  0  0
   15.4160   -6.0592   -8.7870 C   0  0  0  0  0  0  0  0  0  0  0  0
   16.4161   -5.9523   -8.0465 O   0  0  0  0  0  0  0  0  0  0  0  0
   14.5140  -10.6490   -9.1384 C   0  0  0  0  0  0  0  0  0  0  0  0
   13.7322  -11.7236   -9.5029 C   0  0  0  0  0  0  0  0  0  0  0  0
   13.3314    2.5971  -10.8825 N   0  0  0  0  0  0  0  0  0  0  0  0
   13.7866    2.4909   -9.5238 C   0  0  0  0  0  0  0  0  0  0  0  0
   13.9255    3.5367   -8.7915 N   0  0  0  0  0  0  0  0  0  0  0  0
   14.0813    1.2222   -8.9565 N   0  0  0  0  0  0  0  0  0  0  0  0
   13.9412   -0.0271   -9.6602 C   0  0  0  0  0  0  0  0  0  0  0  0
   14.3279   -1.1442   -8.6898 C   0  0  0  0  0  0  0  0  0  0  0  0
   14.2207   -2.4896   -9.3096 C   0  0  0  0  0  0  0  0  0  0  0  0
   14.6796   -3.6415   -8.4402 C   0  0  2  0  0  0  0  0  0  0  0  0
   14.6091   -4.9310   -9.0488 N   0  0  0  0  0  0  0  0  0  0  0  0
   14.0561   -3.5233   -7.1173 C   0  0  0  0  0  0  0  0  0  0  0  0
   13.1362   -4.4492   -6.6543 O   0  0  0  0  0  0  0  0  0  0  0  0
   14.3496   -2.5613   -6.3636 O   0  0  0  0  0  0  0  0  0  0  0  0
  2  1  1  6
  2  3  1  0
  3  4  1  0
  4  8  1  0
  5  4  2  0
  6  2  1  0
  7  6  2  0
  9 10  1  0
 10 11  2  0
 11 12  1  0
 13 12  2  0
 13 14  1  0
 15 16  1  0
 15 14  1  1
 16  6  1  0
 17 15  1  0
 18 17  2  0
 19 13  1  0
 20 10  1  0
 20 19  2  0
 22 21  1  0
 22 23  2  0
 24 22  1  0
 25 24  1  0
 26 25  1  0
 26 27  1  0
 28 27  1  6
 28 29  1  0
 29 17  1  0
 30 31  1  0
 30 28  1  0
 32 30  2  0
M  END
$$$$
