DYR.pdb
     RDKit          3D

 32 32  0  0  1  0  0  0  0  0999 V2000
   27.7247  -21.0589  -17.4225 N   0  0  0  0  0  0  0  0  0  0  0  0
   28.1287  -21.8805  -18.5347 C   0  0  1  0  0  0  0  0  0  0  0  0
   29.6158  -21.6520  -18.7670 C   0  0  0  0  0  0  0  0  0  0  0  0
   29.8657  -20.5303  -19.7021 C   0  0  0  0  0  0  0  0  0  0  0  0
   28.9325  -19.8531  -20.2028 O   0  0  0  0  0  0  0  0  0  0  0  0
   27.8364  -23.3163  -18.3087 C   0  0  0  0  0  0  0  0  0  0  0  0
   28.2379  -24.1040  -19.2072 O   0  0  0  0  0  0  0  0  0  0  0  0
   31.1894  -20.2001  -20.0513 O   0  0  0  0  0  0  0  0  0  0  0  0
   32.9042  -27.6146  -17.6451 O   0  0  0  0  0  0  0  0  0  0  0  0
   31.6518  -27.1632  -17.2191 C   0  0  0  0  0  0  0  0  0  0  0  0
   31.4721  -25.8935  -16.7109 C   0  0  0  0  0  0  0  0  0  0  0  0
   30.2356  -25.4497  -16.2909 C   0  0  0  0  0  0  0  0  0  0  0  0
   29.1120  -26.2478  -16.3548 C   0  0  0  0  0  0  0  0  0  0  0  0
   27.7620  -25.8457  -15.9153 C   0  0  0  0  0  0  0  0  0  0  0  0
   26.8928  -25.2579  -16.9747 C   0  0  2  0  0  0  0  0  0  0  0  0
   27.1580  -23.8475  -17.1870 N   0  0  0  0  0  0  0  0  0  0  0  0
   25.4681  -25.4113  -16.5998 C   0  0  0  0  0  0  0  0  0  0  0  0
   24.9915  -24.5447  -15.8370 O   0  0  0  0  0  0  0  0  0  0  0  0
   29.2988  -27.5337  -16.8708 C   0  0  0  0  0  0  0  0  0  0  0  0
   30.5368  -27.9712  -17.2888 C   0  0  0  0  0  0  0  0  0  0  0  0
   19.4504  -22.5414  -14.2874 N   0  0  0  0  0  0  0  0  0  0  0  0
   19.5304  -22.5193  -15.7218 C   0  0  0  0  0  0  0  0  0  0  0  0
   19.1783  -21.4780  -16.3857 N   0  0  0  0  0  0  0  0  0  0  0  0
   20.0138  -23.6476  -16.4369 N   0  0  0  0  0  0  0  0  0  0  0  0
   20.3092  -24.9203  -15.8297 C   0  0  0  0  0  0  0  0  0  0  0  0
   20.8995  -25.8195  -16.9170 C   0  0  0  0  0  0  0  0  0  0  0  0
   22.3439  -25.5566  -17.1412 C   0  0  0  0  0  0  0  0  0  0  0  0
   23.2729  -26.6978  -16.7836 C   0  0  2  0  0  0  0  0  0  0  0  0
   24.6548  -26.4692  -17.0598 N   0  0  0  0  0  0  0  0  0  0  0  0
   22.7156  -27.9519  -17.3027 C   0  0  0  0  0  0  0  0  0  0  0  0
   21.4623  -28.4079  -16.9297 O   0  0  0  0  0  0  0  0  0  0  0  0
   23.3769  -28.6508  -18.1114 O   0  0  0  0  0  0  0  0  0  0  0  0
  2  1  1  1
  2  3  1  0
  3  4  1  0
  4  8  1  0
  5  4  2  0
  6  2  1  0
  7  6  2  0
  9 10  1  0
 10 11  2  0
 11 12  1  0
 13 12  2  0
 13 14  1  0
 15 16  1  0
 15 14  1  1
 16  6  1  0
 17 15  1  0
 18 17  2  0
 19 13  1  0
 20 10  1  0
 20 19  2  0
 22 21  1  0
 22 23  2  0
 24 22  1  0
 25 24  1  0
 26 25  1  0
 26 27  1  0
 28 27  1  6
 28 29  1  0
 29 17  1  0
 30 31  1  0
 30 28  1  0
 32 30  2  0
M  END
$$$$
