DYR.pdb
     RDKit          3D

 32 32  0  0  1  0  0  0  0  0999 V2000
   23.5651  -13.2501  -17.8605 N   0  0  0  0  0  0  0  0  0  0  0  0
   22.5532  -12.2318  -17.9801 C   0  0  1  0  0  0  0  0  0  0  0  0
   21.1953  -12.9200  -17.9659 C   0  0  0  0  0  0  0  0  0  0  0  0
   20.8589  -13.5114  -19.2820 C   0  0  0  0  0  0  0  0  0  0  0  0
   21.6282  -13.4265  -20.2726 O   0  0  0  0  0  0  0  0  0  0  0  0
   22.6493  -11.2146  -16.9058 C   0  0  0  0  0  0  0  0  0  0  0  0
   22.6212  -11.6601  -15.7269 O   0  0  0  0  0  0  0  0  0  0  0  0
   19.6384  -14.1951  -19.4437 O   0  0  0  0  0  0  0  0  0  0  0  0
   28.9550  -11.0066  -16.5320 O   0  0  0  0  0  0  0  0  0  0  0  0
   27.7672  -10.2797  -16.4110 C   0  0  0  0  0  0  0  0  0  0  0  0
   27.0915  -10.1875  -15.2120 C   0  0  0  0  0  0  0  0  0  0  0  0
   25.9196   -9.4699  -15.0943 C   0  0  0  0  0  0  0  0  0  0  0  0
   25.3583   -8.8057  -16.1655 C   0  0  0  0  0  0  0  0  0  0  0  0
   24.1047   -8.0289  -16.1173 C   0  0  0  0  0  0  0  0  0  0  0  0
   22.8537   -8.8369  -16.0430 C   0  0  2  0  0  0  0  0  0  0  0  0
   22.7670   -9.8195  -17.1068 N   0  0  0  0  0  0  0  0  0  0  0  0
   21.6732   -7.9471  -16.1355 C   0  0  0  0  0  0  0  0  0  0  0  0
   21.4403   -7.4368  -17.2514 O   0  0  0  0  0  0  0  0  0  0  0  0
   26.0468   -8.9017  -17.3786 C   0  0  0  0  0  0  0  0  0  0  0  0
   27.2173   -9.6202  -17.4897 C   0  0  0  0  0  0  0  0  0  0  0  0
   14.6014   -9.6857  -11.5512 N   0  0  0  0  0  0  0  0  0  0  0  0
   15.1155  -10.3735  -12.7032 C   0  0  0  0  0  0  0  0  0  0  0  0
   14.5753  -11.4630  -13.1159 N   0  0  0  0  0  0  0  0  0  0  0  0
   16.2274   -9.8546  -13.4192 N   0  0  0  0  0  0  0  0  0  0  0  0
   16.8998   -8.6256  -13.0829 C   0  0  0  0  0  0  0  0  0  0  0  0
   17.9664   -8.3809  -14.1513 C   0  0  0  0  0  0  0  0  0  0  0  0
   18.6651   -7.0841  -13.9617 C   0  0  0  0  0  0  0  0  0  0  0  0
   19.7229   -6.7613  -14.9961 C   0  0  2  0  0  0  0  0  0  0  0  0
   20.8280   -7.6640  -15.0410 N   0  0  0  0  0  0  0  0  0  0  0  0
   20.0635   -5.3369  -14.9069 C   0  0  0  0  0  0  0  0  0  0  0  0
   21.3741   -4.9006  -14.8084 O   0  0  0  0  0  0  0  0  0  0  0  0
   19.1556   -4.4678  -14.9181 O   0  0  0  0  0  0  0  0  0  0  0  0
  2  1  1  1
  2  3  1  0
  3  4  1  0
  4  8  1  0
  5  4  2  0
  6  2  1  0
  7  6  2  0
  9 10  1  0
 10 11  2  0
 11 12  1  0
 13 12  2  0
 13 14  1  0
 15 16  1  0
 15 14  1  6
 16  6  1  0
 17 15  1  0
 18 17  2  0
 19 13  1  0
 20 10  1  0
 20 19  2  0
 22 21  1  0
 22 23  2  0
 24 22  1  0
 25 24  1  0
 26 25  1  0
 26 27  1  0
 28 27  1  1
 28 29  1  0
 29 17  1  0
 30 31  1  0
 30 28  1  0
 32 30  2  0
M  END
$$$$
