DYR.pdb
     RDKit          3D

 32 32  0  0  1  0  0  0  0  0999 V2000
   28.2998  -23.1640  -17.9254 N   0  0  0  0  0  0  0  0  0  0  0  0
   27.2736  -22.1631  -17.7834 C   0  0  1  0  0  0  0  0  0  0  0  0
   26.3353  -22.2850  -18.9760 C   0  0  0  0  0  0  0  0  0  0  0  0
   26.9797  -21.8473  -20.2363 C   0  0  0  0  0  0  0  0  0  0  0  0
   26.5840  -22.2382  -21.3637 O   0  0  0  0  0  0  0  0  0  0  0  0
   26.5343  -22.2929  -16.5049 C   0  0  0  0  0  0  0  0  0  0  0  0
   26.1652  -23.4597  -16.2028 O   0  0  0  0  0  0  0  0  0  0  0  0
   28.0744  -20.9629  -20.1849 O   0  0  0  0  0  0  0  0  0  0  0  0
   23.6036  -20.6222   -8.1971 O   0  0  0  0  0  0  0  0  0  0  0  0
   24.2144  -20.5717   -9.4533 C   0  0  0  0  0  0  0  0  0  0  0  0
   25.3956  -21.2350   -9.7134 C   0  0  0  0  0  0  0  0  0  0  0  0
   25.9970  -21.1840  -10.9536 C   0  0  0  0  0  0  0  0  0  0  0  0
   25.4534  -20.4689  -12.0009 C   0  0  0  0  0  0  0  0  0  0  0  0
   26.0443  -20.3604  -13.3486 C   0  0  0  0  0  0  0  0  0  0  0  0
   25.5902  -21.3861  -14.3309 C   0  0  2  0  0  0  0  0  0  0  0  0
   26.2239  -21.2287  -15.6265 N   0  0  0  0  0  0  0  0  0  0  0  0
   24.1238  -21.2911  -14.5166 C   0  0  0  0  0  0  0  0  0  0  0  0
   23.7086  -20.3665  -15.2464 O   0  0  0  0  0  0  0  0  0  0  0  0
   24.2562  -19.7985  -11.7327 C   0  0  0  0  0  0  0  0  0  0  0  0
   23.6602  -19.8534  -10.4915 C   0  0  0  0  0  0  0  0  0  0  0  0
   18.3878  -25.8017  -10.9080 N   0  0  0  0  0  0  0  0  0  0  0  0
   17.4286  -24.7529  -11.1191 C   0  0  0  0  0  0  0  0  0  0  0  0
   16.1748  -25.0149  -11.2107 N   0  0  0  0  0  0  0  0  0  0  0  0
   17.8472  -23.3989  -11.2186 N   0  0  0  0  0  0  0  0  0  0  0  0
   19.2080  -22.9611  -11.0395 C   0  0  0  0  0  0  0  0  0  0  0  0
   19.7231  -22.4999  -12.4037 C   0  0  0  0  0  0  0  0  0  0  0  0
   21.2061  -22.5217  -12.4815 C   0  0  0  0  0  0  0  0  0  0  0  0
   21.7933  -22.0298  -13.7878 C   0  0  2  0  0  0  0  0  0  0  0  0
   23.2070  -22.1811  -13.9166 N   0  0  0  0  0  0  0  0  0  0  0  0
   21.2635  -20.6930  -14.0797 C   0  0  0  0  0  0  0  0  0  0  0  0
   20.4534  -20.4481  -15.1759 O   0  0  0  0  0  0  0  0  0  0  0  0
   21.5396  -19.7252  -13.3269 O   0  0  0  0  0  0  0  0  0  0  0  0
  2  1  1  6
  2  3  1  0
  3  4  1  0
  4  8  1  0
  5  4  2  0
  6  2  1  0
  7  6  2  0
  9 10  1  0
 10 11  2  0
 11 12  1  0
 13 12  2  0
 13 14  1  0
 15 16  1  0
 15 14  1  1
 16  6  1  0
 17 15  1  0
 18 17  2  0
 19 13  1  0
 20 10  1  0
 20 19  2  0
 22 21  1  0
 22 23  2  0
 24 22  1  0
 25 24  1  0
 26 25  1  0
 26 27  1  0
 28 27  1  1
 28 29  1  0
 29 17  1  0
 30 31  1  0
 30 28  1  0
 32 30  2  0
M  END
$$$$
