DYR.pdb
     RDKit          3D

 32 32  0  0  1  0  0  0  0  0999 V2000
   21.1903  -20.0454  -11.3669 N   0  0  0  0  0  0  0  0  0  0  0  0
   21.9083  -21.0728  -12.0769 C   0  0  1  0  0  0  0  0  0  0  0  0
   21.2026  -21.3007  -13.4065 C   0  0  0  0  0  0  0  0  0  0  0  0
   19.8679  -21.9188  -13.2277 C   0  0  0  0  0  0  0  0  0  0  0  0
   19.3644  -22.1126  -12.0923 O   0  0  0  0  0  0  0  0  0  0  0  0
   23.3347  -20.7237  -12.2808 C   0  0  0  0  0  0  0  0  0  0  0  0
   23.5606  -19.8208  -13.1309 O   0  0  0  0  0  0  0  0  0  0  0  0
   19.1264  -22.3078  -14.3600 O   0  0  0  0  0  0  0  0  0  0  0  0
   25.3422  -18.9099   -5.6869 O   0  0  0  0  0  0  0  0  0  0  0  0
   25.6871  -19.4994   -6.9065 C   0  0  0  0  0  0  0  0  0  0  0  0
   26.7720  -19.0671   -7.6407 C   0  0  0  0  0  0  0  0  0  0  0  0
   27.1109  -19.6499   -8.8440 C   0  0  0  0  0  0  0  0  0  0  0  0
   26.3864  -20.6946   -9.3800 C   0  0  0  0  0  0  0  0  0  0  0  0
   26.6824  -21.3590  -10.6639 C   0  0  0  0  0  0  0  0  0  0  0  0
   25.8174  -20.9533  -11.8086 C   0  0  2  0  0  0  0  0  0  0  0  0
   24.4275  -21.3167  -11.6065 N   0  0  0  0  0  0  0  0  0  0  0  0
   26.2911  -21.6029  -13.0527 C   0  0  0  0  0  0  0  0  0  0  0  0
   26.2504  -22.8508  -13.0854 O   0  0  0  0  0  0  0  0  0  0  0  0
   25.2880  -21.1295   -8.6323 C   0  0  0  0  0  0  0  0  0  0  0  0
   24.9546  -20.5432   -7.4307 C   0  0  0  0  0  0  0  0  0  0  0  0
   27.2665  -26.1191  -18.8502 N   0  0  0  0  0  0  0  0  0  0  0  0
   26.2010  -26.2306  -17.8927 C   0  0  0  0  0  0  0  0  0  0  0  0
   25.8487  -27.3750  -17.4288 N   0  0  0  0  0  0  0  0  0  0  0  0
   25.5215  -25.0726  -17.4284 N   0  0  0  0  0  0  0  0  0  0  0  0
   25.6088  -23.7802  -18.0589 C   0  0  0  0  0  0  0  0  0  0  0  0
   26.7084  -22.9952  -17.3420 C   0  0  0  0  0  0  0  0  0  0  0  0
   26.2223  -22.3630  -16.0891 C   0  0  0  0  0  0  0  0  0  0  0  0
   27.1894  -21.4009  -15.4318 C   0  0  2  0  0  0  0  0  0  0  0  0
   26.7718  -20.8840  -14.1682 N   0  0  0  0  0  0  0  0  0  0  0  0
   27.6224  -20.4054  -16.4189 C   0  0  0  0  0  0  0  0  0  0  0  0
   28.6571  -20.6529  -17.3054 O   0  0  0  0  0  0  0  0  0  0  0  0
   27.0525  -19.2868  -16.4807 O   0  0  0  0  0  0  0  0  0  0  0  0
  2  1  1  6
  2  3  1  0
  3  4  1  0
  4  8  1  0
  5  4  2  0
  6  2  1  0
  7  6  2  0
  9 10  1  0
 10 11  2  0
 11 12  1  0
 13 12  2  0
 13 14  1  0
 15 16  1  0
 15 14  1  1
 16  6  1  0
 17 15  1  0
 18 17  2  0
 19 13  1  0
 20 10  1  0
 20 19  2  0
 22 21  1  0
 22 23  2  0
 24 22  1  0
 25 24  1  0
 26 25  1  0
 26 27  1  0
 28 27  1  6
 28 29  1  0
 29 17  1  0
 30 31  1  0
 30 28  1  0
 32 30  2  0
M  END
$$$$
