ITW.pdb
     RDKit          3D

 30 31  0  0  1  0  0  0  0  0999 V2000
   17.0411  -17.4579  -21.3919 C   0  0  0  0  0  0  0  0  0  0  0  0
   18.3871  -17.3143  -20.7809 C   0  0  0  0  0  0  0  0  0  0  0  0
   18.5882  -16.0112  -20.0782 C   0  0  2  0  0  0  0  0  0  0  0  0
   18.4861  -14.8835  -21.1218 C   0  0  0  0  0  0  0  0  0  0  0  0
   19.9659  -15.9914  -19.4426 C   0  0  2  0  0  0  0  0  0  0  0  0
   19.9559  -17.0602  -18.4400 N   0  0  0  0  0  0  0  0  0  0  0  0
   20.1013  -14.7109  -18.6971 C   0  0  0  0  0  0  0  0  0  0  0  0
   19.3152  -14.5027  -17.7243 O   0  0  0  0  0  0  0  0  0  0  0  0
   23.0827  -13.3719  -16.8814 C   0  0  0  0  0  0  0  0  0  0  0  0
   22.5482  -12.2833  -17.7552 C   0  0  1  0  0  0  0  0  0  0  0  0
   23.2698  -12.0600  -18.8991 O   0  0  0  0  0  0  0  0  0  0  0  0
   21.0941  -12.5149  -18.1345 C   0  0  2  0  0  0  0  0  0  0  0  0
   21.0384  -13.7011  -18.9814 N   0  0  0  0  0  0  0  0  0  0  0  0
   20.6071  -11.3234  -18.8419 C   0  0  0  0  0  0  0  0  0  0  0  0
   20.3649  -11.3155  -20.0856 O   0  0  0  0  0  0  0  0  0  0  0  0
   20.3927  -10.1272  -18.1166 N   0  0  0  0  0  0  0  0  0  0  0  0
   19.9002   -8.9121  -18.7786 C   0  0  1  0  0  0  0  0  0  0  0  0
   18.6659   -9.3084  -19.5401 C   0  0  0  0  0  0  0  0  0  0  0  0
   17.9263   -8.2502  -20.2032 C   0  0  0  0  0  0  0  0  0  0  0  0
   18.4718   -7.2186  -20.9486 C   0  0  0  0  0  0  0  0  0  0  0  0
   17.4870   -6.4168  -21.3733 N   0  0  0  0  0  0  0  0  0  0  0  0
   16.3094   -6.9100  -20.9172 C   0  0  0  0  0  0  0  0  0  0  0  0
   14.9966   -6.5082  -21.0583 C   0  0  0  0  0  0  0  0  0  0  0  0
   13.9594   -7.2174  -20.4930 C   0  0  0  0  0  0  0  0  0  0  0  0
   14.2319   -8.3565  -19.7677 C   0  0  0  0  0  0  0  0  0  0  0  0
   15.5241   -8.7907  -19.6023 C   0  0  0  0  0  0  0  0  0  0  0  0
   16.5558   -8.0581  -20.1817 C   0  0  0  0  0  0  0  0  0  0  0  0
   19.7295   -7.8149  -17.8315 C   0  0  0  0  0  0  0  0  0  0  0  0
   19.9670   -7.9291  -16.4768 O   0  0  0  0  0  0  0  0  0  0  0  0
   19.3372   -6.6729  -18.2300 O   0  0  0  0  0  0  0  0  0  0  0  0
  1  2  1  0
  2  3  1  0
  3  4  1  6
  5  6  1  1
  5  3  1  0
  7  8  2  0
  7  5  1  0
 10  9  1  6
 10 12  1  0
 11 10  1  0
 12 14  1  0
 12 13  1  6
 13  7  1  0
 14 16  1  0
 15 14  2  0
 16 17  1  0
 17 28  1  0
 17 18  1  1
 19 18  1  0
 19 27  1  0
 20 21  1  0
 20 19  2  0
 21 22  1  0
 22 27  2  0
 22 23  1  0
 23 24  2  0
 24 25  1  0
 26 25  2  0
 27 26  1  0
 28 30  2  0
 28 29  1  0
M  END
$$$$
