ITW.pdb
     RDKit          3D

 30 31  0  0  1  0  0  0  0  0999 V2000
   19.7304  -11.6273  -18.2091 C   0  0  0  0  0  0  0  0  0  0  0  0
   20.9369  -12.4755  -18.0343 C   0  0  0  0  0  0  0  0  0  0  0  0
   20.6251  -13.8870  -17.6565 C   0  0  2  0  0  0  0  0  0  0  0  0
   20.8755  -14.0448  -16.1453 C   0  0  0  0  0  0  0  0  0  0  0  0
   21.5390  -14.8250  -18.4230 C   0  0  2  0  0  0  0  0  0  0  0  0
   21.2169  -14.6242  -19.8385 N   0  0  0  0  0  0  0  0  0  0  0  0
   21.1383  -16.2186  -18.0899 C   0  0  0  0  0  0  0  0  0  0  0  0
   19.9057  -16.5117  -18.1403 O   0  0  0  0  0  0  0  0  0  0  0  0
   22.0491  -19.3279  -19.7857 C   0  0  0  0  0  0  0  0  0  0  0  0
   22.2690  -19.5670  -18.3267 C   0  0  1  0  0  0  0  0  0  0  0  0
   23.5827  -19.5534  -17.9352 O   0  0  0  0  0  0  0  0  0  0  0  0
   21.4933  -18.5860  -17.4620 C   0  0  2  0  0  0  0  0  0  0  0  0
   22.0200  -17.2508  -17.7213 N   0  0  0  0  0  0  0  0  0  0  0  0
   21.6697  -18.9720  -16.0558 C   0  0  0  0  0  0  0  0  0  0  0  0
   22.4923  -18.3945  -15.2843 O   0  0  0  0  0  0  0  0  0  0  0  0
   20.8935  -20.0302  -15.5260 N   0  0  0  0  0  0  0  0  0  0  0  0
   21.0437  -20.4609  -14.1299 C   0  0  1  0  0  0  0  0  0  0  0  0
   20.7501  -19.2590  -13.2758 C   0  0  0  0  0  0  0  0  0  0  0  0
   20.6174  -19.4760  -11.8469 C   0  0  0  0  0  0  0  0  0  0  0  0
   21.6566  -19.5621  -10.9359 C   0  0  0  0  0  0  0  0  0  0  0  0
   21.1532  -19.8024   -9.7186 N   0  0  0  0  0  0  0  0  0  0  0  0
   19.8033  -19.8732   -9.8222 C   0  0  0  0  0  0  0  0  0  0  0  0
   18.7930  -20.0806   -8.9050 C   0  0  0  0  0  0  0  0  0  0  0  0
   17.4673  -20.0878   -9.2799 C   0  0  0  0  0  0  0  0  0  0  0  0
   17.1343  -19.8837  -10.6011 C   0  0  0  0  0  0  0  0  0  0  0  0
   18.1086  -19.6744  -11.5460 C   0  0  0  0  0  0  0  0  0  0  0  0
   19.4411  -19.6721  -11.1444 C   0  0  0  0  0  0  0  0  0  0  0  0
   20.2424  -21.6466  -13.8434 C   0  0  0  0  0  0  0  0  0  0  0  0
   20.6343  -22.6435  -12.9731 O   0  0  0  0  0  0  0  0  0  0  0  0
   19.1153  -21.8161  -14.4071 O   0  0  0  0  0  0  0  0  0  0  0  0
  1  2  1  0
  2  3  1  0
  3  4  1  1
  5  6  1  6
  5  3  1  0
  7  8  2  0
  7  5  1  0
 10  9  1  6
 10 12  1  0
 11 10  1  0
 12 14  1  0
 12 13  1  1
 13  7  1  0
 14 16  1  0
 15 14  2  0
 16 17  1  0
 17 28  1  0
 17 18  1  1
 19 18  1  0
 19 27  1  0
 20 21  1  0
 20 19  2  0
 21 22  1  0
 22 27  2  0
 22 23  1  0
 23 24  2  0
 24 25  1  0
 26 25  2  0
 27 26  1  0
 28 30  2  0
 28 29  1  0
M  END
$$$$
