ITW.pdb
     RDKit          3D

 30 31  0  0  1  0  0  0  0  0999 V2000
   19.9097  -22.0162  -16.9283 C   0  0  0  0  0  0  0  0  0  0  0  0
   20.3645  -21.0794  -15.8695 C   0  0  0  0  0  0  0  0  0  0  0  0
   20.4688  -21.7096  -14.5189 C   0  0  2  0  0  0  0  0  0  0  0  0
   19.0786  -22.2475  -14.1326 C   0  0  0  0  0  0  0  0  0  0  0  0
   20.9068  -20.6641  -13.5100 C   0  0  2  0  0  0  0  0  0  0  0  0
   22.2466  -20.2444  -13.9297 N   0  0  0  0  0  0  0  0  0  0  0  0
   21.0667  -21.3433  -12.1960 C   0  0  0  0  0  0  0  0  0  0  0  0
   21.8946  -22.3004  -12.1174 O   0  0  0  0  0  0  0  0  0  0  0  0
   22.4190  -20.1657   -8.9901 C   0  0  0  0  0  0  0  0  0  0  0  0
   21.0605  -20.7325   -8.7302 C   0  0  1  0  0  0  0  0  0  0  0  0
   20.0646  -19.7991   -8.6034 O   0  0  0  0  0  0  0  0  0  0  0  0
   20.6488  -21.7425   -9.7895 C   0  0  2  0  0  0  0  0  0  0  0  0
   20.3713  -21.0095  -11.0196 N   0  0  0  0  0  0  0  0  0  0  0  0
   19.4598  -22.4572   -9.3072 C   0  0  0  0  0  0  0  0  0  0  0  0
   18.2850  -22.1638   -9.6804 O   0  0  0  0  0  0  0  0  0  0  0  0
   19.6176  -23.5221   -8.3884 N   0  0  0  0  0  0  0  0  0  0  0  0
   18.4551  -24.2145   -7.8170 C   0  0  1  0  0  0  0  0  0  0  0  0
   18.3046  -25.5016   -8.5794 C   0  0  0  0  0  0  0  0  0  0  0  0
   17.2285  -26.3891   -8.1784 C   0  0  0  0  0  0  0  0  0  0  0  0
   15.8789  -26.0795   -8.1661 C   0  0  0  0  0  0  0  0  0  0  0  0
   15.1923  -27.1319   -7.7035 N   0  0  0  0  0  0  0  0  0  0  0  0
   16.0727  -28.1217   -7.4152 C   0  0  0  0  0  0  0  0  0  0  0  0
   15.9279  -29.4068   -6.9330 C   0  0  0  0  0  0  0  0  0  0  0  0
   17.0135  -30.2335   -6.7426 C   0  0  0  0  0  0  0  0  0  0  0  0
   18.2777  -29.7729   -7.0387 C   0  0  0  0  0  0  0  0  0  0  0  0
   18.4661  -28.5006   -7.5199 C   0  0  0  0  0  0  0  0  0  0  0  0
   17.3550  -27.6830   -7.7036 C   0  0  0  0  0  0  0  0  0  0  0  0
   18.5689  -24.3515   -6.3684 C   0  0  0  0  0  0  0  0  0  0  0  0
   19.7254  -24.0872   -5.6629 O   0  0  0  0  0  0  0  0  0  0  0  0
   17.5747  -24.7375   -5.6761 O   0  0  0  0  0  0  0  0  0  0  0  0
  1  2  1  0
  2  3  1  0
  3  4  1  1
  5  6  1  6
  5  3  1  0
  7  8  2  0
  7  5  1  0
 10  9  1  6
 10 12  1  0
 11 10  1  0
 12 14  1  0
 12 13  1  6
 13  7  1  0
 14 16  1  0
 15 14  2  0
 16 17  1  0
 17 28  1  0
 17 18  1  6
 19 18  1  0
 19 27  1  0
 20 21  1  0
 20 19  2  0
 21 22  1  0
 22 27  2  0
 22 23  1  0
 23 24  2  0
 24 25  1  0
 26 25  2  0
 27 26  1  0
 28 30  2  0
 28 29  1  0
M  END
$$$$
