ITW.pdb
     RDKit          3D

 30 31  0  0  1  0  0  0  0  0999 V2000
   24.8975  -20.3231  -18.6623 C   0  0  0  0  0  0  0  0  0  0  0  0
   25.6410  -20.7634  -17.4544 C   0  0  0  0  0  0  0  0  0  0  0  0
   26.9622  -20.0863  -17.2864 C   0  0  2  0  0  0  0  0  0  0  0  0
   27.8556  -20.4768  -18.4783 C   0  0  0  0  0  0  0  0  0  0  0  0
   27.6056  -20.5554  -15.9947 C   0  0  2  0  0  0  0  0  0  0  0  0
   27.4877  -22.0161  -16.0002 N   0  0  0  0  0  0  0  0  0  0  0  0
   26.7664  -20.0658  -14.8680 C   0  0  0  0  0  0  0  0  0  0  0  0
   26.6619  -18.8128  -14.7044 O   0  0  0  0  0  0  0  0  0  0  0  0
   23.3482  -19.5640  -14.2174 C   0  0  0  0  0  0  0  0  0  0  0  0
   23.8472  -20.4663  -13.1352 C   0  0  1  0  0  0  0  0  0  0  0  0
   23.6140  -21.8002  -13.3482 O   0  0  0  0  0  0  0  0  0  0  0  0
   25.3300  -20.2688  -12.8629 C   0  0  2  0  0  0  0  0  0  0  0  0
   26.0698  -20.8832  -13.9595 N   0  0  0  0  0  0  0  0  0  0  0  0
   25.6500  -20.8998  -11.5758 C   0  0  0  0  0  0  0  0  0  0  0  0
   26.1372  -22.0660  -11.4861 O   0  0  0  0  0  0  0  0  0  0  0  0
   25.4115  -20.1863  -10.3770 N   0  0  0  0  0  0  0  0  0  0  0  0
   25.6728  -20.7919   -9.0646 C   0  0  1  0  0  0  0  0  0  0  0  0
   26.6662  -19.9016   -8.3711 C   0  0  0  0  0  0  0  0  0  0  0  0
   26.9792  -20.2073   -6.9872 C   0  0  0  0  0  0  0  0  0  0  0  0
   26.3373  -21.1437   -6.1944 C   0  0  0  0  0  0  0  0  0  0  0  0
   26.8744  -21.1212   -4.9680 N   0  0  0  0  0  0  0  0  0  0  0  0
   27.8558  -20.1861   -4.9497 C   0  0  0  0  0  0  0  0  0  0  0  0
   28.7346  -19.7548   -3.9768 C   0  0  0  0  0  0  0  0  0  0  0  0
   29.6705  -18.7763   -4.2311 C   0  0  0  0  0  0  0  0  0  0  0  0
   29.7367  -18.2097   -5.4852 C   0  0  0  0  0  0  0  0  0  0  0  0
   28.8804  -18.6093   -6.4817 C   0  0  0  0  0  0  0  0  0  0  0  0
   27.9427  -19.5988   -6.2017 C   0  0  0  0  0  0  0  0  0  0  0  0
   24.4357  -21.0437   -8.3323 C   0  0  0  0  0  0  0  0  0  0  0  0
   24.3354  -21.9334   -7.2819 O   0  0  0  0  0  0  0  0  0  0  0  0
   23.3639  -20.4363   -8.6469 O   0  0  0  0  0  0  0  0  0  0  0  0
  1  2  1  0
  2  3  1  0
  3  4  1  6
  5  6  1  6
  5  3  1  0
  7  8  2  0
  7  5  1  0
 10  9  1  6
 10 12  1  0
 11 10  1  0
 12 14  1  0
 12 13  1  6
 13  7  1  0
 14 16  1  0
 15 14  2  0
 16 17  1  0
 17 28  1  0
 17 18  1  1
 19 18  1  0
 19 27  1  0
 20 21  1  0
 20 19  2  0
 21 22  1  0
 22 27  2  0
 22 23  1  0
 23 24  2  0
 24 25  1  0
 26 25  2  0
 27 26  1  0
 28 30  2  0
 28 29  1  0
M  END
$$$$
