ITW.pdb
     RDKit          3D

 30 31  0  0  1  0  0  0  0  0999 V2000
   21.7626  -22.4994  -11.3597 C   0  0  0  0  0  0  0  0  0  0  0  0
   21.9961  -21.0886  -10.9591 C   0  0  0  0  0  0  0  0  0  0  0  0
   22.9722  -20.3727  -11.8349 C   0  0  2  0  0  0  0  0  0  0  0  0
   22.5431  -20.5795  -13.2993 C   0  0  0  0  0  0  0  0  0  0  0  0
   24.3570  -20.9564  -11.6245 C   0  0  2  0  0  0  0  0  0  0  0  0
   24.7167  -20.6357  -10.2406 N   0  0  0  0  0  0  0  0  0  0  0  0
   25.3013  -20.2043  -12.4941 C   0  0  0  0  0  0  0  0  0  0  0  0
   25.4737  -18.9705  -12.2581 O   0  0  0  0  0  0  0  0  0  0  0  0
   28.8431  -20.1498  -12.8042 C   0  0  0  0  0  0  0  0  0  0  0  0
   28.3257  -20.3869  -14.1863 C   0  0  1  0  0  0  0  0  0  0  0  0
   28.3887  -21.6902  -14.6063 O   0  0  0  0  0  0  0  0  0  0  0  0
   26.8993  -19.8889  -14.3574 C   0  0  2  0  0  0  0  0  0  0  0  0
   26.0287  -20.7515  -13.5665 N   0  0  0  0  0  0  0  0  0  0  0  0
   26.5603  -19.9436  -15.7854 C   0  0  0  0  0  0  0  0  0  0  0  0
   26.3383  -21.0312  -16.3964 O   0  0  0  0  0  0  0  0  0  0  0  0
   26.4723  -18.7386  -16.5225 N   0  0  0  0  0  0  0  0  0  0  0  0
   26.1324  -18.7421  -17.9514 C   0  0  1  0  0  0  0  0  0  0  0  0
   24.7577  -19.3404  -18.0642 C   0  0  0  0  0  0  0  0  0  0  0  0
   23.6296  -18.4688  -17.7916 C   0  0  0  0  0  0  0  0  0  0  0  0
   23.1526  -17.4695  -18.6230 C   0  0  0  0  0  0  0  0  0  0  0  0
   22.1256  -16.8540  -18.0234 N   0  0  0  0  0  0  0  0  0  0  0  0
   21.9258  -17.4368  -16.8158 C   0  0  0  0  0  0  0  0  0  0  0  0
   21.0146  -17.2243  -15.8012 C   0  0  0  0  0  0  0  0  0  0  0  0
   21.0179  -17.9893  -14.6554 C   0  0  0  0  0  0  0  0  0  0  0  0
   21.9508  -18.9929  -14.5119 C   0  0  0  0  0  0  0  0  0  0  0  0
   22.8757  -19.2372  -15.4971 C   0  0  0  0  0  0  0  0  0  0  0  0
   22.8540  -18.4513  -16.6454 C   0  0  0  0  0  0  0  0  0  0  0  0
   26.2929  -17.4189  -18.5459 C   0  0  0  0  0  0  0  0  0  0  0  0
   26.2046  -17.1727  -19.9011 O   0  0  0  0  0  0  0  0  0  0  0  0
   26.5333  -16.4070  -17.8145 O   0  0  0  0  0  0  0  0  0  0  0  0
  1  2  1  0
  2  3  1  0
  3  4  1  6
  5  6  1  1
  5  3  1  0
  7  8  2  0
  7  5  1  0
 10  9  1  1
 10 12  1  0
 11 10  1  0
 12 14  1  0
 12 13  1  1
 13  7  1  0
 14 16  1  0
 15 14  2  0
 16 17  1  0
 17 28  1  0
 17 18  1  1
 19 18  1  0
 19 27  1  0
 20 21  1  0
 20 19  2  0
 21 22  1  0
 22 27  2  0
 22 23  1  0
 23 24  2  0
 24 25  1  0
 26 25  2  0
 27 26  1  0
 28 30  2  0
 28 29  1  0
M  END
$$$$
