ITW.pdb
     RDKit          3D

 30 31  0  0  1  0  0  0  0  0999 V2000
   22.6838  -19.6785  -20.3829 C   0  0  0  0  0  0  0  0  0  0  0  0
   22.8253  -19.2320  -18.9735 C   0  0  0  0  0  0  0  0  0  0  0  0
   21.5693  -19.3659  -18.1755 C   0  0  2  0  0  0  0  0  0  0  0  0
   20.4904  -18.4823  -18.8286 C   0  0  0  0  0  0  0  0  0  0  0  0
   21.8234  -18.8915  -16.7567 C   0  0  2  0  0  0  0  0  0  0  0  0
   22.5821  -17.6443  -16.8852 N   0  0  0  0  0  0  0  0  0  0  0  0
   22.7307  -19.8755  -16.1069 C   0  0  0  0  0  0  0  0  0  0  0  0
   22.2803  -21.0379  -15.8756 O   0  0  0  0  0  0  0  0  0  0  0  0
   25.4883  -22.0883  -16.7315 C   0  0  0  0  0  0  0  0  0  0  0  0
   25.9290  -21.1405  -15.6630 C   0  0  1  0  0  0  0  0  0  0  0  0
   26.6970  -20.0948  -16.1055 O   0  0  0  0  0  0  0  0  0  0  0  0
   24.7560  -20.5825  -14.8727 C   0  0  2  0  0  0  0  0  0  0  0  0
   24.0609  -19.6240  -15.7245 N   0  0  0  0  0  0  0  0  0  0  0  0
   25.2806  -19.9441  -13.6584 C   0  0  0  0  0  0  0  0  0  0  0  0
   25.2030  -18.6965  -13.4514 O   0  0  0  0  0  0  0  0  0  0  0  0
   25.8995  -20.7439  -12.6683 N   0  0  0  0  0  0  0  0  0  0  0  0
   26.3893  -20.1595  -11.4129 C   0  0  1  0  0  0  0  0  0  0  0  0
   25.2350  -19.4085  -10.8097 C   0  0  0  0  0  0  0  0  0  0  0  0
   24.2964  -20.1683  -10.0046 C   0  0  0  0  0  0  0  0  0  0  0  0
   24.4635  -20.5239   -8.6768 C   0  0  0  0  0  0  0  0  0  0  0  0
   23.4100  -21.2502   -8.2820 N   0  0  0  0  0  0  0  0  0  0  0  0
   22.5597  -21.3725   -9.3307 C   0  0  0  0  0  0  0  0  0  0  0  0
   21.3353  -21.9892   -9.4899 C   0  0  0  0  0  0  0  0  0  0  0  0
   20.6552  -21.9466  -10.6873 C   0  0  0  0  0  0  0  0  0  0  0  0
   21.2047  -21.2738  -11.7566 C   0  0  0  0  0  0  0  0  0  0  0  0
   22.4212  -20.6471  -11.6411 C   0  0  0  0  0  0  0  0  0  0  0  0
   23.0904  -20.7040  -10.4222 C   0  0  0  0  0  0  0  0  0  0  0  0
   27.0017  -21.1674  -10.5531 C   0  0  0  0  0  0  0  0  0  0  0  0
   27.7270  -20.8670   -9.4180 O   0  0  0  0  0  0  0  0  0  0  0  0
   26.8913  -22.4040  -10.8278 O   0  0  0  0  0  0  0  0  0  0  0  0
  1  2  1  0
  2  3  1  0
  3  4  1  6
  5  6  1  6
  5  3  1  0
  7  8  2  0
  7  5  1  0
 10  9  1  6
 10 12  1  0
 11 10  1  0
 12 14  1  0
 12 13  1  6
 13  7  1  0
 14 16  1  0
 15 14  2  0
 16 17  1  0
 17 28  1  0
 17 18  1  1
 19 18  1  0
 19 27  1  0
 20 21  1  0
 20 19  2  0
 21 22  1  0
 22 27  2  0
 22 23  1  0
 23 24  2  0
 24 25  1  0
 26 25  2  0
 27 26  1  0
 28 30  2  0
 28 29  1  0
M  END
$$$$
