ITW.pdb
     RDKit          3D

 30 31  0  0  1  0  0  0  0  0999 V2000
   25.5666  -22.9135  -20.9230 C   0  0  0  0  0  0  0  0  0  0  0  0
   26.7337  -22.3724  -20.1808 C   0  0  0  0  0  0  0  0  0  0  0  0
   26.5592  -22.3918  -18.6971 C   0  0  2  0  0  0  0  0  0  0  0  0
   25.3283  -21.5347  -18.3483 C   0  0  0  0  0  0  0  0  0  0  0  0
   27.7922  -21.8006  -18.0392 C   0  0  2  0  0  0  0  0  0  0  0  0
   28.8448  -22.8089  -18.1905 N   0  0  0  0  0  0  0  0  0  0  0  0
   27.5170  -21.6892  -16.5813 C   0  0  0  0  0  0  0  0  0  0  0  0
   27.4820  -22.7572  -15.8989 O   0  0  0  0  0  0  0  0  0  0  0  0
   29.3051  -19.6932  -13.8467 C   0  0  0  0  0  0  0  0  0  0  0  0
   27.8367  -19.4172  -13.8010 C   0  0  1  0  0  0  0  0  0  0  0  0
   27.4617  -18.2174  -14.3479 O   0  0  0  0  0  0  0  0  0  0  0  0
   27.0248  -20.5246  -14.4538 C   0  0  2  0  0  0  0  0  0  0  0  0
   27.2917  -20.4866  -15.8872 N   0  0  0  0  0  0  0  0  0  0  0  0
   25.6049  -20.2877  -14.1627 C   0  0  0  0  0  0  0  0  0  0  0  0
   24.7950  -19.8321  -15.0241 O   0  0  0  0  0  0  0  0  0  0  0  0
   25.1054  -20.5779  -12.8707 N   0  0  0  0  0  0  0  0  0  0  0  0
   23.7021  -20.3219  -12.5206 C   0  0  1  0  0  0  0  0  0  0  0  0
   22.8679  -21.1515  -13.4566 C   0  0  0  0  0  0  0  0  0  0  0  0
   21.4280  -21.1071  -13.2795 C   0  0  0  0  0  0  0  0  0  0  0  0
   20.6549  -22.0667  -12.6480 C   0  0  0  0  0  0  0  0  0  0  0  0
   19.3679  -21.7021  -12.7091 N   0  0  0  0  0  0  0  0  0  0  0  0
   19.2907  -20.5205  -13.3693 C   0  0  0  0  0  0  0  0  0  0  0  0
   18.2405  -19.6897  -13.7038 C   0  0  0  0  0  0  0  0  0  0  0  0
   18.4427  -18.5058  -14.3788 C   0  0  0  0  0  0  0  0  0  0  0  0
   19.7220  -18.1355  -14.7318 C   0  0  0  0  0  0  0  0  0  0  0  0
   20.7949  -18.9334  -14.4188 C   0  0  0  0  0  0  0  0  0  0  0  0
   20.5667  -20.1252  -13.7373 C   0  0  0  0  0  0  0  0  0  0  0  0
   23.4543  -20.5377  -11.0986 C   0  0  0  0  0  0  0  0  0  0  0  0
   23.4480  -21.7827  -10.5030 O   0  0  0  0  0  0  0  0  0  0  0  0
   23.2217  -19.5542  -10.3270 O   0  0  0  0  0  0  0  0  0  0  0  0
  1  2  1  0
  2  3  1  0
  3  4  1  6
  5  6  1  1
  5  3  1  0
  7  8  2  0
  7  5  1  0
 10  9  1  6
 10 12  1  0
 11 10  1  0
 12 14  1  0
 12 13  1  6
 13  7  1  0
 14 16  1  0
 15 14  2  0
 16 17  1  0
 17 28  1  0
 17 18  1  6
 19 18  1  0
 19 27  1  0
 20 21  1  0
 20 19  2  0
 21 22  1  0
 22 27  2  0
 22 23  1  0
 23 24  2  0
 24 25  1  0
 26 25  2  0
 27 26  1  0
 28 30  2  0
 28 29  1  0
M  END
$$$$
