ITW.pdb
     RDKit          3D

 30 31  0  0  1  0  0  0  0  0999 V2000
   28.2019  -16.1492  -18.1048 C   0  0  0  0  0  0  0  0  0  0  0  0
   28.4210  -17.3656  -17.2815 C   0  0  0  0  0  0  0  0  0  0  0  0
   27.5554  -17.4277  -16.0654 C   0  0  2  0  0  0  0  0  0  0  0  0
   28.3493  -18.1288  -14.9476 C   0  0  0  0  0  0  0  0  0  0  0  0
   26.3057  -18.2290  -16.3795 C   0  0  2  0  0  0  0  0  0  0  0  0
   25.4565  -17.3425  -17.1799 N   0  0  0  0  0  0  0  0  0  0  0  0
   25.5859  -18.4642  -15.0987 C   0  0  0  0  0  0  0  0  0  0  0  0
   24.9222  -17.5038  -14.6039 O   0  0  0  0  0  0  0  0  0  0  0  0
   22.6324  -19.8272  -14.2054 C   0  0  0  0  0  0  0  0  0  0  0  0
   23.6002  -20.5439  -13.3200 C   0  0  1  0  0  0  0  0  0  0  0  0
   23.9344  -21.8056  -13.7389 O   0  0  0  0  0  0  0  0  0  0  0  0
   24.8778  -19.7481  -13.1050 C   0  0  2  0  0  0  0  0  0  0  0  0
   25.5772  -19.6751  -14.3829 N   0  0  0  0  0  0  0  0  0  0  0  0
   25.6833  -20.4359  -12.0875 C   0  0  0  0  0  0  0  0  0  0  0  0
   26.8371  -20.9019  -12.3261 O   0  0  0  0  0  0  0  0  0  0  0  0
   25.1626  -20.5901  -10.7805 N   0  0  0  0  0  0  0  0  0  0  0  0
   26.0036  -21.0714   -9.6767 C   0  0  1  0  0  0  0  0  0  0  0  0
   27.1599  -20.1164   -9.5701 C   0  0  0  0  0  0  0  0  0  0  0  0
   28.1940  -20.4310   -8.6015 C   0  0  0  0  0  0  0  0  0  0  0  0
   29.2435  -21.3148   -8.7883 C   0  0  0  0  0  0  0  0  0  0  0  0
   29.9717  -21.3734   -7.6660 N   0  0  0  0  0  0  0  0  0  0  0  0
   29.4139  -20.5417   -6.7522 C   0  0  0  0  0  0  0  0  0  0  0  0
   29.7449  -20.2001   -5.4566 C   0  0  0  0  0  0  0  0  0  0  0  0
   29.0007  -19.2912   -4.7367 C   0  0  0  0  0  0  0  0  0  0  0  0
   27.8977  -18.7049   -5.3178 C   0  0  0  0  0  0  0  0  0  0  0  0
   27.5331  -19.0173   -6.6044 C   0  0  0  0  0  0  0  0  0  0  0  0
   28.2992  -19.9386   -7.3122 C   0  0  0  0  0  0  0  0  0  0  0  0
   25.2299  -21.2609   -8.4538 C   0  0  0  0  0  0  0  0  0  0  0  0
   25.5838  -22.1430   -7.4530 O   0  0  0  0  0  0  0  0  0  0  0  0
   24.1603  -20.6021   -8.2576 O   0  0  0  0  0  0  0  0  0  0  0  0
  1  2  1  0
  2  3  1  0
  3  4  1  1
  5  6  1  6
  5  3  1  0
  7  8  2  0
  7  5  1  0
 10  9  1  6
 10 12  1  0
 11 10  1  0
 12 14  1  0
 12 13  1  6
 13  7  1  0
 14 16  1  0
 15 14  2  0
 16 17  1  0
 17 28  1  0
 17 18  1  1
 19 18  1  0
 19 27  1  0
 20 21  1  0
 20 19  2  0
 21 22  1  0
 22 27  2  0
 22 23  1  0
 23 24  2  0
 24 25  1  0
 26 25  2  0
 27 26  1  0
 28 30  2  0
 28 29  1  0
M  END
$$$$
