ITW.pdb
     RDKit          3D

 30 31  0  0  1  0  0  0  0  0999 V2000
   28.5908  -18.8861  -19.4049 C   0  0  0  0  0  0  0  0  0  0  0  0
   28.5638  -17.7403  -18.4605 C   0  0  0  0  0  0  0  0  0  0  0  0
   29.8141  -17.6010  -17.6545 C   0  0  2  0  0  0  0  0  0  0  0  0
   31.0099  -17.5830  -18.6246 C   0  0  0  0  0  0  0  0  0  0  0  0
   29.9402  -18.7862  -16.7154 C   0  0  2  0  0  0  0  0  0  0  0  0
   29.7254  -19.9747  -17.5453 N   0  0  0  0  0  0  0  0  0  0  0  0
   28.8038  -18.7263  -15.7570 C   0  0  0  0  0  0  0  0  0  0  0  0
   28.7329  -17.7272  -14.9795 O   0  0  0  0  0  0  0  0  0  0  0  0
   25.4334  -17.9595  -16.2890 C   0  0  0  0  0  0  0  0  0  0  0  0
   25.4225  -19.2617  -15.5553 C   0  0  1  0  0  0  0  0  0  0  0  0
   25.2426  -20.3651  -16.3485 O   0  0  0  0  0  0  0  0  0  0  0  0
   26.6789  -19.4607  -14.7224 C   0  0  2  0  0  0  0  0  0  0  0  0
   27.7889  -19.6932  -15.6397 N   0  0  0  0  0  0  0  0  0  0  0  0
   26.4646  -20.6093  -13.8324 C   0  0  0  0  0  0  0  0  0  0  0  0
   27.1837  -21.6517  -13.8730 O   0  0  0  0  0  0  0  0  0  0  0  0
   25.4160  -20.5631  -12.8832 N   0  0  0  0  0  0  0  0  0  0  0  0
   25.2436  -21.6270  -11.8852 C   0  0  1  0  0  0  0  0  0  0  0  0
   26.4911  -21.6346  -11.0461 C   0  0  0  0  0  0  0  0  0  0  0  0
   26.4935  -20.8092   -9.8523 C   0  0  0  0  0  0  0  0  0  0  0  0
   25.4730  -19.9686   -9.4409 C   0  0  0  0  0  0  0  0  0  0  0  0
   25.8462  -19.3442   -8.3167 N   0  0  0  0  0  0  0  0  0  0  0  0
   27.0925  -19.7653   -7.9891 C   0  0  0  0  0  0  0  0  0  0  0  0
   27.9463  -19.4739   -6.9444 C   0  0  0  0  0  0  0  0  0  0  0  0
   29.1833  -20.0704   -6.8346 C   0  0  0  0  0  0  0  0  0  0  0  0
   29.5849  -20.9811   -7.7873 C   0  0  0  0  0  0  0  0  0  0  0  0
   28.7663  -21.2989   -8.8431 C   0  0  0  0  0  0  0  0  0  0  0  0
   27.5215  -20.6834   -8.9340 C   0  0  0  0  0  0  0  0  0  0  0  0
   23.9921  -21.4771  -11.1496 C   0  0  0  0  0  0  0  0  0  0  0  0
   23.4685  -22.4506  -10.3231 O   0  0  0  0  0  0  0  0  0  0  0  0
   23.3088  -20.4093  -11.2482 O   0  0  0  0  0  0  0  0  0  0  0  0
  1  2  1  0
  2  3  1  0
  3  4  1  6
  5  6  1  6
  5  3  1  0
  7  8  2  0
  7  5  1  0
 10  9  1  6
 10 12  1  0
 11 10  1  0
 12 14  1  0
 12 13  1  6
 13  7  1  0
 14 16  1  0
 15 14  2  0
 16 17  1  0
 17 28  1  0
 17 18  1  1
 19 18  1  0
 19 27  1  0
 20 21  1  0
 20 19  2  0
 21 22  1  0
 22 27  2  0
 22 23  1  0
 23 24  2  0
 24 25  1  0
 26 25  2  0
 27 26  1  0
 28 30  2  0
 28 29  1  0
M  END
$$$$
