KFI.pdb
     RDKit          3D

 29 29  0  0  1  0  0  0  0  0999 V2000
    8.8858  -17.4535   19.2560 N   0  0  0  0  0  0  0  0  0  0  0  0
   10.0420  -17.4774   20.0964 C   0  0  1  0  0  0  0  0  0  0  0  0
   11.3358  -17.3722   19.3236 C   0  0  0  0  0  0  0  0  0  0  0  0
   11.8957  -18.7024   18.9417 C   0  0  0  0  0  0  0  0  0  0  0  0
   12.8243  -19.2810   19.9642 C   0  0  0  0  0  0  0  0  0  0  0  0
   13.4063  -20.6044   19.5486 C   0  0  0  0  0  0  0  0  0  0  0  0
   14.3118  -21.0283   20.6026 N   0  0  0  0  0  0  0  0  0  0  0  0
    9.9317  -16.4259   21.1179 C   0  0  0  0  0  0  0  0  0  0  0  0
   10.6695  -15.3921   21.0171 O   0  0  0  0  0  0  0  0  0  0  0  0
    9.0482  -16.4828   22.2241 N   0  0  0  0  0  0  0  0  0  0  0  0
    8.9279  -15.3535   23.1816 C   0  0  1  0  0  0  0  0  0  0  0  0
    7.4824  -15.1041   23.3104 C   0  0  0  0  0  0  0  0  0  0  0  0
    7.0040  -14.0945   24.2300 C   0  0  0  0  0  0  0  0  0  0  0  0
    6.1960  -14.4679   25.2845 C   0  0  0  0  0  0  0  0  0  0  0  0
    5.7133  -13.5326   26.1863 C   0  0  0  0  0  0  0  0  0  0  0  0
    6.0309  -12.1956   26.0514 C   0  0  0  0  0  0  0  0  0  0  0  0
    6.8403  -11.8090   24.9983 C   0  0  0  0  0  0  0  0  0  0  0  0
    7.3237  -12.7314   24.0984 C   0  0  0  0  0  0  0  0  0  0  0  0
    9.5897  -15.8249   24.4166 C   0  0  0  0  0  0  0  0  0  0  0  0
    9.9768  -17.0492   24.4932 O   0  0  0  0  0  0  0  0  0  0  0  0
   10.8929  -14.3175   30.3277 C   0  0  0  0  0  0  0  0  0  0  0  0
   11.0590  -15.2320   29.1536 C   0  0  0  0  0  0  0  0  0  0  0  0
   10.4699  -14.6813   27.8875 C   0  0  2  0  0  0  0  0  0  0  0  0
    9.0727  -14.1948   28.1892 C   0  0  0  0  0  0  0  0  0  0  0  0
   10.4780  -15.6597   26.7266 C   0  0  2  0  0  0  0  0  0  0  0  0
    9.8562  -15.0408   25.5605 N   0  0  0  0  0  0  0  0  0  0  0  0
    9.7806  -16.8967   27.1385 C   0  0  0  0  0  0  0  0  0  0  0  0
   10.3135  -17.7400   27.9268 O   0  0  0  0  0  0  0  0  0  0  0  0
    8.5056  -17.2249   26.7002 O   0  0  0  0  0  0  0  0  0  0  0  0
  2  1  1  6
  2  3  1  0
  4  3  1  0
  4  5  1  0
  6  5  1  0
  6  7  1  0
  8  2  1  0
  9  8  2  0
 10  8  1  0
 11 10  1  0
 11 12  1  1
 12 13  1  0
 13 18  2  0
 14 13  1  0
 14 15  2  0
 15 16  1  0
 16 17  2  0
 18 17  1  0
 19 26  1  0
 19 11  1  0
 20 19  2  0
 22 21  1  0
 23 22  1  0
 23 24  1  1
 25 23  1  0
 25 26  1  6
 27 25  1  0
 27 29  1  0
 28 27  2  0
M  END
$$$$
