KFI.pdb
     RDKit          3D

 29 29  0  0  1  0  0  0  0  0999 V2000
   11.0923  -16.7600   19.2191 N   0  0  0  0  0  0  0  0  0  0  0  0
   10.4441  -17.3911   20.3259 C   0  0  1  0  0  0  0  0  0  0  0  0
   11.1667  -18.6278   20.8062 C   0  0  0  0  0  0  0  0  0  0  0  0
   10.9162  -19.8204   19.9438 C   0  0  0  0  0  0  0  0  0  0  0  0
   10.0972  -20.8831   20.6089 C   0  0  0  0  0  0  0  0  0  0  0  0
    9.7619  -22.0276   19.6920 C   0  0  0  0  0  0  0  0  0  0  0  0
    8.9194  -22.9463   20.4380 N   0  0  0  0  0  0  0  0  0  0  0  0
   10.2562  -16.4157   21.4097 C   0  0  0  0  0  0  0  0  0  0  0  0
   11.1732  -15.5592   21.6309 O   0  0  0  0  0  0  0  0  0  0  0  0
    9.1083  -16.3607   22.2385 N   0  0  0  0  0  0  0  0  0  0  0  0
    8.9318  -15.2888   23.2516 C   0  0  1  0  0  0  0  0  0  0  0  0
    7.5085  -14.9177   23.1824 C   0  0  0  0  0  0  0  0  0  0  0  0
    6.9537  -14.0028   24.1566 C   0  0  0  0  0  0  0  0  0  0  0  0
    6.0741  -14.4784   25.1075 C   0  0  0  0  0  0  0  0  0  0  0  0
    5.5171  -13.6358   26.0565 C   0  0  0  0  0  0  0  0  0  0  0  0
    5.8304  -12.2911   26.0745 C   0  0  0  0  0  0  0  0  0  0  0  0
    6.7112  -11.8025   25.1263 C   0  0  0  0  0  0  0  0  0  0  0  0
    7.2686  -12.6325   24.1805 C   0  0  0  0  0  0  0  0  0  0  0  0
    9.3542  -15.8965   24.5314 C   0  0  0  0  0  0  0  0  0  0  0  0
    9.7632  -17.1160   24.5423 O   0  0  0  0  0  0  0  0  0  0  0  0
   10.8571  -14.3702   30.3571 C   0  0  0  0  0  0  0  0  0  0  0  0
   11.1391  -15.1901   29.1363 C   0  0  0  0  0  0  0  0  0  0  0  0
   10.4028  -14.7106   27.9191 C   0  0  2  0  0  0  0  0  0  0  0  0
    9.0885  -14.1165   28.3658 C   0  0  0  0  0  0  0  0  0  0  0  0
   10.1974  -15.7797   26.8611 C   0  0  2  0  0  0  0  0  0  0  0  0
    9.3610  -15.2521   25.7880 N   0  0  0  0  0  0  0  0  0  0  0  0
    9.5997  -16.9734   27.4969 C   0  0  0  0  0  0  0  0  0  0  0  0
    8.3762  -17.2803   27.3376 O   0  0  0  0  0  0  0  0  0  0  0  0
   10.3229  -17.8386   28.3057 O   0  0  0  0  0  0  0  0  0  0  0  0
  2  1  1  6
  2  3  1  0
  4  3  1  0
  4  5  1  0
  6  5  1  0
  6  7  1  0
  8  2  1  0
  9  8  2  0
 10  8  1  0
 11 10  1  0
 11 12  1  1
 12 13  1  0
 13 18  2  0
 14 13  1  0
 14 15  2  0
 15 16  1  0
 16 17  2  0
 18 17  1  0
 19 26  1  0
 19 11  1  0
 20 19  2  0
 22 21  1  0
 23 22  1  0
 23 24  1  1
 25 23  1  0
 25 26  1  6
 27 25  1  0
 27 29  1  0
 28 27  2  0
M  END
$$$$
