KFI.pdb
     RDKit          3D

 29 29  0  0  1  0  0  0  0  0999 V2000
    9.4287  -16.5791   19.2991 N   0  0  0  0  0  0  0  0  0  0  0  0
    8.9911  -17.1855   20.5174 C   0  0  1  0  0  0  0  0  0  0  0  0
    9.6112  -18.5419   20.7577 C   0  0  0  0  0  0  0  0  0  0  0  0
    9.2681  -19.5350   19.6971 C   0  0  0  0  0  0  0  0  0  0  0  0
    9.8411  -20.8971   19.9396 C   0  0  0  0  0  0  0  0  0  0  0  0
    9.6022  -21.8477   18.7984 C   0  0  0  0  0  0  0  0  0  0  0  0
   10.2331  -23.1089   19.1474 N   0  0  0  0  0  0  0  0  0  0  0  0
    9.2357  -16.2690   21.6406 C   0  0  0  0  0  0  0  0  0  0  0  0
   10.3630  -15.6806   21.7187 O   0  0  0  0  0  0  0  0  0  0  0  0
    8.2904  -15.9902   22.6586 N   0  0  0  0  0  0  0  0  0  0  0  0
    8.5739  -15.0054   23.7338 C   0  0  1  0  0  0  0  0  0  0  0  0
    7.2779  -14.3756   24.0371 C   0  0  0  0  0  0  0  0  0  0  0  0
    7.1642  -13.4606   25.1524 C   0  0  0  0  0  0  0  0  0  0  0  0
    6.8483  -13.9530   26.4022 C   0  0  0  0  0  0  0  0  0  0  0  0
    6.7263  -13.1112   27.4964 C   0  0  0  0  0  0  0  0  0  0  0  0
    6.9191  -11.7505   27.3627 C   0  0  0  0  0  0  0  0  0  0  0  0
    7.2364  -11.2450   26.1147 C   0  0  0  0  0  0  0  0  0  0  0  0
    7.3593  -12.0740   25.0230 C   0  0  0  0  0  0  0  0  0  0  0  0
    9.1528  -15.7990   24.8387 C   0  0  0  0  0  0  0  0  0  0  0  0
    8.6290  -16.9354   25.1367 O   0  0  0  0  0  0  0  0  0  0  0  0
   14.4006  -16.2252   25.1369 C   0  0  0  0  0  0  0  0  0  0  0  0
   12.9141  -16.4039   25.1639 C   0  0  0  0  0  0  0  0  0  0  0  0
   12.3337  -16.3204   26.5458 C   0  0  2  0  0  0  0  0  0  0  0  0
   12.9508  -17.4142   27.3842 C   0  0  0  0  0  0  0  0  0  0  0  0
   10.8172  -16.3815   26.5830 C   0  0  2  0  0  0  0  0  0  0  0  0
   10.2653  -15.4284   25.6256 N   0  0  0  0  0  0  0  0  0  0  0  0
   10.3612  -16.1113   27.9633 C   0  0  0  0  0  0  0  0  0  0  0  0
    9.8880  -14.9826   28.3078 O   0  0  0  0  0  0  0  0  0  0  0  0
   10.4147  -17.0603   28.9743 O   0  0  0  0  0  0  0  0  0  0  0  0
  2  1  1  6
  2  3  1  0
  4  3  1  0
  4  5  1  0
  6  5  1  0
  6  7  1  0
  8  2  1  0
  9  8  2  0
 10  8  1  0
 11 10  1  0
 11 12  1  1
 12 13  1  0
 13 18  2  0
 14 13  1  0
 14 15  2  0
 15 16  1  0
 16 17  2  0
 18 17  1  0
 19 26  1  0
 19 11  1  0
 20 19  2  0
 22 21  1  0
 23 22  1  0
 23 24  1  1
 25 23  1  0
 25 26  1  6
 27 25  1  0
 27 29  1  0
 28 27  2  0
M  END
$$$$
