KFI.pdb
     RDKit          3D

 29 29  0  0  1  0  0  0  0  0999 V2000
    9.3962  -16.8896   19.2169 N   0  0  0  0  0  0  0  0  0  0  0  0
   10.0867  -17.3986   20.3604 C   0  0  1  0  0  0  0  0  0  0  0  0
   11.5294  -17.7431   20.0739 C   0  0  0  0  0  0  0  0  0  0  0  0
   11.7111  -19.1508   19.6112 C   0  0  0  0  0  0  0  0  0  0  0  0
   11.5977  -19.3163   18.1272 C   0  0  0  0  0  0  0  0  0  0  0  0
   11.8425  -20.7291   17.6723 C   0  0  0  0  0  0  0  0  0  0  0  0
   13.2791  -20.9449   17.6870 N   0  0  0  0  0  0  0  0  0  0  0  0
    9.9658  -16.4467   21.4743 C   0  0  0  0  0  0  0  0  0  0  0  0
   10.7548  -15.4472   21.5163 O   0  0  0  0  0  0  0  0  0  0  0  0
    9.0180  -16.5651   22.5209 N   0  0  0  0  0  0  0  0  0  0  0  0
    8.8968  -15.5310   23.5803 C   0  0  1  0  0  0  0  0  0  0  0  0
    7.4634  -15.1990   23.6388 C   0  0  0  0  0  0  0  0  0  0  0  0
    6.9975  -14.1723   24.5457 C   0  0  0  0  0  0  0  0  0  0  0  0
    6.1653  -14.5191   25.5904 C   0  0  0  0  0  0  0  0  0  0  0  0
    5.6935  -13.5667   26.4800 C   0  0  0  0  0  0  0  0  0  0  0  0
    6.0465  -12.2389   26.3424 C   0  0  0  0  0  0  0  0  0  0  0  0
    6.8804  -11.8789   25.2990 C   0  0  0  0  0  0  0  0  0  0  0  0
    7.3532  -12.8185   24.4113 C   0  0  0  0  0  0  0  0  0  0  0  0
    9.4379  -16.1663   24.8007 C   0  0  0  0  0  0  0  0  0  0  0  0
    9.9138  -17.3591   24.7291 O   0  0  0  0  0  0  0  0  0  0  0  0
   10.5178  -12.9612   29.2018 C   0  0  0  0  0  0  0  0  0  0  0  0
   10.7343  -13.8938   28.0505 C   0  0  0  0  0  0  0  0  0  0  0  0
   10.3307  -15.3080   28.3514 C   0  0  2  0  0  0  0  0  0  0  0  0
   11.2651  -15.8517   29.4056 C   0  0  0  0  0  0  0  0  0  0  0  0
   10.2862  -16.2100   27.1311 C   0  0  2  0  0  0  0  0  0  0  0  0
    9.4939  -15.5760   26.0823 N   0  0  0  0  0  0  0  0  0  0  0  0
    9.7356  -17.5239   27.5271 C   0  0  0  0  0  0  0  0  0  0  0  0
   10.4493  -18.4104   28.0941 O   0  0  0  0  0  0  0  0  0  0  0  0
    8.4125  -17.8827   27.3121 O   0  0  0  0  0  0  0  0  0  0  0  0
  2  1  1  6
  2  3  1  0
  4  3  1  0
  4  5  1  0
  6  5  1  0
  6  7  1  0
  8  2  1  0
  9  8  2  0
 10  8  1  0
 11 10  1  0
 11 12  1  1
 12 13  1  0
 13 18  2  0
 14 13  1  0
 14 15  2  0
 15 16  1  0
 16 17  2  0
 18 17  1  0
 19 26  1  0
 19 11  1  0
 20 19  2  0
 22 21  1  0
 23 22  1  0
 23 24  1  1
 25 23  1  0
 25 26  1  6
 27 25  1  0
 27 29  1  0
 28 27  2  0
M  END
$$$$
