KFI.pdb
     RDKit          3D

 29 29  0  0  1  0  0  0  0  0999 V2000
    9.5248  -18.4317   20.5995 N   0  0  0  0  0  0  0  0  0  0  0  0
   10.6930  -17.6506   20.8620 C   0  0  1  0  0  0  0  0  0  0  0  0
   11.2930  -17.0481   19.6133 C   0  0  0  0  0  0  0  0  0  0  0  0
   11.2994  -17.9918   18.4566 C   0  0  0  0  0  0  0  0  0  0  0  0
   12.5428  -17.9172   17.6255 C   0  0  0  0  0  0  0  0  0  0  0  0
   13.2580  -19.2362   17.5168 C   0  0  0  0  0  0  0  0  0  0  0  0
   12.8840  -19.8269   16.2434 N   0  0  0  0  0  0  0  0  0  0  0  0
   10.3844  -16.6233   21.8673 C   0  0  0  0  0  0  0  0  0  0  0  0
   11.2514  -15.7219   22.1103 O   0  0  0  0  0  0  0  0  0  0  0  0
    9.1709  -16.5648   22.5965 N   0  0  0  0  0  0  0  0  0  0  0  0
    8.9586  -15.5637   23.6730 C   0  0  1  0  0  0  0  0  0  0  0  0
    7.5146  -15.2757   23.6583 C   0  0  0  0  0  0  0  0  0  0  0  0
    6.9761  -14.2447   24.5190 C   0  0  0  0  0  0  0  0  0  0  0  0
    7.1957  -12.9188   24.2059 C   0  0  0  0  0  0  0  0  0  0  0  0
    6.7007  -11.9002   25.0049 C   0  0  0  0  0  0  0  0  0  0  0  0
    5.9709  -12.1883   26.1411 C   0  0  0  0  0  0  0  0  0  0  0  0
    5.7440  -13.5139   26.4654 C   0  0  0  0  0  0  0  0  0  0  0  0
    6.2320  -14.5312   25.6773 C   0  0  0  0  0  0  0  0  0  0  0  0
    9.4497  -16.2153   24.9058 C   0  0  0  0  0  0  0  0  0  0  0  0
    9.7814  -17.4576   24.8697 O   0  0  0  0  0  0  0  0  0  0  0  0
   10.6974  -12.9328   29.1220 C   0  0  0  0  0  0  0  0  0  0  0  0
   10.9489  -13.9235   28.0276 C   0  0  0  0  0  0  0  0  0  0  0  0
   10.5431  -15.3221   28.3918 C   0  0  2  0  0  0  0  0  0  0  0  0
   11.5434  -15.8602   29.3867 C   0  0  0  0  0  0  0  0  0  0  0  0
   10.3912  -16.2506   27.2003 C   0  0  2  0  0  0  0  0  0  0  0  0
    9.6039  -15.5916   26.1634 N   0  0  0  0  0  0  0  0  0  0  0  0
    9.7690  -17.5130   27.6537 C   0  0  0  0  0  0  0  0  0  0  0  0
   10.4474  -18.4419   28.1955 O   0  0  0  0  0  0  0  0  0  0  0  0
    8.4125  -17.7742   27.5234 O   0  0  0  0  0  0  0  0  0  0  0  0
  2  1  1  6
  2  3  1  0
  4  3  1  0
  4  5  1  0
  6  5  1  0
  6  7  1  0
  8  2  1  0
  9  8  2  0
 10  8  1  0
 11 10  1  0
 11 12  1  1
 12 13  1  0
 13 18  2  0
 14 13  1  0
 14 15  2  0
 15 16  1  0
 16 17  2  0
 18 17  1  0
 19 26  1  0
 19 11  1  0
 20 19  2  0
 22 21  1  0
 23 22  1  0
 23 24  1  1
 25 23  1  0
 25 26  1  6
 27 25  1  0
 27 29  1  0
 28 27  2  0
M  END
$$$$
