KFI.pdb
     RDKit          3D

 29 29  0  0  1  0  0  0  0  0999 V2000
    9.0309  -18.7279   20.3725 N   0  0  0  0  0  0  0  0  0  0  0  0
    9.9464  -17.6481   20.1731 C   0  0  1  0  0  0  0  0  0  0  0  0
    9.9260  -17.1100   18.7617 C   0  0  0  0  0  0  0  0  0  0  0  0
   10.2537  -18.1465   17.7385 C   0  0  0  0  0  0  0  0  0  0  0  0
   11.7235  -18.3525   17.5393 C   0  0  0  0  0  0  0  0  0  0  0  0
   12.0405  -19.2203   16.3521 C   0  0  0  0  0  0  0  0  0  0  0  0
   13.4869  -19.3280   16.2695 N   0  0  0  0  0  0  0  0  0  0  0  0
    9.6865  -16.5916   21.1617 C   0  0  0  0  0  0  0  0  0  0  0  0
   10.3869  -15.5281   21.1225 O   0  0  0  0  0  0  0  0  0  0  0  0
    8.6957  -16.6748   22.1712 N   0  0  0  0  0  0  0  0  0  0  0  0
    8.6426  -15.6996   23.2904 C   0  0  1  0  0  0  0  0  0  0  0  0
    7.2578  -15.1992   23.3059 C   0  0  0  0  0  0  0  0  0  0  0  0
    6.8858  -14.1351   24.2132 C   0  0  0  0  0  0  0  0  0  0  0  0
    6.1835  -14.4394   25.3614 C   0  0  0  0  0  0  0  0  0  0  0  0
    5.8046  -13.4503   26.2554 C   0  0  0  0  0  0  0  0  0  0  0  0
    6.1223  -12.1277   26.0181 C   0  0  0  0  0  0  0  0  0  0  0  0
    6.8262  -11.8102   24.8703 C   0  0  0  0  0  0  0  0  0  0  0  0
    7.2062  -12.7863   23.9775 C   0  0  0  0  0  0  0  0  0  0  0  0
    9.0390  -16.4686   24.4892 C   0  0  0  0  0  0  0  0  0  0  0  0
    9.4758  -17.6702   24.3479 O   0  0  0  0  0  0  0  0  0  0  0  0
   11.3380  -13.6691   29.4626 C   0  0  0  0  0  0  0  0  0  0  0  0
   11.4469  -14.7422   28.4239 C   0  0  0  0  0  0  0  0  0  0  0  0
   10.2778  -14.7749   27.4828 C   0  0  2  0  0  0  0  0  0  0  0  0
    9.0168  -14.5757   28.2891 C   0  0  0  0  0  0  0  0  0  0  0  0
   10.2021  -16.0327   26.6361 C   0  0  2  0  0  0  0  0  0  0  0  0
    8.9919  -16.0022   25.8212 N   0  0  0  0  0  0  0  0  0  0  0  0
   10.2437  -17.2122   27.5269 C   0  0  0  0  0  0  0  0  0  0  0  0
   11.2769  -17.5072   28.2065 O   0  0  0  0  0  0  0  0  0  0  0  0
    9.1687  -18.0752   27.6857 O   0  0  0  0  0  0  0  0  0  0  0  0
  2  1  1  6
  2  3  1  0
  4  3  1  0
  4  5  1  0
  6  5  1  0
  6  7  1  0
  8  2  1  0
  9  8  2  0
 10  8  1  0
 11 10  1  0
 11 12  1  1
 12 13  1  0
 13 18  2  0
 14 13  1  0
 14 15  2  0
 15 16  1  0
 16 17  2  0
 18 17  1  0
 19 26  1  0
 19 11  1  0
 20 19  2  0
 22 21  1  0
 23 22  1  0
 23 24  1  1
 25 23  1  0
 25 26  1  1
 27 25  1  0
 27 29  1  0
 28 27  2  0
M  END
$$$$
