KFI.pdb
     RDKit          3D

 29 29  0  0  1  0  0  0  0  0999 V2000
    9.0363  -18.3545   20.3499 N   0  0  0  0  0  0  0  0  0  0  0  0
   10.0179  -17.3228   20.2250 C   0  0  1  0  0  0  0  0  0  0  0  0
    9.9479  -16.5985   18.9011 C   0  0  0  0  0  0  0  0  0  0  0  0
   10.8379  -17.1968   17.8624 C   0  0  0  0  0  0  0  0  0  0  0  0
   10.1155  -18.0611   16.8758 C   0  0  0  0  0  0  0  0  0  0  0  0
   11.0378  -18.7298   15.8933 C   0  0  0  0  0  0  0  0  0  0  0  0
   10.2101  -19.4857   14.9692 N   0  0  0  0  0  0  0  0  0  0  0  0
    9.9054  -16.3944   21.3594 C   0  0  0  0  0  0  0  0  0  0  0  0
   10.7322  -15.4291   21.4473 O   0  0  0  0  0  0  0  0  0  0  0  0
    8.9260  -16.4999   22.3779 N   0  0  0  0  0  0  0  0  0  0  0  0
    8.8260  -15.4948   23.4670 C   0  0  1  0  0  0  0  0  0  0  0  0
    7.3908  -15.1863   23.5820 C   0  0  0  0  0  0  0  0  0  0  0  0
    6.9432  -14.1746   24.5148 C   0  0  0  0  0  0  0  0  0  0  0  0
    7.3449  -12.8663   24.3383 C   0  0  0  0  0  0  0  0  0  0  0  0
    6.9421  -11.8670   25.2102 C   0  0  0  0  0  0  0  0  0  0  0  0
    6.1237  -12.1573   26.2837 C   0  0  0  0  0  0  0  0  0  0  0  0
    5.7143  -13.4654   26.4711 C   0  0  0  0  0  0  0  0  0  0  0  0
    6.1098  -14.4635   25.6100 C   0  0  0  0  0  0  0  0  0  0  0  0
    9.4172  -16.1523   24.6518 C   0  0  0  0  0  0  0  0  0  0  0  0
   10.0564  -17.2585   24.5022 O   0  0  0  0  0  0  0  0  0  0  0  0
   10.1690  -13.0525   29.1899 C   0  0  0  0  0  0  0  0  0  0  0  0
   10.4220  -13.9027   27.9835 C   0  0  0  0  0  0  0  0  0  0  0  0
   10.2084  -15.3668   28.2369 C   0  0  2  0  0  0  0  0  0  0  0  0
   11.2237  -15.8226   29.2573 C   0  0  0  0  0  0  0  0  0  0  0  0
   10.2576  -16.2234   26.9844 C   0  0  2  0  0  0  0  0  0  0  0  0
    9.3560  -15.6717   25.9783 N   0  0  0  0  0  0  0  0  0  0  0  0
    9.9076  -17.6148   27.3423 C   0  0  0  0  0  0  0  0  0  0  0  0
    8.7118  -18.0436   27.2895 O   0  0  0  0  0  0  0  0  0  0  0  0
   10.8489  -18.5460   27.7573 O   0  0  0  0  0  0  0  0  0  0  0  0
  2  1  1  6
  2  3  1  0
  4  3  1  0
  4  5  1  0
  6  5  1  0
  6  7  1  0
  8  2  1  0
  9  8  2  0
 10  8  1  0
 11 10  1  0
 11 12  1  1
 12 13  1  0
 13 18  2  0
 14 13  1  0
 14 15  2  0
 15 16  1  0
 16 17  2  0
 18 17  1  0
 19 26  1  0
 19 11  1  0
 20 19  2  0
 22 21  1  0
 23 22  1  0
 23 24  1  1
 25 23  1  0
 25 26  1  6
 27 25  1  0
 27 29  1  0
 28 27  2  0
M  END
$$$$
