KFI.pdb
     RDKit          3D

 29 29  0  0  1  0  0  0  0  0999 V2000
   10.2383  -16.7503   19.4294 N   0  0  0  0  0  0  0  0  0  0  0  0
    9.3988  -17.2191   20.4871 C   0  0  1  0  0  0  0  0  0  0  0  0
    9.6296  -18.6737   20.8234 C   0  0  0  0  0  0  0  0  0  0  0  0
   10.2515  -19.4389   19.7025 C   0  0  0  0  0  0  0  0  0  0  0  0
   11.3333  -20.3768   20.1410 C   0  0  0  0  0  0  0  0  0  0  0  0
   11.9846  -21.1010   18.9945 C   0  0  0  0  0  0  0  0  0  0  0  0
   13.0674  -21.8973   19.5457 N   0  0  0  0  0  0  0  0  0  0  0  0
    9.5616  -16.3559   21.6660 C   0  0  0  0  0  0  0  0  0  0  0  0
   10.6982  -15.8238   21.8852 O   0  0  0  0  0  0  0  0  0  0  0  0
    8.5262  -16.0701   22.5902 N   0  0  0  0  0  0  0  0  0  0  0  0
    8.7151  -15.0899   23.6902 C   0  0  1  0  0  0  0  0  0  0  0  0
    7.3818  -14.5134   23.9316 C   0  0  0  0  0  0  0  0  0  0  0  0
    7.1843  -13.5863   25.0250 C   0  0  0  0  0  0  0  0  0  0  0  0
    6.3065  -13.9125   26.0385 C   0  0  0  0  0  0  0  0  0  0  0  0
    6.0854  -13.0521   27.1024 C   0  0  0  0  0  0  0  0  0  0  0  0
    6.7421  -11.8397   27.1752 C   0  0  0  0  0  0  0  0  0  0  0  0
    7.6247  -11.5015   26.1652 C   0  0  0  0  0  0  0  0  0  0  0  0
    7.8498  -12.3502   25.1053 C   0  0  0  0  0  0  0  0  0  0  0  0
    9.2651  -15.8761   24.8149 C   0  0  0  0  0  0  0  0  0  0  0  0
    8.8011  -17.0538   25.0436 O   0  0  0  0  0  0  0  0  0  0  0  0
   14.4564  -16.2615   25.2667 C   0  0  0  0  0  0  0  0  0  0  0  0
   12.9710  -16.4516   25.2728 C   0  0  0  0  0  0  0  0  0  0  0  0
   12.3624  -16.3077   26.6375 C   0  0  2  0  0  0  0  0  0  0  0  0
   12.9886  -17.3393   27.5451 C   0  0  0  0  0  0  0  0  0  0  0  0
   10.8473  -16.4037   26.6508 C   0  0  2  0  0  0  0  0  0  0  0  0
   10.2884  -15.4556   25.6926 N   0  0  0  0  0  0  0  0  0  0  0  0
   10.3642  -16.1555   28.0260 C   0  0  0  0  0  0  0  0  0  0  0  0
    9.8546  -15.0427   28.3705 O   0  0  0  0  0  0  0  0  0  0  0  0
   10.4299  -17.1091   29.0319 O   0  0  0  0  0  0  0  0  0  0  0  0
  2  1  1  6
  2  3  1  0
  4  3  1  0
  4  5  1  0
  6  5  1  0
  6  7  1  0
  8  2  1  0
  9  8  2  0
 10  8  1  0
 11 10  1  0
 11 12  1  1
 12 13  1  0
 13 18  2  0
 14 13  1  0
 14 15  2  0
 15 16  1  0
 16 17  2  0
 18 17  1  0
 19 26  1  0
 19 11  1  0
 20 19  2  0
 22 21  1  0
 23 22  1  0
 23 24  1  1
 25 23  1  0
 25 26  1  6
 27 25  1  0
 27 29  1  0
 28 27  2  0
M  END
$$$$
