KFI.pdb
     RDKit          3D

 29 29  0  0  1  0  0  0  0  0999 V2000
   10.1174  -16.5229   18.9978 N   0  0  0  0  0  0  0  0  0  0  0  0
    9.0453  -16.7855   19.9061 C   0  0  1  0  0  0  0  0  0  0  0  0
    8.8111  -18.2607   20.1321 C   0  0  0  0  0  0  0  0  0  0  0  0
    8.6805  -19.0311   18.8600 C   0  0  0  0  0  0  0  0  0  0  0  0
    8.3220  -20.4710   19.0621 C   0  0  0  0  0  0  0  0  0  0  0  0
    8.1658  -21.2254   17.7701 C   0  0  0  0  0  0  0  0  0  0  0  0
    7.7583  -22.5786   18.1064 N   0  0  0  0  0  0  0  0  0  0  0  0
    9.2831  -16.0728   21.1698 C   0  0  0  0  0  0  0  0  0  0  0  0
   10.4831  -15.9018   21.5620 O   0  0  0  0  0  0  0  0  0  0  0  0
    8.2545  -15.5546   21.9951 N   0  0  0  0  0  0  0  0  0  0  0  0
    8.5604  -14.8165   23.2473 C   0  0  1  0  0  0  0  0  0  0  0  0
    7.3564  -14.0186   23.5334 C   0  0  0  0  0  0  0  0  0  0  0  0
    7.2375  -13.3198   24.7950 C   0  0  0  0  0  0  0  0  0  0  0  0
    7.9508  -12.1553   24.9933 C   0  0  0  0  0  0  0  0  0  0  0  0
    7.8685  -11.4566   26.1875 C   0  0  0  0  0  0  0  0  0  0  0  0
    7.0656  -11.9110   27.2149 C   0  0  0  0  0  0  0  0  0  0  0  0
    6.3455  -13.0773   27.0279 C   0  0  0  0  0  0  0  0  0  0  0  0
    6.4218  -13.7770   25.8451 C   0  0  0  0  0  0  0  0  0  0  0  0
    8.8639  -15.8636   24.2459 C   0  0  0  0  0  0  0  0  0  0  0  0
    8.1050  -16.8996   24.3194 O   0  0  0  0  0  0  0  0  0  0  0  0
   13.1620  -18.4659   24.0274 C   0  0  0  0  0  0  0  0  0  0  0  0
   11.7769  -17.9651   24.2975 C   0  0  0  0  0  0  0  0  0  0  0  0
   11.5589  -17.5732   25.7301 C   0  0  2  0  0  0  0  0  0  0  0  0
   11.8489  -18.7745   26.5977 C   0  0  0  0  0  0  0  0  0  0  0  0
   10.1792  -17.0057   26.0116 C   0  0  2  0  0  0  0  0  0  0  0  0
    9.9429  -15.8468   25.1568 N   0  0  0  0  0  0  0  0  0  0  0  0
   10.0853  -16.6664   27.4477 C   0  0  0  0  0  0  0  0  0  0  0  0
   10.1382  -15.4651   27.8611 O   0  0  0  0  0  0  0  0  0  0  0  0
    9.9334  -17.6241   28.4403 O   0  0  0  0  0  0  0  0  0  0  0  0
  2  1  1  6
  2  3  1  0
  4  3  1  0
  4  5  1  0
  6  5  1  0
  6  7  1  0
  8  2  1  0
  9  8  2  0
 10  8  1  0
 11 10  1  0
 11 12  1  1
 12 13  1  0
 13 18  2  0
 14 13  1  0
 14 15  2  0
 15 16  1  0
 16 17  2  0
 18 17  1  0
 19 26  1  0
 19 11  1  0
 20 19  2  0
 22 21  1  0
 23 22  1  0
 23 24  1  1
 25 23  1  0
 25 26  1  6
 27 25  1  0
 27 29  1  0
 28 27  2  0
M  END
$$$$
