KFI.pdb
     RDKit          3D

 29 29  0  0  1  0  0  0  0  0999 V2000
    9.3677  -18.9299   20.7137 N   0  0  0  0  0  0  0  0  0  0  0  0
   10.1961  -17.8122   20.3851 C   0  0  1  0  0  0  0  0  0  0  0  0
    9.9451  -17.2803   18.9936 C   0  0  0  0  0  0  0  0  0  0  0  0
   11.0739  -17.5502   18.0546 C   0  0  0  0  0  0  0  0  0  0  0  0
   10.6931  -18.4043   16.8850 C   0  0  0  0  0  0  0  0  0  0  0  0
   11.8149  -18.5864   15.8994 C   0  0  0  0  0  0  0  0  0  0  0  0
   11.2837  -19.3353   14.7737 N   0  0  0  0  0  0  0  0  0  0  0  0
   10.0389  -16.7645   21.4044 C   0  0  0  0  0  0  0  0  0  0  0  0
   10.8444  -15.7774   21.3997 O   0  0  0  0  0  0  0  0  0  0  0  0
    9.0382  -16.7761   22.4075 N   0  0  0  0  0  0  0  0  0  0  0  0
    8.9616  -15.7121   23.4411 C   0  0  1  0  0  0  0  0  0  0  0  0
    7.5301  -15.3894   23.5629 C   0  0  0  0  0  0  0  0  0  0  0  0
    7.0908  -14.4166   24.5399 C   0  0  0  0  0  0  0  0  0  0  0  0
    7.3619  -13.0795   24.3327 C   0  0  0  0  0  0  0  0  0  0  0  0
    6.9622  -12.1155   25.2447 C   0  0  0  0  0  0  0  0  0  0  0  0
    6.2784  -12.4710   26.3905 C   0  0  0  0  0  0  0  0  0  0  0  0
    6.0006  -13.8084   26.6092 C   0  0  0  0  0  0  0  0  0  0  0  0
    6.3941  -14.7719   25.7086 C   0  0  0  0  0  0  0  0  0  0  0  0
    9.5697  -16.3069   24.6504 C   0  0  0  0  0  0  0  0  0  0  0  0
    9.6936  -17.5849   24.7267 O   0  0  0  0  0  0  0  0  0  0  0  0
   10.3003  -13.5704   29.6451 C   0  0  0  0  0  0  0  0  0  0  0  0
    9.8547  -14.5065   28.5646 C   0  0  0  0  0  0  0  0  0  0  0  0
   10.9716  -15.3401   28.0069 C   0  0  2  0  0  0  0  0  0  0  0  0
   12.0455  -14.4098   27.4958 C   0  0  0  0  0  0  0  0  0  0  0  0
   10.5330  -16.3227   26.9359 C   0  0  2  0  0  0  0  0  0  0  0  0
   10.0514  -15.5914   25.7685 N   0  0  0  0  0  0  0  0  0  0  0  0
    9.4974  -17.2146   27.5002 C   0  0  0  0  0  0  0  0  0  0  0  0
    8.2768  -17.1336   27.1537 O   0  0  0  0  0  0  0  0  0  0  0  0
    9.7785  -18.1966   28.4395 O   0  0  0  0  0  0  0  0  0  0  0  0
  2  1  1  1
  2  3  1  0
  4  3  1  0
  4  5  1  0
  6  5  1  0
  6  7  1  0
  8  2  1  0
  9  8  2  0
 10  8  1  0
 11 10  1  0
 11 12  1  1
 12 13  1  0
 13 18  2  0
 14 13  1  0
 14 15  2  0
 15 16  1  0
 16 17  2  0
 18 17  1  0
 19 26  1  0
 19 11  1  0
 20 19  2  0
 22 21  1  0
 23 22  1  0
 23 24  1  6
 25 23  1  0
 25 26  1  6
 27 25  1  0
 27 29  1  0
 28 27  2  0
M  END
$$$$
