FKR.pdb
     RDKit          3D

 32 32  0  0  1  0  0  0  0  0999 V2000
   28.6701  -20.9649   -8.7856 N   0  0  0  0  0  0  0  0  0  0  0  0
   27.2685  -20.8155   -8.8108 C   0  0  1  0  0  0  0  0  0  0  0  0
   26.7949  -19.6799   -7.9472 C   0  0  0  0  0  0  0  0  0  0  0  0
   27.2424  -19.6908   -6.5646 C   0  0  0  0  0  0  0  0  0  0  0  0
   26.6304  -20.5657   -5.6706 C   0  0  0  0  0  0  0  0  0  0  0  0
   27.1228  -20.5698   -4.3734 C   0  0  0  0  0  0  0  0  0  0  0  0
   28.1554  -19.7527   -4.0066 C   0  0  0  0  0  0  0  0  0  0  0  0
   28.7681  -18.8843   -4.8779 C   0  0  0  0  0  0  0  0  0  0  0  0
   28.2892  -18.8674   -6.1759 C   0  0  0  0  0  0  0  0  0  0  0  0
   26.6164  -20.6522  -10.1079 C   0  0  0  0  0  0  0  0  0  0  0  0
   26.9469  -19.6374  -10.8125 O   0  0  0  0  0  0  0  0  0  0  0  0
   25.6383  -21.5710  -10.6023 N   0  0  0  0  0  0  0  0  0  0  0  0
   25.2750  -21.4140  -11.9796 C   0  0  1  0  0  0  0  0  0  0  0  0
   25.5249  -22.7064  -12.7766 C   0  0  0  0  0  0  0  0  0  0  0  0
   25.2152  -22.3990  -14.2117 C   0  0  0  0  0  0  0  0  0  0  0  0
   25.2936  -23.5274  -15.1754 C   0  0  0  0  0  0  0  0  0  0  0  0
   25.1086  -23.1432  -16.6059 C   0  0  0  0  0  0  0  0  0  0  0  0
   25.1030  -24.2444  -17.5358 N   0  0  0  0  0  0  0  0  0  0  0  0
   23.8208  -21.0710  -12.0885 C   0  0  0  0  0  0  0  0  0  0  0  0
   23.0119  -21.7101  -11.3514 O   0  0  0  0  0  0  0  0  0  0  0  0
   17.8235  -21.3178  -15.4260 N   0  0  0  0  0  0  0  0  0  0  0  0
   17.4981  -20.0850  -16.0716 C   0  0  0  0  0  0  0  0  0  0  0  0
   16.2991  -19.7115  -16.2660 N   0  0  0  0  0  0  0  0  0  0  0  0
   18.5765  -19.2507  -16.4953 N   0  0  0  0  0  0  0  0  0  0  0  0
   19.9499  -19.6940  -16.3192 C   0  0  0  0  0  0  0  0  0  0  0  0
   20.4890  -18.9338  -15.1308 C   0  0  0  0  0  0  0  0  0  0  0  0
   21.8956  -19.2338  -14.7606 C   0  0  0  0  0  0  0  0  0  0  0  0
   21.9480  -19.9277  -13.3967 C   0  0  2  0  0  0  0  0  0  0  0  0
   23.3231  -20.0904  -12.9484 N   0  0  0  0  0  0  0  0  0  0  0  0
   21.2857  -21.2332  -13.4863 C   0  0  0  0  0  0  0  0  0  0  0  0
   21.7435  -22.2600  -14.2755 O   0  0  0  0  0  0  0  0  0  0  0  0
   20.2269  -21.3932  -12.7778 O   0  0  0  0  0  0  0  0  0  0  0  0
  2  1  1  6
  2 10  1  0
  2  3  1  0
  3  4  1  0
  4  9  2  0
  4  5  1  0
  5  6  2  0
  6  7  1  0
  8  7  2  0
  9  8  1  0
 10 11  2  0
 12 10  1  0
 12 13  1  0
 13 19  1  0
 13 14  1  6
 15 14  1  0
 16 15  1  0
 17 16  1  0
 18 17  1  0
 19 29  1  0
 19 20  2  0
 21 22  1  0
 22 23  2  0
 24 22  1  0
 24 25  1  0
 25 26  1  0
 27 26  1  0
 28 27  1  6
 28 30  1  0
 29 28  1  0
 30 31  1  0
 32 30  2  0
M  END
$$$$
