FKR.pdb
     RDKit          3D

 32 32  0  0  1  0  0  0  0  0999 V2000
   27.5539  -21.5871   -9.4579 N   0  0  0  0  0  0  0  0  0  0  0  0
   26.4672  -20.8600   -8.9309 C   0  0  1  0  0  0  0  0  0  0  0  0
   26.9051  -19.6341   -8.1792 C   0  0  0  0  0  0  0  0  0  0  0  0
   27.5966  -19.8612   -6.9214 C   0  0  0  0  0  0  0  0  0  0  0  0
   26.8496  -19.9109   -5.7472 C   0  0  0  0  0  0  0  0  0  0  0  0
   27.5499  -20.1740   -4.5787 C   0  0  0  0  0  0  0  0  0  0  0  0
   28.9022  -20.3726   -4.5946 C   0  0  0  0  0  0  0  0  0  0  0  0
   29.6519  -20.3260   -5.7454 C   0  0  0  0  0  0  0  0  0  0  0  0
   28.9690  -20.0644   -6.9200 C   0  0  0  0  0  0  0  0  0  0  0  0
   25.4149  -20.4315   -9.8494 C   0  0  0  0  0  0  0  0  0  0  0  0
   24.4918  -19.6800   -9.3820 O   0  0  0  0  0  0  0  0  0  0  0  0
   25.3843  -20.8209  -11.2252 N   0  0  0  0  0  0  0  0  0  0  0  0
   24.3025  -20.2891  -12.0000 C   0  0  1  0  0  0  0  0  0  0  0  0
   24.7800  -19.8292  -13.3887 C   0  0  0  0  0  0  0  0  0  0  0  0
   23.6078  -19.1732  -14.0564 C   0  0  0  0  0  0  0  0  0  0  0  0
   23.8154  -18.6655  -15.4375 C   0  0  0  0  0  0  0  0  0  0  0  0
   22.6462  -17.9447  -16.0219 C   0  0  0  0  0  0  0  0  0  0  0  0
   22.8348  -17.4724  -17.3705 N   0  0  0  0  0  0  0  0  0  0  0  0
   23.2477  -21.3357  -12.1908 C   0  0  0  0  0  0  0  0  0  0  0  0
   23.5849  -22.4056  -12.7805 O   0  0  0  0  0  0  0  0  0  0  0  0
   17.4789  -24.2638   -6.2277 N   0  0  0  0  0  0  0  0  0  0  0  0
   17.4094  -25.1229   -7.3677 C   0  0  0  0  0  0  0  0  0  0  0  0
   16.6116  -26.1101   -7.4314 N   0  0  0  0  0  0  0  0  0  0  0  0
   18.2692  -24.8358   -8.4708 N   0  0  0  0  0  0  0  0  0  0  0  0
   19.0243  -23.5939   -8.4987 C   0  0  0  0  0  0  0  0  0  0  0  0
   19.7575  -23.5759   -9.8188 C   0  0  0  0  0  0  0  0  0  0  0  0
   20.6605  -22.4171  -10.0365 C   0  0  0  0  0  0  0  0  0  0  0  0
   20.9553  -22.2482  -11.5295 C   0  0  2  0  0  0  0  0  0  0  0  0
   21.9310  -21.1912  -11.7508 N   0  0  0  0  0  0  0  0  0  0  0  0
   19.7099  -21.9467  -12.2430 C   0  0  0  0  0  0  0  0  0  0  0  0
   19.1404  -20.6971  -12.2738 O   0  0  0  0  0  0  0  0  0  0  0  0
   19.1483  -22.9217  -12.8614 O   0  0  0  0  0  0  0  0  0  0  0  0
  2  1  1  6
  2 10  1  0
  2  3  1  0
  3  4  1  0
  4  9  2  0
  4  5  1  0
  5  6  2  0
  6  7  1  0
  8  7  2  0
  9  8  1  0
 10 11  2  0
 12 10  1  0
 12 13  1  0
 13 19  1  0
 13 14  1  6
 15 14  1  0
 16 15  1  0
 17 16  1  0
 18 17  1  0
 19 29  1  0
 19 20  2  0
 21 22  1  0
 22 23  2  0
 24 22  1  0
 24 25  1  0
 25 26  1  0
 27 26  1  0
 28 27  1  1
 28 30  1  0
 29 28  1  0
 30 31  1  0
 32 30  2  0
M  END
$$$$
