FKR.pdb
     RDKit          3D

 32 32  0  0  1  0  0  0  0  0999 V2000
   27.7358  -21.7457   -8.7263 N   0  0  0  0  0  0  0  0  0  0  0  0
   26.7592  -20.7312   -8.7926 C   0  0  1  0  0  0  0  0  0  0  0  0
   27.1574  -19.4980   -8.0309 C   0  0  0  0  0  0  0  0  0  0  0  0
   27.8567  -19.7129   -6.7753 C   0  0  0  0  0  0  0  0  0  0  0  0
   27.1185  -19.7393   -5.5948 C   0  0  0  0  0  0  0  0  0  0  0  0
   27.8258  -19.9916   -4.4281 C   0  0  0  0  0  0  0  0  0  0  0  0
   29.1762  -20.2020   -4.4515 C   0  0  0  0  0  0  0  0  0  0  0  0
   29.9172  -20.1783   -5.6086 C   0  0  0  0  0  0  0  0  0  0  0  0
   29.2274  -19.9278   -6.7816 C   0  0  0  0  0  0  0  0  0  0  0  0
   26.3208  -20.2823  -10.1121 C   0  0  0  0  0  0  0  0  0  0  0  0
   25.4576  -19.3399  -10.1595 O   0  0  0  0  0  0  0  0  0  0  0  0
   26.8144  -20.8542  -11.3264 N   0  0  0  0  0  0  0  0  0  0  0  0
   26.4612  -20.1622  -12.5304 C   0  0  1  0  0  0  0  0  0  0  0  0
   27.6434  -20.1083  -13.5140 C   0  0  0  0  0  0  0  0  0  0  0  0
   27.2256  -19.2196  -14.6479 C   0  0  0  0  0  0  0  0  0  0  0  0
   28.2131  -19.0074  -15.7378 C   0  0  0  0  0  0  0  0  0  0  0  0
   27.7673  -18.0735  -16.8136 C   0  0  0  0  0  0  0  0  0  0  0  0
   28.7574  -17.7899  -17.8219 N   0  0  0  0  0  0  0  0  0  0  0  0
   25.3218  -20.8617  -13.2063 C   0  0  0  0  0  0  0  0  0  0  0  0
   25.1656  -22.0957  -12.9631 O   0  0  0  0  0  0  0  0  0  0  0  0
   19.2014  -22.5149   -9.2395 N   0  0  0  0  0  0  0  0  0  0  0  0
   20.6156  -22.3794   -9.0836 C   0  0  0  0  0  0  0  0  0  0  0  0
   21.1870  -22.4435   -7.9502 N   0  0  0  0  0  0  0  0  0  0  0  0
   21.3985  -22.1772  -10.2602 N   0  0  0  0  0  0  0  0  0  0  0  0
   20.7446  -22.0165  -11.5487 C   0  0  0  0  0  0  0  0  0  0  0  0
   21.8501  -21.9079  -12.5718 C   0  0  0  0  0  0  0  0  0  0  0  0
   22.3001  -20.5282  -12.8874 C   0  0  0  0  0  0  0  0  0  0  0  0
   23.0145  -20.5007  -14.2414 C   0  0  2  0  0  0  0  0  0  0  0  0
   24.4339  -20.2252  -14.0752 N   0  0  0  0  0  0  0  0  0  0  0  0
   22.3974  -19.4840  -15.0995 C   0  0  0  0  0  0  0  0  0  0  0  0
   21.4624  -19.7747  -16.0629 O   0  0  0  0  0  0  0  0  0  0  0  0
   22.7705  -18.2693  -14.9153 O   0  0  0  0  0  0  0  0  0  0  0  0
  2  1  1  6
  2 10  1  0
  2  3  1  0
  3  4  1  0
  4  9  2  0
  4  5  1  0
  5  6  2  0
  6  7  1  0
  8  7  2  0
  9  8  1  0
 10 11  2  0
 12 10  1  0
 12 13  1  0
 13 19  1  0
 13 14  1  6
 15 14  1  0
 16 15  1  0
 17 16  1  0
 18 17  1  0
 19 29  1  0
 19 20  2  0
 21 22  1  0
 22 23  2  0
 24 22  1  0
 24 25  1  0
 25 26  1  0
 27 26  1  0
 28 27  1  1
 28 30  1  0
 29 28  1  0
 30 31  1  0
 32 30  2  0
M  END
$$$$
