FKR.pdb
     RDKit          3D

 32 32  0  0  1  0  0  0  0  0999 V2000
   25.7874  -17.7398  -18.4704 N   0  0  0  0  0  0  0  0  0  0  0  0
   26.0945  -17.3213  -17.1597 C   0  0  1  0  0  0  0  0  0  0  0  0
   25.0380  -16.4228  -16.5798 C   0  0  0  0  0  0  0  0  0  0  0  0
   24.8777  -15.1240  -17.2119 C   0  0  0  0  0  0  0  0  0  0  0  0
   23.8339  -14.9447  -18.1161 C   0  0  0  0  0  0  0  0  0  0  0  0
   23.6964  -13.6752  -18.6587 C   0  0  0  0  0  0  0  0  0  0  0  0
   24.5479  -12.6630  -18.3142 C   0  0  0  0  0  0  0  0  0  0  0  0
   25.5822  -12.8258  -17.4241 C   0  0  0  0  0  0  0  0  0  0  0  0
   25.7338  -14.0861  -16.8734 C   0  0  0  0  0  0  0  0  0  0  0  0
   26.3663  -18.3467  -16.1551 C   0  0  0  0  0  0  0  0  0  0  0  0
   25.7009  -19.4364  -16.2272 O   0  0  0  0  0  0  0  0  0  0  0  0
   27.3309  -18.1720  -15.1138 N   0  0  0  0  0  0  0  0  0  0  0  0
   27.5237  -19.2967  -14.2471 C   0  0  1  0  0  0  0  0  0  0  0  0
   28.9093  -19.2589  -13.5788 C   0  0  0  0  0  0  0  0  0  0  0  0
   28.9661  -20.4191  -12.6297 C   0  0  0  0  0  0  0  0  0  0  0  0
   30.2465  -20.6383  -11.9080 C   0  0  0  0  0  0  0  0  0  0  0  0
   30.2690  -21.8407  -11.0238 C   0  0  0  0  0  0  0  0  0  0  0  0
   31.5224  -22.0795  -10.3534 N   0  0  0  0  0  0  0  0  0  0  0  0
   26.4839  -19.2949  -13.1686 C   0  0  0  0  0  0  0  0  0  0  0  0
   26.4315  -18.2827  -12.4078 O   0  0  0  0  0  0  0  0  0  0  0  0
   18.4249  -23.1934  -11.7705 N   0  0  0  0  0  0  0  0  0  0  0  0
   18.6121  -22.0111  -10.9896 C   0  0  0  0  0  0  0  0  0  0  0  0
   17.6578  -21.4416  -10.3731 N   0  0  0  0  0  0  0  0  0  0  0  0
   19.9317  -21.4730  -10.9024 N   0  0  0  0  0  0  0  0  0  0  0  0
   20.8679  -21.6651  -11.9980 C   0  0  0  0  0  0  0  0  0  0  0  0
   22.1834  -21.0860  -11.5346 C   0  0  0  0  0  0  0  0  0  0  0  0
   23.2804  -21.1019  -12.5356 C   0  0  0  0  0  0  0  0  0  0  0  0
   24.5244  -20.4118  -11.9693 C   0  0  2  0  0  0  0  0  0  0  0  0
   25.5797  -20.3394  -12.9690 N   0  0  0  0  0  0  0  0  0  0  0  0
   24.9941  -21.1427  -10.7877 C   0  0  0  0  0  0  0  0  0  0  0  0
   24.7388  -20.7402   -9.4995 O   0  0  0  0  0  0  0  0  0  0  0  0
   25.6752  -22.2098  -11.0020 O   0  0  0  0  0  0  0  0  0  0  0  0
  2  1  1  6
  2 10  1  0
  2  3  1  0
  3  4  1  0
  4  9  2  0
  4  5  1  0
  5  6  2  0
  6  7  1  0
  8  7  2  0
  9  8  1  0
 10 11  2  0
 12 10  1  0
 12 13  1  0
 13 19  1  0
 13 14  1  1
 15 14  1  0
 16 15  1  0
 17 16  1  0
 18 17  1  0
 19 29  1  0
 19 20  2  0
 21 22  1  0
 22 23  2  0
 24 22  1  0
 24 25  1  0
 25 26  1  0
 27 26  1  0
 28 27  1  6
 28 30  1  0
 29 28  1  0
 30 31  1  0
 32 30  2  0
M  END
$$$$
