FKR.pdb
     RDKit          3D

 32 32  0  0  1  0  0  0  0  0999 V2000
   29.4731  -20.8864   -9.3896 N   0  0  0  0  0  0  0  0  0  0  0  0
   28.0779  -20.7754   -9.2212 C   0  0  1  0  0  0  0  0  0  0  0  0
   27.6951  -19.6266   -8.3305 C   0  0  0  0  0  0  0  0  0  0  0  0
   28.0837  -19.7354   -6.9344 C   0  0  0  0  0  0  0  0  0  0  0  0
   27.1369  -20.1655   -6.0083 C   0  0  0  0  0  0  0  0  0  0  0  0
   27.5689  -20.2952   -4.6962 C   0  0  0  0  0  0  0  0  0  0  0  0
   28.8594  -20.0125   -4.3456 C   0  0  0  0  0  0  0  0  0  0  0  0
   29.8039  -19.5867   -5.2486 C   0  0  0  0  0  0  0  0  0  0  0  0
   29.3897  -19.4519   -6.5619 C   0  0  0  0  0  0  0  0  0  0  0  0
   27.2460  -20.6698  -10.4177 C   0  0  0  0  0  0  0  0  0  0  0  0
   27.7431  -20.0716  -11.4328 O   0  0  0  0  0  0  0  0  0  0  0  0
   25.9199  -21.2008  -10.4862 N   0  0  0  0  0  0  0  0  0  0  0  0
   25.3603  -21.3136  -11.8005 C   0  0  1  0  0  0  0  0  0  0  0  0
   25.2465  -22.7847  -12.2376 C   0  0  0  0  0  0  0  0  0  0  0  0
   24.8517  -22.7791  -13.6847 C   0  0  0  0  0  0  0  0  0  0  0  0
   24.5748  -24.0968  -14.3135 C   0  0  0  0  0  0  0  0  0  0  0  0
   24.1895  -24.0344  -15.7542 C   0  0  0  0  0  0  0  0  0  0  0  0
   24.0404  -25.3143  -16.4000 N   0  0  0  0  0  0  0  0  0  0  0  0
   23.9891  -20.7107  -11.8256 C   0  0  0  0  0  0  0  0  0  0  0  0
   23.3005  -20.7785  -10.7637 O   0  0  0  0  0  0  0  0  0  0  0  0
   19.8881  -15.3845  -17.7226 N   0  0  0  0  0  0  0  0  0  0  0  0
   19.6213  -15.0515  -16.3586 C   0  0  0  0  0  0  0  0  0  0  0  0
   19.1754  -13.9144  -16.0078 N   0  0  0  0  0  0  0  0  0  0  0  0
   19.8605  -16.0533  -15.3699 N   0  0  0  0  0  0  0  0  0  0  0  0
   20.3484  -17.3638  -15.7674 C   0  0  0  0  0  0  0  0  0  0  0  0
   20.6328  -18.1137  -14.4877 C   0  0  0  0  0  0  0  0  0  0  0  0
   21.9720  -18.7498  -14.4000 C   0  0  0  0  0  0  0  0  0  0  0  0
   22.1199  -19.4917  -13.0687 C   0  0  2  0  0  0  0  0  0  0  0  0
   23.4445  -20.0823  -12.9467 N   0  0  0  0  0  0  0  0  0  0  0  0
   21.0899  -20.5312  -12.9709 C   0  0  0  0  0  0  0  0  0  0  0  0
   19.9644  -20.4088  -12.1932 O   0  0  0  0  0  0  0  0  0  0  0  0
   21.2787  -21.5977  -13.6606 O   0  0  0  0  0  0  0  0  0  0  0  0
  2  1  1  6
  2 10  1  0
  2  3  1  0
  3  4  1  0
  4  9  2  0
  4  5  1  0
  5  6  2  0
  6  7  1  0
  8  7  2  0
  9  8  1  0
 10 11  2  0
 12 10  1  0
 12 13  1  0
 13 19  1  0
 13 14  1  1
 15 14  1  0
 16 15  1  0
 17 16  1  0
 18 17  1  0
 19 29  1  0
 19 20  2  0
 21 22  1  0
 22 23  2  0
 24 22  1  0
 24 25  1  0
 25 26  1  0
 27 26  1  0
 28 27  1  6
 28 30  1  0
 29 28  1  0
 30 31  1  0
 32 30  2  0
M  END
$$$$
