FKR.pdb
     RDKit          3D

 32 32  0  0  1  0  0  0  0  0999 V2000
   21.6940  -28.1374  -12.4172 N   0  0  0  0  0  0  0  0  0  0  0  0
   21.0670  -27.1392  -13.1904 C   0  0  1  0  0  0  0  0  0  0  0  0
   20.0268  -27.6995  -14.1199 C   0  0  0  0  0  0  0  0  0  0  0  0
   20.4846  -28.0811  -15.4454 C   0  0  0  0  0  0  0  0  0  0  0  0
   20.6937  -27.0829  -16.3936 C   0  0  0  0  0  0  0  0  0  0  0  0
   21.1728  -27.4937  -17.6293 C   0  0  0  0  0  0  0  0  0  0  0  0
   21.4223  -28.8125  -17.8879 C   0  0  0  0  0  0  0  0  0  0  0  0
   21.2200  -29.8079  -16.9622 C   0  0  0  0  0  0  0  0  0  0  0  0
   20.7423  -29.4155  -15.7243 C   0  0  0  0  0  0  0  0  0  0  0  0
   20.4412  -26.0187  -12.4922 C   0  0  0  0  0  0  0  0  0  0  0  0
   20.3264  -26.1036  -11.2213 O   0  0  0  0  0  0  0  0  0  0  0  0
   19.9605  -24.8559  -13.1719 N   0  0  0  0  0  0  0  0  0  0  0  0
   19.5666  -23.7620  -12.3344 C   0  0  1  0  0  0  0  0  0  0  0  0
   19.5263  -22.4397  -13.1204 C   0  0  0  0  0  0  0  0  0  0  0  0
   20.9372  -21.9360  -13.1966 C   0  0  0  0  0  0  0  0  0  0  0  0
   21.1724  -20.7071  -13.9983 C   0  0  0  0  0  0  0  0  0  0  0  0
   22.5906  -20.2427  -14.0310 C   0  0  0  0  0  0  0  0  0  0  0  0
   22.8345  -19.0906  -14.8621 N   0  0  0  0  0  0  0  0  0  0  0  0
   18.2007  -24.0143  -11.7730 C   0  0  0  0  0  0  0  0  0  0  0  0
   17.2818  -24.3272  -12.5877 O   0  0  0  0  0  0  0  0  0  0  0  0
   15.8244  -24.5834   -3.3496 N   0  0  0  0  0  0  0  0  0  0  0  0
   16.9005  -24.8984   -4.2357 C   0  0  0  0  0  0  0  0  0  0  0  0
   18.0511  -25.2403   -3.8184 N   0  0  0  0  0  0  0  0  0  0  0  0
   16.6480  -24.8318   -5.6394 N   0  0  0  0  0  0  0  0  0  0  0  0
   15.3735  -24.3280   -6.1247 C   0  0  0  0  0  0  0  0  0  0  0  0
   15.4210  -24.4418   -7.6299 C   0  0  0  0  0  0  0  0  0  0  0  0
   16.7322  -24.1352   -8.2563 C   0  0  0  0  0  0  0  0  0  0  0  0
   16.6054  -24.1442   -9.7822 C   0  0  2  0  0  0  0  0  0  0  0  0
   17.8989  -23.9271  -10.4129 N   0  0  0  0  0  0  0  0  0  0  0  0
   15.6565  -23.1070  -10.2003 C   0  0  0  0  0  0  0  0  0  0  0  0
   14.3274  -23.3530  -10.4444 O   0  0  0  0  0  0  0  0  0  0  0  0
   16.1229  -21.9183  -10.3350 O   0  0  0  0  0  0  0  0  0  0  0  0
  2  1  1  1
  2 10  1  0
  2  3  1  0
  3  4  1  0
  4  9  2  0
  4  5  1  0
  5  6  2  0
  6  7  1  0
  8  7  2  0
  9  8  1  0
 10 11  2  0
 12 10  1  0
 12 13  1  0
 13 19  1  0
 13 14  1  6
 15 14  1  0
 16 15  1  0
 17 16  1  0
 18 17  1  0
 19 29  1  0
 19 20  2  0
 21 22  1  0
 22 23  2  0
 24 22  1  0
 24 25  1  0
 25 26  1  0
 27 26  1  0
 28 27  1  1
 28 30  1  0
 29 28  1  0
 30 31  1  0
 32 30  2  0
M  END
$$$$
