FKR.pdb
     RDKit          3D

 32 32  0  0  1  0  0  0  0  0999 V2000
   18.6914  -13.5347  -15.3236 N   0  0  0  0  0  0  0  0  0  0  0  0
   18.8659  -12.2497  -15.8766 C   0  0  1  0  0  0  0  0  0  0  0  0
   17.5597  -11.5820  -16.2048 C   0  0  0  0  0  0  0  0  0  0  0  0
   16.7640  -12.2008  -17.2517 C   0  0  0  0  0  0  0  0  0  0  0  0
   15.3798  -12.0525  -17.2155 C   0  0  0  0  0  0  0  0  0  0  0  0
   14.6686  -12.6240  -18.2608 C   0  0  0  0  0  0  0  0  0  0  0  0
   15.3066  -13.2942  -19.2668 C   0  0  0  0  0  0  0  0  0  0  0  0
   16.6713  -13.4487  -19.3150 C   0  0  0  0  0  0  0  0  0  0  0  0
   17.3961  -12.8848  -18.2800 C   0  0  0  0  0  0  0  0  0  0  0  0
   19.6531  -11.2766  -15.1229 C   0  0  0  0  0  0  0  0  0  0  0  0
   19.4645  -11.2145  -13.8596 O   0  0  0  0  0  0  0  0  0  0  0  0
   20.6057  -10.4078  -15.7417 N   0  0  0  0  0  0  0  0  0  0  0  0
   21.2639   -9.4812  -14.8690 C   0  0  1  0  0  0  0  0  0  0  0  0
   22.6487   -9.0862  -15.4114 C   0  0  0  0  0  0  0  0  0  0  0  0
   23.5441  -10.2752  -15.2248 C   0  0  0  0  0  0  0  0  0  0  0  0
   24.9704  -10.1124  -15.6087 C   0  0  0  0  0  0  0  0  0  0  0  0
   25.7797  -11.3656  -15.5570 C   0  0  0  0  0  0  0  0  0  0  0  0
   27.1400  -11.2305  -16.0140 N   0  0  0  0  0  0  0  0  0  0  0  0
   20.4423   -8.2359  -14.7324 C   0  0  0  0  0  0  0  0  0  0  0  0
   19.8545   -7.8059  -15.7696 O   0  0  0  0  0  0  0  0  0  0  0  0
   15.7868   -5.1210   -8.0015 N   0  0  0  0  0  0  0  0  0  0  0  0
   16.2474   -6.3209   -8.6264 C   0  0  0  0  0  0  0  0  0  0  0  0
   16.1083   -7.4657   -8.0926 N   0  0  0  0  0  0  0  0  0  0  0  0
   16.8739   -6.2076   -9.9044 N   0  0  0  0  0  0  0  0  0  0  0  0
   17.5153   -4.9614  -10.2905 C   0  0  0  0  0  0  0  0  0  0  0  0
   18.0201   -5.1660  -11.6991 C   0  0  0  0  0  0  0  0  0  0  0  0
   18.8320   -6.3899  -11.9191 C   0  0  0  0  0  0  0  0  0  0  0  0
   19.4929   -6.3462  -13.2996 C   0  0  2  0  0  0  0  0  0  0  0  0
   20.2923   -7.5401  -13.5317 N   0  0  0  0  0  0  0  0  0  0  0  0
   20.3304   -5.1467  -13.4033 C   0  0  0  0  0  0  0  0  0  0  0  0
   19.8264   -3.8919  -13.6443 O   0  0  0  0  0  0  0  0  0  0  0  0
   21.5952   -5.3112  -13.2553 O   0  0  0  0  0  0  0  0  0  0  0  0
  2  1  1  1
  2 10  1  0
  2  3  1  0
  3  4  1  0
  4  9  2  0
  4  5  1  0
  5  6  2  0
  6  7  1  0
  8  7  2  0
  9  8  1  0
 10 11  2  0
 12 10  1  0
 12 13  1  0
 13 19  1  0
 13 14  1  6
 15 14  1  0
 16 15  1  0
 17 16  1  0
 18 17  1  0
 19 29  1  0
 19 20  2  0
 21 22  1  0
 22 23  2  0
 24 22  1  0
 24 25  1  0
 25 26  1  0
 27 26  1  0
 28 27  1  1
 28 30  1  0
 29 28  1  0
 30 31  1  0
 32 30  2  0
M  END
$$$$
