FKR.pdb
     RDKit          3D

 32 32  0  0  1  0  0  0  0  0999 V2000
   26.2853  -16.5364  -18.3605 N   0  0  0  0  0  0  0  0  0  0  0  0
   26.0739  -16.7213  -16.9790 C   0  0  1  0  0  0  0  0  0  0  0  0
   25.3974  -15.5423  -16.3371 C   0  0  0  0  0  0  0  0  0  0  0  0
   26.2144  -14.3559  -16.1446 C   0  0  0  0  0  0  0  0  0  0  0  0
   27.0741  -14.3065  -15.0501 C   0  0  0  0  0  0  0  0  0  0  0  0
   27.8646  -13.1721  -14.9348 C   0  0  0  0  0  0  0  0  0  0  0  0
   27.7931  -12.1640  -15.8551 C   0  0  0  0  0  0  0  0  0  0  0  0
   26.9492  -12.1991  -16.9393 C   0  0  0  0  0  0  0  0  0  0  0  0
   26.1534  -13.3235  -17.0694 C   0  0  0  0  0  0  0  0  0  0  0  0
   25.3396  -17.9084  -16.5474 C   0  0  0  0  0  0  0  0  0  0  0  0
   24.4033  -18.3335  -17.3077 O   0  0  0  0  0  0  0  0  0  0  0  0
   25.6274  -18.5933  -15.3254 N   0  0  0  0  0  0  0  0  0  0  0  0
   24.9934  -19.8677  -15.1604 C   0  0  1  0  0  0  0  0  0  0  0  0
   25.8676  -20.8264  -14.3329 C   0  0  0  0  0  0  0  0  0  0  0  0
   26.4394  -21.8294  -15.2905 C   0  0  0  0  0  0  0  0  0  0  0  0
   27.7597  -21.5101  -15.8932 C   0  0  0  0  0  0  0  0  0  0  0  0
   28.2977  -22.5559  -16.8125 C   0  0  0  0  0  0  0  0  0  0  0  0
   29.4680  -22.1665  -17.5584 N   0  0  0  0  0  0  0  0  0  0  0  0
   23.6841  -19.6991  -14.4519 C   0  0  0  0  0  0  0  0  0  0  0  0
   23.6820  -19.0251  -13.3787 O   0  0  0  0  0  0  0  0  0  0  0  0
   16.5603  -23.4837  -13.4416 N   0  0  0  0  0  0  0  0  0  0  0  0
   15.9073  -22.2139  -13.5029 C   0  0  0  0  0  0  0  0  0  0  0  0
   14.8732  -21.9438  -12.8154 N   0  0  0  0  0  0  0  0  0  0  0  0
   16.4618  -21.2215  -14.3667 N   0  0  0  0  0  0  0  0  0  0  0  0
   17.6610  -21.5150  -15.1343 C   0  0  0  0  0  0  0  0  0  0  0  0
   18.7940  -20.8024  -14.4349 C   0  0  0  0  0  0  0  0  0  0  0  0
   20.1144  -20.8769  -15.1107 C   0  0  0  0  0  0  0  0  0  0  0  0
   21.1887  -20.2065  -14.2500 C   0  0  2  0  0  0  0  0  0  0  0  0
   22.4828  -20.2381  -14.9153 N   0  0  0  0  0  0  0  0  0  0  0  0
   21.2689  -20.8842  -12.9519 C   0  0  0  0  0  0  0  0  0  0  0  0
   20.6880  -20.3953  -11.8072 O   0  0  0  0  0  0  0  0  0  0  0  0
   21.9215  -21.9894  -12.9170 O   0  0  0  0  0  0  0  0  0  0  0  0
  2  1  1  6
  2 10  1  0
  2  3  1  0
  3  4  1  0
  4  9  2  0
  4  5  1  0
  5  6  2  0
  6  7  1  0
  8  7  2  0
  9  8  1  0
 10 11  2  0
 12 10  1  0
 12 13  1  0
 13 19  1  0
 13 14  1  1
 15 14  1  0
 16 15  1  0
 17 16  1  0
 18 17  1  0
 19 29  1  0
 19 20  2  0
 21 22  1  0
 22 23  2  0
 24 22  1  0
 24 25  1  0
 25 26  1  0
 27 26  1  0
 28 27  1  6
 28 30  1  0
 29 28  1  0
 30 31  1  0
 32 30  2  0
M  END
$$$$
