FKR.pdb
     RDKit          3D

 32 32  0  0  1  0  0  0  0  0999 V2000
   24.2406  -24.3059  -21.5328 N   0  0  0  0  0  0  0  0  0  0  0  0
   23.7178  -23.0185  -21.7705 C   0  0  1  0  0  0  0  0  0  0  0  0
   22.2734  -23.0511  -22.1854 C   0  0  0  0  0  0  0  0  0  0  0  0
   22.0106  -23.3434  -23.5845 C   0  0  0  0  0  0  0  0  0  0  0  0
   21.4955  -24.5927  -23.9213 C   0  0  0  0  0  0  0  0  0  0  0  0
   21.2204  -24.8072  -25.2641 C   0  0  0  0  0  0  0  0  0  0  0  0
   21.4477  -23.8339  -26.1966 C   0  0  0  0  0  0  0  0  0  0  0  0
   21.9560  -22.5973  -25.8788 C   0  0  0  0  0  0  0  0  0  0  0  0
   22.2361  -22.3666  -24.5435 C   0  0  0  0  0  0  0  0  0  0  0  0
   23.8224  -22.0250  -20.7043 C   0  0  0  0  0  0  0  0  0  0  0  0
   24.0267  -22.4518  -19.5162 O   0  0  0  0  0  0  0  0  0  0  0  0
   23.7028  -20.6200  -20.9427 N   0  0  0  0  0  0  0  0  0  0  0  0
   23.9163  -19.7740  -19.8060 C   0  0  1  0  0  0  0  0  0  0  0  0
   24.3927  -18.3737  -20.2302 C   0  0  0  0  0  0  0  0  0  0  0  0
   24.6882  -17.6147  -18.9706 C   0  0  0  0  0  0  0  0  0  0  0  0
   25.3486  -16.2919  -19.1193 C   0  0  0  0  0  0  0  0  0  0  0  0
   25.7665  -15.6529  -17.8366 C   0  0  0  0  0  0  0  0  0  0  0  0
   25.1088  -14.4063  -17.5353 N   0  0  0  0  0  0  0  0  0  0  0  0
   22.6402  -19.6208  -19.0363 C   0  0  0  0  0  0  0  0  0  0  0  0
   21.6320  -19.1706  -19.6583 O   0  0  0  0  0  0  0  0  0  0  0  0
   18.4012  -18.7537  -11.9232 N   0  0  0  0  0  0  0  0  0  0  0  0
   19.5561  -17.9120  -11.9070 C   0  0  0  0  0  0  0  0  0  0  0  0
   19.5357  -16.7336  -11.4316 N   0  0  0  0  0  0  0  0  0  0  0  0
   20.7715  -18.4393  -12.4391 N   0  0  0  0  0  0  0  0  0  0  0  0
   20.7951  -19.7774  -13.0071 C   0  0  0  0  0  0  0  0  0  0  0  0
   20.5585  -19.6103  -14.4893 C   0  0  0  0  0  0  0  0  0  0  0  0
   21.7597  -19.7505  -15.3514 C   0  0  0  0  0  0  0  0  0  0  0  0
   21.3585  -19.7161  -16.8286 C   0  0  2  0  0  0  0  0  0  0  0  0
   22.5108  -19.9510  -17.6862 N   0  0  0  0  0  0  0  0  0  0  0  0
   20.7502  -18.4186  -17.1402 C   0  0  0  0  0  0  0  0  0  0  0  0
   21.4806  -17.2888  -17.4172 O   0  0  0  0  0  0  0  0  0  0  0  0
   19.4672  -18.3693  -17.1476 O   0  0  0  0  0  0  0  0  0  0  0  0
  2  1  1  1
  2 10  1  0
  2  3  1  0
  3  4  1  0
  4  9  2  0
  4  5  1  0
  5  6  2  0
  6  7  1  0
  8  7  2  0
  9  8  1  0
 10 11  2  0
 12 10  1  0
 12 13  1  0
 13 19  1  0
 13 14  1  6
 15 14  1  0
 16 15  1  0
 17 16  1  0
 18 17  1  0
 19 29  1  0
 19 20  2  0
 21 22  1  0
 22 23  2  0
 24 22  1  0
 24 25  1  0
 25 26  1  0
 27 26  1  0
 28 27  1  1
 28 30  1  0
 29 28  1  0
 30 31  1  0
 32 30  2  0
M  END
$$$$
