FKR.pdb
     RDKit          3D

 32 32  0  0  1  0  0  0  0  0999 V2000
   26.5127  -17.9300  -21.5840 N   0  0  0  0  0  0  0  0  0  0  0  0
   26.6497  -18.1462  -20.1977 C   0  0  1  0  0  0  0  0  0  0  0  0
   26.3288  -16.9202  -19.3892 C   0  0  0  0  0  0  0  0  0  0  0  0
   27.1011  -15.7271  -19.6926 C   0  0  0  0  0  0  0  0  0  0  0  0
   28.4160  -15.6488  -19.2405 C   0  0  0  0  0  0  0  0  0  0  0  0
   29.1250  -14.5096  -19.5934 C   0  0  0  0  0  0  0  0  0  0  0  0
   28.5503  -13.5241  -20.3462 C   0  0  0  0  0  0  0  0  0  0  0  0
   27.2541  -13.5877  -20.7985 C   0  0  0  0  0  0  0  0  0  0  0  0
   26.5325  -14.7174  -20.4554 C   0  0  0  0  0  0  0  0  0  0  0  0
   25.9040  -19.2489  -19.5956 C   0  0  0  0  0  0  0  0  0  0  0  0
   24.7793  -19.5583  -20.1199 O   0  0  0  0  0  0  0  0  0  0  0  0
   26.3813  -19.9756  -18.4601 N   0  0  0  0  0  0  0  0  0  0  0  0
   25.5247  -21.0209  -17.9834 C   0  0  1  0  0  0  0  0  0  0  0  0
   26.2341  -21.8917  -16.9315 C   0  0  0  0  0  0  0  0  0  0  0  0
   27.2992  -22.6635  -17.6526 C   0  0  0  0  0  0  0  0  0  0  0  0
   28.1567  -23.5578  -16.8320 C   0  0  0  0  0  0  0  0  0  0  0  0
   29.2185  -24.2791  -17.5938 C   0  0  0  0  0  0  0  0  0  0  0  0
   30.1389  -25.0377  -16.7847 N   0  0  0  0  0  0  0  0  0  0  0  0
   24.3002  -20.4308  -17.3536 C   0  0  0  0  0  0  0  0  0  0  0  0
   24.4508  -19.3944  -16.6398 O   0  0  0  0  0  0  0  0  0  0  0  0
   18.3601  -15.6321  -18.4098 N   0  0  0  0  0  0  0  0  0  0  0  0
   17.5696  -16.4759  -17.5698 C   0  0  0  0  0  0  0  0  0  0  0  0
   16.3032  -16.3871  -17.5103 N   0  0  0  0  0  0  0  0  0  0  0  0
   18.2476  -17.4572  -16.7851 N   0  0  0  0  0  0  0  0  0  0  0  0
   19.6703  -17.6854  -16.9788 C   0  0  0  0  0  0  0  0  0  0  0  0
   19.7939  -19.0365  -17.6420 C   0  0  0  0  0  0  0  0  0  0  0  0
   21.1669  -19.4283  -18.0509 C   0  0  0  0  0  0  0  0  0  0  0  0
   21.7663  -20.4002  -17.0308 C   0  0  2  0  0  0  0  0  0  0  0  0
   23.0187  -20.9590  -17.5184 N   0  0  0  0  0  0  0  0  0  0  0  0
   20.8056  -21.4732  -16.7543 C   0  0  0  0  0  0  0  0  0  0  0  0
   19.8114  -21.3728  -15.8120 O   0  0  0  0  0  0  0  0  0  0  0  0
   20.9259  -22.5483  -17.4460 O   0  0  0  0  0  0  0  0  0  0  0  0
  2  1  1  6
  2 10  1  0
  2  3  1  0
  3  4  1  0
  4  9  2  0
  4  5  1  0
  5  6  2  0
  6  7  1  0
  8  7  2  0
  9  8  1  0
 10 11  2  0
 12 10  1  0
 12 13  1  0
 13 19  1  0
 13 14  1  1
 15 14  1  0
 16 15  1  0
 17 16  1  0
 18 17  1  0
 19 29  1  0
 19 20  2  0
 21 22  1  0
 22 23  2  0
 24 22  1  0
 24 25  1  0
 25 26  1  0
 27 26  1  0
 28 27  1  6
 28 30  1  0
 29 28  1  0
 30 31  1  0
 32 30  2  0
M  END
$$$$
