ANV.pdb
     RDKit          3D

 21 20  0  0  1  0  0  0  0  0999 V2000
    8.4860  -12.2273   19.5749 C   0  0  0  0  0  0  0  0  0  0  0  0
    8.4617  -13.7397   19.4144 C   0  0  2  0  0  0  0  0  0  0  0  0
    7.6958  -14.1102   18.2590 N   0  0  0  0  0  0  0  0  0  0  0  0
    7.8366  -14.2951   20.6564 C   0  0  0  0  0  0  0  0  0  0  0  0
    6.6010  -14.2737   20.8432 O   0  0  0  0  0  0  0  0  0  0  0  0
    6.2551  -17.9185   22.0112 N   0  0  0  0  0  0  0  0  0  0  0  0
    7.6478  -17.6077   21.8571 C   0  0  0  0  0  0  0  0  0  0  0  0
    8.1847  -17.9584   20.7986 O   0  0  0  0  0  0  0  0  0  0  0  0
    8.3699  -16.9065   22.9238 C   0  0  0  0  0  0  0  0  0  0  0  0
    8.1410  -15.4214   22.8551 C   0  0  2  0  0  0  0  0  0  0  0  0
    8.6760  -14.8620   21.6486 N   0  0  0  0  0  0  0  0  0  0  0  0
    8.7213  -14.7401   24.0580 C   0  0  0  0  0  0  0  0  0  0  0  0
    9.9528  -14.5806   24.2188 O   0  0  0  0  0  0  0  0  0  0  0  0
    7.0531  -11.5118   25.7383 C   0  0  0  0  0  0  0  0  0  0  0  0
    7.1429  -12.6671   26.6858 C   0  0  1  0  0  0  0  0  0  0  0  0
    5.8343  -13.3723   26.9090 C   0  0  0  0  0  0  0  0  0  0  0  0
    8.2408  -13.6573   26.2917 C   0  0  2  0  0  0  0  0  0  0  0  0
    7.8292  -14.2663   25.0375 N   0  0  0  0  0  0  0  0  0  0  0  0
    8.4004  -14.6931   27.3393 C   0  0  0  0  0  0  0  0  0  0  0  0
    7.9433  -15.8516   27.1912 O   0  0  0  0  0  0  0  0  0  0  0  0
    9.0692  -14.3758   28.5088 O   0  0  0  0  0  0  0  0  0  0  0  0
  2  1  1  1
  2  3  1  0
  4  2  1  0
  4 11  1  0
  5  4  2  0
  7  8  2  0
  7  6  1  0
 10  9  1  1
  9  7  1  0
 10 11  1  0
 10 12  1  0
 12 18  1  0
 12 13  2  0
 15 14  1  6
 15 17  1  0
 16 15  1  0
 17 19  1  0
 17 18  1  6
 19 21  1  0
 20 19  2  0
M  END
$$$$
