ANV.pdb
     RDKit          3D

 21 20  0  0  1  0  0  0  0  0999 V2000
    7.2806  -12.7804   18.8486 C   0  0  0  0  0  0  0  0  0  0  0  0
    8.5405  -13.2074   19.5860 C   0  0  2  0  0  0  0  0  0  0  0  0
    9.3028  -14.1250   18.7886 N   0  0  0  0  0  0  0  0  0  0  0  0
    8.0954  -13.8632   20.8562 C   0  0  0  0  0  0  0  0  0  0  0  0
    7.3279  -13.2944   21.6622 O   0  0  0  0  0  0  0  0  0  0  0  0
    8.5984  -18.5305   20.0482 N   0  0  0  0  0  0  0  0  0  0  0  0
    7.8121  -17.9472   21.0978 C   0  0  0  0  0  0  0  0  0  0  0  0
    6.5823  -17.9963   20.9678 O   0  0  0  0  0  0  0  0  0  0  0  0
    8.4680  -17.3304   22.2555 C   0  0  0  0  0  0  0  0  0  0  0  0
    8.1602  -15.8605   22.3402 C   0  0  2  0  0  0  0  0  0  0  0  0
    8.5613  -15.1698   21.1499 N   0  0  0  0  0  0  0  0  0  0  0  0
    8.8067  -15.2529   23.5488 C   0  0  0  0  0  0  0  0  0  0  0  0
   10.0485  -15.2062   23.7023 O   0  0  0  0  0  0  0  0  0  0  0  0
    6.0557  -13.4770   26.2826 C   0  0  0  0  0  0  0  0  0  0  0  0
    7.4368  -12.9429   26.0640 C   0  0  1  0  0  0  0  0  0  0  0  0
    7.9336  -12.0690   27.1817 C   0  0  0  0  0  0  0  0  0  0  0  0
    8.4432  -14.0496   25.7426 C   0  0  2  0  0  0  0  0  0  0  0  0
    7.9667  -14.7175   24.5426 N   0  0  0  0  0  0  0  0  0  0  0  0
    8.5290  -15.0104   26.8674 C   0  0  0  0  0  0  0  0  0  0  0  0
    7.8867  -16.0876   26.8601 O   0  0  0  0  0  0  0  0  0  0  0  0
    9.3362  -14.7132   27.9517 O   0  0  0  0  0  0  0  0  0  0  0  0
  2  1  1  6
  2  3  1  0
  4  2  1  0
  4 11  1  0
  5  4  2  0
  7  8  2  0
  7  6  1  0
 10  9  1  6
  9  7  1  0
 10 11  1  0
 10 12  1  0
 12 18  1  0
 12 13  2  0
 15 14  1  1
 15 17  1  0
 16 15  1  0
 17 19  1  0
 17 18  1  6
 19 21  1  0
 20 19  2  0
M  END
$$$$
