ANV.pdb
     RDKit          3D

 21 20  0  0  1  0  0  0  0  0999 V2000
    8.4887  -12.5992   19.0271 C   0  0  0  0  0  0  0  0  0  0  0  0
    8.6467  -14.1101   18.9492 C   0  0  2  0  0  0  0  0  0  0  0  0
    8.2166  -14.5949   17.6691 N   0  0  0  0  0  0  0  0  0  0  0  0
    7.7994  -14.6890   20.0394 C   0  0  0  0  0  0  0  0  0  0  0  0
    6.8139  -15.4182   19.7966 O   0  0  0  0  0  0  0  0  0  0  0  0
    8.1087  -18.6293   23.7470 N   0  0  0  0  0  0  0  0  0  0  0  0
    7.3666  -17.4652   23.3542 C   0  0  0  0  0  0  0  0  0  0  0  0
    6.3622  -17.1910   24.0233 O   0  0  0  0  0  0  0  0  0  0  0  0
    7.8063  -16.6613   22.2091 C   0  0  0  0  0  0  0  0  0  0  0  0
    7.6268  -15.1911   22.4712 C   0  0  2  0  0  0  0  0  0  0  0  0
    8.1289  -14.3985   21.3876 N   0  0  0  0  0  0  0  0  0  0  0  0
    8.2815  -14.7997   23.7620 C   0  0  0  0  0  0  0  0  0  0  0  0
    9.5009  -14.9767   23.9848 O   0  0  0  0  0  0  0  0  0  0  0  0
    5.6175  -12.9653   26.5541 C   0  0  0  0  0  0  0  0  0  0  0  0
    6.9398  -12.3666   26.1888 C   0  0  1  0  0  0  0  0  0  0  0  0
    7.4597  -11.3813   27.1980 C   0  0  0  0  0  0  0  0  0  0  0  0
    7.9907  -13.4314   25.8682 C   0  0  2  0  0  0  0  0  0  0  0  0
    7.4761  -14.2098   24.7535 N   0  0  0  0  0  0  0  0  0  0  0  0
    8.2160  -14.3034   27.0449 C   0  0  0  0  0  0  0  0  0  0  0  0
    8.8049  -13.8832   28.0694 O   0  0  0  0  0  0  0  0  0  0  0  0
    7.7664  -15.6121   27.0138 O   0  0  0  0  0  0  0  0  0  0  0  0
  2  1  1  6
  2  3  1  0
  4  2  1  0
  4 11  1  0
  5  4  2  0
  7  8  2  0
  7  6  1  0
 10  9  1  6
  9  7  1  0
 10 11  1  0
 10 12  1  0
 12 18  1  0
 12 13  2  0
 15 14  1  1
 15 17  1  0
 16 15  1  0
 17 19  1  0
 17 18  1  6
 19 21  1  0
 20 19  2  0
M  END
$$$$
