ANV.pdb
     RDKit          3D

 21 20  0  0  1  0  0  0  0  0999 V2000
    7.3225  -12.6005   19.1845 C   0  0  0  0  0  0  0  0  0  0  0  0
    8.5143  -13.3118   19.8067 C   0  0  2  0  0  0  0  0  0  0  0  0
    8.8643  -14.4720   19.0384 N   0  0  0  0  0  0  0  0  0  0  0  0
    8.1061  -13.7058   21.1923 C   0  0  0  0  0  0  0  0  0  0  0  0
    7.6445  -12.8787   22.0077 O   0  0  0  0  0  0  0  0  0  0  0  0
    7.7098  -18.4754   20.8811 N   0  0  0  0  0  0  0  0  0  0  0  0
    7.0489  -17.6817   21.8777 C   0  0  0  0  0  0  0  0  0  0  0  0
    5.8186  -17.5824   21.7874 O   0  0  0  0  0  0  0  0  0  0  0  0
    7.8258  -17.0330   22.9392 C   0  0  0  0  0  0  0  0  0  0  0  0
    7.7417  -15.5344   22.8412 C   0  0  2  0  0  0  0  0  0  0  0  0
    8.2493  -15.0599   21.5874 N   0  0  0  0  0  0  0  0  0  0  0  0
    8.4645  -14.8877   23.9845 C   0  0  0  0  0  0  0  0  0  0  0  0
    9.7124  -14.8912   24.0869 O   0  0  0  0  0  0  0  0  0  0  0  0
    7.2871  -11.4036   25.5328 C   0  0  0  0  0  0  0  0  0  0  0  0
    7.3006  -12.4959   26.5561 C   0  0  1  0  0  0  0  0  0  0  0  0
    5.9345  -13.0152   26.9078 C   0  0  0  0  0  0  0  0  0  0  0  0
    8.2414  -13.6398   26.1721 C   0  0  2  0  0  0  0  0  0  0  0  0
    7.6914  -14.2546   24.9752 N   0  0  0  0  0  0  0  0  0  0  0  0
    8.3215  -14.6314   27.2704 C   0  0  0  0  0  0  0  0  0  0  0  0
    7.7233  -15.7317   27.2053 O   0  0  0  0  0  0  0  0  0  0  0  0
    9.0738  -14.3375   28.3944 O   0  0  0  0  0  0  0  0  0  0  0  0
  2  1  1  6
  2  3  1  0
  4  2  1  0
  4 11  1  0
  5  4  2  0
  7  8  2  0
  7  6  1  0
 10  9  1  6
  9  7  1  0
 10 11  1  0
 10 12  1  0
 12 18  1  0
 12 13  2  0
 15 14  1  6
 15 17  1  0
 16 15  1  0
 17 19  1  0
 17 18  1  6
 19 21  1  0
 20 19  2  0
M  END
$$$$
