ANV.pdb
     RDKit          3D

 21 20  0  0  1  0  0  0  0  0999 V2000
    8.0034  -12.5625   19.3519 C   0  0  0  0  0  0  0  0  0  0  0  0
    8.2882  -14.0567   19.3467 C   0  0  2  0  0  0  0  0  0  0  0  0
    7.7783  -14.6613   18.1496 N   0  0  0  0  0  0  0  0  0  0  0  0
    7.6092  -14.6293   20.5520 C   0  0  0  0  0  0  0  0  0  0  0  0
    6.4999  -15.2005   20.4791 O   0  0  0  0  0  0  0  0  0  0  0  0
    6.0763  -17.5976   24.3843 N   0  0  0  0  0  0  0  0  0  0  0  0
    7.4575  -17.3680   24.0687 C   0  0  0  0  0  0  0  0  0  0  0  0
    8.2923  -17.7701   24.8891 O   0  0  0  0  0  0  0  0  0  0  0  0
    7.8266  -16.6858   22.8240 C   0  0  0  0  0  0  0  0  0  0  0  0
    7.7425  -15.1915   22.9731 C   0  0  2  0  0  0  0  0  0  0  0  0
    8.2478  -14.5179   21.8130 N   0  0  0  0  0  0  0  0  0  0  0  0
    8.4677  -14.7407   24.2055 C   0  0  0  0  0  0  0  0  0  0  0  0
    9.6990  -14.9027   24.3652 O   0  0  0  0  0  0  0  0  0  0  0  0
    7.5332  -11.2245   25.8230 C   0  0  0  0  0  0  0  0  0  0  0  0
    7.4191  -12.3453   26.8085 C   0  0  1  0  0  0  0  0  0  0  0  0
    6.0035  -12.7693   27.0843 C   0  0  0  0  0  0  0  0  0  0  0  0
    8.2878  -13.5454   26.4262 C   0  0  2  0  0  0  0  0  0  0  0  0
    7.7166  -14.1109   25.2150 N   0  0  0  0  0  0  0  0  0  0  0  0
    8.2854  -14.5506   27.5150 C   0  0  0  0  0  0  0  0  0  0  0  0
    7.6319  -15.6169   27.4215 O   0  0  0  0  0  0  0  0  0  0  0  0
    9.0210  -14.3081   28.6620 O   0  0  0  0  0  0  0  0  0  0  0  0
  2  1  1  6
  2  3  1  0
  4  2  1  0
  4 11  1  0
  5  4  2  0
  7  8  2  0
  7  6  1  0
 10  9  1  6
  9  7  1  0
 10 11  1  0
 10 12  1  0
 12 18  1  0
 12 13  2  0
 15 14  1  6
 15 17  1  0
 16 15  1  0
 17 19  1  0
 17 18  1  6
 19 21  1  0
 20 19  2  0
M  END
$$$$
