ANV.pdb
     RDKit          3D

 21 20  0  0  1  0  0  0  0  0999 V2000
    8.2046  -12.2090   19.5514 C   0  0  0  0  0  0  0  0  0  0  0  0
    8.2551  -13.7108   19.3149 C   0  0  2  0  0  0  0  0  0  0  0  0
    7.4435  -14.0694   18.1873 N   0  0  0  0  0  0  0  0  0  0  0  0
    7.7372  -14.3610   20.5601 C   0  0  0  0  0  0  0  0  0  0  0  0
    6.5147  -14.5206   20.7654 O   0  0  0  0  0  0  0  0  0  0  0  0
    7.4755  -18.7923   23.9918 N   0  0  0  0  0  0  0  0  0  0  0  0
    7.4050  -17.7636   22.9934 C   0  0  0  0  0  0  0  0  0  0  0  0
    6.3221  -17.6236   22.4109 O   0  0  0  0  0  0  0  0  0  0  0  0
    8.5802  -16.9357   22.7026 C   0  0  0  0  0  0  0  0  0  0  0  0
    8.2384  -15.4711   22.7308 C   0  0  2  0  0  0  0  0  0  0  0  0
    8.6658  -14.8082   21.5339 N   0  0  0  0  0  0  0  0  0  0  0  0
    8.8295  -14.8127   23.9412 C   0  0  0  0  0  0  0  0  0  0  0  0
   10.0511  -14.5587   24.0465 O   0  0  0  0  0  0  0  0  0  0  0  0
    7.3986  -11.6836   25.6456 C   0  0  0  0  0  0  0  0  0  0  0  0
    7.3878  -12.8142   26.6266 C   0  0  1  0  0  0  0  0  0  0  0  0
    6.0222  -13.3933   26.8704 C   0  0  0  0  0  0  0  0  0  0  0  0
    8.3922  -13.9091   26.2618 C   0  0  2  0  0  0  0  0  0  0  0  0
    7.9597  -14.4729   24.9936 N   0  0  0  0  0  0  0  0  0  0  0  0
    8.4157  -14.9565   27.3099 C   0  0  0  0  0  0  0  0  0  0  0  0
    7.8285  -16.0536   27.1538 O   0  0  0  0  0  0  0  0  0  0  0  0
    9.1012  -14.7194   28.4887 O   0  0  0  0  0  0  0  0  0  0  0  0
  2  1  1  1
  2  3  1  0
  4  2  1  0
  4 11  1  0
  5  4  2  0
  7  8  2  0
  7  6  1  0
 10  9  1  6
  9  7  1  0
 10 11  1  0
 10 12  1  0
 12 18  1  0
 12 13  2  0
 15 14  1  6
 15 17  1  0
 16 15  1  0
 17 19  1  0
 17 18  1  6
 19 21  1  0
 20 19  2  0
M  END
$$$$
