ANV.pdb
     RDKit          3D

 21 20  0  0  1  0  0  0  0  0999 V2000
    7.0525  -13.1234   18.9140 C   0  0  0  0  0  0  0  0  0  0  0  0
    8.3228  -13.3890   19.7075 C   0  0  2  0  0  0  0  0  0  0  0  0
    9.1237  -14.3850   19.0553 N   0  0  0  0  0  0  0  0  0  0  0  0
    7.8942  -13.8661   21.0604 C   0  0  0  0  0  0  0  0  0  0  0  0
    7.1119  -13.2071   21.7786 O   0  0  0  0  0  0  0  0  0  0  0  0
    8.5415  -18.6500   24.8284 N   0  0  0  0  0  0  0  0  0  0  0  0
    7.7275  -17.7090   24.1130 C   0  0  0  0  0  0  0  0  0  0  0  0
    6.6374  -17.4147   24.6196 O   0  0  0  0  0  0  0  0  0  0  0  0
    8.1964  -17.1425   22.8440 C   0  0  0  0  0  0  0  0  0  0  0  0
    7.9598  -15.6582   22.7866 C   0  0  2  0  0  0  0  0  0  0  0  0
    8.3936  -15.1044   21.5377 N   0  0  0  0  0  0  0  0  0  0  0  0
    8.6349  -14.9697   23.9347 C   0  0  0  0  0  0  0  0  0  0  0  0
    9.8720  -14.7816   23.9800 O   0  0  0  0  0  0  0  0  0  0  0  0
    7.2039  -11.6368   25.5439 C   0  0  0  0  0  0  0  0  0  0  0  0
    7.2653  -12.7645   26.5262 C   0  0  1  0  0  0  0  0  0  0  0  0
    5.9372  -13.4212   26.7804 C   0  0  0  0  0  0  0  0  0  0  0  0
    8.3287  -13.8004   26.1554 C   0  0  2  0  0  0  0  0  0  0  0  0
    7.8283  -14.5227   24.9974 N   0  0  0  0  0  0  0  0  0  0  0  0
    8.5560  -14.7321   27.2851 C   0  0  0  0  0  0  0  0  0  0  0  0
    9.0743  -14.3457   28.3598 O   0  0  0  0  0  0  0  0  0  0  0  0
    8.1883  -16.0598   27.1521 O   0  0  0  0  0  0  0  0  0  0  0  0
  2  1  1  6
  2  3  1  0
  4  2  1  0
  4 11  1  0
  5  4  2  0
  7  8  2  0
  7  6  1  0
 10  9  1  6
  9  7  1  0
 10 11  1  0
 10 12  1  0
 12 18  1  0
 12 13  2  0
 15 14  1  6
 15 17  1  0
 16 15  1  0
 17 19  1  0
 17 18  1  6
 19 21  1  0
 20 19  2  0
M  END
$$$$
