ANV.pdb
     RDKit          3D

 21 20  0  0  1  0  0  0  0  0999 V2000
    7.2232  -13.0987   18.8524 C   0  0  0  0  0  0  0  0  0  0  0  0
    8.3694  -13.6529   19.6847 C   0  0  2  0  0  0  0  0  0  0  0  0
    8.9525  -14.7945   19.0401 N   0  0  0  0  0  0  0  0  0  0  0  0
    7.7918  -14.0393   21.0108 C   0  0  0  0  0  0  0  0  0  0  0  0
    7.2138  -13.2123   21.7485 O   0  0  0  0  0  0  0  0  0  0  0  0
    9.6949  -17.1046   21.9374 N   0  0  0  0  0  0  0  0  0  0  0  0
    8.5954  -17.9290   22.3515 C   0  0  0  0  0  0  0  0  0  0  0  0
    8.7671  -19.1538   22.3054 O   0  0  0  0  0  0  0  0  0  0  0  0
    7.3418  -17.3156   22.8024 C   0  0  0  0  0  0  0  0  0  0  0  0
    7.4025  -15.8154   22.7107 C   0  0  2  0  0  0  0  0  0  0  0  0
    7.9062  -15.3861   21.4392 N   0  0  0  0  0  0  0  0  0  0  0  0
    8.2289  -15.2498   23.8265 C   0  0  0  0  0  0  0  0  0  0  0  0
    9.4791  -15.1945   23.7838 O   0  0  0  0  0  0  0  0  0  0  0  0
    7.6364  -12.1430   27.6403 C   0  0  0  0  0  0  0  0  0  0  0  0
    7.1167  -13.0156   26.5408 C   0  0  1  0  0  0  0  0  0  0  0  0
    6.4700  -12.2554   25.4167 C   0  0  0  0  0  0  0  0  0  0  0  0
    8.1809  -13.9793   26.0120 C   0  0  2  0  0  0  0  0  0  0  0  0
    7.5540  -14.7654   24.9621 N   0  0  0  0  0  0  0  0  0  0  0  0
    8.6616  -14.8632   27.1000 C   0  0  0  0  0  0  0  0  0  0  0  0
    8.2332  -16.0346   27.2307 O   0  0  0  0  0  0  0  0  0  0  0  0
    9.6052  -14.3859   27.9930 O   0  0  0  0  0  0  0  0  0  0  0  0
  2  1  1  6
  2  3  1  0
  4  2  1  0
  4 11  1  0
  5  4  2  0
  7  8  2  0
  7  6  1  0
 10  9  1  6
  9  7  1  0
 10 11  1  0
 10 12  1  0
 12 18  1  0
 12 13  2  0
 15 14  1  1
 15 17  1  0
 16 15  1  0
 17 19  1  0
 17 18  1  6
 19 21  1  0
 20 19  2  0
M  END
$$$$
