ANV.pdb
     RDKit          3D

 21 20  0  0  1  0  0  0  0  0999 V2000
    7.1778  -13.0530   18.9860 C   0  0  0  0  0  0  0  0  0  0  0  0
    8.5123  -13.3082   19.6698 C   0  0  2  0  0  0  0  0  0  0  0  0
    9.3384  -14.1560   18.8590 N   0  0  0  0  0  0  0  0  0  0  0  0
    8.2070  -13.9708   20.9773 C   0  0  0  0  0  0  0  0  0  0  0  0
    7.3709  -13.5016   21.7790 O   0  0  0  0  0  0  0  0  0  0  0  0
    7.9052  -18.9623   21.5940 N   0  0  0  0  0  0  0  0  0  0  0  0
    8.9645  -18.0030   21.4609 C   0  0  0  0  0  0  0  0  0  0  0  0
    9.5113  -17.9247   20.3534 O   0  0  0  0  0  0  0  0  0  0  0  0
    9.3548  -17.1712   22.6040 C   0  0  0  0  0  0  0  0  0  0  0  0
    8.6727  -15.8311   22.5641 C   0  0  2  0  0  0  0  0  0  0  0  0
    8.8899  -15.1675   21.3122 N   0  0  0  0  0  0  0  0  0  0  0  0
    9.1269  -14.9716   23.7055 C   0  0  0  0  0  0  0  0  0  0  0  0
   10.3045  -14.5614   23.8187 O   0  0  0  0  0  0  0  0  0  0  0  0
    5.9970  -13.4811   26.1493 C   0  0  0  0  0  0  0  0  0  0  0  0
    7.3300  -12.8145   26.0104 C   0  0  1  0  0  0  0  0  0  0  0  0
    7.6278  -11.8202   27.0978 C   0  0  0  0  0  0  0  0  0  0  0  0
    8.4708  -13.8230   25.8602 C   0  0  2  0  0  0  0  0  0  0  0  0
    8.1760  -14.6209   24.6814 N   0  0  0  0  0  0  0  0  0  0  0  0
    8.5545  -14.6884   27.0603 C   0  0  0  0  0  0  0  0  0  0  0  0
    8.9555  -14.2441   28.1624 O   0  0  0  0  0  0  0  0  0  0  0  0
    8.1818  -16.0178   26.9636 O   0  0  0  0  0  0  0  0  0  0  0  0
  2  1  1  6
  2  3  1  0
  4  2  1  0
  4 11  1  0
  5  4  2  0
  7  8  2  0
  7  6  1  0
 10  9  1  6
  9  7  1  0
 10 11  1  0
 10 12  1  0
 12 18  1  0
 12 13  2  0
 15 14  1  1
 15 17  1  0
 16 15  1  0
 17 19  1  0
 17 18  1  6
 19 21  1  0
 20 19  2  0
M  END
$$$$
