ANV.pdb
     RDKit          3D

 21 20  0  0  1  0  0  0  0  0999 V2000
    8.5526  -12.6971   19.0994 C   0  0  0  0  0  0  0  0  0  0  0  0
    8.5177  -14.2175   19.1308 C   0  0  2  0  0  0  0  0  0  0  0  0
    7.9487  -14.7322   17.9184 N   0  0  0  0  0  0  0  0  0  0  0  0
    7.6783  -14.6052   20.3084 C   0  0  0  0  0  0  0  0  0  0  0  0
    6.5215  -15.0598   20.1769 O   0  0  0  0  0  0  0  0  0  0  0  0
    5.8544  -17.7230   23.8281 N   0  0  0  0  0  0  0  0  0  0  0  0
    7.2346  -17.3384   23.7445 C   0  0  0  0  0  0  0  0  0  0  0  0
    7.9552  -17.6301   24.7076 O   0  0  0  0  0  0  0  0  0  0  0  0
    7.7340  -16.6341   22.5590 C   0  0  0  0  0  0  0  0  0  0  0  0
    7.6646  -15.1423   22.7388 C   0  0  2  0  0  0  0  0  0  0  0  0
    8.2162  -14.4504   21.6111 N   0  0  0  0  0  0  0  0  0  0  0  0
    8.3549  -14.7289   24.0039 C   0  0  0  0  0  0  0  0  0  0  0  0
    9.5814  -14.8961   24.1930 O   0  0  0  0  0  0  0  0  0  0  0  0
    6.8655  -11.3908   25.8593 C   0  0  0  0  0  0  0  0  0  0  0  0
    7.0628  -12.5713   26.7582 C   0  0  1  0  0  0  0  0  0  0  0  0
    5.7899  -13.2955   27.0973 C   0  0  0  0  0  0  0  0  0  0  0  0
    8.1199  -13.5390   26.2223 C   0  0  2  0  0  0  0  0  0  0  0  0
    7.5758  -14.1291   25.0103 N   0  0  0  0  0  0  0  0  0  0  0  0
    8.4084  -14.5926   27.2237 C   0  0  0  0  0  0  0  0  0  0  0  0
    9.0085  -14.3334   28.2939 O   0  0  0  0  0  0  0  0  0  0  0  0
    8.0068  -15.8932   26.9728 O   0  0  0  0  0  0  0  0  0  0  0  0
  2  1  1  6
  2  3  1  0
  4  2  1  0
  4 11  1  0
  5  4  2  0
  7  8  2  0
  7  6  1  0
 10  9  1  6
  9  7  1  0
 10 11  1  0
 10 12  1  0
 12 18  1  0
 12 13  2  0
 15 14  1  6
 15 17  1  0
 16 15  1  0
 17 19  1  0
 17 18  1  6
 19 21  1  0
 20 19  2  0
M  END
$$$$
