ANV.pdb
     RDKit          3D

 21 20  0  0  1  0  0  0  0  0999 V2000
    7.5516  -13.0177   18.7638 C   0  0  0  0  0  0  0  0  0  0  0  0
    8.6722  -13.5897   19.6187 C   0  0  2  0  0  0  0  0  0  0  0  0
    9.2621  -14.7293   18.9769 N   0  0  0  0  0  0  0  0  0  0  0  0
    8.0584  -13.9850   20.9258 C   0  0  0  0  0  0  0  0  0  0  0  0
    7.4232  -13.1730   21.6324 O   0  0  0  0  0  0  0  0  0  0  0  0
    5.8915  -18.1893   24.2106 N   0  0  0  0  0  0  0  0  0  0  0  0
    7.2339  -17.7030   24.0635 C   0  0  0  0  0  0  0  0  0  0  0  0
    7.9346  -17.6800   25.0833 O   0  0  0  0  0  0  0  0  0  0  0  0
    7.7196  -17.2622   22.7517 C   0  0  0  0  0  0  0  0  0  0  0  0
    7.6421  -15.7664   22.6137 C   0  0  2  0  0  0  0  0  0  0  0  0
    8.2047  -15.3228   21.3722 N   0  0  0  0  0  0  0  0  0  0  0  0
    8.3152  -15.0923   23.7715 C   0  0  0  0  0  0  0  0  0  0  0  0
    9.5602  -15.0384   23.8944 O   0  0  0  0  0  0  0  0  0  0  0  0
    5.6917  -13.1418   26.7002 C   0  0  0  0  0  0  0  0  0  0  0  0
    6.9367  -12.5869   26.0816 C   0  0  1  0  0  0  0  0  0  0  0  0
    7.5201  -11.4222   26.8317 C   0  0  0  0  0  0  0  0  0  0  0  0
    7.9928  -13.6660   25.8341 C   0  0  2  0  0  0  0  0  0  0  0  0
    7.4976  -14.5007   24.7518 N   0  0  0  0  0  0  0  0  0  0  0  0
    8.1973  -14.4767   27.0576 C   0  0  0  0  0  0  0  0  0  0  0  0
    8.8378  -14.0316   28.0397 O   0  0  0  0  0  0  0  0  0  0  0  0
    7.6697  -15.7548   27.1190 O   0  0  0  0  0  0  0  0  0  0  0  0
  2  1  1  6
  2  3  1  0
  4  2  1  0
  4 11  1  0
  5  4  2  0
  7  8  2  0
  7  6  1  0
 10  9  1  1
  9  7  1  0
 10 11  1  0
 10 12  1  0
 12 18  1  0
 12 13  2  0
 15 14  1  1
 15 17  1  0
 16 15  1  0
 17 19  1  0
 17 18  1  6
 19 21  1  0
 20 19  2  0
M  END
$$$$
