ANV.pdb
     RDKit          3D

 21 20  0  0  1  0  0  0  0  0999 V2000
    7.2938  -13.0429   18.9941 C   0  0  0  0  0  0  0  0  0  0  0  0
    8.3932  -13.8513   19.6661 C   0  0  2  0  0  0  0  0  0  0  0  0
    8.6529  -15.0553   18.9302 N   0  0  0  0  0  0  0  0  0  0  0  0
    7.9086  -14.1753   21.0451 C   0  0  0  0  0  0  0  0  0  0  0  0
    7.5395  -13.2876   21.8437 O   0  0  0  0  0  0  0  0  0  0  0  0
    6.9126  -18.9733   24.7701 N   0  0  0  0  0  0  0  0  0  0  0  0
    6.4760  -17.8159   24.0422 C   0  0  0  0  0  0  0  0  0  0  0  0
    5.5162  -17.1906   24.5106 O   0  0  0  0  0  0  0  0  0  0  0  0
    7.1581  -17.4214   22.8052 C   0  0  0  0  0  0  0  0  0  0  0  0
    7.2743  -15.9256   22.6973 C   0  0  2  0  0  0  0  0  0  0  0  0
    7.8688  -15.5325   21.4536 N   0  0  0  0  0  0  0  0  0  0  0  0
    8.0493  -15.3700   23.8543 C   0  0  0  0  0  0  0  0  0  0  0  0
    9.2972  -15.4395   23.9305 O   0  0  0  0  0  0  0  0  0  0  0  0
    7.3457  -12.2587   27.6923 C   0  0  0  0  0  0  0  0  0  0  0  0
    6.8335  -13.1340   26.5915 C   0  0  1  0  0  0  0  0  0  0  0  0
    6.0697  -12.3914   25.5309 C   0  0  0  0  0  0  0  0  0  0  0  0
    7.9368  -13.9951   25.9732 C   0  0  2  0  0  0  0  0  0  0  0  0
    7.3271  -14.7475   24.8891 N   0  0  0  0  0  0  0  0  0  0  0  0
    8.4998  -14.9172   26.9874 C   0  0  0  0  0  0  0  0  0  0  0  0
    8.0537  -16.0799   27.1360 O   0  0  0  0  0  0  0  0  0  0  0  0
    9.5419  -14.4864   27.7899 O   0  0  0  0  0  0  0  0  0  0  0  0
  2  1  1  6
  2  3  1  0
  4  2  1  0
  4 11  1  0
  5  4  2  0
  7  8  2  0
  7  6  1  0
 10  9  1  1
  9  7  1  0
 10 11  1  0
 10 12  1  0
 12 18  1  0
 12 13  2  0
 15 14  1  1
 15 17  1  0
 16 15  1  0
 17 19  1  0
 17 18  1  6
 19 21  1  0
 20 19  2  0
M  END
$$$$
