ANV.pdb
     RDKit          3D

 21 20  0  0  1  0  0  0  0  0999 V2000
    7.9871  -12.1647   19.8785 C   0  0  0  0  0  0  0  0  0  0  0  0
    8.1826  -13.5949   19.3990 C   0  0  2  0  0  0  0  0  0  0  0  0
    7.2462  -13.9083   18.3580 N   0  0  0  0  0  0  0  0  0  0  0  0
    7.9619  -14.4813   20.5852 C   0  0  0  0  0  0  0  0  0  0  0  0
    6.8162  -14.7820   20.9841 O   0  0  0  0  0  0  0  0  0  0  0  0
    8.5580  -18.9655   21.6984 N   0  0  0  0  0  0  0  0  0  0  0  0
    9.5053  -17.9249   21.4159 C   0  0  0  0  0  0  0  0  0  0  0  0
    9.9743  -17.8920   20.2711 O   0  0  0  0  0  0  0  0  0  0  0  0
    9.8774  -16.9627   22.4584 C   0  0  0  0  0  0  0  0  0  0  0  0
    8.9505  -15.7781   22.4658 C   0  0  2  0  0  0  0  0  0  0  0  0
    9.0903  -14.9933   21.2745 N   0  0  0  0  0  0  0  0  0  0  0  0
    9.1778  -14.9356   23.6851 C   0  0  0  0  0  0  0  0  0  0  0  0
    9.9568  -13.9553   23.6964 O   0  0  0  0  0  0  0  0  0  0  0  0
    6.1514  -13.9413   25.9205 C   0  0  0  0  0  0  0  0  0  0  0  0
    7.5486  -13.4233   26.0614 C   0  0  1  0  0  0  0  0  0  0  0  0
    7.7301  -12.4711   27.2104 C   0  0  0  0  0  0  0  0  0  0  0  0
    8.5832  -14.5494   26.1120 C   0  0  2  0  0  0  0  0  0  0  0  0
    8.4778  -15.2758   24.8572 N   0  0  0  0  0  0  0  0  0  0  0  0
    8.3066  -15.4518   27.2544 C   0  0  0  0  0  0  0  0  0  0  0  0
    7.6121  -16.4872   27.1190 O   0  0  0  0  0  0  0  0  0  0  0  0
    8.8265  -15.1458   28.5002 O   0  0  0  0  0  0  0  0  0  0  0  0
  2  1  1  1
  2  3  1  0
  4  2  1  0
  4 11  1  0
  5  4  2  0
  7  8  2  0
  7  6  1  0
 10  9  1  6
  9  7  1  0
 10 11  1  0
 10 12  1  0
 12 18  1  0
 12 13  2  0
 15 14  1  1
 15 17  1  0
 16 15  1  0
 17 19  1  0
 17 18  1  6
 19 21  1  0
 20 19  2  0
M  END
$$$$
