ANV.pdb
     RDKit          3D

 21 20  0  0  1  0  0  0  0  0999 V2000
    7.3572  -12.9667   18.6726 C   0  0  0  0  0  0  0  0  0  0  0  0
    8.5433  -13.3963   19.5225 C   0  0  2  0  0  0  0  0  0  0  0  0
    9.1752  -14.5529   18.9553 N   0  0  0  0  0  0  0  0  0  0  0  0
    8.0068  -13.7087   20.8850 C   0  0  0  0  0  0  0  0  0  0  0  0
    7.3322  -12.8830   21.5371 O   0  0  0  0  0  0  0  0  0  0  0  0
    9.8799  -17.7281   21.7612 N   0  0  0  0  0  0  0  0  0  0  0  0
    9.2275  -17.3020   22.9665 C   0  0  0  0  0  0  0  0  0  0  0  0
    9.8978  -17.3355   24.0064 O   0  0  0  0  0  0  0  0  0  0  0  0
    7.8314  -16.8541   22.9314 C   0  0  0  0  0  0  0  0  0  0  0  0
    7.7386  -15.3676   22.7212 C   0  0  2  0  0  0  0  0  0  0  0  0
    8.2746  -14.9817   21.4490 N   0  0  0  0  0  0  0  0  0  0  0  0
    8.4270  -14.6319   23.8316 C   0  0  0  0  0  0  0  0  0  0  0  0
    9.6337  -14.3017   23.7803 O   0  0  0  0  0  0  0  0  0  0  0  0
    7.0156  -11.4426   25.4418 C   0  0  0  0  0  0  0  0  0  0  0  0
    7.1276  -12.5201   26.4746 C   0  0  1  0  0  0  0  0  0  0  0  0
    5.8171  -13.1728   26.8156 C   0  0  0  0  0  0  0  0  0  0  0  0
    8.1841  -13.5654   26.1111 C   0  0  2  0  0  0  0  0  0  0  0  0
    7.6692  -14.3071   24.9718 N   0  0  0  0  0  0  0  0  0  0  0  0
    8.4213  -14.4774   27.2548 C   0  0  0  0  0  0  0  0  0  0  0  0
    8.9629  -14.0759   28.3123 O   0  0  0  0  0  0  0  0  0  0  0  0
    8.0365  -15.8031   27.1547 O   0  0  0  0  0  0  0  0  0  0  0  0
  2  1  1  6
  2  3  1  0
  4  2  1  0
  4 11  1  0
  5  4  2  0
  7  8  2  0
  7  6  1  0
 10  9  1  1
  9  7  1  0
 10 11  1  0
 10 12  1  0
 12 18  1  0
 12 13  2  0
 15 14  1  6
 15 17  1  0
 16 15  1  0
 17 19  1  0
 17 18  1  6
 19 21  1  0
 20 19  2  0
M  END
$$$$
