VFS.pdb
     RDKit          3D

 25 25  0  0  1  0  0  0  0  0999 V2000
   29.3645  -21.2935  -13.0152 C   0  0  0  0  0  0  0  0  0  0  0  0
   30.0837  -20.4661  -11.9904 C   0  0  2  0  0  0  0  0  0  0  0  0
   31.4309  -20.0403  -12.4989 C   0  0  0  0  0  0  0  0  0  0  0  0
   30.1238  -21.0729  -10.6031 C   0  0  2  0  0  0  0  0  0  0  0  0
   30.9145  -22.3119  -10.7811 N   0  0  0  0  0  0  0  0  0  0  0  0
   28.8047  -21.3655  -10.0190 C   0  0  0  0  0  0  0  0  0  0  0  0
   28.3647  -22.5577   -9.9745 O   0  0  0  0  0  0  0  0  0  0  0  0
   27.9499  -20.3875   -9.4753 N   0  0  0  0  0  0  0  0  0  0  0  0
   26.5973  -20.4877   -9.0932 C   0  0  1  0  0  0  0  0  0  0  0  0
   26.3546  -19.4375   -7.9716 C   0  0  0  0  0  0  0  0  0  0  0  0
   27.1941  -19.7324   -6.7862 C   0  0  0  0  0  0  0  0  0  0  0  0
   28.2770  -18.9102   -6.4390 C   0  0  0  0  0  0  0  0  0  0  0  0
   29.0326  -19.1466   -5.3128 C   0  0  0  0  0  0  0  0  0  0  0  0
   28.7414  -20.2127   -4.4803 C   0  0  0  0  0  0  0  0  0  0  0  0
   27.6868  -21.0324   -4.8040 C   0  0  0  0  0  0  0  0  0  0  0  0
   26.9363  -20.7832   -5.9422 C   0  0  0  0  0  0  0  0  0  0  0  0
   25.5607  -20.3715  -10.0793 C   0  0  0  0  0  0  0  0  0  0  0  0
   25.5747  -19.3399  -10.8239 O   0  0  0  0  0  0  0  0  0  0  0  0
   24.6288  -22.6160  -12.9738 O   0  0  0  0  0  0  0  0  0  0  0  0
   23.4832  -22.3740  -12.2308 C   0  0  0  0  0  0  0  0  0  0  0  0
   23.6173  -21.0771  -11.4157 C   0  0  2  0  0  0  0  0  0  0  0  0
   24.5255  -21.3069  -10.3058 N   0  0  0  0  0  0  0  0  0  0  0  0
   22.2971  -20.6047  -11.0026 C   0  0  0  0  0  0  0  0  0  0  0  0
   22.0435  -20.4014   -9.7940 O   0  0  0  0  0  0  0  0  0  0  0  0
   21.3153  -20.3625  -11.9244 O   0  0  0  0  0  0  0  0  0  0  0  0
  2  1  1  6
  2  3  1  0
  4  2  1  0
  4  5  1  6
  6  4  1  0
  6  7  2  0
  8  6  1  0
  9  8  1  0
 10 11  1  0
  9 10  1  1
 11 12  2  0
 12 13  1  0
 14 13  2  0
 15 14  1  0
 16 15  2  0
 16 11  1  0
 17 22  1  0
 17  9  1  0
 18 17  2  0
 20 19  1  0
 21 22  1  0
 21 20  1  1
 23 21  1  0
 24 23  2  0
 25 23  1  0
M  END
$$$$
