VFS.pdb
     RDKit          3D

 25 25  0  0  1  0  0  0  0  0999 V2000
   29.4748  -23.0172  -15.9989 C   0  0  0  0  0  0  0  0  0  0  0  0
   28.7442  -23.2546  -17.2879 C   0  0  2  0  0  0  0  0  0  0  0  0
   29.5884  -22.8491  -18.4617 C   0  0  0  0  0  0  0  0  0  0  0  0
   27.3381  -22.6930  -17.3302 C   0  0  2  0  0  0  0  0  0  0  0  0
   27.5360  -21.2686  -17.6825 N   0  0  0  0  0  0  0  0  0  0  0  0
   26.5815  -22.8280  -16.0747 C   0  0  0  0  0  0  0  0  0  0  0  0
   26.3006  -23.9765  -15.6066 O   0  0  0  0  0  0  0  0  0  0  0  0
   26.1245  -21.7378  -15.3097 N   0  0  0  0  0  0  0  0  0  0  0  0
   25.2382  -21.7167  -14.2143 C   0  0  1  0  0  0  0  0  0  0  0  0
   25.7004  -20.5722  -13.2675 C   0  0  0  0  0  0  0  0  0  0  0  0
   24.9793  -20.6379  -11.9742 C   0  0  0  0  0  0  0  0  0  0  0  0
   23.6889  -20.1048  -11.8329 C   0  0  0  0  0  0  0  0  0  0  0  0
   22.9908  -20.2041  -10.6506 C   0  0  0  0  0  0  0  0  0  0  0  0
   23.5470  -20.8415   -9.5557 C   0  0  0  0  0  0  0  0  0  0  0  0
   24.8112  -21.3679   -9.6719 C   0  0  0  0  0  0  0  0  0  0  0  0
   25.5028  -21.2583  -10.8679 C   0  0  0  0  0  0  0  0  0  0  0  0
   23.8245  -21.6032  -14.4350 C   0  0  0  0  0  0  0  0  0  0  0  0
   23.4061  -20.5531  -15.0190 O   0  0  0  0  0  0  0  0  0  0  0  0
   21.2914  -24.1458  -15.9423 O   0  0  0  0  0  0  0  0  0  0  0  0
   20.7730  -23.6209  -14.7680 C   0  0  0  0  0  0  0  0  0  0  0  0
   21.4622  -22.2954  -14.4040 C   0  0  2  0  0  0  0  0  0  0  0  0
   22.8504  -22.5598  -14.0687 N   0  0  0  0  0  0  0  0  0  0  0  0
   20.7220  -21.6203  -13.3396 C   0  0  0  0  0  0  0  0  0  0  0  0
   19.8385  -20.7776  -13.6147 O   0  0  0  0  0  0  0  0  0  0  0  0
   20.9674  -21.9014  -12.0231 O   0  0  0  0  0  0  0  0  0  0  0  0
  2  1  1  1
  2  3  1  0
  4  2  1  0
  4  5  1  1
  6  4  1  0
  6  7  2  0
  8  6  1  0
  9  8  1  0
 10 11  1  0
  9 10  1  1
 11 12  2  0
 12 13  1  0
 14 13  2  0
 15 14  1  0
 16 15  2  0
 16 11  1  0
 17 22  1  0
 17  9  1  0
 18 17  2  0
 20 19  1  0
 21 22  1  0
 21 20  1  1
 23 21  1  0
 24 23  2  0
 25 23  1  0
M  END
$$$$
