VFS.pdb
     RDKit          3D

 25 25  0  0  1  0  0  0  0  0999 V2000
   26.3581  -18.1229  -13.2885 C   0  0  0  0  0  0  0  0  0  0  0  0
   26.6542  -17.9312  -14.7471 C   0  0  2  0  0  0  0  0  0  0  0  0
   26.4729  -16.4942  -15.1436 C   0  0  0  0  0  0  0  0  0  0  0  0
   25.9517  -18.9071  -15.6683 C   0  0  2  0  0  0  0  0  0  0  0  0
   24.5422  -18.4539  -15.6560 N   0  0  0  0  0  0  0  0  0  0  0  0
   26.0576  -20.3196  -15.2675 C   0  0  0  0  0  0  0  0  0  0  0  0
   27.1816  -20.9141  -15.2762 O   0  0  0  0  0  0  0  0  0  0  0  0
   24.9648  -21.1039  -14.8511 N   0  0  0  0  0  0  0  0  0  0  0  0
   24.9216  -22.4644  -14.4867 C   0  0  1  0  0  0  0  0  0  0  0  0
   23.9213  -22.5945  -13.3025 C   0  0  0  0  0  0  0  0  0  0  0  0
   24.4686  -21.9573  -12.0812 C   0  0  0  0  0  0  0  0  0  0  0  0
   25.7704  -22.2349  -11.6369 C   0  0  0  0  0  0  0  0  0  0  0  0
   26.3059  -21.6117  -10.5324 C   0  0  0  0  0  0  0  0  0  0  0  0
   25.5681  -20.6815   -9.8218 C   0  0  0  0  0  0  0  0  0  0  0  0
   24.2897  -20.3975  -10.2382 C   0  0  0  0  0  0  0  0  0  0  0  0
   23.7630  -21.0345  -11.3508 C   0  0  0  0  0  0  0  0  0  0  0  0
   24.6179  -23.4636  -15.4715 C   0  0  0  0  0  0  0  0  0  0  0  0
   23.5577  -23.3060  -16.1570 O   0  0  0  0  0  0  0  0  0  0  0  0
   26.7027  -27.0334  -16.2121 O   0  0  0  0  0  0  0  0  0  0  0  0
   26.1939  -26.3242  -17.2897 C   0  0  0  0  0  0  0  0  0  0  0  0
   24.9971  -25.4573  -16.8649 C   0  0  2  0  0  0  0  0  0  0  0  0
   25.3971  -24.6079  -15.7568 N   0  0  0  0  0  0  0  0  0  0  0  0
   23.8443  -26.3048  -16.5655 C   0  0  0  0  0  0  0  0  0  0  0  0
   23.3897  -26.3727  -15.4014 O   0  0  0  0  0  0  0  0  0  0  0  0
   23.2295  -27.0311  -17.5487 O   0  0  0  0  0  0  0  0  0  0  0  0
  2  1  1  1
  2  3  1  0
  4  2  1  0
  4  5  1  1
  6  4  1  0
  6  7  2  0
  8  6  1  0
  9  8  1  0
 10 11  1  0
  9 10  1  1
 11 12  2  0
 12 13  1  0
 14 13  2  0
 15 14  1  0
 16 15  2  0
 16 11  1  0
 17 22  1  0
 17  9  1  0
 18 17  2  0
 20 19  1  0
 21 22  1  0
 21 20  1  1
 23 21  1  0
 24 23  2  0
 25 23  1  0
M  END
$$$$
