VFS.pdb
     RDKit          3D

 25 25  0  0  1  0  0  0  0  0999 V2000
   27.6531  -20.1020  -13.1246 C   0  0  0  0  0  0  0  0  0  0  0  0
   26.4148  -20.8918  -13.4325 C   0  0  2  0  0  0  0  0  0  0  0  0
   25.8131  -20.4531  -14.7365 C   0  0  0  0  0  0  0  0  0  0  0  0
   25.4139  -20.9658  -12.2979 C   0  0  2  0  0  0  0  0  0  0  0  0
   24.7314  -19.6526  -12.3414 N   0  0  0  0  0  0  0  0  0  0  0  0
   26.0019  -21.2137  -10.9714 C   0  0  0  0  0  0  0  0  0  0  0  0
   26.5449  -22.3313  -10.7008 O   0  0  0  0  0  0  0  0  0  0  0  0
   26.0173  -20.2684   -9.9279 N   0  0  0  0  0  0  0  0  0  0  0  0
   26.4046  -20.4215   -8.5817 C   0  0  1  0  0  0  0  0  0  0  0  0
   27.1684  -19.1303   -8.1705 C   0  0  0  0  0  0  0  0  0  0  0  0
   27.8170  -19.3027   -6.8489 C   0  0  0  0  0  0  0  0  0  0  0  0
   27.2564  -18.7520   -5.6862 C   0  0  0  0  0  0  0  0  0  0  0  0
   27.8236  -18.9477   -4.4472 C   0  0  0  0  0  0  0  0  0  0  0  0
   28.9747  -19.7033   -4.3110 C   0  0  0  0  0  0  0  0  0  0  0  0
   29.5417  -20.2489   -5.4377 C   0  0  0  0  0  0  0  0  0  0  0  0
   28.9606  -20.0416   -6.6787 C   0  0  0  0  0  0  0  0  0  0  0  0
   25.4221  -20.7263   -7.5807 C   0  0  0  0  0  0  0  0  0  0  0  0
   24.3528  -20.0368   -7.5816 O   0  0  0  0  0  0  0  0  0  0  0  0
   25.2436  -24.1548   -5.1669 O   0  0  0  0  0  0  0  0  0  0  0  0
   24.1275  -23.4743   -5.6299 C   0  0  0  0  0  0  0  0  0  0  0  0
   24.3979  -21.9630   -5.7146 C   0  0  2  0  0  0  0  0  0  0  0  0
   25.5305  -21.7329   -6.5943 N   0  0  0  0  0  0  0  0  0  0  0  0
   24.5770  -21.4089   -4.3739 C   0  0  0  0  0  0  0  0  0  0  0  0
   25.6791  -20.9287   -4.0258 O   0  0  0  0  0  0  0  0  0  0  0  0
   23.5451  -21.3906   -3.4755 O   0  0  0  0  0  0  0  0  0  0  0  0
  2  1  1  1
  2  3  1  0
  4  2  1  0
  4  5  1  1
  6  4  1  0
  6  7  2  0
  8  6  1  0
  9  8  1  0
 10 11  1  0
  9 10  1  1
 11 12  2  0
 12 13  1  0
 14 13  2  0
 15 14  1  0
 16 15  2  0
 16 11  1  0
 17 22  1  0
 17  9  1  0
 18 17  2  0
 20 19  1  0
 21 22  1  0
 21 20  1  1
 23 21  1  0
 24 23  2  0
 25 23  1  0
M  END
$$$$
