VFS.pdb
     RDKit          3D

 25 25  0  0  1  0  0  0  0  0999 V2000
   26.0400  -17.9473  -15.6343 C   0  0  0  0  0  0  0  0  0  0  0  0
   27.0037  -17.5321  -14.5615 C   0  0  2  0  0  0  0  0  0  0  0  0
   27.7860  -16.3229  -14.9865 C   0  0  0  0  0  0  0  0  0  0  0  0
   27.8669  -18.6524  -14.0191 C   0  0  2  0  0  0  0  0  0  0  0  0
   28.7167  -19.0337  -15.1701 N   0  0  0  0  0  0  0  0  0  0  0  0
   27.1211  -19.8123  -13.5039 C   0  0  0  0  0  0  0  0  0  0  0  0
   27.1374  -20.9220  -14.1246 O   0  0  0  0  0  0  0  0  0  0  0  0
   26.3573  -19.7949  -12.3211 N   0  0  0  0  0  0  0  0  0  0  0  0
   25.5684  -20.8108  -11.7454 C   0  0  1  0  0  0  0  0  0  0  0  0
   25.2795  -20.3943  -10.2747 C   0  0  0  0  0  0  0  0  0  0  0  0
   26.5269  -20.3966   -9.4741 C   0  0  0  0  0  0  0  0  0  0  0  0
   26.6269  -19.6644   -8.2811 C   0  0  0  0  0  0  0  0  0  0  0  0
   27.7631  -19.6988   -7.5046 C   0  0  0  0  0  0  0  0  0  0  0  0
   28.8506  -20.4667   -7.8813 C   0  0  0  0  0  0  0  0  0  0  0  0
   28.7746  -21.1890   -9.0480 C   0  0  0  0  0  0  0  0  0  0  0  0
   27.6250  -21.1429   -9.8207 C   0  0  0  0  0  0  0  0  0  0  0  0
   24.3401  -21.2098  -12.3717 C   0  0  0  0  0  0  0  0  0  0  0  0
   23.5560  -20.2870  -12.7623 O   0  0  0  0  0  0  0  0  0  0  0  0
   23.7986  -24.4978  -14.6552 O   0  0  0  0  0  0  0  0  0  0  0  0
   22.6922  -24.2190  -13.8670 C   0  0  0  0  0  0  0  0  0  0  0  0
   22.7153  -22.7612  -13.3785 C   0  0  2  0  0  0  0  0  0  0  0  0
   23.9235  -22.5405  -12.6033 N   0  0  0  0  0  0  0  0  0  0  0  0
   21.4872  -22.4574  -12.6463 C   0  0  0  0  0  0  0  0  0  0  0  0
   21.5366  -22.0213  -11.4742 O   0  0  0  0  0  0  0  0  0  0  0  0
   20.2601  -22.6296  -13.2266 O   0  0  0  0  0  0  0  0  0  0  0  0
  2  1  1  6
  2  3  1  0
  4  2  1  0
  4  5  1  6
  6  4  1  0
  6  7  2  0
  8  6  1  0
  9  8  1  0
 10 11  1  0
  9 10  1  1
 11 12  2  0
 12 13  1  0
 14 13  2  0
 15 14  1  0
 16 15  2  0
 16 11  1  0
 17 22  1  0
 17  9  1  0
 18 17  2  0
 20 19  1  0
 21 22  1  0
 21 20  1  1
 23 21  1  0
 24 23  2  0
 25 23  1  0
M  END
$$$$
