VFS.pdb
     RDKit          3D

 25 25  0  0  1  0  0  0  0  0999 V2000
   17.2064   -9.8928  -17.9333 C   0  0  0  0  0  0  0  0  0  0  0  0
   18.5003   -9.5284  -18.6003 C   0  0  2  0  0  0  0  0  0  0  0  0
   18.6617  -10.2737  -19.8939 C   0  0  0  0  0  0  0  0  0  0  0  0
   19.7176   -9.6034  -17.7019 C   0  0  2  0  0  0  0  0  0  0  0  0
   19.8944  -11.0542  -17.4653 N   0  0  0  0  0  0  0  0  0  0  0  0
   19.5930   -8.8707  -16.4312 C   0  0  0  0  0  0  0  0  0  0  0  0
   19.0441   -9.4131  -15.4205 O   0  0  0  0  0  0  0  0  0  0  0  0
   20.0577   -7.5566  -16.2313 N   0  0  0  0  0  0  0  0  0  0  0  0
   19.9193   -6.7150  -15.1096 C   0  0  1  0  0  0  0  0  0  0  0  0
   21.3512   -6.3912  -14.5951 C   0  0  0  0  0  0  0  0  0  0  0  0
   22.0655   -7.6332  -14.2152 C   0  0  0  0  0  0  0  0  0  0  0  0
   23.0768   -8.1682  -15.0279 C   0  0  0  0  0  0  0  0  0  0  0  0
   23.7802   -9.2931  -14.6607 C   0  0  0  0  0  0  0  0  0  0  0  0
   23.5086   -9.9346  -13.4653 C   0  0  0  0  0  0  0  0  0  0  0  0
   22.5197   -9.4288  -12.6561 C   0  0  0  0  0  0  0  0  0  0  0  0
   21.8183   -8.2967  -13.0399 C   0  0  0  0  0  0  0  0  0  0  0  0
   19.1693   -5.4956  -15.2134 C   0  0  0  0  0  0  0  0  0  0  0  0
   19.5642   -4.6367  -16.0651 O   0  0  0  0  0  0  0  0  0  0  0  0
   15.1477   -2.9024  -14.6531 O   0  0  0  0  0  0  0  0  0  0  0  0
   15.8390   -4.0833  -14.4283 C   0  0  0  0  0  0  0  0  0  0  0  0
   17.3316   -3.9214  -14.7603 C   0  0  2  0  0  0  0  0  0  0  0  0
   18.0215   -5.1632  -14.4583 N   0  0  0  0  0  0  0  0  0  0  0  0
   17.8794   -2.7624  -14.0580 C   0  0  0  0  0  0  0  0  0  0  0  0
   18.2210   -2.8492  -12.8571 O   0  0  0  0  0  0  0  0  0  0  0  0
   18.0431   -1.5638  -14.6973 O   0  0  0  0  0  0  0  0  0  0  0  0
  2  1  1  1
  2  3  1  0
  4  2  1  0
  4  5  1  1
  6  4  1  0
  6  7  2  0
  8  6  1  0
  9  8  1  0
 10 11  1  0
  9 10  1  6
 11 12  2  0
 12 13  1  0
 14 13  2  0
 15 14  1  0
 16 15  2  0
 16 11  1  0
 17 22  1  0
 17  9  1  0
 18 17  2  0
 20 19  1  0
 21 22  1  0
 21 20  1  1
 23 21  1  0
 24 23  2  0
 25 23  1  0
M  END
$$$$
