VFS.pdb
     RDKit          3D

 25 25  0  0  1  0  0  0  0  0999 V2000
   16.4801   -9.8147  -16.1380 C   0  0  0  0  0  0  0  0  0  0  0  0
   17.7844   -9.2979  -16.6704 C   0  0  2  0  0  0  0  0  0  0  0  0
   17.9073   -9.5749  -18.1411 C   0  0  0  0  0  0  0  0  0  0  0  0
   19.0024   -9.7138  -15.8716 C   0  0  2  0  0  0  0  0  0  0  0  0
   19.1427  -11.1580  -16.1659 N   0  0  0  0  0  0  0  0  0  0  0  0
   18.9010   -9.4757  -14.4225 C   0  0  0  0  0  0  0  0  0  0  0  0
   18.3566  -10.3356  -13.6602 O   0  0  0  0  0  0  0  0  0  0  0  0
   19.3842   -8.3204  -13.7787 N   0  0  0  0  0  0  0  0  0  0  0  0
   19.3187   -7.9546  -12.4194 C   0  0  1  0  0  0  0  0  0  0  0  0
   20.7728   -7.6681  -11.9471 C   0  0  0  0  0  0  0  0  0  0  0  0
   21.4518   -6.7339  -12.8763 C   0  0  0  0  0  0  0  0  0  0  0  0
   22.2369   -7.2072  -13.9387 C   0  0  0  0  0  0  0  0  0  0  0  0
   22.8313   -6.3495  -14.8366 C   0  0  0  0  0  0  0  0  0  0  0  0
   22.6682   -4.9808  -14.7171 C   0  0  0  0  0  0  0  0  0  0  0  0
   21.9057   -4.4962  -13.6816 C   0  0  0  0  0  0  0  0  0  0  0  0
   21.3151   -5.3716  -12.7839 C   0  0  0  0  0  0  0  0  0  0  0  0
   18.4677   -6.8755  -12.0051 C   0  0  0  0  0  0  0  0  0  0  0  0
   18.4906   -5.8117  -12.7026 O   0  0  0  0  0  0  0  0  0  0  0  0
   14.8299   -6.9907  -10.4636 O   0  0  0  0  0  0  0  0  0  0  0  0
   15.3937   -5.8598  -11.0348 C   0  0  0  0  0  0  0  0  0  0  0  0
   16.8524   -5.6811  -10.5823 C   0  0  2  0  0  0  0  0  0  0  0  0
   17.5959   -6.8895  -10.8926 N   0  0  0  0  0  0  0  0  0  0  0  0
   16.8981   -5.3134   -9.1683 C   0  0  0  0  0  0  0  0  0  0  0  0
   16.3339   -4.2722   -8.7631 O   0  0  0  0  0  0  0  0  0  0  0  0
   17.5451   -6.1015   -8.2559 O   0  0  0  0  0  0  0  0  0  0  0  0
  2  1  1  1
  2  3  1  0
  4  2  1  0
  4  5  1  1
  6  4  1  0
  6  7  2  0
  8  6  1  0
  9  8  1  0
 10 11  1  0
  9 10  1  6
 11 12  2  0
 12 13  1  0
 14 13  2  0
 15 14  1  0
 16 15  2  0
 16 11  1  0
 17 22  1  0
 17  9  1  0
 18 17  2  0
 20 19  1  0
 21 22  1  0
 21 20  1  1
 23 21  1  0
 24 23  2  0
 25 23  1  0
M  END
$$$$
