VFS.pdb
     RDKit          3D

 25 25  0  0  1  0  0  0  0  0999 V2000
   17.9991  -11.5726  -17.3814 C   0  0  0  0  0  0  0  0  0  0  0  0
   18.0294  -11.2245  -15.9221 C   0  0  2  0  0  0  0  0  0  0  0  0
   17.5694  -12.3850  -15.0874 C   0  0  0  0  0  0  0  0  0  0  0  0
   17.3494   -9.9176  -15.5698 C   0  0  2  0  0  0  0  0  0  0  0  0
   17.7516   -9.0031  -16.6625 N   0  0  0  0  0  0  0  0  0  0  0  0
   17.7160   -9.3658  -14.2552 C   0  0  0  0  0  0  0  0  0  0  0  0
   17.5060  -10.0298  -13.1913 O   0  0  0  0  0  0  0  0  0  0  0  0
   18.3127   -8.1040  -14.0696 N   0  0  0  0  0  0  0  0  0  0  0  0
   18.6638   -7.4423  -12.8761 C   0  0  1  0  0  0  0  0  0  0  0  0
   20.0515   -6.7782  -13.1065 C   0  0  0  0  0  0  0  0  0  0  0  0
   21.1114   -7.8070  -13.2298 C   0  0  0  0  0  0  0  0  0  0  0  0
   21.5541   -8.5329  -12.1133 C   0  0  0  0  0  0  0  0  0  0  0  0
   22.5023   -9.5245  -12.2250 C   0  0  0  0  0  0  0  0  0  0  0  0
   23.0508   -9.8391  -13.4557 C   0  0  0  0  0  0  0  0  0  0  0  0
   22.6335   -9.1380  -14.5615 C   0  0  0  0  0  0  0  0  0  0  0  0
   21.6796   -8.1407  -14.4334 C   0  0  0  0  0  0  0  0  0  0  0  0
   17.7707   -6.4784  -12.2985 C   0  0  0  0  0  0  0  0  0  0  0  0
   17.2428   -5.6266  -13.0825 O   0  0  0  0  0  0  0  0  0  0  0  0
   16.8643   -5.9881   -8.2354 O   0  0  0  0  0  0  0  0  0  0  0  0
   15.8543   -5.7886   -9.1645 C   0  0  0  0  0  0  0  0  0  0  0  0
   16.4334   -5.4003  -10.5350 C   0  0  2  0  0  0  0  0  0  0  0  0
   17.4153   -6.3937  -10.9330 N   0  0  0  0  0  0  0  0  0  0  0  0
   16.9644   -4.0392  -10.4885 C   0  0  0  0  0  0  0  0  0  0  0  0
   18.1692   -3.8172  -10.7446 O   0  0  0  0  0  0  0  0  0  0  0  0
   16.1578   -2.9785  -10.1777 O   0  0  0  0  0  0  0  0  0  0  0  0
  2  1  1  6
  2  3  1  0
  4  2  1  0
  4  5  1  6
  6  4  1  0
  6  7  2  0
  8  6  1  0
  9  8  1  0
 10 11  1  0
  9 10  1  6
 11 12  2  0
 12 13  1  0
 14 13  2  0
 15 14  1  0
 16 15  2  0
 16 11  1  0
 17 22  1  0
 17  9  1  0
 18 17  2  0
 20 19  1  0
 21 22  1  0
 21 20  1  1
 23 21  1  0
 24 23  2  0
 25 23  1  0
M  END
$$$$
