VFS.pdb
     RDKit          3D

 25 25  0  0  1  0  0  0  0  0999 V2000
   18.9698  -19.8792  -15.9556 C   0  0  0  0  0  0  0  0  0  0  0  0
   20.3958  -19.4857  -15.7035 C   0  0  2  0  0  0  0  0  0  0  0  0
   21.2017  -19.5625  -16.9683 C   0  0  0  0  0  0  0  0  0  0  0  0
   21.0460  -20.1847  -14.5275 C   0  0  2  0  0  0  0  0  0  0  0  0
   20.1915  -19.8121  -13.3773 N   0  0  0  0  0  0  0  0  0  0  0  0
   22.4498  -19.8123  -14.2872 C   0  0  0  0  0  0  0  0  0  0  0  0
   22.7618  -18.6164  -13.9882 O   0  0  0  0  0  0  0  0  0  0  0  0
   23.5276  -20.7155  -14.3605 N   0  0  0  0  0  0  0  0  0  0  0  0
   24.9133  -20.4690  -14.2922 C   0  0  1  0  0  0  0  0  0  0  0  0
   25.5555  -21.6523  -13.5129 C   0  0  0  0  0  0  0  0  0  0  0  0
   27.0011  -21.4111  -13.2908 C   0  0  0  0  0  0  0  0  0  0  0  0
   27.4478  -20.5576  -12.2703 C   0  0  0  0  0  0  0  0  0  0  0  0
   28.7883  -20.3651  -12.0237 C   0  0  0  0  0  0  0  0  0  0  0  0
   29.7447  -21.0166  -12.7822 C   0  0  0  0  0  0  0  0  0  0  0  0
   29.3285  -21.8545  -13.7888 C   0  0  0  0  0  0  0  0  0  0  0  0
   27.9754  -22.0369  -14.0270 C   0  0  0  0  0  0  0  0  0  0  0  0
   25.6624  -20.2350  -15.4940 C   0  0  0  0  0  0  0  0  0  0  0  0
   25.5332  -21.0788  -16.4375 O   0  0  0  0  0  0  0  0  0  0  0  0
   28.6761  -17.6307  -18.2814 O   0  0  0  0  0  0  0  0  0  0  0  0
   28.0575  -17.7826  -17.0496 C   0  0  0  0  0  0  0  0  0  0  0  0
   27.1810  -19.0457  -17.0237 C   0  0  2  0  0  0  0  0  0  0  0  0
   26.5284  -19.1429  -15.7299 N   0  0  0  0  0  0  0  0  0  0  0  0
   27.9822  -20.2199  -17.3642 C   0  0  0  0  0  0  0  0  0  0  0  0
   28.6065  -20.8433  -16.4765 O   0  0  0  0  0  0  0  0  0  0  0  0
   28.0582  -20.6712  -18.6536 O   0  0  0  0  0  0  0  0  0  0  0  0
  2  1  1  6
  2  3  1  0
  4  2  1  0
  4  5  1  1
  6  4  1  0
  6  7  2  0
  8  6  1  0
  9  8  1  0
 10 11  1  0
  9 10  1  6
 11 12  2  0
 12 13  1  0
 14 13  2  0
 15 14  1  0
 16 15  2  0
 16 11  1  0
 17 22  1  0
 17  9  1  0
 18 17  2  0
 20 19  1  0
 21 22  1  0
 21 20  1  1
 23 21  1  0
 24 23  2  0
 25 23  1  0
M  END
$$$$
