VFS.pdb
     RDKit          3D

 25 25  0  0  1  0  0  0  0  0999 V2000
   20.5920  -10.9069  -20.9355 C   0  0  0  0  0  0  0  0  0  0  0  0
   20.8259  -10.3859  -19.5478 C   0  0  2  0  0  0  0  0  0  0  0  0
   20.0133   -9.1478  -19.2991 C   0  0  0  0  0  0  0  0  0  0  0  0
   22.2841  -10.2406  -19.1646 C   0  0  2  0  0  0  0  0  0  0  0  0
   22.8211  -11.6150  -19.2869 N   0  0  0  0  0  0  0  0  0  0  0  0
   22.5169   -9.6990  -17.8157 C   0  0  0  0  0  0  0  0  0  0  0  0
   22.2089  -10.3743  -16.7832 O   0  0  0  0  0  0  0  0  0  0  0  0
   23.0837   -8.4353  -17.5617 N   0  0  0  0  0  0  0  0  0  0  0  0
   23.2741   -7.7651  -16.3369 C   0  0  1  0  0  0  0  0  0  0  0  0
   24.7942   -7.4613  -16.2074 C   0  0  0  0  0  0  0  0  0  0  0  0
   25.5793   -8.7181  -16.1729 C   0  0  0  0  0  0  0  0  0  0  0  0
   26.3918   -9.0980  -17.2522 C   0  0  0  0  0  0  0  0  0  0  0  0
   27.1631  -10.2375  -17.2107 C   0  0  0  0  0  0  0  0  0  0  0  0
   27.1607  -11.0491  -16.0901 C   0  0  0  0  0  0  0  0  0  0  0  0
   26.3694  -10.6968  -15.0232 C   0  0  0  0  0  0  0  0  0  0  0  0
   25.5965   -9.5478  -15.0802 C   0  0  0  0  0  0  0  0  0  0  0  0
   22.5292   -6.5732  -16.0457 C   0  0  0  0  0  0  0  0  0  0  0  0
   22.5406   -5.6483  -16.9194 O   0  0  0  0  0  0  0  0  0  0  0  0
   18.6122   -5.0002  -14.8479 O   0  0  0  0  0  0  0  0  0  0  0  0
   19.6907   -5.3720  -14.0595 C   0  0  0  0  0  0  0  0  0  0  0  0
   21.0216   -5.0961  -14.7785 C   0  0  2  0  0  0  0  0  0  0  0  0
   21.7735   -6.3349  -14.8751 N   0  0  0  0  0  0  0  0  0  0  0  0
   21.7464   -4.0236  -14.0994 C   0  0  0  0  0  0  0  0  0  0  0  0
   22.7288   -4.2832  -13.3685 O   0  0  0  0  0  0  0  0  0  0  0  0
   21.3779   -2.7152  -14.2557 O   0  0  0  0  0  0  0  0  0  0  0  0
  2  1  1  6
  2  3  1  0
  4  2  1  0
  4  5  1  1
  6  4  1  0
  6  7  2  0
  8  6  1  0
  9  8  1  0
 10 11  1  0
  9 10  1  6
 11 12  2  0
 12 13  1  0
 14 13  2  0
 15 14  1  0
 16 15  2  0
 16 11  1  0
 17 22  1  0
 17  9  1  0
 18 17  2  0
 20 19  1  0
 21 22  1  0
 21 20  1  1
 23 21  1  0
 24 23  2  0
 25 23  1  0
M  END
$$$$
