EMY.pdb
     RDKit          3D

 30 30  0  0  1  0  0  0  0  0999 V2000
   18.2471   -8.4361  -22.3131 N   0  0  0  0  0  0  0  0  0  0  0  0
   18.0562   -7.5559  -21.1999 C   0  0  1  0  0  0  0  0  0  0  0  0
   17.0972   -8.0265  -20.1432 C   0  0  0  0  0  0  0  0  0  0  0  0
   17.3515   -9.3363  -19.5259 C   0  0  0  0  0  0  0  0  0  0  0  0
   17.4424   -9.4123  -18.0786 C   0  0  0  0  0  0  0  0  0  0  0  0
   16.4448   -9.5991  -17.3572 O   0  0  0  0  0  0  0  0  0  0  0  0
   19.3574   -7.3033  -20.4963 C   0  0  0  0  0  0  0  0  0  0  0  0
   20.1934   -8.2390  -20.5116 O   0  0  0  0  0  0  0  0  0  0  0  0
   18.6619   -9.2804  -17.3916 O   0  0  0  0  0  0  0  0  0  0  0  0
   22.4399   -1.2997  -17.4730 C   0  0  0  0  0  0  0  0  0  0  0  0
   22.6104   -2.0473  -19.1232 S   0  0  0  0  0  0  0  0  0  0  0  0
   22.5148   -3.8257  -18.9506 C   0  0  0  0  0  0  0  0  0  0  0  0
   21.2045   -4.3241  -19.4650 C   0  0  0  0  0  0  0  0  0  0  0  0
   20.9881   -5.7932  -19.3072 C   0  0  2  0  0  0  0  0  0  0  0  0
   19.6490   -6.1021  -19.8497 N   0  0  0  0  0  0  0  0  0  0  0  0
   20.9187   -6.0978  -17.8484 C   0  0  0  0  0  0  0  0  0  0  0  0
   19.9171   -5.7276  -17.1889 O   0  0  0  0  0  0  0  0  0  0  0  0
   27.0049  -10.5742  -16.9527 O   0  0  0  0  0  0  0  0  0  0  0  0
   25.7358  -10.0725  -16.6635 C   0  0  0  0  0  0  0  0  0  0  0  0
   24.7925   -9.8305  -17.6272 C   0  0  0  0  0  0  0  0  0  0  0  0
   23.5694   -9.3363  -17.2498 C   0  0  0  0  0  0  0  0  0  0  0  0
   23.2337   -9.0666  -15.9433 C   0  0  0  0  0  0  0  0  0  0  0  0
   21.9403   -8.5306  -15.4882 C   0  0  0  0  0  0  0  0  0  0  0  0
   21.8230   -7.0539  -15.7579 C   0  0  2  0  0  0  0  0  0  0  0  0
   21.9572   -6.7950  -17.1901 N   0  0  0  0  0  0  0  0  0  0  0  0
   22.7664   -6.2174  -14.9955 C   0  0  0  0  0  0  0  0  0  0  0  0
   22.6842   -6.1862  -13.6232 O   0  0  0  0  0  0  0  0  0  0  0  0
   24.1885   -9.3117  -14.9738 C   0  0  0  0  0  0  0  0  0  0  0  0
   25.4195   -9.8072  -15.3317 C   0  0  0  0  0  0  0  0  0  0  0  0
   23.6286   -5.5465  -15.5817 O   0  0  0  0  0  0  0  0  0  0  0  0
  2  1  1  6
  2  3  1  0
  3  4  1  0
  4  5  1  0
  5  6  2  0
  7  2  1  0
  7  8  2  0
  9  5  1  0
 10 11  1  0
 11 12  1  0
 13 12  1  0
 14 13  1  1
 14 15  1  0
 15  7  1  0
 16 14  1  0
 17 16  2  0
 18 19  1  0
 19 20  2  0
 19 29  1  0
 20 21  1  0
 21 22  2  0
 22 23  1  0
 24 23  1  6
 24 25  1  0
 24 26  1  0
 25 16  1  0
 26 27  1  0
 28 22  1  0
 29 28  2  0
 30 26  2  0
M  END
$$$$
