EMY.pdb
     RDKit          3D

 30 30  0  0  1  0  0  0  0  0999 V2000
   27.7012  -31.5396  -17.0626 N   0  0  0  0  0  0  0  0  0  0  0  0
   27.8050  -32.7029  -16.2341 C   0  0  1  0  0  0  0  0  0  0  0  0
   28.9428  -32.7153  -15.2529 C   0  0  0  0  0  0  0  0  0  0  0  0
   30.3004  -32.9036  -15.7851 C   0  0  0  0  0  0  0  0  0  0  0  0
   30.7785  -34.2586  -15.9950 C   0  0  0  0  0  0  0  0  0  0  0  0
   30.0885  -35.2585  -15.7220 O   0  0  0  0  0  0  0  0  0  0  0  0
   26.5559  -32.8875  -15.4230 C   0  0  0  0  0  0  0  0  0  0  0  0
   25.8372  -31.8714  -15.2620 O   0  0  0  0  0  0  0  0  0  0  0  0
   32.0527  -34.5357  -16.5207 O   0  0  0  0  0  0  0  0  0  0  0  0
   23.4331  -37.9756  -15.8775 C   0  0  0  0  0  0  0  0  0  0  0  0
   22.3389  -37.3993  -14.5427 S   0  0  0  0  0  0  0  0  0  0  0  0
   23.0540  -35.9259  -13.8222 C   0  0  0  0  0  0  0  0  0  0  0  0
   24.3267  -35.5759  -14.5204 C   0  0  0  0  0  0  0  0  0  0  0  0
   24.9486  -34.2910  -14.0814 C   0  0  2  0  0  0  0  0  0  0  0  0
   26.1888  -34.1117  -14.8641 N   0  0  0  0  0  0  0  0  0  0  0  0
   25.3796  -34.4457  -12.6616 C   0  0  0  0  0  0  0  0  0  0  0  0
   26.5719  -34.7459  -12.4091 O   0  0  0  0  0  0  0  0  0  0  0  0
   27.4335  -33.1939   -4.4718 O   0  0  0  0  0  0  0  0  0  0  0  0
   26.9535  -33.1352   -5.7803 C   0  0  0  0  0  0  0  0  0  0  0  0
   25.7556  -32.5575   -6.1097 C   0  0  0  0  0  0  0  0  0  0  0  0
   25.3637  -32.5455   -7.4245 C   0  0  0  0  0  0  0  0  0  0  0  0
   26.1142  -33.0876   -8.4419 C   0  0  0  0  0  0  0  0  0  0  0  0
   25.7359  -33.1061   -9.8645 C   0  0  0  0  0  0  0  0  0  0  0  0
   24.9833  -34.3595  -10.2249 C   0  0  2  0  0  0  0  0  0  0  0  0
   24.4745  -34.2618  -11.5916 N   0  0  0  0  0  0  0  0  0  0  0  0
   23.8930  -34.7050   -9.2959 C   0  0  0  0  0  0  0  0  0  0  0  0
   24.1222  -35.6219   -8.2970 O   0  0  0  0  0  0  0  0  0  0  0  0
   27.3222  -33.6700   -8.1054 C   0  0  0  0  0  0  0  0  0  0  0  0
   27.7327  -33.6917   -6.7939 C   0  0  0  0  0  0  0  0  0  0  0  0
   22.7775  -34.1759   -9.4096 O   0  0  0  0  0  0  0  0  0  0  0  0
  2  1  1  1
  2  3  1  0
  3  4  1  0
  4  5  1  0
  5  6  2  0
  7  2  1  0
  7  8  2  0
  9  5  1  0
 10 11  1  0
 11 12  1  0
 13 12  1  0
 14 13  1  6
 14 15  1  0
 15  7  1  0
 16 14  1  0
 17 16  2  0
 18 19  1  0
 19 20  2  0
 19 29  1  0
 20 21  1  0
 21 22  2  0
 22 23  1  0
 24 23  1  1
 24 25  1  0
 24 26  1  0
 25 16  1  0
 26 27  1  0
 28 22  1  0
 29 28  2  0
 30 26  2  0
M  END
$$$$
