EMY.pdb
     RDKit          3D

 30 30  0  0  1  0  0  0  0  0999 V2000
   21.3429  -13.0891  -17.9082 N   0  0  0  0  0  0  0  0  0  0  0  0
   21.0540  -11.7008  -18.1070 C   0  0  1  0  0  0  0  0  0  0  0  0
   19.6244  -11.2876  -17.8990 C   0  0  0  0  0  0  0  0  0  0  0  0
   18.5909  -11.9959  -18.6684 C   0  0  0  0  0  0  0  0  0  0  0  0
   17.2141  -11.5495  -18.5506 C   0  0  0  0  0  0  0  0  0  0  0  0
   16.6066  -11.0069  -19.4923 O   0  0  0  0  0  0  0  0  0  0  0  0
   21.8704  -10.8523  -17.1766 C   0  0  0  0  0  0  0  0  0  0  0  0
   22.0892  -11.3242  -16.0346 O   0  0  0  0  0  0  0  0  0  0  0  0
   16.4717  -11.6988  -17.3660 O   0  0  0  0  0  0  0  0  0  0  0  0
   26.9690  -10.5009  -14.1420 C   0  0  0  0  0  0  0  0  0  0  0  0
   25.6582  -10.4698  -15.4037 S   0  0  0  0  0  0  0  0  0  0  0  0
   25.7128   -8.8871  -16.2366 C   0  0  0  0  0  0  0  0  0  0  0  0
   24.6022   -8.7885  -17.2300 C   0  0  0  0  0  0  0  0  0  0  0  0
   23.2309   -8.7996  -16.6388 C   0  0  2  0  0  0  0  0  0  0  0  0
   22.3713   -9.6006  -17.5347 N   0  0  0  0  0  0  0  0  0  0  0  0
   22.6922   -7.4094  -16.6904 C   0  0  0  0  0  0  0  0  0  0  0  0
   22.8298   -6.7340  -17.7394 O   0  0  0  0  0  0  0  0  0  0  0  0
   18.1742   -0.0100  -15.3813 O   0  0  0  0  0  0  0  0  0  0  0  0
   18.7236   -1.2921  -15.4007 C   0  0  0  0  0  0  0  0  0  0  0  0
   19.8999   -1.5896  -16.0370 C   0  0  0  0  0  0  0  0  0  0  0  0
   20.3652   -2.8799  -16.0034 C   0  0  0  0  0  0  0  0  0  0  0  0
   19.7090   -3.9033  -15.3596 C   0  0  0  0  0  0  0  0  0  0  0  0
   20.1621   -5.3028  -15.2999 C   0  0  0  0  0  0  0  0  0  0  0  0
   21.6158   -5.4342  -15.6695 C   0  0  2  0  0  0  0  0  0  0  0  0
   22.0292   -6.8335  -15.5828 N   0  0  0  0  0  0  0  0  0  0  0  0
   22.5249   -4.5819  -14.8832 C   0  0  0  0  0  0  0  0  0  0  0  0
   23.1414   -3.5128  -15.4897 O   0  0  0  0  0  0  0  0  0  0  0  0
   18.5222   -3.5992  -14.7190 C   0  0  0  0  0  0  0  0  0  0  0  0
   18.0397   -2.3124  -14.7409 C   0  0  0  0  0  0  0  0  0  0  0  0
   22.7346   -4.8223  -13.6851 O   0  0  0  0  0  0  0  0  0  0  0  0
  2  1  1  1
  2  3  1  0
  3  4  1  0
  4  5  1  0
  5  6  2  0
  7  2  1  0
  7  8  2  0
  9  5  1  0
 10 11  1  0
 11 12  1  0
 13 12  1  0
 14 13  1  6
 14 15  1  0
 15  7  1  0
 16 14  1  0
 17 16  2  0
 18 19  1  0
 19 20  2  0
 19 29  1  0
 20 21  1  0
 21 22  2  0
 22 23  1  0
 24 23  1  1
 24 25  1  0
 24 26  1  0
 25 16  1  0
 26 27  1  0
 28 22  1  0
 29 28  2  0
 30 26  2  0
M  END
$$$$
