EMY.pdb
     RDKit          3D

 30 30  0  0  1  0  0  0  0  0999 V2000
   26.9345  -22.2321  -16.3644 N   0  0  0  0  0  0  0  0  0  0  0  0
   27.0653  -21.1727  -15.4101 C   0  0  1  0  0  0  0  0  0  0  0  0
   26.6857  -19.8005  -15.8906 C   0  0  0  0  0  0  0  0  0  0  0  0
   25.3230  -19.6124  -16.4095 C   0  0  0  0  0  0  0  0  0  0  0  0
   24.9303  -18.2877  -16.8561 C   0  0  0  0  0  0  0  0  0  0  0  0
   23.7912  -18.0430  -17.2955 O   0  0  0  0  0  0  0  0  0  0  0  0
   26.2139  -21.4398  -14.2035 C   0  0  0  0  0  0  0  0  0  0  0  0
   25.2580  -22.2379  -14.3579 O   0  0  0  0  0  0  0  0  0  0  0  0
   25.8080  -17.1899  -16.8235 O   0  0  0  0  0  0  0  0  0  0  0  0
   26.0151  -20.7243   -6.3457 C   0  0  0  0  0  0  0  0  0  0  0  0
   26.8340  -20.3628   -7.9299 S   0  0  0  0  0  0  0  0  0  0  0  0
   25.7972  -20.9730   -9.2543 C   0  0  0  0  0  0  0  0  0  0  0  0
   26.4742  -20.7779  -10.5710 C   0  0  0  0  0  0  0  0  0  0  0  0
   25.6614  -21.1782  -11.7581 C   0  0  2  0  0  0  0  0  0  0  0  0
   26.4483  -20.8452  -12.9635 N   0  0  0  0  0  0  0  0  0  0  0  0
   24.4510  -20.3074  -11.8064 C   0  0  0  0  0  0  0  0  0  0  0  0
   24.5270  -19.1763  -12.3450 O   0  0  0  0  0  0  0  0  0  0  0  0
   17.6188  -16.6694  -14.8693 O   0  0  0  0  0  0  0  0  0  0  0  0
   18.7655  -17.3007  -14.3869 C   0  0  0  0  0  0  0  0  0  0  0  0
   19.6739  -16.6764  -13.5733 C   0  0  0  0  0  0  0  0  0  0  0  0
   20.7740  -17.3765  -13.1464 C   0  0  0  0  0  0  0  0  0  0  0  0
   21.0189  -18.6847  -13.4940 C   0  0  0  0  0  0  0  0  0  0  0  0
   22.1850  -19.4763  -13.0687 C   0  0  0  0  0  0  0  0  0  0  0  0
   21.9972  -20.0479  -11.6884 C   0  0  2  0  0  0  0  0  0  0  0  0
   23.2177  -20.7274  -11.2582 N   0  0  0  0  0  0  0  0  0  0  0  0
   20.8363  -20.9450  -11.5521 C   0  0  0  0  0  0  0  0  0  0  0  0
   19.7039  -20.4920  -10.9168 O   0  0  0  0  0  0  0  0  0  0  0  0
   20.1001  -19.3111  -14.3155 C   0  0  0  0  0  0  0  0  0  0  0  0
   18.9913  -18.6269  -14.7533 C   0  0  0  0  0  0  0  0  0  0  0  0
   20.8752  -22.0984  -12.0051 O   0  0  0  0  0  0  0  0  0  0  0  0
  2  1  1  6
  2  3  1  0
  3  4  1  0
  4  5  1  0
  5  6  2  0
  7  2  1  0
  7  8  2  0
  9  5  1  0
 10 11  1  0
 11 12  1  0
 13 12  1  0
 14 13  1  1
 14 15  1  0
 15  7  1  0
 16 14  1  0
 17 16  2  0
 18 19  1  0
 19 20  2  0
 19 29  1  0
 20 21  1  0
 21 22  2  0
 22 23  1  0
 24 23  1  6
 24 25  1  0
 24 26  1  0
 25 16  1  0
 26 27  1  0
 28 22  1  0
 29 28  2  0
 30 26  2  0
M  END
$$$$
