EMY.pdb
     RDKit          3D

 30 30  0  0  1  0  0  0  0  0999 V2000
   30.5762  -22.8895  -17.0786 N   0  0  0  0  0  0  0  0  0  0  0  0
   30.0764  -22.9663  -18.4182 C   0  0  1  0  0  0  0  0  0  0  0  0
   31.0433  -23.4614  -19.4563 C   0  0  0  0  0  0  0  0  0  0  0  0
   32.4342  -23.6906  -19.0387 C   0  0  0  0  0  0  0  0  0  0  0  0
   33.3815  -24.1757  -20.0266 C   0  0  0  0  0  0  0  0  0  0  0  0
   34.0340  -25.2239  -19.8657 O   0  0  0  0  0  0  0  0  0  0  0  0
   28.8888  -23.8811  -18.4878 C   0  0  0  0  0  0  0  0  0  0  0  0
   28.3774  -24.0501  -19.6213 O   0  0  0  0  0  0  0  0  0  0  0  0
   33.6276  -23.4964  -21.2327 O   0  0  0  0  0  0  0  0  0  0  0  0
   29.4010  -29.2286  -16.5606 C   0  0  0  0  0  0  0  0  0  0  0  0
   27.6521  -29.4811  -16.9952 S   0  0  0  0  0  0  0  0  0  0  0  0
   27.0024  -27.9438  -17.6401 C   0  0  0  0  0  0  0  0  0  0  0  0
   27.6753  -26.7836  -16.9835 C   0  0  0  0  0  0  0  0  0  0  0  0
   27.2067  -25.4437  -17.4474 C   0  0  2  0  0  0  0  0  0  0  0  0
   28.3589  -24.5222  -17.3679 N   0  0  0  0  0  0  0  0  0  0  0  0
   26.2077  -24.9352  -16.4629 C   0  0  0  0  0  0  0  0  0  0  0  0
   26.5201  -24.8637  -15.2494 O   0  0  0  0  0  0  0  0  0  0  0  0
   19.9017  -20.4846  -12.5238 O   0  0  0  0  0  0  0  0  0  0  0  0
   20.9646  -20.9721  -13.2846 C   0  0  0  0  0  0  0  0  0  0  0  0
   22.2648  -20.9425  -12.8539 C   0  0  0  0  0  0  0  0  0  0  0  0
   23.2463  -21.4454  -13.6703 C   0  0  0  0  0  0  0  0  0  0  0  0
   22.9950  -21.9830  -14.9113 C   0  0  0  0  0  0  0  0  0  0  0  0
   24.0112  -22.5284  -15.8263 C   0  0  0  0  0  0  0  0  0  0  0  0
   23.9917  -24.0338  -15.8475 C   0  0  2  0  0  0  0  0  0  0  0  0
   24.9144  -24.5316  -16.8659 N   0  0  0  0  0  0  0  0  0  0  0  0
   22.6548  -24.6242  -16.0350 C   0  0  0  0  0  0  0  0  0  0  0  0
   21.8903  -24.9281  -14.9332 O   0  0  0  0  0  0  0  0  0  0  0  0
   21.6817  -22.0107  -15.3425 C   0  0  0  0  0  0  0  0  0  0  0  0
   20.6841  -21.5123  -14.5391 C   0  0  0  0  0  0  0  0  0  0  0  0
   22.2186  -24.8461  -17.1742 O   0  0  0  0  0  0  0  0  0  0  0  0
  2  1  1  1
  2  3  1  0
  3  4  1  0
  4  5  1  0
  5  6  2  0
  7  2  1  0
  7  8  2  0
  9  5  1  0
 10 11  1  0
 11 12  1  0
 13 12  1  0
 14 13  1  1
 14 15  1  0
 15  7  1  0
 16 14  1  0
 17 16  2  0
 18 19  1  0
 19 20  2  0
 19 29  1  0
 20 21  1  0
 21 22  2  0
 22 23  1  0
 24 23  1  6
 24 25  1  0
 24 26  1  0
 25 16  1  0
 26 27  1  0
 28 22  1  0
 29 28  2  0
 30 26  2  0
M  END
$$$$
