EMY.pdb
     RDKit          3D

 30 30  0  0  1  0  0  0  0  0999 V2000
   28.1108  -21.8854  -15.2604 N   0  0  0  0  0  0  0  0  0  0  0  0
   27.5724  -20.8060  -14.4889 C   0  0  1  0  0  0  0  0  0  0  0  0
   26.7171  -19.8224  -15.2365 C   0  0  0  0  0  0  0  0  0  0  0  0
   27.3266  -19.1125  -16.3705 C   0  0  0  0  0  0  0  0  0  0  0  0
   28.4052  -18.1780  -16.1018 C   0  0  0  0  0  0  0  0  0  0  0  0
   28.7240  -17.8430  -14.9458 O   0  0  0  0  0  0  0  0  0  0  0  0
   26.7206  -21.3294  -13.3697 C   0  0  0  0  0  0  0  0  0  0  0  0
   26.0163  -22.3362  -13.6253 O   0  0  0  0  0  0  0  0  0  0  0  0
   29.1638  -17.5870  -17.1273 O   0  0  0  0  0  0  0  0  0  0  0  0
   29.2355  -20.5917   -7.1348 C   0  0  0  0  0  0  0  0  0  0  0  0
   27.5784  -20.0851   -7.6904 S   0  0  0  0  0  0  0  0  0  0  0  0
   27.2281  -20.9032   -9.2426 C   0  0  0  0  0  0  0  0  0  0  0  0
   25.9849  -20.3433   -9.8516 C   0  0  0  0  0  0  0  0  0  0  0  0
   25.5863  -20.9688  -11.1478 C   0  0  2  0  0  0  0  0  0  0  0  0
   26.6919  -20.7470  -12.1025 N   0  0  0  0  0  0  0  0  0  0  0  0
   24.4204  -20.2117  -11.6891 C   0  0  0  0  0  0  0  0  0  0  0  0
   24.6192  -19.2544  -12.4760 O   0  0  0  0  0  0  0  0  0  0  0  0
   18.6054  -21.4552  -17.6289 O   0  0  0  0  0  0  0  0  0  0  0  0
   19.5376  -21.5075  -16.5923 C   0  0  0  0  0  0  0  0  0  0  0  0
   19.5565  -22.5081  -15.6566 C   0  0  0  0  0  0  0  0  0  0  0  0
   20.5114  -22.4782  -14.6718 C   0  0  0  0  0  0  0  0  0  0  0  0
   21.4610  -21.4882  -14.5698 C   0  0  0  0  0  0  0  0  0  0  0  0
   22.5005  -21.4072  -13.5305 C   0  0  0  0  0  0  0  0  0  0  0  0
   22.0709  -20.5371  -12.3792 C   0  0  2  0  0  0  0  0  0  0  0  0
   23.0938  -20.5480  -11.3352 N   0  0  0  0  0  0  0  0  0  0  0  0
   20.7557  -20.8820  -11.8112 C   0  0  0  0  0  0  0  0  0  0  0  0
   20.6385  -21.9882  -11.0029 O   0  0  0  0  0  0  0  0  0  0  0  0
   21.4383  -20.4801  -15.5157 C   0  0  0  0  0  0  0  0  0  0  0  0
   20.4900  -20.4925  -16.5105 C   0  0  0  0  0  0  0  0  0  0  0  0
   19.7612  -20.1836  -12.0567 O   0  0  0  0  0  0  0  0  0  0  0  0
  2  1  1  6
  2  3  1  0
  3  4  1  0
  4  5  1  0
  5  6  2  0
  7  2  1  0
  7  8  2  0
  9  5  1  0
 10 11  1  0
 11 12  1  0
 13 12  1  0
 14 13  1  1
 14 15  1  0
 15  7  1  0
 16 14  1  0
 17 16  2  0
 18 19  1  0
 19 20  2  0
 19 29  1  0
 20 21  1  0
 21 22  2  0
 22 23  1  0
 24 23  1  6
 24 25  1  0
 24 26  1  0
 25 16  1  0
 26 27  1  0
 28 22  1  0
 29 28  2  0
 30 26  2  0
M  END
$$$$
