EMY.pdb
     RDKit          3D

 30 30  0  0  1  0  0  0  0  0999 V2000
   26.7849  -22.4891  -15.1028 N   0  0  0  0  0  0  0  0  0  0  0  0
   26.9552  -21.3517  -14.2498 C   0  0  1  0  0  0  0  0  0  0  0  0
   26.3570  -20.0634  -14.7400 C   0  0  0  0  0  0  0  0  0  0  0  0
   26.6646  -19.6489  -16.1167 C   0  0  0  0  0  0  0  0  0  0  0  0
   28.0380  -19.3115  -16.4463 C   0  0  0  0  0  0  0  0  0  0  0  0
   28.4933  -19.4238  -17.5998 O   0  0  0  0  0  0  0  0  0  0  0  0
   26.3458  -21.6054  -12.9021 C   0  0  0  0  0  0  0  0  0  0  0  0
   25.3314  -22.3437  -12.8759 O   0  0  0  0  0  0  0  0  0  0  0  0
   28.9485  -18.8349  -15.4869 O   0  0  0  0  0  0  0  0  0  0  0  0
   26.9576  -20.0743   -5.1656 C   0  0  0  0  0  0  0  0  0  0  0  0
   27.7152  -20.0780   -6.8200 S   0  0  0  0  0  0  0  0  0  0  0  0
   26.4651  -20.5417   -8.0131 C   0  0  0  0  0  0  0  0  0  0  0  0
   27.0676  -20.6519   -9.3750 C   0  0  0  0  0  0  0  0  0  0  0  0
   26.1258  -21.1062  -10.4412 C   0  0  2  0  0  0  0  0  0  0  0  0
   26.8576  -21.0614  -11.7240 N   0  0  0  0  0  0  0  0  0  0  0  0
   25.0344  -20.0957  -10.5574 C   0  0  0  0  0  0  0  0  0  0  0  0
   25.2695  -18.9968  -11.1163 O   0  0  0  0  0  0  0  0  0  0  0  0
   18.1305  -20.2888  -15.4873 O   0  0  0  0  0  0  0  0  0  0  0  0
   19.2710  -20.3296  -14.6849 C   0  0  0  0  0  0  0  0  0  0  0  0
   19.9832  -19.2099  -14.3442 C   0  0  0  0  0  0  0  0  0  0  0  0
   21.0933  -19.3455  -13.5494 C   0  0  0  0  0  0  0  0  0  0  0  0
   21.5366  -20.5564  -13.0705 C   0  0  0  0  0  0  0  0  0  0  0  0
   22.7228  -20.7556  -12.2217 C   0  0  0  0  0  0  0  0  0  0  0  0
   22.5887  -20.0451  -10.9010 C   0  0  2  0  0  0  0  0  0  0  0  0
   23.7389  -20.3476  -10.0513 N   0  0  0  0  0  0  0  0  0  0  0  0
   21.3333  -20.3250  -10.1822 C   0  0  0  0  0  0  0  0  0  0  0  0
   20.2809  -19.4469  -10.2942 O   0  0  0  0  0  0  0  0  0  0  0  0
   20.8154  -21.6841  -13.4168 C   0  0  0  0  0  0  0  0  0  0  0  0
   19.7001  -21.5690  -14.2118 C   0  0  0  0  0  0  0  0  0  0  0  0
   21.2219  -21.3421   -9.4819 O   0  0  0  0  0  0  0  0  0  0  0  0
  2  1  1  6
  2  3  1  0
  3  4  1  0
  4  5  1  0
  5  6  2  0
  7  2  1  0
  7  8  2  0
  9  5  1  0
 10 11  1  0
 11 12  1  0
 13 12  1  0
 14 13  1  1
 14 15  1  0
 15  7  1  0
 16 14  1  0
 17 16  2  0
 18 19  1  0
 19 20  2  0
 19 29  1  0
 20 21  1  0
 21 22  2  0
 22 23  1  0
 24 23  1  6
 24 25  1  0
 24 26  1  0
 25 16  1  0
 26 27  1  0
 28 22  1  0
 29 28  2  0
 30 26  2  0
M  END
$$$$
