EMY.pdb
     RDKit          3D

 30 30  0  0  1  0  0  0  0  0999 V2000
   21.1416  -12.2269  -20.3455 N   0  0  0  0  0  0  0  0  0  0  0  0
   21.6229  -10.8785  -20.3185 C   0  0  1  0  0  0  0  0  0  0  0  0
   21.2935  -10.0358  -21.5181 C   0  0  0  0  0  0  0  0  0  0  0  0
   21.8890  -10.4205  -22.8061 C   0  0  0  0  0  0  0  0  0  0  0  0
   21.4091  -11.6269  -23.4565 C   0  0  0  0  0  0  0  0  0  0  0  0
   22.1557  -12.5918  -23.7053 O   0  0  0  0  0  0  0  0  0  0  0  0
   21.0714  -10.1440  -19.1317 C   0  0  0  0  0  0  0  0  0  0  0  0
   19.8817  -10.3946  -18.8209 O   0  0  0  0  0  0  0  0  0  0  0  0
   20.0693  -11.7893  -23.8503 O   0  0  0  0  0  0  0  0  0  0  0  0
   22.2391  -10.3340  -12.5702 C   0  0  0  0  0  0  0  0  0  0  0  0
   23.1113   -9.0295  -13.4914 S   0  0  0  0  0  0  0  0  0  0  0  0
   21.9997   -8.3725  -14.7300 C   0  0  0  0  0  0  0  0  0  0  0  0
   22.2819   -8.9942  -16.0581 C   0  0  0  0  0  0  0  0  0  0  0  0
   21.3247   -8.6186  -17.1411 C   0  0  2  0  0  0  0  0  0  0  0  0
   21.8182   -9.2245  -18.3950 N   0  0  0  0  0  0  0  0  0  0  0  0
   21.4060   -7.1423  -17.3405 C   0  0  0  0  0  0  0  0  0  0  0  0
   22.0636   -6.6867  -18.3076 O   0  0  0  0  0  0  0  0  0  0  0  0
   19.9468    0.9011  -19.4758 O   0  0  0  0  0  0  0  0  0  0  0  0
   20.1285   -0.4490  -19.1753 C   0  0  0  0  0  0  0  0  0  0  0  0
   21.3495   -1.0677  -19.2326 C   0  0  0  0  0  0  0  0  0  0  0  0
   21.4337   -2.4008  -18.9193 C   0  0  0  0  0  0  0  0  0  0  0  0
   20.3484   -3.1597  -18.5472 C   0  0  0  0  0  0  0  0  0  0  0  0
   20.3847   -4.5919  -18.2083 C   0  0  0  0  0  0  0  0  0  0  0  0
   20.7963   -4.8157  -16.7774 C   0  0  2  0  0  0  0  0  0  0  0  0
   20.7584   -6.2427  -16.4634 N   0  0  0  0  0  0  0  0  0  0  0  0
   20.0119   -4.0531  -15.7903 C   0  0  0  0  0  0  0  0  0  0  0  0
   20.2600   -2.7110  -15.6223 O   0  0  0  0  0  0  0  0  0  0  0  0
   19.1178   -2.5318  -18.4909 C   0  0  0  0  0  0  0  0  0  0  0  0
   19.0129   -1.1968  -18.8006 C   0  0  0  0  0  0  0  0  0  0  0  0
   19.1348   -4.6120  -15.1155 O   0  0  0  0  0  0  0  0  0  0  0  0
  2  1  1  6
  2  3  1  0
  3  4  1  0
  4  5  1  0
  5  6  2  0
  7  2  1  0
  7  8  2  0
  9  5  1  0
 10 11  1  0
 11 12  1  0
 13 12  1  0
 14 13  1  1
 14 15  1  0
 15  7  1  0
 16 14  1  0
 17 16  2  0
 18 19  1  0
 19 20  2  0
 19 29  1  0
 20 21  1  0
 21 22  2  0
 22 23  1  0
 24 23  1  6
 24 25  1  0
 24 26  1  0
 25 16  1  0
 26 27  1  0
 28 22  1  0
 29 28  2  0
 30 26  2  0
M  END
$$$$
