EMY.pdb
     RDKit          3D

 30 30  0  0  1  0  0  0  0  0999 V2000
   16.8113  -12.0802  -15.1333 N   0  0  0  0  0  0  0  0  0  0  0  0
   16.8368  -10.6496  -15.1888 C   0  0  1  0  0  0  0  0  0  0  0  0
   15.5113   -9.9732  -15.3970 C   0  0  0  0  0  0  0  0  0  0  0  0
   14.8967  -10.0724  -16.7289 C   0  0  0  0  0  0  0  0  0  0  0  0
   15.6356   -9.5633  -17.8706 C   0  0  0  0  0  0  0  0  0  0  0  0
   16.1628  -10.3147  -18.7119 O   0  0  0  0  0  0  0  0  0  0  0  0
   17.3976  -10.0810  -13.9182 C   0  0  0  0  0  0  0  0  0  0  0  0
   17.1605  -10.7213  -12.8654 O   0  0  0  0  0  0  0  0  0  0  0  0
   15.8071   -8.1878  -18.1054 O   0  0  0  0  0  0  0  0  0  0  0  0
   23.7766   -9.8798  -14.3078 C   0  0  0  0  0  0  0  0  0  0  0  0
   22.6958   -8.4759  -13.8931 S   0  0  0  0  0  0  0  0  0  0  0  0
   21.1166   -9.1193  -13.3509 C   0  0  0  0  0  0  0  0  0  0  0  0
   20.1878   -7.9970  -13.0226 C   0  0  0  0  0  0  0  0  0  0  0  0
   18.8045   -8.4182  -12.6496 C   0  0  2  0  0  0  0  0  0  0  0  0
   18.1450   -8.9038  -13.8794 N   0  0  0  0  0  0  0  0  0  0  0  0
   18.0465   -7.2032  -12.2315 C   0  0  0  0  0  0  0  0  0  0  0  0
   17.5995   -6.4241  -13.1081 O   0  0  0  0  0  0  0  0  0  0  0  0
   12.7433  -10.1654   -8.5051 O   0  0  0  0  0  0  0  0  0  0  0  0
   13.4364   -9.1026   -9.0849 C   0  0  0  0  0  0  0  0  0  0  0  0
   13.7044   -7.9356   -8.4191 C   0  0  0  0  0  0  0  0  0  0  0  0
   14.3932   -6.9432   -9.0695 C   0  0  0  0  0  0  0  0  0  0  0  0
   14.8344   -7.0554  -10.3676 C   0  0  0  0  0  0  0  0  0  0  0  0
   15.5701   -6.0194  -11.1111 C   0  0  0  0  0  0  0  0  0  0  0  0
   16.9418   -5.7880  -10.5347 C   0  0  2  0  0  0  0  0  0  0  0  0
   17.8197   -6.9081  -10.8679 N   0  0  0  0  0  0  0  0  0  0  0  0
   16.9594   -5.5377   -9.0827 C   0  0  0  0  0  0  0  0  0  0  0  0
   17.6963   -6.3614   -8.2645 O   0  0  0  0  0  0  0  0  0  0  0  0
   14.5617   -8.2344  -11.0363 C   0  0  0  0  0  0  0  0  0  0  0  0
   13.8733   -9.2407  -10.4018 C   0  0  0  0  0  0  0  0  0  0  0  0
   16.3176   -4.5938   -8.5987 O   0  0  0  0  0  0  0  0  0  0  0  0
  2  1  1  1
  2  3  1  0
  3  4  1  0
  4  5  1  0
  5  6  2  0
  7  2  1  0
  7  8  2  0
  9  5  1  0
 10 11  1  0
 11 12  1  0
 13 12  1  0
 14 13  1  6
 14 15  1  0
 15  7  1  0
 16 14  1  0
 17 16  2  0
 18 19  1  0
 19 20  2  0
 19 29  1  0
 20 21  1  0
 21 22  2  0
 22 23  1  0
 24 23  1  1
 24 25  1  0
 24 26  1  0
 25 16  1  0
 26 27  1  0
 28 22  1  0
 29 28  2  0
 30 26  2  0
M  END
$$$$
