EMY.pdb
     RDKit          3D

 30 30  0  0  1  0  0  0  0  0999 V2000
   17.2753  -10.9503  -17.6463 N   0  0  0  0  0  0  0  0  0  0  0  0
   18.1337   -9.8832  -18.0644 C   0  0  1  0  0  0  0  0  0  0  0  0
   17.4518   -8.6050  -18.4631 C   0  0  0  0  0  0  0  0  0  0  0  0
   16.5636   -8.6423  -19.6342 C   0  0  0  0  0  0  0  0  0  0  0  0
   17.1576   -8.8269  -20.9464 C   0  0  0  0  0  0  0  0  0  0  0  0
   16.4745   -8.8744  -21.9864 O   0  0  0  0  0  0  0  0  0  0  0  0
   19.0937   -9.5173  -16.9705 C   0  0  0  0  0  0  0  0  0  0  0  0
   18.7048   -9.7163  -15.7941 O   0  0  0  0  0  0  0  0  0  0  0  0
   18.5441   -8.9646  -21.1339 O   0  0  0  0  0  0  0  0  0  0  0  0
   26.4093   -9.8495  -14.6453 C   0  0  0  0  0  0  0  0  0  0  0  0
   25.1239  -10.1216  -15.9042 S   0  0  0  0  0  0  0  0  0  0  0  0
   23.6924   -9.1390  -15.4719 C   0  0  0  0  0  0  0  0  0  0  0  0
   22.5789   -9.3996  -16.4322 C   0  0  0  0  0  0  0  0  0  0  0  0
   21.3141   -8.6618  -16.1390 C   0  0  2  0  0  0  0  0  0  0  0  0
   20.3573   -8.9811  -17.2187 N   0  0  0  0  0  0  0  0  0  0  0  0
   21.5913   -7.2007  -16.2571 C   0  0  0  0  0  0  0  0  0  0  0  0
   22.0336   -6.7431  -17.3389 O   0  0  0  0  0  0  0  0  0  0  0  0
   18.4581   -3.8644  -20.6186 O   0  0  0  0  0  0  0  0  0  0  0  0
   18.9401   -3.9563  -19.3127 C   0  0  0  0  0  0  0  0  0  0  0  0
   18.4173   -4.8173  -18.3840 C   0  0  0  0  0  0  0  0  0  0  0  0
   18.9557   -4.8397  -17.1222 C   0  0  0  0  0  0  0  0  0  0  0  0
   20.0023   -4.0364  -16.7328 C   0  0  0  0  0  0  0  0  0  0  0  0
   20.6102   -4.0177  -15.3921 C   0  0  0  0  0  0  0  0  0  0  0  0
   21.8055   -4.9295  -15.3094 C   0  0  2  0  0  0  0  0  0  0  0  0
   21.3674   -6.3176  -15.1764 N   0  0  0  0  0  0  0  0  0  0  0  0
   22.7600   -4.5890  -14.2398 C   0  0  0  0  0  0  0  0  0  0  0  0
   23.0339   -5.5138  -13.2596 O   0  0  0  0  0  0  0  0  0  0  0  0
   20.5268   -3.1686  -17.6727 C   0  0  0  0  0  0  0  0  0  0  0  0
   20.0016   -3.1317  -18.9422 C   0  0  0  0  0  0  0  0  0  0  0  0
   23.3141   -3.4800  -14.2199 O   0  0  0  0  0  0  0  0  0  0  0  0
  2  1  1  1
  2  3  1  0
  3  4  1  0
  4  5  1  0
  5  6  2  0
  7  2  1  0
  7  8  2  0
  9  5  1  0
 10 11  1  0
 11 12  1  0
 13 12  1  0
 14 13  1  6
 14 15  1  0
 15  7  1  0
 16 14  1  0
 17 16  2  0
 18 19  1  0
 19 20  2  0
 19 29  1  0
 20 21  1  0
 21 22  2  0
 22 23  1  0
 24 23  1  1
 24 25  1  0
 24 26  1  0
 25 16  1  0
 26 27  1  0
 28 22  1  0
 29 28  2  0
 30 26  2  0
M  END
$$$$
