EMY.pdb
     RDKit          3D

 30 30  0  0  1  0  0  0  0  0999 V2000
   28.2862  -22.6296  -16.2333 N   0  0  0  0  0  0  0  0  0  0  0  0
   27.3503  -21.5838  -15.9495 C   0  0  1  0  0  0  0  0  0  0  0  0
   26.4465  -21.1817  -17.0806 C   0  0  0  0  0  0  0  0  0  0  0  0
   27.0523  -20.4781  -18.2205 C   0  0  0  0  0  0  0  0  0  0  0  0
   27.6711  -19.1856  -17.9853 C   0  0  0  0  0  0  0  0  0  0  0  0
   27.0052  -18.1411  -17.8592 O   0  0  0  0  0  0  0  0  0  0  0  0
   26.4475  -21.9752  -14.8164 C   0  0  0  0  0  0  0  0  0  0  0  0
   25.9292  -23.1162  -14.8815 O   0  0  0  0  0  0  0  0  0  0  0  0
   29.0640  -19.0237  -17.8835 O   0  0  0  0  0  0  0  0  0  0  0  0
   27.1368  -20.1597   -8.6853 C   0  0  0  0  0  0  0  0  0  0  0  0
   25.3461  -19.9052   -8.8843 S   0  0  0  0  0  0  0  0  0  0  0  0
   24.7786  -20.9204  -10.2440 C   0  0  0  0  0  0  0  0  0  0  0  0
   25.6494  -20.7148  -11.4396 C   0  0  0  0  0  0  0  0  0  0  0  0
   25.2610  -21.5120  -12.6413 C   0  0  2  0  0  0  0  0  0  0  0  0
   26.1791  -21.1349  -13.7357 N   0  0  0  0  0  0  0  0  0  0  0  0
   23.9043  -21.0676  -13.0741 C   0  0  0  0  0  0  0  0  0  0  0  0
   23.7730  -19.9585  -13.6469 O   0  0  0  0  0  0  0  0  0  0  0  0
   23.7922  -23.8671  -18.6823 O   0  0  0  0  0  0  0  0  0  0  0  0
   23.0179  -23.4516  -17.5988 C   0  0  0  0  0  0  0  0  0  0  0  0
   22.2132  -22.3436  -17.6389 C   0  0  0  0  0  0  0  0  0  0  0  0
   21.4861  -22.0103  -16.5241 C   0  0  0  0  0  0  0  0  0  0  0  0
   21.5208  -22.7343  -15.3550 C   0  0  0  0  0  0  0  0  0  0  0  0
   20.7665  -22.4155  -14.1315 C   0  0  0  0  0  0  0  0  0  0  0  0
   21.4632  -21.3680  -13.3043 C   0  0  2  0  0  0  0  0  0  0  0  0
   22.7605  -21.8681  -12.8533 N   0  0  0  0  0  0  0  0  0  0  0  0
   20.6788  -20.8733  -12.1593 C   0  0  0  0  0  0  0  0  0  0  0  0
   19.4414  -20.3152  -12.3793 O   0  0  0  0  0  0  0  0  0  0  0  0
   22.3344  -23.8515  -15.3183 C   0  0  0  0  0  0  0  0  0  0  0  0
   23.0702  -24.2022  -16.4249 C   0  0  0  0  0  0  0  0  0  0  0  0
   21.1260  -20.9579  -11.0060 O   0  0  0  0  0  0  0  0  0  0  0  0
  2  1  1  6
  2  3  1  0
  3  4  1  0
  4  5  1  0
  5  6  2  0
  7  2  1  0
  7  8  2  0
  9  5  1  0
 10 11  1  0
 11 12  1  0
 13 12  1  0
 14 13  1  1
 14 15  1  0
 15  7  1  0
 16 14  1  0
 17 16  2  0
 18 19  1  0
 19 20  2  0
 19 29  1  0
 20 21  1  0
 21 22  2  0
 22 23  1  0
 24 23  1  1
 24 25  1  0
 24 26  1  0
 25 16  1  0
 26 27  1  0
 28 22  1  0
 29 28  2  0
 30 26  2  0
M  END
$$$$
