EMY.pdb
     RDKit          3D

 30 30  0  0  1  0  0  0  0  0999 V2000
   25.7177   -8.7611  -22.0397 N   0  0  0  0  0  0  0  0  0  0  0  0
   26.3047   -8.1067  -20.9094 C   0  0  1  0  0  0  0  0  0  0  0  0
   26.0876   -6.6226  -20.8194 C   0  0  0  0  0  0  0  0  0  0  0  0
   24.7057   -6.1433  -20.6709 C   0  0  0  0  0  0  0  0  0  0  0  0
   24.4817   -4.7166  -20.5182 C   0  0  0  0  0  0  0  0  0  0  0  0
   23.3499   -4.2374  -20.3188 O   0  0  0  0  0  0  0  0  0  0  0  0
   25.7720   -8.6820  -19.6298 C   0  0  0  0  0  0  0  0  0  0  0  0
   24.5563   -8.9931  -19.6187 O   0  0  0  0  0  0  0  0  0  0  0  0
   25.5262   -3.7780  -20.5849 O   0  0  0  0  0  0  0  0  0  0  0  0
   26.2464  -13.2038  -14.0553 C   0  0  0  0  0  0  0  0  0  0  0  0
   26.4989  -12.2684  -15.5955 S   0  0  0  0  0  0  0  0  0  0  0  0
   26.9666  -10.5946  -15.1700 C   0  0  0  0  0  0  0  0  0  0  0  0
   27.2572   -9.8100  -16.4069 C   0  0  0  0  0  0  0  0  0  0  0  0
   26.0789   -9.5844  -17.2963 C   0  0  2  0  0  0  0  0  0  0  0  0
   26.5628   -8.8709  -18.4962 N   0  0  0  0  0  0  0  0  0  0  0  0
   25.1507   -8.6420  -16.6065 C   0  0  0  0  0  0  0  0  0  0  0  0
   25.4762   -7.4360  -16.4842 O   0  0  0  0  0  0  0  0  0  0  0  0
   18.3810  -10.5640  -19.0821 O   0  0  0  0  0  0  0  0  0  0  0  0
   19.2925   -9.7553  -18.4030 C   0  0  0  0  0  0  0  0  0  0  0  0
   18.9933   -9.1203  -17.2264 C   0  0  0  0  0  0  0  0  0  0  0  0
   19.9536   -8.3440  -16.6281 C   0  0  0  0  0  0  0  0  0  0  0  0
   21.2138   -8.1652  -17.1497 C   0  0  0  0  0  0  0  0  0  0  0  0
   22.2754   -7.3391  -16.5512 C   0  0  0  0  0  0  0  0  0  0  0  0
   23.0244   -8.0852  -15.4791 C   0  0  2  0  0  0  0  0  0  0  0  0
   23.9106   -9.0766  -16.0859 N   0  0  0  0  0  0  0  0  0  0  0  0
   22.1658   -8.7192  -14.4633 C   0  0  0  0  0  0  0  0  0  0  0  0
   22.2137  -10.0831  -14.2948 O   0  0  0  0  0  0  0  0  0  0  0  0
   21.5117   -8.8073  -18.3373 C   0  0  0  0  0  0  0  0  0  0  0  0
   20.5635   -9.5898  -18.9519 C   0  0  0  0  0  0  0  0  0  0  0  0
   21.4058   -8.0331  -13.7641 O   0  0  0  0  0  0  0  0  0  0  0  0
  2  1  1  6
  2  3  1  0
  3  4  1  0
  4  5  1  0
  5  6  2  0
  7  2  1  0
  7  8  2  0
  9  5  1  0
 10 11  1  0
 11 12  1  0
 13 12  1  0
 14 13  1  1
 14 15  1  0
 15  7  1  0
 16 14  1  0
 17 16  2  0
 18 19  1  0
 19 20  2  0
 19 29  1  0
 20 21  1  0
 21 22  2  0
 22 23  1  0
 24 23  1  6
 24 25  1  0
 24 26  1  0
 25 16  1  0
 26 27  1  0
 28 22  1  0
 29 28  2  0
 30 26  2  0
M  END
$$$$
