EMY.pdb
     RDKit          3D

 30 30  0  0  1  0  0  0  0  0999 V2000
   27.2215  -21.8704  -15.1007 N   0  0  0  0  0  0  0  0  0  0  0  0
   27.3659  -20.8834  -14.0734 C   0  0  1  0  0  0  0  0  0  0  0  0
   26.9438  -19.4874  -14.4350 C   0  0  0  0  0  0  0  0  0  0  0  0
   26.8311  -19.1574  -15.8633 C   0  0  0  0  0  0  0  0  0  0  0  0
   28.0162  -18.6898  -16.5601 C   0  0  0  0  0  0  0  0  0  0  0  0
   28.6036  -19.3806  -17.4133 O   0  0  0  0  0  0  0  0  0  0  0  0
   26.5626  -21.2590  -12.8626 C   0  0  0  0  0  0  0  0  0  0  0  0
   25.7122  -22.1692  -13.0147 O   0  0  0  0  0  0  0  0  0  0  0  0
   28.5824  -17.4255  -16.3202 O   0  0  0  0  0  0  0  0  0  0  0  0
   27.2387  -19.1727   -6.6860 C   0  0  0  0  0  0  0  0  0  0  0  0
   28.4867  -20.2715   -7.4250 S   0  0  0  0  0  0  0  0  0  0  0  0
   27.7660  -21.0610   -8.8598 C   0  0  0  0  0  0  0  0  0  0  0  0
   26.5068  -20.3622   -9.2550 C   0  0  0  0  0  0  0  0  0  0  0  0
   25.8406  -20.9137  -10.4725 C   0  0  2  0  0  0  0  0  0  0  0  0
   26.7297  -20.6447  -11.6214 N   0  0  0  0  0  0  0  0  0  0  0  0
   24.6004  -20.1227  -10.7210 C   0  0  0  0  0  0  0  0  0  0  0  0
   24.6893  -18.9876  -11.2492 O   0  0  0  0  0  0  0  0  0  0  0  0
   18.4038  -20.2807  -16.3951 O   0  0  0  0  0  0  0  0  0  0  0  0
   19.4193  -20.5151  -15.4677 C   0  0  0  0  0  0  0  0  0  0  0  0
   19.5788  -21.7139  -14.8241 C   0  0  0  0  0  0  0  0  0  0  0  0
   20.6073  -21.8541  -13.9268 C   0  0  0  0  0  0  0  0  0  0  0  0
   21.4969  -20.8466  -13.6335 C   0  0  0  0  0  0  0  0  0  0  0  0
   22.6108  -20.9442  -12.6759 C   0  0  0  0  0  0  0  0  0  0  0  0
   22.2224  -20.4302  -11.3150 C   0  0  2  0  0  0  0  0  0  0  0  0
   23.3246  -20.6228  -10.3745 N   0  0  0  0  0  0  0  0  0  0  0  0
   20.9807  -21.0111  -10.7748 C   0  0  0  0  0  0  0  0  0  0  0  0
   21.0199  -22.2458  -10.1707 O   0  0  0  0  0  0  0  0  0  0  0  0
   21.3323  -19.6382  -14.2848 C   0  0  0  0  0  0  0  0  0  0  0  0
   20.3084  -19.4782  -15.1876 C   0  0  0  0  0  0  0  0  0  0  0  0
   19.9079  -20.3956  -10.8613 O   0  0  0  0  0  0  0  0  0  0  0  0
  2  1  1  6
  2  3  1  0
  3  4  1  0
  4  5  1  0
  5  6  2  0
  7  2  1  0
  7  8  2  0
  9  5  1  0
 10 11  1  0
 11 12  1  0
 13 12  1  0
 14 13  1  1
 14 15  1  0
 15  7  1  0
 16 14  1  0
 17 16  2  0
 18 19  1  0
 19 20  2  0
 19 29  1  0
 20 21  1  0
 21 22  2  0
 22 23  1  0
 24 23  1  6
 24 25  1  0
 24 26  1  0
 25 16  1  0
 26 27  1  0
 28 22  1  0
 29 28  2  0
 30 26  2  0
M  END
$$$$
