EMY.pdb
     RDKit          3D

 30 30  0  0  1  0  0  0  0  0999 V2000
   24.6437  -24.8690  -17.0632 N   0  0  0  0  0  0  0  0  0  0  0  0
   24.2123  -24.5028  -15.7478 C   0  0  1  0  0  0  0  0  0  0  0  0
   24.1548  -25.6145  -14.7385 C   0  0  0  0  0  0  0  0  0  0  0  0
   23.0211  -26.5475  -14.8154 C   0  0  0  0  0  0  0  0  0  0  0  0
   22.9057  -27.4000  -15.9853 C   0  0  0  0  0  0  0  0  0  0  0  0
   21.9033  -27.3858  -16.7238 O   0  0  0  0  0  0  0  0  0  0  0  0
   25.1204  -23.4600  -15.1647 C   0  0  0  0  0  0  0  0  0  0  0  0
   26.3134  -23.4751  -15.5536 O   0  0  0  0  0  0  0  0  0  0  0  0
   23.9168  -28.2999  -16.3652 O   0  0  0  0  0  0  0  0  0  0  0  0
   26.1622  -16.0949  -14.6058 C   0  0  0  0  0  0  0  0  0  0  0  0
   25.2706  -17.6001  -15.1065 S   0  0  0  0  0  0  0  0  0  0  0  0
   25.5542  -18.8625  -13.8707 C   0  0  0  0  0  0  0  0  0  0  0  0
   24.8524  -20.1243  -14.2519 C   0  0  0  0  0  0  0  0  0  0  0  0
   25.5311  -21.3774  -13.8055 C   0  0  2  0  0  0  0  0  0  0  0  0
   24.6889  -22.5122  -14.2365 N   0  0  0  0  0  0  0  0  0  0  0  0
   25.5213  -21.4041  -12.3139 C   0  0  0  0  0  0  0  0  0  0  0  0
   24.4512  -21.6587  -11.7094 O   0  0  0  0  0  0  0  0  0  0  0  0
   27.4994  -19.5476   -3.9733 O   0  0  0  0  0  0  0  0  0  0  0  0
   27.5982  -19.8622   -5.3288 C   0  0  0  0  0  0  0  0  0  0  0  0
   27.7885  -21.1398   -5.7856 C   0  0  0  0  0  0  0  0  0  0  0  0
   27.8736  -21.3557   -7.1378 C   0  0  0  0  0  0  0  0  0  0  0  0
   27.7782  -20.3497   -8.0712 C   0  0  0  0  0  0  0  0  0  0  0  0
   27.8694  -20.5278   -9.5297 C   0  0  0  0  0  0  0  0  0  0  0  0
   26.5768  -21.0363  -10.1110 C   0  0  2  0  0  0  0  0  0  0  0  0
   26.6918  -21.1486  -11.5638 N   0  0  0  0  0  0  0  0  0  0  0  0
   25.3907  -20.2397   -9.7511 C   0  0  0  0  0  0  0  0  0  0  0  0
   24.5459  -20.6939   -8.7657 O   0  0  0  0  0  0  0  0  0  0  0  0
   27.5866  -19.0618   -7.6063 C   0  0  0  0  0  0  0  0  0  0  0  0
   27.4982  -18.8251   -6.2553 C   0  0  0  0  0  0  0  0  0  0  0  0
   25.1527  -19.1685  -10.3283 O   0  0  0  0  0  0  0  0  0  0  0  0
  2  1  1  6
  2  3  1  0
  3  4  1  0
  4  5  1  0
  5  6  2  0
  7  2  1  0
  7  8  2  0
  9  5  1  0
 10 11  1  0
 11 12  1  0
 13 12  1  0
 14 13  1  1
 14 15  1  0
 15  7  1  0
 16 14  1  0
 17 16  2  0
 18 19  1  0
 19 20  2  0
 19 29  1  0
 20 21  1  0
 21 22  2  0
 22 23  1  0
 24 23  1  6
 24 25  1  0
 24 26  1  0
 25 16  1  0
 26 27  1  0
 28 22  1  0
 29 28  2  0
 30 26  2  0
M  END
$$$$
