NLP.pdb
     RDKit          3D

 24 24  0  0  1  0  0  0  0  0999 V2000
   25.6894  -14.7585  -16.5067 N   0  0  0  0  0  0  0  0  0  0  0  0
   24.9592  -15.9427  -16.7424 C   0  0  0  0  0  0  0  0  0  0  0  0
   23.9830  -15.8648  -17.5300 O   0  0  0  0  0  0  0  0  0  0  0  0
   25.3081  -17.2355  -16.1010 C   0  0  0  0  0  0  0  0  0  0  0  0
   26.3787  -16.9966  -15.0904 C   0  0  2  0  0  0  0  0  0  0  0  0
   27.6176  -16.7667  -15.8462 N   0  0  0  0  0  0  0  0  0  0  0  0
   26.6292  -18.1016  -14.1586 C   0  0  0  0  0  0  0  0  0  0  0  0
   27.2245  -19.1636  -14.5317 O   0  0  0  0  0  0  0  0  0  0  0  0
   26.0486  -19.2450   -8.2281 C   0  0  0  0  0  0  0  0  0  0  0  0
   26.5186  -19.9180   -9.5343 C   0  0  2  0  0  0  0  0  0  0  0  0
   27.7946  -20.6315   -9.2646 C   0  0  0  0  0  0  0  0  0  0  0  0
   26.5662  -18.8420  -10.5508 C   0  0  0  0  0  0  0  0  0  0  0  0
   26.3076  -19.2998  -11.9706 C   0  0  2  0  0  0  0  0  0  0  0  0
   26.2447  -18.1029  -12.7738 N   0  0  0  0  0  0  0  0  0  0  0  0
   25.1951  -20.2553  -12.1186 C   0  0  0  0  0  0  0  0  0  0  0  0
   24.0982  -19.8882  -11.5071 O   0  0  0  0  0  0  0  0  0  0  0  0
   25.1314  -21.4589  -12.7935 N   0  0  0  0  0  0  0  0  0  0  0  0
   25.9734  -21.9320  -13.8755 C   0  0  0  0  0  0  0  0  0  0  0  0
   26.3348  -23.3445  -13.3396 C   0  0  0  0  0  0  0  0  0  0  0  0
   25.2753  -23.6417  -12.2655 C   0  0  0  0  0  0  0  0  0  0  0  0
   24.2248  -22.5627  -12.6498 C   0  0  1  0  0  0  0  0  0  0  0  0
   23.0676  -22.5284  -11.8435 C   0  0  0  0  0  0  0  0  0  0  0  0
   23.2183  -22.0974  -10.4965 O   0  0  0  0  0  0  0  0  0  0  0  0
   21.9167  -22.8267  -12.1508 O   0  0  0  0  0  0  0  0  0  0  0  0
  2  3  2  0
  2  1  1  0
  4  2  1  0
  5  4  1  0
  5  6  1  6
  7  8  2  0
  7  5  1  0
 10  9  1  1
 10 12  1  0
 11 10  1  0
 13 12  1  1
 13 14  1  0
 14  7  1  0
 15 13  1  0
 16 15  2  0
 17 15  1  0
 17 18  1  0
 19 18  1  0
 20 19  1  0
 21 22  1  1
 21 20  1  0
 21 17  1  0
 22 23  1  0
 24 22  2  0
M  END
$$$$
