NLP.pdb
     RDKit          3D

 24 24  0  0  1  0  0  0  0  0999 V2000
   18.9274  -20.0818  -15.5075 N   0  0  0  0  0  0  0  0  0  0  0  0
   19.1167  -19.9917  -14.1120 C   0  0  0  0  0  0  0  0  0  0  0  0
   18.1109  -20.1901  -13.3851 O   0  0  0  0  0  0  0  0  0  0  0  0
   20.4348  -19.6780  -13.5048 C   0  0  0  0  0  0  0  0  0  0  0  0
   21.4913  -20.4415  -14.2298 C   0  0  2  0  0  0  0  0  0  0  0  0
   21.3642  -21.8393  -13.7946 N   0  0  0  0  0  0  0  0  0  0  0  0
   22.8716  -20.0212  -13.9656 C   0  0  0  0  0  0  0  0  0  0  0  0
   23.2202  -18.7987  -14.0408 O   0  0  0  0  0  0  0  0  0  0  0  0
   24.9737  -19.3394  -10.6840 C   0  0  0  0  0  0  0  0  0  0  0  0
   24.9283  -20.8542  -10.9725 C   0  0  2  0  0  0  0  0  0  0  0  0
   25.3023  -21.5821   -9.7315 C   0  0  0  0  0  0  0  0  0  0  0  0
   25.7985  -21.0691  -12.1514 C   0  0  0  0  0  0  0  0  0  0  0  0
   25.2937  -20.4431  -13.4341 C   0  0  2  0  0  0  0  0  0  0  0  0
   23.9400  -20.9123  -13.6048 N   0  0  0  0  0  0  0  0  0  0  0  0
   26.1959  -20.5908  -14.5903 C   0  0  0  0  0  0  0  0  0  0  0  0
   26.4784  -21.8338  -14.8849 O   0  0  0  0  0  0  0  0  0  0  0  0
   26.7792  -19.6351  -15.3994 N   0  0  0  0  0  0  0  0  0  0  0  0
   26.3957  -18.2478  -15.5775 C   0  0  0  0  0  0  0  0  0  0  0  0
   27.7762  -17.5596  -15.3951 C   0  0  0  0  0  0  0  0  0  0  0  0
   28.8068  -18.6812  -15.6062 C   0  0  0  0  0  0  0  0  0  0  0  0
   27.8927  -19.7288  -16.3007 C   0  0  1  0  0  0  0  0  0  0  0  0
   28.5194  -20.9434  -16.6509 C   0  0  0  0  0  0  0  0  0  0  0  0
   28.7594  -21.1842  -18.0318 O   0  0  0  0  0  0  0  0  0  0  0  0
   28.8971  -21.8464  -15.9093 O   0  0  0  0  0  0  0  0  0  0  0  0
  2  3  2  0
  2  1  1  0
  4  2  1  0
  5  4  1  0
  5  6  1  1
  7  8  2  0
  7  5  1  0
 10  9  1  1
 10 12  1  0
 11 10  1  0
 13 12  1  1
 13 14  1  0
 14  7  1  0
 15 13  1  0
 16 15  2  0
 17 15  1  0
 17 18  1  0
 19 18  1  0
 20 19  1  0
 21 22  1  1
 21 20  1  0
 21 17  1  0
 22 23  1  0
 24 22  2  0
M  END
$$$$
