NLP.pdb
     RDKit          3D

 24 24  0  0  1  0  0  0  0  0999 V2000
   29.8674  -25.7279  -17.2560 N   0  0  0  0  0  0  0  0  0  0  0  0
   28.7227  -24.9212  -17.0822 C   0  0  0  0  0  0  0  0  0  0  0  0
   27.7979  -25.0532  -17.9227 O   0  0  0  0  0  0  0  0  0  0  0  0
   28.5924  -23.9524  -15.9647 C   0  0  0  0  0  0  0  0  0  0  0  0
   28.1559  -22.6376  -16.5175 C   0  0  2  0  0  0  0  0  0  0  0  0
   29.3068  -22.0950  -17.2526 N   0  0  0  0  0  0  0  0  0  0  0  0
   27.7536  -21.6346  -15.5255 C   0  0  0  0  0  0  0  0  0  0  0  0
   28.5546  -21.2383  -14.6185 O   0  0  0  0  0  0  0  0  0  0  0  0
   27.8640  -17.6486  -14.8021 C   0  0  0  0  0  0  0  0  0  0  0  0
   26.8222  -18.2843  -15.7458 C   0  0  2  0  0  0  0  0  0  0  0  0
   26.3961  -17.2606  -16.7360 C   0  0  0  0  0  0  0  0  0  0  0  0
   25.7635  -18.8353  -14.8691 C   0  0  0  0  0  0  0  0  0  0  0  0
   26.0399  -20.2264  -14.3393 C   0  0  2  0  0  0  0  0  0  0  0  0
   26.4589  -21.0129  -15.4741 N   0  0  0  0  0  0  0  0  0  0  0  0
   24.9677  -20.7927  -13.5014 C   0  0  0  0  0  0  0  0  0  0  0  0
   23.9077  -21.1588  -14.1754 O   0  0  0  0  0  0  0  0  0  0  0  0
   24.9097  -20.9950  -12.1361 N   0  0  0  0  0  0  0  0  0  0  0  0
   25.9795  -21.3778  -11.2347 C   0  0  0  0  0  0  0  0  0  0  0  0
   25.7900  -20.3114  -10.1213 C   0  0  0  0  0  0  0  0  0  0  0  0
   24.3609  -19.7805  -10.3229 C   0  0  0  0  0  0  0  0  0  0  0  0
   23.8017  -20.9143  -11.2269 C   0  0  1  0  0  0  0  0  0  0  0  0
   22.4604  -20.7584  -11.6356 C   0  0  0  0  0  0  0  0  0  0  0  0
   21.4450  -21.1151  -10.7059 O   0  0  0  0  0  0  0  0  0  0  0  0
   22.0356  -20.3463  -12.7116 O   0  0  0  0  0  0  0  0  0  0  0  0
  2  3  2  0
  2  1  1  0
  4  2  1  0
  5  4  1  0
  5  6  1  1
  7  8  2  0
  7  5  1  0
 10  9  1  1
 10 12  1  0
 11 10  1  0
 13 12  1  6
 13 14  1  0
 14  7  1  0
 15 13  1  0
 16 15  2  0
 17 15  1  0
 17 18  1  0
 19 18  1  0
 20 19  1  0
 21 22  1  6
 21 20  1  0
 21 17  1  0
 22 23  1  0
 24 22  2  0
M  END
$$$$
