NLP.pdb
     RDKit          3D

 24 24  0  0  1  0  0  0  0  0999 V2000
   18.2476  -12.1273  -19.7388 N   0  0  0  0  0  0  0  0  0  0  0  0
   17.6894  -10.9583  -19.1793 C   0  0  0  0  0  0  0  0  0  0  0  0
   16.8051  -10.3696  -19.8506 O   0  0  0  0  0  0  0  0  0  0  0  0
   18.1109  -10.4270  -17.8585 C   0  0  0  0  0  0  0  0  0  0  0  0
   19.2239  -11.2704  -17.3346 C   0  0  2  0  0  0  0  0  0  0  0  0
   18.6167  -12.2152  -16.3871 N   0  0  0  0  0  0  0  0  0  0  0  0
   20.2837  -10.5498  -16.6208 C   0  0  0  0  0  0  0  0  0  0  0  0
   20.0488   -9.9259  -15.5359 O   0  0  0  0  0  0  0  0  0  0  0  0
   26.3769  -10.1428  -16.7078 C   0  0  0  0  0  0  0  0  0  0  0  0
   25.1187   -9.6418  -15.9688 C   0  0  2  0  0  0  0  0  0  0  0  0
   25.2956   -9.8910  -14.5140 C   0  0  0  0  0  0  0  0  0  0  0  0
   23.9711  -10.3153  -16.6189 C   0  0  0  0  0  0  0  0  0  0  0  0
   22.6260   -9.6732  -16.3529 C   0  0  2  0  0  0  0  0  0  0  0  0
   21.6522  -10.4751  -17.0533 N   0  0  0  0  0  0  0  0  0  0  0  0
   22.5783   -8.2190  -16.5886 C   0  0  0  0  0  0  0  0  0  0  0  0
   22.9249   -7.8682  -17.8004 O   0  0  0  0  0  0  0  0  0  0  0  0
   22.2285   -7.1852  -15.7418 N   0  0  0  0  0  0  0  0  0  0  0  0
   21.4854   -7.2500  -14.4979 C   0  0  0  0  0  0  0  0  0  0  0  0
   22.4188   -6.4129  -13.5810 C   0  0  0  0  0  0  0  0  0  0  0  0
   23.3056   -5.6109  -14.5480 C   0  0  0  0  0  0  0  0  0  0  0  0
   22.4655   -5.7731  -15.8454 C   0  0  1  0  0  0  0  0  0  0  0  0
   22.9960   -5.1482  -16.9937 C   0  0  0  0  0  0  0  0  0  0  0  0
   22.1695   -4.2104  -17.6720 O   0  0  0  0  0  0  0  0  0  0  0  0
   24.1023   -5.3051  -17.5031 O   0  0  0  0  0  0  0  0  0  0  0  0
  2  3  2  0
  2  1  1  0
  4  2  1  0
  5  4  1  0
  5  6  1  1
  7  8  2  0
  7  5  1  0
 10  9  1  6
 10 12  1  0
 11 10  1  0
 13 12  1  6
 13 14  1  0
 14  7  1  0
 15 13  1  0
 16 15  2  0
 17 15  1  0
 17 18  1  0
 19 18  1  0
 20 19  1  0
 21 22  1  6
 21 20  1  0
 21 17  1  0
 22 23  1  0
 24 22  2  0
M  END
$$$$
