NLP.pdb
     RDKit          3D

 24 24  0  0  1  0  0  0  0  0999 V2000
   29.4434  -20.5261  -14.2347 N   0  0  0  0  0  0  0  0  0  0  0  0
   28.4561  -19.9274  -13.4234 C   0  0  0  0  0  0  0  0  0  0  0  0
   28.1757  -18.7251  -13.6582 O   0  0  0  0  0  0  0  0  0  0  0  0
   27.7649  -20.6633  -12.3349 C   0  0  0  0  0  0  0  0  0  0  0  0
   28.6795  -20.7533  -11.1601 C   0  0  2  0  0  0  0  0  0  0  0  0
   29.5869  -21.8779  -11.4270 N   0  0  0  0  0  0  0  0  0  0  0  0
   28.0306  -21.0071   -9.8692 C   0  0  0  0  0  0  0  0  0  0  0  0
   27.5382  -22.1466   -9.5854 O   0  0  0  0  0  0  0  0  0  0  0  0
   28.1759  -20.7191   -5.1695 C   0  0  0  0  0  0  0  0  0  0  0  0
   28.4675  -19.4361   -5.9750 C   0  0  2  0  0  0  0  0  0  0  0  0
   28.9326  -18.3837   -5.0336 C   0  0  0  0  0  0  0  0  0  0  0  0
   27.2296  -19.1429   -6.7332 C   0  0  0  0  0  0  0  0  0  0  0  0
   26.8818  -20.1624   -7.7971 C   0  0  2  0  0  0  0  0  0  0  0  0
   27.8878  -20.0319   -8.8232 N   0  0  0  0  0  0  0  0  0  0  0  0
   25.4766  -20.1369   -8.2412 C   0  0  0  0  0  0  0  0  0  0  0  0
   25.1357  -19.0321   -8.8536 O   0  0  0  0  0  0  0  0  0  0  0  0
   24.4795  -21.0845   -8.1144 N   0  0  0  0  0  0  0  0  0  0  0  0
   24.6009  -22.4742   -7.7175 C   0  0  0  0  0  0  0  0  0  0  0  0
   23.4870  -22.5457   -6.6373 C   0  0  0  0  0  0  0  0  0  0  0  0
   22.5928  -21.3251   -6.9116 C   0  0  0  0  0  0  0  0  0  0  0  0
   23.0670  -20.9908   -8.3534 C   0  0  1  0  0  0  0  0  0  0  0  0
   22.4445  -19.8760   -8.9536 C   0  0  0  0  0  0  0  0  0  0  0  0
   21.1241  -20.0507   -9.4522 O   0  0  0  0  0  0  0  0  0  0  0  0
   22.8960  -18.7447   -9.1096 O   0  0  0  0  0  0  0  0  0  0  0  0
  2  3  2  0
  2  1  1  0
  4  2  1  0
  5  4  1  0
  5  6  1  6
  7  8  2  0
  7  5  1  0
 10  9  1  1
 10 12  1  0
 11 10  1  0
 13 12  1  1
 13 14  1  0
 14  7  1  0
 15 13  1  0
 16 15  2  0
 17 15  1  0
 17 18  1  0
 19 18  1  0
 20 19  1  0
 21 22  1  1
 21 20  1  0
 21 17  1  0
 22 23  1  0
 24 22  2  0
M  END
$$$$
