NLP.pdb
     RDKit          3D

 24 24  0  0  1  0  0  0  0  0999 V2000
   28.5425  -17.2355  -17.7601 N   0  0  0  0  0  0  0  0  0  0  0  0
   28.5547  -18.5933  -18.1441 C   0  0  0  0  0  0  0  0  0  0  0  0
   28.9298  -18.8525  -19.3152 O   0  0  0  0  0  0  0  0  0  0  0  0
   28.1472  -19.6856  -17.2247 C   0  0  0  0  0  0  0  0  0  0  0  0
   27.5868  -19.0823  -15.9811 C   0  0  2  0  0  0  0  0  0  0  0  0
   28.6740  -18.3032  -15.3726 N   0  0  0  0  0  0  0  0  0  0  0  0
   27.1097  -20.0353  -14.9731 C   0  0  0  0  0  0  0  0  0  0  0  0
   26.9526  -21.2690  -15.2466 O   0  0  0  0  0  0  0  0  0  0  0  0
   25.2385  -19.9604   -9.1772 C   0  0  0  0  0  0  0  0  0  0  0  0
   25.5066  -20.9342  -10.3433 C   0  0  2  0  0  0  0  0  0  0  0  0
   26.1886  -22.1399   -9.8037 C   0  0  0  0  0  0  0  0  0  0  0  0
   26.2499  -20.1550  -11.3600 C   0  0  0  0  0  0  0  0  0  0  0  0
   25.9634  -20.5482  -12.7937 C   0  0  2  0  0  0  0  0  0  0  0  0
   26.7817  -19.6911  -13.6168 N   0  0  0  0  0  0  0  0  0  0  0  0
   24.5325  -20.6271  -13.1385 C   0  0  0  0  0  0  0  0  0  0  0  0
   23.8227  -19.6278  -12.6808 O   0  0  0  0  0  0  0  0  0  0  0  0
   23.8357  -21.5769  -13.8599 N   0  0  0  0  0  0  0  0  0  0  0  0
   24.3445  -22.5190  -14.8383 C   0  0  0  0  0  0  0  0  0  0  0  0
   23.6997  -23.8306  -14.3120 C   0  0  0  0  0  0  0  0  0  0  0  0
   22.5527  -23.3672  -13.3986 C   0  0  0  0  0  0  0  0  0  0  0  0
   22.4356  -21.8934  -13.8779 C   0  0  1  0  0  0  0  0  0  0  0  0
   21.4477  -21.1216  -13.2305 C   0  0  0  0  0  0  0  0  0  0  0  0
   21.6134  -20.8760  -11.8395 O   0  0  0  0  0  0  0  0  0  0  0  0
   20.4372  -20.6184  -13.7138 O   0  0  0  0  0  0  0  0  0  0  0  0
  2  3  2  0
  2  1  1  0
  4  2  1  0
  5  4  1  0
  5  6  1  1
  7  8  2  0
  7  5  1  0
 10  9  1  1
 10 12  1  0
 11 10  1  0
 13 12  1  1
 13 14  1  0
 14  7  1  0
 15 13  1  0
 16 15  2  0
 17 15  1  0
 17 18  1  0
 19 18  1  0
 20 19  1  0
 21 22  1  1
 21 20  1  0
 21 17  1  0
 22 23  1  0
 24 22  2  0
M  END
$$$$
