NLP.pdb
     RDKit          3D

 24 24  0  0  1  0  0  0  0  0999 V2000
   36.0310  -30.5872    3.4394 N   0  0  0  0  0  0  0  0  0  0  0  0
   36.8608  -30.3892    4.5635 C   0  0  0  0  0  0  0  0  0  0  0  0
   37.1648  -31.4067    5.2355 O   0  0  0  0  0  0  0  0  0  0  0  0
   37.3652  -29.0491    4.9559 C   0  0  0  0  0  0  0  0  0  0  0  0
   36.8061  -28.0323    4.0187 C   0  0  2  0  0  0  0  0  0  0  0  0
   37.6912  -28.0194    2.8458 N   0  0  0  0  0  0  0  0  0  0  0  0
   36.7400  -26.6613    4.5363 C   0  0  0  0  0  0  0  0  0  0  0  0
   37.7947  -25.9847    4.7626 O   0  0  0  0  0  0  0  0  0  0  0  0
   32.4662  -22.3527    5.4339 C   0  0  0  0  0  0  0  0  0  0  0  0
   33.9785  -22.6420    5.5296 C   0  0  2  0  0  0  0  0  0  0  0  0
   34.7037  -21.6377    4.7077 C   0  0  0  0  0  0  0  0  0  0  0  0
   34.1459  -24.0603    5.1378 C   0  0  0  0  0  0  0  0  0  0  0  0
   35.5282  -24.6268    5.3842 C   0  0  2  0  0  0  0  0  0  0  0  0
   35.5210  -25.9594    4.8311 N   0  0  0  0  0  0  0  0  0  0  0  0
   36.0151  -24.4875    6.7684 C   0  0  0  0  0  0  0  0  0  0  0  0
   35.1336  -24.8230    7.6751 O   0  0  0  0  0  0  0  0  0  0  0  0
   37.2394  -24.0654    7.2493 N   0  0  0  0  0  0  0  0  0  0  0  0
   38.5062  -23.9876    6.5474 C   0  0  0  0  0  0  0  0  0  0  0  0
   38.9352  -22.5426    6.9223 C   0  0  0  0  0  0  0  0  0  0  0  0
   38.0839  -22.1851    8.1520 C   0  0  0  0  0  0  0  0  0  0  0  0
   37.6229  -23.6131    8.5567 C   0  0  1  0  0  0  0  0  0  0  0  0
   36.7837  -23.6816    9.6888 C   0  0  0  0  0  0  0  0  0  0  0  0
   37.3298  -24.2382   10.8782 O   0  0  0  0  0  0  0  0  0  0  0  0
   35.6156  -23.3176    9.7934 O   0  0  0  0  0  0  0  0  0  0  0  0
  2  3  2  0
  2  1  1  0
  4  2  1  0
  5  4  1  0
  5  6  1  6
  7  8  2  0
  7  5  1  0
 10  9  1  6
 10 12  1  0
 11 10  1  0
 13 12  1  1
 13 14  1  0
 14  7  1  0
 15 13  1  0
 16 15  2  0
 17 15  1  0
 17 18  1  0
 19 18  1  0
 20 19  1  0
 21 22  1  1
 21 20  1  0
 21 17  1  0
 22 23  1  0
 24 22  2  0
M  END
$$$$
