NLP.pdb
     RDKit          3D

 24 24  0  0  1  0  0  0  0  0999 V2000
   15.0659  -13.2629  -16.4458 N   0  0  0  0  0  0  0  0  0  0  0  0
   15.2938  -12.4119  -15.3434 C   0  0  0  0  0  0  0  0  0  0  0  0
   14.2815  -11.9487  -14.7604 O   0  0  0  0  0  0  0  0  0  0  0  0
   16.6586  -12.0641  -14.8736 C   0  0  0  0  0  0  0  0  0  0  0  0
   17.2147  -11.0006  -15.7593 C   0  0  2  0  0  0  0  0  0  0  0  0
   17.5478  -11.6544  -17.0323 N   0  0  0  0  0  0  0  0  0  0  0  0
   18.4305  -10.3405  -15.2712 C   0  0  0  0  0  0  0  0  0  0  0  0
   18.4415   -9.6951  -14.1737 O   0  0  0  0  0  0  0  0  0  0  0  0
   24.4215  -10.3707  -16.4616 C   0  0  0  0  0  0  0  0  0  0  0  0
   23.3566   -9.8875  -15.4554 C   0  0  2  0  0  0  0  0  0  0  0  0
   23.7510  -10.3425  -14.0962 C   0  0  0  0  0  0  0  0  0  0  0  0
   22.0591  -10.3853  -15.9673 C   0  0  0  0  0  0  0  0  0  0  0  0
   20.8451   -9.6549  -15.4336 C   0  0  2  0  0  0  0  0  0  0  0  0
   19.6947  -10.3527  -15.9547 N   0  0  0  0  0  0  0  0  0  0  0  0
   20.8725   -8.1930  -15.6198 C   0  0  0  0  0  0  0  0  0  0  0  0
   20.9714   -7.8212  -16.8703 O   0  0  0  0  0  0  0  0  0  0  0  0
   20.8095   -7.1704  -14.6933 N   0  0  0  0  0  0  0  0  0  0  0  0
   20.3216   -7.2186  -13.3283 C   0  0  0  0  0  0  0  0  0  0  0  0
   21.5017   -6.5247  -12.5943 C   0  0  0  0  0  0  0  0  0  0  0  0
   22.2639   -5.7716  -13.6972 C   0  0  0  0  0  0  0  0  0  0  0  0
   21.1737   -5.7862  -14.8047 C   0  0  1  0  0  0  0  0  0  0  0  0
   21.5339   -5.1644  -16.0189 C   0  0  0  0  0  0  0  0  0  0  0  0
   22.7197   -5.6160  -16.6614 O   0  0  0  0  0  0  0  0  0  0  0  0
   20.9505   -4.2631  -16.6148 O   0  0  0  0  0  0  0  0  0  0  0  0
  2  3  2  0
  2  1  1  0
  4  2  1  0
  5  4  1  0
  5  6  1  6
  7  8  2  0
  7  5  1  0
 10  9  1  6
 10 12  1  0
 11 10  1  0
 13 12  1  6
 13 14  1  0
 14  7  1  0
 15 13  1  0
 16 15  2  0
 17 15  1  0
 17 18  1  0
 19 18  1  0
 20 19  1  0
 21 22  1  6
 21 20  1  0
 21 17  1  0
 22 23  1  0
 24 22  2  0
M  END
$$$$
