NLP.pdb
     RDKit          3D

 24 24  0  0  1  0  0  0  0  0999 V2000
   25.5619  -15.9979  -18.3550 N   0  0  0  0  0  0  0  0  0  0  0  0
   24.2068  -16.2674  -18.0679 C   0  0  0  0  0  0  0  0  0  0  0  0
   23.3698  -15.3838  -18.3810 O   0  0  0  0  0  0  0  0  0  0  0  0
   23.7640  -17.5305  -17.4253 C   0  0  0  0  0  0  0  0  0  0  0  0
   24.9641  -18.2605  -16.9238 C   0  0  2  0  0  0  0  0  0  0  0  0
   25.6167  -18.8441  -18.1040 N   0  0  0  0  0  0  0  0  0  0  0  0
   24.6944  -19.3536  -15.9835 C   0  0  0  0  0  0  0  0  0  0  0  0
   24.4282  -20.5304  -16.3908 O   0  0  0  0  0  0  0  0  0  0  0  0
   25.1632  -20.5068   -9.9944 C   0  0  0  0  0  0  0  0  0  0  0  0
   24.7626  -21.1219  -11.3513 C   0  0  2  0  0  0  0  0  0  0  0  0
   25.5333  -22.3782  -11.5456 C   0  0  0  0  0  0  0  0  0  0  0  0
   24.9731  -20.0562  -12.3579 C   0  0  0  0  0  0  0  0  0  0  0  0
   24.2884  -20.2957  -13.6868 C   0  0  2  0  0  0  0  0  0  0  0  0
   24.7030  -19.2185  -14.5526 N   0  0  0  0  0  0  0  0  0  0  0  0
   22.8398  -20.5529  -13.5978 C   0  0  0  0  0  0  0  0  0  0  0  0
   22.2030  -19.7232  -12.8118 O   0  0  0  0  0  0  0  0  0  0  0  0
   22.0620  -21.5182  -14.2073 N   0  0  0  0  0  0  0  0  0  0  0  0
   22.3752  -22.3278  -15.3692 C   0  0  0  0  0  0  0  0  0  0  0  0
   22.0053  -23.7353  -14.8261 C   0  0  0  0  0  0  0  0  0  0  0  0
   21.1025  -23.4644  -13.6112 C   0  0  0  0  0  0  0  0  0  0  0  0
   20.7384  -21.9813  -13.9000 C   0  0  1  0  0  0  0  0  0  0  0  0
   19.8926  -21.3685  -12.9516 C   0  0  0  0  0  0  0  0  0  0  0  0
   18.7242  -20.7187  -13.4366 O   0  0  0  0  0  0  0  0  0  0  0  0
   20.0281  -21.3166  -11.7322 O   0  0  0  0  0  0  0  0  0  0  0  0
  2  3  2  0
  2  1  1  0
  4  2  1  0
  5  4  1  0
  5  6  1  6
  7  8  2  0
  7  5  1  0
 10  9  1  1
 10 12  1  0
 11 10  1  0
 13 12  1  1
 13 14  1  0
 14  7  1  0
 15 13  1  0
 16 15  2  0
 17 15  1  0
 17 18  1  0
 19 18  1  0
 20 19  1  0
 21 22  1  1
 21 20  1  0
 21 17  1  0
 22 23  1  0
 24 22  2  0
M  END
$$$$
