NLP.pdb
     RDKit          3D

 24 24  0  0  1  0  0  0  0  0999 V2000
   21.5637  -11.9992  -22.0071 N   0  0  0  0  0  0  0  0  0  0  0  0
   20.4216  -11.1793  -21.8866 C   0  0  0  0  0  0  0  0  0  0  0  0
   19.9222  -10.7353  -22.9509 O   0  0  0  0  0  0  0  0  0  0  0  0
   19.8177  -10.8415  -20.5730 C   0  0  0  0  0  0  0  0  0  0  0  0
   20.6401  -11.4600  -19.4933 C   0  0  2  0  0  0  0  0  0  0  0  0
   20.0867  -12.8027  -19.2689 N   0  0  0  0  0  0  0  0  0  0  0  0
   20.6281  -10.7574  -18.2056 C   0  0  0  0  0  0  0  0  0  0  0  0
   19.5821  -10.7161  -17.4806 O   0  0  0  0  0  0  0  0  0  0  0  0
   22.1770  -11.6818  -14.4270 C   0  0  0  0  0  0  0  0  0  0  0  0
   23.2311  -11.2111  -15.4503 C   0  0  2  0  0  0  0  0  0  0  0  0
   24.5778  -11.5937  -14.9501 C   0  0  0  0  0  0  0  0  0  0  0  0
   22.9871   -9.7637  -15.6476 C   0  0  0  0  0  0  0  0  0  0  0  0
   21.6883   -9.4302  -16.3505 C   0  0  2  0  0  0  0  0  0  0  0  0
   21.7561  -10.0663  -17.6437 N   0  0  0  0  0  0  0  0  0  0  0  0
   21.3262   -8.0015  -16.3340 C   0  0  0  0  0  0  0  0  0  0  0  0
   22.2539   -7.2155  -16.8171 O   0  0  0  0  0  0  0  0  0  0  0  0
   20.1765   -7.3736  -15.8957 N   0  0  0  0  0  0  0  0  0  0  0  0
   18.8750   -7.9565  -15.6313 C   0  0  0  0  0  0  0  0  0  0  0  0
   18.5923   -7.3611  -14.2248 C   0  0  0  0  0  0  0  0  0  0  0  0
   19.5525   -6.1663  -14.1021 C   0  0  0  0  0  0  0  0  0  0  0  0
   19.9221   -5.9917  -15.6015 C   0  0  1  0  0  0  0  0  0  0  0  0
   20.8287   -4.9486  -15.8854 C   0  0  0  0  0  0  0  0  0  0  0  0
   22.1416   -5.0557  -15.3491 O   0  0  0  0  0  0  0  0  0  0  0  0
   20.6373   -3.9335  -16.5493 O   0  0  0  0  0  0  0  0  0  0  0  0
  2  3  2  0
  2  1  1  0
  4  2  1  0
  5  4  1  0
  5  6  1  1
  7  8  2  0
  7  5  1  0
 10  9  1  1
 10 12  1  0
 11 10  1  0
 13 12  1  6
 13 14  1  0
 14  7  1  0
 15 13  1  0
 16 15  2  0
 17 15  1  0
 17 18  1  0
 19 18  1  0
 20 19  1  0
 21 22  1  1
 21 20  1  0
 21 17  1  0
 22 23  1  0
 24 22  2  0
M  END
$$$$
