WPG.pdb
     RDKit          3D

 26 28  0  0  1  0  0  0  0  0999 V2000
   24.2132  -20.1010  -11.4332 N   0  0  0  0  0  0  0  0  0  0  0  0
   25.6432  -20.2881  -11.6698 C   0  0  1  0  0  0  0  0  0  0  0  0
   26.2146  -21.3212  -10.7277 C   0  0  0  0  0  0  0  0  0  0  0  0
   26.1415  -20.9709   -9.3073 C   0  0  0  0  0  0  0  0  0  0  0  0
   24.9775  -20.7776   -8.6051 C   0  0  0  0  0  0  0  0  0  0  0  0
   25.3062  -20.4473   -7.3534 N   0  0  0  0  0  0  0  0  0  0  0  0
   26.6461  -20.4172   -7.2079 C   0  0  0  0  0  0  0  0  0  0  0  0
   27.4692  -20.1456   -6.1409 C   0  0  0  0  0  0  0  0  0  0  0  0
   28.8323  -20.2044   -6.3000 C   0  0  0  0  0  0  0  0  0  0  0  0
   29.4098  -20.5315   -7.5112 C   0  0  0  0  0  0  0  0  0  0  0  0
   28.5744  -20.8018   -8.5753 C   0  0  0  0  0  0  0  0  0  0  0  0
   27.1807  -20.7467   -8.4354 C   0  0  0  0  0  0  0  0  0  0  0  0
   25.9065  -20.5777  -13.0859 C   0  0  0  0  0  0  0  0  0  0  0  0
   25.1312  -21.3542  -13.6965 O   0  0  0  0  0  0  0  0  0  0  0  0
   26.9939  -20.0287  -13.8298 N   0  0  0  0  0  0  0  0  0  0  0  0
   27.8838  -19.0339  -13.2719 C   0  0  0  0  0  0  0  0  0  0  0  0
   28.3712  -18.2601  -14.5209 C   0  0  0  0  0  0  0  0  0  0  0  0
   28.5368  -19.4238  -15.5061 C   0  0  0  0  0  0  0  0  0  0  0  0
   27.3882  -20.3076  -15.1643 C   0  0  1  0  0  0  0  0  0  0  0  0
   27.7447  -21.7486  -15.3742 C   0  0  0  0  0  0  0  0  0  0  0  0
   28.4066  -22.3108  -14.4736 O   0  0  0  0  0  0  0  0  0  0  0  0
   27.3778  -22.4889  -16.5151 N   0  0  0  0  0  0  0  0  0  0  0  0
   27.7843  -23.8856  -16.7146 C   0  0  0  0  0  0  0  0  0  0  0  0
   27.1286  -24.3720  -17.9614 C   0  0  0  0  0  0  0  0  0  0  0  0
   26.3552  -23.5414  -18.7595 O   0  0  0  0  0  0  0  0  0  0  0  0
   27.2471  -25.5655  -18.3498 O   0  0  0  0  0  0  0  0  0  0  0  0
  2  1  1  6
  2  3  1  0
  4  3  1  0
  5  4  2  0
  6  5  1  0
  7  6  1  0
  7 12  2  0
  8  9  2  0
  8  7  1  0
  9 10  1  0
 10 11  2  0
 12 11  1  0
 12  4  1  0
 13 15  1  0
 13  2  1  0
 14 13  2  0
 15 19  1  0
 16 15  1  0
 17 16  1  0
 17 18  1  0
 18 19  1  0
 19 20  1  1
 20 21  2  0
 20 22  1  0
 22 23  1  0
 23 24  1  0
 24 25  1  0
 26 24  2  0
M  END
$$$$
