WPG.pdb
     RDKit          3D

 26 28  0  0  1  0  0  0  0  0999 V2000
   24.8892  -18.5487   -9.3343 N   0  0  0  0  0  0  0  0  0  0  0  0
   25.7814  -19.6076   -9.8018 C   0  0  1  0  0  0  0  0  0  0  0  0
   26.2475  -20.4669   -8.6504 C   0  0  0  0  0  0  0  0  0  0  0  0
   27.0593  -19.7719   -7.6488 C   0  0  0  0  0  0  0  0  0  0  0  0
   27.5388  -18.4917   -7.7773 C   0  0  0  0  0  0  0  0  0  0  0  0
   28.2539  -18.2121   -6.6845 N   0  0  0  0  0  0  0  0  0  0  0  0
   28.2608  -19.2638   -5.8412 C   0  0  0  0  0  0  0  0  0  0  0  0
   28.8324  -19.4762   -4.6093 C   0  0  0  0  0  0  0  0  0  0  0  0
   28.6519  -20.6803   -3.9731 C   0  0  0  0  0  0  0  0  0  0  0  0
   27.9060  -21.6963   -4.5374 C   0  0  0  0  0  0  0  0  0  0  0  0
   27.3371  -21.4725   -5.7742 C   0  0  0  0  0  0  0  0  0  0  0  0
   27.5093  -20.2518   -6.4415 C   0  0  0  0  0  0  0  0  0  0  0  0
   25.1598  -20.3739  -10.8903 C   0  0  0  0  0  0  0  0  0  0  0  0
   23.9174  -20.5556  -10.8664 O   0  0  0  0  0  0  0  0  0  0  0  0
   25.8763  -20.9318  -11.9915 N   0  0  0  0  0  0  0  0  0  0  0  0
   27.2861  -21.2463  -11.9125 C   0  0  0  0  0  0  0  0  0  0  0  0
   27.7562  -21.1190  -13.3820 C   0  0  0  0  0  0  0  0  0  0  0  0
   26.5516  -21.7393  -14.1006 C   0  0  0  0  0  0  0  0  0  0  0  0
   25.4012  -21.2532  -13.2896 C   0  0  1  0  0  0  0  0  0  0  0  0
   24.2985  -22.2688  -13.2682 C   0  0  0  0  0  0  0  0  0  0  0  0
   24.3881  -23.1922  -12.4288 O   0  0  0  0  0  0  0  0  0  0  0  0
   23.1854  -22.2359  -14.1308 N   0  0  0  0  0  0  0  0  0  0  0  0
   22.0874  -23.2064  -14.0407 C   0  0  0  0  0  0  0  0  0  0  0  0
   20.9401  -22.5281  -13.3740 C   0  0  0  0  0  0  0  0  0  0  0  0
   20.8076  -22.4902  -11.9933 O   0  0  0  0  0  0  0  0  0  0  0  0
   20.0334  -21.9553  -14.0366 O   0  0  0  0  0  0  0  0  0  0  0  0
  2  1  1  1
  2  3  1  0
  4  3  1  0
  5  4  2  0
  6  5  1  0
  7  6  1  0
  7 12  2  0
  8  9  2  0
  8  7  1  0
  9 10  1  0
 10 11  2  0
 12 11  1  0
 12  4  1  0
 13 15  1  0
 13  2  1  0
 14 13  2  0
 15 19  1  0
 16 15  1  0
 17 16  1  0
 17 18  1  0
 18 19  1  0
 19 20  1  1
 20 21  2  0
 20 22  1  0
 22 23  1  0
 23 24  1  0
 24 25  1  0
 26 24  2  0
M  END
$$$$
