WPG.pdb
     RDKit          3D

 26 28  0  0  1  0  0  0  0  0999 V2000
   28.9367  -24.7078  -18.0343 N   0  0  0  0  0  0  0  0  0  0  0  0
   29.7420  -25.4297  -17.0513 C   0  0  1  0  0  0  0  0  0  0  0  0
   29.0453  -26.6945  -16.6084 C   0  0  0  0  0  0  0  0  0  0  0  0
   27.5957  -26.5743  -16.4358 C   0  0  0  0  0  0  0  0  0  0  0  0
   26.9428  -25.4287  -16.0530 C   0  0  0  0  0  0  0  0  0  0  0  0
   25.6390  -25.7080  -15.9771 N   0  0  0  0  0  0  0  0  0  0  0  0
   25.4116  -26.9977  -16.2974 C   0  0  0  0  0  0  0  0  0  0  0  0
   24.2695  -27.7586  -16.3763 C   0  0  0  0  0  0  0  0  0  0  0  0
   24.3546  -29.0781  -16.7487 C   0  0  0  0  0  0  0  0  0  0  0  0
   25.5643  -29.6722  -17.0502 C   0  0  0  0  0  0  0  0  0  0  0  0
   26.7042  -28.8993  -16.9674 C   0  0  0  0  0  0  0  0  0  0  0  0
   26.6404  -27.5512  -16.5886 C   0  0  0  0  0  0  0  0  0  0  0  0
   31.1036  -25.6566  -17.5545 C   0  0  0  0  0  0  0  0  0  0  0  0
   31.2823  -25.7357  -18.7950 O   0  0  0  0  0  0  0  0  0  0  0  0
   32.2556  -25.7918  -16.7228 N   0  0  0  0  0  0  0  0  0  0  0  0
   32.2316  -25.4608  -15.3147 C   0  0  0  0  0  0  0  0  0  0  0  0
   33.7009  -25.0713  -15.0213 C   0  0  0  0  0  0  0  0  0  0  0  0
   34.4283  -26.1216  -15.8699 C   0  0  0  0  0  0  0  0  0  0  0  0
   33.5597  -26.2271  -17.0748 C   0  0  1  0  0  0  0  0  0  0  0  0
   33.5768  -27.6226  -17.6225 C   0  0  0  0  0  0  0  0  0  0  0  0
   32.9859  -28.5040  -16.9597 O   0  0  0  0  0  0  0  0  0  0  0  0
   34.2137  -27.9850  -18.8255 N   0  0  0  0  0  0  0  0  0  0  0  0
   34.2119  -29.3615  -19.3365 C   0  0  0  0  0  0  0  0  0  0  0  0
   35.0133  -29.3767  -20.5929 C   0  0  0  0  0  0  0  0  0  0  0  0
   34.4296  -29.5688  -21.8369 O   0  0  0  0  0  0  0  0  0  0  0  0
   36.2635  -29.2153  -20.5830 O   0  0  0  0  0  0  0  0  0  0  0  0
  2  1  1  6
  2  3  1  0
  4  3  1  0
  5  4  2  0
  6  5  1  0
  7  6  1  0
  7 12  2  0
  8  9  2  0
  8  7  1  0
  9 10  1  0
 10 11  2  0
 12 11  1  0
 12  4  1  0
 13 15  1  0
 13  2  1  0
 14 13  2  0
 15 19  1  0
 16 15  1  0
 17 16  1  0
 17 18  1  0
 18 19  1  0
 19 20  1  1
 20 21  2  0
 20 22  1  0
 22 23  1  0
 23 24  1  0
 24 25  1  0
 26 24  2  0
M  END
$$$$
