WPG.pdb
     RDKit          3D

 26 28  0  0  1  0  0  0  0  0999 V2000
   23.2371  -20.1612  -16.2423 N   0  0  0  0  0  0  0  0  0  0  0  0
   24.1936  -19.3432  -15.4994 C   0  0  1  0  0  0  0  0  0  0  0  0
   23.5417  -18.0783  -14.9930 C   0  0  0  0  0  0  0  0  0  0  0  0
   23.2019  -17.0999  -16.0288 C   0  0  0  0  0  0  0  0  0  0  0  0
   21.9254  -16.7161  -16.3580 C   0  0  0  0  0  0  0  0  0  0  0  0
   22.0093  -15.8350  -17.3581 N   0  0  0  0  0  0  0  0  0  0  0  0
   23.2970  -15.6255  -17.6978 C   0  0  0  0  0  0  0  0  0  0  0  0
   23.9023  -14.8260  -18.6381 C   0  0  0  0  0  0  0  0  0  0  0  0
   25.2718  -14.8181  -18.7456 C   0  0  0  0  0  0  0  0  0  0  0  0
   26.0698  -15.5960  -17.9300 C   0  0  0  0  0  0  0  0  0  0  0  0
   25.4519  -16.3948  -16.9900 C   0  0  0  0  0  0  0  0  0  0  0  0
   24.0560  -16.4190  -16.8639 C   0  0  0  0  0  0  0  0  0  0  0  0
   24.8460  -20.1291  -14.4433 C   0  0  0  0  0  0  0  0  0  0  0  0
   24.1690  -20.9873  -13.8253 O   0  0  0  0  0  0  0  0  0  0  0  0
   26.2154  -19.9879  -14.0661 N   0  0  0  0  0  0  0  0  0  0  0  0
   27.1411  -19.1707  -14.8198 C   0  0  0  0  0  0  0  0  0  0  0  0
   28.5083  -19.8399  -14.5382 C   0  0  0  0  0  0  0  0  0  0  0  0
   28.3350  -20.1831  -13.0535 C   0  0  0  0  0  0  0  0  0  0  0  0
   26.9021  -20.5809  -12.9750 C   0  0  1  0  0  0  0  0  0  0  0  0
   26.3170  -20.2029  -11.6474 C   0  0  0  0  0  0  0  0  0  0  0  0
   26.0473  -18.9950  -11.4647 O   0  0  0  0  0  0  0  0  0  0  0  0
   26.0598  -21.1240  -10.6131 N   0  0  0  0  0  0  0  0  0  0  0  0
   25.6036  -20.7084   -9.2808 C   0  0  0  0  0  0  0  0  0  0  0  0
   24.1166  -20.8061   -9.2629 C   0  0  0  0  0  0  0  0  0  0  0  0
   23.3953  -21.2684  -10.3543 O   0  0  0  0  0  0  0  0  0  0  0  0
   23.4431  -20.4718   -8.2512 O   0  0  0  0  0  0  0  0  0  0  0  0
  2  1  1  1
  2  3  1  0
  4  3  1  0
  5  4  2  0
  6  5  1  0
  7  6  1  0
  7 12  2  0
  8  9  2  0
  8  7  1  0
  9 10  1  0
 10 11  2  0
 12 11  1  0
 12  4  1  0
 13 15  1  0
 13  2  1  0
 14 13  2  0
 15 19  1  0
 16 15  1  0
 17 16  1  0
 17 18  1  0
 18 19  1  0
 19 20  1  1
 20 21  2  0
 20 22  1  0
 22 23  1  0
 23 24  1  0
 24 25  1  0
 26 24  2  0
M  END
$$$$
