WPG.pdb
     RDKit          3D

 26 28  0  0  1  0  0  0  0  0999 V2000
   23.1276  -19.1076  -14.6006 N   0  0  0  0  0  0  0  0  0  0  0  0
   24.2527  -19.8460  -14.0308 C   0  0  1  0  0  0  0  0  0  0  0  0
   23.8037  -21.1868  -13.4998 C   0  0  0  0  0  0  0  0  0  0  0  0
   23.1512  -21.1461  -12.1891 C   0  0  0  0  0  0  0  0  0  0  0  0
   21.7949  -21.2101  -11.9848 C   0  0  0  0  0  0  0  0  0  0  0  0
   21.5753  -21.1171  -10.6707 N   0  0  0  0  0  0  0  0  0  0  0  0
   22.7403  -20.9949  -10.0034 C   0  0  0  0  0  0  0  0  0  0  0  0
   23.0509  -20.8755   -8.6696 C   0  0  0  0  0  0  0  0  0  0  0  0
   24.3651  -20.7747   -8.2826 C   0  0  0  0  0  0  0  0  0  0  0  0
   25.3967  -20.7897   -9.2006 C   0  0  0  0  0  0  0  0  0  0  0  0
   25.0737  -20.9096  -10.5365 C   0  0  0  0  0  0  0  0  0  0  0  0
   23.7394  -21.0128  -10.9536 C   0  0  0  0  0  0  0  0  0  0  0  0
   25.3600  -19.9378  -14.9922 C   0  0  0  0  0  0  0  0  0  0  0  0
   25.0919  -19.9749  -16.2184 O   0  0  0  0  0  0  0  0  0  0  0  0
   26.7391  -19.9846  -14.6275 N   0  0  0  0  0  0  0  0  0  0  0  0
   27.1764  -19.8687  -13.2534 C   0  0  0  0  0  0  0  0  0  0  0  0
   28.5982  -19.2712  -13.3875 C   0  0  0  0  0  0  0  0  0  0  0  0
   29.0956  -20.0431  -14.6160 C   0  0  0  0  0  0  0  0  0  0  0  0
   27.8755  -20.1268  -15.4656 C   0  0  1  0  0  0  0  0  0  0  0  0
   27.8606  -21.4039  -16.2507 C   0  0  0  0  0  0  0  0  0  0  0  0
   27.2956  -22.3899  -15.7276 O   0  0  0  0  0  0  0  0  0  0  0  0
   28.4405  -21.5468  -17.5264 N   0  0  0  0  0  0  0  0  0  0  0  0
   27.9206  -20.8547  -18.7124 C   0  0  0  0  0  0  0  0  0  0  0  0
   28.6960  -21.3354  -19.8907 C   0  0  0  0  0  0  0  0  0  0  0  0
   28.6592  -22.6584  -20.3072 O   0  0  0  0  0  0  0  0  0  0  0  0
   29.4241  -20.5588  -20.5661 O   0  0  0  0  0  0  0  0  0  0  0  0
  2  1  1  6
  2  3  1  0
  4  3  1  0
  5  4  2  0
  6  5  1  0
  7  6  1  0
  7 12  2  0
  8  9  2  0
  8  7  1  0
  9 10  1  0
 10 11  2  0
 12 11  1  0
 12  4  1  0
 13 15  1  0
 13  2  1  0
 14 13  2  0
 15 19  1  0
 16 15  1  0
 17 16  1  0
 17 18  1  0
 18 19  1  0
 19 20  1  1
 20 21  2  0
 20 22  1  0
 22 23  1  0
 23 24  1  0
 24 25  1  0
 26 24  2  0
M  END
$$$$
