WPG.pdb
     RDKit          3D

 26 28  0  0  1  0  0  0  0  0999 V2000
   27.6318  -19.3177  -10.3824 N   0  0  0  0  0  0  0  0  0  0  0  0
   26.7719  -20.4898  -10.2322 C   0  0  1  0  0  0  0  0  0  0  0  0
   26.5696  -20.8262   -8.7737 C   0  0  0  0  0  0  0  0  0  0  0  0
   27.7917  -20.8387   -7.9664 C   0  0  0  0  0  0  0  0  0  0  0  0
   28.9822  -21.4035   -8.3525 C   0  0  0  0  0  0  0  0  0  0  0  0
   29.8528  -21.2440   -7.3524 N   0  0  0  0  0  0  0  0  0  0  0  0
   29.2765  -20.5933   -6.3220 C   0  0  0  0  0  0  0  0  0  0  0  0
   29.7365  -20.1880   -5.0916 C   0  0  0  0  0  0  0  0  0  0  0  0
   28.8950  -19.5193   -4.2362 C   0  0  0  0  0  0  0  0  0  0  0  0
   27.5865  -19.2373   -4.5761 C   0  0  0  0  0  0  0  0  0  0  0  0
   27.1352  -19.6488   -5.8131 C   0  0  0  0  0  0  0  0  0  0  0  0
   27.9765  -20.3334   -6.7011 C   0  0  0  0  0  0  0  0  0  0  0  0
   25.5150  -20.3158  -10.9729 C   0  0  0  0  0  0  0  0  0  0  0  0
   24.7593  -19.3623  -10.6620 O   0  0  0  0  0  0  0  0  0  0  0  0
   25.0864  -21.1629  -12.0387 N   0  0  0  0  0  0  0  0  0  0  0  0
   25.8119  -22.3576  -12.4118 C   0  0  0  0  0  0  0  0  0  0  0  0
   25.4707  -22.5200  -13.9130 C   0  0  0  0  0  0  0  0  0  0  0  0
   23.9904  -22.1193  -13.8936 C   0  0  0  0  0  0  0  0  0  0  0  0
   23.9635  -21.0159  -12.8939 C   0  0  1  0  0  0  0  0  0  0  0  0
   22.6635  -21.0062  -12.1472 C   0  0  0  0  0  0  0  0  0  0  0  0
   22.5981  -21.6945  -11.1045 O   0  0  0  0  0  0  0  0  0  0  0  0
   21.5314  -20.2731  -12.5535 N   0  0  0  0  0  0  0  0  0  0  0  0
   20.2656  -20.2982  -11.8099 C   0  0  0  0  0  0  0  0  0  0  0  0
   19.5228  -21.5213  -12.2260 C   0  0  0  0  0  0  0  0  0  0  0  0
   18.8034  -22.2898  -11.3220 O   0  0  0  0  0  0  0  0  0  0  0  0
   19.5140  -21.9156  -13.4233 O   0  0  0  0  0  0  0  0  0  0  0  0
  2  1  1  1
  2  3  1  0
  4  3  1  0
  5  4  2  0
  6  5  1  0
  7  6  1  0
  7 12  2  0
  8  9  2  0
  8  7  1  0
  9 10  1  0
 10 11  2  0
 12 11  1  0
 12  4  1  0
 13 15  1  0
 13  2  1  0
 14 13  2  0
 15 19  1  0
 16 15  1  0
 17 16  1  0
 17 18  1  0
 18 19  1  0
 19 20  1  1
 20 21  2  0
 20 22  1  0
 22 23  1  0
 23 24  1  0
 24 25  1  0
 26 24  2  0
M  END
$$$$
