WPG.pdb
     RDKit          3D

 26 28  0  0  1  0  0  0  0  0999 V2000
   15.3098  -15.2392    5.5321 N   0  0  0  0  0  0  0  0  0  0  0  0
   16.4654  -16.0574    5.1706 C   0  0  1  0  0  0  0  0  0  0  0  0
   17.7016  -15.5996    5.9079 C   0  0  0  0  0  0  0  0  0  0  0  0
   18.1611  -14.2511    5.5675 C   0  0  0  0  0  0  0  0  0  0  0  0
   17.5694  -13.4309    4.6388 C   0  0  0  0  0  0  0  0  0  0  0  0
   18.2781  -12.3004    4.5824 N   0  0  0  0  0  0  0  0  0  0  0  0
   19.3153  -12.3482    5.4423 C   0  0  0  0  0  0  0  0  0  0  0  0
   20.3134  -11.4583    5.7606 C   0  0  0  0  0  0  0  0  0  0  0  0
   21.2488  -11.7944    6.7089 C   0  0  0  0  0  0  0  0  0  0  0  0
   21.2186  -13.0114    7.3608 C   0  0  0  0  0  0  0  0  0  0  0  0
   20.2127  -13.8971    7.0335 C   0  0  0  0  0  0  0  0  0  0  0  0
   19.2486  -13.5751    6.0682 C   0  0  0  0  0  0  0  0  0  0  0  0
   16.1723  -17.4860    5.3493 C   0  0  0  0  0  0  0  0  0  0  0  0
   15.6067  -17.8575    6.4072 O   0  0  0  0  0  0  0  0  0  0  0  0
   16.4854  -18.4966    4.3912 N   0  0  0  0  0  0  0  0  0  0  0  0
   17.0104  -18.1792    3.0811 C   0  0  0  0  0  0  0  0  0  0  0  0
   16.5329  -19.3697    2.2145 C   0  0  0  0  0  0  0  0  0  0  0  0
   16.7369  -20.5200    3.2083 C   0  0  0  0  0  0  0  0  0  0  0  0
   16.3450  -19.9041    4.5062 C   0  0  1  0  0  0  0  0  0  0  0  0
   17.1520  -20.4771    5.6323 C   0  0  0  0  0  0  0  0  0  0  0  0
   18.1943  -19.8661    5.9572 O   0  0  0  0  0  0  0  0  0  0  0  0
   16.8015  -21.6488    6.3311 N   0  0  0  0  0  0  0  0  0  0  0  0
   17.7250  -22.3268    7.2495 C   0  0  0  0  0  0  0  0  0  0  0  0
   17.5188  -21.7458    8.6062 C   0  0  0  0  0  0  0  0  0  0  0  0
   16.8793  -20.5294    8.7975 O   0  0  0  0  0  0  0  0  0  0  0  0
   17.9176  -22.3352    9.6468 O   0  0  0  0  0  0  0  0  0  0  0  0
  2  1  1  1
  2  3  1  0
  4  3  1  0
  5  4  2  0
  6  5  1  0
  7  6  1  0
  7 12  2  0
  8  9  2  0
  8  7  1  0
  9 10  1  0
 10 11  2  0
 12 11  1  0
 12  4  1  0
 13 15  1  0
 13  2  1  0
 14 13  2  0
 15 19  1  0
 16 15  1  0
 17 16  1  0
 17 18  1  0
 18 19  1  0
 19 20  1  1
 20 21  2  0
 20 22  1  0
 22 23  1  0
 23 24  1  0
 24 25  1  0
 26 24  2  0
M  END
$$$$
