WPG.pdb
     RDKit          3D

 26 28  0  0  1  0  0  0  0  0999 V2000
   25.9052  -19.1378  -16.7820 N   0  0  0  0  0  0  0  0  0  0  0  0
   25.8982  -19.9154  -15.5447 C   0  0  1  0  0  0  0  0  0  0  0  0
   26.1336  -19.0251  -14.3475 C   0  0  0  0  0  0  0  0  0  0  0  0
   26.6219  -19.7141  -13.1507 C   0  0  0  0  0  0  0  0  0  0  0  0
   27.9127  -20.1431  -12.9633 C   0  0  0  0  0  0  0  0  0  0  0  0
   27.9733  -20.7471  -11.7736 N   0  0  0  0  0  0  0  0  0  0  0  0
   26.7672  -20.7297  -11.1717 C   0  0  0  0  0  0  0  0  0  0  0  0
   26.3137  -21.2016   -9.9628 C   0  0  0  0  0  0  0  0  0  0  0  0
   24.9977  -21.0226   -9.6121 C   0  0  0  0  0  0  0  0  0  0  0  0
   24.1047  -20.3762  -10.4440 C   0  0  0  0  0  0  0  0  0  0  0  0
   24.5704  -19.9069  -11.6549 C   0  0  0  0  0  0  0  0  0  0  0  0
   25.9091  -20.0795  -12.0332 C   0  0  0  0  0  0  0  0  0  0  0  0
   24.6763  -20.7248  -15.4414 C   0  0  0  0  0  0  0  0  0  0  0  0
   23.5853  -20.2177  -15.8013 O   0  0  0  0  0  0  0  0  0  0  0  0
   24.6400  -22.0672  -14.9579 N   0  0  0  0  0  0  0  0  0  0  0  0
   25.8239  -22.7435  -14.4744 C   0  0  0  0  0  0  0  0  0  0  0  0
   25.5096  -24.2353  -14.7434 C   0  0  0  0  0  0  0  0  0  0  0  0
   24.0224  -24.2646  -14.3694 C   0  0  0  0  0  0  0  0  0  0  0  0
   23.5330  -22.9510  -14.8716 C   0  0  1  0  0  0  0  0  0  0  0  0
   22.4361  -22.4222  -13.9970 C   0  0  0  0  0  0  0  0  0  0  0  0
   22.7675  -21.6584  -13.0632 O   0  0  0  0  0  0  0  0  0  0  0  0
   21.0741  -22.7366  -14.1712 N   0  0  0  0  0  0  0  0  0  0  0  0
   20.0346  -22.2907  -13.2350 C   0  0  0  0  0  0  0  0  0  0  0  0
   19.3612  -21.1068  -13.8398 C   0  0  0  0  0  0  0  0  0  0  0  0
   18.2486  -21.2308  -14.6595 O   0  0  0  0  0  0  0  0  0  0  0  0
   19.7733  -19.9334  -13.6337 O   0  0  0  0  0  0  0  0  0  0  0  0
  2  1  1  6
  2  3  1  0
  4  3  1  0
  5  4  2  0
  6  5  1  0
  7  6  1  0
  7 12  2  0
  8  9  2  0
  8  7  1  0
  9 10  1  0
 10 11  2  0
 12 11  1  0
 12  4  1  0
 13 15  1  0
 13  2  1  0
 14 13  2  0
 15 19  1  0
 16 15  1  0
 17 16  1  0
 17 18  1  0
 18 19  1  0
 19 20  1  1
 20 21  2  0
 20 22  1  0
 22 23  1  0
 23 24  1  0
 24 25  1  0
 26 24  2  0
M  END
$$$$
