WPG.pdb
     RDKit          3D

 26 28  0  0  1  0  0  0  0  0999 V2000
   24.2688  -19.9791  -10.2862 N   0  0  0  0  0  0  0  0  0  0  0  0
   25.6801  -20.1734  -10.6119 C   0  0  1  0  0  0  0  0  0  0  0  0
   26.3089  -21.1957   -9.6949 C   0  0  0  0  0  0  0  0  0  0  0  0
   26.3177  -20.8316   -8.2761 C   0  0  0  0  0  0  0  0  0  0  0  0
   25.1962  -20.6301   -7.5101 C   0  0  0  0  0  0  0  0  0  0  0  0
   25.5964  -20.2882   -6.2827 N   0  0  0  0  0  0  0  0  0  0  0  0
   26.9424  -20.2584   -6.2146 C   0  0  0  0  0  0  0  0  0  0  0  0
   27.8256  -19.9776   -5.1993 C   0  0  0  0  0  0  0  0  0  0  0  0
   29.1774  -20.0397   -5.4358 C   0  0  0  0  0  0  0  0  0  0  0  0
   29.6841  -20.3792   -6.6748 C   0  0  0  0  0  0  0  0  0  0  0  0
   28.7888  -20.6587   -7.6866 C   0  0  0  0  0  0  0  0  0  0  0  0
   27.4054  -20.6004   -7.4675 C   0  0  0  0  0  0  0  0  0  0  0  0
   25.8509  -20.4825  -12.0381 C   0  0  0  0  0  0  0  0  0  0  0  0
   25.0507  -21.2835  -12.5812 O   0  0  0  0  0  0  0  0  0  0  0  0
   26.8738  -19.9266  -12.8640 N   0  0  0  0  0  0  0  0  0  0  0  0
   27.7944  -18.9221  -12.3780 C   0  0  0  0  0  0  0  0  0  0  0  0
   28.1786  -18.1484  -13.6626 C   0  0  0  0  0  0  0  0  0  0  0  0
   28.2794  -19.3140  -14.6543 C   0  0  0  0  0  0  0  0  0  0  0  0
   27.1680  -20.2066  -14.2237 C   0  0  1  0  0  0  0  0  0  0  0  0
   27.5205  -21.6452  -14.4561 C   0  0  0  0  0  0  0  0  0  0  0  0
   27.9117  -22.3048  -13.4676 O   0  0  0  0  0  0  0  0  0  0  0  0
   27.4345  -22.2808  -15.7103 N   0  0  0  0  0  0  0  0  0  0  0  0
   28.3708  -21.9974  -16.8052 C   0  0  0  0  0  0  0  0  0  0  0  0
   28.0164  -22.8910  -17.9439 C   0  0  0  0  0  0  0  0  0  0  0  0
   27.1198  -22.5068  -18.9307 O   0  0  0  0  0  0  0  0  0  0  0  0
   28.5168  -24.0419  -18.0633 O   0  0  0  0  0  0  0  0  0  0  0  0
  2  1  1  1
  2  3  1  0
  4  3  1  0
  5  4  2  0
  6  5  1  0
  7  6  1  0
  7 12  2  0
  8  9  2  0
  8  7  1  0
  9 10  1  0
 10 11  2  0
 12 11  1  0
 12  4  1  0
 13 15  1  0
 13  2  1  0
 14 13  2  0
 15 19  1  0
 16 15  1  0
 17 16  1  0
 17 18  1  0
 18 19  1  0
 19 20  1  1
 20 21  2  0
 20 22  1  0
 22 23  1  0
 23 24  1  0
 24 25  1  0
 26 24  2  0
M  END
$$$$
