WPG.pdb
     RDKit          3D

 26 28  0  0  1  0  0  0  0  0999 V2000
   24.3156  -20.1151  -11.9101 N   0  0  0  0  0  0  0  0  0  0  0  0
   25.7386  -20.4023  -12.0792 C   0  0  1  0  0  0  0  0  0  0  0  0
   26.2106  -21.4080  -11.0559 C   0  0  0  0  0  0  0  0  0  0  0  0
   26.1532  -20.9498   -9.6659 C   0  0  0  0  0  0  0  0  0  0  0  0
   24.9972  -20.7382   -8.9558 C   0  0  0  0  0  0  0  0  0  0  0  0
   25.3388  -20.3007   -7.7410 N   0  0  0  0  0  0  0  0  0  0  0  0
   26.6796  -20.2178   -7.6273 C   0  0  0  0  0  0  0  0  0  0  0  0
   27.5136  -19.8381   -6.6027 C   0  0  0  0  0  0  0  0  0  0  0  0
   28.8747  -19.8670   -6.7861 C   0  0  0  0  0  0  0  0  0  0  0  0
   29.4392  -20.2700   -7.9803 C   0  0  0  0  0  0  0  0  0  0  0  0
   28.5929  -20.6487   -9.0019 C   0  0  0  0  0  0  0  0  0  0  0  0
   27.2010  -20.6259   -8.8367 C   0  0  0  0  0  0  0  0  0  0  0  0
   26.0331  -20.7937  -13.4643 C   0  0  0  0  0  0  0  0  0  0  0  0
   25.2877  -21.6350  -14.0243 O   0  0  0  0  0  0  0  0  0  0  0  0
   27.1193  -20.2762  -14.2321 N   0  0  0  0  0  0  0  0  0  0  0  0
   28.0093  -19.2583  -13.7178 C   0  0  0  0  0  0  0  0  0  0  0  0
   28.4947  -18.5376  -14.9990 C   0  0  0  0  0  0  0  0  0  0  0  0
   28.6598  -19.7418  -15.9344 C   0  0  0  0  0  0  0  0  0  0  0  0
   27.5120  -20.6109  -15.5541 C   0  0  1  0  0  0  0  0  0  0  0  0
   27.8691  -22.0594  -15.7035 C   0  0  0  0  0  0  0  0  0  0  0  0
   28.1052  -22.7009  -14.6556 O   0  0  0  0  0  0  0  0  0  0  0  0
   27.9503  -22.7230  -16.9433 N   0  0  0  0  0  0  0  0  0  0  0  0
   27.6122  -22.0683  -18.2132 C   0  0  0  0  0  0  0  0  0  0  0  0
   26.3808  -22.7199  -18.7423 C   0  0  0  0  0  0  0  0  0  0  0  0
   26.4094  -23.9686  -19.3466 O   0  0  0  0  0  0  0  0  0  0  0  0
   25.2519  -22.1642  -18.6649 O   0  0  0  0  0  0  0  0  0  0  0  0
  2  1  1  6
  2  3  1  0
  4  3  1  0
  5  4  2  0
  6  5  1  0
  7  6  1  0
  7 12  2  0
  8  9  2  0
  8  7  1  0
  9 10  1  0
 10 11  2  0
 12 11  1  0
 12  4  1  0
 13 15  1  0
 13  2  1  0
 14 13  2  0
 15 19  1  0
 16 15  1  0
 17 16  1  0
 17 18  1  0
 18 19  1  0
 19 20  1  1
 20 21  2  0
 20 22  1  0
 22 23  1  0
 23 24  1  0
 24 25  1  0
 26 24  2  0
M  END
$$$$
