WPG.pdb
     RDKit          3D

 26 28  0  0  1  0  0  0  0  0999 V2000
   27.0909  -19.8728  -12.3387 N   0  0  0  0  0  0  0  0  0  0  0  0
   26.3376  -21.0763  -11.9923 C   0  0  1  0  0  0  0  0  0  0  0  0
   26.2656  -21.2544  -10.4941 C   0  0  0  0  0  0  0  0  0  0  0  0
   27.5538  -21.1851   -9.8003 C   0  0  0  0  0  0  0  0  0  0  0  0
   28.7433  -21.6497  -10.3046 C   0  0  0  0  0  0  0  0  0  0  0  0
   29.6871  -21.4393   -9.3833 N   0  0  0  0  0  0  0  0  0  0  0  0
   29.1595  -20.8517   -8.2906 C   0  0  0  0  0  0  0  0  0  0  0  0
   29.6979  -20.4319   -7.0975 C   0  0  0  0  0  0  0  0  0  0  0  0
   28.8898  -19.8441   -6.1549 C   0  0  0  0  0  0  0  0  0  0  0  0
   27.5382  -19.6589   -6.3693 C   0  0  0  0  0  0  0  0  0  0  0  0
   27.0083  -20.0843   -7.5700 C   0  0  0  0  0  0  0  0  0  0  0  0
   27.8145  -20.6873   -8.5455 C   0  0  0  0  0  0  0  0  0  0  0  0
   25.0219  -21.0772  -12.6460 C   0  0  0  0  0  0  0  0  0  0  0  0
   24.3141  -20.0422  -12.5773 O   0  0  0  0  0  0  0  0  0  0  0  0
   24.4837  -22.1848  -13.3677 N   0  0  0  0  0  0  0  0  0  0  0  0
   25.1036  -23.4918  -13.3464 C   0  0  0  0  0  0  0  0  0  0  0  0
   24.6806  -24.1022  -14.7047 C   0  0  0  0  0  0  0  0  0  0  0  0
   23.2352  -23.5954  -14.7847 C   0  0  0  0  0  0  0  0  0  0  0  0
   23.3347  -22.2298  -14.1994 C   0  0  1  0  0  0  0  0  0  0  0  0
   22.0757  -21.8712  -13.4685 C   0  0  0  0  0  0  0  0  0  0  0  0
   22.0495  -22.0853  -12.2362 O   0  0  0  0  0  0  0  0  0  0  0  0
   20.9403  -21.3146  -14.0891 N   0  0  0  0  0  0  0  0  0  0  0  0
   19.7033  -21.0207  -13.3548 C   0  0  0  0  0  0  0  0  0  0  0  0
   19.7294  -19.5765  -12.9879 C   0  0  0  0  0  0  0  0  0  0  0  0
   19.3660  -18.5817  -13.8842 O   0  0  0  0  0  0  0  0  0  0  0  0
   20.0844  -19.1908  -11.8414 O   0  0  0  0  0  0  0  0  0  0  0  0
  2  1  1  1
  2  3  1  0
  4  3  1  0
  5  4  2  0
  6  5  1  0
  7  6  1  0
  7 12  2  0
  8  9  2  0
  8  7  1  0
  9 10  1  0
 10 11  2  0
 12 11  1  0
 12  4  1  0
 13 15  1  0
 13  2  1  0
 14 13  2  0
 15 19  1  0
 16 15  1  0
 17 16  1  0
 17 18  1  0
 18 19  1  0
 19 20  1  1
 20 21  2  0
 20 22  1  0
 22 23  1  0
 23 24  1  0
 24 25  1  0
 26 24  2  0
M  END
$$$$
