WPG.pdb
     RDKit          3D

 26 28  0  0  1  0  0  0  0  0999 V2000
   24.2974  -18.9441  -16.8408 N   0  0  0  0  0  0  0  0  0  0  0  0
   24.9651  -18.4490  -15.6388 C   0  0  1  0  0  0  0  0  0  0  0  0
   24.1345  -17.3855  -14.9603 C   0  0  0  0  0  0  0  0  0  0  0  0
   23.8144  -16.2248  -15.7944 C   0  0  0  0  0  0  0  0  0  0  0  0
   24.6728  -15.1858  -16.0571 C   0  0  0  0  0  0  0  0  0  0  0  0
   24.0256  -14.3061  -16.8259 N   0  0  0  0  0  0  0  0  0  0  0  0
   22.7713  -14.7308  -17.0785 C   0  0  0  0  0  0  0  0  0  0  0  0
   21.7302  -14.2051  -17.8061 C   0  0  0  0  0  0  0  0  0  0  0  0
   20.5429  -14.8908  -17.8897 C   0  0  0  0  0  0  0  0  0  0  0  0
   20.3588  -16.1057  -17.2592 C   0  0  0  0  0  0  0  0  0  0  0  0
   21.4100  -16.6239  -16.5314 C   0  0  0  0  0  0  0  0  0  0  0  0
   22.6299  -15.9405  -16.4321 C   0  0  0  0  0  0  0  0  0  0  0  0
   25.3348  -19.5590  -14.7500 C   0  0  0  0  0  0  0  0  0  0  0  0
   24.4997  -20.4754  -14.5509 O   0  0  0  0  0  0  0  0  0  0  0  0
   26.5950  -19.6743  -14.0898 N   0  0  0  0  0  0  0  0  0  0  0  0
   27.7321  -18.8571  -14.4531 C   0  0  0  0  0  0  0  0  0  0  0  0
   28.9396  -19.7420  -14.0590 C   0  0  0  0  0  0  0  0  0  0  0  0
   28.4150  -20.3375  -12.7466 C   0  0  0  0  0  0  0  0  0  0  0  0
   26.9705  -20.5507  -13.0386 C   0  0  1  0  0  0  0  0  0  0  0  0
   26.1441  -20.3605  -11.8022 C   0  0  0  0  0  0  0  0  0  0  0  0
   25.8344  -19.1875  -11.4966 O   0  0  0  0  0  0  0  0  0  0  0  0
   25.7059  -21.4182  -10.9816 N   0  0  0  0  0  0  0  0  0  0  0  0
   24.9594  -21.1952   -9.7371 C   0  0  0  0  0  0  0  0  0  0  0  0
   23.5077  -21.2101  -10.0735 C   0  0  0  0  0  0  0  0  0  0  0  0
   22.5282  -20.9641   -9.1220 O   0  0  0  0  0  0  0  0  0  0  0  0
   23.1012  -21.4480  -11.2429 O   0  0  0  0  0  0  0  0  0  0  0  0
  2  1  1  6
  2  3  1  0
  4  3  1  0
  5  4  2  0
  6  5  1  0
  7  6  1  0
  7 12  2  0
  8  9  2  0
  8  7  1  0
  9 10  1  0
 10 11  2  0
 12 11  1  0
 12  4  1  0
 13 15  1  0
 13  2  1  0
 14 13  2  0
 15 19  1  0
 16 15  1  0
 17 16  1  0
 17 18  1  0
 18 19  1  0
 19 20  1  1
 20 21  2  0
 20 22  1  0
 22 23  1  0
 23 24  1  0
 24 25  1  0
 26 24  2  0
M  END
$$$$
