WPG.pdb
     RDKit          3D

 26 28  0  0  1  0  0  0  0  0999 V2000
   24.1994  -20.1988  -11.5820 N   0  0  0  0  0  0  0  0  0  0  0  0
   25.6325  -20.3726  -11.8095 C   0  0  1  0  0  0  0  0  0  0  0  0
   26.2263  -21.3274  -10.8010 C   0  0  0  0  0  0  0  0  0  0  0  0
   26.1807  -20.8667   -9.4113 C   0  0  0  0  0  0  0  0  0  0  0  0
   25.0329  -20.7013   -8.6761 C   0  0  0  0  0  0  0  0  0  0  0  0
   25.3827  -20.2451   -7.4706 N   0  0  0  0  0  0  0  0  0  0  0  0
   26.7209  -20.1053   -7.3872 C   0  0  0  0  0  0  0  0  0  0  0  0
   27.5608  -19.6868   -6.3827 C   0  0  0  0  0  0  0  0  0  0  0  0
   28.9175  -19.6589   -6.5965 C   0  0  0  0  0  0  0  0  0  0  0  0
   29.4718  -20.0423   -7.8019 C   0  0  0  0  0  0  0  0  0  0  0  0
   28.6196  -20.4603   -8.8032 C   0  0  0  0  0  0  0  0  0  0  0  0
   27.2321  -20.4957   -8.6068 C   0  0  0  0  0  0  0  0  0  0  0  0
   25.8995  -20.7524  -13.2034 C   0  0  0  0  0  0  0  0  0  0  0  0
   25.1051  -21.5381  -13.7767 O   0  0  0  0  0  0  0  0  0  0  0  0
   27.0112  -20.2827  -13.9656 N   0  0  0  0  0  0  0  0  0  0  0  0
   27.9859  -19.3639  -13.4192 C   0  0  0  0  0  0  0  0  0  0  0  0
   28.5068  -18.6197  -14.6727 C   0  0  0  0  0  0  0  0  0  0  0  0
   28.5628  -19.7847  -15.6687 C   0  0  0  0  0  0  0  0  0  0  0  0
   27.3564  -20.5802  -15.3095 C   0  0  1  0  0  0  0  0  0  0  0  0
   27.5966  -22.0427  -15.5362 C   0  0  0  0  0  0  0  0  0  0  0  0
   28.0941  -22.6935  -14.5906 O   0  0  0  0  0  0  0  0  0  0  0  0
   27.2950  -22.7095  -16.7397 N   0  0  0  0  0  0  0  0  0  0  0  0
   27.5134  -24.1501  -16.9206 C   0  0  0  0  0  0  0  0  0  0  0  0
   27.0180  -24.5140  -18.2782 C   0  0  0  0  0  0  0  0  0  0  0  0
   27.0860  -25.8119  -18.7641 O   0  0  0  0  0  0  0  0  0  0  0  0
   26.5125  -23.6557  -19.0508 O   0  0  0  0  0  0  0  0  0  0  0  0
  2  1  1  6
  2  3  1  0
  4  3  1  0
  5  4  2  0
  6  5  1  0
  7  6  1  0
  7 12  2  0
  8  9  2  0
  8  7  1  0
  9 10  1  0
 10 11  2  0
 12 11  1  0
 12  4  1  0
 13 15  1  0
 13  2  1  0
 14 13  2  0
 15 19  1  0
 16 15  1  0
 17 16  1  0
 17 18  1  0
 18 19  1  0
 19 20  1  1
 20 21  2  0
 20 22  1  0
 22 23  1  0
 23 24  1  0
 24 25  1  0
 26 24  2  0
M  END
$$$$
