VQA.pdb
     RDKit          3D

 22 21  0  0  1  0  0  0  0  0999 V2000
    8.8840  -12.5225   19.7397 C   0  0  0  0  0  0  0  0  0  0  0  0
    7.9871  -13.4946   18.9720 C   0  0  2  0  0  0  0  0  0  0  0  0
    7.5167  -14.5278   19.9767 C   0  0  0  0  0  0  0  0  0  0  0  0
    8.8789  -14.1704   17.9528 C   0  0  2  0  0  0  0  0  0  0  0  0
    8.0690  -15.0086   17.1246 N   0  0  0  0  0  0  0  0  0  0  0  0
    9.9782  -14.9355   18.6241 C   0  0  0  0  0  0  0  0  0  0  0  0
    9.8845  -16.1886   18.6734 O   0  0  0  0  0  0  0  0  0  0  0  0
   15.9166  -15.5701   18.7530 N   0  0  0  0  0  0  0  0  0  0  0  0
   14.7742  -15.1382   18.0109 C   0  0  0  0  0  0  0  0  0  0  0  0
   14.4989  -15.8320   16.9811 O   0  0  0  0  0  0  0  0  0  0  0  0
   13.9678  -13.9598   18.4187 C   0  0  0  0  0  0  0  0  0  0  0  0
   13.4698  -14.2218   19.8187 C   0  0  0  0  0  0  0  0  0  0  0  0
   12.2014  -15.0713   19.8034 C   0  0  2  0  0  0  0  0  0  0  0  0
   11.1078  -14.3243   19.2010 N   0  0  0  0  0  0  0  0  0  0  0  0
   11.7985  -15.4072   21.1909 C   0  0  0  0  0  0  0  0  0  0  0  0
   12.5937  -15.9855   22.0008 O   0  0  0  0  0  0  0  0  0  0  0  0
    8.7747  -14.6918   23.3023 C   0  0  0  0  0  0  0  0  0  0  0  0
   10.1242  -15.3653   23.0871 C   0  0  2  0  0  0  0  0  0  0  0  0
   10.5087  -15.1104   21.7101 N   0  0  0  0  0  0  0  0  0  0  0  0
   10.0292  -16.8032   23.3863 C   0  0  0  0  0  0  0  0  0  0  0  0
   10.0890  -17.7165   22.5250 O   0  0  0  0  0  0  0  0  0  0  0  0
    9.8620  -17.1787   24.7098 O   0  0  0  0  0  0  0  0  0  0  0  0
  2  1  1  1
  2  3  1  0
  4  2  1  0
  4  6  1  0
  4  5  1  1
  6  7  2  0
  6 14  1  0
  9  8  1  0
  9 11  1  0
 10  9  2  0
 12 11  1  0
 13 12  1  1
 14 13  1  0
 15 19  1  0
 15 13  1  0
 16 15  2  0
 18 17  1  6
 18 19  1  0
 18 20  1  0
 20 22  1  0
 21 20  2  0
M  END
$$$$
