VQA.pdb
     RDKit          3D

 22 21  0  0  1  0  0  0  0  0999 V2000
    7.1989  -12.5768   19.0649 C   0  0  0  0  0  0  0  0  0  0  0  0
    8.0406  -13.6842   19.7005 C   0  0  2  0  0  0  0  0  0  0  0  0
    8.9032  -13.0160   20.7530 C   0  0  0  0  0  0  0  0  0  0  0  0
    8.9324  -14.2159   18.5992 C   0  0  2  0  0  0  0  0  0  0  0  0
    8.1075  -14.8040   17.5902 N   0  0  0  0  0  0  0  0  0  0  0  0
    9.9362  -15.1866   19.1422 C   0  0  0  0  0  0  0  0  0  0  0  0
    9.5745  -16.3780   19.3179 O   0  0  0  0  0  0  0  0  0  0  0  0
   15.6425  -13.5717   17.9626 N   0  0  0  0  0  0  0  0  0  0  0  0
   15.3746  -14.9658   18.1283 C   0  0  0  0  0  0  0  0  0  0  0  0
   16.3955  -15.7238   18.1035 O   0  0  0  0  0  0  0  0  0  0  0  0
   13.9970  -15.4875   18.3162 C   0  0  0  0  0  0  0  0  0  0  0  0
   13.6404  -15.2949   19.7696 C   0  0  0  0  0  0  0  0  0  0  0  0
   12.2146  -15.7600   20.0544 C   0  0  2  0  0  0  0  0  0  0  0  0
   11.2604  -14.8332   19.4649 N   0  0  0  0  0  0  0  0  0  0  0  0
   11.9693  -15.7791   21.5172 C   0  0  0  0  0  0  0  0  0  0  0  0
   12.3013  -14.8047   22.2675 O   0  0  0  0  0  0  0  0  0  0  0  0
    9.7943  -17.6586   23.8151 C   0  0  0  0  0  0  0  0  0  0  0  0
   11.1039  -16.9077   23.6095 C   0  0  2  0  0  0  0  0  0  0  0  0
   11.3523  -16.8757   22.1791 N   0  0  0  0  0  0  0  0  0  0  0  0
   12.1903  -17.5656   24.3533 C   0  0  0  0  0  0  0  0  0  0  0  0
   13.1139  -18.2340   23.8244 O   0  0  0  0  0  0  0  0  0  0  0  0
   12.1972  -17.4406   25.7334 O   0  0  0  0  0  0  0  0  0  0  0  0
  2  1  1  6
  2  3  1  0
  4  2  1  0
  4  6  1  0
  4  5  1  6
  6  7  2  0
  6 14  1  0
  9  8  1  0
  9 11  1  0
 10  9  2  0
 12 11  1  0
 13 12  1  1
 14 13  1  0
 15 19  1  0
 15 13  1  0
 16 15  2  0
 18 17  1  6
 18 19  1  0
 18 20  1  0
 20 22  1  0
 21 20  2  0
M  END
$$$$
