VQA.pdb
     RDKit          3D

 22 21  0  0  1  0  0  0  0  0999 V2000
    7.6782  -14.0565   20.4028 C   0  0  0  0  0  0  0  0  0  0  0  0
    8.2987  -12.9776   19.5141 C   0  0  2  0  0  0  0  0  0  0  0  0
    7.1644  -12.0631   19.0955 C   0  0  0  0  0  0  0  0  0  0  0  0
    8.8275  -13.6962   18.2915 C   0  0  2  0  0  0  0  0  0  0  0  0
    7.7471  -14.4025   17.6763 N   0  0  0  0  0  0  0  0  0  0  0  0
    9.9621  -14.6058   18.6517 C   0  0  0  0  0  0  0  0  0  0  0  0
    9.7484  -15.8450   18.6634 O   0  0  0  0  0  0  0  0  0  0  0  0
   16.2916  -14.1958   17.3730 N   0  0  0  0  0  0  0  0  0  0  0  0
   16.0833  -14.5445   18.7433 C   0  0  0  0  0  0  0  0  0  0  0  0
   17.0154  -14.2063   19.5397 O   0  0  0  0  0  0  0  0  0  0  0  0
   14.8607  -15.2530   19.1999 C   0  0  0  0  0  0  0  0  0  0  0  0
   13.6810  -14.3798   18.8498 C   0  0  0  0  0  0  0  0  0  0  0  0
   12.3671  -15.0311   19.2741 C   0  0  2  0  0  0  0  0  0  0  0  0
   11.2522  -14.1448   18.9770 N   0  0  0  0  0  0  0  0  0  0  0  0
   12.3676  -15.2684   20.7383 C   0  0  0  0  0  0  0  0  0  0  0  0
   12.4549  -14.3115   21.5747 O   0  0  0  0  0  0  0  0  0  0  0  0
   11.6741  -18.1657   22.9822 C   0  0  0  0  0  0  0  0  0  0  0  0
   12.3503  -16.8231   22.7341 C   0  0  2  0  0  0  0  0  0  0  0  0
   12.2716  -16.5681   21.3066 N   0  0  0  0  0  0  0  0  0  0  0  0
   13.7381  -16.8539   23.2231 C   0  0  0  0  0  0  0  0  0  0  0  0
   14.7538  -16.9017   22.4844 O   0  0  0  0  0  0  0  0  0  0  0  0
   13.9416  -16.8283   24.5936 O   0  0  0  0  0  0  0  0  0  0  0  0
  2  1  1  1
  2  3  1  0
  4  2  1  0
  4  6  1  0
  4  5  1  1
  6  7  2  0
  6 14  1  0
  9  8  1  0
  9 11  1  0
 10  9  2  0
 12 11  1  0
 13 12  1  1
 14 13  1  0
 15 19  1  0
 15 13  1  0
 16 15  2  0
 18 17  1  6
 18 19  1  0
 18 20  1  0
 20 22  1  0
 21 20  2  0
M  END
$$$$
