VQA.pdb
     RDKit          3D

 22 21  0  0  1  0  0  0  0  0999 V2000
    9.3972  -12.6268   19.3654 C   0  0  0  0  0  0  0  0  0  0  0  0
    8.4492  -13.6115   18.6795 C   0  0  2  0  0  0  0  0  0  0  0  0
    7.0646  -12.9993   18.7593 C   0  0  0  0  0  0  0  0  0  0  0  0
    8.4782  -14.8720   19.5169 C   0  0  2  0  0  0  0  0  0  0  0  0
    7.9117  -14.5807   20.7971 N   0  0  0  0  0  0  0  0  0  0  0  0
    9.8714  -15.4117   19.6274 C   0  0  0  0  0  0  0  0  0  0  0  0
   10.2360  -16.2866   18.8011 O   0  0  0  0  0  0  0  0  0  0  0  0
   15.2325  -15.5068   19.1502 N   0  0  0  0  0  0  0  0  0  0  0  0
   14.3524  -14.6938   18.3710 C   0  0  0  0  0  0  0  0  0  0  0  0
   14.6414  -14.6067   17.1355 O   0  0  0  0  0  0  0  0  0  0  0  0
   13.1826  -14.0009   18.9682 C   0  0  0  0  0  0  0  0  0  0  0  0
   13.1465  -14.3653   20.4320 C   0  0  0  0  0  0  0  0  0  0  0  0
   12.1528  -15.4938   20.6955 C   0  0  2  0  0  0  0  0  0  0  0  0
   10.7907  -14.9900   20.6070 N   0  0  0  0  0  0  0  0  0  0  0  0
   12.3410  -16.0262   22.0671 C   0  0  0  0  0  0  0  0  0  0  0  0
   13.4677  -16.4631   22.4702 O   0  0  0  0  0  0  0  0  0  0  0  0
   10.3053  -16.0305   25.1993 C   0  0  0  0  0  0  0  0  0  0  0  0
   11.4632  -16.5788   24.3746 C   0  0  2  0  0  0  0  0  0  0  0  0
   11.2875  -16.0861   23.0200 N   0  0  0  0  0  0  0  0  0  0  0  0
   11.4828  -18.0491   24.4390 C   0  0  0  0  0  0  0  0  0  0  0  0
   11.2397  -18.8089   23.4679 O   0  0  0  0  0  0  0  0  0  0  0  0
   11.7907  -18.6391   25.6546 O   0  0  0  0  0  0  0  0  0  0  0  0
  2  1  1  1
  2  3  1  0
  4  2  1  0
  4  6  1  0
  4  5  1  1
  6  7  2  0
  6 14  1  0
  9  8  1  0
  9 11  1  0
 10  9  2  0
 12 11  1  0
 13 12  1  1
 14 13  1  0
 15 19  1  0
 15 13  1  0
 16 15  2  0
 18 17  1  1
 18 19  1  0
 18 20  1  0
 20 22  1  0
 21 20  2  0
M  END
$$$$
