VQA.pdb
     RDKit          3D

 22 21  0  0  1  0  0  0  0  0999 V2000
    8.0261  -13.8936   20.7735 C   0  0  0  0  0  0  0  0  0  0  0  0
    8.5569  -12.9122   19.7277 C   0  0  2  0  0  0  0  0  0  0  0  0
    7.4034  -11.9924   19.3790 C   0  0  0  0  0  0  0  0  0  0  0  0
    8.9065  -13.7445   18.5128 C   0  0  2  0  0  0  0  0  0  0  0  0
    7.7554  -14.5044   18.1356 N   0  0  0  0  0  0  0  0  0  0  0  0
   10.0936  -14.6176   18.7830 C   0  0  0  0  0  0  0  0  0  0  0  0
    9.8915  -15.8337   19.0309 O   0  0  0  0  0  0  0  0  0  0  0  0
   17.2106  -13.7923   19.0865 N   0  0  0  0  0  0  0  0  0  0  0  0
   16.2330  -14.4538   18.2808 C   0  0  0  0  0  0  0  0  0  0  0  0
   16.4368  -14.4049   17.0263 O   0  0  0  0  0  0  0  0  0  0  0  0
   15.0619  -15.1488   18.8729 C   0  0  0  0  0  0  0  0  0  0  0  0
   13.8289  -14.3927   18.4429 C   0  0  0  0  0  0  0  0  0  0  0  0
   12.5701  -14.9881   19.0685 C   0  0  2  0  0  0  0  0  0  0  0  0
   11.4205  -14.1466   18.7735 N   0  0  0  0  0  0  0  0  0  0  0  0
   12.7134  -15.0427   20.5439 C   0  0  0  0  0  0  0  0  0  0  0  0
   12.8827  -13.9911   21.2425 O   0  0  0  0  0  0  0  0  0  0  0  0
   11.9544  -17.5247   23.1743 C   0  0  0  0  0  0  0  0  0  0  0  0
   12.7811  -16.3273   22.7223 C   0  0  2  0  0  0  0  0  0  0  0  0
   12.6724  -16.2609   21.2757 N   0  0  0  0  0  0  0  0  0  0  0  0
   14.1743  -16.4706   23.1746 C   0  0  0  0  0  0  0  0  0  0  0  0
   15.1425  -16.7515   22.4242 O   0  0  0  0  0  0  0  0  0  0  0  0
   14.4394  -16.2830   24.5218 O   0  0  0  0  0  0  0  0  0  0  0  0
  2  1  1  1
  2  3  1  0
  4  2  1  0
  4  6  1  0
  4  5  1  1
  6  7  2  0
  6 14  1  0
  9  8  1  0
  9 11  1  0
 10  9  2  0
 12 11  1  0
 13 12  1  6
 14 13  1  0
 15 19  1  0
 15 13  1  0
 16 15  2  0
 18 17  1  6
 18 19  1  0
 18 20  1  0
 20 22  1  0
 21 20  2  0
M  END
$$$$
