VQA.pdb
     RDKit          3D

 22 21  0  0  1  0  0  0  0  0999 V2000
    7.1836  -12.8412   21.2099 C   0  0  0  0  0  0  0  0  0  0  0  0
    8.4712  -13.2666   20.5030 C   0  0  2  0  0  0  0  0  0  0  0  0
    8.4375  -12.6261   19.1294 C   0  0  0  0  0  0  0  0  0  0  0  0
    8.3854  -14.7696   20.3468 C   0  0  2  0  0  0  0  0  0  0  0  0
    7.2539  -15.0780   19.5289 N   0  0  0  0  0  0  0  0  0  0  0  0
    8.3158  -15.4455   21.6821 C   0  0  0  0  0  0  0  0  0  0  0  0
    7.1816  -15.7290   22.1451 O   0  0  0  0  0  0  0  0  0  0  0  0
   11.9360  -19.8218   23.7953 N   0  0  0  0  0  0  0  0  0  0  0  0
   11.2837  -19.4635   25.0154 C   0  0  0  0  0  0  0  0  0  0  0  0
   11.5288  -20.2207   26.0074 O   0  0  0  0  0  0  0  0  0  0  0  0
   10.3829  -18.2869   25.1123 C   0  0  0  0  0  0  0  0  0  0  0  0
   10.3299  -17.6506   23.7452 C   0  0  0  0  0  0  0  0  0  0  0  0
    9.3848  -16.4519   23.7306 C   0  0  2  0  0  0  0  0  0  0  0  0
    9.4530  -15.7785   22.4426 N   0  0  0  0  0  0  0  0  0  0  0  0
    9.7923  -15.4713   24.7663 C   0  0  0  0  0  0  0  0  0  0  0  0
   10.9316  -14.9020   24.7423 O   0  0  0  0  0  0  0  0  0  0  0  0
    8.1084  -13.4316   27.3405 C   0  0  0  0  0  0  0  0  0  0  0  0
    9.3558  -14.1895   26.9033 C   0  0  2  0  0  0  0  0  0  0  0  0
    8.9483  -15.1010   25.8489 N   0  0  0  0  0  0  0  0  0  0  0  0
    9.9542  -14.8902   28.0509 C   0  0  0  0  0  0  0  0  0  0  0  0
    9.9536  -16.1376   28.2043 O   0  0  0  0  0  0  0  0  0  0  0  0
   10.5613  -14.1229   29.0323 O   0  0  0  0  0  0  0  0  0  0  0  0
  2  1  1  1
  2  3  1  0
  4  2  1  0
  4  6  1  0
  4  5  1  6
  6  7  2  0
  6 14  1  0
  9  8  1  0
  9 11  1  0
 10  9  2  0
 12 11  1  0
 13 12  1  6
 14 13  1  0
 15 19  1  0
 15 13  1  0
 16 15  2  0
 18 17  1  1
 18 19  1  0
 18 20  1  0
 20 22  1  0
 21 20  2  0
M  END
$$$$
