VQA.pdb
     RDKit          3D

 22 21  0  0  1  0  0  0  0  0999 V2000
    7.5417  -12.1586   18.7211 C   0  0  0  0  0  0  0  0  0  0  0  0
    7.9032  -13.3411   19.6210 C   0  0  2  0  0  0  0  0  0  0  0  0
    8.9984  -12.8539   20.5491 C   0  0  0  0  0  0  0  0  0  0  0  0
    8.4713  -14.4045   18.7060 C   0  0  2  0  0  0  0  0  0  0  0  0
    7.4305  -14.8614   17.8386 N   0  0  0  0  0  0  0  0  0  0  0  0
    9.0785  -15.5240   19.4952 C   0  0  0  0  0  0  0  0  0  0  0  0
    8.3113  -16.2628   20.1636 O   0  0  0  0  0  0  0  0  0  0  0  0
   15.5508  -18.5469   20.4686 N   0  0  0  0  0  0  0  0  0  0  0  0
   14.3590  -18.6682   19.6891 C   0  0  0  0  0  0  0  0  0  0  0  0
   14.5366  -18.9517   18.4621 O   0  0  0  0  0  0  0  0  0  0  0  0
   13.0090  -18.4753   20.2767 C   0  0  0  0  0  0  0  0  0  0  0  0
   12.4531  -17.1929   19.7083 C   0  0  0  0  0  0  0  0  0  0  0  0
   11.0412  -16.9267   20.2244 C   0  0  2  0  0  0  0  0  0  0  0  0
   10.4608  -15.7899   19.5261 N   0  0  0  0  0  0  0  0  0  0  0  0
   11.0838  -16.5867   21.6676 C   0  0  0  0  0  0  0  0  0  0  0  0
   11.6240  -15.5131   22.0899 O   0  0  0  0  0  0  0  0  0  0  0  0
    9.1795  -17.2102   24.6332 C   0  0  0  0  0  0  0  0  0  0  0  0
   10.6011  -17.1277   24.0914 C   0  0  2  0  0  0  0  0  0  0  0  0
   10.5302  -17.4268   22.6721 N   0  0  0  0  0  0  0  0  0  0  0  0
   11.4780  -18.0597   24.8184 C   0  0  0  0  0  0  0  0  0  0  0  0
   11.9452  -19.1223   24.3366 O   0  0  0  0  0  0  0  0  0  0  0  0
   11.8133  -17.7457   26.1258 O   0  0  0  0  0  0  0  0  0  0  0  0
  2  1  1  6
  2  3  1  0
  4  2  1  0
  4  6  1  0
  4  5  1  1
  6  7  2  0
  6 14  1  0
  9  8  1  0
  9 11  1  0
 10  9  2  0
 12 11  1  0
 13 12  1  6
 14 13  1  0
 15 19  1  0
 15 13  1  0
 16 15  2  0
 18 17  1  1
 18 19  1  0
 18 20  1  0
 20 22  1  0
 21 20  2  0
M  END
$$$$
