VQA.pdb
     RDKit          3D

 22 21  0  0  1  0  0  0  0  0999 V2000
    7.8600  -12.4041   18.3638 C   0  0  0  0  0  0  0  0  0  0  0  0
    7.7046  -13.4257   19.4912 C   0  0  2  0  0  0  0  0  0  0  0  0
    8.4631  -12.8700   20.6803 C   0  0  0  0  0  0  0  0  0  0  0  0
    8.3950  -14.6847   19.0125 C   0  0  2  0  0  0  0  0  0  0  0  0
    7.7064  -15.1698   17.8571 N   0  0  0  0  0  0  0  0  0  0  0  0
    8.4578  -15.7107   20.1025 C   0  0  0  0  0  0  0  0  0  0  0  0
    7.3982  -16.3128   20.4122 O   0  0  0  0  0  0  0  0  0  0  0  0
   12.8087  -19.3639   20.3543 N   0  0  0  0  0  0  0  0  0  0  0  0
   11.4883  -19.6557   19.8917 C   0  0  0  0  0  0  0  0  0  0  0  0
   11.4192  -20.4764   18.9225 O   0  0  0  0  0  0  0  0  0  0  0  0
   10.2838  -19.0401   20.5041 C   0  0  0  0  0  0  0  0  0  0  0  0
   10.7633  -18.0674   21.5532 C   0  0  0  0  0  0  0  0  0  0  0  0
    9.6967  -17.0203   21.8638 C   0  0  2  0  0  0  0  0  0  0  0  0
    9.6399  -16.0339   20.7958 N   0  0  0  0  0  0  0  0  0  0  0  0
   10.0403  -16.3010   23.1147 C   0  0  0  0  0  0  0  0  0  0  0  0
   11.1752  -15.7471   23.2819 O   0  0  0  0  0  0  0  0  0  0  0  0
    8.2929  -14.8738   26.0218 C   0  0  0  0  0  0  0  0  0  0  0  0
    9.5092  -15.6242   25.4939 C   0  0  2  0  0  0  0  0  0  0  0  0
    9.1360  -16.1798   24.2051 N   0  0  0  0  0  0  0  0  0  0  0  0
    9.9241  -16.6605   26.4531 C   0  0  0  0  0  0  0  0  0  0  0  0
    9.8007  -17.8970   26.2650 O   0  0  0  0  0  0  0  0  0  0  0  0
   10.4906  -16.2462   27.6480 O   0  0  0  0  0  0  0  0  0  0  0  0
  2  1  1  6
  2  3  1  0
  4  2  1  0
  4  6  1  0
  4  5  1  6
  6  7  2  0
  6 14  1  0
  9  8  1  0
  9 11  1  0
 10  9  2  0
 12 11  1  0
 13 12  1  6
 14 13  1  0
 15 19  1  0
 15 13  1  0
 16 15  2  0
 18 17  1  1
 18 19  1  0
 18 20  1  0
 20 22  1  0
 21 20  2  0
M  END
$$$$
