VQA.pdb
     RDKit          3D

 22 21  0  0  1  0  0  0  0  0999 V2000
    9.1393  -12.6090   20.9645 C   0  0  0  0  0  0  0  0  0  0  0  0
    8.1937  -13.3560   20.0231 C   0  0  2  0  0  0  0  0  0  0  0  0
    6.8130  -13.2661   20.6428 C   0  0  0  0  0  0  0  0  0  0  0  0
    8.6453  -14.8006   20.0364 C   0  0  2  0  0  0  0  0  0  0  0  0
    7.8685  -15.5287   19.0820 N   0  0  0  0  0  0  0  0  0  0  0  0
    8.5385  -15.3842   21.4121 C   0  0  0  0  0  0  0  0  0  0  0  0
    7.4002  -15.7213   21.8268 O   0  0  0  0  0  0  0  0  0  0  0  0
   12.4531  -18.9550   22.5778 N   0  0  0  0  0  0  0  0  0  0  0  0
   11.0998  -19.4001   22.4637 C   0  0  0  0  0  0  0  0  0  0  0  0
   10.9381  -20.5010   21.8478 O   0  0  0  0  0  0  0  0  0  0  0  0
    9.9646  -18.6263   23.0275 C   0  0  0  0  0  0  0  0  0  0  0  0
   10.5395  -17.3768   23.6476 C   0  0  0  0  0  0  0  0  0  0  0  0
    9.5527  -16.2150   23.5646 C   0  0  2  0  0  0  0  0  0  0  0  0
    9.6451  -15.5740   22.2618 N   0  0  0  0  0  0  0  0  0  0  0  0
    9.8846  -15.1927   24.5869 C   0  0  0  0  0  0  0  0  0  0  0  0
   10.9712  -14.5291   24.5464 O   0  0  0  0  0  0  0  0  0  0  0  0
    8.2015  -13.2281   27.1911 C   0  0  0  0  0  0  0  0  0  0  0  0
    9.4192  -14.0554   26.7983 C   0  0  2  0  0  0  0  0  0  0  0  0
    9.0218  -14.8842   25.6740 N   0  0  0  0  0  0  0  0  0  0  0  0
    9.8857  -14.8512   27.9452 C   0  0  0  0  0  0  0  0  0  0  0  0
    9.7915  -16.1014   28.0312 O   0  0  0  0  0  0  0  0  0  0  0  0
   10.4699  -14.1767   29.0054 O   0  0  0  0  0  0  0  0  0  0  0  0
  2  1  1  1
  2  3  1  0
  4  2  1  0
  4  6  1  0
  4  5  1  6
  6  7  2  0
  6 14  1  0
  9  8  1  0
  9 11  1  0
 10  9  2  0
 12 11  1  0
 13 12  1  6
 14 13  1  0
 15 19  1  0
 15 13  1  0
 16 15  2  0
 18 17  1  1
 18 19  1  0
 18 20  1  0
 20 22  1  0
 21 20  2  0
M  END
$$$$
