VQA.pdb
     RDKit          3D

 22 21  0  0  1  0  0  0  0  0999 V2000
    7.8051  -12.0340   18.8496 C   0  0  0  0  0  0  0  0  0  0  0  0
    7.9968  -13.3476   19.6089 C   0  0  2  0  0  0  0  0  0  0  0  0
    8.8163  -13.0150   20.8402 C   0  0  0  0  0  0  0  0  0  0  0  0
    8.8147  -14.2401   18.7004 C   0  0  2  0  0  0  0  0  0  0  0  0
    8.0357  -14.5449   17.5408 N   0  0  0  0  0  0  0  0  0  0  0  0
    9.2599  -15.4762   19.4204 C   0  0  0  0  0  0  0  0  0  0  0  0
    8.4418  -16.4246   19.5326 O   0  0  0  0  0  0  0  0  0  0  0  0
   12.0040  -19.7790   17.7253 N   0  0  0  0  0  0  0  0  0  0  0  0
   12.7610  -18.5864   17.9428 C   0  0  0  0  0  0  0  0  0  0  0  0
   13.9996  -18.6688   17.6659 O   0  0  0  0  0  0  0  0  0  0  0  0
   12.1389  -17.3398   18.4567 C   0  0  0  0  0  0  0  0  0  0  0  0
   12.2652  -17.3642   19.9601 C   0  0  0  0  0  0  0  0  0  0  0  0
   10.9931  -16.8497   20.6293 C   0  0  2  0  0  0  0  0  0  0  0  0
   10.5444  -15.6294   19.9764 N   0  0  0  0  0  0  0  0  0  0  0  0
   11.2646  -16.5192   22.0496 C   0  0  0  0  0  0  0  0  0  0  0  0
   11.9480  -15.4974   22.3836 O   0  0  0  0  0  0  0  0  0  0  0  0
    9.7436  -16.9030   25.2412 C   0  0  0  0  0  0  0  0  0  0  0  0
   11.0809  -17.0262   24.5214 C   0  0  2  0  0  0  0  0  0  0  0  0
   10.7859  -17.3119   23.1285 N   0  0  0  0  0  0  0  0  0  0  0  0
   11.9016  -18.0749   25.1480 C   0  0  0  0  0  0  0  0  0  0  0  0
   12.1183  -19.2064   24.6457 O   0  0  0  0  0  0  0  0  0  0  0  0
   12.4768  -17.7976   26.3779 O   0  0  0  0  0  0  0  0  0  0  0  0
  2  1  1  6
  2  3  1  0
  4  2  1  0
  4  6  1  0
  4  5  1  6
  6  7  2  0
  6 14  1  0
  9  8  1  0
  9 11  1  0
 10  9  2  0
 12 11  1  0
 13 12  1  6
 14 13  1  0
 15 19  1  0
 15 13  1  0
 16 15  2  0
 18 17  1  1
 18 19  1  0
 18 20  1  0
 20 22  1  0
 21 20  2  0
M  END
$$$$
