VQA.pdb
     RDKit          3D

 22 21  0  0  1  0  0  0  0  0999 V2000
    7.6941  -12.3686   18.4229 C   0  0  0  0  0  0  0  0  0  0  0  0
    7.7540  -13.4054   19.5455 C   0  0  2  0  0  0  0  0  0  0  0  0
    8.6466  -12.8201   20.6220 C   0  0  0  0  0  0  0  0  0  0  0  0
    8.4308  -14.6232   18.9542 C   0  0  2  0  0  0  0  0  0  0  0  0
    7.6178  -15.1233   17.8895 N   0  0  0  0  0  0  0  0  0  0  0  0
    8.6833  -15.6609   20.0049 C   0  0  0  0  0  0  0  0  0  0  0  0
    7.7035  -16.3238   20.4316 O   0  0  0  0  0  0  0  0  0  0  0  0
   13.5911  -19.3401   20.6230 N   0  0  0  0  0  0  0  0  0  0  0  0
   13.0554  -19.3914   21.9471 C   0  0  0  0  0  0  0  0  0  0  0  0
   13.7576  -20.0283   22.7949 O   0  0  0  0  0  0  0  0  0  0  0  0
   11.7673  -18.7438   22.3026 C   0  0  0  0  0  0  0  0  0  0  0  0
   11.5118  -17.6651   21.2789 C   0  0  0  0  0  0  0  0  0  0  0  0
   10.2014  -16.9348   21.5619 C   0  0  2  0  0  0  0  0  0  0  0  0
    9.9585  -15.9307   20.5374 N   0  0  0  0  0  0  0  0  0  0  0  0
   10.2844  -16.2293   22.8641 C   0  0  0  0  0  0  0  0  0  0  0  0
   11.2502  -15.4478   23.1453 O   0  0  0  0  0  0  0  0  0  0  0  0
    8.0341  -15.1761   25.5170 C   0  0  0  0  0  0  0  0  0  0  0  0
    9.4066  -15.7500   25.1880 C   0  0  2  0  0  0  0  0  0  0  0  0
    9.3012  -16.3739   23.8809 N   0  0  0  0  0  0  0  0  0  0  0  0
    9.8247  -16.7000   26.2314 C   0  0  0  0  0  0  0  0  0  0  0  0
    9.9616  -17.9370   26.0564 O   0  0  0  0  0  0  0  0  0  0  0  0
   10.0863  -16.1976   27.4962 O   0  0  0  0  0  0  0  0  0  0  0  0
  2  1  1  6
  2  3  1  0
  4  2  1  0
  4  6  1  0
  4  5  1  6
  6  7  2  0
  6 14  1  0
  9  8  1  0
  9 11  1  0
 10  9  2  0
 12 11  1  0
 13 12  1  6
 14 13  1  0
 15 19  1  0
 15 13  1  0
 16 15  2  0
 18 17  1  1
 18 19  1  0
 18 20  1  0
 20 22  1  0
 21 20  2  0
M  END
$$$$
