AVR.pdb
     RDKit          3D

 24 23  0  0  1  0  0  0  0  0999 V2000
    4.3344  -18.2678   21.4101 C   0  0  0  0  0  0  0  0  0  0  0  0
    4.8769  -17.5738   20.1779 C   0  0  2  0  0  0  0  0  0  0  0  0
    5.0841  -18.5941   19.1667 N   0  0  0  0  0  0  0  0  0  0  0  0
    6.0899  -16.7889   20.4412 C   0  0  0  0  0  0  0  0  0  0  0  0
    7.1879  -17.3942   20.5406 O   0  0  0  0  0  0  0  0  0  0  0  0
    7.1903  -12.9422   19.2266 C   0  0  0  0  0  0  0  0  0  0  0  0
    7.1532  -13.2262   20.6970 C   0  0  2  0  0  0  0  0  0  0  0  0
    8.2321  -12.3849   21.3458 C   0  0  0  0  0  0  0  0  0  0  0  0
    7.2899  -14.6860   21.0666 C   0  0  2  0  0  0  0  0  0  0  0  0
    6.0780  -15.3976   20.5863 N   0  0  0  0  0  0  0  0  0  0  0  0
    7.3910  -14.9099   22.5312 C   0  0  0  0  0  0  0  0  0  0  0  0
    6.3456  -14.8267   23.2720 O   0  0  0  0  0  0  0  0  0  0  0  0
    7.2425  -21.4937   27.7993 N   0  0  0  0  0  0  0  0  0  0  0  0
    8.2031  -20.8744   26.9480 C   0  0  0  0  0  0  0  0  0  0  0  0
    9.4215  -20.7449   27.3328 N   0  0  0  0  0  0  0  0  0  0  0  0
    7.8306  -20.3844   25.6478 N   0  0  0  0  0  0  0  0  0  0  0  0
    6.9077  -19.2737   25.5058 C   0  0  0  0  0  0  0  0  0  0  0  0
    7.7385  -17.9940   25.7007 C   0  0  0  0  0  0  0  0  0  0  0  0
    7.7932  -17.2095   24.4213 C   0  0  0  0  0  0  0  0  0  0  0  0
    8.5380  -15.9295   24.5367 C   0  0  2  0  0  0  0  0  0  0  0  0
    8.5702  -15.2235   23.2406 N   0  0  0  0  0  0  0  0  0  0  0  0
    9.9327  -16.1677   24.9271 C   0  0  0  0  0  0  0  0  0  0  0  0
   10.9627  -15.9068   24.0470 O   0  0  0  0  0  0  0  0  0  0  0  0
   10.2201  -16.6158   26.0668 O   0  0  0  0  0  0  0  0  0  0  0  0
  2  1  1  1
  2  3  1  0
  4  2  1  0
  5  4  2  0
  7  6  1  6
  7  9  1  0
  7  8  1  0
  9 10  1  1
 10  4  1  0
 11 21  1  0
 11  9  1  0
 12 11  2  0
 14 13  1  0
 14 15  2  0
 16 14  1  0
 17 16  1  0
 18 17  1  0
 20 19  1  6
 19 18  1  0
 20 22  1  0
 20 21  1  0
 22 23  1  0
 24 22  2  0
M  END
$$$$
