AVR.pdb
     RDKit          3D

 24 23  0  0  1  0  0  0  0  0999 V2000
    7.8153  -13.2916   15.8434 C   0  0  0  0  0  0  0  0  0  0  0  0
    8.4582  -14.4785   16.5307 C   0  0  2  0  0  0  0  0  0  0  0  0
    7.5331  -15.5913   16.4204 N   0  0  0  0  0  0  0  0  0  0  0  0
    8.8443  -14.2042   17.9209 C   0  0  0  0  0  0  0  0  0  0  0  0
    9.8633  -13.4983   18.1338 O   0  0  0  0  0  0  0  0  0  0  0  0
    7.6473  -14.2339   22.7614 C   0  0  0  0  0  0  0  0  0  0  0  0
    7.3838  -14.5602   21.3233 C   0  0  2  0  0  0  0  0  0  0  0  0
    6.8621  -15.9807   21.2718 C   0  0  0  0  0  0  0  0  0  0  0  0
    8.5664  -14.3693   20.4006 C   0  0  2  0  0  0  0  0  0  0  0  0
    8.1288  -14.6936   19.0188 N   0  0  0  0  0  0  0  0  0  0  0  0
    9.7114  -15.2562   20.7287 C   0  0  0  0  0  0  0  0  0  0  0  0
    9.7075  -16.4837   20.3520 O   0  0  0  0  0  0  0  0  0  0  0  0
   16.4157  -15.6334   18.7785 N   0  0  0  0  0  0  0  0  0  0  0  0
   15.8108  -14.7888   17.8030 C   0  0  0  0  0  0  0  0  0  0  0  0
   16.4047  -14.5588   16.6877 N   0  0  0  0  0  0  0  0  0  0  0  0
   14.5303  -14.1800   18.0453 N   0  0  0  0  0  0  0  0  0  0  0  0
   14.0677  -13.9294   19.3976 C   0  0  0  0  0  0  0  0  0  0  0  0
   13.8044  -15.3081   20.0267 C   0  0  0  0  0  0  0  0  0  0  0  0
   13.2914  -15.1504   21.4293 C   0  0  0  0  0  0  0  0  0  0  0  0
   11.9870  -15.8199   21.6673 C   0  0  2  0  0  0  0  0  0  0  0  0
   10.8686  -14.8823   21.4449 N   0  0  0  0  0  0  0  0  0  0  0  0
   11.8825  -16.2865   23.0550 C   0  0  0  0  0  0  0  0  0  0  0  0
   10.9456  -15.7435   23.9099 O   0  0  0  0  0  0  0  0  0  0  0  0
   12.6430  -17.1862   23.4961 O   0  0  0  0  0  0  0  0  0  0  0  0
  2  1  1  1
  2  3  1  0
  4  2  1  0
  5  4  2  0
  7  6  1  1
  7  9  1  0
  7  8  1  0
  9 10  1  6
 10  4  1  0
 11 21  1  0
 11  9  1  0
 12 11  2  0
 14 13  1  0
 14 15  2  0
 16 14  1  0
 17 16  1  0
 18 17  1  0
 20 19  1  1
 19 18  1  0
 20 22  1  0
 20 21  1  0
 22 23  1  0
 24 22  2  0
M  END
$$$$
