AVR.pdb
     RDKit          3D

 24 23  0  0  1  0  0  0  0  0999 V2000
    6.2435  -16.4077   21.7556 C   0  0  0  0  0  0  0  0  0  0  0  0
    6.5821  -14.9314   21.7733 C   0  0  2  0  0  0  0  0  0  0  0  0
    7.1922  -14.6155   20.4949 N   0  0  0  0  0  0  0  0  0  0  0  0
    7.4270  -14.5440   22.9104 C   0  0  0  0  0  0  0  0  0  0  0  0
    8.6699  -14.4619   22.7355 O   0  0  0  0  0  0  0  0  0  0  0  0
    6.2276  -11.7792   25.6296 C   0  0  0  0  0  0  0  0  0  0  0  0
    6.9455  -12.9534   26.2213 C   0  0  2  0  0  0  0  0  0  0  0  0
    7.7627  -12.4404   27.3882 C   0  0  0  0  0  0  0  0  0  0  0  0
    7.7981  -13.7347   25.2472 C   0  0  2  0  0  0  0  0  0  0  0  0
    6.9106  -14.2622   24.1795 N   0  0  0  0  0  0  0  0  0  0  0  0
    8.4854  -14.8931   25.8726 C   0  0  0  0  0  0  0  0  0  0  0  0
    7.8021  -15.8667   26.3563 O   0  0  0  0  0  0  0  0  0  0  0  0
   15.0477  -15.0184   23.4006 N   0  0  0  0  0  0  0  0  0  0  0  0
   14.0756  -15.4699   22.4614 C   0  0  0  0  0  0  0  0  0  0  0  0
   13.9159  -14.8520   21.3468 N   0  0  0  0  0  0  0  0  0  0  0  0
   13.2578  -16.6200   22.7400 N   0  0  0  0  0  0  0  0  0  0  0  0
   13.0429  -17.0697   24.1028 C   0  0  0  0  0  0  0  0  0  0  0  0
   12.2951  -15.9329   24.8201 C   0  0  0  0  0  0  0  0  0  0  0  0
   11.9378  -16.3468   26.2187 C   0  0  0  0  0  0  0  0  0  0  0  0
   10.4794  -16.3107   26.4983 C   0  0  2  0  0  0  0  0  0  0  0  0
    9.8815  -15.0561   26.0006 N   0  0  0  0  0  0  0  0  0  0  0  0
   10.2208  -16.3628   27.9422 C   0  0  0  0  0  0  0  0  0  0  0  0
   10.0277  -15.2026   28.6634 O   0  0  0  0  0  0  0  0  0  0  0  0
   10.1721  -17.4611   28.5535 O   0  0  0  0  0  0  0  0  0  0  0  0
  2  1  1  6
  2  3  1  0
  4  2  1  0
  5  4  2  0
  7  6  1  6
  7  9  1  0
  7  8  1  0
  9 10  1  6
 10  4  1  0
 11 21  1  0
 11  9  1  0
 12 11  2  0
 14 13  1  0
 14 15  2  0
 16 14  1  0
 17 16  1  0
 18 17  1  0
 20 19  1  1
 19 18  1  0
 20 22  1  0
 20 21  1  0
 22 23  1  0
 24 22  2  0
M  END
$$$$
