AVR.pdb
     RDKit          3D

 24 23  0  0  1  0  0  0  0  0999 V2000
    7.8557  -18.8185   17.8803 C   0  0  0  0  0  0  0  0  0  0  0  0
    8.0983  -17.4361   17.3108 C   0  0  2  0  0  0  0  0  0  0  0  0
    8.9454  -17.5953   16.1431 N   0  0  0  0  0  0  0  0  0  0  0  0
    8.6608  -16.4964   18.2893 C   0  0  0  0  0  0  0  0  0  0  0  0
    9.9116  -16.4078   18.3877 O   0  0  0  0  0  0  0  0  0  0  0  0
    7.1018  -12.8317   19.4585 C   0  0  0  0  0  0  0  0  0  0  0  0
    7.4939  -13.7765   20.5529 C   0  0  2  0  0  0  0  0  0  0  0  0
    8.0012  -12.9409   21.7092 C   0  0  0  0  0  0  0  0  0  0  0  0
    8.4963  -14.8349   20.1510 C   0  0  2  0  0  0  0  0  0  0  0  0
    7.8669  -15.6954   19.1169 N   0  0  0  0  0  0  0  0  0  0  0  0
    8.9022  -15.7120   21.2785 C   0  0  0  0  0  0  0  0  0  0  0  0
    8.0912  -16.5971   21.7339 O   0  0  0  0  0  0  0  0  0  0  0  0
   14.1748  -21.6614   21.7463 N   0  0  0  0  0  0  0  0  0  0  0  0
   14.3374  -21.4167   23.1408 C   0  0  0  0  0  0  0  0  0  0  0  0
   14.8180  -22.3287   23.9067 N   0  0  0  0  0  0  0  0  0  0  0  0
   13.9692  -20.1508   23.7163 N   0  0  0  0  0  0  0  0  0  0  0  0
   13.6639  -19.0093   22.8741 C   0  0  0  0  0  0  0  0  0  0  0  0
   12.3086  -18.4658   23.3573 C   0  0  0  0  0  0  0  0  0  0  0  0
   11.8647  -17.3261   22.4860 C   0  0  0  0  0  0  0  0  0  0  0  0
   10.5564  -16.7452   22.8826 C   0  0  2  0  0  0  0  0  0  0  0  0
   10.1478  -15.6836   21.9416 N   0  0  0  0  0  0  0  0  0  0  0  0
   10.6381  -16.1281   24.2119 C   0  0  0  0  0  0  0  0  0  0  0  0
   10.7130  -16.9103   25.3459 O   0  0  0  0  0  0  0  0  0  0  0  0
   10.6389  -14.8775   24.3479 O   0  0  0  0  0  0  0  0  0  0  0  0
  2  1  1  1
  2  3  1  0
  4  2  1  0
  5  4  2  0
  7  6  1  6
  7  9  1  0
  7  8  1  0
  9 10  1  6
 10  4  1  0
 11 21  1  0
 11  9  1  0
 12 11  2  0
 14 13  1  0
 14 15  2  0
 16 14  1  0
 17 16  1  0
 18 17  1  0
 20 19  1  6
 19 18  1  0
 20 22  1  0
 20 21  1  0
 22 23  1  0
 24 22  2  0
M  END
$$$$
