AVR.pdb
     RDKit          3D

 24 23  0  0  1  0  0  0  0  0999 V2000
    7.7504  -18.9354   17.9671 C   0  0  0  0  0  0  0  0  0  0  0  0
    7.9649  -17.5546   17.3826 C   0  0  2  0  0  0  0  0  0  0  0  0
    8.7859  -17.7132   16.1964 N   0  0  0  0  0  0  0  0  0  0  0  0
    8.5404  -16.6022   18.3412 C   0  0  0  0  0  0  0  0  0  0  0  0
    9.7908  -16.5605   18.4702 O   0  0  0  0  0  0  0  0  0  0  0  0
    6.9830  -12.8787   19.4363 C   0  0  0  0  0  0  0  0  0  0  0  0
    7.3952  -13.8071   20.5373 C   0  0  2  0  0  0  0  0  0  0  0  0
    7.9147  -12.9539   21.6752 C   0  0  0  0  0  0  0  0  0  0  0  0
    8.3969  -14.8660   20.1351 C   0  0  2  0  0  0  0  0  0  0  0  0
    7.7592  -15.7394   19.1171 N   0  0  0  0  0  0  0  0  0  0  0  0
    8.8186  -15.7299   21.2670 C   0  0  0  0  0  0  0  0  0  0  0  0
    7.9831  -16.5410   21.8080 O   0  0  0  0  0  0  0  0  0  0  0  0
   11.9433  -23.0368   22.6084 N   0  0  0  0  0  0  0  0  0  0  0  0
   11.9794  -22.1839   21.4672 C   0  0  0  0  0  0  0  0  0  0  0  0
   11.8632  -22.6763   20.2868 N   0  0  0  0  0  0  0  0  0  0  0  0
   12.1457  -20.7625   21.6125 N   0  0  0  0  0  0  0  0  0  0  0  0
   12.0625  -20.1314   22.9165 C   0  0  0  0  0  0  0  0  0  0  0  0
   10.8609  -19.1730   22.8569 C   0  0  0  0  0  0  0  0  0  0  0  0
   11.3061  -17.8074   22.4184 C   0  0  0  0  0  0  0  0  0  0  0  0
   10.4493  -16.7069   22.9294 C   0  0  2  0  0  0  0  0  0  0  0  0
   10.1052  -15.7648   21.8462 N   0  0  0  0  0  0  0  0  0  0  0  0
   11.1498  -15.9328   23.9612 C   0  0  0  0  0  0  0  0  0  0  0  0
   11.1947  -16.3803   25.2655 O   0  0  0  0  0  0  0  0  0  0  0  0
   11.7205  -14.8471   23.6823 O   0  0  0  0  0  0  0  0  0  0  0  0
  2  1  1  1
  2  3  1  0
  4  2  1  0
  5  4  2  0
  7  6  1  6
  7  9  1  0
  7  8  1  0
  9 10  1  6
 10  4  1  0
 11 21  1  0
 11  9  1  0
 12 11  2  0
 14 13  1  0
 14 15  2  0
 16 14  1  0
 17 16  1  0
 18 17  1  0
 20 19  1  6
 19 18  1  0
 20 22  1  0
 20 21  1  0
 22 23  1  0
 24 22  2  0
M  END
$$$$
