AVR.pdb
     RDKit          3D

 24 23  0  0  1  0  0  0  0  0999 V2000
    6.7821  -14.9090   20.7797 C   0  0  0  0  0  0  0  0  0  0  0  0
    7.2164  -13.5214   21.2041 C   0  0  2  0  0  0  0  0  0  0  0  0
    8.1466  -13.0370   20.2009 N   0  0  0  0  0  0  0  0  0  0  0  0
    7.7797  -13.4794   22.5597 C   0  0  0  0  0  0  0  0  0  0  0  0
    9.0290  -13.5367   22.6937 O   0  0  0  0  0  0  0  0  0  0  0  0
    6.5449  -11.2371   25.7633 C   0  0  0  0  0  0  0  0  0  0  0  0
    6.7029  -12.7044   26.0211 C   0  0  2  0  0  0  0  0  0  0  0  0
    7.1726  -12.8624   27.4518 C   0  0  0  0  0  0  0  0  0  0  0  0
    7.6149  -13.4256   25.0544 C   0  0  2  0  0  0  0  0  0  0  0  0
    6.9882  -13.3786   23.7087 N   0  0  0  0  0  0  0  0  0  0  0  0
    7.8222  -14.8541   25.4034 C   0  0  0  0  0  0  0  0  0  0  0  0
    6.8470  -15.6860   25.3301 O   0  0  0  0  0  0  0  0  0  0  0  0
    9.1711  -18.6636   19.9249 N   0  0  0  0  0  0  0  0  0  0  0  0
    8.6045  -19.6541   20.7787 C   0  0  0  0  0  0  0  0  0  0  0  0
    7.9202  -20.6214   20.2834 N   0  0  0  0  0  0  0  0  0  0  0  0
    8.7862  -19.5917   22.2043 N   0  0  0  0  0  0  0  0  0  0  0  0
    9.4472  -18.4578   22.8229 C   0  0  0  0  0  0  0  0  0  0  0  0
    9.3050  -18.6508   24.3422 C   0  0  0  0  0  0  0  0  0  0  0  0
   10.0035  -17.5416   25.0750 C   0  0  0  0  0  0  0  0  0  0  0  0
    9.1590  -16.8794   26.1020 C   0  0  2  0  0  0  0  0  0  0  0  0
    9.0370  -15.4340   25.8275 N   0  0  0  0  0  0  0  0  0  0  0  0
    9.7563  -17.0109   27.4364 C   0  0  0  0  0  0  0  0  0  0  0  0
    9.7728  -18.2304   28.0814 O   0  0  0  0  0  0  0  0  0  0  0  0
   10.2622  -16.0189   28.0215 O   0  0  0  0  0  0  0  0  0  0  0  0
  2  1  1  6
  2  3  1  0
  4  2  1  0
  5  4  2  0
  7  6  1  6
  7  9  1  0
  7  8  1  0
  9 10  1  6
 10  4  1  0
 11 21  1  0
 11  9  1  0
 12 11  2  0
 14 13  1  0
 14 15  2  0
 16 14  1  0
 17 16  1  0
 18 17  1  0
 20 19  1  6
 19 18  1  0
 20 22  1  0
 20 21  1  0
 22 23  1  0
 24 22  2  0
M  END
$$$$
