AVR.pdb
     RDKit          3D

 24 23  0  0  1  0  0  0  0  0999 V2000
    6.2152  -16.2397   21.6954 C   0  0  0  0  0  0  0  0  0  0  0  0
    6.7163  -14.8104   21.6754 C   0  0  2  0  0  0  0  0  0  0  0  0
    7.4625  -14.6342   20.4431 N   0  0  0  0  0  0  0  0  0  0  0  0
    7.5022  -14.4549   22.8641 C   0  0  0  0  0  0  0  0  0  0  0  0
    8.7474  -14.6301   22.8361 O   0  0  0  0  0  0  0  0  0  0  0  0
    6.7029  -11.3580   25.4948 C   0  0  0  0  0  0  0  0  0  0  0  0
    7.0113  -12.6893   26.1087 C   0  0  2  0  0  0  0  0  0  0  0  0
    7.7552  -12.4279   27.4013 C   0  0  0  0  0  0  0  0  0  0  0  0
    7.7714  -13.6419   25.2136 C   0  0  2  0  0  0  0  0  0  0  0  0
    6.9270  -13.9300   24.0261 N   0  0  0  0  0  0  0  0  0  0  0  0
    8.0803  -14.9378   25.8697 C   0  0  0  0  0  0  0  0  0  0  0  0
    7.1396  -15.7728   26.1275 O   0  0  0  0  0  0  0  0  0  0  0  0
   13.1845  -19.6712   22.2746 N   0  0  0  0  0  0  0  0  0  0  0  0
   12.3190  -18.5862   21.9508 C   0  0  0  0  0  0  0  0  0  0  0  0
   12.3418  -18.0680   20.7759 N   0  0  0  0  0  0  0  0  0  0  0  0
   11.4074  -18.0521   22.9269 N   0  0  0  0  0  0  0  0  0  0  0  0
   10.9516  -18.8603   24.0425 C   0  0  0  0  0  0  0  0  0  0  0  0
    9.9232  -18.0062   24.8033 C   0  0  0  0  0  0  0  0  0  0  0  0
   10.5033  -17.5297   26.1040 C   0  0  0  0  0  0  0  0  0  0  0  0
    9.5709  -16.6946   26.9037 C   0  0  2  0  0  0  0  0  0  0  0  0
    9.3614  -15.3819   26.2616 N   0  0  0  0  0  0  0  0  0  0  0  0
   10.1168  -16.4328   28.2408 C   0  0  0  0  0  0  0  0  0  0  0  0
   10.2962  -17.4634   29.1403 O   0  0  0  0  0  0  0  0  0  0  0  0
   10.4299  -15.2677   28.5972 O   0  0  0  0  0  0  0  0  0  0  0  0
  2  1  1  1
  2  3  1  0
  4  2  1  0
  5  4  2  0
  7  6  1  6
  7  9  1  0
  7  8  1  0
  9 10  1  6
 10  4  1  0
 11 21  1  0
 11  9  1  0
 12 11  2  0
 14 13  1  0
 14 15  2  0
 16 14  1  0
 17 16  1  0
 18 17  1  0
 20 19  1  6
 19 18  1  0
 20 22  1  0
 20 21  1  0
 22 23  1  0
 24 22  2  0
M  END
$$$$
