AVR.pdb
     RDKit          3D

 24 23  0  0  1  0  0  0  0  0999 V2000
    6.8100  -14.1856   19.7705 C   0  0  0  0  0  0  0  0  0  0  0  0
    7.3125  -12.9486   20.4858 C   0  0  2  0  0  0  0  0  0  0  0  0
    8.3552  -12.3686   19.6595 N   0  0  0  0  0  0  0  0  0  0  0  0
    7.7654  -13.2155   21.8571 C   0  0  0  0  0  0  0  0  0  0  0  0
    8.9816  -13.4720   22.0494 O   0  0  0  0  0  0  0  0  0  0  0  0
    6.5322  -11.1994   25.2185 C   0  0  0  0  0  0  0  0  0  0  0  0
    6.5151  -12.6952   25.3000 C   0  0  2  0  0  0  0  0  0  0  0  0
    6.8245  -13.0719   26.7335 C   0  0  0  0  0  0  0  0  0  0  0  0
    7.4395  -13.3958   24.3299 C   0  0  2  0  0  0  0  0  0  0  0  0
    6.9038  -13.1971   22.9589 N   0  0  0  0  0  0  0  0  0  0  0  0
    7.5339  -14.8587   24.5672 C   0  0  0  0  0  0  0  0  0  0  0  0
    6.6440  -15.6505   24.0882 O   0  0  0  0  0  0  0  0  0  0  0  0
   11.0427  -18.0255   29.7201 N   0  0  0  0  0  0  0  0  0  0  0  0
   11.4281  -16.6947   29.3863 C   0  0  0  0  0  0  0  0  0  0  0  0
   11.3243  -15.7534   30.2538 N   0  0  0  0  0  0  0  0  0  0  0  0
   11.9385  -16.3797   28.0788 N   0  0  0  0  0  0  0  0  0  0  0  0
   12.0247  -17.3963   27.0471 C   0  0  0  0  0  0  0  0  0  0  0  0
   10.9672  -17.0314   25.9914 C   0  0  0  0  0  0  0  0  0  0  0  0
    9.5922  -17.3621   26.4967 C   0  0  0  0  0  0  0  0  0  0  0  0
    8.5029  -16.9649   25.5682 C   0  0  2  0  0  0  0  0  0  0  0  0
    8.5481  -15.5144   25.2977 N   0  0  0  0  0  0  0  0  0  0  0  0
    7.1866  -17.2488   26.1522 C   0  0  0  0  0  0  0  0  0  0  0  0
    6.5555  -18.4516   25.9103 O   0  0  0  0  0  0  0  0  0  0  0  0
    6.6044  -16.4050   26.8812 O   0  0  0  0  0  0  0  0  0  0  0  0
  2  1  1  6
  2  3  1  0
  4  2  1  0
  5  4  2  0
  7  6  1  1
  7  9  1  0
  7  8  1  0
  9 10  1  6
 10  4  1  0
 11 21  1  0
 11  9  1  0
 12 11  2  0
 14 13  1  0
 14 15  2  0
 16 14  1  0
 17 16  1  0
 18 17  1  0
 20 19  1  1
 19 18  1  0
 20 22  1  0
 20 21  1  0
 22 23  1  0
 24 22  2  0
M  END
$$$$
