AVR.pdb
     RDKit          3D

 24 23  0  0  1  0  0  0  0  0999 V2000
    6.1303  -16.0989   21.8221 C   0  0  0  0  0  0  0  0  0  0  0  0
    6.4356  -14.6155   21.7966 C   0  0  2  0  0  0  0  0  0  0  0  0
    6.9201  -14.2997   20.4654 N   0  0  0  0  0  0  0  0  0  0  0  0
    7.3710  -14.1978   22.8489 C   0  0  0  0  0  0  0  0  0  0  0  0
    8.5696  -13.9801   22.5362 O   0  0  0  0  0  0  0  0  0  0  0  0
    6.4743  -11.5158   25.7605 C   0  0  0  0  0  0  0  0  0  0  0  0
    7.1689  -12.7543   26.2380 C   0  0  2  0  0  0  0  0  0  0  0  0
    8.0499  -12.3559   27.4032 C   0  0  0  0  0  0  0  0  0  0  0  0
    7.9523  -13.4936   25.1769 C   0  0  2  0  0  0  0  0  0  0  0  0
    6.9876  -14.0314   24.1839 N   0  0  0  0  0  0  0  0  0  0  0  0
    8.7271  -14.6399   25.7165 C   0  0  0  0  0  0  0  0  0  0  0  0
    9.6969  -14.4380   26.5333 O   0  0  0  0  0  0  0  0  0  0  0  0
   14.9175  -20.0251   22.7662 N   0  0  0  0  0  0  0  0  0  0  0  0
   14.6476  -19.6376   24.1109 C   0  0  0  0  0  0  0  0  0  0  0  0
   15.2641  -20.2046   25.0845 N   0  0  0  0  0  0  0  0  0  0  0  0
   13.6851  -18.6096   24.4042 N   0  0  0  0  0  0  0  0  0  0  0  0
   12.2623  -18.8594   24.2680 C   0  0  0  0  0  0  0  0  0  0  0  0
   11.5910  -18.2131   25.4918 C   0  0  0  0  0  0  0  0  0  0  0  0
   10.6228  -17.1520   25.0539 C   0  0  0  0  0  0  0  0  0  0  0  0
    9.4075  -17.0646   25.9036 C   0  0  2  0  0  0  0  0  0  0  0  0
    8.5049  -16.0016   25.4192 N   0  0  0  0  0  0  0  0  0  0  0  0
    9.7589  -16.7272   27.2882 C   0  0  0  0  0  0  0  0  0  0  0  0
    9.5905  -17.6496   28.3003 O   0  0  0  0  0  0  0  0  0  0  0  0
   10.2172  -15.5935   27.5835 O   0  0  0  0  0  0  0  0  0  0  0  0
  2  1  1  6
  2  3  1  0
  4  2  1  0
  5  4  2  0
  7  6  1  6
  7  9  1  0
  7  8  1  0
  9 10  1  6
 10  4  1  0
 11 21  1  0
 11  9  1  0
 12 11  2  0
 14 13  1  0
 14 15  2  0
 16 14  1  0
 17 16  1  0
 18 17  1  0
 20 19  1  6
 19 18  1  0
 20 22  1  0
 20 21  1  0
 22 23  1  0
 24 22  2  0
M  END
$$$$
