AVR.pdb
     RDKit          3D

 24 23  0  0  1  0  0  0  0  0999 V2000
    7.8244  -11.8027   26.5348 C   0  0  0  0  0  0  0  0  0  0  0  0
    6.7381  -12.2531   25.5800 C   0  0  2  0  0  0  0  0  0  0  0  0
    5.5174  -12.3912   26.3528 N   0  0  0  0  0  0  0  0  0  0  0  0
    7.0815  -13.4790   24.8478 C   0  0  0  0  0  0  0  0  0  0  0  0
    6.8345  -14.5892   25.3847 O   0  0  0  0  0  0  0  0  0  0  0  0
    6.6510  -13.8396   20.8900 C   0  0  0  0  0  0  0  0  0  0  0  0
    7.9156  -14.4717   21.3855 C   0  0  2  0  0  0  0  0  0  0  0  0
    8.1299  -15.7385   20.5845 C   0  0  0  0  0  0  0  0  0  0  0  0
    7.9512  -14.7423   22.8727 C   0  0  2  0  0  0  0  0  0  0  0  0
    7.6712  -13.4663   23.5793 N   0  0  0  0  0  0  0  0  0  0  0  0
    9.2699  -15.2365   23.3442 C   0  0  0  0  0  0  0  0  0  0  0  0
   10.2927  -14.4605   23.3343 O   0  0  0  0  0  0  0  0  0  0  0  0
    9.8384  -19.4222   30.2739 N   0  0  0  0  0  0  0  0  0  0  0  0
    9.5655  -19.9082   28.9622 C   0  0  0  0  0  0  0  0  0  0  0  0
    8.5949  -20.7252   28.7632 N   0  0  0  0  0  0  0  0  0  0  0  0
   10.3664  -19.4962   27.8405 N   0  0  0  0  0  0  0  0  0  0  0  0
   10.9004  -18.1494   27.7602 C   0  0  0  0  0  0  0  0  0  0  0  0
   10.2333  -17.4921   26.5401 C   0  0  0  0  0  0  0  0  0  0  0  0
   10.8726  -17.9803   25.2719 C   0  0  0  0  0  0  0  0  0  0  0  0
   10.9073  -16.9629   24.1902 C   0  0  2  0  0  0  0  0  0  0  0  0
    9.5413  -16.5331   23.8313 N   0  0  0  0  0  0  0  0  0  0  0  0
   11.5149  -17.5128   22.9724 C   0  0  0  0  0  0  0  0  0  0  0  0
   12.8681  -17.3775   22.7399 O   0  0  0  0  0  0  0  0  0  0  0  0
   10.8189  -18.1150   22.1149 O   0  0  0  0  0  0  0  0  0  0  0  0
  2  1  1  1
  2  3  1  0
  4  2  1  0
  5  4  2  0
  7  6  1  6
  7  9  1  0
  7  8  1  0
  9 10  1  1
 10  4  1  0
 11 21  1  0
 11  9  1  0
 12 11  2  0
 14 13  1  0
 14 15  2  0
 16 14  1  0
 17 16  1  0
 18 17  1  0
 20 19  1  1
 19 18  1  0
 20 22  1  0
 20 21  1  0
 22 23  1  0
 24 22  2  0
M  END
$$$$
