AVR.pdb
     RDKit          3D

 24 23  0  0  1  0  0  0  0  0999 V2000
    8.2894  -19.0274   26.6227 C   0  0  0  0  0  0  0  0  0  0  0  0
    7.2708  -18.1838   27.3609 C   0  0  2  0  0  0  0  0  0  0  0  0
    6.1439  -19.0444   27.6705 N   0  0  0  0  0  0  0  0  0  0  0  0
    6.8714  -16.9788   26.6225 C   0  0  0  0  0  0  0  0  0  0  0  0
    5.8473  -17.0316   25.8942 O   0  0  0  0  0  0  0  0  0  0  0  0
    6.6044  -13.0133   27.6538 C   0  0  0  0  0  0  0  0  0  0  0  0
    7.5385  -13.3547   26.5334 C   0  0  2  0  0  0  0  0  0  0  0  0
    7.5603  -12.1717   25.5887 C   0  0  0  0  0  0  0  0  0  0  0  0
    7.2163  -14.6405   25.8059 C   0  0  2  0  0  0  0  0  0  0  0  0
    7.5799  -15.7746   26.6932 N   0  0  0  0  0  0  0  0  0  0  0  0
    7.9755  -14.8001   24.5396 C   0  0  0  0  0  0  0  0  0  0  0  0
    9.0183  -15.5481   24.5004 O   0  0  0  0  0  0  0  0  0  0  0  0
    8.2705  -12.6140   16.4489 N   0  0  0  0  0  0  0  0  0  0  0  0
    8.5172  -14.0154   16.3709 C   0  0  0  0  0  0  0  0  0  0  0  0
    9.2681  -14.4903   15.4435 N   0  0  0  0  0  0  0  0  0  0  0  0
    7.9342  -14.9220   17.3235 N   0  0  0  0  0  0  0  0  0  0  0  0
    7.2632  -14.4263   18.5107 C   0  0  0  0  0  0  0  0  0  0  0  0
    8.3562  -14.2307   19.5750 C   0  0  0  0  0  0  0  0  0  0  0  0
    7.7389  -13.8565   20.8919 C   0  0  0  0  0  0  0  0  0  0  0  0
    8.1877  -14.7058   22.0249 C   0  0  2  0  0  0  0  0  0  0  0  0
    7.6625  -14.1915   23.3052 N   0  0  0  0  0  0  0  0  0  0  0  0
    9.6515  -14.7046   22.1335 C   0  0  0  0  0  0  0  0  0  0  0  0
   10.4003  -15.7016   21.5431 O   0  0  0  0  0  0  0  0  0  0  0  0
   10.2545  -13.8002   22.7667 O   0  0  0  0  0  0  0  0  0  0  0  0
  2  1  1  6
  2  3  1  0
  4  2  1  0
  5  4  2  0
  7  6  1  1
  7  9  1  0
  7  8  1  0
  9 10  1  1
 10  4  1  0
 11 21  1  0
 11  9  1  0
 12 11  2  0
 14 13  1  0
 14 15  2  0
 16 14  1  0
 17 16  1  0
 18 17  1  0
 20 19  1  6
 19 18  1  0
 20 22  1  0
 20 21  1  0
 22 23  1  0
 24 22  2  0
M  END
$$$$
