AVR.pdb
     RDKit          3D

 24 23  0  0  1  0  0  0  0  0999 V2000
    4.9665  -19.8849   25.4219 C   0  0  0  0  0  0  0  0  0  0  0  0
    6.1781  -19.1397   25.9425 C   0  0  2  0  0  0  0  0  0  0  0  0
    6.0375  -19.0456   27.3839 N   0  0  0  0  0  0  0  0  0  0  0  0
    6.3684  -17.8283   25.3095 C   0  0  0  0  0  0  0  0  0  0  0  0
    5.7050  -17.5578   24.2757 O   0  0  0  0  0  0  0  0  0  0  0  0
    6.1248  -14.2108   26.7954 C   0  0  0  0  0  0  0  0  0  0  0  0
    7.4424  -14.4704   26.1315 C   0  0  2  0  0  0  0  0  0  0  0  0
    7.9149  -13.1591   25.5400 C   0  0  0  0  0  0  0  0  0  0  0  0
    7.4272  -15.5729   25.0967 C   0  0  2  0  0  0  0  0  0  0  0  0
    7.2549  -16.8666   25.8055 N   0  0  0  0  0  0  0  0  0  0  0  0
    8.6859  -15.6545   24.3129 C   0  0  0  0  0  0  0  0  0  0  0  0
    9.7204  -16.2312   24.8087 O   0  0  0  0  0  0  0  0  0  0  0  0
    7.6819  -12.7568   18.5495 N   0  0  0  0  0  0  0  0  0  0  0  0
    8.0846  -13.7622   17.6232 C   0  0  0  0  0  0  0  0  0  0  0  0
    8.1394  -13.5009   16.3669 N   0  0  0  0  0  0  0  0  0  0  0  0
    8.4360  -15.0826   18.0729 N   0  0  0  0  0  0  0  0  0  0  0  0
    8.0157  -15.5630   19.3760 C   0  0  0  0  0  0  0  0  0  0  0  0
    8.5573  -14.5547   20.4036 C   0  0  0  0  0  0  0  0  0  0  0  0
    9.9459  -14.9388   20.8271 C   0  0  0  0  0  0  0  0  0  0  0  0
   10.0050  -15.5909   22.1604 C   0  0  2  0  0  0  0  0  0  0  0  0
    8.8848  -15.1444   23.0120 N   0  0  0  0  0  0  0  0  0  0  0  0
   11.2432  -15.2351   22.8638 C   0  0  0  0  0  0  0  0  0  0  0  0
   12.4627  -15.7028   22.4192 O   0  0  0  0  0  0  0  0  0  0  0  0
   11.2214  -14.5012   23.8852 O   0  0  0  0  0  0  0  0  0  0  0  0
  2  1  1  6
  2  3  1  0
  4  2  1  0
  5  4  2  0
  7  6  1  6
  7  9  1  0
  7  8  1  0
  9 10  1  1
 10  4  1  0
 11 21  1  0
 11  9  1  0
 12 11  2  0
 14 13  1  0
 14 15  2  0
 16 14  1  0
 17 16  1  0
 18 17  1  0
 20 19  1  6
 19 18  1  0
 20 22  1  0
 20 21  1  0
 22 23  1  0
 24 22  2  0
M  END
$$$$
