AVR.pdb
     RDKit          3D

 24 23  0  0  1  0  0  0  0  0999 V2000
    6.3024  -19.9503   24.6148 C   0  0  0  0  0  0  0  0  0  0  0  0
    5.3623  -18.7631   24.6503 C   0  0  2  0  0  0  0  0  0  0  0  0
    4.2800  -19.0447   23.7253 N   0  0  0  0  0  0  0  0  0  0  0  0
    6.0293  -17.4866   24.3632 C   0  0  0  0  0  0  0  0  0  0  0  0
    6.0405  -17.0674   23.1774 O   0  0  0  0  0  0  0  0  0  0  0  0
    6.0064  -13.9515   26.4611 C   0  0  0  0  0  0  0  0  0  0  0  0
    7.3514  -14.5410   26.1650 C   0  0  2  0  0  0  0  0  0  0  0  0
    8.3197  -13.3898   25.9922 C   0  0  0  0  0  0  0  0  0  0  0  0
    7.3878  -15.4798   24.9803 C   0  0  2  0  0  0  0  0  0  0  0  0
    6.6529  -16.7163   25.3504 N   0  0  0  0  0  0  0  0  0  0  0  0
    8.7654  -15.8756   24.5918 C   0  0  0  0  0  0  0  0  0  0  0  0
    9.4094  -16.7427   25.2862 O   0  0  0  0  0  0  0  0  0  0  0  0
    8.3166  -12.3154   18.4759 N   0  0  0  0  0  0  0  0  0  0  0  0
    8.3158  -13.6787   18.0607 C   0  0  0  0  0  0  0  0  0  0  0  0
    7.8252  -14.0082   16.9204 N   0  0  0  0  0  0  0  0  0  0  0  0
    8.8611  -14.7080   18.9047 N   0  0  0  0  0  0  0  0  0  0  0  0
    9.6393  -14.3722   20.0824 C   0  0  0  0  0  0  0  0  0  0  0  0
   10.2170  -15.6962   20.6107 C   0  0  0  0  0  0  0  0  0  0  0  0
   11.1808  -15.4326   21.7318 C   0  0  0  0  0  0  0  0  0  0  0  0
   10.7503  -15.9994   23.0355 C   0  0  2  0  0  0  0  0  0  0  0  0
    9.4864  -15.3819   23.4835 N   0  0  0  0  0  0  0  0  0  0  0  0
   11.7481  -15.7328   24.0784 C   0  0  0  0  0  0  0  0  0  0  0  0
   12.9873  -16.3379   24.0360 O   0  0  0  0  0  0  0  0  0  0  0  0
   11.4971  -14.9522   25.0324 O   0  0  0  0  0  0  0  0  0  0  0  0
  2  1  1  6
  2  3  1  0
  4  2  1  0
  5  4  2  0
  7  6  1  6
  7  9  1  0
  7  8  1  0
  9 10  1  1
 10  4  1  0
 11 21  1  0
 11  9  1  0
 12 11  2  0
 14 13  1  0
 14 15  2  0
 16 14  1  0
 17 16  1  0
 18 17  1  0
 20 19  1  6
 19 18  1  0
 20 22  1  0
 20 21  1  0
 22 23  1  0
 24 22  2  0
M  END
$$$$
