AVR.pdb
     RDKit          3D

 24 23  0  0  1  0  0  0  0  0999 V2000
    7.2254  -16.6073   21.9221 C   0  0  0  0  0  0  0  0  0  0  0  0
    7.2519  -15.0955   21.8327 C   0  0  2  0  0  0  0  0  0  0  0  0
    7.9512  -14.7499   20.6088 N   0  0  0  0  0  0  0  0  0  0  0  0
    7.8400  -14.4548   23.0161 C   0  0  0  0  0  0  0  0  0  0  0  0
    9.0832  -14.2654   23.0419 O   0  0  0  0  0  0  0  0  0  0  0  0
    6.2639  -11.4819   25.4162 C   0  0  0  0  0  0  0  0  0  0  0  0
    6.7436  -12.7162   26.1168 C   0  0  2  0  0  0  0  0  0  0  0  0
    7.2956  -12.2863   27.4595 C   0  0  0  0  0  0  0  0  0  0  0  0
    7.7478  -13.5384   25.3410 C   0  0  2  0  0  0  0  0  0  0  0  0
    7.0786  -14.0459   24.1161 N   0  0  0  0  0  0  0  0  0  0  0  0
    8.2489  -14.7135   26.0983 C   0  0  0  0  0  0  0  0  0  0  0  0
    7.4526  -15.6728   26.4053 O   0  0  0  0  0  0  0  0  0  0  0  0
   12.5153  -19.6878   23.7633 N   0  0  0  0  0  0  0  0  0  0  0  0
   12.5908  -20.5242   24.9147 C   0  0  0  0  0  0  0  0  0  0  0  0
   12.6592  -21.8001   24.7850 N   0  0  0  0  0  0  0  0  0  0  0  0
   12.5921  -19.9606   26.2381 N   0  0  0  0  0  0  0  0  0  0  0  0
   12.8859  -18.5555   26.4499 C   0  0  0  0  0  0  0  0  0  0  0  0
   11.6952  -17.9785   27.2342 C   0  0  0  0  0  0  0  0  0  0  0  0
   11.1355  -16.7802   26.5228 C   0  0  0  0  0  0  0  0  0  0  0  0
    9.9951  -16.1438   27.2306 C   0  0  2  0  0  0  0  0  0  0  0  0
    9.5748  -14.9078   26.5414 N   0  0  0  0  0  0  0  0  0  0  0  0
   10.3727  -15.7627   28.5968 C   0  0  0  0  0  0  0  0  0  0  0  0
   10.6184  -16.7271   29.5524 O   0  0  0  0  0  0  0  0  0  0  0  0
   10.4780  -14.5537   28.9276 O   0  0  0  0  0  0  0  0  0  0  0  0
  2  1  1  1
  2  3  1  0
  4  2  1  0
  5  4  2  0
  7  6  1  6
  7  9  1  0
  7  8  1  0
  9 10  1  6
 10  4  1  0
 11 21  1  0
 11  9  1  0
 12 11  2  0
 14 13  1  0
 14 15  2  0
 16 14  1  0
 17 16  1  0
 18 17  1  0
 20 19  1  6
 19 18  1  0
 20 22  1  0
 20 21  1  0
 22 23  1  0
 24 22  2  0
M  END
$$$$
