AVR.pdb
     RDKit          3D

 24 23  0  0  1  0  0  0  0  0999 V2000
    7.8128  -18.8915   18.1877 C   0  0  0  0  0  0  0  0  0  0  0  0
    8.2083  -17.5401   17.6293 C   0  0  2  0  0  0  0  0  0  0  0  0
    9.2010  -17.7759   16.5971 N   0  0  0  0  0  0  0  0  0  0  0  0
    8.6784  -16.6029   18.6576 C   0  0  0  0  0  0  0  0  0  0  0  0
    9.9076  -16.5673   18.9219 O   0  0  0  0  0  0  0  0  0  0  0  0
    7.2730  -12.7719   19.4675 C   0  0  0  0  0  0  0  0  0  0  0  0
    7.3726  -13.7255   20.6185 C   0  0  2  0  0  0  0  0  0  0  0  0
    7.7058  -12.9112   21.8507 C   0  0  0  0  0  0  0  0  0  0  0  0
    8.3521  -14.8605   20.4214 C   0  0  2  0  0  0  0  0  0  0  0  0
    7.8194  -15.7481   19.3563 N   0  0  0  0  0  0  0  0  0  0  0  0
    8.5409  -15.6864   21.6411 C   0  0  0  0  0  0  0  0  0  0  0  0
    7.5721  -16.3929   22.1003 O   0  0  0  0  0  0  0  0  0  0  0  0
   14.2889  -21.4048   22.2563 N   0  0  0  0  0  0  0  0  0  0  0  0
   14.5499  -20.2204   21.5080 C   0  0  0  0  0  0  0  0  0  0  0  0
   15.7305  -19.9834   21.0614 N   0  0  0  0  0  0  0  0  0  0  0  0
   13.5030  -19.2714   21.2386 N   0  0  0  0  0  0  0  0  0  0  0  0
   12.1806  -19.4370   21.8124 C   0  0  0  0  0  0  0  0  0  0  0  0
   11.7841  -18.0664   22.3870 C   0  0  0  0  0  0  0  0  0  0  0  0
   10.3624  -18.0965   22.8700 C   0  0  0  0  0  0  0  0  0  0  0  0
    9.9007  -16.8089   23.4489 C   0  0  2  0  0  0  0  0  0  0  0  0
    9.7305  -15.7910   22.3933 N   0  0  0  0  0  0  0  0  0  0  0  0
   10.8859  -16.2776   24.3984 C   0  0  0  0  0  0  0  0  0  0  0  0
   11.5779  -15.1177   24.1171 O   0  0  0  0  0  0  0  0  0  0  0  0
   11.1232  -16.8661   25.4846 O   0  0  0  0  0  0  0  0  0  0  0  0
  2  1  1  1
  2  3  1  0
  4  2  1  0
  5  4  2  0
  7  6  1  6
  7  9  1  0
  7  8  1  0
  9 10  1  6
 10  4  1  0
 11 21  1  0
 11  9  1  0
 12 11  2  0
 14 13  1  0
 14 15  2  0
 16 14  1  0
 17 16  1  0
 18 17  1  0
 20 19  1  6
 19 18  1  0
 20 22  1  0
 20 21  1  0
 22 23  1  0
 24 22  2  0
M  END
$$$$
