DIP.pdb
     RDKit          3D

 24 24  0  0  1  0  0  0  0  0999 V2000
   28.8159  -21.3487  -17.2092 N   0  0  0  0  0  0  0  0  0  0  0  0
   28.0137  -20.4093  -16.4576 C   0  0  1  0  0  0  0  0  0  0  0  0
   27.1244  -19.5800  -17.3529 C   0  0  0  0  0  0  0  0  0  0  0  0
   27.9481  -18.7229  -18.2426 C   0  0  0  0  0  0  0  0  0  0  0  0
   27.8727  -18.8652  -19.4714 O   0  0  0  0  0  0  0  0  0  0  0  0
   27.2396  -21.0948  -15.3894 C   0  0  0  0  0  0  0  0  0  0  0  0
   26.6699  -22.1995  -15.6264 O   0  0  0  0  0  0  0  0  0  0  0  0
   28.7931  -17.7727  -17.6972 O   0  0  0  0  0  0  0  0  0  0  0  0
   29.0733  -20.8587  -10.3994 C   0  0  0  0  0  0  0  0  0  0  0  0
   28.3944  -21.4140  -11.6606 C   0  0  0  0  0  0  0  0  0  0  0  0
   27.0468  -20.7641  -11.7572 C   0  0  2  0  0  0  0  0  0  0  0  0
   26.1946  -21.3618  -10.6130 C   0  0  0  0  0  0  0  0  0  0  0  0
   26.3029  -21.0753  -13.0250 C   0  0  2  0  0  0  0  0  0  0  0  0
   27.1333  -20.5226  -14.1059 N   0  0  0  0  0  0  0  0  0  0  0  0
   24.9342  -20.5404  -13.0961 C   0  0  0  0  0  0  0  0  0  0  0  0
   24.7869  -19.2724  -12.8866 O   0  0  0  0  0  0  0  0  0  0  0  0
   23.7444  -21.2470  -13.3701 N   0  0  0  0  0  0  0  0  0  0  0  0
   23.7321  -22.6745  -13.7082 C   0  0  0  0  0  0  0  0  0  0  0  0
   22.4559  -22.8525  -14.5204 C   0  0  0  0  0  0  0  0  0  0  0  0
   21.4943  -21.9015  -13.8620 C   0  0  0  0  0  0  0  0  0  0  0  0
   22.3872  -20.7960  -13.3713 C   0  0  1  0  0  0  0  0  0  0  0  0
   21.9014  -20.4467  -12.0048 C   0  0  0  0  0  0  0  0  0  0  0  0
   20.7264  -19.6928  -11.9471 O   0  0  0  0  0  0  0  0  0  0  0  0
   22.4507  -20.7685  -10.9431 O   0  0  0  0  0  0  0  0  0  0  0  0
  2  1  1  6
  2  3  1  0
  3  4  1  0
  4  8  1  0
  4  5  2  0
  6  7  2  0
  6  2  1  0
  9 10  1  0
 10 11  1  0
 11 13  1  0
 11 12  1  1
 13 14  1  6
 14  6  1  0
 15 13  1  0
 16 15  2  0
 17 18  1  0
 17 15  1  0
 19 18  1  0
 20 19  1  0
 21 20  1  0
 21 17  1  0
 21 22  1  1
 23 22  1  0
 24 22  2  0
M  END
$$$$
