DIP.pdb
     RDKit          3D

 24 24  0  0  1  0  0  0  0  0999 V2000
   20.2111  -19.5279  -12.9832 N   0  0  0  0  0  0  0  0  0  0  0  0
   21.2005  -20.4420  -13.5090 C   0  0  1  0  0  0  0  0  0  0  0  0
   20.9533  -20.7703  -14.9620 C   0  0  0  0  0  0  0  0  0  0  0  0
   19.6033  -21.3650  -15.1311 C   0  0  0  0  0  0  0  0  0  0  0  0
   19.1498  -22.1138  -14.2540 O   0  0  0  0  0  0  0  0  0  0  0  0
   22.5790  -19.9330  -13.2828 C   0  0  0  0  0  0  0  0  0  0  0  0
   22.8417  -18.7082  -13.4613 O   0  0  0  0  0  0  0  0  0  0  0  0
   18.8608  -21.0811  -16.2636 O   0  0  0  0  0  0  0  0  0  0  0  0
   25.1573  -20.8776   -8.8843 C   0  0  0  0  0  0  0  0  0  0  0  0
   24.6978  -20.2007  -10.1845 C   0  0  0  0  0  0  0  0  0  0  0  0
   25.3806  -20.9102  -11.3149 C   0  0  2  0  0  0  0  0  0  0  0  0
   26.8917  -20.6178  -11.1602 C   0  0  0  0  0  0  0  0  0  0  0  0
   25.0044  -20.4016  -12.6777 C   0  0  2  0  0  0  0  0  0  0  0  0
   23.6036  -20.8075  -12.8686 N   0  0  0  0  0  0  0  0  0  0  0  0
   25.8424  -20.8916  -13.7832 C   0  0  0  0  0  0  0  0  0  0  0  0
   25.7906  -22.1576  -14.0437 O   0  0  0  0  0  0  0  0  0  0  0  0
   26.7072  -20.1425  -14.6085 N   0  0  0  0  0  0  0  0  0  0  0  0
   27.0559  -18.7455  -14.3273 C   0  0  0  0  0  0  0  0  0  0  0  0
   27.4150  -18.1709  -15.6915 C   0  0  0  0  0  0  0  0  0  0  0  0
   28.0911  -19.3233  -16.3824 C   0  0  0  0  0  0  0  0  0  0  0  0
   27.4024  -20.5252  -15.7982 C   0  0  1  0  0  0  0  0  0  0  0  0
   28.4737  -21.5292  -15.5344 C   0  0  0  0  0  0  0  0  0  0  0  0
   28.9786  -22.1943  -16.6547 O   0  0  0  0  0  0  0  0  0  0  0  0
   28.9372  -21.8094  -14.4212 O   0  0  0  0  0  0  0  0  0  0  0  0
  2  1  1  6
  2  3  1  0
  3  4  1  0
  4  8  1  0
  4  5  2  0
  6  7  2  0
  6  2  1  0
  9 10  1  0
 10 11  1  0
 11 13  1  0
 11 12  1  1
 13 14  1  6
 14  6  1  0
 15 13  1  0
 16 15  2  0
 17 18  1  0
 17 15  1  0
 19 18  1  0
 20 19  1  0
 21 20  1  0
 21 17  1  0
 21 22  1  1
 23 22  1  0
 24 22  2  0
M  END
$$$$
