DIP.pdb
     RDKit          3D

 24 24  0  0  1  0  0  0  0  0999 V2000
   18.6781  -12.8803  -18.0108 N   0  0  0  0  0  0  0  0  0  0  0  0
   19.0526  -11.5142  -18.3012 C   0  0  1  0  0  0  0  0  0  0  0  0
   18.0102  -10.8052  -19.1324 C   0  0  0  0  0  0  0  0  0  0  0  0
   17.9170  -11.4265  -20.4777 C   0  0  0  0  0  0  0  0  0  0  0  0
   16.8806  -12.0207  -20.8072 O   0  0  0  0  0  0  0  0  0  0  0  0
   19.3714  -10.7662  -17.0565 C   0  0  0  0  0  0  0  0  0  0  0  0
   18.6247  -10.8745  -16.0408 O   0  0  0  0  0  0  0  0  0  0  0  0
   18.9843  -11.3393  -21.3539 O   0  0  0  0  0  0  0  0  0  0  0  0
   23.8527  -11.3723  -14.7795 C   0  0  0  0  0  0  0  0  0  0  0  0
   22.3700  -11.0613  -15.0340 C   0  0  0  0  0  0  0  0  0  0  0  0
   22.2903   -9.6314  -15.4776 C   0  0  2  0  0  0  0  0  0  0  0  0
   22.7467   -8.7776  -14.2712 C   0  0  0  0  0  0  0  0  0  0  0  0
   20.9000   -9.1650  -15.8044 C   0  0  2  0  0  0  0  0  0  0  0  0
   20.5053   -9.9315  -16.9961 N   0  0  0  0  0  0  0  0  0  0  0  0
   20.7642   -7.7204  -16.0476 C   0  0  0  0  0  0  0  0  0  0  0  0
   21.5614   -7.1935  -16.9196 O   0  0  0  0  0  0  0  0  0  0  0  0
   19.8590   -6.8242  -15.4414 N   0  0  0  0  0  0  0  0  0  0  0  0
   18.8005   -7.2668  -14.5270 C   0  0  0  0  0  0  0  0  0  0  0  0
   17.7362   -6.1828  -14.6391 C   0  0  0  0  0  0  0  0  0  0  0  0
   18.5434   -4.9254  -14.8114 C   0  0  0  0  0  0  0  0  0  0  0  0
   19.7666   -5.4008  -15.5449 C   0  0  1  0  0  0  0  0  0  0  0  0
   20.9253   -4.7068  -14.9118 C   0  0  0  0  0  0  0  0  0  0  0  0
   21.0316   -3.3369  -15.1657 O   0  0  0  0  0  0  0  0  0  0  0  0
   21.7797   -5.2437  -14.1946 O   0  0  0  0  0  0  0  0  0  0  0  0
  2  1  1  1
  2  3  1  0
  3  4  1  0
  4  8  1  0
  4  5  2  0
  6  7  2  0
  6  2  1  0
  9 10  1  0
 10 11  1  0
 11 13  1  0
 11 12  1  1
 13 14  1  6
 14  6  1  0
 15 13  1  0
 16 15  2  0
 17 18  1  0
 17 15  1  0
 19 18  1  0
 20 19  1  0
 21 20  1  0
 21 17  1  0
 21 22  1  1
 23 22  1  0
 24 22  2  0
M  END
$$$$
