DIP.pdb
     RDKit          3D

 24 24  0  0  1  0  0  0  0  0999 V2000
   29.0405  -23.4759  -17.7697 N   0  0  0  0  0  0  0  0  0  0  0  0
   27.7149  -22.9073  -17.6668 C   0  0  1  0  0  0  0  0  0  0  0  0
   26.6377  -23.9623  -17.7487 C   0  0  0  0  0  0  0  0  0  0  0  0
   26.1920  -24.1324  -19.1548 C   0  0  0  0  0  0  0  0  0  0  0  0
   25.1236  -24.7137  -19.3923 O   0  0  0  0  0  0  0  0  0  0  0  0
   27.5800  -22.0716  -16.4446 C   0  0  0  0  0  0  0  0  0  0  0  0
   28.2832  -22.3215  -15.4228 O   0  0  0  0  0  0  0  0  0  0  0  0
   26.9691  -23.6426  -20.1895 O   0  0  0  0  0  0  0  0  0  0  0  0
   28.7594  -18.4920  -15.2746 C   0  0  0  0  0  0  0  0  0  0  0  0
   27.6775  -18.2382  -16.3353 C   0  0  0  0  0  0  0  0  0  0  0  0
   26.3822  -18.7401  -15.7712 C   0  0  2  0  0  0  0  0  0  0  0  0
   26.0620  -17.8403  -14.5545 C   0  0  0  0  0  0  0  0  0  0  0  0
   26.4465  -20.1424  -15.2355 C   0  0  2  0  0  0  0  0  0  0  0  0
   26.6701  -20.9958  -16.4124 N   0  0  0  0  0  0  0  0  0  0  0  0
   25.2567  -20.5846  -14.4918 C   0  0  0  0  0  0  0  0  0  0  0  0
   24.1641  -20.7370  -15.1673 O   0  0  0  0  0  0  0  0  0  0  0  0
   25.1565  -20.8694  -13.1137 N   0  0  0  0  0  0  0  0  0  0  0  0
   26.2966  -20.7553  -12.1975 C   0  0  0  0  0  0  0  0  0  0  0  0
   25.9613  -21.7186  -11.0662 C   0  0  0  0  0  0  0  0  0  0  0  0
   24.4684  -21.5894  -10.9364 C   0  0  0  0  0  0  0  0  0  0  0  0
   24.0271  -21.2841  -12.3407 C   0  0  1  0  0  0  0  0  0  0  0  0
   22.9913  -20.2167  -12.2268 C   0  0  0  0  0  0  0  0  0  0  0  0
   21.7419  -20.6243  -11.7522 O   0  0  0  0  0  0  0  0  0  0  0  0
   23.1542  -19.0239  -12.5154 O   0  0  0  0  0  0  0  0  0  0  0  0
  2  1  1  1
  2  3  1  0
  3  4  1  0
  4  8  1  0
  4  5  2  0
  6  7  2  0
  6  2  1  0
  9 10  1  0
 10 11  1  0
 11 13  1  0
 11 12  1  1
 13 14  1  6
 14  6  1  0
 15 13  1  0
 16 15  2  0
 17 18  1  0
 17 15  1  0
 19 18  1  0
 20 19  1  0
 21 20  1  0
 21 17  1  0
 21 22  1  1
 23 22  1  0
 24 22  2  0
M  END
$$$$
