DIP.pdb
     RDKit          3D

 24 24  0  0  1  0  0  0  0  0999 V2000
   20.3247  -12.6497  -18.5964 N   0  0  0  0  0  0  0  0  0  0  0  0
   20.9882  -11.3688  -18.6959 C   0  0  1  0  0  0  0  0  0  0  0  0
   20.1550  -10.3554  -19.4434 C   0  0  0  0  0  0  0  0  0  0  0  0
   19.9673  -10.7846  -20.8524 C   0  0  0  0  0  0  0  0  0  0  0  0
   20.2810  -11.9353  -21.1889 O   0  0  0  0  0  0  0  0  0  0  0  0
   21.3991  -10.8689  -17.3573 C   0  0  0  0  0  0  0  0  0  0  0  0
   20.7979  -11.2676  -16.3178 O   0  0  0  0  0  0  0  0  0  0  0  0
   19.4447   -9.9006  -21.7796 O   0  0  0  0  0  0  0  0  0  0  0  0
   26.2397  -11.2028  -15.7288 C   0  0  0  0  0  0  0  0  0  0  0  0
   24.7114  -11.1027  -15.8480 C   0  0  0  0  0  0  0  0  0  0  0  0
   24.3669   -9.6438  -15.8734 C   0  0  2  0  0  0  0  0  0  0  0  0
   24.8286   -9.0660  -14.5148 C   0  0  0  0  0  0  0  0  0  0  0  0
   22.8937   -9.3607  -15.9573 C   0  0  2  0  0  0  0  0  0  0  0  0
   22.4593   -9.9487  -17.2337 N   0  0  0  0  0  0  0  0  0  0  0  0
   22.5236   -7.9385  -15.8880 C   0  0  0  0  0  0  0  0  0  0  0  0
   23.1248   -7.1341  -16.7033 O   0  0  0  0  0  0  0  0  0  0  0  0
   21.5797   -7.3329  -15.0322 N   0  0  0  0  0  0  0  0  0  0  0  0
   20.7806   -8.0976  -14.0684 C   0  0  0  0  0  0  0  0  0  0  0  0
   19.5327   -7.2483  -13.8643 C   0  0  0  0  0  0  0  0  0  0  0  0
   20.0591   -5.8412  -13.9387 C   0  0  0  0  0  0  0  0  0  0  0  0
   21.2142   -5.9572  -14.8939 C   0  0  1  0  0  0  0  0  0  0  0  0
   22.3137   -5.1305  -14.3169 C   0  0  0  0  0  0  0  0  0  0  0  0
   23.3351   -5.8337  -13.6731 O   0  0  0  0  0  0  0  0  0  0  0  0
   22.3853   -3.8955  -14.3659 O   0  0  0  0  0  0  0  0  0  0  0  0
  2  1  1  1
  2  3  1  0
  3  4  1  0
  4  8  1  0
  4  5  2  0
  6  7  2  0
  6  2  1  0
  9 10  1  0
 10 11  1  0
 11 13  1  0
 11 12  1  1
 13 14  1  6
 14  6  1  0
 15 13  1  0
 16 15  2  0
 17 18  1  0
 17 15  1  0
 19 18  1  0
 20 19  1  0
 21 20  1  0
 21 17  1  0
 21 22  1  1
 23 22  1  0
 24 22  2  0
M  END
$$$$
