DIP.pdb
     RDKit          3D

 24 24  0  0  1  0  0  0  0  0999 V2000
   18.8502  -11.9742  -18.7321 N   0  0  0  0  0  0  0  0  0  0  0  0
   19.5534  -10.7129  -18.8066 C   0  0  1  0  0  0  0  0  0  0  0  0
   18.8237   -9.7069  -19.6642 C   0  0  0  0  0  0  0  0  0  0  0  0
   18.7301  -10.1968  -21.0627 C   0  0  0  0  0  0  0  0  0  0  0  0
   17.6164  -10.3591  -21.5814 O   0  0  0  0  0  0  0  0  0  0  0  0
   19.8449  -10.1771  -17.4507 C   0  0  0  0  0  0  0  0  0  0  0  0
   19.0198  -10.3513  -16.5074 O   0  0  0  0  0  0  0  0  0  0  0  0
   19.8831  -10.4689  -21.7776 O   0  0  0  0  0  0  0  0  0  0  0  0
   24.0323  -11.5991  -15.0136 C   0  0  0  0  0  0  0  0  0  0  0  0
   22.6180  -11.0856  -15.3233 C   0  0  0  0  0  0  0  0  0  0  0  0
   22.7275   -9.6086  -15.5560 C   0  0  2  0  0  0  0  0  0  0  0  0
   23.1867   -8.9915  -14.2140 C   0  0  0  0  0  0  0  0  0  0  0  0
   21.4237   -8.9394  -15.8874 C   0  0  2  0  0  0  0  0  0  0  0  0
   21.0397   -9.4717  -17.2037 N   0  0  0  0  0  0  0  0  0  0  0  0
   21.4624   -7.4690  -15.9130 C   0  0  0  0  0  0  0  0  0  0  0  0
   22.3522   -6.9174  -16.6729 O   0  0  0  0  0  0  0  0  0  0  0  0
   20.6373   -6.5712  -15.2036 N   0  0  0  0  0  0  0  0  0  0  0  0
   19.4673   -7.0106  -14.4353 C   0  0  0  0  0  0  0  0  0  0  0  0
   18.5611   -5.7866  -14.4067 C   0  0  0  0  0  0  0  0  0  0  0  0
   19.5327   -4.6421  -14.3138 C   0  0  0  0  0  0  0  0  0  0  0  0
   20.7352   -5.1518  -15.0584 C   0  0  1  0  0  0  0  0  0  0  0  0
   21.9240   -4.7415  -14.2560 C   0  0  0  0  0  0  0  0  0  0  0  0
   22.3130   -3.4051  -14.3779 O   0  0  0  0  0  0  0  0  0  0  0  0
   22.5756   -5.4816  -13.5076 O   0  0  0  0  0  0  0  0  0  0  0  0
  2  1  1  1
  2  3  1  0
  3  4  1  0
  4  8  1  0
  4  5  2  0
  6  7  2  0
  6  2  1  0
  9 10  1  0
 10 11  1  0
 11 13  1  0
 11 12  1  1
 13 14  1  6
 14  6  1  0
 15 13  1  0
 16 15  2  0
 17 18  1  0
 17 15  1  0
 19 18  1  0
 20 19  1  0
 21 20  1  0
 21 17  1  0
 21 22  1  1
 23 22  1  0
 24 22  2  0
M  END
$$$$
