DIP.pdb
     RDKit          3D

 24 24  0  0  1  0  0  0  0  0999 V2000
   25.6230  -33.9256  -13.8917 N   0  0  0  0  0  0  0  0  0  0  0  0
   25.4558  -34.7751  -12.7335 C   0  0  1  0  0  0  0  0  0  0  0  0
   26.1108  -36.1228  -12.9199 C   0  0  0  0  0  0  0  0  0  0  0  0
   25.4375  -36.8743  -14.0092 C   0  0  0  0  0  0  0  0  0  0  0  0
   26.0998  -37.2742  -14.9773 O   0  0  0  0  0  0  0  0  0  0  0  0
   25.9244  -34.0978  -11.4958 C   0  0  0  0  0  0  0  0  0  0  0  0
   27.0610  -33.5427  -11.4662 O   0  0  0  0  0  0  0  0  0  0  0  0
   24.0784  -37.1236  -13.9382 O   0  0  0  0  0  0  0  0  0  0  0  0
   22.4793  -31.1369   -8.7506 C   0  0  0  0  0  0  0  0  0  0  0  0
   23.7690  -31.6592   -9.4014 C   0  0  0  0  0  0  0  0  0  0  0  0
   24.2665  -32.7874   -8.5485 C   0  0  2  0  0  0  0  0  0  0  0  0
   24.6655  -32.1611   -7.1915 C   0  0  0  0  0  0  0  0  0  0  0  0
   25.5080  -33.4529   -9.0711 C   0  0  2  0  0  0  0  0  0  0  0  0
   25.1093  -34.0676  -10.3464 N   0  0  0  0  0  0  0  0  0  0  0  0
   26.1061  -34.4556   -8.1758 C   0  0  0  0  0  0  0  0  0  0  0  0
   25.3941  -35.5010   -7.9049 O   0  0  0  0  0  0  0  0  0  0  0  0
   27.3786  -34.4204   -7.5679 N   0  0  0  0  0  0  0  0  0  0  0  0
   28.3317  -33.3275   -7.7905 C   0  0  0  0  0  0  0  0  0  0  0  0
   29.6916  -33.9621   -7.5294 C   0  0  0  0  0  0  0  0  0  0  0  0
   29.4116  -34.9246   -6.4079 C   0  0  0  0  0  0  0  0  0  0  0  0
   27.9897  -35.3420   -6.6610 C   0  0  1  0  0  0  0  0  0  0  0  0
   27.3196  -35.3597   -5.3284 C   0  0  0  0  0  0  0  0  0  0  0  0
   27.7591  -36.3401   -4.4353 O   0  0  0  0  0  0  0  0  0  0  0  0
   26.4233  -34.5870   -4.9648 O   0  0  0  0  0  0  0  0  0  0  0  0
  2  1  1  6
  2  3  1  0
  3  4  1  0
  4  8  1  0
  4  5  2  0
  6  7  2  0
  6  2  1  0
  9 10  1  0
 10 11  1  0
 11 13  1  0
 11 12  1  1
 13 14  1  6
 14  6  1  0
 15 13  1  0
 16 15  2  0
 17 18  1  0
 17 15  1  0
 19 18  1  0
 20 19  1  0
 21 20  1  0
 21 17  1  0
 21 22  1  1
 23 22  1  0
 24 22  2  0
M  END
$$$$
