DIP.pdb
     RDKit          3D

 24 24  0  0  1  0  0  0  0  0999 V2000
   20.4877  -19.8139  -13.6412 N   0  0  0  0  0  0  0  0  0  0  0  0
   21.5009  -20.7685  -14.0328 C   0  0  1  0  0  0  0  0  0  0  0  0
   21.2919  -21.2710  -15.4413 C   0  0  0  0  0  0  0  0  0  0  0  0
   19.9906  -21.9782  -15.5460 C   0  0  0  0  0  0  0  0  0  0  0  0
   19.7499  -22.9324  -14.7927 O   0  0  0  0  0  0  0  0  0  0  0  0
   22.8670  -20.2148  -13.8392 C   0  0  0  0  0  0  0  0  0  0  0  0
   23.1087  -19.0053  -14.1216 O   0  0  0  0  0  0  0  0  0  0  0  0
   19.0561  -21.5697  -16.4810 O   0  0  0  0  0  0  0  0  0  0  0  0
   25.5418  -20.9690   -9.3908 C   0  0  0  0  0  0  0  0  0  0  0  0
   24.9994  -20.3704  -10.6975 C   0  0  0  0  0  0  0  0  0  0  0  0
   25.7150  -21.0530  -11.8243 C   0  0  2  0  0  0  0  0  0  0  0  0
   27.2067  -20.6675  -11.6868 C   0  0  0  0  0  0  0  0  0  0  0  0
   25.2979  -20.5869  -13.1904 C   0  0  2  0  0  0  0  0  0  0  0  0
   23.9032  -21.0295  -13.3405 N   0  0  0  0  0  0  0  0  0  0  0  0
   26.1233  -21.0847  -14.3019 C   0  0  0  0  0  0  0  0  0  0  0  0
   26.0949  -22.3575  -14.5311 O   0  0  0  0  0  0  0  0  0  0  0  0
   26.9531  -20.3367  -15.1633 N   0  0  0  0  0  0  0  0  0  0  0  0
   27.2847  -18.9290  -14.9170 C   0  0  0  0  0  0  0  0  0  0  0  0
   27.5981  -18.3741  -16.3004 C   0  0  0  0  0  0  0  0  0  0  0  0
   28.2759  -19.5276  -16.9877 C   0  0  0  0  0  0  0  0  0  0  0  0
   27.6237  -20.7299  -16.3637 C   0  0  1  0  0  0  0  0  0  0  0  0
   28.7188  -21.7104  -16.1099 C   0  0  0  0  0  0  0  0  0  0  0  0
   29.3188  -22.2649  -17.2434 O   0  0  0  0  0  0  0  0  0  0  0  0
   29.1252  -22.0605  -14.9942 O   0  0  0  0  0  0  0  0  0  0  0  0
  2  1  1  6
  2  3  1  0
  3  4  1  0
  4  8  1  0
  4  5  2  0
  6  7  2  0
  6  2  1  0
  9 10  1  0
 10 11  1  0
 11 13  1  0
 11 12  1  1
 13 14  1  6
 14  6  1  0
 15 13  1  0
 16 15  2  0
 17 18  1  0
 17 15  1  0
 19 18  1  0
 20 19  1  0
 21 20  1  0
 21 17  1  0
 21 22  1  1
 23 22  1  0
 24 22  2  0
M  END
$$$$
