DIP.pdb
     RDKit          3D

 24 24  0  0  1  0  0  0  0  0999 V2000
   20.0814   -2.0607  -16.8762 N   0  0  0  0  0  0  0  0  0  0  0  0
   19.2158   -3.0783  -16.3229 C   0  0  1  0  0  0  0  0  0  0  0  0
   17.8200   -3.0073  -16.8947 C   0  0  0  0  0  0  0  0  0  0  0  0
   17.0479   -1.9267  -16.2307 C   0  0  0  0  0  0  0  0  0  0  0  0
   17.0292   -0.7923  -16.7293 O   0  0  0  0  0  0  0  0  0  0  0  0
   19.8091   -4.4328  -16.4766 C   0  0  0  0  0  0  0  0  0  0  0  0
   20.5274   -4.7018  -17.4830 O   0  0  0  0  0  0  0  0  0  0  0  0
   16.3554   -2.1909  -15.0624 O   0  0  0  0  0  0  0  0  0  0  0  0
   22.4790   -5.4797  -12.9365 C   0  0  0  0  0  0  0  0  0  0  0  0
   22.2812   -6.0968  -14.3293 C   0  0  0  0  0  0  0  0  0  0  0  0
   20.9983   -6.8715  -14.2890 C   0  0  2  0  0  0  0  0  0  0  0  0
   21.3957   -8.3614  -14.1668 C   0  0  0  0  0  0  0  0  0  0  0  0
   20.1782   -6.7699  -15.5438 C   0  0  2  0  0  0  0  0  0  0  0  0
   19.5780   -5.4277  -15.5056 N   0  0  0  0  0  0  0  0  0  0  0  0
   19.1388   -7.7995  -15.6986 C   0  0  0  0  0  0  0  0  0  0  0  0
   18.1928   -7.8171  -14.8166 O   0  0  0  0  0  0  0  0  0  0  0  0
   19.0418   -8.7839  -16.7044 N   0  0  0  0  0  0  0  0  0  0  0  0
   20.0421   -8.9296  -17.7677 C   0  0  0  0  0  0  0  0  0  0  0  0
   19.2759   -9.5825  -18.9109 C   0  0  0  0  0  0  0  0  0  0  0  0
   18.3258  -10.5088  -18.2027 C   0  0  0  0  0  0  0  0  0  0  0  0
   18.0507   -9.7944  -16.9088 C   0  0  1  0  0  0  0  0  0  0  0  0
   18.0747  -10.8398  -15.8450 C   0  0  0  0  0  0  0  0  0  0  0  0
   16.9415  -11.6528  -15.7601 O   0  0  0  0  0  0  0  0  0  0  0  0
   19.0039  -11.0350  -15.0505 O   0  0  0  0  0  0  0  0  0  0  0  0
  2  1  1  6
  2  3  1  0
  3  4  1  0
  4  8  1  0
  4  5  2  0
  6  7  2  0
  6  2  1  0
  9 10  1  0
 10 11  1  0
 11 13  1  0
 11 12  1  6
 13 14  1  1
 14  6  1  0
 15 13  1  0
 16 15  2  0
 17 18  1  0
 17 15  1  0
 19 18  1  0
 20 19  1  0
 21 20  1  0
 21 17  1  0
 21 22  1  1
 23 22  1  0
 24 22  2  0
M  END
$$$$
