DIP.pdb
     RDKit          3D

 24 24  0  0  1  0  0  0  0  0999 V2000
   28.3266  -22.2394  -16.2019 N   0  0  0  0  0  0  0  0  0  0  0  0
   27.5402  -21.1059  -15.7684 C   0  0  1  0  0  0  0  0  0  0  0  0
   27.0855  -20.2544  -16.9295 C   0  0  0  0  0  0  0  0  0  0  0  0
   28.2588  -19.6787  -17.6342 C   0  0  0  0  0  0  0  0  0  0  0  0
   29.3041  -19.4603  -17.0054 O   0  0  0  0  0  0  0  0  0  0  0  0
   26.4001  -21.5349  -14.9161 C   0  0  0  0  0  0  0  0  0  0  0  0
   25.7854  -22.6111  -15.1710 O   0  0  0  0  0  0  0  0  0  0  0  0
   28.1795  -19.3900  -18.9850 O   0  0  0  0  0  0  0  0  0  0  0  0
   26.7034  -20.8622   -9.6249 C   0  0  0  0  0  0  0  0  0  0  0  0
   26.3679  -21.4679  -10.9962 C   0  0  0  0  0  0  0  0  0  0  0  0
   25.2536  -20.6505  -11.5774 C   0  0  2  0  0  0  0  0  0  0  0  0
   24.0191  -20.9004  -10.6794 C   0  0  0  0  0  0  0  0  0  0  0  0
   24.8420  -21.0667  -12.9612 C   0  0  2  0  0  0  0  0  0  0  0  0
   25.9940  -20.7492  -13.8188 N   0  0  0  0  0  0  0  0  0  0  0  0
   23.6214  -20.4239  -13.4722 C   0  0  0  0  0  0  0  0  0  0  0  0
   23.6010  -19.1305  -13.4892 O   0  0  0  0  0  0  0  0  0  0  0  0
   22.4532  -21.0502  -13.9550 N   0  0  0  0  0  0  0  0  0  0  0  0
   22.3149  -22.5083  -14.0399 C   0  0  0  0  0  0  0  0  0  0  0  0
   21.2861  -22.7198  -15.1432 C   0  0  0  0  0  0  0  0  0  0  0  0
   20.3402  -21.5653  -14.9564 C   0  0  0  0  0  0  0  0  0  0  0  0
   21.2286  -20.4771  -14.4209 C   0  0  1  0  0  0  0  0  0  0  0  0
   20.4585  -19.8129  -13.3296 C   0  0  0  0  0  0  0  0  0  0  0  0
   19.4532  -18.9327  -13.7381 O   0  0  0  0  0  0  0  0  0  0  0  0
   20.6410  -19.9809  -12.1168 O   0  0  0  0  0  0  0  0  0  0  0  0
  2  1  1  6
  2  3  1  0
  3  4  1  0
  4  8  1  0
  4  5  2  0
  6  7  2  0
  6  2  1  0
  9 10  1  0
 10 11  1  0
 11 13  1  0
 11 12  1  1
 13 14  1  6
 14  6  1  0
 15 13  1  0
 16 15  2  0
 17 18  1  0
 17 15  1  0
 19 18  1  0
 20 19  1  0
 21 20  1  0
 21 17  1  0
 21 22  1  1
 23 22  1  0
 24 22  2  0
M  END
$$$$
