DIP.pdb
     RDKit          3D

 24 24  0  0  1  0  0  0  0  0999 V2000
   19.5801  -23.4893  -13.7819 N   0  0  0  0  0  0  0  0  0  0  0  0
   18.6291  -24.3444  -13.1072 C   0  0  1  0  0  0  0  0  0  0  0  0
   19.0512  -25.7940  -13.1348 C   0  0  0  0  0  0  0  0  0  0  0  0
   18.5510  -26.4506  -14.3691 C   0  0  0  0  0  0  0  0  0  0  0  0
   19.0931  -27.4894  -14.7727 O   0  0  0  0  0  0  0  0  0  0  0  0
   18.3652  -23.8706  -11.7229 C   0  0  0  0  0  0  0  0  0  0  0  0
   19.2653  -23.2579  -11.0783 O   0  0  0  0  0  0  0  0  0  0  0  0
   17.4858  -25.9011  -15.0602 O   0  0  0  0  0  0  0  0  0  0  0  0
   14.6277  -20.8456  -11.3592 C   0  0  0  0  0  0  0  0  0  0  0  0
   15.9112  -21.3818  -10.7071 C   0  0  0  0  0  0  0  0  0  0  0  0
   15.5587  -22.6794  -10.0441 C   0  0  2  0  0  0  0  0  0  0  0  0
   15.0035  -22.3153   -8.6471 C   0  0  0  0  0  0  0  0  0  0  0  0
   16.7338  -23.5815   -9.7933 C   0  0  2  0  0  0  0  0  0  0  0  0
   17.1135  -24.0986  -11.1169 N   0  0  0  0  0  0  0  0  0  0  0  0
   16.4863  -24.6873   -8.8551 C   0  0  0  0  0  0  0  0  0  0  0  0
   15.6583  -25.6060   -9.2344 O   0  0  0  0  0  0  0  0  0  0  0  0
   17.0484  -24.8756   -7.5750 N   0  0  0  0  0  0  0  0  0  0  0  0
   18.0012  -23.9303   -6.9827 C   0  0  0  0  0  0  0  0  0  0  0  0
   18.8003  -24.7760   -5.9995 C   0  0  0  0  0  0  0  0  0  0  0  0
   17.7765  -25.7389   -5.4637 C   0  0  0  0  0  0  0  0  0  0  0  0
   16.8383  -25.9228   -6.6240 C   0  0  1  0  0  0  0  0  0  0  0  0
   15.4614  -25.9042   -6.0504 C   0  0  0  0  0  0  0  0  0  0  0  0
   15.0736  -27.0506   -5.3521 O   0  0  0  0  0  0  0  0  0  0  0  0
   14.6560  -24.9688   -6.1459 O   0  0  0  0  0  0  0  0  0  0  0  0
  2  1  1  1
  2  3  1  0
  3  4  1  0
  4  8  1  0
  4  5  2  0
  6  7  2  0
  6  2  1  0
  9 10  1  0
 10 11  1  0
 11 13  1  0
 11 12  1  1
 13 14  1  6
 14  6  1  0
 15 13  1  0
 16 15  2  0
 17 18  1  0
 17 15  1  0
 19 18  1  0
 20 19  1  0
 21 20  1  0
 21 17  1  0
 21 22  1  1
 23 22  1  0
 24 22  2  0
M  END
$$$$
