DIP.pdb
     RDKit          3D

 24 24  0  0  1  0  0  0  0  0999 V2000
   20.5101  -12.1198  -19.2217 N   0  0  0  0  0  0  0  0  0  0  0  0
   21.0612  -10.7839  -19.1712 C   0  0  1  0  0  0  0  0  0  0  0  0
   20.4127   -9.8648  -20.1786 C   0  0  0  0  0  0  0  0  0  0  0  0
   20.7018  -10.3303  -21.5586 C   0  0  0  0  0  0  0  0  0  0  0  0
   21.3137  -11.3942  -21.7303 O   0  0  0  0  0  0  0  0  0  0  0  0
   21.0006  -10.2273  -17.7940 C   0  0  0  0  0  0  0  0  0  0  0  0
   20.0947  -10.6043  -16.9951 O   0  0  0  0  0  0  0  0  0  0  0  0
   20.2879   -9.5764  -22.6424 O   0  0  0  0  0  0  0  0  0  0  0  0
   24.7594  -10.8687  -14.6070 C   0  0  0  0  0  0  0  0  0  0  0  0
   23.3707  -10.5981  -15.2056 C   0  0  0  0  0  0  0  0  0  0  0  0
   23.2593   -9.1166  -15.4063 C   0  0  2  0  0  0  0  0  0  0  0  0
   23.2885   -8.4848  -13.9947 C   0  0  0  0  0  0  0  0  0  0  0  0
   21.9627   -8.6749  -16.0239 C   0  0  2  0  0  0  0  0  0  0  0  0
   21.9491   -9.2769  -17.3659 N   0  0  0  0  0  0  0  0  0  0  0  0
   21.7713   -7.2186  -16.1059 C   0  0  0  0  0  0  0  0  0  0  0  0
   22.6645   -6.5438  -16.7542 O   0  0  0  0  0  0  0  0  0  0  0  0
   20.7192   -6.4540  -15.5596 N   0  0  0  0  0  0  0  0  0  0  0  0
   19.5843   -7.0601  -14.8545 C   0  0  0  0  0  0  0  0  0  0  0  0
   18.4595   -6.0467  -15.0218 C   0  0  0  0  0  0  0  0  0  0  0  0
   19.1754   -4.7254  -14.9582 C   0  0  0  0  0  0  0  0  0  0  0  0
   20.5240   -5.0374  -15.5449 C   0  0  1  0  0  0  0  0  0  0  0  0
   21.5216   -4.3333  -14.6880 C   0  0  0  0  0  0  0  0  0  0  0  0
   21.5880   -2.9459  -14.8396 O   0  0  0  0  0  0  0  0  0  0  0  0
   22.2774   -4.8761  -13.8714 O   0  0  0  0  0  0  0  0  0  0  0  0
  2  1  1  1
  2  3  1  0
  3  4  1  0
  4  8  1  0
  4  5  2  0
  6  7  2  0
  6  2  1  0
  9 10  1  0
 10 11  1  0
 11 13  1  0
 11 12  1  1
 13 14  1  6
 14  6  1  0
 15 13  1  0
 16 15  2  0
 17 18  1  0
 17 15  1  0
 19 18  1  0
 20 19  1  0
 21 20  1  0
 21 17  1  0
 21 22  1  1
 23 22  1  0
 24 22  2  0
M  END
$$$$
