DIP.pdb
     RDKit          3D

 24 24  0  0  1  0  0  0  0  0999 V2000
   16.0716  -18.6436    2.6909 N   0  0  0  0  0  0  0  0  0  0  0  0
   16.1529  -19.5069    3.8481 C   0  0  1  0  0  0  0  0  0  0  0  0
   14.9683  -20.4383    3.9445 C   0  0  0  0  0  0  0  0  0  0  0  0
   13.7982  -19.7231    4.5137 C   0  0  0  0  0  0  0  0  0  0  0  0
   12.7829  -20.3615    4.8260 O   0  0  0  0  0  0  0  0  0  0  0  0
   17.4426  -20.2458    3.8801 C   0  0  0  0  0  0  0  0  0  0  0  0
   18.0376  -20.5333    2.8011 O   0  0  0  0  0  0  0  0  0  0  0  0
   13.8471  -18.3519    4.6922 O   0  0  0  0  0  0  0  0  0  0  0  0
   21.1484  -18.3887    6.9091 C   0  0  0  0  0  0  0  0  0  0  0  0
   20.4584  -19.1124    5.7429 C   0  0  0  0  0  0  0  0  0  0  0  0
   20.0868  -20.4800    6.2320 C   0  0  2  0  0  0  0  0  0  0  0  0
   21.4176  -21.2350    6.4594 C   0  0  0  0  0  0  0  0  0  0  0  0
   19.3170  -21.3014    5.2369 C   0  0  2  0  0  0  0  0  0  0  0  0
   18.0135  -20.6321    5.1094 N   0  0  0  0  0  0  0  0  0  0  0  0
   19.1410  -22.7173    5.5952 C   0  0  0  0  0  0  0  0  0  0  0  0
   18.4119  -22.9751    6.6322 O   0  0  0  0  0  0  0  0  0  0  0  0
   19.6740  -23.8466    4.9389 N   0  0  0  0  0  0  0  0  0  0  0  0
   20.6028  -23.7393    3.8084 C   0  0  0  0  0  0  0  0  0  0  0  0
   20.4046  -25.0399    3.0406 C   0  0  0  0  0  0  0  0  0  0  0  0
   20.1581  -26.0475    4.1298 C   0  0  0  0  0  0  0  0  0  0  0  0
   19.4737  -25.2390    5.1966 C   0  0  1  0  0  0  0  0  0  0  0  0
   20.0731  -25.6709    6.4925 C   0  0  0  0  0  0  0  0  0  0  0  0
   19.7506  -26.9629    6.9157 O   0  0  0  0  0  0  0  0  0  0  0  0
   20.8181  -24.9840    7.2037 O   0  0  0  0  0  0  0  0  0  0  0  0
  2  1  1  6
  2  3  1  0
  3  4  1  0
  4  8  1  0
  4  5  2  0
  6  7  2  0
  6  2  1  0
  9 10  1  0
 10 11  1  0
 11 13  1  0
 11 12  1  6
 13 14  1  1
 14  6  1  0
 15 13  1  0
 16 15  2  0
 17 18  1  0
 17 15  1  0
 19 18  1  0
 20 19  1  0
 21 20  1  0
 21 17  1  0
 21 22  1  1
 23 22  1  0
 24 22  2  0
M  END
$$$$
