DIP.pdb
     RDKit          3D

 24 24  0  0  1  0  0  0  0  0999 V2000
   15.6548  -21.1551    1.0940 N   0  0  0  0  0  0  0  0  0  0  0  0
   15.4340  -20.5018    2.3650 C   0  0  1  0  0  0  0  0  0  0  0  0
   14.8024  -21.4283    3.3763 C   0  0  0  0  0  0  0  0  0  0  0  0
   13.5321  -21.9814    2.8422 C   0  0  0  0  0  0  0  0  0  0  0  0
   12.6346  -21.2097    2.4754 O   0  0  0  0  0  0  0  0  0  0  0  0
   16.6865  -19.8893    2.8813 C   0  0  0  0  0  0  0  0  0  0  0  0
   17.8018  -20.4481    2.6693 O   0  0  0  0  0  0  0  0  0  0  0  0
   13.3574  -23.3513    2.7571 O   0  0  0  0  0  0  0  0  0  0  0  0
   17.8915  -14.8587    1.8916 C   0  0  0  0  0  0  0  0  0  0  0  0
   18.0382  -16.3595    2.1848 C   0  0  0  0  0  0  0  0  0  0  0  0
   17.6842  -16.5625    3.6274 C   0  0  2  0  0  0  0  0  0  0  0  0
   18.7024  -15.7327    4.4442 C   0  0  0  0  0  0  0  0  0  0  0  0
   17.8362  -17.9790    4.1049 C   0  0  2  0  0  0  0  0  0  0  0  0
   16.6438  -18.6837    3.6099 N   0  0  0  0  0  0  0  0  0  0  0  0
   17.9667  -18.1390    5.5615 C   0  0  0  0  0  0  0  0  0  0  0  0
   16.9050  -17.9374    6.2726 O   0  0  0  0  0  0  0  0  0  0  0  0
   19.1213  -18.4916    6.2913 N   0  0  0  0  0  0  0  0  0  0  0  0
   20.4390  -18.6403    5.6636 C   0  0  0  0  0  0  0  0  0  0  0  0
   21.1814  -19.6019    6.5826 C   0  0  0  0  0  0  0  0  0  0  0  0
   20.6857  -19.2209    7.9507 C   0  0  0  0  0  0  0  0  0  0  0  0
   19.2819  -18.7511    7.6884 C   0  0  1  0  0  0  0  0  0  0  0  0
   19.0920  -17.5280    8.5209 C   0  0  0  0  0  0  0  0  0  0  0  0
   19.0300  -17.7311    9.9020 O   0  0  0  0  0  0  0  0  0  0  0  0
   18.9876  -16.3731    8.0875 O   0  0  0  0  0  0  0  0  0  0  0  0
  2  1  1  6
  2  3  1  0
  3  4  1  0
  4  8  1  0
  4  5  2  0
  6  7  2  0
  6  2  1  0
  9 10  1  0
 10 11  1  0
 11 13  1  0
 11 12  1  1
 13 14  1  1
 14  6  1  0
 15 13  1  0
 16 15  2  0
 17 18  1  0
 17 15  1  0
 19 18  1  0
 20 19  1  0
 21 20  1  0
 21 17  1  0
 21 22  1  1
 23 22  1  0
 24 22  2  0
M  END
$$$$
