RIN.pdb
     RDKit          3D

 28 27  0  0  1  0  0  0  0  0999 V2000
   18.7240  -29.5476   -4.7010 N   0  0  0  0  0  0  0  0  0  0  0  0
   18.4662  -28.2818   -4.1027 C   0  0  0  0  0  0  0  0  0  0  0  0
   18.1928  -28.1860   -2.8319 N   0  0  0  0  0  0  0  0  0  0  0  0
   18.4927  -27.0728   -4.8473 N   0  0  0  0  0  0  0  0  0  0  0  0
   18.8235  -27.0637   -6.2553 C   0  0  0  0  0  0  0  0  0  0  0  0
   17.6064  -26.5675   -6.9955 C   0  0  0  0  0  0  0  0  0  0  0  0
   17.9530  -25.5553   -8.0735 C   0  0  0  0  0  0  0  0  0  0  0  0
   18.2516  -24.2554   -7.3476 C   0  0  2  0  0  0  0  0  0  0  0  0
   17.1554  -23.8784   -6.4833 N   0  0  0  0  0  0  0  0  0  0  0  0
   18.5323  -23.1338   -8.2759 C   0  0  0  0  0  0  0  0  0  0  0  0
   17.6313  -22.2899   -8.5552 O   0  0  0  0  0  0  0  0  0  0  0  0
   17.9995  -27.3244   -2.3206 C   0  0  0  0  0  0  0  0  0  0  0  0
   23.2296  -20.6971   -8.1036 C   0  0  0  0  0  0  0  0  0  0  0  0
   21.7764  -20.9515   -8.3366 C   0  0  2  0  0  0  0  0  0  0  0  0
   21.4618  -21.4289   -9.7502 C   0  0  0  0  0  0  0  0  0  0  0  0
   21.8066  -20.3049  -10.6720 C   0  0  2  0  0  0  0  0  0  0  0  0
   20.0233  -21.8250   -9.8158 N   0  0  0  0  0  0  0  0  0  0  0  0
   19.7905  -22.9407   -8.8918 C   0  0  0  0  0  0  0  0  0  0  0  0
   19.5582  -22.2176  -11.1763 O   0  0  0  0  0  0  0  0  0  0  0  0
   20.0910  -23.2636  -11.6862 N   0  0  0  0  0  0  0  0  0  0  0  0
   17.2057  -23.1795  -15.6321 C   0  0  0  0  0  0  0  0  0  0  0  0
   16.5272  -23.4673  -14.4153 O   0  0  0  0  0  0  0  0  0  0  0  0
   15.4714  -24.1394  -14.5289 C   0  0  0  0  0  0  0  0  0  0  0  0
   17.1235  -22.9580  -13.1901 C   0  0  1  0  0  0  0  0  0  0  0  0
   18.2915  -22.0540  -13.3176 N   0  0  0  0  0  0  0  0  0  0  0  0
   18.6022  -21.5749  -11.9600 C   0  0  0  0  0  0  0  0  0  0  0  0
   18.0187  -20.9027  -14.2010 O   0  0  0  0  0  0  0  0  0  0  0  0
   18.0059  -19.6194  -13.6161 O   0  0  0  0  0  0  0  0  0  0  0  0
  2  1  1  0
  3  2  2  0
  4  2  1  0
  5  4  1  0
  6  5  1  0
  7  6  1  0
  8  7  1  0
  8  9  1  6
 10 17  1  0
 10  8  1  0
 11 10  2  0
 13 12  1  0
 14 13  1  0
 14 16  1  0
 14 15  1  6
 16 17  1  1
 18 25  1  0
 18 16  1  0
 19 18  2  0
 20 21  1  0
 21 22  2  0
 23 21  1  0
 24 23  1  1
 24 26  1  0
 24 25  1  0
 26 27  1  0
 28 26  2  0
M  END
$$$$
