RIN.pdb
     RDKit          3D

 28 27  0  0  1  0  0  0  0  0999 V2000
   30.7260  -19.9947  -10.8976 N   0  0  0  0  0  0  0  0  0  0  0  0
   30.5120  -21.4021  -10.9068 C   0  0  0  0  0  0  0  0  0  0  0  0
   31.4236  -22.2142  -11.3632 N   0  0  0  0  0  0  0  0  0  0  0  0
   29.3113  -21.9887  -10.4261 N   0  0  0  0  0  0  0  0  0  0  0  0
   28.2233  -21.1754   -9.9292 C   0  0  0  0  0  0  0  0  0  0  0  0
   26.9525  -21.7085  -10.5427 C   0  0  0  0  0  0  0  0  0  0  0  0
   26.4519  -20.8451  -11.6874 C   0  0  0  0  0  0  0  0  0  0  0  0
   25.1557  -21.4816  -12.1570 C   0  0  2  0  0  0  0  0  0  0  0  0
   25.4140  -22.6112  -13.0220 N   0  0  0  0  0  0  0  0  0  0  0  0
   24.2762  -20.5262  -12.8728 C   0  0  0  0  0  0  0  0  0  0  0  0
   23.8254  -19.5015  -12.2824 O   0  0  0  0  0  0  0  0  0  0  0  0
   31.3584  -23.2317  -11.4032 C   0  0  0  0  0  0  0  0  0  0  0  0
   23.5186  -17.6584  -18.0920 C   0  0  0  0  0  0  0  0  0  0  0  0
   22.8915  -18.2154  -16.8561 C   0  0  2  0  0  0  0  0  0  0  0  0
   23.7352  -19.2889  -16.1772 C   0  0  0  0  0  0  0  0  0  0  0  0
   23.8823  -20.4063  -17.1577 C   0  0  2  0  0  0  0  0  0  0  0  0
   23.0610  -19.7014  -14.9100 N   0  0  0  0  0  0  0  0  0  0  0  0
   23.8954  -20.6946  -14.2242 C   0  0  0  0  0  0  0  0  0  0  0  0
   21.6943  -20.2648  -15.0995 O   0  0  0  0  0  0  0  0  0  0  0  0
   20.7996  -19.4651  -15.5445 N   0  0  0  0  0  0  0  0  0  0  0  0
   17.9723  -23.5164  -13.5094 C   0  0  0  0  0  0  0  0  0  0  0  0
   18.3756  -22.3394  -12.8195 O   0  0  0  0  0  0  0  0  0  0  0  0
   17.8487  -22.1642  -11.6921 C   0  0  0  0  0  0  0  0  0  0  0  0
   19.3409  -21.4804  -13.4873 C   0  0  2  0  0  0  0  0  0  0  0  0
   19.8450  -21.9124  -14.8129 N   0  0  0  0  0  0  0  0  0  0  0  0
   21.2770  -21.5705  -14.8497 C   0  0  0  0  0  0  0  0  0  0  0  0
   19.1449  -21.2427  -15.9272 O   0  0  0  0  0  0  0  0  0  0  0  0
   19.3788  -19.8641  -16.1110 O   0  0  0  0  0  0  0  0  0  0  0  0
  2  1  1  0
  3  2  2  0
  4  2  1  0
  5  4  1  0
  6  5  1  0
  7  6  1  0
  8  7  1  0
  8  9  1  6
 10 17  1  0
 10  8  1  0
 11 10  2  0
 13 12  1  0
 14 13  1  0
 14 16  1  0
 14 15  1  1
 16 17  1  6
 18 25  1  0
 18 16  1  0
 19 18  2  0
 20 21  1  0
 21 22  2  0
 23 21  1  0
 24 23  1  1
 24 26  1  0
 24 25  1  0
 26 27  1  0
 28 26  2  0
M  END
$$$$
