RIN.pdb
     RDKit          3D

 28 27  0  0  1  0  0  0  0  0999 V2000
   17.7559  -22.5001  -10.5517 N   0  0  0  0  0  0  0  0  0  0  0  0
   17.3237  -23.5174  -11.4488 C   0  0  0  0  0  0  0  0  0  0  0  0
   16.3421  -24.3147  -11.1331 N   0  0  0  0  0  0  0  0  0  0  0  0
   17.9299  -23.7155  -12.7178 N   0  0  0  0  0  0  0  0  0  0  0  0
   19.2244  -23.1507  -13.0294 C   0  0  0  0  0  0  0  0  0  0  0  0
   19.0353  -21.6621  -13.1840 C   0  0  0  0  0  0  0  0  0  0  0  0
   20.2843  -20.8761  -12.8253 C   0  0  0  0  0  0  0  0  0  0  0  0
   21.3578  -21.3269  -13.8001 C   0  0  2  0  0  0  0  0  0  0  0  0
   21.5706  -22.7547  -13.7162 N   0  0  0  0  0  0  0  0  0  0  0  0
   22.6534  -20.6397  -13.5816 C   0  0  0  0  0  0  0  0  0  0  0  0
   22.7115  -19.3761  -13.5399 O   0  0  0  0  0  0  0  0  0  0  0  0
   16.0268  -25.1235  -11.6693 C   0  0  0  0  0  0  0  0  0  0  0  0
   25.9191  -21.3511   -9.7128 C   0  0  0  0  0  0  0  0  0  0  0  0
   25.2558  -20.7838  -10.9249 C   0  0  2  0  0  0  0  0  0  0  0  0
   25.9658  -21.1364  -12.2275 C   0  0  0  0  0  0  0  0  0  0  0  0
   27.3304  -20.5331  -12.1522 C   0  0  2  0  0  0  0  0  0  0  0  0
   25.1560  -20.6215  -13.3719 N   0  0  0  0  0  0  0  0  0  0  0  0
   23.8736  -21.3335  -13.4106 C   0  0  0  0  0  0  0  0  0  0  0  0
   25.8217  -20.7499  -14.6991 O   0  0  0  0  0  0  0  0  0  0  0  0
   26.1140  -21.9353  -15.0833 N   0  0  0  0  0  0  0  0  0  0  0  0
   26.0250  -18.5127  -20.1401 C   0  0  0  0  0  0  0  0  0  0  0  0
   26.3672  -19.6079  -19.2992 O   0  0  0  0  0  0  0  0  0  0  0  0
   27.0509  -20.5135  -19.8394 C   0  0  0  0  0  0  0  0  0  0  0  0
   25.8937  -19.5585  -17.9247 C   0  0  2  0  0  0  0  0  0  0  0  0
   26.8213  -20.0120  -16.8608 N   0  0  0  0  0  0  0  0  0  0  0  0
   26.1614  -19.7222  -15.5765 C   0  0  0  0  0  0  0  0  0  0  0  0
   28.1246  -19.3203  -16.9176 O   0  0  0  0  0  0  0  0  0  0  0  0
   29.2577  -20.0892  -17.2555 O   0  0  0  0  0  0  0  0  0  0  0  0
  2  1  1  0
  3  2  2  0
  4  2  1  0
  5  4  1  0
  6  5  1  0
  7  6  1  0
  8  7  1  0
  8  9  1  1
 10 17  1  0
 10  8  1  0
 11 10  2  0
 13 12  1  0
 14 13  1  0
 14 16  1  0
 14 15  1  6
 16 17  1  6
 18 25  1  0
 18 16  1  0
 19 18  2  0
 20 21  1  0
 21 22  2  0
 23 21  1  0
 24 23  1  6
 24 26  1  0
 24 25  1  0
 26 27  1  0
 28 26  2  0
M  END
$$$$
