RIN.pdb
     RDKit          3D

 28 27  0  0  1  0  0  0  0  0999 V2000
   27.5618  -20.8997  -11.8579 N   0  0  0  0  0  0  0  0  0  0  0  0
   26.3569  -21.3684  -12.4539 C   0  0  0  0  0  0  0  0  0  0  0  0
   26.3545  -21.8567  -13.6624 N   0  0  0  0  0  0  0  0  0  0  0  0
   25.1108  -21.3298  -11.7737 N   0  0  0  0  0  0  0  0  0  0  0  0
   23.9114  -21.8761  -12.3696 C   0  0  0  0  0  0  0  0  0  0  0  0
   23.7011  -21.1621  -13.6817 C   0  0  0  0  0  0  0  0  0  0  0  0
   22.2311  -21.0029  -14.0288 C   0  0  0  0  0  0  0  0  0  0  0  0
   21.6942  -19.9306  -13.0973 C   0  0  2  0  0  0  0  0  0  0  0  0
   21.0969  -20.5170  -11.9182 N   0  0  0  0  0  0  0  0  0  0  0  0
   20.6929  -19.0542  -13.7515 C   0  0  0  0  0  0  0  0  0  0  0  0
   19.4549  -19.2517  -13.5775 O   0  0  0  0  0  0  0  0  0  0  0  0
   25.5552  -22.2700  -14.1434 C   0  0  0  0  0  0  0  0  0  0  0  0
   21.3650  -13.8333  -14.1133 C   0  0  0  0  0  0  0  0  0  0  0  0
   20.7312  -15.1854  -14.0781 C   0  0  2  0  0  0  0  0  0  0  0  0
   20.5087  -15.7885  -15.4608 C   0  0  0  0  0  0  0  0  0  0  0  0
   19.5292  -14.9063  -16.1638 C   0  0  2  0  0  0  0  0  0  0  0  0
   20.0280  -17.1935  -15.3016 N   0  0  0  0  0  0  0  0  0  0  0  0
   21.0477  -17.9713  -14.5888 C   0  0  0  0  0  0  0  0  0  0  0  0
   19.7054  -17.8789  -16.5851 O   0  0  0  0  0  0  0  0  0  0  0  0
   18.6436  -17.4973  -17.1894 N   0  0  0  0  0  0  0  0  0  0  0  0
   19.5668  -20.8942  -20.8436 C   0  0  0  0  0  0  0  0  0  0  0  0
   20.9161  -20.6593  -20.4587 O   0  0  0  0  0  0  0  0  0  0  0  0
   21.7898  -21.1175  -21.2371 C   0  0  0  0  0  0  0  0  0  0  0  0
   21.1317  -19.9239  -19.2223 C   0  0  1  0  0  0  0  0  0  0  0  0
   19.9365  -19.5310  -18.4382 N   0  0  0  0  0  0  0  0  0  0  0  0
   20.4326  -18.8909  -17.2081 C   0  0  0  0  0  0  0  0  0  0  0  0
   19.0867  -20.6871  -18.0895 O   0  0  0  0  0  0  0  0  0  0  0  0
   18.3366  -21.2822  -19.1251 O   0  0  0  0  0  0  0  0  0  0  0  0
  2  1  1  0
  3  2  2  0
  4  2  1  0
  5  4  1  0
  6  5  1  0
  7  6  1  0
  8  7  1  0
  8  9  1  1
 10 17  1  0
 10  8  1  0
 11 10  2  0
 13 12  1  0
 14 13  1  0
 14 16  1  0
 14 15  1  6
 16 17  1  1
 18 25  1  0
 18 16  1  0
 19 18  2  0
 20 21  1  0
 21 22  2  0
 23 21  1  0
 24 23  1  6
 24 26  1  0
 24 25  1  0
 26 27  1  0
 28 26  2  0
M  END
$$$$
