RIN.pdb
     RDKit          3D

 28 27  0  0  1  0  0  0  0  0999 V2000
   27.1239  -25.3014  -15.9380 N   0  0  0  0  0  0  0  0  0  0  0  0
   27.0462  -25.1372  -17.3500 C   0  0  0  0  0  0  0  0  0  0  0  0
   27.9557  -25.6452  -18.1334 N   0  0  0  0  0  0  0  0  0  0  0  0
   25.9890  -24.4215  -17.9721 N   0  0  0  0  0  0  0  0  0  0  0  0
   24.8186  -24.0111  -17.2280 C   0  0  0  0  0  0  0  0  0  0  0  0
   25.0972  -22.6317  -16.6848 C   0  0  0  0  0  0  0  0  0  0  0  0
   24.5859  -22.4503  -15.2663 C   0  0  0  0  0  0  0  0  0  0  0  0
   23.0705  -22.4710  -15.3609 C   0  0  2  0  0  0  0  0  0  0  0  0
   22.5903  -21.4347  -16.2477 N   0  0  0  0  0  0  0  0  0  0  0  0
   22.4131  -22.3098  -14.0417 C   0  0  0  0  0  0  0  0  0  0  0  0
   22.8440  -22.9340  -13.0285 O   0  0  0  0  0  0  0  0  0  0  0  0
   27.9485  -25.6302  -19.1536 C   0  0  0  0  0  0  0  0  0  0  0  0
   20.5128  -17.7422  -13.5145 C   0  0  0  0  0  0  0  0  0  0  0  0
   21.0238  -18.8614  -12.6677 C   0  0  2  0  0  0  0  0  0  0  0  0
   20.0046  -19.9750  -12.4523 C   0  0  0  0  0  0  0  0  0  0  0  0
   19.3461  -19.7090  -11.1380 C   0  0  2  0  0  0  0  0  0  0  0  0
   20.7106  -21.2902  -12.5025 N   0  0  0  0  0  0  0  0  0  0  0  0
   21.2932  -21.4711  -13.8370 C   0  0  0  0  0  0  0  0  0  0  0  0
   19.8445  -22.4618  -12.1891 O   0  0  0  0  0  0  0  0  0  0  0  0
   18.9521  -22.7648  -13.0550 N   0  0  0  0  0  0  0  0  0  0  0  0
   18.2944  -26.2380   -7.8088 C   0  0  0  0  0  0  0  0  0  0  0  0
   18.5136  -26.2064   -9.2141 O   0  0  0  0  0  0  0  0  0  0  0  0
   17.9194  -27.0942   -9.8758 C   0  0  0  0  0  0  0  0  0  0  0  0
   19.3903  -25.1629   -9.7224 C   0  0  2  0  0  0  0  0  0  0  0  0
   18.8794  -24.3105  -10.8225 N   0  0  0  0  0  0  0  0  0  0  0  0
   19.8970  -23.2720  -11.0568 C   0  0  0  0  0  0  0  0  0  0  0  0
   17.5883  -23.6758  -10.4899 O   0  0  0  0  0  0  0  0  0  0  0  0
   17.5794  -22.7167   -9.4558 O   0  0  0  0  0  0  0  0  0  0  0  0
  2  1  1  0
  3  2  2  0
  4  2  1  0
  5  4  1  0
  6  5  1  0
  7  6  1  0
  8  7  1  0
  8  9  1  6
 10 17  1  0
 10  8  1  0
 11 10  2  0
 13 12  1  0
 14 13  1  0
 14 16  1  0
 14 15  1  6
 16 17  1  1
 18 25  1  0
 18 16  1  0
 19 18  2  0
 20 21  1  0
 21 22  2  0
 23 21  1  0
 24 23  1  6
 24 26  1  0
 24 25  1  0
 26 27  1  0
 28 26  2  0
M  END
$$$$
