RIN.pdb
     RDKit          3D

 28 27  0  0  1  0  0  0  0  0999 V2000
   28.9967  -21.6881  -19.5899 N   0  0  0  0  0  0  0  0  0  0  0  0
   28.6296  -20.3178  -19.4715 C   0  0  0  0  0  0  0  0  0  0  0  0
   28.0246  -19.7007  -20.4473 N   0  0  0  0  0  0  0  0  0  0  0  0
   28.8987  -19.5601  -18.3008 N   0  0  0  0  0  0  0  0  0  0  0  0
   29.2449  -20.2027  -17.0521 C   0  0  0  0  0  0  0  0  0  0  0  0
   28.2912  -21.3566  -16.8657 C   0  0  0  0  0  0  0  0  0  0  0  0
   28.0963  -21.7205  -15.4041 C   0  0  0  0  0  0  0  0  0  0  0  0
   27.2319  -20.6223  -14.8103 C   0  0  2  0  0  0  0  0  0  0  0  0
   28.0300  -19.6841  -14.0527 N   0  0  0  0  0  0  0  0  0  0  0  0
   26.1592  -21.1505  -13.9333 C   0  0  0  0  0  0  0  0  0  0  0  0
   25.4547  -22.1352  -14.3017 O   0  0  0  0  0  0  0  0  0  0  0  0
   27.7485  -18.7185  -20.4596 C   0  0  0  0  0  0  0  0  0  0  0  0
   26.7648  -20.7487   -8.6352 C   0  0  0  0  0  0  0  0  0  0  0  0
   26.3197  -21.2912   -9.9537 C   0  0  2  0  0  0  0  0  0  0  0  0
   24.9823  -20.7283  -10.4224 C   0  0  0  0  0  0  0  0  0  0  0  0
   23.9405  -21.2620   -9.4942 C   0  0  2  0  0  0  0  0  0  0  0  0
   24.7642  -21.1268  -11.8451 N   0  0  0  0  0  0  0  0  0  0  0  0
   25.8631  -20.6024  -12.6639 C   0  0  0  0  0  0  0  0  0  0  0  0
   23.4690  -20.6633  -12.4186 O   0  0  0  0  0  0  0  0  0  0  0  0
   23.3182  -19.3992  -12.5501 N   0  0  0  0  0  0  0  0  0  0  0  0
   19.8778  -19.9114  -16.4518 C   0  0  0  0  0  0  0  0  0  0  0  0
   19.7764  -20.8929  -15.4271 O   0  0  0  0  0  0  0  0  0  0  0  0
   18.6221  -21.3454  -15.2218 C   0  0  0  0  0  0  0  0  0  0  0  0
   21.0048  -21.2593  -14.7395 C   0  0  1  0  0  0  0  0  0  0  0  0
   21.1531  -20.8394  -13.3255 N   0  0  0  0  0  0  0  0  0  0  0  0
   22.3985  -21.4527  -12.8335 C   0  0  0  0  0  0  0  0  0  0  0  0
   20.0188  -21.2754  -12.4867 O   0  0  0  0  0  0  0  0  0  0  0  0
   18.9870  -20.3438  -12.2483 O   0  0  0  0  0  0  0  0  0  0  0  0
  2  1  1  0
  3  2  2  0
  4  2  1  0
  5  4  1  0
  6  5  1  0
  7  6  1  0
  8  7  1  0
  8  9  1  1
 10 17  1  0
 10  8  1  0
 11 10  2  0
 13 12  1  0
 14 13  1  0
 14 16  1  0
 14 15  1  6
 16 17  1  6
 18 25  1  0
 18 16  1  0
 19 18  2  0
 20 21  1  0
 21 22  2  0
 23 21  1  0
 24 23  1  6
 24 26  1  0
 24 25  1  0
 26 27  1  0
 28 26  2  0
M  END
$$$$
