RIN.pdb
     RDKit          3D

 28 27  0  0  1  0  0  0  0  0999 V2000
   30.0827  -23.8617  -16.9232 N   0  0  0  0  0  0  0  0  0  0  0  0
   30.5700  -23.1151  -18.0330 C   0  0  0  0  0  0  0  0  0  0  0  0
   31.3587  -23.6638  -18.9138 N   0  0  0  0  0  0  0  0  0  0  0  0
   30.2280  -21.7519  -18.2375 N   0  0  0  0  0  0  0  0  0  0  0  0
   29.3326  -21.0581  -17.3381 C   0  0  0  0  0  0  0  0  0  0  0  0
   27.9300  -21.2805  -17.8467 C   0  0  0  0  0  0  0  0  0  0  0  0
   26.8814  -21.0908  -16.7645 C   0  0  0  0  0  0  0  0  0  0  0  0
   27.0589  -22.2508  -15.8008 C   0  0  2  0  0  0  0  0  0  0  0  0
   27.0042  -23.5177  -16.4956 N   0  0  0  0  0  0  0  0  0  0  0  0
   26.0431  -22.2570  -14.7206 C   0  0  0  0  0  0  0  0  0  0  0  0
   25.0383  -23.0235  -14.7878 O   0  0  0  0  0  0  0  0  0  0  0  0
   31.7889  -23.1955  -19.7117 C   0  0  0  0  0  0  0  0  0  0  0  0
   25.1520  -20.6548   -8.8050 C   0  0  0  0  0  0  0  0  0  0  0  0
   24.6537  -21.0904  -10.1440 C   0  0  2  0  0  0  0  0  0  0  0  0
   25.7302  -21.0865  -11.2240 C   0  0  0  0  0  0  0  0  0  0  0  0
   26.3226  -19.7152  -11.2377 C   0  0  2  0  0  0  0  0  0  0  0  0
   25.1080  -21.4730  -12.5255 N   0  0  0  0  0  0  0  0  0  0  0  0
   26.1301  -21.4293  -13.5774 C   0  0  0  0  0  0  0  0  0  0  0  0
   23.9577  -20.6169  -12.9319 O   0  0  0  0  0  0  0  0  0  0  0  0
   24.2154  -19.3882  -13.1807 N   0  0  0  0  0  0  0  0  0  0  0  0
   19.6781  -20.1243  -16.7790 C   0  0  0  0  0  0  0  0  0  0  0  0
   20.1528  -19.6531  -15.5235 O   0  0  0  0  0  0  0  0  0  0  0  0
   19.6166  -18.5975  -15.1023 C   0  0  0  0  0  0  0  0  0  0  0  0
   21.1932  -20.4359  -14.8748 C   0  0  2  0  0  0  0  0  0  0  0  0
   21.6017  -20.0376  -13.5065 N   0  0  0  0  0  0  0  0  0  0  0  0
   22.6269  -21.0033  -13.0761 C   0  0  0  0  0  0  0  0  0  0  0  0
   20.4728  -20.0532  -12.5549 O   0  0  0  0  0  0  0  0  0  0  0  0
   19.5557  -18.9832  -12.6119 O   0  0  0  0  0  0  0  0  0  0  0  0
  2  1  1  0
  3  2  2  0
  4  2  1  0
  5  4  1  0
  6  5  1  0
  7  6  1  0
  8  7  1  0
  8  9  1  6
 10 17  1  0
 10  8  1  0
 11 10  2  0
 13 12  1  0
 14 13  1  0
 14 16  1  0
 14 15  1  1
 16 17  1  6
 18 25  1  0
 18 16  1  0
 19 18  2  0
 20 21  1  0
 21 22  2  0
 23 21  1  0
 24 23  1  6
 24 26  1  0
 24 25  1  0
 26 27  1  0
 28 26  2  0
M  END
$$$$
