RIN.pdb
     RDKit          3D

 28 27  0  0  1  0  0  0  0  0999 V2000
   18.8311  -24.9375   -7.8880 N   0  0  0  0  0  0  0  0  0  0  0  0
   17.5980  -24.2711   -8.1366 C   0  0  0  0  0  0  0  0  0  0  0  0
   16.4616  -24.8952   -8.0026 N   0  0  0  0  0  0  0  0  0  0  0  0
   17.5403  -22.9101   -8.5382 N   0  0  0  0  0  0  0  0  0  0  0  0
   18.0631  -22.4803   -9.8164 C   0  0  0  0  0  0  0  0  0  0  0  0
   19.5467  -22.7531   -9.8053 C   0  0  0  0  0  0  0  0  0  0  0  0
   20.2761  -22.0523  -10.9381 C   0  0  0  0  0  0  0  0  0  0  0  0
   21.1580  -21.0036  -10.2836 C   0  0  2  0  0  0  0  0  0  0  0  0
   20.3654  -19.9253   -9.7359 N   0  0  0  0  0  0  0  0  0  0  0  0
   22.1565  -20.4319  -11.2189 C   0  0  0  0  0  0  0  0  0  0  0  0
   22.1379  -19.1988  -11.5038 O   0  0  0  0  0  0  0  0  0  0  0  0
   15.5347  -24.4997   -8.1623 C   0  0  0  0  0  0  0  0  0  0  0  0
   27.0653  -21.3841  -10.1819 C   0  0  0  0  0  0  0  0  0  0  0  0
   25.7903  -20.8238  -10.7217 C   0  0  2  0  0  0  0  0  0  0  0  0
   25.5510  -21.1618  -12.1892 C   0  0  0  0  0  0  0  0  0  0  0  0
   26.7128  -20.6154  -12.9529 C   0  0  2  0  0  0  0  0  0  0  0  0
   24.2420  -20.5789  -12.6104 N   0  0  0  0  0  0  0  0  0  0  0  0
   23.1659  -21.2068  -11.8355 C   0  0  0  0  0  0  0  0  0  0  0  0
   23.9444  -20.7292  -14.0630 O   0  0  0  0  0  0  0  0  0  0  0  0
   23.7990  -21.9236  -14.4992 N   0  0  0  0  0  0  0  0  0  0  0  0
   20.7088  -20.5243  -16.6381 C   0  0  0  0  0  0  0  0  0  0  0  0
   21.1344  -19.2109  -16.9807 O   0  0  0  0  0  0  0  0  0  0  0  0
   20.2266  -18.4274  -17.3568 C   0  0  0  0  0  0  0  0  0  0  0  0
   22.5553  -18.9242  -16.8591 C   0  0  2  0  0  0  0  0  0  0  0  0
   23.4414  -20.0204  -16.3999 N   0  0  0  0  0  0  0  0  0  0  0  0
   23.8021  -19.7130  -15.0055 C   0  0  0  0  0  0  0  0  0  0  0  0
   24.6661  -20.1342  -17.2169 O   0  0  0  0  0  0  0  0  0  0  0  0
   24.5922  -20.8958  -18.4017 O   0  0  0  0  0  0  0  0  0  0  0  0
  2  1  1  0
  3  2  2  0
  4  2  1  0
  5  4  1  0
  6  5  1  0
  7  6  1  0
  8  7  1  0
  8  9  1  6
 10 17  1  0
 10  8  1  0
 11 10  2  0
 13 12  1  0
 14 13  1  0
 14 16  1  0
 14 15  1  6
 16 17  1  1
 18 25  1  0
 18 16  1  0
 19 18  2  0
 20 21  1  0
 21 22  2  0
 23 21  1  0
 24 23  1  1
 24 26  1  0
 24 25  1  0
 26 27  1  0
 28 26  2  0
M  END
$$$$
