RIN.pdb
     RDKit          3D

 28 27  0  0  1  0  0  0  0  0999 V2000
   23.4077  -20.3864  -19.9332 N   0  0  0  0  0  0  0  0  0  0  0  0
   23.8659  -21.7053  -20.2110 C   0  0  0  0  0  0  0  0  0  0  0  0
   24.8148  -21.9145  -21.0799 N   0  0  0  0  0  0  0  0  0  0  0  0
   23.3218  -22.8475  -19.5659 N   0  0  0  0  0  0  0  0  0  0  0  0
   22.2728  -22.7249  -18.5777 C   0  0  0  0  0  0  0  0  0  0  0  0
   22.8489  -21.9654  -17.4086 C   0  0  0  0  0  0  0  0  0  0  0  0
   22.6475  -22.6885  -16.0884 C   0  0  0  0  0  0  0  0  0  0  0  0
   21.3196  -22.1973  -15.5396 C   0  0  2  0  0  0  0  0  0  0  0  0
   21.1444  -20.7838  -15.7888 N   0  0  0  0  0  0  0  0  0  0  0  0
   21.1757  -22.4448  -14.0847 C   0  0  0  0  0  0  0  0  0  0  0  0
   21.6268  -23.5074  -13.5659 O   0  0  0  0  0  0  0  0  0  0  0  0
   25.1952  -22.8221  -21.3495 C   0  0  0  0  0  0  0  0  0  0  0  0
   19.8971  -18.2100  -10.7246 C   0  0  0  0  0  0  0  0  0  0  0  0
   19.7736  -19.4746  -11.5098 C   0  0  2  0  0  0  0  0  0  0  0  0
   20.6535  -20.6041  -10.9854 C   0  0  0  0  0  0  0  0  0  0  0  0
   22.0678  -20.1351  -11.0932 C   0  0  1  0  0  0  0  0  0  0  0  0
   20.3792  -21.8376  -11.7816 N   0  0  0  0  0  0  0  0  0  0  0  0
   20.5425  -21.5339  -13.2078 C   0  0  0  0  0  0  0  0  0  0  0  0
   19.0246  -22.4189  -11.5620 O   0  0  0  0  0  0  0  0  0  0  0  0
   18.1639  -22.2380  -12.4919 N   0  0  0  0  0  0  0  0  0  0  0  0
   18.7837  -26.2691   -8.3403 C   0  0  0  0  0  0  0  0  0  0  0  0
   18.0176  -25.8572   -9.4660 O   0  0  0  0  0  0  0  0  0  0  0  0
   18.1384  -26.5696  -10.4943 C   0  0  0  0  0  0  0  0  0  0  0  0
   17.1898  -24.6722   -9.3037 C   0  0  2  0  0  0  0  0  0  0  0  0
   17.2098  -23.6648  -10.3912 N   0  0  0  0  0  0  0  0  0  0  0  0
   18.5857  -23.1436  -10.4560 C   0  0  0  0  0  0  0  0  0  0  0  0
   16.2680  -22.5541  -10.1472 O   0  0  0  0  0  0  0  0  0  0  0  0
   16.7570  -21.4217   -9.4631 O   0  0  0  0  0  0  0  0  0  0  0  0
  2  1  1  0
  3  2  2  0
  4  2  1  0
  5  4  1  0
  6  5  1  0
  7  6  1  0
  8  7  1  0
  8  9  1  1
 10 17  1  0
 10  8  1  0
 11 10  2  0
 13 12  1  0
 14 13  1  0
 14 16  1  0
 14 15  1  1
 16 17  1  6
 18 25  1  0
 18 16  1  0
 19 18  2  0
 20 21  1  0
 21 22  2  0
 23 21  1  0
 24 23  1  6
 24 26  1  0
 24 25  1  0
 26 27  1  0
 28 26  2  0
M  END
$$$$
