RIN.pdb
     RDKit          3D

 28 27  0  0  1  0  0  0  0  0999 V2000
   17.5761  -26.4729   -8.1477 N   0  0  0  0  0  0  0  0  0  0  0  0
   17.8326  -25.4450   -7.1967 C   0  0  0  0  0  0  0  0  0  0  0  0
   17.9440  -25.7207   -5.9276 N   0  0  0  0  0  0  0  0  0  0  0  0
   17.9789  -24.0837   -7.5739 N   0  0  0  0  0  0  0  0  0  0  0  0
   17.5621  -23.6154   -8.8773 C   0  0  0  0  0  0  0  0  0  0  0  0
   18.7446  -23.7620   -9.8023 C   0  0  0  0  0  0  0  0  0  0  0  0
   19.3679  -22.4258  -10.1667 C   0  0  0  0  0  0  0  0  0  0  0  0
   19.5648  -22.4517  -11.6722 C   0  0  2  0  0  0  0  0  0  0  0  0
   19.9903  -23.7595  -12.1190 N   0  0  0  0  0  0  0  0  0  0  0  0
   20.5509  -21.4466  -12.1370 C   0  0  0  0  0  0  0  0  0  0  0  0
   20.4082  -20.2235  -11.8448 O   0  0  0  0  0  0  0  0  0  0  0  0
   18.1027  -25.0483   -5.1768 C   0  0  0  0  0  0  0  0  0  0  0  0
   25.6901  -22.5000  -11.9373 C   0  0  0  0  0  0  0  0  0  0  0  0
   24.3986  -21.7520  -11.9963 C   0  0  2  0  0  0  0  0  0  0  0  0
   24.0012  -21.3357  -13.4083 C   0  0  0  0  0  0  0  0  0  0  0  0
   25.0377  -20.3693  -13.8811 C   0  0  2  0  0  0  0  0  0  0  0  0
   22.6263  -20.7536  -13.3697 N   0  0  0  0  0  0  0  0  0  0  0  0
   21.6830  -21.7815  -12.9154 C   0  0  0  0  0  0  0  0  0  0  0  0
   22.1564  -20.2074  -14.6743 O   0  0  0  0  0  0  0  0  0  0  0  0
   21.7684  -21.0588  -15.5476 N   0  0  0  0  0  0  0  0  0  0  0  0
   20.4450  -17.2452  -18.6091 C   0  0  0  0  0  0  0  0  0  0  0  0
   20.1851  -16.6287  -17.3537 O   0  0  0  0  0  0  0  0  0  0  0  0
   19.4910  -15.5819  -17.3969 C   0  0  0  0  0  0  0  0  0  0  0  0
   20.7444  -17.2706  -16.1743 C   0  0  1  0  0  0  0  0  0  0  0  0
   21.5716  -18.4838  -16.3783 N   0  0  0  0  0  0  0  0  0  0  0  0
   22.0873  -18.8685  -15.0536 C   0  0  0  0  0  0  0  0  0  0  0  0
   22.6993  -18.2477  -17.3018 O   0  0  0  0  0  0  0  0  0  0  0  0
   22.6506  -18.8725  -18.5653 O   0  0  0  0  0  0  0  0  0  0  0  0
  2  1  1  0
  3  2  2  0
  4  2  1  0
  5  4  1  0
  6  5  1  0
  7  6  1  0
  8  7  1  0
  8  9  1  1
 10 17  1  0
 10  8  1  0
 11 10  2  0
 13 12  1  0
 14 13  1  0
 14 16  1  0
 14 15  1  6
 16 17  1  1
 18 25  1  0
 18 16  1  0
 19 18  2  0
 20 21  1  0
 21 22  2  0
 23 21  1  0
 24 23  1  1
 24 26  1  0
 24 25  1  0
 26 27  1  0
 28 26  2  0
M  END
$$$$
