RIN.pdb
     RDKit          3D

 28 27  0  0  1  0  0  0  0  0999 V2000
   16.9599  -24.1161   -9.2185 N   0  0  0  0  0  0  0  0  0  0  0  0
   17.2909  -24.9142  -10.3499 C   0  0  0  0  0  0  0  0  0  0  0  0
   16.7719  -26.0994  -10.5073 N   0  0  0  0  0  0  0  0  0  0  0  0
   18.1915  -24.4685  -11.3536 N   0  0  0  0  0  0  0  0  0  0  0  0
   18.9305  -23.2339  -11.2066 C   0  0  0  0  0  0  0  0  0  0  0  0
   18.9819  -22.5811  -12.5655 C   0  0  0  0  0  0  0  0  0  0  0  0
   20.3920  -22.1871  -12.9691 C   0  0  0  0  0  0  0  0  0  0  0  0
   20.7909  -21.0508  -12.0442 C   0  0  2  0  0  0  0  0  0  0  0  0
   19.9540  -19.8905  -12.2544 N   0  0  0  0  0  0  0  0  0  0  0  0
   22.2089  -20.6502  -12.2094 C   0  0  0  0  0  0  0  0  0  0  0  0
   22.5061  -19.5549  -12.7697 O   0  0  0  0  0  0  0  0  0  0  0  0
   16.9697  -26.7471  -11.2705 C   0  0  0  0  0  0  0  0  0  0  0  0
   25.6368  -20.6385   -8.2993 C   0  0  0  0  0  0  0  0  0  0  0  0
   24.9109  -20.4523   -9.5913 C   0  0  2  0  0  0  0  0  0  0  0  0
   25.4636  -21.3061  -10.7275 C   0  0  0  0  0  0  0  0  0  0  0  0
   26.9132  -20.9684  -10.8553 C   0  0  2  0  0  0  0  0  0  0  0  0
   24.6807  -21.0228  -11.9675 N   0  0  0  0  0  0  0  0  0  0  0  0
   23.2903  -21.4448  -11.7637 C   0  0  0  0  0  0  0  0  0  0  0  0
   25.2135  -21.6846  -13.1919 O   0  0  0  0  0  0  0  0  0  0  0  0
   25.4679  -22.9359  -13.1044 N   0  0  0  0  0  0  0  0  0  0  0  0
   23.3239  -22.5661  -15.8482 C   0  0  0  0  0  0  0  0  0  0  0  0
   23.9065  -21.8291  -16.9165 O   0  0  0  0  0  0  0  0  0  0  0  0
   23.1463  -21.5897  -17.8881 C   0  0  0  0  0  0  0  0  0  0  0  0
   25.2999  -21.4395  -16.7673 C   0  0  2  0  0  0  0  0  0  0  0  0
   26.0118  -21.8847  -15.5455 N   0  0  0  0  0  0  0  0  0  0  0  0
   25.4647  -21.0952  -14.4291 C   0  0  0  0  0  0  0  0  0  0  0  0
   27.4705  -21.6746  -15.6355 O   0  0  0  0  0  0  0  0  0  0  0  0
   28.2475  -22.7152  -16.1857 O   0  0  0  0  0  0  0  0  0  0  0  0
  2  1  1  0
  3  2  2  0
  4  2  1  0
  5  4  1  0
  6  5  1  0
  7  6  1  0
  8  7  1  0
  8  9  1  6
 10 17  1  0
 10  8  1  0
 11 10  2  0
 13 12  1  0
 14 13  1  0
 14 16  1  0
 14 15  1  1
 16 17  1  6
 18 25  1  0
 18 16  1  0
 19 18  2  0
 20 21  1  0
 21 22  2  0
 23 21  1  0
 24 23  1  1
 24 26  1  0
 24 25  1  0
 26 27  1  0
 28 26  2  0
M  END
$$$$
