RIN.pdb
     RDKit          3D

 28 27  0  0  1  0  0  0  0  0999 V2000
   29.9501  -21.5325  -17.6453 N   0  0  0  0  0  0  0  0  0  0  0  0
   29.5555  -20.3006  -18.2396 C   0  0  0  0  0  0  0  0  0  0  0  0
   29.3723  -20.2074  -19.5268 N   0  0  0  0  0  0  0  0  0  0  0  0
   29.3432  -19.1239  -17.4734 N   0  0  0  0  0  0  0  0  0  0  0  0
   29.1763  -19.1810  -16.0378 C   0  0  0  0  0  0  0  0  0  0  0  0
   28.1576  -20.2558  -15.7503 C   0  0  0  0  0  0  0  0  0  0  0  0
   27.8128  -20.3514  -14.2743 C   0  0  0  0  0  0  0  0  0  0  0  0
   26.4049  -19.7995  -14.1360 C   0  0  2  0  0  0  0  0  0  0  0  0
   26.4248  -18.4406  -13.6423 N   0  0  0  0  0  0  0  0  0  0  0  0
   25.5555  -20.6189  -13.2384 C   0  0  0  0  0  0  0  0  0  0  0  0
   25.4167  -21.8604  -13.4414 O   0  0  0  0  0  0  0  0  0  0  0  0
   29.0578  -19.3786  -20.0319 C   0  0  0  0  0  0  0  0  0  0  0  0
   26.1227  -19.6900   -8.3591 C   0  0  0  0  0  0  0  0  0  0  0  0
   25.7429  -20.5357   -9.5302 C   0  0  2  0  0  0  0  0  0  0  0  0
   24.2494  -20.5133   -9.8372 C   0  0  0  0  0  0  0  0  0  0  0  0
   23.5931  -21.4275   -8.8547 C   0  0  2  0  0  0  0  0  0  0  0  0
   24.0434  -20.9280  -11.2571 N   0  0  0  0  0  0  0  0  0  0  0  0
   24.8649  -20.0800  -12.1283 C   0  0  0  0  0  0  0  0  0  0  0  0
   22.6263  -20.8629  -11.7140 O   0  0  0  0  0  0  0  0  0  0  0  0
   22.0594  -19.7164  -11.6672 N   0  0  0  0  0  0  0  0  0  0  0  0
   18.6117  -23.3830  -11.4298 C   0  0  0  0  0  0  0  0  0  0  0  0
   18.7755  -22.1059  -10.8249 O   0  0  0  0  0  0  0  0  0  0  0  0
   18.0868  -21.9018   -9.7937 C   0  0  0  0  0  0  0  0  0  0  0  0
   19.7103  -21.1896  -11.4594 C   0  0  2  0  0  0  0  0  0  0  0  0
   20.4605  -21.6803  -12.6401 N   0  0  0  0  0  0  0  0  0  0  0  0
   21.8442  -21.9121  -12.1922 C   0  0  0  0  0  0  0  0  0  0  0  0
   20.4540  -20.7111  -13.7541 O   0  0  0  0  0  0  0  0  0  0  0  0
   20.0105  -21.1664  -15.0132 O   0  0  0  0  0  0  0  0  0  0  0  0
  2  1  1  0
  3  2  2  0
  4  2  1  0
  5  4  1  0
  6  5  1  0
  7  6  1  0
  8  7  1  0
  8  9  1  1
 10 17  1  0
 10  8  1  0
 11 10  2  0
 13 12  1  0
 14 13  1  0
 14 16  1  0
 14 15  1  6
 16 17  1  6
 18 25  1  0
 18 16  1  0
 19 18  2  0
 20 21  1  0
 21 22  2  0
 23 21  1  0
 24 23  1  1
 24 26  1  0
 24 25  1  0
 26 27  1  0
 28 26  2  0
M  END
$$$$
