RIN.pdb
     RDKit          3D

 28 27  0  0  1  0  0  0  0  0999 V2000
   29.3791  -24.6626  -17.5670 N   0  0  0  0  0  0  0  0  0  0  0  0
   28.9268  -24.0982  -18.7931 C   0  0  0  0  0  0  0  0  0  0  0  0
   28.6009  -24.8594  -19.7998 N   0  0  0  0  0  0  0  0  0  0  0  0
   28.8081  -22.6958  -18.9830 N   0  0  0  0  0  0  0  0  0  0  0  0
   28.8958  -21.7761  -17.8701 C   0  0  0  0  0  0  0  0  0  0  0  0
   28.0407  -22.3363  -16.7609 C   0  0  0  0  0  0  0  0  0  0  0  0
   27.0603  -21.3157  -16.2095 C   0  0  0  0  0  0  0  0  0  0  0  0
   27.4173  -21.1407  -14.7440 C   0  0  2  0  0  0  0  0  0  0  0  0
   28.5709  -21.9378  -14.3905 N   0  0  0  0  0  0  0  0  0  0  0  0
   26.2990  -21.4949  -13.8370 C   0  0  0  0  0  0  0  0  0  0  0  0
   25.7426  -22.6290  -13.9154 O   0  0  0  0  0  0  0  0  0  0  0  0
   28.3187  -24.5427  -20.7278 C   0  0  0  0  0  0  0  0  0  0  0  0
   26.5542  -20.1502   -8.7587 C   0  0  0  0  0  0  0  0  0  0  0  0
   26.1444  -20.8967   -9.9858 C   0  0  2  0  0  0  0  0  0  0  0  0
   24.8807  -20.3466  -10.6382 C   0  0  0  0  0  0  0  0  0  0  0  0
   23.7566  -20.6074   -9.6894 C   0  0  2  0  0  0  0  0  0  0  0  0
   24.6973  -21.0070  -11.9652 N   0  0  0  0  0  0  0  0  0  0  0  0
   25.7964  -20.6121  -12.8534 C   0  0  0  0  0  0  0  0  0  0  0  0
   23.4007  -20.6943  -12.6302 O   0  0  0  0  0  0  0  0  0  0  0  0
   23.2853  -19.5282  -13.1450 N   0  0  0  0  0  0  0  0  0  0  0  0
   18.3293  -23.2447  -14.8932 C   0  0  0  0  0  0  0  0  0  0  0  0
   18.9922  -22.0837  -14.4068 O   0  0  0  0  0  0  0  0  0  0  0  0
   18.3615  -21.0045  -14.5369 C   0  0  0  0  0  0  0  0  0  0  0  0
   20.3098  -22.2725  -13.8203 C   0  0  1  0  0  0  0  0  0  0  0  0
   21.0634  -21.0611  -13.4172 N   0  0  0  0  0  0  0  0  0  0  0  0
   22.2945  -21.5314  -12.7597 C   0  0  0  0  0  0  0  0  0  0  0  0
   20.2988  -20.2055  -12.4879 O   0  0  0  0  0  0  0  0  0  0  0  0
   19.6539  -19.0718  -13.0247 O   0  0  0  0  0  0  0  0  0  0  0  0
  2  1  1  0
  3  2  2  0
  4  2  1  0
  5  4  1  0
  6  5  1  0
  7  6  1  0
  8  7  1  0
  8  9  1  1
 10 17  1  0
 10  8  1  0
 11 10  2  0
 13 12  1  0
 14 13  1  0
 14 16  1  0
 14 15  1  6
 16 17  1  6
 18 25  1  0
 18 16  1  0
 19 18  2  0
 20 21  1  0
 21 22  2  0
 23 21  1  0
 24 23  1  6
 24 26  1  0
 24 25  1  0
 26 27  1  0
 28 26  2  0
M  END
$$$$
