YMY.pdb
     RDKit          3D

 33 34  0  0  1  0  0  0  0  0999 V2000
   14.0869  -12.8079  -18.4068 O   0  0  0  0  0  0  0  0  0  0  0  0
   14.4079  -12.0279  -17.2970 C   0  0  0  0  0  0  0  0  0  0  0  0
   14.1306  -10.6761  -17.2745 C   0  0  0  0  0  0  0  0  0  0  0  0
   14.4440   -9.9045  -16.1839 C   0  0  0  0  0  0  0  0  0  0  0  0
   15.0569  -10.4573  -15.0522 C   0  0  0  0  0  0  0  0  0  0  0  0
   15.3960   -9.6182  -13.8628 C   0  0  0  0  0  0  0  0  0  0  0  0
   16.5859   -8.7917  -14.2055 C   0  0  2  0  0  0  0  0  0  0  0  0
   17.7605   -9.6373  -14.2340 N   0  0  0  0  0  0  0  0  0  0  0  0
   16.8129   -7.6344  -13.3038 C   0  0  0  0  0  0  0  0  0  0  0  0
   17.6416   -7.7274  -12.3564 O   0  0  0  0  0  0  0  0  0  0  0  0
   15.3234  -11.8123  -15.1006 C   0  0  0  0  0  0  0  0  0  0  0  0
   15.0187  -12.6062  -16.1820 C   0  0  0  0  0  0  0  0  0  0  0  0
   19.1902   -2.3169  -16.3014 C   0  0  0  0  0  0  0  0  0  0  0  0
   17.6194   -2.4790  -15.4110 S   0  0  0  0  0  0  0  0  0  0  0  0
   17.7062   -3.9158  -14.2821 C   0  0  0  0  0  0  0  0  0  0  0  0
   16.4102   -4.0075  -13.5250 C   0  0  0  0  0  0  0  0  0  0  0  0
   16.3497   -5.2316  -12.6451 C   0  0  2  0  0  0  0  0  0  0  0  0
   16.1305   -6.3991  -13.4534 N   0  0  0  0  0  0  0  0  0  0  0  0
   15.2645   -5.0833  -11.6315 C   0  0  0  0  0  0  0  0  0  0  0  0
   14.0911   -5.2490  -11.9904 O   0  0  0  0  0  0  0  0  0  0  0  0
   10.4362   -4.8784   -4.3145 O   0  0  0  0  0  0  0  0  0  0  0  0
   11.5025   -4.9829   -5.2277 C   0  0  0  0  0  0  0  0  0  0  0  0
   12.5854   -4.1334   -5.1691 C   0  0  0  0  0  0  0  0  0  0  0  0
   13.6250   -4.2469   -6.0716 C   0  0  0  0  0  0  0  0  0  0  0  0
   13.6250   -5.1988   -7.0551 C   0  0  0  0  0  0  0  0  0  0  0  0
   14.7193   -5.3575   -8.0441 C   0  0  0  0  0  0  0  0  0  0  0  0
   14.4712   -4.5573   -9.3045 C   0  0  2  0  0  0  0  0  0  0  0  0
   15.5180   -4.7630  -10.2810 N   0  0  0  0  0  0  0  0  0  0  0  0
   14.2085   -3.1358   -9.0333 C   0  0  0  0  0  0  0  0  0  0  0  0
   12.8897   -2.6892   -8.8597 O   0  0  0  0  0  0  0  0  0  0  0  0
   12.5515   -6.0528   -7.1258 C   0  0  0  0  0  0  0  0  0  0  0  0
   11.5204   -5.9335   -6.2231 C   0  0  0  0  0  0  0  0  0  0  0  0
   15.0976   -2.2625   -8.9420 O   0  0  0  0  0  0  0  0  0  0  0  0
  2  1  1  0
  3  2  2  0
  4  3  1  0
  5  4  2  0
  5 11  1  0
  6  5  1  0
  7  6  1  0
  7  8  1  1
  9  7  1  0
  9 10  2  0
 11 12  2  0
 12  2  1  0
 13 14  1  0
 14 15  1  0
 15 16  1  0
 17 16  1  6
 17 19  1  0
 17 18  1  0
 18  9  1  0
 19 28  1  0
 20 19  2  0
 22 21  1  0
 22 32  2  0
 23 22  1  0
 24 23  2  0
 24 25  1  0
 25 31  2  0
 26 25  1  0
 27 26  1  1
 27 29  1  0
 28 27  1  0
 29 33  2  0
 29 30  1  0
 31 32  1  0
M  END
$$$$
