YMY.pdb
     RDKit          3D

 33 34  0  0  1  0  0  0  0  0999 V2000
   20.6068  -15.9234  -24.3477 O   0  0  0  0  0  0  0  0  0  0  0  0
   20.4576  -14.9273  -23.3841 C   0  0  0  0  0  0  0  0  0  0  0  0
   21.5573  -14.2975  -22.8372 C   0  0  0  0  0  0  0  0  0  0  0  0
   21.4152  -13.3158  -21.8890 C   0  0  0  0  0  0  0  0  0  0  0  0
   20.1508  -12.9148  -21.4391 C   0  0  0  0  0  0  0  0  0  0  0  0
   19.9953  -11.8437  -20.4083 C   0  0  0  0  0  0  0  0  0  0  0  0
   20.3047  -12.4356  -19.0778 C   0  0  2  0  0  0  0  0  0  0  0  0
   19.3256  -13.4570  -18.7719 N   0  0  0  0  0  0  0  0  0  0  0  0
   20.3790  -11.4522  -17.9681 C   0  0  0  0  0  0  0  0  0  0  0  0
   19.3209  -10.9396  -17.5090 O   0  0  0  0  0  0  0  0  0  0  0  0
   19.0672  -13.5610  -22.0025 C   0  0  0  0  0  0  0  0  0  0  0  0
   19.1841  -14.5474  -22.9542 C   0  0  0  0  0  0  0  0  0  0  0  0
   21.8145   -8.2698  -11.9113 C   0  0  0  0  0  0  0  0  0  0  0  0
   21.5706   -9.4027  -13.3055 S   0  0  0  0  0  0  0  0  0  0  0  0
   23.0874   -9.4446  -14.3270 C   0  0  0  0  0  0  0  0  0  0  0  0
   22.8896  -10.4413  -15.4354 C   0  0  0  0  0  0  0  0  0  0  0  0
   21.7398  -10.0687  -16.3384 C   0  0  2  0  0  0  0  0  0  0  0  0
   21.6063  -11.0471  -17.3820 N   0  0  0  0  0  0  0  0  0  0  0  0
   21.9592   -8.7105  -16.9167 C   0  0  0  0  0  0  0  0  0  0  0  0
   22.9184   -8.5393  -17.6808 O   0  0  0  0  0  0  0  0  0  0  0  0
   15.2212   -4.7383  -15.9626 O   0  0  0  0  0  0  0  0  0  0  0  0
   16.4786   -5.0456  -16.5160 C   0  0  0  0  0  0  0  0  0  0  0  0
   16.8477   -6.3453  -16.7850 C   0  0  0  0  0  0  0  0  0  0  0  0
   18.0848   -6.6330  -17.3281 C   0  0  0  0  0  0  0  0  0  0  0  0
   18.9905   -5.6491  -17.6195 C   0  0  0  0  0  0  0  0  0  0  0  0
   20.3286   -5.9116  -18.2037 C   0  0  0  0  0  0  0  0  0  0  0  0
   21.3496   -6.2826  -17.1498 C   0  0  2  0  0  0  0  0  0  0  0  0
   21.1202   -7.6129  -16.6307 N   0  0  0  0  0  0  0  0  0  0  0  0
   21.4723   -5.2662  -16.0940 C   0  0  0  0  0  0  0  0  0  0  0  0
   21.8890   -3.9665  -16.4197 O   0  0  0  0  0  0  0  0  0  0  0  0
   18.6362   -4.3482  -17.3565 C   0  0  0  0  0  0  0  0  0  0  0  0
   17.4022   -4.0700  -16.8160 C   0  0  0  0  0  0  0  0  0  0  0  0
   21.2266   -5.4747  -14.8867 O   0  0  0  0  0  0  0  0  0  0  0  0
  2  1  1  0
  3  2  2  0
  4  3  1  0
  5  4  2  0
  5 11  1  0
  6  5  1  0
  7  6  1  0
  7  8  1  1
  9  7  1  0
  9 10  2  0
 11 12  2  0
 12  2  1  0
 13 14  1  0
 14 15  1  0
 15 16  1  0
 17 16  1  1
 17 19  1  0
 17 18  1  0
 18  9  1  0
 19 28  1  0
 20 19  2  0
 22 21  1  0
 22 32  2  0
 23 22  1  0
 24 23  2  0
 24 25  1  0
 25 31  2  0
 26 25  1  0
 27 26  1  6
 27 29  1  0
 28 27  1  0
 29 33  2  0
 29 30  1  0
 31 32  1  0
M  END
$$$$
