YMY.pdb
     RDKit          3D

 33 34  0  0  1  0  0  0  0  0999 V2000
   29.7431  -16.4914  -19.7403 O   0  0  0  0  0  0  0  0  0  0  0  0
   28.9005  -17.2733  -18.9518 C   0  0  0  0  0  0  0  0  0  0  0  0
   28.1025  -18.2483  -19.5154 C   0  0  0  0  0  0  0  0  0  0  0  0
   27.2722  -19.0210  -18.7430 C   0  0  0  0  0  0  0  0  0  0  0  0
   27.2014  -18.8510  -17.3545 C   0  0  0  0  0  0  0  0  0  0  0  0
   26.2993  -19.6941  -16.5124 C   0  0  0  0  0  0  0  0  0  0  0  0
   27.1470  -20.6233  -15.7158 C   0  0  2  0  0  0  0  0  0  0  0  0
   27.6729  -21.6528  -16.5870 N   0  0  0  0  0  0  0  0  0  0  0  0
   26.4602  -21.2409  -14.5536 C   0  0  0  0  0  0  0  0  0  0  0  0
   25.7078  -22.2396  -14.7246 O   0  0  0  0  0  0  0  0  0  0  0  0
   28.0102  -17.8686  -16.8159 C   0  0  0  0  0  0  0  0  0  0  0  0
   28.8504  -17.0818  -17.5691 C   0  0  0  0  0  0  0  0  0  0  0  0
   24.9387  -21.3388   -6.9910 C   0  0  0  0  0  0  0  0  0  0  0  0
   26.0461  -21.1401   -8.4125 S   0  0  0  0  0  0  0  0  0  0  0  0
   25.1243  -20.3839   -9.7998 C   0  0  0  0  0  0  0  0  0  0  0  0
   26.0719  -20.1837  -10.9502 C   0  0  0  0  0  0  0  0  0  0  0  0
   25.7087  -21.0342  -12.1423 C   0  0  2  0  0  0  0  0  0  0  0  0
   26.6076  -20.7560  -13.2280 N   0  0  0  0  0  0  0  0  0  0  0  0
   24.2968  -20.7731  -12.5494 C   0  0  0  0  0  0  0  0  0  0  0  0
   23.9924  -19.6381  -12.9397 O   0  0  0  0  0  0  0  0  0  0  0  0
   15.9863  -23.4010  -11.3369 O   0  0  0  0  0  0  0  0  0  0  0  0
   17.2834  -23.2423  -11.8606 C   0  0  0  0  0  0  0  0  0  0  0  0
   17.5167  -22.4825  -12.9857 C   0  0  0  0  0  0  0  0  0  0  0  0
   18.7945  -22.3352  -13.4892 C   0  0  0  0  0  0  0  0  0  0  0  0
   19.8752  -22.9325  -12.8988 C   0  0  0  0  0  0  0  0  0  0  0  0
   21.2638  -22.8011  -13.4039 C   0  0  0  0  0  0  0  0  0  0  0  0
   21.9285  -21.5287  -12.9244 C   0  0  2  0  0  0  0  0  0  0  0  0
   23.2936  -21.7644  -12.5093 N   0  0  0  0  0  0  0  0  0  0  0  0
   21.1334  -20.8186  -11.9111 C   0  0  0  0  0  0  0  0  0  0  0  0
   21.3845  -21.0350  -10.5477 O   0  0  0  0  0  0  0  0  0  0  0  0
   19.6576  -23.6935  -11.7760 C   0  0  0  0  0  0  0  0  0  0  0  0
   18.3822  -23.8350  -11.2807 C   0  0  0  0  0  0  0  0  0  0  0  0
   20.2192  -20.0092  -12.1766 O   0  0  0  0  0  0  0  0  0  0  0  0
  2  1  1  0
  3  2  2  0
  4  3  1  0
  5  4  2  0
  5 11  1  0
  6  5  1  0
  7  6  1  0
  7  8  1  6
  9  7  1  0
  9 10  2  0
 11 12  2  0
 12  2  1  0
 13 14  1  0
 14 15  1  0
 15 16  1  0
 17 16  1  1
 17 19  1  0
 17 18  1  0
 18  9  1  0
 19 28  1  0
 20 19  2  0
 22 21  1  0
 22 32  2  0
 23 22  1  0
 24 23  2  0
 24 25  1  0
 25 31  2  0
 26 25  1  0
 27 26  1  1
 27 29  1  0
 28 27  1  0
 29 33  2  0
 29 30  1  0
 31 32  1  0
M  END
$$$$
