YMY.pdb
     RDKit          3D

 33 34  0  0  1  0  0  0  0  0999 V2000
   29.3945  -16.3120  -20.2944 O   0  0  0  0  0  0  0  0  0  0  0  0
   28.4941  -17.0826  -19.5606 C   0  0  0  0  0  0  0  0  0  0  0  0
   28.1795  -18.3693  -19.9484 C   0  0  0  0  0  0  0  0  0  0  0  0
   27.2942  -19.1318  -19.2287 C   0  0  0  0  0  0  0  0  0  0  0  0
   26.6758  -18.6354  -18.0742 C   0  0  0  0  0  0  0  0  0  0  0  0
   25.7137  -19.4664  -17.2882 C   0  0  0  0  0  0  0  0  0  0  0  0
   26.4688  -20.1344  -16.1928 C   0  0  2  0  0  0  0  0  0  0  0  0
   27.2894  -21.1869  -16.7533 N   0  0  0  0  0  0  0  0  0  0  0  0
   25.6210  -20.6758  -15.1009 C   0  0  0  0  0  0  0  0  0  0  0  0
   25.2627  -21.8858  -15.1230 O   0  0  0  0  0  0  0  0  0  0  0  0
   27.0081  -17.3451  -17.7081 C   0  0  0  0  0  0  0  0  0  0  0  0
   27.8922  -16.5616  -18.4129 C   0  0  0  0  0  0  0  0  0  0  0  0
   24.2015  -22.0002   -8.1544 C   0  0  0  0  0  0  0  0  0  0  0  0
   25.0952  -21.3159   -9.5755 S   0  0  0  0  0  0  0  0  0  0  0  0
   24.0265  -20.1108  -10.4424 C   0  0  0  0  0  0  0  0  0  0  0  0
   24.7620  -19.6034  -11.6519 C   0  0  0  0  0  0  0  0  0  0  0  0
   24.4014  -20.3690  -12.9009 C   0  0  2  0  0  0  0  0  0  0  0  0
   25.1805  -19.8860  -14.0073 N   0  0  0  0  0  0  0  0  0  0  0  0
   22.9430  -20.2311  -13.1856 C   0  0  0  0  0  0  0  0  0  0  0  0
   22.4881  -19.1031  -13.4176 O   0  0  0  0  0  0  0  0  0  0  0  0
   21.7373  -18.6215  -19.1234 O   0  0  0  0  0  0  0  0  0  0  0  0
   21.3572  -19.4128  -18.0229 C   0  0  0  0  0  0  0  0  0  0  0  0
   22.0780  -20.5280  -17.6559 C   0  0  0  0  0  0  0  0  0  0  0  0
   21.6937  -21.2958  -16.5738 C   0  0  0  0  0  0  0  0  0  0  0  0
   20.5901  -20.9863  -15.8258 C   0  0  0  0  0  0  0  0  0  0  0  0
   20.1414  -21.7810  -14.6562 C   0  0  0  0  0  0  0  0  0  0  0  0
   20.6272  -21.1963  -13.3475 C   0  0  2  0  0  0  0  0  0  0  0  0
   22.0598  -21.3313  -13.2027 N   0  0  0  0  0  0  0  0  0  0  0  0
   19.8811  -21.7037  -12.1860 C   0  0  0  0  0  0  0  0  0  0  0  0
   20.5662  -22.3324  -11.1352 O   0  0  0  0  0  0  0  0  0  0  0  0
   19.8615  -19.8770  -16.1803 C   0  0  0  0  0  0  0  0  0  0  0  0
   20.2509  -19.1173  -17.2589 C   0  0  0  0  0  0  0  0  0  0  0  0
   18.6414  -21.6168  -12.0554 O   0  0  0  0  0  0  0  0  0  0  0  0
  2  1  1  0
  3  2  2  0
  4  3  1  0
  5  4  2  0
  5 11  1  0
  6  5  1  0
  7  6  1  0
  7  8  1  6
  9  7  1  0
  9 10  2  0
 11 12  2  0
 12  2  1  0
 13 14  1  0
 14 15  1  0
 15 16  1  0
 17 16  1  1
 17 19  1  0
 17 18  1  0
 18  9  1  0
 19 28  1  0
 20 19  2  0
 22 21  1  0
 22 32  2  0
 23 22  1  0
 24 23  2  0
 24 25  1  0
 25 31  2  0
 26 25  1  0
 27 26  1  6
 27 29  1  0
 28 27  1  0
 29 33  2  0
 29 30  1  0
 31 32  1  0
M  END
$$$$
