YMY.pdb
     RDKit          3D

 33 34  0  0  1  0  0  0  0  0999 V2000
   12.1241  -13.9492  -10.4422 O   0  0  0  0  0  0  0  0  0  0  0  0
   12.6769  -13.0845  -11.3855 C   0  0  0  0  0  0  0  0  0  0  0  0
   13.2267  -11.8768  -11.0060 C   0  0  0  0  0  0  0  0  0  0  0  0
   13.7727  -11.0228  -11.9310 C   0  0  0  0  0  0  0  0  0  0  0  0
   13.7934  -11.3422  -13.2946 C   0  0  0  0  0  0  0  0  0  0  0  0
   14.3904  -10.4137  -14.3023 C   0  0  0  0  0  0  0  0  0  0  0  0
   15.8173  -10.7939  -14.4914 C   0  0  2  0  0  0  0  0  0  0  0  0
   15.9960  -12.1782  -14.1075 N   0  0  0  0  0  0  0  0  0  0  0  0
   16.7855   -9.9344  -13.7648 C   0  0  0  0  0  0  0  0  0  0  0  0
   17.8719  -10.4232  -13.3477 O   0  0  0  0  0  0  0  0  0  0  0  0
   13.2367  -12.5566  -13.6475 C   0  0  0  0  0  0  0  0  0  0  0  0
   12.6838  -13.4292  -12.7390 C   0  0  0  0  0  0  0  0  0  0  0  0
   22.0910   -9.3483  -12.5652 C   0  0  0  0  0  0  0  0  0  0  0  0
   20.6815   -8.2084  -12.5915 S   0  0  0  0  0  0  0  0  0  0  0  0
   19.6532   -8.5476  -14.0659 C   0  0  0  0  0  0  0  0  0  0  0  0
   18.5987   -7.4804  -14.1686 C   0  0  0  0  0  0  0  0  0  0  0  0
   17.5476   -7.6125  -13.0943 C   0  0  2  0  0  0  0  0  0  0  0  0
   16.5488   -8.5591  -13.5074 N   0  0  0  0  0  0  0  0  0  0  0  0
   16.9283   -6.2838  -12.8145 C   0  0  0  0  0  0  0  0  0  0  0  0
   16.1409   -5.8101  -13.6444 O   0  0  0  0  0  0  0  0  0  0  0  0
   11.5591   -5.2230   -6.1972 O   0  0  0  0  0  0  0  0  0  0  0  0
   12.5528   -5.5217   -7.1487 C   0  0  0  0  0  0  0  0  0  0  0  0
   13.8927   -5.4419   -6.8385 C   0  0  0  0  0  0  0  0  0  0  0  0
   14.8575   -5.7376   -7.7818 C   0  0  0  0  0  0  0  0  0  0  0  0
   14.5283   -6.1188   -9.0545 C   0  0  0  0  0  0  0  0  0  0  0  0
   15.5301   -6.4464  -10.0985 C   0  0  0  0  0  0  0  0  0  0  0  0
   16.1911   -5.2084  -10.6650 C   0  0  2  0  0  0  0  0  0  0  0  0
   17.2009   -5.5443  -11.6443 N   0  0  0  0  0  0  0  0  0  0  0  0
   16.6831   -4.2976   -9.6203 C   0  0  0  0  0  0  0  0  0  0  0  0
   15.8668   -3.2519   -9.1631 O   0  0  0  0  0  0  0  0  0  0  0  0
   13.1960   -6.2026   -9.3782 C   0  0  0  0  0  0  0  0  0  0  0  0
   12.2413   -5.9068   -8.4330 C   0  0  0  0  0  0  0  0  0  0  0  0
   17.8104   -4.3834   -9.0881 O   0  0  0  0  0  0  0  0  0  0  0  0
  2  1  1  0
  3  2  2  0
  4  3  1  0
  5  4  2  0
  5 11  1  0
  6  5  1  0
  7  6  1  0
  7  8  1  1
  9  7  1  0
  9 10  2  0
 11 12  2  0
 12  2  1  0
 13 14  1  0
 14 15  1  0
 15 16  1  0
 17 16  1  6
 17 19  1  0
 17 18  1  0
 18  9  1  0
 19 28  1  0
 20 19  2  0
 22 21  1  0
 22 32  2  0
 23 22  1  0
 24 23  2  0
 24 25  1  0
 25 31  2  0
 26 25  1  0
 27 26  1  1
 27 29  1  0
 28 27  1  0
 29 33  2  0
 29 30  1  0
 31 32  1  0
M  END
$$$$
