YMY.pdb
     RDKit          3D

 33 34  0  0  1  0  0  0  0  0999 V2000
   16.7186  -24.2282  -14.3468 O   0  0  0  0  0  0  0  0  0  0  0  0
   17.9364  -23.5508  -14.3124 C   0  0  0  0  0  0  0  0  0  0  0  0
   17.9951  -22.1849  -14.5019 C   0  0  0  0  0  0  0  0  0  0  0  0
   19.1915  -21.5137  -14.4681 C   0  0  0  0  0  0  0  0  0  0  0  0
   20.3985  -22.1870  -14.2406 C   0  0  0  0  0  0  0  0  0  0  0  0
   21.7017  -21.4562  -14.2009 C   0  0  0  0  0  0  0  0  0  0  0  0
   22.1333  -21.3598  -12.7793 C   0  0  2  0  0  0  0  0  0  0  0  0
   21.1338  -20.6318  -12.0267 N   0  0  0  0  0  0  0  0  0  0  0  0
   23.4694  -20.7434  -12.5814 C   0  0  0  0  0  0  0  0  0  0  0  0
   23.6157  -19.4981  -12.7248 O   0  0  0  0  0  0  0  0  0  0  0  0
   20.3117  -23.5534  -14.0541 C   0  0  0  0  0  0  0  0  0  0  0  0
   19.1247  -24.2481  -14.0835 C   0  0  0  0  0  0  0  0  0  0  0  0
   28.3317  -21.3129   -8.3190 C   0  0  0  0  0  0  0  0  0  0  0  0
   26.7914  -20.3584   -8.2647 S   0  0  0  0  0  0  0  0  0  0  0  0
   25.6809  -20.9201   -9.6053 C   0  0  0  0  0  0  0  0  0  0  0  0
   26.5237  -21.3826  -10.7615 C   0  0  0  0  0  0  0  0  0  0  0  0
   25.9457  -20.9650  -12.0911 C   0  0  2  0  0  0  0  0  0  0  0  0
   24.6190  -21.4984  -12.2318 N   0  0  0  0  0  0  0  0  0  0  0  0
   26.8219  -21.4359  -13.2036 C   0  0  0  0  0  0  0  0  0  0  0  0
   26.9430  -22.6543  -13.3879 O   0  0  0  0  0  0  0  0  0  0  0  0
   24.3586  -19.1237  -21.0963 O   0  0  0  0  0  0  0  0  0  0  0  0
   24.6971  -19.4181  -19.7619 C   0  0  0  0  0  0  0  0  0  0  0  0
   25.2372  -20.6352  -19.4087 C   0  0  0  0  0  0  0  0  0  0  0  0
   25.5647  -20.9110  -18.0954 C   0  0  0  0  0  0  0  0  0  0  0  0
   25.3683  -19.9965  -17.0962 C   0  0  0  0  0  0  0  0  0  0  0  0
   25.7059  -20.2491  -15.6739 C   0  0  0  0  0  0  0  0  0  0  0  0
   27.1975  -20.3828  -15.4554 C   0  0  2  0  0  0  0  0  0  0  0  0
   27.5179  -20.5523  -14.0553 N   0  0  0  0  0  0  0  0  0  0  0  0
   27.9651  -19.3034  -16.0948 C   0  0  0  0  0  0  0  0  0  0  0  0
   27.9791  -18.0221  -15.5231 O   0  0  0  0  0  0  0  0  0  0  0  0
   24.8303  -18.7784  -17.4336 C   0  0  0  0  0  0  0  0  0  0  0  0
   24.5072  -18.5114  -18.7438 C   0  0  0  0  0  0  0  0  0  0  0  0
   28.6295  -19.4408  -17.1441 O   0  0  0  0  0  0  0  0  0  0  0  0
  2  1  1  0
  3  2  2  0
  4  3  1  0
  5  4  2  0
  5 11  1  0
  6  5  1  0
  7  6  1  0
  7  8  1  1
  9  7  1  0
  9 10  2  0
 11 12  2  0
 12  2  1  0
 13 14  1  0
 14 15  1  0
 15 16  1  0
 17 16  1  1
 17 19  1  0
 17 18  1  0
 18  9  1  0
 19 28  1  0
 20 19  2  0
 22 21  1  0
 22 32  2  0
 23 22  1  0
 24 23  2  0
 24 25  1  0
 25 31  2  0
 26 25  1  0
 27 26  1  1
 27 29  1  0
 28 27  1  0
 29 33  2  0
 29 30  1  0
 31 32  1  0
M  END
$$$$
