YMY.pdb
     RDKit          3D

 33 34  0  0  1  0  0  0  0  0999 V2000
   28.8338  -28.3939  -16.5946 O   0  0  0  0  0  0  0  0  0  0  0  0
   28.1845  -27.1639  -16.5017 C   0  0  0  0  0  0  0  0  0  0  0  0
   28.7197  -26.0324  -17.0833 C   0  0  0  0  0  0  0  0  0  0  0  0
   28.0837  -24.8197  -16.9952 C   0  0  0  0  0  0  0  0  0  0  0  0
   26.8684  -24.6822  -16.3126 C   0  0  0  0  0  0  0  0  0  0  0  0
   26.1737  -23.3621  -16.2186 C   0  0  0  0  0  0  0  0  0  0  0  0
   24.8696  -23.4757  -16.9277 C   0  0  2  0  0  0  0  0  0  0  0  0
   25.1110  -23.7789  -18.3224 N   0  0  0  0  0  0  0  0  0  0  0  0
   23.9977  -22.2799  -16.8096 C   0  0  0  0  0  0  0  0  0  0  0  0
   23.6918  -21.8339  -15.6692 O   0  0  0  0  0  0  0  0  0  0  0  0
   26.3546  -25.8299  -15.7398 C   0  0  0  0  0  0  0  0  0  0  0  0
   26.9733  -27.0563  -15.8145 C   0  0  0  0  0  0  0  0  0  0  0  0
   23.1769  -18.5751  -21.8962 C   0  0  0  0  0  0  0  0  0  0  0  0
   21.8781  -17.7663  -20.9237 S   0  0  0  0  0  0  0  0  0  0  0  0
   21.8591  -18.4665  -19.2339 C   0  0  0  0  0  0  0  0  0  0  0  0
   22.6036  -19.7730  -19.2497 C   0  0  0  0  0  0  0  0  0  0  0  0
   22.6680  -20.4087  -17.8830 C   0  0  2  0  0  0  0  0  0  0  0  0
   23.4765  -21.5951  -17.9380 N   0  0  0  0  0  0  0  0  0  0  0  0
   21.2932  -20.7319  -17.4007 C   0  0  0  0  0  0  0  0  0  0  0  0
   20.7057  -21.7046  -17.8924 O   0  0  0  0  0  0  0  0  0  0  0  0
   13.5415  -17.3178  -18.4335 O   0  0  0  0  0  0  0  0  0  0  0  0
   14.8774  -17.7438  -18.3073 C   0  0  0  0  0  0  0  0  0  0  0  0
   15.2608  -19.0207  -18.6542 C   0  0  0  0  0  0  0  0  0  0  0  0
   16.5751  -19.4258  -18.5253 C   0  0  0  0  0  0  0  0  0  0  0  0
   17.5453  -18.5849  -18.0511 C   0  0  0  0  0  0  0  0  0  0  0  0
   18.9679  -18.9766  -17.8971 C   0  0  0  0  0  0  0  0  0  0  0  0
   19.2597  -19.5418  -16.5238 C   0  0  2  0  0  0  0  0  0  0  0  0
   20.6340  -19.9769  -16.4077 N   0  0  0  0  0  0  0  0  0  0  0  0
   18.2933  -20.5727  -16.1158 C   0  0  0  0  0  0  0  0  0  0  0  0
   17.1691  -20.2156  -15.3559 O   0  0  0  0  0  0  0  0  0  0  0  0
   17.1775  -17.3085  -17.7011 C   0  0  0  0  0  0  0  0  0  0  0  0
   15.8667  -16.9127  -17.8328 C   0  0  0  0  0  0  0  0  0  0  0  0
   18.3969  -21.7846  -16.4019 O   0  0  0  0  0  0  0  0  0  0  0  0
  2  1  1  0
  3  2  2  0
  4  3  1  0
  5  4  2  0
  5 11  1  0
  6  5  1  0
  7  6  1  0
  7  8  1  6
  9  7  1  0
  9 10  2  0
 11 12  2  0
 12  2  1  0
 13 14  1  0
 14 15  1  0
 15 16  1  0
 17 16  1  6
 17 19  1  0
 17 18  1  0
 18  9  1  0
 19 28  1  0
 20 19  2  0
 22 21  1  0
 22 32  2  0
 23 22  1  0
 24 23  2  0
 24 25  1  0
 25 31  2  0
 26 25  1  0
 27 26  1  6
 27 29  1  0
 28 27  1  0
 29 33  2  0
 29 30  1  0
 31 32  1  0
M  END
$$$$
