YMY.pdb
     RDKit          3D

 33 34  0  0  1  0  0  0  0  0999 V2000
   30.7932  -16.1079  -18.7596 O   0  0  0  0  0  0  0  0  0  0  0  0
   29.8364  -16.8954  -18.1213 C   0  0  0  0  0  0  0  0  0  0  0  0
   29.1604  -17.8856  -18.8049 C   0  0  0  0  0  0  0  0  0  0  0  0
   28.2183  -18.6639  -18.1804 C   0  0  0  0  0  0  0  0  0  0  0  0
   27.9058  -18.4843  -16.8270 C   0  0  0  0  0  0  0  0  0  0  0  0
   26.8818  -19.3334  -16.1455 C   0  0  0  0  0  0  0  0  0  0  0  0
   27.5969  -20.3501  -15.3262 C   0  0  2  0  0  0  0  0  0  0  0  0
   28.2683  -21.2836  -16.2057 N   0  0  0  0  0  0  0  0  0  0  0  0
   26.7354  -21.0844  -14.3656 C   0  0  0  0  0  0  0  0  0  0  0  0
   26.0251  -22.0478  -14.7659 O   0  0  0  0  0  0  0  0  0  0  0  0
   28.5967  -17.4866  -16.1662 C   0  0  0  0  0  0  0  0  0  0  0  0
   29.5451  -16.6940  -16.7702 C   0  0  0  0  0  0  0  0  0  0  0  0
   27.1126  -20.8539   -7.7877 C   0  0  0  0  0  0  0  0  0  0  0  0
   25.3583  -20.4803   -8.0515 S   0  0  0  0  0  0  0  0  0  0  0  0
   24.8570  -21.0583   -9.7130 C   0  0  0  0  0  0  0  0  0  0  0  0
   25.9244  -20.6667  -10.6972 C   0  0  0  0  0  0  0  0  0  0  0  0
   25.6613  -21.2233  -12.0746 C   0  0  2  0  0  0  0  0  0  0  0  0
   26.6656  -20.7522  -12.9877 N   0  0  0  0  0  0  0  0  0  0  0  0
   24.3003  -20.8244  -12.5392 C   0  0  0  0  0  0  0  0  0  0  0  0
   24.0822  -19.6293  -12.7788 O   0  0  0  0  0  0  0  0  0  0  0  0
   16.0422  -20.8949  -15.6868 O   0  0  0  0  0  0  0  0  0  0  0  0
   17.3580  -21.2334  -15.3181 C   0  0  0  0  0  0  0  0  0  0  0  0
   18.4478  -20.6424  -15.9186 C   0  0  0  0  0  0  0  0  0  0  0  0
   19.7337  -20.9840  -15.5473 C   0  0  0  0  0  0  0  0  0  0  0  0
   19.9799  -21.9165  -14.5762 C   0  0  0  0  0  0  0  0  0  0  0  0
   21.3429  -22.3131  -14.1453 C   0  0  0  0  0  0  0  0  0  0  0  0
   21.9130  -21.3676  -13.1101 C   0  0  2  0  0  0  0  0  0  0  0  0
   23.2513  -21.7507  -12.7181 N   0  0  0  0  0  0  0  0  0  0  0  0
   21.0125  -21.1686  -11.9643 C   0  0  0  0  0  0  0  0  0  0  0  0
   20.1559  -20.0577  -11.9329 O   0  0  0  0  0  0  0  0  0  0  0  0
   18.9027  -22.5144  -13.9686 C   0  0  0  0  0  0  0  0  0  0  0  0
   17.6253  -22.1684  -14.3438 C   0  0  0  0  0  0  0  0  0  0  0  0
   20.9469  -21.9371  -10.9812 O   0  0  0  0  0  0  0  0  0  0  0  0
  2  1  1  0
  3  2  2  0
  4  3  1  0
  5  4  2  0
  5 11  1  0
  6  5  1  0
  7  6  1  0
  7  8  1  6
  9  7  1  0
  9 10  2  0
 11 12  2  0
 12  2  1  0
 13 14  1  0
 14 15  1  0
 15 16  1  0
 17 16  1  1
 17 19  1  0
 17 18  1  0
 18  9  1  0
 19 28  1  0
 20 19  2  0
 22 21  1  0
 22 32  2  0
 23 22  1  0
 24 23  2  0
 24 25  1  0
 25 31  2  0
 26 25  1  0
 27 26  1  6
 27 29  1  0
 28 27  1  0
 29 33  2  0
 29 30  1  0
 31 32  1  0
M  END
$$$$
