YMY.pdb
     RDKit          3D

 33 34  0  0  1  0  0  0  0  0999 V2000
   20.6805  -14.7523  -24.5670 O   0  0  0  0  0  0  0  0  0  0  0  0
   20.7361  -14.0597  -23.3586 C   0  0  0  0  0  0  0  0  0  0  0  0
   19.6147  -13.9235  -22.5657 C   0  0  0  0  0  0  0  0  0  0  0  0
   19.6648  -13.2433  -21.3749 C   0  0  0  0  0  0  0  0  0  0  0  0
   20.8540  -12.6611  -20.9179 C   0  0  0  0  0  0  0  0  0  0  0  0
   20.9100  -11.9225  -19.6197 C   0  0  0  0  0  0  0  0  0  0  0  0
   21.9428  -12.5699  -18.7649 C   0  0  2  0  0  0  0  0  0  0  0  0
   21.5144  -13.9128  -18.4353 N   0  0  0  0  0  0  0  0  0  0  0  0
   22.2744  -11.8221  -17.5259 C   0  0  0  0  0  0  0  0  0  0  0  0
   21.4604  -11.8091  -16.5615 O   0  0  0  0  0  0  0  0  0  0  0  0
   21.9614  -12.8122  -21.7304 C   0  0  0  0  0  0  0  0  0  0  0  0
   21.9360  -13.4893  -22.9276 C   0  0  0  0  0  0  0  0  0  0  0  0
   28.0902  -13.4848  -14.7409 C   0  0  0  0  0  0  0  0  0  0  0  0
   27.5754  -11.8879  -15.4277 S   0  0  0  0  0  0  0  0  0  0  0  0
   25.7507  -11.8368  -15.5449 C   0  0  0  0  0  0  0  0  0  0  0  0
   25.3376  -10.4534  -15.9656 C   0  0  0  0  0  0  0  0  0  0  0  0
   23.8503  -10.3485  -16.1970 C   0  0  2  0  0  0  0  0  0  0  0  0
   23.4871  -11.1030  -17.3644 N   0  0  0  0  0  0  0  0  0  0  0  0
   23.4536   -8.9181  -16.3516 C   0  0  0  0  0  0  0  0  0  0  0  0
   23.8446   -8.2989  -17.3500 O   0  0  0  0  0  0  0  0  0  0  0  0
   16.2194   -8.9750  -16.8699 O   0  0  0  0  0  0  0  0  0  0  0  0
   17.5075   -8.4071  -16.8769 C   0  0  0  0  0  0  0  0  0  0  0  0
   17.7405   -7.1467  -16.3722 C   0  0  0  0  0  0  0  0  0  0  0  0
   19.0096   -6.6013  -16.3854 C   0  0  0  0  0  0  0  0  0  0  0  0
   20.0815   -7.2821  -16.8963 C   0  0  0  0  0  0  0  0  0  0  0  0
   21.4605   -6.7363  -16.9301 C   0  0  0  0  0  0  0  0  0  0  0  0
   22.1692   -6.8911  -15.6018 C   0  0  2  0  0  0  0  0  0  0  0  0
   22.6511   -8.2410  -15.4091 N   0  0  0  0  0  0  0  0  0  0  0  0
   21.3699   -6.3983  -14.4698 C   0  0  0  0  0  0  0  0  0  0  0  0
   21.0031   -5.0453  -14.4094 O   0  0  0  0  0  0  0  0  0  0  0  0
   19.8640   -8.5401  -17.4033 C   0  0  0  0  0  0  0  0  0  0  0  0
   18.5974   -9.0763  -17.3861 C   0  0  0  0  0  0  0  0  0  0  0  0
   20.9773   -7.1137  -13.5235 O   0  0  0  0  0  0  0  0  0  0  0  0
  2  1  1  0
  3  2  2  0
  4  3  1  0
  5  4  2  0
  5 11  1  0
  6  5  1  0
  7  6  1  0
  7  8  1  1
  9  7  1  0
  9 10  2  0
 11 12  2  0
 12  2  1  0
 13 14  1  0
 14 15  1  0
 15 16  1  0
 17 16  1  6
 17 19  1  0
 17 18  1  0
 18  9  1  0
 19 28  1  0
 20 19  2  0
 22 21  1  0
 22 32  2  0
 23 22  1  0
 24 23  2  0
 24 25  1  0
 25 31  2  0
 26 25  1  0
 27 26  1  6
 27 29  1  0
 28 27  1  0
 29 33  2  0
 29 30  1  0
 31 32  1  0
M  END
$$$$
