YMY.pdb
     RDKit          3D

 33 34  0  0  1  0  0  0  0  0999 V2000
   14.2368  -15.8257  -16.1079 O   0  0  0  0  0  0  0  0  0  0  0  0
   15.2220  -14.8693  -16.3482 C   0  0  0  0  0  0  0  0  0  0  0  0
   15.3688  -13.7765  -15.5181 C   0  0  0  0  0  0  0  0  0  0  0  0
   16.3378  -12.8330  -15.7503 C   0  0  0  0  0  0  0  0  0  0  0  0
   17.2146  -12.9412  -16.8372 C   0  0  0  0  0  0  0  0  0  0  0  0
   18.2720  -11.9154  -17.0891 C   0  0  0  0  0  0  0  0  0  0  0  0
   17.6063  -10.6779  -17.5809 C   0  0  2  0  0  0  0  0  0  0  0  0
   16.9768  -10.9505  -18.8556 N   0  0  0  0  0  0  0  0  0  0  0  0
   18.5028   -9.5002  -17.6966 C   0  0  0  0  0  0  0  0  0  0  0  0
   19.1226   -9.2842  -18.7746 O   0  0  0  0  0  0  0  0  0  0  0  0
   17.0462  -14.0443  -17.6522 C   0  0  0  0  0  0  0  0  0  0  0  0
   16.0828  -15.0031  -17.4400 C   0  0  0  0  0  0  0  0  0  0  0  0
   15.8440   -3.4041  -16.8583 C   0  0  0  0  0  0  0  0  0  0  0  0
   17.0044   -4.3261  -15.8144 S   0  0  0  0  0  0  0  0  0  0  0  0
   17.7957   -5.6455  -16.8039 C   0  0  0  0  0  0  0  0  0  0  0  0
   18.8876   -6.2706  -15.9805 C   0  0  0  0  0  0  0  0  0  0  0  0
   19.5513   -7.4223  -16.6942 C   0  0  2  0  0  0  0  0  0  0  0  0
   18.7056   -8.5822  -16.6335 N   0  0  0  0  0  0  0  0  0  0  0  0
   20.8814   -7.7094  -16.0814 C   0  0  0  0  0  0  0  0  0  0  0  0
   20.9543   -8.5794  -15.2033 O   0  0  0  0  0  0  0  0  0  0  0  0
   28.8294  -10.9592  -16.0662 O   0  0  0  0  0  0  0  0  0  0  0  0
   27.5108  -10.4816  -16.1887 C   0  0  0  0  0  0  0  0  0  0  0  0
   26.5902  -10.6441  -15.1768 C   0  0  0  0  0  0  0  0  0  0  0  0
   25.2993  -10.1707  -15.3102 C   0  0  0  0  0  0  0  0  0  0  0  0
   24.8814   -9.5261  -16.4430 C   0  0  0  0  0  0  0  0  0  0  0  0
   23.5065   -9.0010  -16.6290 C   0  0  0  0  0  0  0  0  0  0  0  0
   23.3871   -7.5511  -16.2117 C   0  0  2  0  0  0  0  0  0  0  0  0
   22.0600   -7.0327  -16.4601 N   0  0  0  0  0  0  0  0  0  0  0  0
   24.4500   -6.7068  -16.7780 C   0  0  0  0  0  0  0  0  0  0  0  0
   24.1272   -5.7044  -17.7052 O   0  0  0  0  0  0  0  0  0  0  0  0
   25.7886   -9.3571  -17.4605 C   0  0  0  0  0  0  0  0  0  0  0  0
   27.0723   -9.8311  -17.3197 C   0  0  0  0  0  0  0  0  0  0  0  0
   25.6609   -6.8146  -16.4892 O   0  0  0  0  0  0  0  0  0  0  0  0
  2  1  1  0
  3  2  2  0
  4  3  1  0
  5  4  2  0
  5 11  1  0
  6  5  1  0
  7  6  1  0
  7  8  1  6
  9  7  1  0
  9 10  2  0
 11 12  2  0
 12  2  1  0
 13 14  1  0
 14 15  1  0
 15 16  1  0
 17 16  1  1
 17 19  1  0
 17 18  1  0
 18  9  1  0
 19 28  1  0
 20 19  2  0
 22 21  1  0
 22 32  2  0
 23 22  1  0
 24 23  2  0
 24 25  1  0
 25 31  2  0
 26 25  1  0
 27 26  1  6
 27 29  1  0
 28 27  1  0
 29 33  2  0
 29 30  1  0
 31 32  1  0
M  END
$$$$
