YMY.pdb
     RDKit          3D

 33 34  0  0  1  0  0  0  0  0999 V2000
   33.8400   -8.9271  -18.8157 O   0  0  0  0  0  0  0  0  0  0  0  0
   32.4694   -8.8442  -18.5759 C   0  0  0  0  0  0  0  0  0  0  0  0
   31.7220   -7.7989  -19.0796 C   0  0  0  0  0  0  0  0  0  0  0  0
   30.3724   -7.7136  -18.8468 C   0  0  0  0  0  0  0  0  0  0  0  0
   29.7009   -8.6821  -18.0899 C   0  0  0  0  0  0  0  0  0  0  0  0
   28.2304   -8.5912  -17.8383 C   0  0  0  0  0  0  0  0  0  0  0  0
   27.6138   -9.8873  -18.2340 C   0  0  2  0  0  0  0  0  0  0  0  0
   27.7447  -10.0594  -19.6653 N   0  0  0  0  0  0  0  0  0  0  0  0
   26.1938  -10.0431  -17.8296 C   0  0  0  0  0  0  0  0  0  0  0  0
   25.2749   -9.6073  -18.5770 O   0  0  0  0  0  0  0  0  0  0  0  0
   30.4721   -9.7175  -17.5976 C   0  0  0  0  0  0  0  0  0  0  0  0
   31.8259   -9.8247  -17.8174 C   0  0  0  0  0  0  0  0  0  0  0  0
   20.2840  -12.8370  -15.3097 C   0  0  0  0  0  0  0  0  0  0  0  0
   21.9513  -12.4352  -15.8972 S   0  0  0  0  0  0  0  0  0  0  0  0
   22.9897  -11.9287  -14.4790 C   0  0  0  0  0  0  0  0  0  0  0  0
   24.3959  -11.7174  -14.9679 C   0  0  0  0  0  0  0  0  0  0  0  0
   24.4580  -10.7503  -16.1243 C   0  0  2  0  0  0  0  0  0  0  0  0
   25.8050  -10.6705  -16.6176 N   0  0  0  0  0  0  0  0  0  0  0  0
   23.9748   -9.4049  -15.6960 C   0  0  0  0  0  0  0  0  0  0  0  0
   24.6983   -8.7221  -14.9587 O   0  0  0  0  0  0  0  0  0  0  0  0
   20.3630   -1.5988  -14.3648 O   0  0  0  0  0  0  0  0  0  0  0  0
   20.9209   -2.7966  -14.8507 C   0  0  0  0  0  0  0  0  0  0  0  0
   22.0324   -3.3617  -14.2651 C   0  0  0  0  0  0  0  0  0  0  0  0
   22.5697   -4.5374  -14.7521 C   0  0  0  0  0  0  0  0  0  0  0  0
   22.0273   -5.1865  -15.8281 C   0  0  0  0  0  0  0  0  0  0  0  0
   22.5700   -6.4505  -16.3837 C   0  0  0  0  0  0  0  0  0  0  0  0
   22.1756   -7.6546  -15.5559 C   0  0  2  0  0  0  0  0  0  0  0  0
   22.7290   -8.8767  -16.0957 N   0  0  0  0  0  0  0  0  0  0  0  0
   20.7257   -7.7337  -15.3217 C   0  0  0  0  0  0  0  0  0  0  0  0
   20.1653   -7.1184  -14.1920 O   0  0  0  0  0  0  0  0  0  0  0  0
   20.9186   -4.6345  -16.4223 C   0  0  0  0  0  0  0  0  0  0  0  0
   20.3894   -3.4636  -15.9311 C   0  0  0  0  0  0  0  0  0  0  0  0
   19.9242   -8.3263  -16.0752 O   0  0  0  0  0  0  0  0  0  0  0  0
  2  1  1  0
  3  2  2  0
  4  3  1  0
  5  4  2  0
  5 11  1  0
  6  5  1  0
  7  6  1  0
  7  8  1  6
  9  7  1  0
  9 10  2  0
 11 12  2  0
 12  2  1  0
 13 14  1  0
 14 15  1  0
 15 16  1  0
 17 16  1  1
 17 19  1  0
 17 18  1  0
 18  9  1  0
 19 28  1  0
 20 19  2  0
 22 21  1  0
 22 32  2  0
 23 22  1  0
 24 23  2  0
 24 25  1  0
 25 31  2  0
 26 25  1  0
 27 26  1  6
 27 29  1  0
 28 27  1  0
 29 33  2  0
 29 30  1  0
 31 32  1  0
M  END
$$$$
