YMY.pdb
     RDKit          3D

 33 34  0  0  1  0  0  0  0  0999 V2000
   26.0018  -29.4255  -21.7833 O   0  0  0  0  0  0  0  0  0  0  0  0
   25.9121  -28.6727  -20.6136 C   0  0  0  0  0  0  0  0  0  0  0  0
   25.5912  -27.3310  -20.6551 C   0  0  0  0  0  0  0  0  0  0  0  0
   25.5010  -26.5862  -19.5061 C   0  0  0  0  0  0  0  0  0  0  0  0
   25.7308  -27.1570  -18.2478 C   0  0  0  0  0  0  0  0  0  0  0  0
   25.6300  -26.3470  -16.9957 C   0  0  0  0  0  0  0  0  0  0  0  0
   26.8767  -25.5440  -16.8642 C   0  0  2  0  0  0  0  0  0  0  0  0
   27.9217  -26.3754  -16.3054 N   0  0  0  0  0  0  0  0  0  0  0  0
   26.7289  -24.3033  -16.0623 C   0  0  0  0  0  0  0  0  0  0  0  0
   26.9530  -24.3259  -14.8204 O   0  0  0  0  0  0  0  0  0  0  0  0
   26.0503  -28.5013  -18.2344 C   0  0  0  0  0  0  0  0  0  0  0  0
   26.1466  -29.2685  -19.3722 C   0  0  0  0  0  0  0  0  0  0  0  0
   29.1793  -18.5466  -17.2838 C   0  0  0  0  0  0  0  0  0  0  0  0
   27.4562  -18.0840  -16.9619 S   0  0  0  0  0  0  0  0  0  0  0  0
   26.6562  -19.3841  -15.9541 C   0  0  0  0  0  0  0  0  0  0  0  0
   26.8089  -20.7008  -16.6642 C   0  0  0  0  0  0  0  0  0  0  0  0
   26.1716  -21.8365  -15.9023 C   0  0  2  0  0  0  0  0  0  0  0  0
   26.3388  -23.0632  -16.6313 N   0  0  0  0  0  0  0  0  0  0  0  0
   24.7241  -21.5543  -15.6740 C   0  0  0  0  0  0  0  0  0  0  0  0
   23.9358  -21.6980  -16.6180 O   0  0  0  0  0  0  0  0  0  0  0  0
   16.9703  -19.8977  -11.7196 O   0  0  0  0  0  0  0  0  0  0  0  0
   18.3481  -20.0319  -11.9757 C   0  0  0  0  0  0  0  0  0  0  0  0
   19.1467  -18.9336  -12.2075 C   0  0  0  0  0  0  0  0  0  0  0  0
   20.4974  -19.0795  -12.4576 C   0  0  0  0  0  0  0  0  0  0  0  0
   21.0963  -20.3098  -12.4868 C   0  0  0  0  0  0  0  0  0  0  0  0
   22.5420  -20.5132  -12.7503 C   0  0  0  0  0  0  0  0  0  0  0  0
   22.8203  -20.8178  -14.2064 C   0  0  2  0  0  0  0  0  0  0  0  0
   24.2146  -21.1313  -14.4282 N   0  0  0  0  0  0  0  0  0  0  0  0
   22.3137  -19.7758  -15.1124 C   0  0  0  0  0  0  0  0  0  0  0  0
   21.0590  -19.9288  -15.7218 O   0  0  0  0  0  0  0  0  0  0  0  0
   20.3122  -21.4141  -12.2576 C   0  0  0  0  0  0  0  0  0  0  0  0
   18.9680  -21.2604  -12.0088 C   0  0  0  0  0  0  0  0  0  0  0  0
   22.9333  -18.7277  -15.3931 O   0  0  0  0  0  0  0  0  0  0  0  0
  2  1  1  0
  3  2  2  0
  4  3  1  0
  5  4  2  0
  5 11  1  0
  6  5  1  0
  7  6  1  0
  7  8  1  1
  9  7  1  0
  9 10  2  0
 11 12  2  0
 12  2  1  0
 13 14  1  0
 14 15  1  0
 15 16  1  0
 17 16  1  6
 17 19  1  0
 17 18  1  0
 18  9  1  0
 19 28  1  0
 20 19  2  0
 22 21  1  0
 22 32  2  0
 23 22  1  0
 24 23  2  0
 24 25  1  0
 25 31  2  0
 26 25  1  0
 27 26  1  1
 27 29  1  0
 28 27  1  0
 29 33  2  0
 29 30  1  0
 31 32  1  0
M  END
$$$$
