YMY.pdb
     RDKit          3D

 33 34  0  0  1  0  0  0  0  0999 V2000
   28.7827  -15.1738  -17.7421 O   0  0  0  0  0  0  0  0  0  0  0  0
   28.1403  -16.1538  -16.9870 C   0  0  0  0  0  0  0  0  0  0  0  0
   27.9063  -15.9722  -15.6390 C   0  0  0  0  0  0  0  0  0  0  0  0
   27.2736  -16.9338  -14.8920 C   0  0  0  0  0  0  0  0  0  0  0  0
   26.8412  -18.1357  -15.4668 C   0  0  0  0  0  0  0  0  0  0  0  0
   26.1495  -19.1823  -14.6543 C   0  0  0  0  0  0  0  0  0  0  0  0
   27.1891  -19.9759  -13.9430 C   0  0  2  0  0  0  0  0  0  0  0  0
   27.9535  -20.7345  -14.9104 N   0  0  0  0  0  0  0  0  0  0  0  0
   26.6614  -20.8787  -12.8892 C   0  0  0  0  0  0  0  0  0  0  0  0
   26.2331  -22.0249  -13.1986 O   0  0  0  0  0  0  0  0  0  0  0  0
   27.0878  -18.2920  -16.8173 C   0  0  0  0  0  0  0  0  0  0  0  0
   27.7198  -17.3430  -17.5869 C   0  0  0  0  0  0  0  0  0  0  0  0
   26.8428  -20.3039   -6.3175 C   0  0  0  0  0  0  0  0  0  0  0  0
   28.2535  -20.9440   -7.2590 S   0  0  0  0  0  0  0  0  0  0  0  0
   27.7204  -21.3291   -8.9659 C   0  0  0  0  0  0  0  0  0  0  0  0
   26.3129  -20.8330   -9.1502 C   0  0  0  0  0  0  0  0  0  0  0  0
   25.7778  -21.1355  -10.5281 C   0  0  2  0  0  0  0  0  0  0  0  0
   26.6110  -20.5126  -11.5191 N   0  0  0  0  0  0  0  0  0  0  0  0
   24.3696  -20.6566  -10.6496 C   0  0  0  0  0  0  0  0  0  0  0  0
   24.1188  -19.4760  -10.3732 O   0  0  0  0  0  0  0  0  0  0  0  0
   18.7651  -18.2645  -16.5758 O   0  0  0  0  0  0  0  0  0  0  0  0
   19.7715  -18.7725  -15.7327 C   0  0  0  0  0  0  0  0  0  0  0  0
   20.3140  -18.0113  -14.7207 C   0  0  0  0  0  0  0  0  0  0  0  0
   21.3012  -18.5222  -13.9006 C   0  0  0  0  0  0  0  0  0  0  0  0
   21.7803  -19.7948  -14.0560 C   0  0  0  0  0  0  0  0  0  0  0  0
   22.8378  -20.3845  -13.1989 C   0  0  0  0  0  0  0  0  0  0  0  0
   22.2676  -21.0577  -11.9692 C   0  0  2  0  0  0  0  0  0  0  0  0
   23.3113  -21.4912  -11.0668 N   0  0  0  0  0  0  0  0  0  0  0  0
   21.3106  -22.1253  -12.2973 C   0  0  0  0  0  0  0  0  0  0  0  0
   19.9373  -21.9191  -12.0966 O   0  0  0  0  0  0  0  0  0  0  0  0
   21.2488  -20.5655  -15.0613 C   0  0  0  0  0  0  0  0  0  0  0  0
   20.2657  -20.0496  -15.8734 C   0  0  0  0  0  0  0  0  0  0  0  0
   21.6341  -23.2413  -12.7570 O   0  0  0  0  0  0  0  0  0  0  0  0
  2  1  1  0
  3  2  2  0
  4  3  1  0
  5  4  2  0
  5 11  1  0
  6  5  1  0
  7  6  1  0
  7  8  1  6
  9  7  1  0
  9 10  2  0
 11 12  2  0
 12  2  1  0
 13 14  1  0
 14 15  1  0
 15 16  1  0
 17 16  1  1
 17 19  1  0
 17 18  1  0
 18  9  1  0
 19 28  1  0
 20 19  2  0
 22 21  1  0
 22 32  2  0
 23 22  1  0
 24 23  2  0
 24 25  1  0
 25 31  2  0
 26 25  1  0
 27 26  1  6
 27 29  1  0
 28 27  1  0
 29 33  2  0
 29 30  1  0
 31 32  1  0
M  END
$$$$
