CNI.pdb
     RDKit          3D

 23 22  0  0  1  0  0  0  0  0999 V2000
   28.4328  -22.2950  -15.9486 N   0  0  0  0  0  0  0  0  0  0  0  0
   27.9402  -21.0575  -15.3768 C   0  0  1  0  0  0  0  0  0  0  0  0
   27.7652  -20.0871  -16.5517 C   0  0  0  0  0  0  0  0  0  0  0  0
   27.3556  -18.4732  -15.8017 S   0  0  0  0  0  0  0  0  0  0  0  0
   26.6455  -21.2689  -14.6846 C   0  0  0  0  0  0  0  0  0  0  0  0
   25.7900  -22.0786  -15.1117 O   0  0  0  0  0  0  0  0  0  0  0  0
   26.1021  -22.4148  -10.9526 N   0  0  0  0  0  0  0  0  0  0  0  0
   25.8707  -21.1023  -10.5010 C   0  0  0  0  0  0  0  0  0  0  0  0
   26.1862  -20.8608   -9.2967 O   0  0  0  0  0  0  0  0  0  0  0  0
   25.2962  -20.1077  -11.4090 C   0  0  0  0  0  0  0  0  0  0  0  0
   25.1493  -20.6844  -12.7721 C   0  0  2  0  0  0  0  0  0  0  0  0
   26.3602  -20.5401  -13.5081 N   0  0  0  0  0  0  0  0  0  0  0  0
   23.9703  -20.1115  -13.5026 C   0  0  0  0  0  0  0  0  0  0  0  0
   24.0634  -18.9238  -13.8751 O   0  0  0  0  0  0  0  0  0  0  0  0
   20.5000  -20.6975  -18.1089 C   0  0  0  0  0  0  0  0  0  0  0  0
   20.3462  -20.3062  -16.6514 C   0  0  0  0  0  0  0  0  0  0  0  0
   21.5644  -20.8256  -15.9134 C   0  0  2  0  0  0  0  0  0  0  0  0
   21.5313  -22.3256  -16.0764 C   0  0  0  0  0  0  0  0  0  0  0  0
   21.6241  -20.4568  -14.4746 C   0  0  2  0  0  0  0  0  0  0  0  0
   22.8136  -20.8412  -13.7686 N   0  0  0  0  0  0  0  0  0  0  0  0
   20.3944  -20.7295  -13.7689 C   0  0  0  0  0  0  0  0  0  0  0  0
   20.3198  -21.4829  -12.7838 O   0  0  0  0  0  0  0  0  0  0  0  0
   19.2030  -20.1153  -14.2082 O   0  0  0  0  0  0  0  0  0  0  0  0
  2  1  1  6
  2  5  1  0
  3  2  1  0
  4  3  1  0
  5 12  1  0
  6  5  2  0
  7  8  1  0
  8  9  2  0
 10  8  1  0
 11 13  1  0
 11 10  1  1
 12 11  1  0
 13 14  2  0
 16 15  1  0
 17 16  1  0
 17 18  1  1
 19 17  1  0
 20 13  1  0
 19 20  1  1
 21 19  1  0
 22 21  2  0
 23 21  1  0
M  END
$$$$
