CNI.pdb
     RDKit          3D

 23 22  0  0  1  0  0  0  0  0999 V2000
   18.0764  -13.2028  -19.5221 N   0  0  0  0  0  0  0  0  0  0  0  0
   19.5075  -13.0662  -19.3363 C   0  0  1  0  0  0  0  0  0  0  0  0
   20.1453  -13.4036  -20.6898 C   0  0  0  0  0  0  0  0  0  0  0  0
   20.0860  -15.2240  -20.8228 S   0  0  0  0  0  0  0  0  0  0  0  0
   19.8621  -11.6849  -18.9285 C   0  0  0  0  0  0  0  0  0  0  0  0
   21.0432  -11.3504  -18.6774 O   0  0  0  0  0  0  0  0  0  0  0  0
   17.3376   -6.0816  -18.9076 N   0  0  0  0  0  0  0  0  0  0  0  0
   18.3127   -7.0742  -18.6980 C   0  0  0  0  0  0  0  0  0  0  0  0
   19.4429   -6.6710  -18.2877 O   0  0  0  0  0  0  0  0  0  0  0  0
   17.9914   -8.4796  -18.9536 C   0  0  0  0  0  0  0  0  0  0  0  0
   19.0953   -9.3522  -18.4718 C   0  0  2  0  0  0  0  0  0  0  0  0
   18.8443  -10.7111  -18.8174 N   0  0  0  0  0  0  0  0  0  0  0  0
   19.3511   -9.1790  -17.0033 C   0  0  0  0  0  0  0  0  0  0  0  0
   18.4826   -9.6248  -16.2255 O   0  0  0  0  0  0  0  0  0  0  0  0
   23.2824  -10.4827  -12.9399 C   0  0  0  0  0  0  0  0  0  0  0  0
   22.3436   -9.3286  -13.2355 C   0  0  0  0  0  0  0  0  0  0  0  0
   21.9823   -9.4053  -14.7058 C   0  0  2  0  0  0  0  0  0  0  0  0
   23.2734   -9.1833  -15.4552 C   0  0  0  0  0  0  0  0  0  0  0  0
   20.9488   -8.4309  -15.1441 C   0  0  2  0  0  0  0  0  0  0  0  0
   20.4909   -8.5562  -16.4990 N   0  0  0  0  0  0  0  0  0  0  0  0
   21.2359   -7.0773  -14.7319 C   0  0  0  0  0  0  0  0  0  0  0  0
   21.3574   -6.7315  -13.5448 O   0  0  0  0  0  0  0  0  0  0  0  0
   21.3901   -6.0802  -15.7176 O   0  0  0  0  0  0  0  0  0  0  0  0
  2  1  1  6
  2  5  1  0
  3  2  1  0
  4  3  1  0
  5 12  1  0
  6  5  2  0
  7  8  1  0
  8  9  2  0
 10  8  1  0
 11 13  1  0
 11 10  1  1
 12 11  1  0
 13 14  2  0
 16 15  1  0
 17 16  1  0
 17 18  1  6
 19 17  1  0
 20 13  1  0
 19 20  1  6
 21 19  1  0
 22 21  2  0
 23 21  1  0
M  END
$$$$
