CNI.pdb
     RDKit          3D

 23 22  0  0  1  0  0  0  0  0999 V2000
   30.4904  -22.8256  -12.2611 N   0  0  0  0  0  0  0  0  0  0  0  0
   30.2300  -21.4404  -11.9224 C   0  0  1  0  0  0  0  0  0  0  0  0
   31.5833  -20.7226  -12.0016 C   0  0  0  0  0  0  0  0  0  0  0  0
   32.7010  -21.6542  -10.8981 S   0  0  0  0  0  0  0  0  0  0  0  0
   29.2666  -20.8320  -12.8720 C   0  0  0  0  0  0  0  0  0  0  0  0
   28.8687  -19.6505  -12.7468 O   0  0  0  0  0  0  0  0  0  0  0  0
   30.0717  -21.2654  -17.4105 N   0  0  0  0  0  0  0  0  0  0  0  0
   28.9173  -20.7200  -16.8190 C   0  0  0  0  0  0  0  0  0  0  0  0
   28.8043  -19.4580  -16.8715 O   0  0  0  0  0  0  0  0  0  0  0  0
   27.9318  -21.6019  -16.1908 C   0  0  0  0  0  0  0  0  0  0  0  0
   27.6971  -21.1853  -14.7824 C   0  0  2  0  0  0  0  0  0  0  0  0
   28.7779  -21.6002  -13.9526 N   0  0  0  0  0  0  0  0  0  0  0  0
   26.3711  -21.6626  -14.2667 C   0  0  0  0  0  0  0  0  0  0  0  0
   26.1422  -22.8865  -14.3540 O   0  0  0  0  0  0  0  0  0  0  0  0
   25.0189  -20.7465   -8.8354 C   0  0  0  0  0  0  0  0  0  0  0  0
   24.3226  -21.2865  -10.0701 C   0  0  0  0  0  0  0  0  0  0  0  0
   25.2484  -21.0554  -11.2481 C   0  0  2  0  0  0  0  0  0  0  0  0
   25.9625  -19.7580  -10.9574 C   0  0  0  0  0  0  0  0  0  0  0  0
   24.5704  -20.9947  -12.5696 C   0  0  2  0  0  0  0  0  0  0  0  0
   25.4198  -20.8091  -13.7121 N   0  0  0  0  0  0  0  0  0  0  0  0
   23.3880  -20.1662  -12.5617 C   0  0  0  0  0  0  0  0  0  0  0  0
   22.4199  -20.3572  -11.8068 O   0  0  0  0  0  0  0  0  0  0  0  0
   23.3107  -19.0759  -13.4533 O   0  0  0  0  0  0  0  0  0  0  0  0
  2  1  1  6
  2  5  1  0
  3  2  1  0
  4  3  1  0
  5 12  1  0
  6  5  2  0
  7  8  1  0
  8  9  2  0
 10  8  1  0
 11 13  1  0
 11 10  1  6
 12 11  1  0
 13 14  2  0
 16 15  1  0
 17 16  1  0
 17 18  1  1
 19 17  1  0
 20 13  1  0
 19 20  1  6
 21 19  1  0
 22 21  2  0
 23 21  1  0
M  END
$$$$
