CNI.pdb
     RDKit          3D

 23 22  0  0  1  0  0  0  0  0999 V2000
   23.2065  -14.7139  -16.4001 N   0  0  0  0  0  0  0  0  0  0  0  0
   22.9218  -13.5205  -17.1720 C   0  0  1  0  0  0  0  0  0  0  0  0
   21.4430  -13.6143  -17.5685 C   0  0  0  0  0  0  0  0  0  0  0  0
   21.3338  -15.0122  -18.7385 S   0  0  0  0  0  0  0  0  0  0  0  0
   23.1646  -12.2967  -16.3698 C   0  0  0  0  0  0  0  0  0  0  0  0
   22.5720  -12.0862  -15.2861 O   0  0  0  0  0  0  0  0  0  0  0  0
   27.6755  -11.3412  -16.2121 N   0  0  0  0  0  0  0  0  0  0  0  0
   26.6402  -10.6486  -15.5573 C   0  0  0  0  0  0  0  0  0  0  0  0
   26.5129  -10.8749  -14.3160 O   0  0  0  0  0  0  0  0  0  0  0  0
   25.7853   -9.7295  -16.3110 C   0  0  0  0  0  0  0  0  0  0  0  0
   24.3571  -10.1131  -16.1520 C   0  0  2  0  0  0  0  0  0  0  0  0
   24.0897  -11.3347  -16.8339 N   0  0  0  0  0  0  0  0  0  0  0  0
   23.4275   -9.0133  -16.5741 C   0  0  0  0  0  0  0  0  0  0  0  0
   23.2961   -8.8291  -17.8017 O   0  0  0  0  0  0  0  0  0  0  0  0
   18.4714   -7.2259  -17.9058 C   0  0  0  0  0  0  0  0  0  0  0  0
   19.5497   -6.5940  -17.0462 C   0  0  0  0  0  0  0  0  0  0  0  0
   20.5052   -7.6973  -16.6367 C   0  0  2  0  0  0  0  0  0  0  0  0
   19.6939   -8.6455  -15.7880 C   0  0  0  0  0  0  0  0  0  0  0  0
   21.7099   -7.2349  -15.8988 C   0  0  2  0  0  0  0  0  0  0  0  0
   22.7300   -8.2182  -15.6672 N   0  0  0  0  0  0  0  0  0  0  0  0
   21.3920   -6.4199  -14.7502 C   0  0  0  0  0  0  0  0  0  0  0  0
   21.6801   -6.7344  -13.5833 O   0  0  0  0  0  0  0  0  0  0  0  0
   20.7175   -5.1965  -14.9451 O   0  0  0  0  0  0  0  0  0  0  0  0
  2  1  1  1
  2  5  1  0
  3  2  1  0
  4  3  1  0
  5 12  1  0
  6  5  2  0
  7  8  1  0
  8  9  2  0
 10  8  1  0
 11 13  1  0
 11 10  1  6
 12 11  1  0
 13 14  2  0
 16 15  1  0
 17 16  1  0
 17 18  1  1
 19 17  1  0
 20 13  1  0
 19 20  1  1
 21 19  1  0
 22 21  2  0
 23 21  1  0
M  END
$$$$
