CNI.pdb
     RDKit          3D

 23 22  0  0  1  0  0  0  0  0999 V2000
   30.0412  -24.0430  -18.3415 N   0  0  0  0  0  0  0  0  0  0  0  0
   29.3092  -24.6971  -17.2749 C   0  0  1  0  0  0  0  0  0  0  0  0
   30.0050  -24.2889  -15.9703 C   0  0  0  0  0  0  0  0  0  0  0  0
   31.5139  -25.3132  -15.8748 S   0  0  0  0  0  0  0  0  0  0  0  0
   27.8903  -24.2652  -17.2602 C   0  0  0  0  0  0  0  0  0  0  0  0
   27.5367  -23.1362  -17.6727 O   0  0  0  0  0  0  0  0  0  0  0  0
   22.4327  -26.0782  -17.5199 N   0  0  0  0  0  0  0  0  0  0  0  0
   23.2721  -25.6640  -16.4692 C   0  0  0  0  0  0  0  0  0  0  0  0
   22.7234  -24.9868  -15.5481 O   0  0  0  0  0  0  0  0  0  0  0  0
   24.6921  -26.0204  -16.4846 C   0  0  0  0  0  0  0  0  0  0  0  0
   25.5232  -24.8009  -16.6704 C   0  0  2  0  0  0  0  0  0  0  0  0
   26.9015  -25.1467  -16.7683 N   0  0  0  0  0  0  0  0  0  0  0  0
   25.2701  -23.7779  -15.6021 C   0  0  0  0  0  0  0  0  0  0  0  0
   25.5082  -24.1228  -14.4264 O   0  0  0  0  0  0  0  0  0  0  0  0
   26.9900  -18.7322  -15.9293 C   0  0  0  0  0  0  0  0  0  0  0  0
   26.5797  -20.0801  -15.3675 C   0  0  0  0  0  0  0  0  0  0  0  0
   25.0654  -20.0985  -15.2982 C   0  0  2  0  0  0  0  0  0  0  0  0
   24.6927  -19.0811  -14.2475 C   0  0  0  0  0  0  0  0  0  0  0  0
   24.4734  -21.4236  -14.9767 C   0  0  2  0  0  0  0  0  0  0  0  0
   24.7931  -22.4975  -15.8743 N   0  0  0  0  0  0  0  0  0  0  0  0
   23.0797  -21.3464  -14.6077 C   0  0  0  0  0  0  0  0  0  0  0  0
   22.6853  -21.1961  -13.4391 O   0  0  0  0  0  0  0  0  0  0  0  0
   22.0986  -21.4450  -15.6163 O   0  0  0  0  0  0  0  0  0  0  0  0
  2  1  1  6
  2  5  1  0
  3  2  1  0
  4  3  1  0
  5 12  1  0
  6  5  2  0
  7  8  1  0
  8  9  2  0
 10  8  1  0
 11 13  1  0
 11 10  1  1
 12 11  1  0
 13 14  2  0
 16 15  1  0
 17 16  1  0
 17 18  1  1
 19 17  1  0
 20 13  1  0
 19 20  1  6
 21 19  1  0
 22 21  2  0
 23 21  1  0
M  END
$$$$
