CNI.pdb
     RDKit          3D

 23 22  0  0  1  0  0  0  0  0999 V2000
   18.0350  -13.3932  -17.6225 N   0  0  0  0  0  0  0  0  0  0  0  0
   17.2398  -12.8932  -16.5185 C   0  0  1  0  0  0  0  0  0  0  0  0
   17.0862  -14.0652  -15.5410 C   0  0  0  0  0  0  0  0  0  0  0  0
   16.3317  -15.4182  -16.5079 S   0  0  0  0  0  0  0  0  0  0  0  0
   17.9116  -11.7505  -15.8529 C   0  0  0  0  0  0  0  0  0  0  0  0
   17.3968  -11.1554  -14.8778 O   0  0  0  0  0  0  0  0  0  0  0  0
   21.3952   -8.5399  -14.2849 N   0  0  0  0  0  0  0  0  0  0  0  0
   22.0864   -9.6222  -14.8603 C   0  0  0  0  0  0  0  0  0  0  0  0
   23.3416   -9.6439  -14.6808 O   0  0  0  0  0  0  0  0  0  0  0  0
   21.3524  -10.6400  -15.6145 C   0  0  0  0  0  0  0  0  0  0  0  0
   19.9159  -10.2669  -15.7124 C   0  0  2  0  0  0  0  0  0  0  0  0
   19.1693  -11.3134  -16.3259 N   0  0  0  0  0  0  0  0  0  0  0  0
   19.7212   -8.9503  -16.4055 C   0  0  0  0  0  0  0  0  0  0  0  0
   20.1409   -8.8652  -17.5779 O   0  0  0  0  0  0  0  0  0  0  0  0
   15.6769   -5.0479  -17.9397 C   0  0  0  0  0  0  0  0  0  0  0  0
   17.1001   -5.0178  -17.4159 C   0  0  0  0  0  0  0  0  0  0  0  0
   17.3903   -6.3805  -16.8184 C   0  0  2  0  0  0  0  0  0  0  0  0
   16.4116   -6.5441  -15.6811 C   0  0  0  0  0  0  0  0  0  0  0  0
   18.7852   -6.5652  -16.3389 C   0  0  2  0  0  0  0  0  0  0  0  0
   19.1064   -7.8565  -15.7998 N   0  0  0  0  0  0  0  0  0  0  0  0
   19.2663   -5.4524  -15.5548 C   0  0  0  0  0  0  0  0  0  0  0  0
   19.5723   -5.5392  -14.3538 O   0  0  0  0  0  0  0  0  0  0  0  0
   19.4025   -4.1904  -16.1699 O   0  0  0  0  0  0  0  0  0  0  0  0
  2  1  1  6
  2  5  1  0
  3  2  1  0
  4  3  1  0
  5 12  1  0
  6  5  2  0
  7  8  1  0
  8  9  2  0
 10  8  1  0
 11 13  1  0
 11 10  1  6
 12 11  1  0
 13 14  2  0
 16 15  1  0
 17 16  1  0
 17 18  1  1
 19 17  1  0
 20 13  1  0
 19 20  1  1
 21 19  1  0
 22 21  2  0
 23 21  1  0
M  END
$$$$
