CNI.pdb
     RDKit          3D

 23 22  0  0  1  0  0  0  0  0999 V2000
   12.5460  -10.5873   -9.5014 N   0  0  0  0  0  0  0  0  0  0  0  0
   13.9822  -10.5416   -9.6925 C   0  0  1  0  0  0  0  0  0  0  0  0
   14.2940  -11.5463  -10.8088 C   0  0  0  0  0  0  0  0  0  0  0  0
   14.1047  -13.1978  -10.0528 S   0  0  0  0  0  0  0  0  0  0  0  0
   14.4243   -9.1810  -10.0843 C   0  0  0  0  0  0  0  0  0  0  0  0
   13.7416   -8.4554  -10.8441 O   0  0  0  0  0  0  0  0  0  0  0  0
   16.9046   -4.8735  -10.4703 N   0  0  0  0  0  0  0  0  0  0  0  0
   16.4470   -5.1159   -9.1620 C   0  0  0  0  0  0  0  0  0  0  0  0
   16.4307   -4.1173   -8.3805 O   0  0  0  0  0  0  0  0  0  0  0  0
   16.0245   -6.4629   -8.7735 C   0  0  0  0  0  0  0  0  0  0  0  0
   16.1617   -7.3939   -9.9253 C   0  0  2  0  0  0  0  0  0  0  0  0
   15.6500   -8.6804   -9.5907 N   0  0  0  0  0  0  0  0  0  0  0  0
   17.5726   -7.4595  -10.4323 C   0  0  0  0  0  0  0  0  0  0  0  0
   18.4326   -7.9031   -9.6438 O   0  0  0  0  0  0  0  0  0  0  0  0
   19.6147  -10.5690  -13.7331 C   0  0  0  0  0  0  0  0  0  0  0  0
   19.4218   -9.5475  -12.6285 C   0  0  0  0  0  0  0  0  0  0  0  0
   19.5243   -8.1736  -13.2610 C   0  0  2  0  0  0  0  0  0  0  0  0
   20.9333   -8.0732  -13.7923 C   0  0  0  0  0  0  0  0  0  0  0  0
   19.2296   -7.0425  -12.3426 C   0  0  2  0  0  0  0  0  0  0  0  0
   17.9390   -7.0536  -11.7137 N   0  0  0  0  0  0  0  0  0  0  0  0
   19.6236   -5.7610  -12.8784 C   0  0  0  0  0  0  0  0  0  0  0  0
   18.8220   -4.9377  -13.3508 O   0  0  0  0  0  0  0  0  0  0  0  0
   20.9892   -5.4079  -12.8731 O   0  0  0  0  0  0  0  0  0  0  0  0
  2  1  1  6
  2  5  1  0
  3  2  1  0
  4  3  1  0
  5 12  1  0
  6  5  2  0
  7  8  1  0
  8  9  2  0
 10  8  1  0
 11 13  1  0
 11 10  1  1
 12 11  1  0
 13 14  2  0
 16 15  1  0
 17 16  1  0
 17 18  1  1
 19 17  1  0
 20 13  1  0
 19 20  1  6
 21 19  1  0
 22 21  2  0
 23 21  1  0
M  END
$$$$
