CNI.pdb
     RDKit          3D

 23 22  0  0  1  0  0  0  0  0999 V2000
   15.3873  -13.4874  -15.2397 N   0  0  0  0  0  0  0  0  0  0  0  0
   16.5787  -13.6370  -16.0517 C   0  0  1  0  0  0  0  0  0  0  0  0
   16.1238  -14.3103  -17.3527 C   0  0  0  0  0  0  0  0  0  0  0  0
   15.4729  -15.9441  -16.8610 S   0  0  0  0  0  0  0  0  0  0  0  0
   17.1954  -12.3193  -16.3405 C   0  0  0  0  0  0  0  0  0  0  0  0
   18.2315  -12.2106  -17.0365 O   0  0  0  0  0  0  0  0  0  0  0  0
   15.5312   -9.6347  -18.1264 N   0  0  0  0  0  0  0  0  0  0  0  0
   15.2454   -8.7858  -17.0412 C   0  0  0  0  0  0  0  0  0  0  0  0
   14.2334   -8.0326  -17.1708 O   0  0  0  0  0  0  0  0  0  0  0  0
   16.0987   -8.8081  -15.8516 C   0  0  0  0  0  0  0  0  0  0  0  0
   17.1543   -9.8456  -15.9989 C   0  0  2  0  0  0  0  0  0  0  0  0
   16.6034  -11.1468  -15.8195 N   0  0  0  0  0  0  0  0  0  0  0  0
   18.3223   -9.5945  -15.0909 C   0  0  0  0  0  0  0  0  0  0  0  0
   18.1205   -9.7275  -13.8663 O   0  0  0  0  0  0  0  0  0  0  0  0
   23.9162  -10.9040  -13.9576 C   0  0  0  0  0  0  0  0  0  0  0  0
   22.9969   -9.6992  -13.8927 C   0  0  0  0  0  0  0  0  0  0  0  0
   21.8473   -9.9564  -14.8469 C   0  0  2  0  0  0  0  0  0  0  0  0
   22.4698  -10.0560  -16.2182 C   0  0  0  0  0  0  0  0  0  0  0  0
   20.7813   -8.9205  -14.8303 C   0  0  2  0  0  0  0  0  0  0  0  0
   19.5831   -9.2294  -15.5582 N   0  0  0  0  0  0  0  0  0  0  0  0
   21.2862   -7.5853  -15.0469 C   0  0  0  0  0  0  0  0  0  0  0  0
   21.1245   -6.9524  -16.1037 O   0  0  0  0  0  0  0  0  0  0  0  0
   22.0044   -6.9494  -14.0128 O   0  0  0  0  0  0  0  0  0  0  0  0
  2  1  1  1
  2  5  1  0
  3  2  1  0
  4  3  1  0
  5 12  1  0
  6  5  2  0
  7  8  1  0
  8  9  2  0
 10  8  1  0
 11 13  1  0
 11 10  1  1
 12 11  1  0
 13 14  2  0
 16 15  1  0
 17 16  1  0
 17 18  1  6
 19 17  1  0
 20 13  1  0
 19 20  1  6
 21 19  1  0
 22 21  2  0
 23 21  1  0
M  END
$$$$
