CNI.pdb
     RDKit          3D

 23 22  0  0  1  0  0  0  0  0999 V2000
   15.4413  -11.0760  -12.9369 N   0  0  0  0  0  0  0  0  0  0  0  0
   15.5896  -10.1520  -14.0440 C   0  0  1  0  0  0  0  0  0  0  0  0
   14.2141  -10.0731  -14.7180 C   0  0  0  0  0  0  0  0  0  0  0  0
   13.9177  -11.7287  -15.4294 S   0  0  0  0  0  0  0  0  0  0  0  0
   16.0083   -8.8116  -13.5665 C   0  0  0  0  0  0  0  0  0  0  0  0
   16.2224   -7.8634  -14.3570 O   0  0  0  0  0  0  0  0  0  0  0  0
   16.3289   -5.6107   -8.3961 N   0  0  0  0  0  0  0  0  0  0  0  0
   16.4002   -5.8039   -9.7881 C   0  0  0  0  0  0  0  0  0  0  0  0
   16.9264   -4.8642  -10.4575 O   0  0  0  0  0  0  0  0  0  0  0  0
   15.8822   -7.0378  -10.3819 C   0  0  0  0  0  0  0  0  0  0  0  0
   16.6199   -7.3512  -11.6349 C   0  0  2  0  0  0  0  0  0  0  0  0
   16.1729   -8.5885  -12.1809 N   0  0  0  0  0  0  0  0  0  0  0  0
   18.1069   -7.3240  -11.4355 C   0  0  0  0  0  0  0  0  0  0  0  0
   18.5561   -7.9744  -10.4695 O   0  0  0  0  0  0  0  0  0  0  0  0
   22.8758   -9.4306  -13.2692 C   0  0  0  0  0  0  0  0  0  0  0  0
   22.4869   -8.0298  -12.8363 C   0  0  0  0  0  0  0  0  0  0  0  0
   20.9751   -7.9398  -12.9029 C   0  0  2  0  0  0  0  0  0  0  0  0
   20.6199   -8.1120  -14.3596 C   0  0  0  0  0  0  0  0  0  0  0  0
   20.4032   -6.6750  -12.3710 C   0  0  2  0  0  0  0  0  0  0  0  0
   18.9723   -6.6179  -12.2685 N   0  0  0  0  0  0  0  0  0  0  0  0
   21.0102   -5.4955  -12.9409 C   0  0  0  0  0  0  0  0  0  0  0  0
   22.2369   -5.3014  -12.9739 O   0  0  0  0  0  0  0  0  0  0  0  0
   20.1801   -4.4987  -13.4950 O   0  0  0  0  0  0  0  0  0  0  0  0
  2  1  1  1
  2  5  1  0
  3  2  1  0
  4  3  1  0
  5 12  1  0
  6  5  2  0
  7  8  1  0
  8  9  2  0
 10  8  1  0
 11 13  1  0
 11 10  1  1
 12 11  1  0
 13 14  2  0
 16 15  1  0
 17 16  1  0
 17 18  1  6
 19 17  1  0
 20 13  1  0
 19 20  1  6
 21 19  1  0
 22 21  2  0
 23 21  1  0
M  END
$$$$
