CNI.pdb
     RDKit          3D

 23 22  0  0  1  0  0  0  0  0999 V2000
   17.5120  -14.1952  -20.5072 N   0  0  0  0  0  0  0  0  0  0  0  0
   17.7814  -13.5919  -19.2170 C   0  0  1  0  0  0  0  0  0  0  0  0
   18.7994  -14.5070  -18.5249 C   0  0  0  0  0  0  0  0  0  0  0  0
   17.8249  -15.8737  -17.8055 S   0  0  0  0  0  0  0  0  0  0  0  0
   18.3379  -12.2260  -19.3736 C   0  0  0  0  0  0  0  0  0  0  0  0
   18.4139  -11.6653  -20.4915 O   0  0  0  0  0  0  0  0  0  0  0  0
   18.4928   -7.1143  -20.1794 N   0  0  0  0  0  0  0  0  0  0  0  0
   18.8820   -7.9605  -19.1247 C   0  0  0  0  0  0  0  0  0  0  0  0
   19.6924   -7.4688  -18.2823 O   0  0  0  0  0  0  0  0  0  0  0  0
   18.3532   -9.3237  -19.0485 C   0  0  0  0  0  0  0  0  0  0  0  0
   19.2839  -10.1908  -18.2777 C   0  0  2  0  0  0  0  0  0  0  0  0
   18.7981  -11.5291  -18.2338 N   0  0  0  0  0  0  0  0  0  0  0  0
   19.5611   -9.6433  -16.9083 C   0  0  0  0  0  0  0  0  0  0  0  0
   18.5996   -9.6059  -16.1132 O   0  0  0  0  0  0  0  0  0  0  0  0
   23.7219  -11.7815  -14.6135 C   0  0  0  0  0  0  0  0  0  0  0  0
   22.3841  -11.1688  -14.9823 C   0  0  0  0  0  0  0  0  0  0  0  0
   22.4895   -9.6758  -14.7420 C   0  0  2  0  0  0  0  0  0  0  0  0
   22.6910   -9.5151  -13.2549 C   0  0  0  0  0  0  0  0  0  0  0  0
   21.3149   -8.8876  -15.1989 C   0  0  2  0  0  0  0  0  0  0  0  0
   20.8174   -9.1905  -16.5111 N   0  0  0  0  0  0  0  0  0  0  0  0
   21.4343   -7.4772  -14.9146 C   0  0  0  0  0  0  0  0  0  0  0  0
   21.5020   -7.0110  -13.7650 O   0  0  0  0  0  0  0  0  0  0  0  0
   21.4779   -6.5642  -15.9889 O   0  0  0  0  0  0  0  0  0  0  0  0
  2  1  1  6
  2  5  1  0
  3  2  1  0
  4  3  1  0
  5 12  1  0
  6  5  2  0
  7  8  1  0
  8  9  2  0
 10  8  1  0
 11 13  1  0
 11 10  1  1
 12 11  1  0
 13 14  2  0
 16 15  1  0
 17 16  1  0
 17 18  1  1
 19 17  1  0
 20 13  1  0
 19 20  1  6
 21 19  1  0
 22 21  2  0
 23 21  1  0
M  END
$$$$
