CNI.pdb
     RDKit          3D

 23 22  0  0  1  0  0  0  0  0999 V2000
   19.0494  -14.0129  -16.6298 N   0  0  0  0  0  0  0  0  0  0  0  0
   18.2109  -12.8305  -16.6427 C   0  0  1  0  0  0  0  0  0  0  0  0
   16.8962  -13.2352  -15.9642 C   0  0  0  0  0  0  0  0  0  0  0  0
   16.1008  -14.4241  -17.0994 S   0  0  0  0  0  0  0  0  0  0  0  0
   18.8514  -11.7153  -15.9038 C   0  0  0  0  0  0  0  0  0  0  0  0
   19.6244  -11.9172  -14.9385 O   0  0  0  0  0  0  0  0  0  0  0  0
   22.4401   -7.6516  -15.4339 N   0  0  0  0  0  0  0  0  0  0  0  0
   21.2559   -8.2364  -14.9485 C   0  0  0  0  0  0  0  0  0  0  0  0
   20.7670   -7.7214  -13.8978 O   0  0  0  0  0  0  0  0  0  0  0  0
   20.6608   -9.3738  -15.6526 C   0  0  0  0  0  0  0  0  0  0  0  0
   19.1785   -9.2512  -15.6610 C   0  0  2  0  0  0  0  0  0  0  0  0
   18.5878  -10.3828  -16.2930 N   0  0  0  0  0  0  0  0  0  0  0  0
   18.7231   -7.9586  -16.2724 C   0  0  0  0  0  0  0  0  0  0  0  0
   18.9190   -7.8168  -17.4969 O   0  0  0  0  0  0  0  0  0  0  0  0
   13.7636   -4.9994  -16.7659 C   0  0  0  0  0  0  0  0  0  0  0  0
   15.2251   -4.6421  -16.5732 C   0  0  0  0  0  0  0  0  0  0  0  0
   15.9260   -5.8774  -16.0434 C   0  0  2  0  0  0  0  0  0  0  0  0
   15.3590   -6.1081  -14.6638 C   0  0  0  0  0  0  0  0  0  0  0  0
   17.4081   -5.7769  -15.9897 C   0  0  2  0  0  0  0  0  0  0  0  0
   18.1088   -6.9460  -15.5386 N   0  0  0  0  0  0  0  0  0  0  0  0
   17.8709   -4.5396  -15.4073 C   0  0  0  0  0  0  0  0  0  0  0  0
   18.5724   -4.4818  -14.3836 O   0  0  0  0  0  0  0  0  0  0  0  0
   17.5165   -3.3200  -16.0211 O   0  0  0  0  0  0  0  0  0  0  0  0
  2  1  1  1
  2  5  1  0
  3  2  1  0
  4  3  1  0
  5 12  1  0
  6  5  2  0
  7  8  1  0
  8  9  2  0
 10  8  1  0
 11 13  1  0
 11 10  1  6
 12 11  1  0
 13 14  2  0
 16 15  1  0
 17 16  1  0
 17 18  1  1
 19 17  1  0
 20 13  1  0
 19 20  1  1
 21 19  1  0
 22 21  2  0
 23 21  1  0
M  END
$$$$
