ICN.pdb
     RDKit          3D

 23 22  0  0  1  0  0  0  0  0999 V2000
   16.2971   -9.9722  -17.2845 C   0  0  0  0  0  0  0  0  0  0  0  0
   17.6378   -9.5629  -16.7789 C   0  0  0  0  0  0  0  0  0  0  0  0
   17.6510   -9.2652  -15.2805 C   0  0  2  0  0  0  0  0  0  0  0  0
   16.7455   -8.0696  -15.1039 C   0  0  0  0  0  0  0  0  0  0  0  0
   19.0578   -8.8878  -14.8455 C   0  0  2  0  0  0  0  0  0  0  0  0
   19.8907  -10.0882  -14.9307 N   0  0  0  0  0  0  0  0  0  0  0  0
   19.0803   -8.3833  -13.4742 C   0  0  0  0  0  0  0  0  0  0  0  0
   18.9542   -9.2504  -12.5285 O   0  0  0  0  0  0  0  0  0  0  0  0
   19.2304   -7.0352  -13.0838 N   0  0  0  0  0  0  0  0  0  0  0  0
   19.3225   -6.6873  -11.6638 C   0  0  1  0  0  0  0  0  0  0  0  0
   20.3349   -5.5731  -11.4906 C   0  0  0  0  0  0  0  0  0  0  0  0
   22.0094   -6.1820  -11.7303 S   0  0  0  0  0  0  0  0  0  0  0  0
   17.9891   -6.2662  -11.1888 C   0  0  0  0  0  0  0  0  0  0  0  0
   17.2347   -5.6252  -11.9991 O   0  0  0  0  0  0  0  0  0  0  0  0
   13.6367   -5.4171   -8.5916 N   0  0  0  0  0  0  0  0  0  0  0  0
   14.3230   -6.4798   -7.9008 C   0  0  0  0  0  0  0  0  0  0  0  0
   13.7530   -6.9809   -6.9159 O   0  0  0  0  0  0  0  0  0  0  0  0
   15.6321   -6.9038   -8.3890 C   0  0  0  0  0  0  0  0  0  0  0  0
   16.1192   -6.0569   -9.5128 C   0  0  2  0  0  0  0  0  0  0  0  0
   17.4535   -6.5042   -9.9161 N   0  0  0  0  0  0  0  0  0  0  0  0
   16.1639   -4.6378   -9.1895 C   0  0  0  0  0  0  0  0  0  0  0  0
   17.2221   -4.1217   -8.6569 O   0  0  0  0  0  0  0  0  0  0  0  0
   15.1366   -3.7525   -9.4091 O   0  0  0  0  0  0  0  0  0  0  0  0
  1  2  1  0
  2  3  1  0
  3  4  1  6
  5  3  1  0
  5  7  1  0
  5  6  1  1
  7  9  1  0
  8  7  2  0
  9 10  1  0
 10 11  1  6
 10 13  1  0
 11 12  1  0
 13 14  2  0
 13 20  1  0
 15 16  1  0
 16 18  1  0
 17 16  2  0
 19 18  1  1
 19 21  1  0
 20 19  1  0
 21 22  2  0
 21 23  1  0
M  END
$$$$
