ICN.pdb
     RDKit          3D

 23 22  0  0  1  0  0  0  0  0999 V2000
   18.1333  -13.8774  -20.5356 C   0  0  0  0  0  0  0  0  0  0  0  0
   19.4628  -14.0155  -19.8767 C   0  0  0  0  0  0  0  0  0  0  0  0
   19.7066  -12.9716  -18.7882 C   0  0  2  0  0  0  0  0  0  0  0  0
   19.7792  -11.6491  -19.5138 C   0  0  0  0  0  0  0  0  0  0  0  0
   21.0420  -13.2382  -18.1126 C   0  0  2  0  0  0  0  0  0  0  0  0
   20.9775  -14.5657  -17.4998 N   0  0  0  0  0  0  0  0  0  0  0  0
   21.3307  -12.2454  -17.0800 C   0  0  0  0  0  0  0  0  0  0  0  0
   20.5229  -12.1913  -16.0767 O   0  0  0  0  0  0  0  0  0  0  0  0
   22.4133  -11.3396  -17.0731 N   0  0  0  0  0  0  0  0  0  0  0  0
   22.5366  -10.3501  -16.0000 C   0  0  1  0  0  0  0  0  0  0  0  0
   24.0033  -10.0412  -15.7762 C   0  0  0  0  0  0  0  0  0  0  0  0
   24.8233  -11.3950  -14.9234 S   0  0  0  0  0  0  0  0  0  0  0  0
   21.7948   -9.1330  -16.3863 C   0  0  0  0  0  0  0  0  0  0  0  0
   21.7444   -8.8255  -17.6271 O   0  0  0  0  0  0  0  0  0  0  0  0
   18.7285   -5.0663  -16.7462 N   0  0  0  0  0  0  0  0  0  0  0  0
   18.1607   -6.3909  -16.7656 C   0  0  0  0  0  0  0  0  0  0  0  0
   16.9699   -6.4958  -17.1077 O   0  0  0  0  0  0  0  0  0  0  0  0
   19.0037   -7.5215  -16.3877 C   0  0  0  0  0  0  0  0  0  0  0  0
   20.3694   -7.0965  -15.9736 C   0  0  2  0  0  0  0  0  0  0  0  0
   21.1243   -8.2641  -15.5153 N   0  0  0  0  0  0  0  0  0  0  0  0
   20.3670   -6.0834  -14.9277 C   0  0  0  0  0  0  0  0  0  0  0  0
   19.9114   -4.8981  -15.1667 O   0  0  0  0  0  0  0  0  0  0  0  0
   20.8255   -6.2793  -13.6475 O   0  0  0  0  0  0  0  0  0  0  0  0
  1  2  1  0
  2  3  1  0
  3  4  1  6
  5  3  1  0
  5  7  1  0
  5  6  1  1
  7  9  1  0
  8  7  2  0
  9 10  1  0
 10 11  1  6
 10 13  1  0
 11 12  1  0
 13 14  2  0
 13 20  1  0
 15 16  1  0
 16 18  1  0
 17 16  2  0
 19 18  1  1
 19 21  1  0
 20 19  1  0
 21 22  2  0
 21 23  1  0
M  END
$$$$
