ICN.pdb
     RDKit          3D

 23 22  0  0  1  0  0  0  0  0999 V2000
   27.0244  -14.5542  -15.2862 C   0  0  0  0  0  0  0  0  0  0  0  0
   25.5593  -14.7930  -15.4175 C   0  0  0  0  0  0  0  0  0  0  0  0
   24.7829  -13.5496  -15.8476 C   0  0  2  0  0  0  0  0  0  0  0  0
   24.9181  -12.5785  -14.6989 C   0  0  0  0  0  0  0  0  0  0  0  0
   23.3147  -13.8994  -16.0283 C   0  0  2  0  0  0  0  0  0  0  0  0
   23.2257  -14.9508  -17.0424 N   0  0  0  0  0  0  0  0  0  0  0  0
   22.5354  -12.7429  -16.4650 C   0  0  0  0  0  0  0  0  0  0  0  0
   22.8574  -12.2119  -17.5948 O   0  0  0  0  0  0  0  0  0  0  0  0
   21.4592  -12.1514  -15.7692 N   0  0  0  0  0  0  0  0  0  0  0  0
   20.7469  -11.0107  -16.3499 C   0  0  1  0  0  0  0  0  0  0  0  0
   19.2820  -11.3669  -16.5043 C   0  0  0  0  0  0  0  0  0  0  0  0
   19.0737  -12.7695  -17.6095 S   0  0  0  0  0  0  0  0  0  0  0  0
   20.9143   -9.8422  -15.4626 C   0  0  0  0  0  0  0  0  0  0  0  0
   20.8895  -10.0363  -14.1983 O   0  0  0  0  0  0  0  0  0  0  0  0
   21.8707   -5.1997  -13.4454 N   0  0  0  0  0  0  0  0  0  0  0  0
   22.7618   -5.4560  -14.5490 C   0  0  0  0  0  0  0  0  0  0  0  0
   23.7059   -4.6641  -14.7153 O   0  0  0  0  0  0  0  0  0  0  0  0
   22.5101   -6.6158  -15.3995 C   0  0  0  0  0  0  0  0  0  0  0  0
   21.3425   -7.4154  -14.9362 C   0  0  2  0  0  0  0  0  0  0  0  0
   21.1043   -8.5157  -15.8720 N   0  0  0  0  0  0  0  0  0  0  0  0
   20.1241   -6.6307  -14.7950 C   0  0  0  0  0  0  0  0  0  0  0  0
   19.3300   -6.4695  -15.8015 O   0  0  0  0  0  0  0  0  0  0  0  0
   19.7194   -6.0159  -13.6349 O   0  0  0  0  0  0  0  0  0  0  0  0
  1  2  1  0
  2  3  1  0
  3  4  1  1
  5  3  1  0
  5  7  1  0
  5  6  1  6
  7  9  1  0
  8  7  2  0
  9 10  1  0
 10 11  1  1
 10 13  1  0
 11 12  1  0
 13 14  2  0
 13 20  1  0
 15 16  1  0
 16 18  1  0
 17 16  2  0
 19 18  1  6
 19 21  1  0
 20 19  1  0
 21 22  2  0
 21 23  1  0
M  END
$$$$
