ICN.pdb
     RDKit          3D

 23 22  0  0  1  0  0  0  0  0999 V2000
   15.3016  -15.2452  -16.8330 C   0  0  0  0  0  0  0  0  0  0  0  0
   15.5356  -14.8531  -15.4145 C   0  0  0  0  0  0  0  0  0  0  0  0
   15.4243  -13.3475  -15.1799 C   0  0  2  0  0  0  0  0  0  0  0  0
   16.5751  -12.7391  -15.9456 C   0  0  0  0  0  0  0  0  0  0  0  0
   15.6006  -13.0452  -13.7006 C   0  0  2  0  0  0  0  0  0  0  0  0
   14.5395  -13.7407  -12.9711 N   0  0  0  0  0  0  0  0  0  0  0  0
   15.5109  -11.6120  -13.4295 C   0  0  0  0  0  0  0  0  0  0  0  0
   14.6912  -10.9289  -14.1532 O   0  0  0  0  0  0  0  0  0  0  0  0
   16.2341  -10.9020  -12.4472 N   0  0  0  0  0  0  0  0  0  0  0  0
   16.0948   -9.4477  -12.3400 C   0  0  1  0  0  0  0  0  0  0  0  0
   16.4528   -9.0176  -10.9316 C   0  0  0  0  0  0  0  0  0  0  0  0
   15.2590   -9.6465   -9.7435 S   0  0  0  0  0  0  0  0  0  0  0  0
   16.9868   -8.8092  -13.3286 C   0  0  0  0  0  0  0  0  0  0  0  0
   18.1625   -9.2904  -13.4800 O   0  0  0  0  0  0  0  0  0  0  0  0
   17.4162   -6.9069  -18.9161 N   0  0  0  0  0  0  0  0  0  0  0  0
   17.8951   -6.8926  -17.5567 C   0  0  0  0  0  0  0  0  0  0  0  0
   19.0364   -6.4406  -17.3589 O   0  0  0  0  0  0  0  0  0  0  0  0
   17.0253   -7.4027  -16.5008 C   0  0  0  0  0  0  0  0  0  0  0  0
   17.5844   -7.1641  -15.1414 C   0  0  2  0  0  0  0  0  0  0  0  0
   16.6698   -7.7092  -14.1366 N   0  0  0  0  0  0  0  0  0  0  0  0
   17.8302   -5.7574  -14.8565 C   0  0  0  0  0  0  0  0  0  0  0  0
   18.7354   -5.1066  -15.5099 O   0  0  0  0  0  0  0  0  0  0  0  0
   17.1566   -5.0209  -13.9125 O   0  0  0  0  0  0  0  0  0  0  0  0
  1  2  1  0
  2  3  1  0
  3  4  1  6
  5  3  1  0
  5  7  1  0
  5  6  1  1
  7  9  1  0
  8  7  2  0
  9 10  1  0
 10 11  1  1
 10 13  1  0
 11 12  1  0
 13 14  2  0
 13 20  1  0
 15 16  1  0
 16 18  1  0
 17 16  2  0
 19 18  1  6
 19 21  1  0
 20 19  1  0
 21 22  2  0
 21 23  1  0
M  END
$$$$
