ICN.pdb
     RDKit          3D

 23 22  0  0  1  0  0  0  0  0999 V2000
   24.1946  -24.5823  -13.9657 C   0  0  0  0  0  0  0  0  0  0  0  0
   25.1976  -23.6207  -13.4273 C   0  0  0  0  0  0  0  0  0  0  0  0
   24.7460  -22.1642  -13.5211 C   0  0  2  0  0  0  0  0  0  0  0  0
   24.4567  -21.9305  -14.9848 C   0  0  0  0  0  0  0  0  0  0  0  0
   25.8791  -21.2476  -13.0892 C   0  0  2  0  0  0  0  0  0  0  0  0
   26.0627  -21.4107  -11.6464 N   0  0  0  0  0  0  0  0  0  0  0  0
   25.5799  -19.8473  -13.3806 C   0  0  0  0  0  0  0  0  0  0  0  0
   24.6024  -19.3100  -12.7341 O   0  0  0  0  0  0  0  0  0  0  0  0
   26.2614  -19.0229  -14.3016 N   0  0  0  0  0  0  0  0  0  0  0  0
   25.8545  -17.6269  -14.4792 C   0  0  1  0  0  0  0  0  0  0  0  0
   27.0101  -16.8448  -15.0705 C   0  0  0  0  0  0  0  0  0  0  0  0
   26.5451  -15.1332  -15.3649 S   0  0  0  0  0  0  0  0  0  0  0  0
   24.6779  -17.5830  -15.3704 C   0  0  0  0  0  0  0  0  0  0  0  0
   24.6754  -18.3369  -16.4040 O   0  0  0  0  0  0  0  0  0  0  0  0
   20.0613  -16.9324  -17.5125 N   0  0  0  0  0  0  0  0  0  0  0  0
   19.9417  -16.5543  -16.1268 C   0  0  0  0  0  0  0  0  0  0  0  0
   18.7991  -16.3193  -15.6964 O   0  0  0  0  0  0  0  0  0  0  0  0
   21.1527  -16.4693  -15.3155 C   0  0  0  0  0  0  0  0  0  0  0  0
   22.3737  -16.8489  -16.0787 C   0  0  2  0  0  0  0  0  0  0  0  0
   23.5390  -16.7858  -15.1948 N   0  0  0  0  0  0  0  0  0  0  0  0
   22.6088  -16.0114  -17.2464 C   0  0  0  0  0  0  0  0  0  0  0  0
   23.3104  -14.9310  -17.1455 O   0  0  0  0  0  0  0  0  0  0  0  0
   22.1320  -16.2754  -18.5075 O   0  0  0  0  0  0  0  0  0  0  0  0
  1  2  1  0
  2  3  1  0
  3  4  1  6
  5  3  1  0
  5  7  1  0
  5  6  1  1
  7  9  1  0
  8  7  2  0
  9 10  1  0
 10 11  1  6
 10 13  1  0
 11 12  1  0
 13 14  2  0
 13 20  1  0
 15 16  1  0
 16 18  1  0
 17 16  2  0
 19 18  1  1
 19 21  1  0
 20 19  1  0
 21 22  2  0
 21 23  1  0
M  END
$$$$
