ICN.pdb
     RDKit          3D

 23 22  0  0  1  0  0  0  0  0999 V2000
   18.3084  -15.3667  -18.3272 C   0  0  0  0  0  0  0  0  0  0  0  0
   19.6565  -15.0532  -18.8795 C   0  0  0  0  0  0  0  0  0  0  0  0
   20.3393  -13.8833  -18.1730 C   0  0  2  0  0  0  0  0  0  0  0  0
   19.4455  -12.6916  -18.4212 C   0  0  0  0  0  0  0  0  0  0  0  0
   21.6963  -13.6235  -18.8069 C   0  0  2  0  0  0  0  0  0  0  0  0
   22.5922  -14.7105  -18.4101 N   0  0  0  0  0  0  0  0  0  0  0  0
   22.2612  -12.3497  -18.3666 C   0  0  0  0  0  0  0  0  0  0  0  0
   22.7144  -12.2951  -17.1609 O   0  0  0  0  0  0  0  0  0  0  0  0
   22.3621  -11.1712  -19.1368 N   0  0  0  0  0  0  0  0  0  0  0  0
   22.8865   -9.9428  -18.5353 C   0  0  1  0  0  0  0  0  0  0  0  0
   23.6067   -9.1381  -19.5984 C   0  0  0  0  0  0  0  0  0  0  0  0
   24.2059   -7.5801  -18.9306 S   0  0  0  0  0  0  0  0  0  0  0  0
   21.7623   -9.1742  -17.9640 C   0  0  0  0  0  0  0  0  0  0  0  0
   20.6296   -9.2318  -18.5559 O   0  0  0  0  0  0  0  0  0  0  0  0
   18.4902   -6.3192  -15.3109 N   0  0  0  0  0  0  0  0  0  0  0  0
   18.5449   -7.7489  -15.1367 C   0  0  0  0  0  0  0  0  0  0  0  0
   17.5754   -8.2930  -14.5799 O   0  0  0  0  0  0  0  0  0  0  0  0
   19.7200   -8.4700  -15.6173 C   0  0  0  0  0  0  0  0  0  0  0  0
   20.6715   -7.5834  -16.3426 C   0  0  2  0  0  0  0  0  0  0  0  0
   21.8095   -8.3740  -16.8148 N   0  0  0  0  0  0  0  0  0  0  0  0
   21.1577   -6.4738  -15.5347 C   0  0  0  0  0  0  0  0  0  0  0  0
   22.4242   -6.3202  -15.3296 O   0  0  0  0  0  0  0  0  0  0  0  0
   20.3570   -5.5281  -14.9415 O   0  0  0  0  0  0  0  0  0  0  0  0
  1  2  1  0
  2  3  1  0
  3  4  1  6
  5  3  1  0
  5  7  1  0
  5  6  1  1
  7  9  1  0
  8  7  2  0
  9 10  1  0
 10 11  1  6
 10 13  1  0
 11 12  1  0
 13 14  2  0
 13 20  1  0
 15 16  1  0
 16 18  1  0
 17 16  2  0
 19 18  1  1
 19 21  1  0
 20 19  1  0
 21 22  2  0
 21 23  1  0
M  END
$$$$
