ICN.pdb
     RDKit          3D

 23 22  0  0  1  0  0  0  0  0999 V2000
   19.4176  -17.4553  -17.9950 C   0  0  0  0  0  0  0  0  0  0  0  0
   19.9852  -16.1650  -18.4785 C   0  0  0  0  0  0  0  0  0  0  0  0
   20.1696  -15.1341  -17.3662 C   0  0  2  0  0  0  0  0  0  0  0  0
   18.7719  -14.7251  -16.9665 C   0  0  0  0  0  0  0  0  0  0  0  0
   20.9032  -13.9190  -17.9103 C   0  0  2  0  0  0  0  0  0  0  0  0
   22.1773  -14.3763  -18.4667 N   0  0  0  0  0  0  0  0  0  0  0  0
   21.1619  -12.9328  -16.8635 C   0  0  0  0  0  0  0  0  0  0  0  0
   20.1948  -12.6726  -16.0515 O   0  0  0  0  0  0  0  0  0  0  0  0
   22.3723  -12.2380  -16.6527 N   0  0  0  0  0  0  0  0  0  0  0  0
   22.4782  -11.2586  -15.5686 C   0  0  1  0  0  0  0  0  0  0  0  0
   23.9422  -11.0111  -15.2649 C   0  0  0  0  0  0  0  0  0  0  0  0
   24.6304  -12.3490  -14.2806 S   0  0  0  0  0  0  0  0  0  0  0  0
   21.8086  -10.0105  -15.9866 C   0  0  0  0  0  0  0  0  0  0  0  0
   21.9021   -9.6571  -17.2126 O   0  0  0  0  0  0  0  0  0  0  0  0
   17.3250   -6.9367  -16.9464 N   0  0  0  0  0  0  0  0  0  0  0  0
   18.1961   -6.8709  -15.7999 C   0  0  0  0  0  0  0  0  0  0  0  0
   18.2776   -5.7807  -15.2076 O   0  0  0  0  0  0  0  0  0  0  0  0
   18.9252   -8.0719  -15.4026 C   0  0  0  0  0  0  0  0  0  0  0  0
   20.3882   -7.9558  -15.6544 C   0  0  2  0  0  0  0  0  0  0  0  0
   21.0635   -9.1576  -15.1616 N   0  0  0  0  0  0  0  0  0  0  0  0
   20.9887   -6.7798  -15.0405 C   0  0  0  0  0  0  0  0  0  0  0  0
   21.3553   -6.8042  -13.8017 O   0  0  0  0  0  0  0  0  0  0  0  0
   21.2137   -5.5886  -15.6868 O   0  0  0  0  0  0  0  0  0  0  0  0
  1  2  1  0
  2  3  1  0
  3  4  1  6
  5  3  1  0
  5  7  1  0
  5  6  1  1
  7  9  1  0
  8  7  2  0
  9 10  1  0
 10 11  1  6
 10 13  1  0
 11 12  1  0
 13 14  2  0
 13 20  1  0
 15 16  1  0
 16 18  1  0
 17 16  2  0
 19 18  1  1
 19 21  1  0
 20 19  1  0
 21 22  2  0
 21 23  1  0
M  END
$$$$
