ICN.pdb
     RDKit          3D

 23 22  0  0  1  0  0  0  0  0999 V2000
71994.8750887488.1250-228587.4844 C   0  0  0  0  0  0  0  0  0  0  0  0
71993.7344887488.7500-228587.0781 C   0  0  0  0  0  0  0  0  0  0  0  0
71993.8750887489.3750-228586.1094 C   0  0  2  0  0  0  0  0  0  0  0  0
71995.2734887490.3750-228586.2344 C   0  0  0  0  0  0  0  0  0  0  0  0
71993.7422887488.5000-228584.7500 C   0  0  2  0  0  0  0  0  0  0  0  0
71993.7500887489.5000-228583.6875 N   0  0  0  0  0  0  0  0  0  0  0  0
71995.0703887487.6875-228584.6406 C   0  0  0  0  0  0  0  0  0  0  0  0
71995.8750887487.8125-228585.8125 O   0  0  0  0  0  0  0  0  0  0  0  0
71995.0781887486.8125-228583.7656 N   0  0  0  0  0  0  0  0  0  0  0  0
71996.0547887485.6875-228583.7969 C   0  0  1  0  0  0  0  0  0  0  0  0
71997.1172887486.0000-228584.8438 C   0  0  0  0  0  0  0  0  0  0  0  0
71996.8984887484.6250-228586.2812 S   0  0  0  0  0  0  0  0  0  0  0  0
71996.8281887485.8125-228582.5469 C   0  0  0  0  0  0  0  0  0  0  0  0
71997.1094887484.8125-228581.8594 O   0  0  0  0  0  0  0  0  0  0  0  0
71995.1016887488.0625-228578.2656 N   0  0  0  0  0  0  0  0  0  0  0  0
71996.1797887488.6875-228579.0312 C   0  0  0  0  0  0  0  0  0  0  0  0
71995.7891887489.8125-228579.4375 O   0  0  0  0  0  0  0  0  0  0  0  0
71997.3359887488.1875-228579.5938 C   0  0  0  0  0  0  0  0  0  0  0  0
71997.2266887487.0000-228580.3125 C   0  0  2  0  0  0  0  0  0  0  0  0
71997.1406887487.0000-228581.7812 N   0  0  0  0  0  0  0  0  0  0  0  0
71996.1406887486.1250-228579.8281 C   0  0  0  0  0  0  0  0  0  0  0  0
71995.0469887486.0625-228579.5469 O   0  0  0  0  0  0  0  0  0  0  0  0
71996.2969887484.7500-228579.3906 O   0  0  0  0  0  0  0  0  0  0  0  0
  1  2  1  0
  2  3  1  0
  3  4  1  6
  5  3  1  0
  5  7  1  0
  5  6  1  1
  7  9  1  0
  8  7  2  0
  9 10  1  0
 10 11  1  6
 10 13  1  0
 11 12  1  0
 13 14  2  0
 13 20  1  0
 15 16  1  0
 16 18  1  0
 17 16  2  0
 19 18  1  1
 19 21  1  0
 20 19  1  0
 21 22  2  0
 21 23  1  0
M  END
$$$$
