ICN.pdb
     RDKit          3D

 23 22  0  0  1  0  0  0  0  0999 V2000
   18.1914  -17.5543  -16.9154 C   0  0  0  0  0  0  0  0  0  0  0  0
   19.6759  -17.5852  -17.0415 C   0  0  0  0  0  0  0  0  0  0  0  0
   20.3692  -16.4647  -16.2683 C   0  0  2  0  0  0  0  0  0  0  0  0
   19.8792  -15.1831  -16.8993 C   0  0  0  0  0  0  0  0  0  0  0  0
   21.8739  -16.5653  -16.4593 C   0  0  2  0  0  0  0  0  0  0  0  0
   22.3199  -17.8206  -15.8533 N   0  0  0  0  0  0  0  0  0  0  0  0
   22.5730  -15.4499  -15.8249 C   0  0  0  0  0  0  0  0  0  0  0  0
   22.5689  -15.4126  -14.5362 O   0  0  0  0  0  0  0  0  0  0  0  0
   23.2570  -14.4085  -16.4881 N   0  0  0  0  0  0  0  0  0  0  0  0
   23.8592  -13.3176  -15.7181 C   0  0  1  0  0  0  0  0  0  0  0  0
   25.2530  -13.0468  -16.2479 C   0  0  0  0  0  0  0  0  0  0  0  0
   26.4898  -13.9273  -15.2850 S   0  0  0  0  0  0  0  0  0  0  0  0
   23.0060  -12.1186  -15.8426 C   0  0  0  0  0  0  0  0  0  0  0  0
   22.5057  -11.8507  -16.9892 O   0  0  0  0  0  0  0  0  0  0  0  0
   19.8778   -8.1307  -15.0345 N   0  0  0  0  0  0  0  0  0  0  0  0
   20.4112   -8.4759  -13.7408 C   0  0  0  0  0  0  0  0  0  0  0  0
   20.0199   -7.8098  -12.7665 O   0  0  0  0  0  0  0  0  0  0  0  0
   21.3688   -9.5740  -13.6467 C   0  0  0  0  0  0  0  0  0  0  0  0
   21.7450  -10.1138  -14.9826 C   0  0  2  0  0  0  0  0  0  0  0  0
   22.6794  -11.2277  -14.8117 N   0  0  0  0  0  0  0  0  0  0  0  0
   22.3392   -9.1169  -15.8621 C   0  0  0  0  0  0  0  0  0  0  0  0
   23.6026   -8.8544  -15.7932 O   0  0  0  0  0  0  0  0  0  0  0  0
   21.6491   -8.3944  -16.8050 O   0  0  0  0  0  0  0  0  0  0  0  0
  1  2  1  0
  2  3  1  0
  3  4  1  6
  5  3  1  0
  5  7  1  0
  5  6  1  1
  7  9  1  0
  8  7  2  0
  9 10  1  0
 10 11  1  6
 10 13  1  0
 11 12  1  0
 13 14  2  0
 13 20  1  0
 15 16  1  0
 16 18  1  0
 17 16  2  0
 19 18  1  1
 19 21  1  0
 20 19  1  0
 21 22  2  0
 21 23  1  0
M  END
$$$$
