ICN.pdb
     RDKit          3D

 23 22  0  0  1  0  0  0  0  0999 V2000
   14.8667  -13.8033  -12.5520 C   0  0  0  0  0  0  0  0  0  0  0  0
   14.6086  -13.0427  -11.2968 C   0  0  0  0  0  0  0  0  0  0  0  0
   14.8656  -11.5433  -11.4379 C   0  0  2  0  0  0  0  0  0  0  0  0
   16.3399  -11.4186  -11.7405 C   0  0  0  0  0  0  0  0  0  0  0  0
   14.5715  -10.8468  -10.1192 C   0  0  2  0  0  0  0  0  0  0  0  0
   13.1541  -11.0455   -9.8133 N   0  0  0  0  0  0  0  0  0  0  0  0
   14.8513   -9.4144  -10.1926 C   0  0  0  0  0  0  0  0  0  0  0  0
   14.1200   -8.7145  -10.9911 O   0  0  0  0  0  0  0  0  0  0  0  0
   15.8453   -8.7205   -9.4696 N   0  0  0  0  0  0  0  0  0  0  0  0
   15.9943   -7.2721   -9.6299 C   0  0  1  0  0  0  0  0  0  0  0  0
   15.7793   -6.5998   -8.2888 C   0  0  0  0  0  0  0  0  0  0  0  0
   14.0994   -6.8567   -7.7021 S   0  0  0  0  0  0  0  0  0  0  0  0
   17.3461   -6.9868  -10.1516 C   0  0  0  0  0  0  0  0  0  0  0  0
   18.3509   -7.4478   -9.5078 O   0  0  0  0  0  0  0  0  0  0  0  0
   21.4328   -6.0391  -13.0549 N   0  0  0  0  0  0  0  0  0  0  0  0
   20.9012   -7.3415  -12.7408 C   0  0  0  0  0  0  0  0  0  0  0  0
   21.5942   -8.3285  -13.0435 O   0  0  0  0  0  0  0  0  0  0  0  0
   19.5956   -7.4291  -12.0929 C   0  0  0  0  0  0  0  0  0  0  0  0
   19.0079   -6.0885  -11.8191 C   0  0  2  0  0  0  0  0  0  0  0  0
   17.6469   -6.2499  -11.3047 N   0  0  0  0  0  0  0  0  0  0  0  0
   18.9817   -5.2197  -12.9873 C   0  0  0  0  0  0  0  0  0  0  0  0
   20.0627   -4.6428  -13.3975 O   0  0  0  0  0  0  0  0  0  0  0  0
   17.8604   -4.9426  -13.7313 O   0  0  0  0  0  0  0  0  0  0  0  0
  1  2  1  0
  2  3  1  0
  3  4  1  1
  5  3  1  0
  5  7  1  0
  5  6  1  6
  7  9  1  0
  8  7  2  0
  9 10  1  0
 10 11  1  1
 10 13  1  0
 11 12  1  0
 13 14  2  0
 13 20  1  0
 15 16  1  0
 16 18  1  0
 17 16  2  0
 19 18  1  6
 19 21  1  0
 20 19  1  0
 21 22  2  0
 21 23  1  0
M  END
$$$$
