ICN.pdb
     RDKit          3D

 23 22  0  0  1  0  0  0  0  0999 V2000
   16.5253  -18.0644  -17.0597 C   0  0  0  0  0  0  0  0  0  0  0  0
   16.7677  -16.9926  -16.0531 C   0  0  0  0  0  0  0  0  0  0  0  0
   16.9490  -15.6101  -16.6775 C   0  0  2  0  0  0  0  0  0  0  0  0
   18.1965  -15.7150  -17.5220 C   0  0  0  0  0  0  0  0  0  0  0  0
   17.1784  -14.5799  -15.5834 C   0  0  2  0  0  0  0  0  0  0  0  0
   16.1053  -14.7248  -14.5989 N   0  0  0  0  0  0  0  0  0  0  0  0
   17.1636  -13.2185  -16.1142 C   0  0  0  0  0  0  0  0  0  0  0  0
   18.1521  -12.8715  -16.8655 O   0  0  0  0  0  0  0  0  0  0  0  0
   16.1673  -12.2450  -15.8859 N   0  0  0  0  0  0  0  0  0  0  0  0
   16.3302  -10.8888  -16.4150 C   0  0  1  0  0  0  0  0  0  0  0  0
   14.9731  -10.2180  -16.4866 C   0  0  0  0  0  0  0  0  0  0  0  0
   15.1402   -8.4644  -16.8465 S   0  0  0  0  0  0  0  0  0  0  0  0
   17.2429  -10.1381  -15.5294 C   0  0  0  0  0  0  0  0  0  0  0  0
   17.1668  -10.3452  -14.2693 O   0  0  0  0  0  0  0  0  0  0  0  0
   20.9530   -8.4359  -12.4373 N   0  0  0  0  0  0  0  0  0  0  0  0
   21.1790   -8.3659  -13.8591 C   0  0  0  0  0  0  0  0  0  0  0  0
   22.1217   -7.6569  -14.2524 O   0  0  0  0  0  0  0  0  0  0  0  0
   20.3004   -9.1214  -14.7475 C   0  0  0  0  0  0  0  0  0  0  0  0
   19.0095   -8.4221  -14.9966 C   0  0  2  0  0  0  0  0  0  0  0  0
   18.2056   -9.2050  -15.9368 N   0  0  0  0  0  0  0  0  0  0  0  0
   19.1748   -7.0707  -15.5131 C   0  0  0  0  0  0  0  0  0  0  0  0
   19.7377   -6.1590  -14.7908 O   0  0  0  0  0  0  0  0  0  0  0  0
   18.7692   -6.6537  -16.7577 O   0  0  0  0  0  0  0  0  0  0  0  0
  1  2  1  0
  2  3  1  0
  3  4  1  6
  5  3  1  0
  5  7  1  0
  5  6  1  1
  7  9  1  0
  8  7  2  0
  9 10  1  0
 10 11  1  1
 10 13  1  0
 11 12  1  0
 13 14  2  0
 13 20  1  0
 15 16  1  0
 16 18  1  0
 17 16  2  0
 19 18  1  6
 19 21  1  0
 20 19  1  0
 21 22  2  0
 21 23  1  0
M  END
$$$$
