ICN.pdb
     RDKit          3D

 23 22  0  0  1  0  0  0  0  0999 V2000
   11.7781  -12.4884  -11.9747 C   0  0  0  0  0  0  0  0  0  0  0  0
   13.2256  -12.8024  -11.8104 C   0  0  0  0  0  0  0  0  0  0  0  0
   13.9706  -11.7779  -10.9563 C   0  0  2  0  0  0  0  0  0  0  0  0
   13.0915  -10.5500  -10.9498 C   0  0  0  0  0  0  0  0  0  0  0  0
   15.2974  -11.4318  -11.6124 C   0  0  2  0  0  0  0  0  0  0  0  0
   16.1470  -12.6224  -11.5614 N   0  0  0  0  0  0  0  0  0  0  0  0
   15.9686  -10.3322  -10.9226 C   0  0  0  0  0  0  0  0  0  0  0  0
   16.3169  -10.5342   -9.6978 O   0  0  0  0  0  0  0  0  0  0  0  0
   16.2763   -9.0681  -11.4700 N   0  0  0  0  0  0  0  0  0  0  0  0
   16.9333   -8.0507  -10.6459 C   0  0  1  0  0  0  0  0  0  0  0  0
   17.9941   -7.3520  -11.4725 C   0  0  0  0  0  0  0  0  0  0  0  0
   19.5023   -8.3282  -11.5421 S   0  0  0  0  0  0  0  0  0  0  0  0
   15.9160   -7.0901  -10.1735 C   0  0  0  0  0  0  0  0  0  0  0  0
   14.9585   -6.7870  -10.9659 O   0  0  0  0  0  0  0  0  0  0  0  0
   14.0549   -3.7086   -5.4480 N   0  0  0  0  0  0  0  0  0  0  0  0
   13.7307   -4.6541   -6.4864 C   0  0  0  0  0  0  0  0  0  0  0  0
   12.5568   -4.6712   -6.8958 O   0  0  0  0  0  0  0  0  0  0  0  0
   14.7846   -5.5281   -6.9938 C   0  0  0  0  0  0  0  0  0  0  0  0
   14.7984   -5.5944   -8.4813 C   0  0  2  0  0  0  0  0  0  0  0  0
   15.8902   -6.4659   -8.9193 N   0  0  0  0  0  0  0  0  0  0  0  0
   14.9375   -4.2915   -9.1165 C   0  0  0  0  0  0  0  0  0  0  0  0
   13.8905   -3.6129   -9.4525 O   0  0  0  0  0  0  0  0  0  0  0  0
   16.1364   -3.6860   -9.4057 O   0  0  0  0  0  0  0  0  0  0  0  0
  1  2  1  0
  2  3  1  0
  3  4  1  6
  5  3  1  0
  5  7  1  0
  5  6  1  1
  7  9  1  0
  8  7  2  0
  9 10  1  0
 10 11  1  6
 10 13  1  0
 11 12  1  0
 13 14  2  0
 13 20  1  0
 15 16  1  0
 16 18  1  0
 17 16  2  0
 19 18  1  1
 19 21  1  0
 20 19  1  0
 21 22  2  0
 21 23  1  0
M  END
$$$$
