ICN.pdb
     RDKit          3D

 23 22  0  0  1  0  0  0  0  0999 V2000
   18.6215  -11.4824  -21.8848 C   0  0  0  0  0  0  0  0  0  0  0  0
   19.6660  -12.0346  -20.9766 C   0  0  0  0  0  0  0  0  0  0  0  0
   19.8219  -11.2368  -19.6831 C   0  0  2  0  0  0  0  0  0  0  0  0
   20.4692   -9.9355  -20.0933 C   0  0  0  0  0  0  0  0  0  0  0  0
   20.7537  -11.9746  -18.7353 C   0  0  2  0  0  0  0  0  0  0  0  0
   20.0970  -13.2216  -18.3411 N   0  0  0  0  0  0  0  0  0  0  0  0
   21.0423  -11.1844  -17.5404 C   0  0  0  0  0  0  0  0  0  0  0  0
   20.1077  -11.0953  -16.6568 O   0  0  0  0  0  0  0  0  0  0  0  0
   22.2498  -10.5102  -17.2577 N   0  0  0  0  0  0  0  0  0  0  0  0
   22.4170   -9.8051  -15.9847 C   0  0  1  0  0  0  0  0  0  0  0  0
   23.8227  -10.0390  -15.4689 C   0  0  0  0  0  0  0  0  0  0  0  0
   23.9533  -11.6389  -14.6592 S   0  0  0  0  0  0  0  0  0  0  0  0
   22.1678   -8.3656  -16.2007 C   0  0  0  0  0  0  0  0  0  0  0  0
   22.6795   -7.8133  -17.2350 O   0  0  0  0  0  0  0  0  0  0  0  0
   18.2830   -3.8897  -15.5995 N   0  0  0  0  0  0  0  0  0  0  0  0
   19.4460   -4.4773  -16.2158 C   0  0  0  0  0  0  0  0  0  0  0  0
   20.1358   -3.7447  -16.9461 O   0  0  0  0  0  0  0  0  0  0  0  0
   19.7459   -5.8817  -15.9521 C   0  0  0  0  0  0  0  0  0  0  0  0
   21.1885   -6.1078  -15.6599 C   0  0  2  0  0  0  0  0  0  0  0  0
   21.4103   -7.5261  -15.3732 N   0  0  0  0  0  0  0  0  0  0  0  0
   21.6852   -5.3082  -14.5489 C   0  0  0  0  0  0  0  0  0  0  0  0
   21.8042   -5.8275  -13.3716 O   0  0  0  0  0  0  0  0  0  0  0  0
   22.0581   -3.9891  -14.6394 O   0  0  0  0  0  0  0  0  0  0  0  0
  1  2  1  0
  2  3  1  0
  3  4  1  6
  5  3  1  0
  5  7  1  0
  5  6  1  1
  7  9  1  0
  8  7  2  0
  9 10  1  0
 10 11  1  6
 10 13  1  0
 11 12  1  0
 13 14  2  0
 13 20  1  0
 15 16  1  0
 16 18  1  0
 17 16  2  0
 19 18  1  1
 19 21  1  0
 20 19  1  0
 21 22  2  0
 21 23  1  0
M  END
$$$$
