ICN.pdb
     RDKit          3D

 23 22  0  0  1  0  0  0  0  0999 V2000
   22.6163  -23.8322  -21.4211 C   0  0  0  0  0  0  0  0  0  0  0  0
   23.0746  -22.5830  -20.7500 C   0  0  0  0  0  0  0  0  0  0  0  0
   22.3760  -22.3252  -19.4160 C   0  0  2  0  0  0  0  0  0  0  0  0
   20.9233  -22.1030  -19.7636 C   0  0  0  0  0  0  0  0  0  0  0  0
   22.9315  -21.0597  -18.7830 C   0  0  2  0  0  0  0  0  0  0  0  0
   24.3341  -21.3056  -18.4451 N   0  0  0  0  0  0  0  0  0  0  0  0
   22.2008  -20.6988  -17.5701 C   0  0  0  0  0  0  0  0  0  0  0  0
   22.3988  -21.4304  -16.5271 O   0  0  0  0  0  0  0  0  0  0  0  0
   21.2993  -19.6220  -17.4286 N   0  0  0  0  0  0  0  0  0  0  0  0
   20.6131  -19.4008  -16.1534 C   0  0  1  0  0  0  0  0  0  0  0  0
   20.3185  -17.9223  -15.9985 C   0  0  0  0  0  0  0  0  0  0  0  0
   21.8144  -17.0059  -15.6051 S   0  0  0  0  0  0  0  0  0  0  0  0
   19.3655  -20.1908  -16.1401 C   0  0  0  0  0  0  0  0  0  0  0  0
   18.7002  -20.2863  -17.2287 O   0  0  0  0  0  0  0  0  0  0  0  0
   17.0743  -23.9742  -16.3874 N   0  0  0  0  0  0  0  0  0  0  0  0
   17.4091  -24.0743  -14.9890 C   0  0  0  0  0  0  0  0  0  0  0  0
   17.4195  -25.2110  -14.4852 O   0  0  0  0  0  0  0  0  0  0  0  0
   17.7136  -22.8519  -14.2509 C   0  0  0  0  0  0  0  0  0  0  0  0
   17.5823  -21.6325  -15.0955 C   0  0  2  0  0  0  0  0  0  0  0  0
   18.8261  -20.8627  -15.0352 N   0  0  0  0  0  0  0  0  0  0  0  0
   16.4680  -20.7788  -14.7083 C   0  0  0  0  0  0  0  0  0  0  0  0
   15.3530  -20.8236  -15.3598 O   0  0  0  0  0  0  0  0  0  0  0  0
   16.4919  -19.8869  -13.6636 O   0  0  0  0  0  0  0  0  0  0  0  0
  1  2  1  0
  2  3  1  0
  3  4  1  6
  5  3  1  0
  5  7  1  0
  5  6  1  1
  7  9  1  0
  8  7  2  0
  9 10  1  0
 10 11  1  6
 10 13  1  0
 11 12  1  0
 13 14  2  0
 13 20  1  0
 15 16  1  0
 16 18  1  0
 17 16  2  0
 19 18  1  1
 19 21  1  0
 20 19  1  0
 21 22  2  0
 21 23  1  0
M  END
$$$$
