ICN.pdb
     RDKit          3D

 23 22  0  0  1  0  0  0  0  0999 V2000
   17.7426  -14.3662  -19.8031 C   0  0  0  0  0  0  0  0  0  0  0  0
   19.0925  -13.7377  -19.8615 C   0  0  0  0  0  0  0  0  0  0  0  0
   19.4303  -12.9204  -18.6157 C   0  0  2  0  0  0  0  0  0  0  0  0
   19.5270  -11.4904  -19.0917 C   0  0  0  0  0  0  0  0  0  0  0  0
   20.7823  -13.3519  -18.0709 C   0  0  2  0  0  0  0  0  0  0  0  0
   20.6280  -14.6889  -17.4960 N   0  0  0  0  0  0  0  0  0  0  0  0
   21.2636  -12.4370  -17.0381 C   0  0  0  0  0  0  0  0  0  0  0  0
   20.7104  -12.5211  -15.8766 O   0  0  0  0  0  0  0  0  0  0  0  0
   22.2805  -11.4697  -17.1886 N   0  0  0  0  0  0  0  0  0  0  0  0
   22.6585  -10.6188  -16.0577 C   0  0  1  0  0  0  0  0  0  0  0  0
   24.1564  -10.7107  -15.8467 C   0  0  0  0  0  0  0  0  0  0  0  0
   24.5816  -12.1625  -14.8753 S   0  0  0  0  0  0  0  0  0  0  0  0
   22.2517   -9.2295  -16.3496 C   0  0  0  0  0  0  0  0  0  0  0  0
   22.4335   -8.7841  -17.5351 O   0  0  0  0  0  0  0  0  0  0  0  0
   19.1510   -5.0778  -17.7342 N   0  0  0  0  0  0  0  0  0  0  0  0
   19.4910   -5.4682  -16.3890 C   0  0  0  0  0  0  0  0  0  0  0  0
   19.4082   -4.5981  -15.5047 O   0  0  0  0  0  0  0  0  0  0  0  0
   19.9084   -6.8454  -16.1422 C   0  0  0  0  0  0  0  0  0  0  0  0
   21.3506   -6.9450  -15.7852 C   0  0  2  0  0  0  0  0  0  0  0  0
   21.6725   -8.3316  -15.4433 N   0  0  0  0  0  0  0  0  0  0  0  0
   21.7342   -6.0753  -14.6822 C   0  0  0  0  0  0  0  0  0  0  0  0
   22.0444   -4.8401  -14.9009 O   0  0  0  0  0  0  0  0  0  0  0  0
   21.7997   -6.4634  -13.3659 O   0  0  0  0  0  0  0  0  0  0  0  0
  1  2  1  0
  2  3  1  0
  3  4  1  6
  5  3  1  0
  5  7  1  0
  5  6  1  1
  7  9  1  0
  8  7  2  0
  9 10  1  0
 10 11  1  6
 10 13  1  0
 11 12  1  0
 13 14  2  0
 13 20  1  0
 15 16  1  0
 16 18  1  0
 17 16  2  0
 19 18  1  1
 19 21  1  0
 20 19  1  0
 21 22  2  0
 21 23  1  0
M  END
$$$$
