ICN.pdb
     RDKit          3D

 23 22  0  0  1  0  0  0  0  0999 V2000
   19.9474  -19.7284  -15.5789 C   0  0  0  0  0  0  0  0  0  0  0  0
   21.0309  -19.5205  -14.5772 C   0  0  0  0  0  0  0  0  0  0  0  0
   20.8867  -20.4074  -13.3416 C   0  0  2  0  0  0  0  0  0  0  0  0
   19.5677  -20.0136  -12.7204 C   0  0  0  0  0  0  0  0  0  0  0  0
   22.0058  -20.1029  -12.3589 C   0  0  2  0  0  0  0  0  0  0  0  0
   23.2787  -20.3318  -13.0438 N   0  0  0  0  0  0  0  0  0  0  0  0
   21.9339  -20.9609  -11.1782 C   0  0  0  0  0  0  0  0  0  0  0  0
   21.6213  -22.1969  -11.3700 O   0  0  0  0  0  0  0  0  0  0  0  0
   22.1774  -20.5671   -9.8448 N   0  0  0  0  0  0  0  0  0  0  0  0
   22.0492  -21.5391   -8.7564 C   0  0  1  0  0  0  0  0  0  0  0  0
   23.0773  -21.2259   -7.6880 C   0  0  0  0  0  0  0  0  0  0  0  0
   24.7188  -21.0615   -8.4028 S   0  0  0  0  0  0  0  0  0  0  0  0
   20.6800  -21.4633   -8.2084 C   0  0  0  0  0  0  0  0  0  0  0  0
   19.9472  -20.4720   -8.5504 O   0  0  0  0  0  0  0  0  0  0  0  0
   16.3947  -24.1376   -8.2197 N   0  0  0  0  0  0  0  0  0  0  0  0
   17.4354  -24.2032   -9.2147 C   0  0  0  0  0  0  0  0  0  0  0  0
   17.1723  -24.7934  -10.2770 O   0  0  0  0  0  0  0  0  0  0  0  0
   18.7241  -23.5814   -8.9243 C   0  0  0  0  0  0  0  0  0  0  0  0
   18.7657  -22.9711   -7.5667 C   0  0  2  0  0  0  0  0  0  0  0  0
   20.0880  -22.3866   -7.3364 N   0  0  0  0  0  0  0  0  0  0  0  0
   18.4635  -23.9146   -6.4996 C   0  0  0  0  0  0  0  0  0  0  0  0
   17.2384  -24.2198   -6.2244 O   0  0  0  0  0  0  0  0  0  0  0  0
   19.4048  -24.5422   -5.7202 O   0  0  0  0  0  0  0  0  0  0  0  0
  1  2  1  0
  2  3  1  0
  3  4  1  1
  5  3  1  0
  5  7  1  0
  5  6  1  6
  7  9  1  0
  8  7  2  0
  9 10  1  0
 10 11  1  1
 10 13  1  0
 11 12  1  0
 13 14  2  0
 13 20  1  0
 15 16  1  0
 16 18  1  0
 17 16  2  0
 19 18  1  6
 19 21  1  0
 20 19  1  0
 21 22  2  0
 21 23  1  0
M  END
$$$$
