ICN.pdb
     RDKit          3D

 23 22  0  0  1  0  0  0  0  0999 V2000
   18.9174  -16.3322  -17.4657 C   0  0  0  0  0  0  0  0  0  0  0  0
   19.2029  -15.3727  -18.5696 C   0  0  0  0  0  0  0  0  0  0  0  0
   20.1503  -14.2468  -18.1587 C   0  0  2  0  0  0  0  0  0  0  0  0
   19.4219  -13.4894  -17.0741 C   0  0  0  0  0  0  0  0  0  0  0  0
   20.3837  -13.3174  -19.3387 C   0  0  2  0  0  0  0  0  0  0  0  0
   21.1740  -14.0446  -20.3329 N   0  0  0  0  0  0  0  0  0  0  0  0
   21.1054  -12.1111  -18.9394 C   0  0  0  0  0  0  0  0  0  0  0  0
   22.3508  -12.2470  -18.6348 O   0  0  0  0  0  0  0  0  0  0  0  0
   20.5705  -10.8074  -18.8580 N   0  0  0  0  0  0  0  0  0  0  0  0
   21.4247   -9.6862  -18.4594 C   0  0  1  0  0  0  0  0  0  0  0  0
   21.6181   -8.7635  -19.6460 C   0  0  0  0  0  0  0  0  0  0  0  0
   20.0408   -8.1313  -20.2334 S   0  0  0  0  0  0  0  0  0  0  0  0
   20.7826   -8.9733  -17.3368 C   0  0  0  0  0  0  0  0  0  0  0  0
   19.5076   -8.8678  -17.3394 O   0  0  0  0  0  0  0  0  0  0  0  0
   19.6587   -6.4062  -13.0251 N   0  0  0  0  0  0  0  0  0  0  0  0
   20.4744   -7.5614  -12.7462 C   0  0  0  0  0  0  0  0  0  0  0  0
   20.5944   -7.9008  -11.5561 O   0  0  0  0  0  0  0  0  0  0  0  0
   21.1064   -8.2600  -13.8617 C   0  0  0  0  0  0  0  0  0  0  0  0
   20.7397   -7.6718  -15.1796 C   0  0  2  0  0  0  0  0  0  0  0  0
   21.4401   -8.3909  -16.2451 N   0  0  0  0  0  0  0  0  0  0  0  0
   21.0382   -6.2502  -15.2809 C   0  0  0  0  0  0  0  0  0  0  0  0
   22.1911   -5.8531  -15.7085 O   0  0  0  0  0  0  0  0  0  0  0  0
   20.1661   -5.2419  -14.9490 O   0  0  0  0  0  0  0  0  0  0  0  0
  1  2  1  0
  2  3  1  0
  3  4  1  1
  5  3  1  0
  5  7  1  0
  5  6  1  6
  7  9  1  0
  8  7  2  0
  9 10  1  0
 10 11  1  6
 10 13  1  0
 11 12  1  0
 13 14  2  0
 13 20  1  0
 15 16  1  0
 16 18  1  0
 17 16  2  0
 19 18  1  1
 19 21  1  0
 20 19  1  0
 21 22  2  0
 21 23  1  0
M  END
$$$$
