DHW.pdb
     RDKit          3D

 33 35  0  0  1  0  0  0  0  0999 V2000
   22.9349  -22.0722  -16.5442 N   0  0  0  0  0  0  0  0  0  0  0  0
   22.6949  -21.2967  -15.3437 C   0  0  1  0  0  0  0  0  0  0  0  0
   21.3560  -21.6484  -14.7420 C   0  0  0  0  0  0  0  0  0  0  0  0
   20.2969  -21.0105  -15.5615 C   0  0  0  0  0  0  0  0  0  0  0  0
   19.1937  -21.5893  -15.7732 O   0  0  0  0  0  0  0  0  0  0  0  0
   23.8225  -21.5539  -14.4118 C   0  0  0  0  0  0  0  0  0  0  0  0
   24.0489  -22.7010  -13.9582 O   0  0  0  0  0  0  0  0  0  0  0  0
   20.5045  -19.7669  -16.1069 O   0  0  0  0  0  0  0  0  0  0  0  0
   24.6958  -20.5056  -13.9921 N   0  0  0  0  0  0  0  0  0  0  0  0
   25.7586  -20.6980  -13.0599 C   0  0  1  0  0  0  0  0  0  0  0  0
   27.0160  -19.9355  -13.3567 C   0  0  0  0  0  0  0  0  0  0  0  0
   27.6419  -20.3392  -14.6329 C   0  0  0  0  0  0  0  0  0  0  0  0
   28.4772  -21.4050  -14.8519 C   0  0  0  0  0  0  0  0  0  0  0  0
   28.8166  -21.4123  -16.1734 N   0  0  0  0  0  0  0  0  0  0  0  0
   28.1950  -20.3692  -16.7307 C   0  0  0  0  0  0  0  0  0  0  0  0
   27.4775  -19.7093  -15.8038 N   0  0  0  0  0  0  0  0  0  0  0  0
   25.2894  -20.5182  -11.6441 C   0  0  0  0  0  0  0  0  0  0  0  0
   24.3790  -19.6805  -11.3686 O   0  0  0  0  0  0  0  0  0  0  0  0
   25.8333  -21.2605  -10.5683 N   0  0  0  0  0  0  0  0  0  0  0  0
   25.8393  -20.7799   -9.1905 C   0  0  1  0  0  0  0  0  0  0  0  0
   26.8434  -21.4956   -8.3537 C   0  0  0  0  0  0  0  0  0  0  0  0
   27.1400  -20.9055   -7.0490 C   0  0  0  0  0  0  0  0  0  0  0  0
   26.1725  -20.5028   -6.1564 C   0  0  0  0  0  0  0  0  0  0  0  0
   26.7607  -20.0367   -5.0469 N   0  0  0  0  0  0  0  0  0  0  0  0
   28.1018  -20.1166   -5.1752 C   0  0  0  0  0  0  0  0  0  0  0  0
   29.1238  -19.7615   -4.3162 C   0  0  0  0  0  0  0  0  0  0  0  0
   30.4482  -19.9447   -4.7016 C   0  0  0  0  0  0  0  0  0  0  0  0
   30.7009  -20.4828   -5.9450 C   0  0  0  0  0  0  0  0  0  0  0  0
   29.6658  -20.8270   -6.7775 C   0  0  0  0  0  0  0  0  0  0  0  0
   28.3336  -20.6571   -6.4221 C   0  0  0  0  0  0  0  0  0  0  0  0
   25.8257  -19.3176   -9.1096 C   0  0  0  0  0  0  0  0  0  0  0  0
   24.8808  -18.6272   -8.3741 O   0  0  0  0  0  0  0  0  0  0  0  0
   26.6897  -18.6189   -9.7241 O   0  0  0  0  0  0  0  0  0  0  0  0
  2  1  1  6
  2  3  1  0
  3  4  1  0
  4  8  1  0
  5  4  2  0
  6  2  1  0
  6  7  2  0
  9  6  1  0
 10  9  1  0
 10 11  1  6
 12 11  1  0
 12 16  1  0
 13 14  1  0
 13 12  2  0
 14 15  1  0
 15 16  2  0
 17 10  1  0
 18 17  2  0
 19 17  1  0
 20 19  1  0
 21 22  1  0
 20 21  1  6
 22 30  1  0
 22 23  2  0
 23 24  1  0
 25 26  2  0
 25 24  1  0
 27 26  1  0
 28 27  2  0
 29 28  1  0
 29 30  2  0
 30 25  1  0
 31 20  1  0
 31 32  1  0
 33 31  2  0
M  END
$$$$
