DHW.pdb
     RDKit          3D

 33 35  0  0  1  0  0  0  0  0999 V2000
   29.1316  -22.9531  -17.0286 N   0  0  0  0  0  0  0  0  0  0  0  0
   28.5631  -22.7761  -18.3499 C   0  0  1  0  0  0  0  0  0  0  0  0
   29.5252  -23.2522  -19.4110 C   0  0  0  0  0  0  0  0  0  0  0  0
   30.7627  -22.4403  -19.3136 C   0  0  0  0  0  0  0  0  0  0  0  0
   31.8205  -22.9148  -18.8108 O   0  0  0  0  0  0  0  0  0  0  0  0
   27.2715  -23.5088  -18.3832 C   0  0  0  0  0  0  0  0  0  0  0  0
   26.5671  -23.5481  -19.4200 O   0  0  0  0  0  0  0  0  0  0  0  0
   30.7745  -21.1464  -19.7748 O   0  0  0  0  0  0  0  0  0  0  0  0
   26.7769  -24.1987  -17.2355 N   0  0  0  0  0  0  0  0  0  0  0  0
   25.5747  -24.9670  -17.2416 C   0  0  1  0  0  0  0  0  0  0  0  0
   25.5142  -26.0688  -16.2254 C   0  0  0  0  0  0  0  0  0  0  0  0
   26.3499  -27.2311  -16.5916 C   0  0  0  0  0  0  0  0  0  0  0  0
   27.0482  -27.4223  -17.7566 C   0  0  0  0  0  0  0  0  0  0  0  0
   27.6875  -28.6249  -17.6745 N   0  0  0  0  0  0  0  0  0  0  0  0
   27.3747  -29.1404  -16.4823 C   0  0  0  0  0  0  0  0  0  0  0  0
   26.5620  -28.3017  -15.8147 N   0  0  0  0  0  0  0  0  0  0  0  0
   24.3577  -24.0865  -17.2184 C   0  0  0  0  0  0  0  0  0  0  0  0
   24.1392  -23.3150  -16.2368 O   0  0  0  0  0  0  0  0  0  0  0  0
   23.4118  -24.0777  -18.2717 N   0  0  0  0  0  0  0  0  0  0  0  0
   22.1960  -23.2710  -18.2448 C   0  0  1  0  0  0  0  0  0  0  0  0
   21.8943  -22.6712  -19.5753 C   0  0  0  0  0  0  0  0  0  0  0  0
   20.6810  -21.8594  -19.6611 C   0  0  0  0  0  0  0  0  0  0  0  0
   20.5737  -20.5905  -19.1384 C   0  0  0  0  0  0  0  0  0  0  0  0
   19.3556  -20.1027  -19.4074 N   0  0  0  0  0  0  0  0  0  0  0  0
   18.6421  -21.0166  -20.0982 C   0  0  0  0  0  0  0  0  0  0  0  0
   17.3526  -20.9841  -20.5929 C   0  0  0  0  0  0  0  0  0  0  0  0
   16.8449  -22.0841  -21.2772 C   0  0  0  0  0  0  0  0  0  0  0  0
   17.6566  -23.1857  -21.4421 C   0  0  0  0  0  0  0  0  0  0  0  0
   18.9338  -23.1900  -20.9404 C   0  0  0  0  0  0  0  0  0  0  0  0
   19.4699  -22.1080  -20.2536 C   0  0  0  0  0  0  0  0  0  0  0  0
   21.0949  -23.9442  -17.5526 C   0  0  0  0  0  0  0  0  0  0  0  0
   20.2038  -23.2631  -16.7448 O   0  0  0  0  0  0  0  0  0  0  0  0
   20.9175  -25.1965  -17.6654 O   0  0  0  0  0  0  0  0  0  0  0  0
  2  1  1  1
  2  3  1  0
  3  4  1  0
  4  8  1  0
  5  4  2  0
  6  2  1  0
  6  7  2  0
  9  6  1  0
 10  9  1  0
 10 11  1  1
 12 11  1  0
 12 16  1  0
 13 14  1  0
 13 12  2  0
 14 15  1  0
 15 16  2  0
 17 10  1  0
 18 17  2  0
 19 17  1  0
 20 19  1  0
 21 22  1  0
 20 21  1  6
 22 30  1  0
 22 23  2  0
 23 24  1  0
 25 26  2  0
 25 24  1  0
 27 26  1  0
 28 27  2  0
 29 28  1  0
 29 30  2  0
 30 25  1  0
 31 20  1  0
 31 32  1  0
 33 31  2  0
M  END
$$$$
