DHW.pdb
     RDKit          3D

 33 35  0  0  1  0  0  0  0  0999 V2000
   19.5804  -25.5682  -16.5294 N   0  0  0  0  0  0  0  0  0  0  0  0
   19.7281  -24.7688  -15.3296 C   0  0  1  0  0  0  0  0  0  0  0  0
   19.0504  -23.4304  -15.4954 C   0  0  0  0  0  0  0  0  0  0  0  0
   19.8710  -22.6053  -16.4152 C   0  0  0  0  0  0  0  0  0  0  0  0
   19.4140  -22.2081  -17.5243 O   0  0  0  0  0  0  0  0  0  0  0  0
   19.1700  -25.5526  -14.1981 C   0  0  0  0  0  0  0  0  0  0  0  0
   18.7600  -24.9935  -13.1531 O   0  0  0  0  0  0  0  0  0  0  0  0
   21.1540  -22.2580  -16.0682 O   0  0  0  0  0  0  0  0  0  0  0  0
   19.0779  -26.9761  -14.2520 N   0  0  0  0  0  0  0  0  0  0  0  0
   18.6878  -27.7782  -13.1384 C   0  0  1  0  0  0  0  0  0  0  0  0
   17.4000  -28.5282  -13.3098 C   0  0  0  0  0  0  0  0  0  0  0  0
   16.2451  -27.6361  -13.5419 C   0  0  0  0  0  0  0  0  0  0  0  0
   15.5582  -26.9012  -12.6093 C   0  0  0  0  0  0  0  0  0  0  0  0
   14.5711  -26.2149  -13.2546 N   0  0  0  0  0  0  0  0  0  0  0  0
   14.6684  -26.5361  -14.5478 C   0  0  0  0  0  0  0  0  0  0  0  0
   15.6829  -27.3995  -14.7347 N   0  0  0  0  0  0  0  0  0  0  0  0
   19.8138  -28.6550  -12.6692 C   0  0  0  0  0  0  0  0  0  0  0  0
   20.5941  -29.2036  -13.5039 O   0  0  0  0  0  0  0  0  0  0  0  0
   20.0523  -28.9083  -11.2969 N   0  0  0  0  0  0  0  0  0  0  0  0
   21.1246  -29.7760  -10.8209 C   0  0  1  0  0  0  0  0  0  0  0  0
   21.8091  -29.2122   -9.6231 C   0  0  0  0  0  0  0  0  0  0  0  0
   22.7747  -30.0850   -8.9566 C   0  0  0  0  0  0  0  0  0  0  0  0
   24.1385  -29.9608   -9.0964 C   0  0  0  0  0  0  0  0  0  0  0  0
   24.7467  -30.8824   -8.3383 N   0  0  0  0  0  0  0  0  0  0  0  0
   23.8214  -31.6235   -7.6933 C   0  0  0  0  0  0  0  0  0  0  0  0
   23.9500  -32.6815   -6.8143 C   0  0  0  0  0  0  0  0  0  0  0  0
   22.8133  -33.2862   -6.2867 C   0  0  0  0  0  0  0  0  0  0  0  0
   21.5787  -32.8027   -6.6628 C   0  0  0  0  0  0  0  0  0  0  0  0
   21.4809  -31.7498   -7.5373 C   0  0  0  0  0  0  0  0  0  0  0  0
   22.5961  -31.1246   -8.0809 C   0  0  0  0  0  0  0  0  0  0  0  0
   20.7177  -31.1814  -10.7555 C   0  0  0  0  0  0  0  0  0  0  0  0
   19.4564  -31.5667  -10.3417 O   0  0  0  0  0  0  0  0  0  0  0  0
   21.5201  -32.1119  -11.0759 O   0  0  0  0  0  0  0  0  0  0  0  0
  2  1  1  6
  2  3  1  0
  3  4  1  0
  4  8  1  0
  5  4  2  0
  6  2  1  0
  6  7  2  0
  9  6  1  0
 10  9  1  0
 10 11  1  6
 12 11  1  0
 12 16  1  0
 13 14  1  0
 13 12  2  0
 14 15  1  0
 15 16  2  0
 17 10  1  0
 18 17  2  0
 19 17  1  0
 20 19  1  0
 21 22  1  0
 20 21  1  1
 22 30  1  0
 22 23  2  0
 23 24  1  0
 25 26  2  0
 25 24  1  0
 27 26  1  0
 28 27  2  0
 29 28  1  0
 29 30  2  0
 30 25  1  0
 31 20  1  0
 31 32  1  0
 33 31  2  0
M  END
$$$$
