DHW.pdb
     RDKit          3D

 33 35  0  0  1  0  0  0  0  0999 V2000
   27.1994  -22.5942  -16.8842 N   0  0  0  0  0  0  0  0  0  0  0  0
   28.5184  -22.3590  -16.3318 C   0  0  1  0  0  0  0  0  0  0  0  0
   29.4436  -21.7981  -17.3844 C   0  0  0  0  0  0  0  0  0  0  0  0
   28.6745  -20.8401  -18.2155 C   0  0  0  0  0  0  0  0  0  0  0  0
   29.1251  -19.6884  -18.4753 O   0  0  0  0  0  0  0  0  0  0  0  0
   28.3610  -21.4481  -15.1693 C   0  0  0  0  0  0  0  0  0  0  0  0
   29.3540  -21.0095  -14.5414 O   0  0  0  0  0  0  0  0  0  0  0  0
   27.4477  -21.1974  -18.7199 O   0  0  0  0  0  0  0  0  0  0  0  0
   27.0719  -21.0342  -14.7167 N   0  0  0  0  0  0  0  0  0  0  0  0
   26.8745  -20.1753  -13.5948 C   0  0  1  0  0  0  0  0  0  0  0  0
   26.1152  -18.9135  -13.8805 C   0  0  0  0  0  0  0  0  0  0  0  0
   26.8506  -17.9929  -14.7722 C   0  0  0  0  0  0  0  0  0  0  0  0
   28.0885  -18.1845  -15.3312 C   0  0  0  0  0  0  0  0  0  0  0  0
   28.3843  -17.0900  -16.0903 N   0  0  0  0  0  0  0  0  0  0  0  0
   27.3413  -16.2617  -15.9845 C   0  0  0  0  0  0  0  0  0  0  0  0
   26.4024  -16.8001  -15.1857 N   0  0  0  0  0  0  0  0  0  0  0  0
   26.3300  -20.9274  -12.4138 C   0  0  0  0  0  0  0  0  0  0  0  0
   25.4155  -21.7917  -12.5663 O   0  0  0  0  0  0  0  0  0  0  0  0
   26.8015  -20.7095  -11.0969 N   0  0  0  0  0  0  0  0  0  0  0  0
   26.2297  -21.3668   -9.9262 C   0  0  1  0  0  0  0  0  0  0  0  0
   27.2311  -21.5351   -8.8354 C   0  0  0  0  0  0  0  0  0  0  0  0
   27.3891  -20.4060   -7.9196 C   0  0  0  0  0  0  0  0  0  0  0  0
   26.6410  -19.2529   -7.9943 C   0  0  0  0  0  0  0  0  0  0  0  0
   26.9994  -18.4280   -7.0017 N   0  0  0  0  0  0  0  0  0  0  0  0
   27.9724  -19.0013   -6.2628 C   0  0  0  0  0  0  0  0  0  0  0  0
   28.6606  -18.5515   -5.1526 C   0  0  0  0  0  0  0  0  0  0  0  0
   29.6408  -19.3516   -4.5736 C   0  0  0  0  0  0  0  0  0  0  0  0
   29.8962  -20.5845   -5.1339 C   0  0  0  0  0  0  0  0  0  0  0  0
   29.1966  -21.0060   -6.2365 C   0  0  0  0  0  0  0  0  0  0  0  0
   28.2122  -20.2314   -6.8373 C   0  0  0  0  0  0  0  0  0  0  0  0
   24.9271  -20.8101   -9.5544 C   0  0  0  0  0  0  0  0  0  0  0  0
   24.0755  -21.4483   -8.6724 O   0  0  0  0  0  0  0  0  0  0  0  0
   24.5228  -19.7079  -10.0384 O   0  0  0  0  0  0  0  0  0  0  0  0
  2  1  1  6
  2  3  1  0
  3  4  1  0
  4  8  1  0
  5  4  2  0
  6  2  1  0
  6  7  2  0
  9  6  1  0
 10  9  1  0
 10 11  1  6
 12 11  1  0
 12 16  1  0
 13 14  1  0
 13 12  2  0
 14 15  1  0
 15 16  2  0
 17 10  1  0
 18 17  2  0
 19 17  1  0
 20 19  1  0
 21 22  1  0
 20 21  1  1
 22 30  1  0
 22 23  2  0
 23 24  1  0
 25 26  2  0
 25 24  1  0
 27 26  1  0
 28 27  2  0
 29 28  1  0
 29 30  2  0
 30 25  1  0
 31 20  1  0
 31 32  1  0
 33 31  2  0
M  END
$$$$
