DHW.pdb
     RDKit          3D

 33 35  0  0  1  0  0  0  0  0999 V2000
   17.3296  -14.4785  -17.8355 N   0  0  0  0  0  0  0  0  0  0  0  0
   17.2262  -13.5850  -16.6992 C   0  0  1  0  0  0  0  0  0  0  0  0
   17.6664  -14.2805  -15.4340 C   0  0  0  0  0  0  0  0  0  0  0  0
   16.5569  -15.1498  -14.9719 C   0  0  0  0  0  0  0  0  0  0  0  0
   15.3494  -14.8195  -15.1449 O   0  0  0  0  0  0  0  0  0  0  0  0
   18.0429  -12.3816  -17.0003 C   0  0  0  0  0  0  0  0  0  0  0  0
   19.1455  -12.4691  -17.5912 O   0  0  0  0  0  0  0  0  0  0  0  0
   16.8315  -16.3397  -14.3428 O   0  0  0  0  0  0  0  0  0  0  0  0
   17.6072  -11.0739  -16.6287 N   0  0  0  0  0  0  0  0  0  0  0  0
   18.3729   -9.8949  -16.8721 C   0  0  1  0  0  0  0  0  0  0  0  0
   17.6178   -8.6045  -16.7488 C   0  0  0  0  0  0  0  0  0  0  0  0
   18.4566   -7.4216  -17.0327 C   0  0  0  0  0  0  0  0  0  0  0  0
   18.8650   -6.4568  -16.1473 C   0  0  0  0  0  0  0  0  0  0  0  0
   19.6283   -5.5536  -16.8279 N   0  0  0  0  0  0  0  0  0  0  0  0
   19.6729   -5.9730  -18.0956 C   0  0  0  0  0  0  0  0  0  0  0  0
   18.9643   -7.1082  -18.2322 N   0  0  0  0  0  0  0  0  0  0  0  0
   19.6534   -9.8973  -16.0865 C   0  0  0  0  0  0  0  0  0  0  0  0
   19.6562  -10.2173  -14.8600 O   0  0  0  0  0  0  0  0  0  0  0  0
   20.8961   -9.5462  -16.6667 N   0  0  0  0  0  0  0  0  0  0  0  0
   22.1454   -9.5082  -15.9135 C   0  0  1  0  0  0  0  0  0  0  0  0
   23.1716  -10.4238  -16.4874 C   0  0  0  0  0  0  0  0  0  0  0  0
   24.5149  -10.3321  -15.9169 C   0  0  0  0  0  0  0  0  0  0  0  0
   24.8320  -10.7438  -14.6421 C   0  0  0  0  0  0  0  0  0  0  0  0
   26.1416  -10.5593  -14.4305 N   0  0  0  0  0  0  0  0  0  0  0  0
   26.7109  -10.0319  -15.5347 C   0  0  0  0  0  0  0  0  0  0  0  0
   28.0155   -9.6645  -15.8025 C   0  0  0  0  0  0  0  0  0  0  0  0
   28.3435   -9.1277  -17.0436 C   0  0  0  0  0  0  0  0  0  0  0  0
   27.3423   -8.9784  -17.9788 C   0  0  0  0  0  0  0  0  0  0  0  0
   26.0550   -9.3525  -17.6856 C   0  0  0  0  0  0  0  0  0  0  0  0
   25.6956   -9.8917  -16.4568 C   0  0  0  0  0  0  0  0  0  0  0  0
   22.5702   -8.1407  -15.6061 C   0  0  0  0  0  0  0  0  0  0  0  0
   22.9353   -7.7494  -14.3318 O   0  0  0  0  0  0  0  0  0  0  0  0
   22.6150   -7.2494  -16.5095 O   0  0  0  0  0  0  0  0  0  0  0  0
  2  1  1  6
  2  3  1  0
  3  4  1  0
  4  8  1  0
  5  4  2  0
  6  2  1  0
  6  7  2  0
  9  6  1  0
 10  9  1  0
 10 11  1  1
 12 11  1  0
 12 16  1  0
 13 14  1  0
 13 12  2  0
 14 15  1  0
 15 16  2  0
 17 10  1  0
 18 17  2  0
 19 17  1  0
 20 19  1  0
 21 22  1  0
 20 21  1  6
 22 30  1  0
 22 23  2  0
 23 24  1  0
 25 26  2  0
 25 24  1  0
 27 26  1  0
 28 27  2  0
 29 28  1  0
 29 30  2  0
 30 25  1  0
 31 20  1  0
 31 32  1  0
 33 31  2  0
M  END
$$$$
