DHW.pdb
     RDKit          3D

 33 35  0  0  1  0  0  0  0  0999 V2000
   27.7301  -20.2046  -18.7528 N   0  0  0  0  0  0  0  0  0  0  0  0
   27.1172  -21.1708  -17.8635 C   0  0  1  0  0  0  0  0  0  0  0  0
   28.0412  -21.4982  -16.7157 C   0  0  0  0  0  0  0  0  0  0  0  0
   28.9597  -22.5779  -17.1524 C   0  0  0  0  0  0  0  0  0  0  0  0
   29.5591  -22.5195  -18.2634 O   0  0  0  0  0  0  0  0  0  0  0  0
   25.8233  -20.6018  -17.4075 C   0  0  0  0  0  0  0  0  0  0  0  0
   25.6734  -19.3683  -17.2382 O   0  0  0  0  0  0  0  0  0  0  0  0
   29.1732  -23.6681  -16.3445 O   0  0  0  0  0  0  0  0  0  0  0  0
   24.6954  -21.4356  -17.1418 N   0  0  0  0  0  0  0  0  0  0  0  0
   23.4373  -20.9320  -16.6956 C   0  0  1  0  0  0  0  0  0  0  0  0
   22.2883  -21.1589  -17.6331 C   0  0  0  0  0  0  0  0  0  0  0  0
   22.4677  -20.4791  -18.9327 C   0  0  0  0  0  0  0  0  0  0  0  0
   22.9116  -21.0300  -20.1079 C   0  0  0  0  0  0  0  0  0  0  0  0
   22.9190  -20.0509  -21.0581 N   0  0  0  0  0  0  0  0  0  0  0  0
   22.4878  -18.9372  -20.4591 C   0  0  0  0  0  0  0  0  0  0  0  0
   22.2101  -19.1854  -19.1665 N   0  0  0  0  0  0  0  0  0  0  0  0
   23.1362  -21.3679  -15.2898 C   0  0  0  0  0  0  0  0  0  0  0  0
   23.3732  -22.5566  -14.9191 O   0  0  0  0  0  0  0  0  0  0  0  0
   22.5810  -20.4888  -14.3291 N   0  0  0  0  0  0  0  0  0  0  0  0
   22.2024  -20.9126  -12.9850 C   0  0  1  0  0  0  0  0  0  0  0  0
   23.2430  -20.5659  -11.9762 C   0  0  0  0  0  0  0  0  0  0  0  0
   24.4807  -19.9840  -12.4941 C   0  0  0  0  0  0  0  0  0  0  0  0
   24.5157  -18.9558  -13.4087 C   0  0  0  0  0  0  0  0  0  0  0  0
   25.7904  -18.6277  -13.6568 N   0  0  0  0  0  0  0  0  0  0  0  0
   26.6122  -19.4137  -12.9298 C   0  0  0  0  0  0  0  0  0  0  0  0
   27.9902  -19.4623  -12.8453 C   0  0  0  0  0  0  0  0  0  0  0  0
   28.6008  -20.3904  -12.0075 C   0  0  0  0  0  0  0  0  0  0  0  0
   27.7997  -21.2425  -11.2784 C   0  0  0  0  0  0  0  0  0  0  0  0
   26.4332  -21.1714  -11.3817 C   0  0  0  0  0  0  0  0  0  0  0  0
   25.7935  -20.2562  -12.2082 C   0  0  0  0  0  0  0  0  0  0  0  0
   20.8174  -20.5650  -12.6598 C   0  0  0  0  0  0  0  0  0  0  0  0
   20.0610  -19.7236  -13.4539 O   0  0  0  0  0  0  0  0  0  0  0  0
   20.2528  -21.0252  -11.6197 O   0  0  0  0  0  0  0  0  0  0  0  0
  2  1  1  6
  2  3  1  0
  3  4  1  0
  4  8  1  0
  5  4  2  0
  6  2  1  0
  6  7  2  0
  9  6  1  0
 10  9  1  0
 10 11  1  6
 12 11  1  0
 12 16  1  0
 13 14  1  0
 13 12  2  0
 14 15  1  0
 15 16  2  0
 17 10  1  0
 18 17  2  0
 19 17  1  0
 20 19  1  0
 21 22  1  0
 20 21  1  1
 22 30  1  0
 22 23  2  0
 23 24  1  0
 25 26  2  0
 25 24  1  0
 27 26  1  0
 28 27  2  0
 29 28  1  0
 29 30  2  0
 30 25  1  0
 31 20  1  0
 31 32  1  0
 33 31  2  0
M  END
$$$$
