DHW.pdb
     RDKit          3D

 33 35  0  0  1  0  0  0  0  0999 V2000
   26.5410  -20.5373  -18.4268 N   0  0  0  0  0  0  0  0  0  0  0  0
   27.1613  -20.8998  -17.1682 C   0  0  1  0  0  0  0  0  0  0  0  0
   28.6651  -20.8284  -17.2763 C   0  0  0  0  0  0  0  0  0  0  0  0
   29.1326  -22.0129  -18.0368 C   0  0  0  0  0  0  0  0  0  0  0  0
   28.3142  -22.8288  -18.5483 O   0  0  0  0  0  0  0  0  0  0  0  0
   26.6222  -19.9902  -16.1251 C   0  0  0  0  0  0  0  0  0  0  0  0
   26.9623  -18.7845  -16.0679 O   0  0  0  0  0  0  0  0  0  0  0  0
   30.4779  -22.2405  -18.1970 O   0  0  0  0  0  0  0  0  0  0  0  0
   25.6945  -20.4506  -15.1426 N   0  0  0  0  0  0  0  0  0  0  0  0
   25.2258  -19.6387  -14.0671 C   0  0  1  0  0  0  0  0  0  0  0  0
   24.3220  -18.5094  -14.4647 C   0  0  0  0  0  0  0  0  0  0  0  0
   23.4396  -18.8549  -15.5985 C   0  0  0  0  0  0  0  0  0  0  0  0
   23.3812  -20.0456  -16.2770 C   0  0  0  0  0  0  0  0  0  0  0  0
   22.4251  -19.9351  -17.2442 N   0  0  0  0  0  0  0  0  0  0  0  0
   21.9240  -18.7007  -17.1433 C   0  0  0  0  0  0  0  0  0  0  0  0
   22.5330  -18.0345  -16.1459 N   0  0  0  0  0  0  0  0  0  0  0  0
   24.6598  -20.4725  -12.9530 C   0  0  0  0  0  0  0  0  0  0  0  0
   24.1739  -21.6191  -13.1892 O   0  0  0  0  0  0  0  0  0  0  0  0
   24.6399  -20.0252  -11.6100 N   0  0  0  0  0  0  0  0  0  0  0  0
   24.0685  -20.8062  -10.5178 C   0  0  1  0  0  0  0  0  0  0  0  0
   24.7490  -20.5333   -9.2204 C   0  0  0  0  0  0  0  0  0  0  0  0
   26.1978  -20.7299   -9.1935 C   0  0  0  0  0  0  0  0  0  0  0  0
   26.8929  -21.4141  -10.1649 C   0  0  0  0  0  0  0  0  0  0  0  0
   28.1998  -21.3920   -9.8724 N   0  0  0  0  0  0  0  0  0  0  0  0
   28.3976  -20.7088   -8.7254 C   0  0  0  0  0  0  0  0  0  0  0  0
   29.5511  -20.4201   -8.0221 C   0  0  0  0  0  0  0  0  0  0  0  0
   29.4776  -19.6899   -6.8400 C   0  0  0  0  0  0  0  0  0  0  0  0
   28.2391  -19.2719   -6.4033 C   0  0  0  0  0  0  0  0  0  0  0  0
   27.1099  -19.5727   -7.1226 C   0  0  0  0  0  0  0  0  0  0  0  0
   27.1498  -20.2990   -8.3061 C   0  0  0  0  0  0  0  0  0  0  0  0
   22.6041  -20.7806  -10.5201 C   0  0  0  0  0  0  0  0  0  0  0  0
   21.8482  -21.6920   -9.8071 O   0  0  0  0  0  0  0  0  0  0  0  0
   21.9646  -19.9119  -11.1900 O   0  0  0  0  0  0  0  0  0  0  0  0
  2  1  1  6
  2  3  1  0
  3  4  1  0
  4  8  1  0
  5  4  2  0
  6  2  1  0
  6  7  2  0
  9  6  1  0
 10  9  1  0
 10 11  1  6
 12 11  1  0
 12 16  1  0
 13 14  1  0
 13 12  2  0
 14 15  1  0
 15 16  2  0
 17 10  1  0
 18 17  2  0
 19 17  1  0
 20 19  1  0
 21 22  1  0
 20 21  1  1
 22 30  1  0
 22 23  2  0
 23 24  1  0
 25 26  2  0
 25 24  1  0
 27 26  1  0
 28 27  2  0
 29 28  1  0
 29 30  2  0
 30 25  1  0
 31 20  1  0
 31 32  1  0
 33 31  2  0
M  END
$$$$
