DHW.pdb
     RDKit          3D

 33 35  0  0  1  0  0  0  0  0999 V2000
   30.6719  -27.0738  -17.4807 N   0  0  0  0  0  0  0  0  0  0  0  0
   29.3473  -26.8343  -16.9437 C   0  0  1  0  0  0  0  0  0  0  0  0
   28.9310  -25.4018  -17.1741 C   0  0  0  0  0  0  0  0  0  0  0  0
   29.9348  -24.5178  -16.5330 C   0  0  0  0  0  0  0  0  0  0  0  0
   29.8156  -23.2600  -16.5634 O   0  0  0  0  0  0  0  0  0  0  0  0
   28.4228  -27.8051  -17.5830 C   0  0  0  0  0  0  0  0  0  0  0  0
   28.6924  -28.3379  -18.6857 O   0  0  0  0  0  0  0  0  0  0  0  0
   31.0197  -25.0620  -15.8898 O   0  0  0  0  0  0  0  0  0  0  0  0
   27.1873  -28.1721  -16.9691 N   0  0  0  0  0  0  0  0  0  0  0  0
   26.2960  -29.1398  -17.5209 C   0  0  1  0  0  0  0  0  0  0  0  0
   26.9099  -30.4738  -17.8278 C   0  0  0  0  0  0  0  0  0  0  0  0
   27.2150  -31.2562  -16.6120 C   0  0  0  0  0  0  0  0  0  0  0  0
   28.3271  -31.1592  -15.8150 C   0  0  0  0  0  0  0  0  0  0  0  0
   28.1990  -32.0599  -14.7981 N   0  0  0  0  0  0  0  0  0  0  0  0
   27.0319  -32.6822  -14.9870 C   0  0  0  0  0  0  0  0  0  0  0  0
   26.4244  -32.2017  -16.0868 N   0  0  0  0  0  0  0  0  0  0  0  0
   25.0347  -29.2518  -16.7126 C   0  0  0  0  0  0  0  0  0  0  0  0
   25.0857  -29.4874  -15.4682 O   0  0  0  0  0  0  0  0  0  0  0  0
   23.7512  -29.1047  -17.2914 N   0  0  0  0  0  0  0  0  0  0  0  0
   22.6956  -28.2930  -16.6945 C   0  0  1  0  0  0  0  0  0  0  0  0
   23.1952  -26.9573  -16.2617 C   0  0  0  0  0  0  0  0  0  0  0  0
   22.2096  -26.0587  -15.6623 C   0  0  0  0  0  0  0  0  0  0  0  0
   22.1630  -25.7652  -14.3182 C   0  0  0  0  0  0  0  0  0  0  0  0
   21.1735  -24.8919  -14.0900 N   0  0  0  0  0  0  0  0  0  0  0  0
   20.5537  -24.5932  -15.2512 C   0  0  0  0  0  0  0  0  0  0  0  0
   19.4886  -23.7585  -15.5291 C   0  0  0  0  0  0  0  0  0  0  0  0
   19.0304  -23.6315  -16.8368 C   0  0  0  0  0  0  0  0  0  0  0  0
   19.6635  -24.3521  -17.8264 C   0  0  0  0  0  0  0  0  0  0  0  0
   20.7198  -25.1733  -17.5214 C   0  0  0  0  0  0  0  0  0  0  0  0
   21.2010  -25.3213  -16.2266 C   0  0  0  0  0  0  0  0  0  0  0  0
   21.4598  -28.3193  -17.4801 C   0  0  0  0  0  0  0  0  0  0  0  0
   20.2095  -28.3069  -16.8910 O   0  0  0  0  0  0  0  0  0  0  0  0
   21.4902  -28.3601  -18.7489 O   0  0  0  0  0  0  0  0  0  0  0  0
  2  1  1  6
  2  3  1  0
  3  4  1  0
  4  8  1  0
  5  4  2  0
  6  2  1  0
  6  7  2  0
  9  6  1  0
 10  9  1  0
 10 11  1  1
 12 11  1  0
 12 16  1  0
 13 14  1  0
 13 12  2  0
 14 15  1  0
 15 16  2  0
 17 10  1  0
 18 17  2  0
 19 17  1  0
 20 19  1  0
 21 22  1  0
 20 21  1  6
 22 30  1  0
 22 23  2  0
 23 24  1  0
 25 26  2  0
 25 24  1  0
 27 26  1  0
 28 27  2  0
 29 28  1  0
 29 30  2  0
 30 25  1  0
 31 20  1  0
 31 32  1  0
 33 31  2  0
M  END
$$$$
