DHW.pdb
     RDKit          3D

 33 35  0  0  1  0  0  0  0  0999 V2000
   19.4185  -13.1138  -16.4338 N   0  0  0  0  0  0  0  0  0  0  0  0
   18.3248  -12.1946  -16.1908 C   0  0  1  0  0  0  0  0  0  0  0  0
   17.0523  -12.9493  -15.8915 C   0  0  0  0  0  0  0  0  0  0  0  0
   16.5133  -13.4756  -17.1693 C   0  0  0  0  0  0  0  0  0  0  0  0
   16.6614  -12.8435  -18.2534 O   0  0  0  0  0  0  0  0  0  0  0  0
   18.7310  -11.3002  -15.0768 C   0  0  0  0  0  0  0  0  0  0  0  0
   19.3287  -11.7418  -14.0667 O   0  0  0  0  0  0  0  0  0  0  0  0
   15.8384  -14.6719  -17.1903 O   0  0  0  0  0  0  0  0  0  0  0  0
   18.4569   -9.8996  -15.1085 N   0  0  0  0  0  0  0  0  0  0  0  0
   18.9622   -8.9809  -14.1409 C   0  0  1  0  0  0  0  0  0  0  0  0
   19.9888   -8.0136  -14.6518 C   0  0  0  0  0  0  0  0  0  0  0  0
   21.2804   -8.6610  -14.9615 C   0  0  0  0  0  0  0  0  0  0  0  0
   21.8097   -8.9156  -16.2011 C   0  0  0  0  0  0  0  0  0  0  0  0
   23.0210   -9.5195  -16.0283 N   0  0  0  0  0  0  0  0  0  0  0  0
   23.2088   -9.6230  -14.7096 C   0  0  0  0  0  0  0  0  0  0  0  0
   22.1572   -9.1041  -14.0506 N   0  0  0  0  0  0  0  0  0  0  0  0
   17.8508   -8.3062  -13.3882 C   0  0  0  0  0  0  0  0  0  0  0  0
   16.8193   -7.8915  -13.9970 O   0  0  0  0  0  0  0  0  0  0  0  0
   17.9018   -8.1026  -11.9882 N   0  0  0  0  0  0  0  0  0  0  0  0
   16.8865   -7.3549  -11.2537 C   0  0  1  0  0  0  0  0  0  0  0  0
   16.9815   -7.5799   -9.7836 C   0  0  0  0  0  0  0  0  0  0  0  0
   15.9739   -6.9146   -8.9587 C   0  0  0  0  0  0  0  0  0  0  0  0
   14.8521   -7.5444   -8.4689 C   0  0  0  0  0  0  0  0  0  0  0  0
   14.1475   -6.6798   -7.7274 N   0  0  0  0  0  0  0  0  0  0  0  0
   14.7709   -5.4828   -7.7092 C   0  0  0  0  0  0  0  0  0  0  0  0
   14.4395   -4.2902   -7.0958 C   0  0  0  0  0  0  0  0  0  0  0  0
   15.2667   -3.1812   -7.2442 C   0  0  0  0  0  0  0  0  0  0  0  0
   16.4062   -3.3107   -8.0086 C   0  0  0  0  0  0  0  0  0  0  0  0
   16.7108   -4.5079   -8.6060 C   0  0  0  0  0  0  0  0  0  0  0  0
   15.9062   -5.6330   -8.4767 C   0  0  0  0  0  0  0  0  0  0  0  0
   16.7768   -5.9673  -11.7094 C   0  0  0  0  0  0  0  0  0  0  0  0
   15.5567   -5.3582  -11.9349 O   0  0  0  0  0  0  0  0  0  0  0  0
   17.8119   -5.2633  -11.9223 O   0  0  0  0  0  0  0  0  0  0  0  0
  2  1  1  1
  2  3  1  0
  3  4  1  0
  4  8  1  0
  5  4  2  0
  6  2  1  0
  6  7  2  0
  9  6  1  0
 10  9  1  0
 10 11  1  6
 12 11  1  0
 12 16  1  0
 13 14  1  0
 13 12  2  0
 14 15  1  0
 15 16  2  0
 17 10  1  0
 18 17  2  0
 19 17  1  0
 20 19  1  0
 21 22  1  0
 20 21  1  1
 22 30  1  0
 22 23  2  0
 23 24  1  0
 25 26  2  0
 25 24  1  0
 27 26  1  0
 28 27  2  0
 29 28  1  0
 29 30  2  0
 30 25  1  0
 31 20  1  0
 31 32  1  0
 33 31  2  0
M  END
$$$$
