DHW.pdb
     RDKit          3D

 33 35  0  0  1  0  0  0  0  0999 V2000
   20.1723  -21.9094  -13.2319 N   0  0  0  0  0  0  0  0  0  0  0  0
   20.8993  -20.6851  -12.9621 C   0  0  1  0  0  0  0  0  0  0  0  0
   20.4440  -20.0721  -11.6600 C   0  0  0  0  0  0  0  0  0  0  0  0
   19.0522  -19.5900  -11.8354 C   0  0  0  0  0  0  0  0  0  0  0  0
   18.7254  -18.8763  -12.8257 O   0  0  0  0  0  0  0  0  0  0  0  0
   22.3473  -21.0156  -12.9595 C   0  0  0  0  0  0  0  0  0  0  0  0
   22.7773  -22.0716  -12.4373 O   0  0  0  0  0  0  0  0  0  0  0  0
   18.0892  -19.9179  -10.9123 O   0  0  0  0  0  0  0  0  0  0  0  0
   23.3111  -20.1442  -13.5507 N   0  0  0  0  0  0  0  0  0  0  0  0
   24.7067  -20.4371  -13.5976 C   0  0  1  0  0  0  0  0  0  0  0  0
   25.4455  -19.8476  -14.7625 C   0  0  0  0  0  0  0  0  0  0  0  0
   26.8886  -20.1649  -14.7444 C   0  0  0  0  0  0  0  0  0  0  0  0
   27.9266  -19.3120  -14.4678 C   0  0  0  0  0  0  0  0  0  0  0  0
   29.0903  -20.0189  -14.5560 N   0  0  0  0  0  0  0  0  0  0  0  0
   28.7509  -21.2699  -14.8798 C   0  0  0  0  0  0  0  0  0  0  0  0
   27.4146  -21.3708  -14.9969 N   0  0  0  0  0  0  0  0  0  0  0  0
   25.3739  -20.1539  -12.2817 C   0  0  0  0  0  0  0  0  0  0  0  0
   25.0941  -19.1031  -11.6304 O   0  0  0  0  0  0  0  0  0  0  0  0
   26.3319  -21.0298  -11.7168 N   0  0  0  0  0  0  0  0  0  0  0  0
   27.1770  -20.6640  -10.5847 C   0  0  1  0  0  0  0  0  0  0  0  0
   26.6334  -21.1738   -9.2942 C   0  0  0  0  0  0  0  0  0  0  0  0
   26.8855  -20.3496   -8.1129 C   0  0  0  0  0  0  0  0  0  0  0  0
   26.3437  -19.0980   -7.9264 C   0  0  0  0  0  0  0  0  0  0  0  0
   26.7365  -18.6183   -6.7390 N   0  0  0  0  0  0  0  0  0  0  0  0
   27.5311  -19.5198   -6.1246 C   0  0  0  0  0  0  0  0  0  0  0  0
   28.1765  -19.4855   -4.9037 C   0  0  0  0  0  0  0  0  0  0  0  0
   28.9563  -20.5654   -4.5014 C   0  0  0  0  0  0  0  0  0  0  0  0
   29.0604  -21.6497   -5.3457 C   0  0  0  0  0  0  0  0  0  0  0  0
   28.4077  -21.6567   -6.5527 C   0  0  0  0  0  0  0  0  0  0  0  0
   27.6216  -20.5951   -6.9827 C   0  0  0  0  0  0  0  0  0  0  0  0
   28.5977  -20.9018  -10.8493 C   0  0  0  0  0  0  0  0  0  0  0  0
   29.0577  -22.0779  -11.4112 O   0  0  0  0  0  0  0  0  0  0  0  0
   29.4731  -20.0273  -10.5644 O   0  0  0  0  0  0  0  0  0  0  0  0
  2  1  1  1
  2  3  1  0
  3  4  1  0
  4  8  1  0
  5  4  2  0
  6  2  1  0
  6  7  2  0
  9  6  1  0
 10  9  1  0
 10 11  1  6
 12 11  1  0
 12 16  1  0
 13 14  1  0
 13 12  2  0
 14 15  1  0
 15 16  2  0
 17 10  1  0
 18 17  2  0
 19 17  1  0
 20 19  1  0
 21 22  1  0
 20 21  1  1
 22 30  1  0
 22 23  2  0
 23 24  1  0
 25 26  2  0
 25 24  1  0
 27 26  1  0
 28 27  2  0
 29 28  1  0
 29 30  2  0
 30 25  1  0
 31 20  1  0
 31 32  1  0
 33 31  2  0
M  END
$$$$
