DHW.pdb
     RDKit          3D

 33 35  0  0  1  0  0  0  0  0999 V2000
   24.9368  -18.8842  -18.9408 N   0  0  0  0  0  0  0  0  0  0  0  0
   23.9671  -19.9612  -18.9470 C   0  0  1  0  0  0  0  0  0  0  0  0
   24.3186  -20.9874  -19.9966 C   0  0  0  0  0  0  0  0  0  0  0  0
   24.2043  -20.3462  -21.3293 C   0  0  0  0  0  0  0  0  0  0  0  0
   23.3895  -19.4026  -21.5353 O   0  0  0  0  0  0  0  0  0  0  0  0
   23.9294  -20.5373  -17.5785 C   0  0  0  0  0  0  0  0  0  0  0  0
   23.6309  -21.7393  -17.3817 O   0  0  0  0  0  0  0  0  0  0  0  0
   24.9929  -20.7753  -22.3690 O   0  0  0  0  0  0  0  0  0  0  0  0
   24.2304  -19.7463  -16.4289 N   0  0  0  0  0  0  0  0  0  0  0  0
   24.2462  -20.2687  -15.1014 C   0  0  1  0  0  0  0  0  0  0  0  0
   25.5398  -20.0969  -14.3613 C   0  0  0  0  0  0  0  0  0  0  0  0
   26.7078  -20.5677  -15.1343 C   0  0  0  0  0  0  0  0  0  0  0  0
   27.2371  -21.8329  -15.1582 C   0  0  0  0  0  0  0  0  0  0  0  0
   28.3045  -21.8292  -16.0082 N   0  0  0  0  0  0  0  0  0  0  0  0
   28.4087  -20.5840  -16.4812 C   0  0  0  0  0  0  0  0  0  0  0  0
   27.4431  -19.8080  -15.9571 N   0  0  0  0  0  0  0  0  0  0  0  0
   23.0571  -19.8015  -14.3110 C   0  0  0  0  0  0  0  0  0  0  0  0
   23.0645  -18.6671  -13.7457 O   0  0  0  0  0  0  0  0  0  0  0  0
   21.8927  -20.5924  -14.1599 N   0  0  0  0  0  0  0  0  0  0  0  0
   20.6957  -20.1252  -13.4683 C   0  0  1  0  0  0  0  0  0  0  0  0
   19.6843  -19.5730  -14.4134 C   0  0  0  0  0  0  0  0  0  0  0  0
   20.0010  -18.2809  -15.0206 C   0  0  0  0  0  0  0  0  0  0  0  0
   20.6630  -18.1435  -16.2196 C   0  0  0  0  0  0  0  0  0  0  0  0
   20.7713  -16.8424  -16.5187 N   0  0  0  0  0  0  0  0  0  0  0  0
   20.1974  -16.1030  -15.5463 C   0  0  0  0  0  0  0  0  0  0  0  0
   20.0597  -14.7362  -15.3998 C   0  0  0  0  0  0  0  0  0  0  0  0
   19.4194  -14.2205  -14.2772 C   0  0  0  0  0  0  0  0  0  0  0  0
   18.9359  -15.1025  -13.3350 C   0  0  0  0  0  0  0  0  0  0  0  0
   19.0862  -16.4556  -13.5069 C   0  0  0  0  0  0  0  0  0  0  0  0
   19.7198  -17.0015  -14.6162 C   0  0  0  0  0  0  0  0  0  0  0  0
   20.2194  -21.0834  -12.4682 C   0  0  0  0  0  0  0  0  0  0  0  0
   20.7927  -22.3309  -12.3087 O   0  0  0  0  0  0  0  0  0  0  0  0
   19.2457  -20.8029  -11.7030 O   0  0  0  0  0  0  0  0  0  0  0  0
  2  1  1  1
  2  3  1  0
  3  4  1  0
  4  8  1  0
  5  4  2  0
  6  2  1  0
  6  7  2  0
  9  6  1  0
 10  9  1  0
 10 11  1  1
 12 11  1  0
 12 16  1  0
 13 14  1  0
 13 12  2  0
 14 15  1  0
 15 16  2  0
 17 10  1  0
 18 17  2  0
 19 17  1  0
 20 19  1  0
 21 22  1  0
 20 21  1  6
 22 30  1  0
 22 23  2  0
 23 24  1  0
 25 26  2  0
 25 24  1  0
 27 26  1  0
 28 27  2  0
 29 28  1  0
 29 30  2  0
 30 25  1  0
 31 20  1  0
 31 32  1  0
 33 31  2  0
M  END
$$$$
