GCI.pdb
     RDKit          3D

 19 18  0  0  1  0  0  0  0  0999 V2000
    7.6259  -13.0244   18.1425 N   0  0  0  0  0  0  0  0  0  0  0  0
    8.6601  -13.4540   19.0726 C   0  0  0  0  0  0  0  0  0  0  0  0
    7.9699  -13.9746   20.2984 C   0  0  0  0  0  0  0  0  0  0  0  0
    7.0471  -13.3289   20.8626 O   0  0  0  0  0  0  0  0  0  0  0  0
    8.3283  -15.2239   20.8791 N   0  0  0  0  0  0  0  0  0  0  0  0
    7.6034  -15.7262   22.0276 C   0  0  1  0  0  0  0  0  0  0  0  0
    7.6667  -17.2442   21.9660 C   0  0  0  0  0  0  0  0  0  0  0  0
    6.8232  -17.9607   23.3998 S   0  0  0  0  0  0  0  0  0  0  0  0
    8.2145  -15.2762   23.3037 C   0  0  0  0  0  0  0  0  0  0  0  0
    9.4782  -15.1537   23.3194 O   0  0  0  0  0  0  0  0  0  0  0  0
    5.5485  -11.6276   26.4113 C   0  0  0  0  0  0  0  0  0  0  0  0
    6.6418  -12.3732   25.6907 C   0  0  0  0  0  0  0  0  0  0  0  0
    7.1878  -13.5467   26.4096 C   0  0  2  0  0  0  0  0  0  0  0  0
    8.0306  -12.9987   27.5701 C   0  0  0  0  0  0  0  0  0  0  0  0
    8.0751  -14.4612   25.6185 C   0  0  2  0  0  0  0  0  0  0  0  0
    7.4293  -14.9969   24.4478 N   0  0  0  0  0  0  0  0  0  0  0  0
    8.6815  -15.5517   26.3807 C   0  0  0  0  0  0  0  0  0  0  0  0
    8.1136  -16.8146   26.4664 O   0  0  0  0  0  0  0  0  0  0  0  0
    9.7612  -15.3895   27.0019 O   0  0  0  0  0  0  0  0  0  0  0  0
  1  2  1  0
  3  4  2  0
  3  2  1  0
  5  3  1  0
  6  9  1  0
  6  5  1  0
  6  7  1  1
  8  7  1  0
  9 10  2  0
 11 12  1  0
 13 12  1  0
 13 14  1  1
 15 13  1  0
 15 16  1  6
 16  9  1  0
 17 15  1  0
 18 17  1  0
 19 17  2  0
M  END
$$$$
