GCI.pdb
     RDKit          3D

 19 18  0  0  1  0  0  0  0  0999 V2000
    9.9060  -16.1920   19.1404 N   0  0  0  0  0  0  0  0  0  0  0  0
   10.2895  -16.8988   20.3540 C   0  0  0  0  0  0  0  0  0  0  0  0
    9.2206  -16.6448   21.3752 C   0  0  0  0  0  0  0  0  0  0  0  0
    8.4434  -15.6573   21.2879 O   0  0  0  0  0  0  0  0  0  0  0  0
    9.0372  -17.5104   22.4902 N   0  0  0  0  0  0  0  0  0  0  0  0
    8.1117  -17.1516   23.5445 C   0  0  1  0  0  0  0  0  0  0  0  0
    7.5508  -18.4486   24.1062 C   0  0  0  0  0  0  0  0  0  0  0  0
    6.3932  -18.0939   25.4533 S   0  0  0  0  0  0  0  0  0  0  0  0
    8.7866  -16.4114   24.6405 C   0  0  0  0  0  0  0  0  0  0  0  0
   10.0367  -16.5935   24.7670 O   0  0  0  0  0  0  0  0  0  0  0  0
    6.1107  -12.0241   26.6984 C   0  0  0  0  0  0  0  0  0  0  0  0
    7.3270  -12.7256   26.1518 C   0  0  0  0  0  0  0  0  0  0  0  0
    7.9838  -13.6717   27.0822 C   0  0  2  0  0  0  0  0  0  0  0  0
    8.9284  -12.8397   27.9614 C   0  0  0  0  0  0  0  0  0  0  0  0
    8.8095  -14.7571   26.4584 C   0  0  2  0  0  0  0  0  0  0  0  0
    8.0736  -15.5448   25.5031 N   0  0  0  0  0  0  0  0  0  0  0  0
    9.4845  -15.6456   27.4035 C   0  0  0  0  0  0  0  0  0  0  0  0
    8.9369  -16.8482   27.8261 O   0  0  0  0  0  0  0  0  0  0  0  0
   10.6086  -15.3534   27.8822 O   0  0  0  0  0  0  0  0  0  0  0  0
  1  2  1  0
  3  4  2  0
  3  2  1  0
  5  3  1  0
  6  9  1  0
  6  5  1  0
  6  7  1  1
  8  7  1  0
  9 10  2  0
 11 12  1  0
 13 12  1  0
 13 14  1  1
 15 13  1  0
 15 16  1  6
 16  9  1  0
 17 15  1  0
 18 17  1  0
 19 17  2  0
M  END
$$$$
