GCI.pdb
     RDKit          3D

 19 18  0  0  1  0  0  0  0  0999 V2000
    7.5399  -17.1413   18.9360 N   0  0  0  0  0  0  0  0  0  0  0  0
    8.2358  -17.7813   20.0430 C   0  0  0  0  0  0  0  0  0  0  0  0
    7.5473  -17.3592   21.3069 C   0  0  0  0  0  0  0  0  0  0  0  0
    6.7641  -16.3730   21.3361 O   0  0  0  0  0  0  0  0  0  0  0  0
    7.7491  -18.0560   22.5317 N   0  0  0  0  0  0  0  0  0  0  0  0
    7.0799  -17.6151   23.7377 C   0  0  1  0  0  0  0  0  0  0  0  0
    6.8877  -18.8420   24.6152 C   0  0  0  0  0  0  0  0  0  0  0  0
    5.6661  -19.9535   23.8717 S   0  0  0  0  0  0  0  0  0  0  0  0
    7.8902  -16.6192   24.4836 C   0  0  0  0  0  0  0  0  0  0  0  0
    9.1436  -16.6375   24.2825 O   0  0  0  0  0  0  0  0  0  0  0  0
    5.4812  -11.9943   26.2717 C   0  0  0  0  0  0  0  0  0  0  0  0
    6.6301  -12.7725   25.6846 C   0  0  0  0  0  0  0  0  0  0  0  0
    7.3915  -13.6004   26.6473 C   0  0  2  0  0  0  0  0  0  0  0  0
    8.4269  -12.6744   27.3014 C   0  0  0  0  0  0  0  0  0  0  0  0
    8.1449  -14.7651   26.0771 C   0  0  2  0  0  0  0  0  0  0  0  0
    7.2967  -15.6941   25.3755 N   0  0  0  0  0  0  0  0  0  0  0  0
    8.9782  -15.4942   27.0322 C   0  0  0  0  0  0  0  0  0  0  0  0
   10.2932  -15.1440   27.3020 O   0  0  0  0  0  0  0  0  0  0  0  0
    8.5320  -16.4865   27.6602 O   0  0  0  0  0  0  0  0  0  0  0  0
  1  2  1  0
  3  4  2  0
  3  2  1  0
  5  3  1  0
  6  9  1  0
  6  5  1  0
  6  7  1  1
  8  7  1  0
  9 10  2  0
 11 12  1  0
 13 12  1  0
 13 14  1  6
 15 13  1  0
 15 16  1  1
 16  9  1  0
 17 15  1  0
 18 17  1  0
 19 17  2  0
M  END
$$$$
