GCI.pdb
     RDKit          3D

 19 18  0  0  1  0  0  0  0  0999 V2000
    7.4151  -12.7441   18.4279 N   0  0  0  0  0  0  0  0  0  0  0  0
    8.3067  -13.8279   18.8150 C   0  0  0  0  0  0  0  0  0  0  0  0
    7.8206  -14.3570   20.1317 C   0  0  0  0  0  0  0  0  0  0  0  0
    7.0851  -13.6707   20.8898 O   0  0  0  0  0  0  0  0  0  0  0  0
    8.1700  -15.6609   20.5834 N   0  0  0  0  0  0  0  0  0  0  0  0
    7.6022  -16.1821   21.8092 C   0  0  1  0  0  0  0  0  0  0  0  0
    7.8382  -17.6842   21.8070 C   0  0  0  0  0  0  0  0  0  0  0  0
    6.8073  -18.4741   20.5444 S   0  0  0  0  0  0  0  0  0  0  0  0
    8.2552  -15.6000   23.0090 C   0  0  0  0  0  0  0  0  0  0  0  0
    9.4945  -15.3405   22.9149 O   0  0  0  0  0  0  0  0  0  0  0  0
    6.9150  -11.2911   27.0120 C   0  0  0  0  0  0  0  0  0  0  0  0
    7.7827  -12.4769   26.6786 C   0  0  0  0  0  0  0  0  0  0  0  0
    7.2389  -13.3894   25.6473 C   0  0  2  0  0  0  0  0  0  0  0  0
    5.9785  -14.0295   26.2467 C   0  0  0  0  0  0  0  0  0  0  0  0
    8.1329  -14.5109   25.2092 C   0  0  2  0  0  0  0  0  0  0  0  0
    7.5338  -15.3460   24.2000 N   0  0  0  0  0  0  0  0  0  0  0  0
    8.6523  -15.3498   26.2884 C   0  0  0  0  0  0  0  0  0  0  0  0
    9.6057  -14.9052   27.1928 O   0  0  0  0  0  0  0  0  0  0  0  0
    8.2510  -16.5298   26.4458 O   0  0  0  0  0  0  0  0  0  0  0  0
  1  2  1  0
  3  4  2  0
  3  2  1  0
  5  3  1  0
  6  9  1  0
  6  5  1  0
  6  7  1  6
  8  7  1  0
  9 10  2  0
 11 12  1  0
 13 12  1  0
 13 14  1  1
 15 13  1  0
 15 16  1  6
 16  9  1  0
 17 15  1  0
 18 17  1  0
 19 17  2  0
M  END
$$$$
