GCI.pdb
     RDKit          3D

 19 18  0  0  1  0  0  0  0  0999 V2000
   11.2684  -16.2047   20.0980 N   0  0  0  0  0  0  0  0  0  0  0  0
   10.9654  -17.3731   20.9118 C   0  0  0  0  0  0  0  0  0  0  0  0
   10.3123  -16.8835   22.1703 C   0  0  0  0  0  0  0  0  0  0  0  0
   10.5698  -15.7478   22.6506 O   0  0  0  0  0  0  0  0  0  0  0  0
    9.3707  -17.6824   22.8784 N   0  0  0  0  0  0  0  0  0  0  0  0
    8.7672  -17.1858   24.0974 C   0  0  1  0  0  0  0  0  0  0  0  0
    7.5291  -18.0292   24.3580 C   0  0  0  0  0  0  0  0  0  0  0  0
    6.6483  -17.4082   25.8137 S   0  0  0  0  0  0  0  0  0  0  0  0
    9.6842  -17.3162   25.2579 C   0  0  0  0  0  0  0  0  0  0  0  0
   10.5786  -18.2139   25.1806 O   0  0  0  0  0  0  0  0  0  0  0  0
    9.6618  -13.6545   29.8303 C   0  0  0  0  0  0  0  0  0  0  0  0
    9.4969  -14.8974   28.9947 C   0  0  0  0  0  0  0  0  0  0  0  0
   10.6959  -15.3100   28.2304 C   0  0  2  0  0  0  0  0  0  0  0  0
   11.0011  -14.1740   27.2436 C   0  0  0  0  0  0  0  0  0  0  0  0
   10.5735  -16.5686   27.4241 C   0  0  2  0  0  0  0  0  0  0  0  0
    9.5689  -16.4819   26.3956 N   0  0  0  0  0  0  0  0  0  0  0  0
   10.3669  -17.7885   28.2033 C   0  0  0  0  0  0  0  0  0  0  0  0
    9.2608  -18.6088   28.0353 O   0  0  0  0  0  0  0  0  0  0  0  0
   11.1961  -18.1528   29.0739 O   0  0  0  0  0  0  0  0  0  0  0  0
  1  2  1  0
  3  4  2  0
  3  2  1  0
  5  3  1  0
  6  9  1  0
  6  5  1  0
  6  7  1  1
  8  7  1  0
  9 10  2  0
 11 12  1  0
 13 12  1  0
 13 14  1  6
 15 13  1  0
 15 16  1  6
 16  9  1  0
 17 15  1  0
 18 17  1  0
 19 17  2  0
M  END
$$$$
