GCI.pdb
     RDKit          3D

 19 18  0  0  1  0  0  0  0  0999 V2000
    7.8751  -12.6437   18.4207 N   0  0  0  0  0  0  0  0  0  0  0  0
    8.7045  -13.7087   18.9657 C   0  0  0  0  0  0  0  0  0  0  0  0
    7.9676  -14.2954   20.1330 C   0  0  0  0  0  0  0  0  0  0  0  0
    6.9493  -13.7371   20.6209 O   0  0  0  0  0  0  0  0  0  0  0  0
    8.3877  -15.5115   20.7420 N   0  0  0  0  0  0  0  0  0  0  0  0
    7.7349  -15.9858   21.9443 C   0  0  1  0  0  0  0  0  0  0  0  0
    7.9388  -17.4917   21.9983 C   0  0  0  0  0  0  0  0  0  0  0  0
    7.1955  -18.1665   23.5059 S   0  0  0  0  0  0  0  0  0  0  0  0
    8.3252  -15.3820   23.1656 C   0  0  0  0  0  0  0  0  0  0  0  0
    9.5680  -15.1241   23.1313 O   0  0  0  0  0  0  0  0  0  0  0  0
    6.9053  -11.2487   27.3877 C   0  0  0  0  0  0  0  0  0  0  0  0
    7.8044  -12.3700   26.9354 C   0  0  0  0  0  0  0  0  0  0  0  0
    7.2522  -13.2319   25.8658 C   0  0  2  0  0  0  0  0  0  0  0  0
    5.9789  -13.8757   26.4329 C   0  0  0  0  0  0  0  0  0  0  0  0
    8.1313  -14.3490   25.3876 C   0  0  2  0  0  0  0  0  0  0  0  0
    7.5432  -15.1064   24.3128 N   0  0  0  0  0  0  0  0  0  0  0  0
    8.5958  -15.2640   26.4292 C   0  0  0  0  0  0  0  0  0  0  0  0
    9.5366  -14.9017   27.3823 O   0  0  0  0  0  0  0  0  0  0  0  0
    8.1559  -16.4381   26.5074 O   0  0  0  0  0  0  0  0  0  0  0  0
  1  2  1  0
  3  4  2  0
  3  2  1  0
  5  3  1  0
  6  9  1  0
  6  5  1  0
  6  7  1  1
  8  7  1  0
  9 10  2  0
 11 12  1  0
 13 12  1  0
 13 14  1  1
 15 13  1  0
 15 16  1  6
 16  9  1  0
 17 15  1  0
 18 17  1  0
 19 17  2  0
M  END
$$$$
