GCI.pdb
     RDKit          3D

 19 18  0  0  1  0  0  0  0  0999 V2000
    7.4558  -20.8034   22.6907 N   0  0  0  0  0  0  0  0  0  0  0  0
    6.5328  -19.6887   22.5329 C   0  0  0  0  0  0  0  0  0  0  0  0
    7.2907  -18.4335   22.8489 C   0  0  0  0  0  0  0  0  0  0  0  0
    8.3563  -18.4552   23.5203 O   0  0  0  0  0  0  0  0  0  0  0  0
    6.8380  -17.1597   22.4030 N   0  0  0  0  0  0  0  0  0  0  0  0
    7.5499  -15.9593   22.7887 C   0  0  1  0  0  0  0  0  0  0  0  0
    7.1120  -14.8561   21.8383 C   0  0  0  0  0  0  0  0  0  0  0  0
    8.0656  -13.3487   22.1532 S   0  0  0  0  0  0  0  0  0  0  0  0
    7.2228  -15.5480   24.1774 C   0  0  0  0  0  0  0  0  0  0  0  0
    6.0818  -15.8870   24.6193 O   0  0  0  0  0  0  0  0  0  0  0  0
    9.8936  -13.6105   29.4467 C   0  0  0  0  0  0  0  0  0  0  0  0
    8.7096  -14.1121   28.6613 C   0  0  0  0  0  0  0  0  0  0  0  0
    8.9803  -14.4280   27.2405 C   0  0  2  0  0  0  0  0  0  0  0  0
    9.8663  -13.2967   26.6994 C   0  0  0  0  0  0  0  0  0  0  0  0
    7.7866  -14.5187   26.3372 C   0  0  2  0  0  0  0  0  0  0  0  0
    8.1362  -14.8140   24.9714 N   0  0  0  0  0  0  0  0  0  0  0  0
    6.8925  -13.3622   26.3705 C   0  0  0  0  0  0  0  0  0  0  0  0
    5.9807  -13.1469   27.3936 O   0  0  0  0  0  0  0  0  0  0  0  0
    6.9113  -12.4987   25.4582 O   0  0  0  0  0  0  0  0  0  0  0  0
  1  2  1  0
  3  4  2  0
  3  2  1  0
  5  3  1  0
  6  9  1  0
  6  5  1  0
  6  7  1  6
  8  7  1  0
  9 10  2  0
 11 12  1  0
 13 12  1  0
 13 14  1  6
 15 13  1  0
 15 16  1  6
 16  9  1  0
 17 15  1  0
 18 17  1  0
 19 17  2  0
M  END
$$$$
