GCI.pdb
     RDKit          3D

 19 18  0  0  1  0  0  0  0  0999 V2000
    7.8331  -13.3652   18.6919 N   0  0  0  0  0  0  0  0  0  0  0  0
    8.0923  -14.7386   19.0992 C   0  0  0  0  0  0  0  0  0  0  0  0
    7.5398  -14.9055   20.4837 C   0  0  0  0  0  0  0  0  0  0  0  0
    6.8630  -14.0001   21.0395 O   0  0  0  0  0  0  0  0  0  0  0  0
    7.7566  -16.0970   21.2319 N   0  0  0  0  0  0  0  0  0  0  0  0
    7.0771  -16.2959   22.4949 C   0  0  1  0  0  0  0  0  0  0  0  0
    6.9419  -17.7969   22.6972 C   0  0  0  0  0  0  0  0  0  0  0  0
    6.1304  -18.1409   24.2795 S   0  0  0  0  0  0  0  0  0  0  0  0
    7.8495  -15.7309   23.6301 C   0  0  0  0  0  0  0  0  0  0  0  0
    9.1126  -15.8476   23.5753 O   0  0  0  0  0  0  0  0  0  0  0  0
    5.3778  -11.7676   26.5832 C   0  0  0  0  0  0  0  0  0  0  0  0
    6.5376  -12.3789   25.8406 C   0  0  0  0  0  0  0  0  0  0  0  0
    7.2440  -13.4666   26.5548 C   0  0  2  0  0  0  0  0  0  0  0  0
    8.2456  -12.7922   27.5032 C   0  0  0  0  0  0  0  0  0  0  0  0
    8.0235  -14.4267   25.7063 C   0  0  2  0  0  0  0  0  0  0  0  0
    7.2115  -15.0932   24.7209 N   0  0  0  0  0  0  0  0  0  0  0  0
    8.8022  -15.4190   26.4458 C   0  0  0  0  0  0  0  0  0  0  0  0
    8.2593  -16.6109   26.9033 O   0  0  0  0  0  0  0  0  0  0  0  0
   10.0174  -15.2320   26.7037 O   0  0  0  0  0  0  0  0  0  0  0  0
  1  2  1  0
  3  4  2  0
  3  2  1  0
  5  3  1  0
  6  9  1  0
  6  5  1  0
  6  7  1  1
  8  7  1  0
  9 10  2  0
 11 12  1  0
 13 12  1  0
 13 14  1  1
 15 13  1  0
 15 16  1  6
 16  9  1  0
 17 15  1  0
 18 17  1  0
 19 17  2  0
M  END
$$$$
