GCI.pdb
     RDKit          3D

 19 18  0  0  1  0  0  0  0  0999 V2000
    7.9676  -12.8065   18.4027 N   0  0  0  0  0  0  0  0  0  0  0  0
    8.5384  -14.0373   18.9304 C   0  0  0  0  0  0  0  0  0  0  0  0
    7.8632  -14.3168   20.2404 C   0  0  0  0  0  0  0  0  0  0  0  0
    7.1228  -13.4640   20.7983 O   0  0  0  0  0  0  0  0  0  0  0  0
    8.0299  -15.5607   20.9120 N   0  0  0  0  0  0  0  0  0  0  0  0
    7.2729  -15.8455   22.1131 C   0  0  1  0  0  0  0  0  0  0  0  0
    7.1004  -17.3546   22.1843 C   0  0  0  0  0  0  0  0  0  0  0  0
    6.1916  -17.8068   23.6844 S   0  0  0  0  0  0  0  0  0  0  0  0
    7.9856  -15.3903   23.3335 C   0  0  0  0  0  0  0  0  0  0  0  0
    9.2543  -15.4299   23.3017 O   0  0  0  0  0  0  0  0  0  0  0  0
    5.4965  -11.6648   26.6037 C   0  0  0  0  0  0  0  0  0  0  0  0
    6.5958  -12.3268   25.8141 C   0  0  0  0  0  0  0  0  0  0  0  0
    7.2241  -13.4994   26.4639 C   0  0  2  0  0  0  0  0  0  0  0  0
    8.1702  -12.9507   27.5416 C   0  0  0  0  0  0  0  0  0  0  0  0
    8.0404  -14.3950   25.5803 C   0  0  2  0  0  0  0  0  0  0  0  0
    7.2874  -14.9343   24.4772 N   0  0  0  0  0  0  0  0  0  0  0  0
    8.7377  -15.4801   26.2691 C   0  0  0  0  0  0  0  0  0  0  0  0
    8.1836  -16.7406   26.4387 O   0  0  0  0  0  0  0  0  0  0  0  0
    9.8882  -15.3150   26.7457 O   0  0  0  0  0  0  0  0  0  0  0  0
  1  2  1  0
  3  4  2  0
  3  2  1  0
  5  3  1  0
  6  9  1  0
  6  5  1  0
  6  7  1  1
  8  7  1  0
  9 10  2  0
 11 12  1  0
 13 12  1  0
 13 14  1  1
 15 13  1  0
 15 16  1  6
 16  9  1  0
 17 15  1  0
 18 17  1  0
 19 17  2  0
M  END
$$$$
