GCI.pdb
     RDKit          3D

 19 18  0  0  1  0  0  0  0  0999 V2000
    7.4060  -15.3700   18.4405 N   0  0  0  0  0  0  0  0  0  0  0  0
    8.2233  -16.1712   19.3402 C   0  0  0  0  0  0  0  0  0  0  0  0
    7.5915  -16.1011   20.6988 C   0  0  0  0  0  0  0  0  0  0  0  0
    6.7886  -15.1812   21.0085 O   0  0  0  0  0  0  0  0  0  0  0  0
    7.8721  -17.0732   21.7001 N   0  0  0  0  0  0  0  0  0  0  0  0
    7.2218  -16.9953   22.9915 C   0  0  1  0  0  0  0  0  0  0  0  0
    7.1082  -18.4164   23.5203 C   0  0  0  0  0  0  0  0  0  0  0  0
    6.3514  -18.4092   25.1659 S   0  0  0  0  0  0  0  0  0  0  0  0
    8.0116  -16.1903   23.9574 C   0  0  0  0  0  0  0  0  0  0  0  0
    9.2747  -16.2290   23.8343 O   0  0  0  0  0  0  0  0  0  0  0  0
    5.7651  -11.6409   26.0406 C   0  0  0  0  0  0  0  0  0  0  0  0
    6.9639  -12.4085   25.5468 C   0  0  0  0  0  0  0  0  0  0  0  0
    7.4540  -13.4701   26.4550 C   0  0  2  0  0  0  0  0  0  0  0  0
    8.4093  -12.7930   27.4482 C   0  0  0  0  0  0  0  0  0  0  0  0
    8.2119  -14.5967   25.8181 C   0  0  2  0  0  0  0  0  0  0  0  0
    7.3893  -15.4170   24.9665 N   0  0  0  0  0  0  0  0  0  0  0  0
    8.9532  -15.4500   26.7456 C   0  0  0  0  0  0  0  0  0  0  0  0
    8.4450  -16.6433   27.2380 O   0  0  0  0  0  0  0  0  0  0  0  0
   10.1019  -15.1340   27.1441 O   0  0  0  0  0  0  0  0  0  0  0  0
  1  2  1  0
  3  4  2  0
  3  2  1  0
  5  3  1  0
  6  9  1  0
  6  5  1  0
  6  7  1  1
  8  7  1  0
  9 10  2  0
 11 12  1  0
 13 12  1  0
 13 14  1  1
 15 13  1  0
 15 16  1  1
 16  9  1  0
 17 15  1  0
 18 17  1  0
 19 17  2  0
M  END
$$$$
