GCI.pdb
     RDKit          3D

 19 18  0  0  1  0  0  0  0  0999 V2000
    6.9810  -17.5603   18.3791 N   0  0  0  0  0  0  0  0  0  0  0  0
    7.9130  -17.9059   19.4427 C   0  0  0  0  0  0  0  0  0  0  0  0
    7.2162  -17.6528   20.7466 C   0  0  0  0  0  0  0  0  0  0  0  0
    5.9979  -17.3364   20.7952 O   0  0  0  0  0  0  0  0  0  0  0  0
    7.9026  -17.7593   21.9891 N   0  0  0  0  0  0  0  0  0  0  0  0
    7.2041  -17.4975   23.2302 C   0  0  1  0  0  0  0  0  0  0  0  0
    7.1057  -18.8200   23.9743 C   0  0  0  0  0  0  0  0  0  0  0  0
    6.3100  -18.5714   25.5823 S   0  0  0  0  0  0  0  0  0  0  0  0
    7.9385  -16.5270   24.0806 C   0  0  0  0  0  0  0  0  0  0  0  0
    9.2056  -16.5436   24.0018 O   0  0  0  0  0  0  0  0  0  0  0  0
    5.4672  -11.8151   25.9680 C   0  0  0  0  0  0  0  0  0  0  0  0
    6.4900  -12.7391   25.3594 C   0  0  0  0  0  0  0  0  0  0  0  0
    7.2142  -13.6023   26.3198 C   0  0  2  0  0  0  0  0  0  0  0  0
    8.1773  -12.6894   27.0922 C   0  0  0  0  0  0  0  0  0  0  0  0
    8.0376  -14.7100   25.7331 C   0  0  2  0  0  0  0  0  0  0  0  0
    7.2617  -15.6266   24.9378 N   0  0  0  0  0  0  0  0  0  0  0  0
    8.8429  -15.4622   26.6942 C   0  0  0  0  0  0  0  0  0  0  0  0
   10.1716  -15.1629   26.9579 O   0  0  0  0  0  0  0  0  0  0  0  0
    8.3583  -16.4290   27.3334 O   0  0  0  0  0  0  0  0  0  0  0  0
  1  2  1  0
  3  4  2  0
  3  2  1  0
  5  3  1  0
  6  9  1  0
  6  5  1  0
  6  7  1  1
  8  7  1  0
  9 10  2  0
 11 12  1  0
 13 12  1  0
 13 14  1  6
 15 13  1  0
 15 16  1  1
 16  9  1  0
 17 15  1  0
 18 17  1  0
 19 17  2  0
M  END
$$$$
