GCI.pdb
     RDKit          3D

 19 18  0  0  1  0  0  0  0  0999 V2000
    3.5984  -19.9172   21.3591 N   0  0  0  0  0  0  0  0  0  0  0  0
    4.7603  -19.0416   21.3096 C   0  0  0  0  0  0  0  0  0  0  0  0
    5.0290  -18.5768   22.7102 C   0  0  0  0  0  0  0  0  0  0  0  0
    4.1095  -18.1328   23.4479 O   0  0  0  0  0  0  0  0  0  0  0  0
    6.3378  -18.6172   23.2686 N   0  0  0  0  0  0  0  0  0  0  0  0
    6.5810  -18.0790   24.5907 C   0  0  1  0  0  0  0  0  0  0  0  0
    7.2421  -19.1795   25.4056 C   0  0  0  0  0  0  0  0  0  0  0  0
    7.5529  -18.6021   27.0940 S   0  0  0  0  0  0  0  0  0  0  0  0
    7.4912  -16.9066   24.5485 C   0  0  0  0  0  0  0  0  0  0  0  0
    8.5059  -16.9988   23.7909 O   0  0  0  0  0  0  0  0  0  0  0  0
    6.3484  -11.8241   27.1623 C   0  0  0  0  0  0  0  0  0  0  0  0
    6.7431  -13.2221   26.7623 C   0  0  0  0  0  0  0  0  0  0  0  0
    7.5605  -13.3215   25.5318 C   0  0  2  0  0  0  0  0  0  0  0  0
    6.6245  -13.0088   24.3555 C   0  0  0  0  0  0  0  0  0  0  0  0
    8.1852  -14.6557   25.2509 C   0  0  2  0  0  0  0  0  0  0  0  0
    7.2421  -15.7425   25.3141 N   0  0  0  0  0  0  0  0  0  0  0  0
    9.3543  -14.9790   26.0673 C   0  0  0  0  0  0  0  0  0  0  0  0
    9.3911  -16.0650   26.9298 O   0  0  0  0  0  0  0  0  0  0  0  0
   10.3939  -14.2750   26.0227 O   0  0  0  0  0  0  0  0  0  0  0  0
  1  2  1  0
  3  4  2  0
  3  2  1  0
  5  3  1  0
  6  9  1  0
  6  5  1  0
  6  7  1  1
  8  7  1  0
  9 10  2  0
 11 12  1  0
 13 12  1  0
 13 14  1  6
 15 13  1  0
 15 16  1  1
 16  9  1  0
 17 15  1  0
 18 17  1  0
 19 17  2  0
M  END
$$$$
