GCI.pdb
     RDKit          3D

 19 18  0  0  1  0  0  0  0  0999 V2000
   12.9152  -16.6491   19.6968 N   0  0  0  0  0  0  0  0  0  0  0  0
   12.0667  -17.3478   20.6513 C   0  0  0  0  0  0  0  0  0  0  0  0
   10.9115  -16.4443   20.9665 C   0  0  0  0  0  0  0  0  0  0  0  0
   10.8940  -15.2398   20.5981 O   0  0  0  0  0  0  0  0  0  0  0  0
    9.7820  -16.9094   21.6973 N   0  0  0  0  0  0  0  0  0  0  0  0
    8.7010  -16.0017   22.0201 C   0  0  1  0  0  0  0  0  0  0  0  0
    7.4020  -16.7680   21.8264 C   0  0  0  0  0  0  0  0  0  0  0  0
    5.9866  -15.6835   22.1440 S   0  0  0  0  0  0  0  0  0  0  0  0
    8.7740  -15.5383   23.4289 C   0  0  0  0  0  0  0  0  0  0  0  0
    9.4680  -16.2419   24.2259 O   0  0  0  0  0  0  0  0  0  0  0  0
    6.6643  -11.0562   27.2790 C   0  0  0  0  0  0  0  0  0  0  0  0
    7.4421  -12.3138   26.9899 C   0  0  0  0  0  0  0  0  0  0  0  0
    7.3489  -12.8099   25.5981 C   0  0  2  0  0  0  0  0  0  0  0  0
    5.8974  -13.2649   25.3895 C   0  0  0  0  0  0  0  0  0  0  0  0
    8.2270  -13.9728   25.2432 C   0  0  2  0  0  0  0  0  0  0  0  0
    8.1039  -14.3699   23.8642 N   0  0  0  0  0  0  0  0  0  0  0  0
    8.0805  -15.1472   26.1019 C   0  0  0  0  0  0  0  0  0  0  0  0
    7.1772  -16.1655   25.8340 O   0  0  0  0  0  0  0  0  0  0  0  0
    8.7779  -15.2873   27.1373 O   0  0  0  0  0  0  0  0  0  0  0  0
  1  2  1  0
  3  4  2  0
  3  2  1  0
  5  3  1  0
  6  9  1  0
  6  5  1  0
  6  7  1  1
  8  7  1  0
  9 10  2  0
 11 12  1  0
 13 12  1  0
 13 14  1  1
 15 13  1  0
 15 16  1  6
 16  9  1  0
 17 15  1  0
 18 17  1  0
 19 17  2  0
M  END
$$$$
