GCI.pdb
     RDKit          3D

 19 18  0  0  1  0  0  0  0  0999 V2000
    8.1699  -12.3269   18.7287 N   0  0  0  0  0  0  0  0  0  0  0  0
    8.7712  -13.6089   19.0667 C   0  0  0  0  0  0  0  0  0  0  0  0
    8.0509  -14.1359   20.2722 C   0  0  0  0  0  0  0  0  0  0  0  0
    7.2094  -13.4378   20.8978 O   0  0  0  0  0  0  0  0  0  0  0  0
    8.2872  -15.4509   20.7634 N   0  0  0  0  0  0  0  0  0  0  0  0
    7.6013  -15.9178   21.9501 C   0  0  1  0  0  0  0  0  0  0  0  0
    7.6613  -17.4371   21.9313 C   0  0  0  0  0  0  0  0  0  0  0  0
    6.5610  -18.0874   20.6480 S   0  0  0  0  0  0  0  0  0  0  0  0
    8.2557  -15.4314   23.1910 C   0  0  0  0  0  0  0  0  0  0  0  0
    9.5166  -15.2879   23.1527 O   0  0  0  0  0  0  0  0  0  0  0  0
    5.6233  -11.7585   26.3244 C   0  0  0  0  0  0  0  0  0  0  0  0
    6.6636  -12.5258   25.5503 C   0  0  0  0  0  0  0  0  0  0  0  0
    7.3076  -13.6378   26.2857 C   0  0  2  0  0  0  0  0  0  0  0  0
    8.1893  -12.9974   27.3674 C   0  0  0  0  0  0  0  0  0  0  0  0
    8.1905  -14.5465   25.4832 C   0  0  2  0  0  0  0  0  0  0  0  0
    7.5125  -15.1413   24.3602 N   0  0  0  0  0  0  0  0  0  0  0  0
    8.8686  -15.5907   26.2499 C   0  0  0  0  0  0  0  0  0  0  0  0
   10.1459  -15.4327   26.7679 O   0  0  0  0  0  0  0  0  0  0  0  0
    8.3147  -16.6952   26.4765 O   0  0  0  0  0  0  0  0  0  0  0  0
  1  2  1  0
  3  4  2  0
  3  2  1  0
  5  3  1  0
  6  9  1  0
  6  5  1  0
  6  7  1  1
  8  7  1  0
  9 10  2  0
 11 12  1  0
 13 12  1  0
 13 14  1  1
 15 13  1  0
 15 16  1  6
 16  9  1  0
 17 15  1  0
 18 17  1  0
 19 17  2  0
M  END
$$$$
