GCI.pdb
     RDKit          3D

 19 18  0  0  1  0  0  0  0  0999 V2000
    7.2713  -15.6240   18.7506 N   0  0  0  0  0  0  0  0  0  0  0  0
    7.8752  -16.6714   19.5614 C   0  0  0  0  0  0  0  0  0  0  0  0
    7.3233  -16.5355   20.9496 C   0  0  0  0  0  0  0  0  0  0  0  0
    6.5095  -15.6227   21.2516 O   0  0  0  0  0  0  0  0  0  0  0  0
    7.6958  -17.4341   21.9888 N   0  0  0  0  0  0  0  0  0  0  0  0
    7.1379  -17.2816   23.3163 C   0  0  1  0  0  0  0  0  0  0  0  0
    7.1343  -18.6594   23.9597 C   0  0  0  0  0  0  0  0  0  0  0  0
    6.5666  -18.5432   25.6757 S   0  0  0  0  0  0  0  0  0  0  0  0
    7.9544  -16.3676   24.1545 C   0  0  0  0  0  0  0  0  0  0  0  0
    9.2112  -16.4008   23.9775 O   0  0  0  0  0  0  0  0  0  0  0  0
    5.6554  -11.8044   26.4588 C   0  0  0  0  0  0  0  0  0  0  0  0
    6.6875  -12.6338   25.7397 C   0  0  0  0  0  0  0  0  0  0  0  0
    7.4656  -13.5578   26.5958 C   0  0  2  0  0  0  0  0  0  0  0  0
    8.5055  -12.7029   27.3342 C   0  0  0  0  0  0  0  0  0  0  0  0
    8.2166  -14.6482   25.8914 C   0  0  2  0  0  0  0  0  0  0  0  0
    7.3631  -15.5011   25.1047 N   0  0  0  0  0  0  0  0  0  0  0  0
    9.0679  -15.4711   26.7493 C   0  0  0  0  0  0  0  0  0  0  0  0
   10.4102  -15.1938   26.9635 O   0  0  0  0  0  0  0  0  0  0  0  0
    8.6131  -16.4826   27.3394 O   0  0  0  0  0  0  0  0  0  0  0  0
  1  2  1  0
  3  4  2  0
  3  2  1  0
  5  3  1  0
  6  9  1  0
  6  5  1  0
  6  7  1  1
  8  7  1  0
  9 10  2  0
 11 12  1  0
 13 12  1  0
 13 14  1  6
 15 13  1  0
 15 16  1  1
 16  9  1  0
 17 15  1  0
 18 17  1  0
 19 17  2  0
M  END
$$$$
