KDN.pdb
     RDKit          3D

 26 25  0  0  1  0  0  0  0  0999 V2000
   11.0865  -15.5133   19.9421 N   0  0  0  0  0  0  0  0  0  0  0  0
   10.3065  -14.9109   20.9898 C   0  0  1  0  0  0  0  0  0  0  0  0
    9.0015  -14.3344   20.5744 C   0  0  0  0  0  0  0  0  0  0  0  0
    8.7614  -14.0817   19.1461 C   0  0  0  0  0  0  0  0  0  0  0  0
    7.4842  -13.4323   18.7564 C   0  0  0  0  0  0  0  0  0  0  0  0
    7.5073  -13.1604   17.2673 C   0  0  0  0  0  0  0  0  0  0  0  0
    6.2108  -12.6226   16.8970 N   0  0  0  0  0  0  0  0  0  0  0  0
   10.2129  -15.7421   22.2173 C   0  0  0  0  0  0  0  0  0  0  0  0
    9.4328  -15.4044   23.1742 O   0  0  0  0  0  0  0  0  0  0  0  0
   10.9391  -16.9379   22.4548 N   0  0  0  0  0  0  0  0  0  0  0  0
   10.6720  -17.7781   23.6224 C   0  0  1  0  0  0  0  0  0  0  0  0
   11.3219  -19.1032   23.4725 C   0  0  0  0  0  0  0  0  0  0  0  0
   11.0785  -20.0365   24.6005 C   0  0  0  0  0  0  0  0  0  0  0  0
   11.9065  -20.9613   24.8855 O   0  0  0  0  0  0  0  0  0  0  0  0
   11.0390  -17.0282   24.8149 C   0  0  0  0  0  0  0  0  0  0  0  0
   12.1513  -16.4515   24.8829 O   0  0  0  0  0  0  0  0  0  0  0  0
    9.9585  -19.9823   25.4171 O   0  0  0  0  0  0  0  0  0  0  0  0
   10.6045  -13.1948   28.4437 N   0  0  0  0  0  0  0  0  0  0  0  0
    9.7639  -14.3303   28.5477 C   0  0  0  0  0  0  0  0  0  0  0  0
    9.2714  -14.6382   29.6556 O   0  0  0  0  0  0  0  0  0  0  0  0
    9.4887  -15.1245   27.3446 C   0  0  0  0  0  0  0  0  0  0  0  0
   10.5675  -16.1604   27.1426 C   0  0  2  0  0  0  0  0  0  0  0  0
   10.1913  -16.9003   25.9485 N   0  0  0  0  0  0  0  0  0  0  0  0
   10.6463  -17.0155   28.3262 C   0  0  0  0  0  0  0  0  0  0  0  0
   10.2938  -18.3323   28.4262 O   0  0  0  0  0  0  0  0  0  0  0  0
   11.0955  -16.4765   29.3976 O   0  0  0  0  0  0  0  0  0  0  0  0
  2  8  1  0
  2  1  1  6
  3  2  1  0
  4  3  1  0
  5  4  1  0
  6  5  1  0
  7  6  1  0
  8  9  2  0
 10 11  1  0
 10  8  1  0
 11 12  1  6
 12 13  1  0
 13 17  1  0
 14 13  2  0
 15 11  1  0
 16 15  2  0
 19 18  1  0
 19 21  1  0
 20 19  2  0
 22 21  1  1
 22 23  1  0
 23 15  1  0
 24 25  1  0
 24 22  1  0
 26 24  2  0
M  END
$$$$
