KDN.pdb
     RDKit          3D

 26 25  0  0  1  0  0  0  0  0999 V2000
    9.0479  -12.8676   18.8886 N   0  0  0  0  0  0  0  0  0  0  0  0
    9.0620  -14.3050   18.8345 C   0  0  1  0  0  0  0  0  0  0  0  0
    8.2083  -14.9208   17.7857 C   0  0  0  0  0  0  0  0  0  0  0  0
    7.7825  -14.0969   16.6450 C   0  0  0  0  0  0  0  0  0  0  0  0
    7.6505  -14.7531   15.3197 C   0  0  0  0  0  0  0  0  0  0  0  0
    7.0460  -13.7671   14.3428 C   0  0  0  0  0  0  0  0  0  0  0  0
    6.9317  -14.4329   13.0579 N   0  0  0  0  0  0  0  0  0  0  0  0
   10.4254  -14.8911   18.8955 C   0  0  0  0  0  0  0  0  0  0  0  0
   10.5925  -16.1586   18.8336 O   0  0  0  0  0  0  0  0  0  0  0  0
   11.6302  -14.1524   19.0237 N   0  0  0  0  0  0  0  0  0  0  0  0
   12.9273  -14.8169   19.1517 C   0  0  1  0  0  0  0  0  0  0  0  0
   13.9590  -14.1076   18.3560 C   0  0  0  0  0  0  0  0  0  0  0  0
   15.2691  -14.8020   18.2926 C   0  0  0  0  0  0  0  0  0  0  0  0
   16.3603  -14.1510   18.2056 O   0  0  0  0  0  0  0  0  0  0  0  0
   13.2209  -14.9704   20.5693 C   0  0  0  0  0  0  0  0  0  0  0  0
   13.9392  -14.1294   21.1617 O   0  0  0  0  0  0  0  0  0  0  0  0
   15.4118  -16.1815   18.3211 O   0  0  0  0  0  0  0  0  0  0  0  0
   10.7476  -14.9550   23.2638 N   0  0  0  0  0  0  0  0  0  0  0  0
   10.7484  -16.3451   23.5367 C   0  0  0  0  0  0  0  0  0  0  0  0
    9.7027  -16.8982   23.9434 O   0  0  0  0  0  0  0  0  0  0  0  0
   11.9851  -17.1092   23.3344 C   0  0  0  0  0  0  0  0  0  0  0  0
   13.0621  -16.2204   22.7615 C   0  0  2  0  0  0  0  0  0  0  0  0
   12.7305  -16.0476   21.3561 N   0  0  0  0  0  0  0  0  0  0  0  0
   14.3660  -16.8539   22.9526 C   0  0  0  0  0  0  0  0  0  0  0  0
   15.2294  -16.6819   23.9981 O   0  0  0  0  0  0  0  0  0  0  0  0
   14.7523  -17.6643   22.0392 O   0  0  0  0  0  0  0  0  0  0  0  0
  2  8  1  0
  2  1  1  6
  3  2  1  0
  4  3  1  0
  5  4  1  0
  6  5  1  0
  7  6  1  0
  8  9  2  0
 10 11  1  0
 10  8  1  0
 11 12  1  1
 12 13  1  0
 13 17  1  0
 14 13  2  0
 15 11  1  0
 16 15  2  0
 19 18  1  0
 19 21  1  0
 20 19  2  0
 22 21  1  6
 22 23  1  0
 23 15  1  0
 24 25  1  0
 24 22  1  0
 26 24  2  0
M  END
$$$$
