KDN.pdb
     RDKit          3D

 26 25  0  0  1  0  0  0  0  0999 V2000
    8.2295  -16.4597   16.8032 N   0  0  0  0  0  0  0  0  0  0  0  0
    9.4981  -15.8899   17.1707 C   0  0  1  0  0  0  0  0  0  0  0  0
    9.4645  -14.4745   17.6221 C   0  0  0  0  0  0  0  0  0  0  0  0
    8.6785  -14.1302   18.8159 C   0  0  0  0  0  0  0  0  0  0  0  0
    8.7058  -12.7229   19.2886 C   0  0  0  0  0  0  0  0  0  0  0  0
    7.8147  -12.5977   20.5060 C   0  0  0  0  0  0  0  0  0  0  0  0
    7.9092  -11.2300   20.9830 N   0  0  0  0  0  0  0  0  0  0  0  0
   10.3120  -16.7645   18.0532 C   0  0  0  0  0  0  0  0  0  0  0  0
    9.7545  -17.4689   18.9650 O   0  0  0  0  0  0  0  0  0  0  0  0
   11.7223  -16.9087   17.9892 N   0  0  0  0  0  0  0  0  0  0  0  0
   12.4517  -17.7444   18.9431 C   0  0  1  0  0  0  0  0  0  0  0  0
   13.7892  -18.1011   18.4096 C   0  0  0  0  0  0  0  0  0  0  0  0
   13.7635  -19.0820   17.2961 C   0  0  0  0  0  0  0  0  0  0  0  0
   14.3534  -18.8464   16.1922 O   0  0  0  0  0  0  0  0  0  0  0  0
   12.4479  -17.0701   20.2333 C   0  0  0  0  0  0  0  0  0  0  0  0
   12.8425  -15.8829   20.3283 O   0  0  0  0  0  0  0  0  0  0  0  0
   13.1118  -20.3047   17.3617 O   0  0  0  0  0  0  0  0  0  0  0  0
   11.5575  -15.9782   25.1660 N   0  0  0  0  0  0  0  0  0  0  0  0
   10.4965  -16.7701   24.6618 C   0  0  0  0  0  0  0  0  0  0  0  0
    9.4605  -16.9272   25.3452 O   0  0  0  0  0  0  0  0  0  0  0  0
   10.6387  -17.3921   23.3401 C   0  0  0  0  0  0  0  0  0  0  0  0
   11.9510  -16.9917   22.7113 C   0  0  2  0  0  0  0  0  0  0  0  0
   12.0111  -17.6883   21.4361 N   0  0  0  0  0  0  0  0  0  0  0  0
   13.0492  -17.3643   23.6020 C   0  0  0  0  0  0  0  0  0  0  0  0
   13.9879  -18.3377   23.4034 O   0  0  0  0  0  0  0  0  0  0  0  0
   13.1501  -16.7087   24.6976 O   0  0  0  0  0  0  0  0  0  0  0  0
  2  8  1  0
  2  1  1  1
  3  2  1  0
  4  3  1  0
  5  4  1  0
  6  5  1  0
  7  6  1  0
  8  9  2  0
 10 11  1  0
 10  8  1  0
 11 12  1  6
 12 13  1  0
 13 17  1  0
 14 13  2  0
 15 11  1  0
 16 15  2  0
 19 18  1  0
 19 21  1  0
 20 19  2  0
 22 21  1  1
 22 23  1  0
 23 15  1  0
 24 25  1  0
 24 22  1  0
 26 24  2  0
M  END
$$$$
