KDN.pdb
     RDKit          3D

 26 25  0  0  1  0  0  0  0  0999 V2000
    8.1710  -14.4324   23.8826 N   0  0  0  0  0  0  0  0  0  0  0  0
    7.5395  -15.3389   22.9614 C   0  0  1  0  0  0  0  0  0  0  0  0
    7.0778  -14.7423   21.6812 C   0  0  0  0  0  0  0  0  0  0  0  0
    8.0272  -13.9500   20.8859 C   0  0  0  0  0  0  0  0  0  0  0  0
    7.6101  -13.5159   19.5286 C   0  0  0  0  0  0  0  0  0  0  0  0
    8.7508  -12.7568   18.8849 C   0  0  0  0  0  0  0  0  0  0  0  0
    8.3428  -12.4077   17.5363 N   0  0  0  0  0  0  0  0  0  0  0  0
    8.2789  -16.6140   22.7776 C   0  0  0  0  0  0  0  0  0  0  0  0
    8.0636  -17.3494   21.7524 O   0  0  0  0  0  0  0  0  0  0  0  0
    9.2528  -17.1327   23.6699 N   0  0  0  0  0  0  0  0  0  0  0  0
   10.6838  -16.9232   23.4493 C   0  0  1  0  0  0  0  0  0  0  0  0
   10.9084  -16.0336   22.2836 C   0  0  0  0  0  0  0  0  0  0  0  0
   11.4301  -16.7233   21.0775 C   0  0  0  0  0  0  0  0  0  0  0  0
   11.0262  -17.8868   20.7531 O   0  0  0  0  0  0  0  0  0  0  0  0
   11.2764  -16.4799   24.7030 C   0  0  0  0  0  0  0  0  0  0  0  0
   12.0215  -15.4708   24.7291 O   0  0  0  0  0  0  0  0  0  0  0  0
   12.3767  -16.1742   20.2252 O   0  0  0  0  0  0  0  0  0  0  0  0
   10.0995  -13.2518   28.2741 N   0  0  0  0  0  0  0  0  0  0  0  0
    9.7447  -14.6233   28.2889 C   0  0  0  0  0  0  0  0  0  0  0  0
    9.3168  -15.1421   29.3436 O   0  0  0  0  0  0  0  0  0  0  0  0
    9.8887  -15.4088   27.0575 C   0  0  0  0  0  0  0  0  0  0  0  0
   10.9869  -16.4321   27.2144 C   0  0  2  0  0  0  0  0  0  0  0  0
   11.0595  -17.1369   25.9444 N   0  0  0  0  0  0  0  0  0  0  0  0
   10.6642  -17.3228   28.3283 C   0  0  0  0  0  0  0  0  0  0  0  0
   11.1087  -17.2368   29.6179 O   0  0  0  0  0  0  0  0  0  0  0  0
    9.8756  -18.2995   28.0752 O   0  0  0  0  0  0  0  0  0  0  0  0
  2  8  1  0
  2  1  1  6
  3  2  1  0
  4  3  1  0
  5  4  1  0
  6  5  1  0
  7  6  1  0
  8  9  2  0
 10 11  1  0
 10  8  1  0
 11 12  1  6
 12 13  1  0
 13 17  1  0
 14 13  2  0
 15 11  1  0
 16 15  2  0
 19 18  1  0
 19 21  1  0
 20 19  2  0
 22 21  1  6
 22 23  1  0
 23 15  1  0
 24 25  1  0
 24 22  1  0
 26 24  2  0
M  END
$$$$
