KDN.pdb
     RDKit          3D

 26 25  0  0  1  0  0  0  0  0999 V2000
    7.5924  -16.6918   20.1661 N   0  0  0  0  0  0  0  0  0  0  0  0
    8.3719  -16.1579   21.2508 C   0  0  1  0  0  0  0  0  0  0  0  0
    8.2524  -14.6936   21.4732 C   0  0  0  0  0  0  0  0  0  0  0  0
    8.7093  -13.7773   20.4182 C   0  0  0  0  0  0  0  0  0  0  0  0
    7.7874  -13.4973   19.2884 C   0  0  0  0  0  0  0  0  0  0  0  0
    8.4726  -12.5588   18.3181 C   0  0  0  0  0  0  0  0  0  0  0  0
    7.5688  -12.3396   17.2035 N   0  0  0  0  0  0  0  0  0  0  0  0
    8.2706  -16.9486   22.5041 C   0  0  0  0  0  0  0  0  0  0  0  0
    7.1351  -17.3695   22.9184 O   0  0  0  0  0  0  0  0  0  0  0  0
    9.3616  -17.3057   23.3384 N   0  0  0  0  0  0  0  0  0  0  0  0
    9.1779  -18.1404   24.5258 C   0  0  1  0  0  0  0  0  0  0  0  0
    9.7747  -19.4826   24.3188 C   0  0  0  0  0  0  0  0  0  0  0  0
   11.2422  -19.4734   24.0976 C   0  0  0  0  0  0  0  0  0  0  0  0
   12.0477  -19.9177   24.9785 O   0  0  0  0  0  0  0  0  0  0  0  0
    9.6715  -17.4030   25.6799 C   0  0  0  0  0  0  0  0  0  0  0  0
    9.4255  -17.8073   26.8420 O   0  0  0  0  0  0  0  0  0  0  0  0
   11.8443  -18.9927   22.9441 O   0  0  0  0  0  0  0  0  0  0  0  0
    9.2288  -14.1728   29.4202 N   0  0  0  0  0  0  0  0  0  0  0  0
    9.2774  -13.7660   28.0640 C   0  0  0  0  0  0  0  0  0  0  0  0
    9.3706  -12.5504   27.7838 O   0  0  0  0  0  0  0  0  0  0  0  0
    9.2168  -14.7877   27.0121 C   0  0  0  0  0  0  0  0  0  0  0  0
   10.6050  -15.2732   26.6729 C   0  0  2  0  0  0  0  0  0  0  0  0
   10.4415  -16.2131   25.5752 N   0  0  0  0  0  0  0  0  0  0  0  0
   11.2036  -15.8942   27.8537 C   0  0  0  0  0  0  0  0  0  0  0  0
   11.9152  -15.2803   28.8461 O   0  0  0  0  0  0  0  0  0  0  0  0
   11.0489  -17.1592   27.9804 O   0  0  0  0  0  0  0  0  0  0  0  0
  2  8  1  0
  2  1  1  6
  3  2  1  0
  4  3  1  0
  5  4  1  0
  6  5  1  0
  7  6  1  0
  8  9  2  0
 10 11  1  0
 10  8  1  0
 11 12  1  6
 12 13  1  0
 13 17  1  0
 14 13  2  0
 15 11  1  0
 16 15  2  0
 19 18  1  0
 19 21  1  0
 20 19  2  0
 22 21  1  1
 22 23  1  0
 23 15  1  0
 24 25  1  0
 24 22  1  0
 26 24  2  0
M  END
$$$$
