KDN.pdb
     RDKit          3D

 26 25  0  0  1  0  0  0  0  0999 V2000
   10.3181  -15.9158   17.2412 N   0  0  0  0  0  0  0  0  0  0  0  0
   10.9559  -14.8949   18.0288 C   0  0  1  0  0  0  0  0  0  0  0  0
   10.1194  -13.7097   18.3505 C   0  0  0  0  0  0  0  0  0  0  0  0
    8.7459  -13.6497   17.8295 C   0  0  0  0  0  0  0  0  0  0  0  0
    7.9007  -12.4927   18.2192 C   0  0  0  0  0  0  0  0  0  0  0  0
    6.5490  -12.6264   17.5507 C   0  0  0  0  0  0  0  0  0  0  0  0
    5.7489  -11.4794   17.9402 N   0  0  0  0  0  0  0  0  0  0  0  0
   11.6962  -15.4227   19.2033 C   0  0  0  0  0  0  0  0  0  0  0  0
   11.3656  -16.5400   19.7329 O   0  0  0  0  0  0  0  0  0  0  0  0
   12.7926  -14.7820   19.8366 N   0  0  0  0  0  0  0  0  0  0  0  0
   13.4272  -15.3469   21.0277 C   0  0  1  0  0  0  0  0  0  0  0  0
   14.7215  -14.6747   21.2991 C   0  0  0  0  0  0  0  0  0  0  0  0
   15.5139  -15.2893   22.3931 C   0  0  0  0  0  0  0  0  0  0  0  0
   15.8015  -16.5300   22.3863 O   0  0  0  0  0  0  0  0  0  0  0  0
   12.4606  -15.3144   22.1158 C   0  0  0  0  0  0  0  0  0  0  0  0
   11.7164  -14.3164   22.2720 O   0  0  0  0  0  0  0  0  0  0  0  0
   15.9947  -14.5836   23.4862 O   0  0  0  0  0  0  0  0  0  0  0  0
    8.7448  -15.3527   21.8406 N   0  0  0  0  0  0  0  0  0  0  0  0
    9.1945  -15.5627   23.1675 C   0  0  0  0  0  0  0  0  0  0  0  0
    8.9012  -14.7366   24.0600 O   0  0  0  0  0  0  0  0  0  0  0  0
    9.9995  -16.7529   23.4661 C   0  0  0  0  0  0  0  0  0  0  0  0
   11.3050  -16.3542   24.1100 C   0  0  2  0  0  0  0  0  0  0  0  0
   12.2970  -16.3757   23.0467 N   0  0  0  0  0  0  0  0  0  0  0  0
   11.6213  -17.2923   25.1861 C   0  0  0  0  0  0  0  0  0  0  0  0
   11.0560  -17.3541   26.4290 O   0  0  0  0  0  0  0  0  0  0  0  0
   12.5328  -18.1591   24.9455 O   0  0  0  0  0  0  0  0  0  0  0  0
  2  8  1  0
  2  1  1  1
  3  2  1  0
  4  3  1  0
  5  4  1  0
  6  5  1  0
  7  6  1  0
  8  9  2  0
 10 11  1  0
 10  8  1  0
 11 12  1  1
 12 13  1  0
 13 17  1  0
 14 13  2  0
 15 11  1  0
 16 15  2  0
 19 18  1  0
 19 21  1  0
 20 19  2  0
 22 21  1  6
 22 23  1  0
 23 15  1  0
 24 25  1  0
 24 22  1  0
 26 24  2  0
M  END
$$$$
