KDN.pdb
     RDKit          3D

 26 25  0  0  1  0  0  0  0  0999 V2000
   10.1387  -16.5643   17.9268 N   0  0  0  0  0  0  0  0  0  0  0  0
   10.8564  -15.3451   18.1869 C   0  0  1  0  0  0  0  0  0  0  0  0
   10.1413  -14.3376   19.0124 C   0  0  0  0  0  0  0  0  0  0  0  0
    8.7518  -13.9994   18.6710 C   0  0  0  0  0  0  0  0  0  0  0  0
    8.0454  -13.0071   19.5202 C   0  0  0  0  0  0  0  0  0  0  0  0
    6.6538  -12.7899   18.9651 C   0  0  0  0  0  0  0  0  0  0  0  0
    5.9914  -11.8096   19.8063 N   0  0  0  0  0  0  0  0  0  0  0  0
   12.2619  -15.5600   18.6165 C   0  0  0  0  0  0  0  0  0  0  0  0
   12.6822  -16.7341   18.9046 O   0  0  0  0  0  0  0  0  0  0  0  0
   13.2428  -14.5433   18.7499 N   0  0  0  0  0  0  0  0  0  0  0  0
   14.6187  -14.8517   19.1399 C   0  0  1  0  0  0  0  0  0  0  0  0
   15.5739  -13.9621   18.4350 C   0  0  0  0  0  0  0  0  0  0  0  0
   17.0005  -14.2202   18.7521 C   0  0  0  0  0  0  0  0  0  0  0  0
   17.4700  -15.4039   18.7765 O   0  0  0  0  0  0  0  0  0  0  0  0
   14.6942  -14.8306   20.5936 C   0  0  0  0  0  0  0  0  0  0  0  0
   15.7815  -15.0640   21.1746 O   0  0  0  0  0  0  0  0  0  0  0  0
   17.9182  -13.2211   19.0417 O   0  0  0  0  0  0  0  0  0  0  0  0
   12.6431  -16.8262   24.7508 N   0  0  0  0  0  0  0  0  0  0  0  0
   12.0025  -17.1323   23.5249 C   0  0  0  0  0  0  0  0  0  0  0  0
   11.2393  -18.1209   23.4535 O   0  0  0  0  0  0  0  0  0  0  0  0
   12.2511  -16.2762   22.3590 C   0  0  0  0  0  0  0  0  0  0  0  0
   13.3225  -15.2608   22.6737 C   0  0  2  0  0  0  0  0  0  0  0  0
   13.5788  -14.5530   21.4294 N   0  0  0  0  0  0  0  0  0  0  0  0
   14.5099  -15.9492   23.1780 C   0  0  0  0  0  0  0  0  0  0  0  0
   14.9970  -17.1642   22.7848 O   0  0  0  0  0  0  0  0  0  0  0  0
   15.1760  -15.3526   24.0947 O   0  0  0  0  0  0  0  0  0  0  0  0
  2  8  1  0
  2  1  1  1
  3  2  1  0
  4  3  1  0
  5  4  1  0
  6  5  1  0
  7  6  1  0
  8  9  2  0
 10 11  1  0
 10  8  1  0
 11 12  1  6
 12 13  1  0
 13 17  1  0
 14 13  2  0
 15 11  1  0
 16 15  2  0
 19 18  1  0
 19 21  1  0
 20 19  2  0
 22 21  1  6
 22 23  1  0
 23 15  1  0
 24 25  1  0
 24 22  1  0
 26 24  2  0
M  END
$$$$
