KDN.pdb
     RDKit          3D

 26 25  0  0  1  0  0  0  0  0999 V2000
    9.6206  -14.1835   17.0551 N   0  0  0  0  0  0  0  0  0  0  0  0
    9.2887  -13.7371   18.3816 C   0  0  1  0  0  0  0  0  0  0  0  0
    7.9355  -13.1453   18.5449 C   0  0  0  0  0  0  0  0  0  0  0  0
    6.9466  -13.3325   17.4732 C   0  0  0  0  0  0  0  0  0  0  0  0
    7.4309  -13.3430   16.0696 C   0  0  0  0  0  0  0  0  0  0  0  0
    6.2391  -13.4383   15.1410 C   0  0  0  0  0  0  0  0  0  0  0  0
    6.7441  -13.5260   13.7828 N   0  0  0  0  0  0  0  0  0  0  0  0
    9.6286  -14.7181   19.4439 C   0  0  0  0  0  0  0  0  0  0  0  0
    9.3178  -14.4898   20.6644 O   0  0  0  0  0  0  0  0  0  0  0  0
   10.3006  -15.9506   19.2368 N   0  0  0  0  0  0  0  0  0  0  0  0
   10.7577  -16.7726   20.3575 C   0  0  1  0  0  0  0  0  0  0  0  0
   10.1832  -18.1377   20.2731 C   0  0  0  0  0  0  0  0  0  0  0  0
   10.6431  -19.0632   21.3382 C   0  0  0  0  0  0  0  0  0  0  0  0
   10.8837  -18.6481   22.5180 O   0  0  0  0  0  0  0  0  0  0  0  0
   12.2109  -16.7032   20.4084 C   0  0  0  0  0  0  0  0  0  0  0  0
   12.8677  -16.4197   19.3776 O   0  0  0  0  0  0  0  0  0  0  0  0
   10.8449  -20.4217   21.1439 O   0  0  0  0  0  0  0  0  0  0  0  0
   16.5948  -14.6370   20.4304 N   0  0  0  0  0  0  0  0  0  0  0  0
   15.8322  -14.6398   21.6243 C   0  0  0  0  0  0  0  0  0  0  0  0
   16.3548  -14.2588   22.6951 O   0  0  0  0  0  0  0  0  0  0  0  0
   14.4371  -15.0930   21.5765 C   0  0  0  0  0  0  0  0  0  0  0  0
   14.3686  -16.5937   21.7221 C   0  0  2  0  0  0  0  0  0  0  0  0
   12.9632  -16.9433   21.5900 N   0  0  0  0  0  0  0  0  0  0  0  0
   14.9195  -16.9806   23.0202 C   0  0  0  0  0  0  0  0  0  0  0  0
   16.2342  -17.1672   23.3439 O   0  0  0  0  0  0  0  0  0  0  0  0
   14.0803  -17.1694   23.9690 O   0  0  0  0  0  0  0  0  0  0  0  0
  2  8  1  0
  2  1  1  6
  3  2  1  0
  4  3  1  0
  5  4  1  0
  6  5  1  0
  7  6  1  0
  8  9  2  0
 10 11  1  0
 10  8  1  0
 11 12  1  6
 12 13  1  0
 13 17  1  0
 14 13  2  0
 15 11  1  0
 16 15  2  0
 19 18  1  0
 19 21  1  0
 20 19  2  0
 22 21  1  1
 22 23  1  0
 23 15  1  0
 24 25  1  0
 24 22  1  0
 26 24  2  0
M  END
$$$$
