KDN.pdb
     RDKit          3D

 26 25  0  0  1  0  0  0  0  0999 V2000
    4.8535  -21.4409   20.3676 N   0  0  0  0  0  0  0  0  0  0  0  0
    4.8561  -21.5006   21.8048 C   0  0  1  0  0  0  0  0  0  0  0  0
    4.5806  -22.8353   22.3969 C   0  0  0  0  0  0  0  0  0  0  0  0
    4.1716  -22.9139   23.8069 C   0  0  0  0  0  0  0  0  0  0  0  0
    2.7416  -23.1793   24.1059 C   0  0  0  0  0  0  0  0  0  0  0  0
    2.5736  -23.3283   25.6030 C   0  0  0  0  0  0  0  0  0  0  0  0
    1.1885  -23.6796   25.8587 N   0  0  0  0  0  0  0  0  0  0  0  0
    6.0161  -20.8138   22.4284 C   0  0  0  0  0  0  0  0  0  0  0  0
    7.0702  -21.4695   22.7403 O   0  0  0  0  0  0  0  0  0  0  0  0
    6.0822  -19.4295   22.7334 N   0  0  0  0  0  0  0  0  0  0  0  0
    7.2932  -18.8231   23.2868 C   0  0  1  0  0  0  0  0  0  0  0  0
    7.6639  -17.6059   22.5241 C   0  0  0  0  0  0  0  0  0  0  0  0
    8.4268  -17.8712   21.2791 C   0  0  0  0  0  0  0  0  0  0  0  0
    9.3688  -18.7279   21.2493 O   0  0  0  0  0  0  0  0  0  0  0  0
    7.0937  -18.6339   24.7164 C   0  0  0  0  0  0  0  0  0  0  0  0
    6.0068  -18.1806   25.1494 O   0  0  0  0  0  0  0  0  0  0  0  0
    8.1853  -17.2255   20.0754 O   0  0  0  0  0  0  0  0  0  0  0  0
    8.5169  -21.2456   26.6572 N   0  0  0  0  0  0  0  0  0  0  0  0
    7.3121  -21.0202   27.3676 C   0  0  0  0  0  0  0  0  0  0  0  0
    6.6486  -21.9936   27.7884 O   0  0  0  0  0  0  0  0  0  0  0  0
    6.8676  -19.6401   27.5949 C   0  0  0  0  0  0  0  0  0  0  0  0
    7.9130  -18.6663   27.1082 C   0  0  2  0  0  0  0  0  0  0  0  0
    8.0828  -18.9395   25.6900 N   0  0  0  0  0  0  0  0  0  0  0  0
    9.1484  -18.8626   27.8654 C   0  0  0  0  0  0  0  0  0  0  0  0
   10.3800  -19.1968   27.3759 O   0  0  0  0  0  0  0  0  0  0  0  0
    9.0774  -18.7064   29.1345 O   0  0  0  0  0  0  0  0  0  0  0  0
  2  8  1  0
  2  1  1  6
  3  2  1  0
  4  3  1  0
  5  4  1  0
  6  5  1  0
  7  6  1  0
  8  9  2  0
 10 11  1  0
 10  8  1  0
 11 12  1  6
 12 13  1  0
 13 17  1  0
 14 13  2  0
 15 11  1  0
 16 15  2  0
 19 18  1  0
 19 21  1  0
 20 19  2  0
 22 21  1  1
 22 23  1  0
 23 15  1  0
 24 25  1  0
 24 22  1  0
 26 24  2  0
M  END
$$$$
