KDN.pdb
     RDKit          3D

 26 25  0  0  1  0  0  0  0  0999 V2000
   10.4417  -13.2962   18.8078 N   0  0  0  0  0  0  0  0  0  0  0  0
    9.7242  -14.3158   19.5254 C   0  0  1  0  0  0  0  0  0  0  0  0
    8.2917  -14.4744   19.1637 C   0  0  0  0  0  0  0  0  0  0  0  0
    7.6377  -13.4161   18.3802 C   0  0  0  0  0  0  0  0  0  0  0  0
    7.4761  -13.6267   16.9193 C   0  0  0  0  0  0  0  0  0  0  0  0
    6.7846  -12.4189   16.3238 C   0  0  0  0  0  0  0  0  0  0  0  0
    6.7811  -12.5793   14.8811 N   0  0  0  0  0  0  0  0  0  0  0  0
   10.4508  -15.6085   19.6114 C   0  0  0  0  0  0  0  0  0  0  0  0
    9.8628  -16.6578   20.0488 O   0  0  0  0  0  0  0  0  0  0  0  0
   11.8049  -15.8139   19.2402 N   0  0  0  0  0  0  0  0  0  0  0  0
   12.4228  -17.1388   19.2961 C   0  0  1  0  0  0  0  0  0  0  0  0
   13.0751  -17.4665   18.0046 C   0  0  0  0  0  0  0  0  0  0  0  0
   13.6356  -18.8387   17.9317 C   0  0  0  0  0  0  0  0  0  0  0  0
   14.6598  -19.0989   17.2207 O   0  0  0  0  0  0  0  0  0  0  0  0
   13.2857  -17.1883   20.4676 C   0  0  0  0  0  0  0  0  0  0  0  0
   14.3441  -16.5154   20.5032 O   0  0  0  0  0  0  0  0  0  0  0  0
   13.1053  -19.9246   18.6126 O   0  0  0  0  0  0  0  0  0  0  0  0
   11.5500  -15.7322   24.0767 N   0  0  0  0  0  0  0  0  0  0  0  0
   12.8683  -16.2489   24.0291 C   0  0  0  0  0  0  0  0  0  0  0  0
   13.8429  -15.4647   24.0425 O   0  0  0  0  0  0  0  0  0  0  0  0
   13.0609  -17.7024   23.9646 C   0  0  0  0  0  0  0  0  0  0  0  0
   13.8928  -18.0674   22.7593 C   0  0  2  0  0  0  0  0  0  0  0  0
   12.9994  -17.9757   21.6155 N   0  0  0  0  0  0  0  0  0  0  0  0
   14.4366  -19.4134   22.9351 C   0  0  0  0  0  0  0  0  0  0  0  0
   15.4690  -19.7943   23.7458 O   0  0  0  0  0  0  0  0  0  0  0  0
   13.8890  -20.3495   22.2540 O   0  0  0  0  0  0  0  0  0  0  0  0
  2  8  1  0
  2  1  1  6
  3  2  1  0
  4  3  1  0
  5  4  1  0
  6  5  1  0
  7  6  1  0
  8  9  2  0
 10 11  1  0
 10  8  1  0
 11 12  1  6
 12 13  1  0
 13 17  1  0
 14 13  2  0
 15 11  1  0
 16 15  2  0
 19 18  1  0
 19 21  1  0
 20 19  2  0
 22 21  1  1
 22 23  1  0
 23 15  1  0
 24 25  1  0
 24 22  1  0
 26 24  2  0
M  END
$$$$
