NVM.pdb
     RDKit          3D

 24 23  0  0  1  0  0  0  0  0999 V2000
   17.3987  -11.4717  -19.7254 N   0  0  0  0  0  0  0  0  0  0  0  0
   16.7880  -10.7483  -18.6666 C   0  0  0  0  0  0  0  0  0  0  0  0
   15.5354  -10.7436  -18.5383 O   0  0  0  0  0  0  0  0  0  0  0  0
   17.6168   -9.9931  -17.7035 C   0  0  0  0  0  0  0  0  0  0  0  0
   18.1498  -10.9450  -16.6747 C   0  0  2  0  0  0  0  0  0  0  0  0
   17.0915  -11.5172  -15.8856 N   0  0  0  0  0  0  0  0  0  0  0  0
   19.2311  -10.3673  -15.8401 C   0  0  0  0  0  0  0  0  0  0  0  0
   18.8940   -9.7374  -14.8023 O   0  0  0  0  0  0  0  0  0  0  0  0
   24.1258  -10.1677  -14.9818 C   0  0  0  0  0  0  0  0  0  0  0  0
   22.8763  -10.7190  -15.5747 C   0  0  1  0  0  0  0  0  0  0  0  0
   22.6118  -12.1290  -15.1975 C   0  0  0  0  0  0  0  0  0  0  0  0
   21.6601   -9.8333  -15.3068 C   0  0  2  0  0  0  0  0  0  0  0  0
   20.5985  -10.4750  -16.1270 N   0  0  0  0  0  0  0  0  0  0  0  0
   21.8954   -8.4764  -15.7911 C   0  0  0  0  0  0  0  0  0  0  0  0
   22.1665   -8.2011  -16.9976 O   0  0  0  0  0  0  0  0  0  0  0  0
   18.8744   -1.9160  -17.3510 C   0  0  0  0  0  0  0  0  0  0  0  0
   18.9057   -3.5915  -16.6540 S   0  0  0  0  0  0  0  0  0  0  0  0
   20.6154   -4.0837  -16.2319 C   0  0  0  0  0  0  0  0  0  0  0  0
   20.6598   -5.4949  -15.7499 C   0  0  0  0  0  0  0  0  0  0  0  0
   22.0357   -6.0116  -15.4170 C   0  0  2  0  0  0  0  0  0  0  0  0
   21.8252   -7.3730  -14.9145 N   0  0  0  0  0  0  0  0  0  0  0  0
   22.6122   -5.2097  -14.3258 C   0  0  0  0  0  0  0  0  0  0  0  0
   23.3063   -4.0175  -14.4994 O   0  0  0  0  0  0  0  0  0  0  0  0
   22.5018   -5.5832  -13.1118 O   0  0  0  0  0  0  0  0  0  0  0  0
  1  2  1  0
  2  3  2  0
  4  2  1  0
  5  4  1  0
  5  6  1  1
  7  5  1  0
  7  8  2  0
 10 12  1  0
 10  9  1  1
 11 10  1  0
 12 13  1  6
 13  7  1  0
 14 12  1  0
 15 14  2  0
 17 16  1  0
 18 17  1  0
 19 18  1  0
 20 19  1  1
 20 22  1  0
 20 21  1  0
 21 14  1  0
 22 23  1  0
 24 22  2  0
M  END
$$$$
