NVM.pdb
     RDKit          3D

 24 23  0  0  1  0  0  0  0  0999 V2000
   28.9389  -22.1012  -17.7336 N   0  0  0  0  0  0  0  0  0  0  0  0
   28.5755  -22.3359  -16.3807 C   0  0  0  0  0  0  0  0  0  0  0  0
   29.0787  -23.2987  -15.7442 O   0  0  0  0  0  0  0  0  0  0  0  0
   27.6025  -21.4517  -15.7053 C   0  0  0  0  0  0  0  0  0  0  0  0
   26.9553  -20.5718  -16.7326 C   0  0  2  0  0  0  0  0  0  0  0  0
   27.9344  -19.8760  -17.5247 N   0  0  0  0  0  0  0  0  0  0  0  0
   25.9307  -19.6604  -16.1680 C   0  0  0  0  0  0  0  0  0  0  0  0
   26.1123  -18.4212  -16.3057 O   0  0  0  0  0  0  0  0  0  0  0  0
   21.9568  -17.8214  -16.3537 C   0  0  0  0  0  0  0  0  0  0  0  0
   23.2305  -18.5860  -16.4525 C   0  0  1  0  0  0  0  0  0  0  0  0
   24.3291  -17.8285  -17.1005 C   0  0  0  0  0  0  0  0  0  0  0  0
   23.6712  -19.1667  -15.1094 C   0  0  2  0  0  0  0  0  0  0  0  0
   24.7772  -20.0834  -15.4941 N   0  0  0  0  0  0  0  0  0  0  0  0
   22.5897  -19.9371  -14.5026 C   0  0  0  0  0  0  0  0  0  0  0  0
   21.9124  -20.8055  -15.1286 O   0  0  0  0  0  0  0  0  0  0  0  0
   22.9794  -20.6211   -8.2804 C   0  0  0  0  0  0  0  0  0  0  0  0
   21.2648  -21.2084   -8.3761 S   0  0  0  0  0  0  0  0  0  0  0  0
   20.7221  -21.3365  -10.1176 C   0  0  0  0  0  0  0  0  0  0  0  0
   21.6277  -20.5628  -11.0160 C   0  0  0  0  0  0  0  0  0  0  0  0
   21.3165  -20.6769  -12.4860 C   0  0  2  0  0  0  0  0  0  0  0  0
   22.2396  -19.7499  -13.1486 N   0  0  0  0  0  0  0  0  0  0  0  0
   19.9446  -20.2071  -12.7370 C   0  0  0  0  0  0  0  0  0  0  0  0
   18.8251  -21.0290  -12.8052 O   0  0  0  0  0  0  0  0  0  0  0  0
   19.7003  -18.9683  -12.9140 O   0  0  0  0  0  0  0  0  0  0  0  0
  1  2  1  0
  2  3  2  0
  4  2  1  0
  5  4  1  0
  5  6  1  1
  7  5  1  0
  7  8  2  0
 10 12  1  0
 10  9  1  1
 11 10  1  0
 12 13  1  6
 13  7  1  0
 14 12  1  0
 15 14  2  0
 17 16  1  0
 18 17  1  0
 19 18  1  0
 20 19  1  1
 20 22  1  0
 20 21  1  0
 21 14  1  0
 22 23  1  0
 24 22  2  0
M  END
$$$$
