NVM.pdb
     RDKit          3D

 24 23  0  0  1  0  0  0  0  0999 V2000
   23.8331  -26.4143  -15.3226 N   0  0  0  0  0  0  0  0  0  0  0  0
   24.7953  -25.7257  -16.1082 C   0  0  0  0  0  0  0  0  0  0  0  0
   24.7839  -25.8283  -17.3631 O   0  0  0  0  0  0  0  0  0  0  0  0
   25.8206  -24.8805  -15.4607 C   0  0  0  0  0  0  0  0  0  0  0  0
   25.4009  -23.4449  -15.5676 C   0  0  2  0  0  0  0  0  0  0  0  0
   25.4176  -22.9896  -16.9323 N   0  0  0  0  0  0  0  0  0  0  0  0
   26.1488  -22.5421  -14.6592 C   0  0  0  0  0  0  0  0  0  0  0  0
   27.3908  -22.7231  -14.5491 O   0  0  0  0  0  0  0  0  0  0  0  0
   26.4596  -18.2140  -12.4365 C   0  0  0  0  0  0  0  0  0  0  0  0
   26.0069  -19.2449  -13.4107 C   0  0  1  0  0  0  0  0  0  0  0  0
   26.4843  -19.0047  -14.7944 C   0  0  0  0  0  0  0  0  0  0  0  0
   26.3265  -20.6667  -12.9502 C   0  0  2  0  0  0  0  0  0  0  0  0
   25.5688  -21.5041  -13.9177 N   0  0  0  0  0  0  0  0  0  0  0  0
   25.8155  -20.8977  -11.6024 C   0  0  0  0  0  0  0  0  0  0  0  0
   24.5941  -21.1133  -11.3443 O   0  0  0  0  0  0  0  0  0  0  0  0
   29.2594  -20.9132   -5.3104 C   0  0  0  0  0  0  0  0  0  0  0  0
   28.1496  -19.5653   -5.8062 S   0  0  0  0  0  0  0  0  0  0  0  0
   26.7642  -20.2064   -6.8128 C   0  0  0  0  0  0  0  0  0  0  0  0
   27.1602  -20.3317   -8.2456 C   0  0  0  0  0  0  0  0  0  0  0  0
   26.1463  -21.0106   -9.1300 C   0  0  2  0  0  0  0  0  0  0  0  0
   26.6833  -20.8973  -10.4898 N   0  0  0  0  0  0  0  0  0  0  0  0
   24.8757  -20.2697   -9.0812 C   0  0  0  0  0  0  0  0  0  0  0  0
   23.7188  -20.7202   -8.4550 O   0  0  0  0  0  0  0  0  0  0  0  0
   24.7639  -19.1271   -9.6358 O   0  0  0  0  0  0  0  0  0  0  0  0
  1  2  1  0
  2  3  2  0
  4  2  1  0
  5  4  1  0
  5  6  1  6
  7  5  1  0
  7  8  2  0
 10 12  1  0
 10  9  1  1
 11 10  1  0
 12 13  1  6
 13  7  1  0
 14 12  1  0
 15 14  2  0
 17 16  1  0
 18 17  1  0
 19 18  1  0
 20 19  1  1
 20 22  1  0
 20 21  1  0
 21 14  1  0
 22 23  1  0
 24 22  2  0
M  END
$$$$
