NVM.pdb
     RDKit          3D

 24 23  0  0  1  0  0  0  0  0999 V2000
   19.4351  -18.5510  -13.7196 N   0  0  0  0  0  0  0  0  0  0  0  0
   19.5442  -18.3712  -12.3149 C   0  0  0  0  0  0  0  0  0  0  0  0
   18.8292  -17.5193  -11.7248 O   0  0  0  0  0  0  0  0  0  0  0  0
   20.4985  -19.1829  -11.5306 C   0  0  0  0  0  0  0  0  0  0  0  0
   21.2003  -20.1314  -12.4560 C   0  0  2  0  0  0  0  0  0  0  0  0
   20.2916  -21.1012  -13.0074 N   0  0  0  0  0  0  0  0  0  0  0  0
   22.4040  -20.7579  -11.8576 C   0  0  0  0  0  0  0  0  0  0  0  0
   22.2276  -21.7225  -11.0664 O   0  0  0  0  0  0  0  0  0  0  0  0
   27.0515  -21.9221  -12.5965 C   0  0  0  0  0  0  0  0  0  0  0  0
   25.6745  -21.4269  -12.8713 C   0  0  1  0  0  0  0  0  0  0  0  0
   24.8801  -22.3314  -13.7380 C   0  0  0  0  0  0  0  0  0  0  0  0
   24.9146  -21.0697  -11.5944 C   0  0  2  0  0  0  0  0  0  0  0  0
   23.7203  -20.3506  -12.1124 N   0  0  0  0  0  0  0  0  0  0  0  0
   25.7034  -20.1661  -10.7623 C   0  0  0  0  0  0  0  0  0  0  0  0
   26.0163  -18.9886  -11.1096 O   0  0  0  0  0  0  0  0  0  0  0  0
   27.4678  -18.7597   -4.1955 C   0  0  0  0  0  0  0  0  0  0  0  0
   28.3674  -20.1555   -4.9279 S   0  0  0  0  0  0  0  0  0  0  0  0
   28.5973  -19.9046   -6.7245 C   0  0  0  0  0  0  0  0  0  0  0  0
   27.3683  -20.2894   -7.4776 C   0  0  0  0  0  0  0  0  0  0  0  0
   27.4335  -20.0572   -8.9651 C   0  0  2  0  0  0  0  0  0  0  0  0
   26.1647  -20.5703   -9.4915 N   0  0  0  0  0  0  0  0  0  0  0  0
   28.5222  -20.8623   -9.5419 C   0  0  0  0  0  0  0  0  0  0  0  0
   28.6152  -22.2470   -9.4565 O   0  0  0  0  0  0  0  0  0  0  0  0
   29.4792  -20.3081  -10.1765 O   0  0  0  0  0  0  0  0  0  0  0  0
  1  2  1  0
  2  3  2  0
  4  2  1  0
  5  4  1  0
  5  6  1  1
  7  5  1  0
  7  8  2  0
 10 12  1  0
 10  9  1  1
 11 10  1  0
 12 13  1  6
 13  7  1  0
 14 12  1  0
 15 14  2  0
 17 16  1  0
 18 17  1  0
 19 18  1  0
 20 19  1  1
 20 22  1  0
 20 21  1  0
 21 14  1  0
 22 23  1  0
 24 22  2  0
M  END
$$$$
