NVM.pdb
     RDKit          3D

 24 23  0  0  1  0  0  0  0  0999 V2000
   30.6578  -25.0257  -22.0956 N   0  0  0  0  0  0  0  0  0  0  0  0
   30.1403  -26.2679  -22.5500 C   0  0  0  0  0  0  0  0  0  0  0  0
   29.6580  -26.3712  -23.7084 O   0  0  0  0  0  0  0  0  0  0  0  0
   30.1628  -27.4533  -21.6673 C   0  0  0  0  0  0  0  0  0  0  0  0
   30.7359  -27.0562  -20.3398 C   0  0  2  0  0  0  0  0  0  0  0  0
   32.1514  -27.3063  -20.2791 N   0  0  0  0  0  0  0  0  0  0  0  0
   30.0074  -27.6355  -19.1852 C   0  0  0  0  0  0  0  0  0  0  0  0
   30.5759  -28.5554  -18.5385 O   0  0  0  0  0  0  0  0  0  0  0  0
   29.1297  -25.8615  -16.2257 C   0  0  0  0  0  0  0  0  0  0  0  0
   27.8566  -26.4537  -16.7210 C   0  0  1  0  0  0  0  0  0  0  0  0
   27.0013  -25.4916  -17.4580 C   0  0  0  0  0  0  0  0  0  0  0  0
   28.0800  -27.7321  -17.5282 C   0  0  2  0  0  0  0  0  0  0  0  0
   28.7333  -27.2297  -18.7661 N   0  0  0  0  0  0  0  0  0  0  0  0
   26.8043  -28.3542  -17.8696 C   0  0  0  0  0  0  0  0  0  0  0  0
   26.1644  -28.1007  -18.9332 O   0  0  0  0  0  0  0  0  0  0  0  0
   21.8220  -34.0792  -15.4785 C   0  0  0  0  0  0  0  0  0  0  0  0
   23.3996  -33.1926  -15.3393 S   0  0  0  0  0  0  0  0  0  0  0  0
   23.4684  -31.8058  -16.5290 C   0  0  0  0  0  0  0  0  0  0  0  0
   24.7707  -31.0846  -16.4316 C   0  0  0  0  0  0  0  0  0  0  0  0
   24.9107  -29.8956  -17.3467 C   0  0  2  0  0  0  0  0  0  0  0  0
   26.2071  -29.2994  -17.0088 N   0  0  0  0  0  0  0  0  0  0  0  0
   23.8635  -28.9092  -17.0363 C   0  0  0  0  0  0  0  0  0  0  0  0
   22.6029  -28.8802  -17.6223 O   0  0  0  0  0  0  0  0  0  0  0  0
   24.0666  -27.9890  -16.1775 O   0  0  0  0  0  0  0  0  0  0  0  0
  1  2  1  0
  2  3  2  0
  4  2  1  0
  5  4  1  0
  5  6  1  6
  7  5  1  0
  7  8  2  0
 10 12  1  0
 10  9  1  6
 11 10  1  0
 12 13  1  6
 13  7  1  0
 14 12  1  0
 15 14  2  0
 17 16  1  0
 18 17  1  0
 19 18  1  0
 20 19  1  1
 20 22  1  0
 20 21  1  0
 21 14  1  0
 22 23  1  0
 24 22  2  0
M  END
$$$$
