NVM.pdb
     RDKit          3D

 24 23  0  0  1  0  0  0  0  0999 V2000
   21.7137  -13.3772  -21.3678 N   0  0  0  0  0  0  0  0  0  0  0  0
   21.1081  -12.0933  -21.3211 C   0  0  0  0  0  0  0  0  0  0  0  0
   20.7262  -11.5306  -22.3808 O   0  0  0  0  0  0  0  0  0  0  0  0
   20.9195  -11.4038  -20.0274 C   0  0  0  0  0  0  0  0  0  0  0  0
   21.4827  -12.2634  -18.9354 C   0  0  2  0  0  0  0  0  0  0  0  0
   20.6214  -13.3783  -18.6432 N   0  0  0  0  0  0  0  0  0  0  0  0
   21.8578  -11.5023  -17.7191 C   0  0  0  0  0  0  0  0  0  0  0  0
   21.0044  -11.4201  -16.7957 O   0  0  0  0  0  0  0  0  0  0  0  0
   25.4783   -9.7596  -14.8959 C   0  0  0  0  0  0  0  0  0  0  0  0
   24.8532  -10.5476  -15.9937 C   0  0  1  0  0  0  0  0  0  0  0  0
   24.9077  -12.0142  -15.7775 C   0  0  0  0  0  0  0  0  0  0  0  0
   23.4321  -10.0841  -16.3121 C   0  0  2  0  0  0  0  0  0  0  0  0
   23.0940  -10.8707  -17.5280 N   0  0  0  0  0  0  0  0  0  0  0  0
   23.4157   -8.6602  -16.6338 C   0  0  0  0  0  0  0  0  0  0  0  0
   24.1569   -8.1334  -17.5158 O   0  0  0  0  0  0  0  0  0  0  0  0
   18.9312   -6.1453  -19.2004 C   0  0  0  0  0  0  0  0  0  0  0  0
   19.2217   -4.6539  -18.2077 S   0  0  0  0  0  0  0  0  0  0  0  0
   20.8335   -4.7528  -17.3500 C   0  0  0  0  0  0  0  0  0  0  0  0
   21.1725   -6.1663  -17.0143 C   0  0  0  0  0  0  0  0  0  0  0  0
   22.5002   -6.3574  -16.3275 C   0  0  2  0  0  0  0  0  0  0  0  0
   22.5444   -7.7768  -15.9619 N   0  0  0  0  0  0  0  0  0  0  0  0
   22.5303   -5.5683  -15.0856 C   0  0  0  0  0  0  0  0  0  0  0  0
   22.9337   -4.2405  -14.9996 O   0  0  0  0  0  0  0  0  0  0  0  0
   22.1740   -6.0838  -13.9752 O   0  0  0  0  0  0  0  0  0  0  0  0
  1  2  1  0
  2  3  2  0
  4  2  1  0
  5  4  1  0
  5  6  1  1
  7  5  1  0
  7  8  2  0
 10 12  1  0
 10  9  1  1
 11 10  1  0
 12 13  1  6
 13  7  1  0
 14 12  1  0
 15 14  2  0
 17 16  1  0
 18 17  1  0
 19 18  1  0
 20 19  1  1
 20 22  1  0
 20 21  1  0
 21 14  1  0
 22 23  1  0
 24 22  2  0
M  END
$$$$
