NVM.pdb
     RDKit          3D

 24 23  0  0  1  0  0  0  0  0999 V2000
   21.0667  -19.3231  -14.1892 N   0  0  0  0  0  0  0  0  0  0  0  0
   20.8651  -19.1434  -12.7947 C   0  0  0  0  0  0  0  0  0  0  0  0
   19.9757  -18.3566  -12.3763 O   0  0  0  0  0  0  0  0  0  0  0  0
   21.6976  -19.8787  -11.8195 C   0  0  0  0  0  0  0  0  0  0  0  0
   22.7179  -20.6849  -12.5664 C   0  0  2  0  0  0  0  0  0  0  0  0
   22.1047  -21.7472  -13.3184 N   0  0  0  0  0  0  0  0  0  0  0  0
   23.8320  -21.1638  -11.7126 C   0  0  0  0  0  0  0  0  0  0  0  0
   23.5670  -22.0351  -10.8418 O   0  0  0  0  0  0  0  0  0  0  0  0
   28.7552  -21.2378  -11.0303 C   0  0  0  0  0  0  0  0  0  0  0  0
   27.4939  -21.0066  -11.7868 C   0  0  1  0  0  0  0  0  0  0  0  0
   27.4003  -21.7943  -13.0403 C   0  0  0  0  0  0  0  0  0  0  0  0
   26.2487  -21.1896  -10.9199 C   0  0  2  0  0  0  0  0  0  0  0  0
   25.1557  -20.7143  -11.8093 N   0  0  0  0  0  0  0  0  0  0  0  0
   26.3170  -20.3386   -9.7357 C   0  0  0  0  0  0  0  0  0  0  0  0
   26.0497  -19.1003   -9.7475 O   0  0  0  0  0  0  0  0  0  0  0  0
   26.7154  -21.3944   -2.2711 C   0  0  0  0  0  0  0  0  0  0  0  0
   27.9592  -21.4228   -3.5926 S   0  0  0  0  0  0  0  0  0  0  0  0
   27.5426  -20.2120   -4.8979 C   0  0  0  0  0  0  0  0  0  0  0  0
   27.2161  -20.9018   -6.1798 C   0  0  0  0  0  0  0  0  0  0  0  0
   26.8836  -19.9862   -7.3295 C   0  0  2  0  0  0  0  0  0  0  0  0
   26.6898  -20.8705   -8.4832 N   0  0  0  0  0  0  0  0  0  0  0  0
   28.0353  -19.1153   -7.6145 C   0  0  0  0  0  0  0  0  0  0  0  0
   28.1852  -17.8178   -7.1374 O   0  0  0  0  0  0  0  0  0  0  0  0
   28.9967  -19.5220   -8.3465 O   0  0  0  0  0  0  0  0  0  0  0  0
  1  2  1  0
  2  3  2  0
  4  2  1  0
  5  4  1  0
  5  6  1  1
  7  5  1  0
  7  8  2  0
 10 12  1  0
 10  9  1  1
 11 10  1  0
 12 13  1  6
 13  7  1  0
 14 12  1  0
 15 14  2  0
 17 16  1  0
 18 17  1  0
 19 18  1  0
 20 19  1  1
 20 22  1  0
 20 21  1  0
 21 14  1  0
 22 23  1  0
 24 22  2  0
M  END
$$$$
