NVM.pdb
     RDKit          3D

 24 23  0  0  1  0  0  0  0  0999 V2000
   30.2136  -25.5116  -16.3670 N   0  0  0  0  0  0  0  0  0  0  0  0
   29.5445  -24.5357  -17.1528 C   0  0  0  0  0  0  0  0  0  0  0  0
   30.1321  -23.4722  -17.4831 O   0  0  0  0  0  0  0  0  0  0  0  0
   28.1507  -24.7585  -17.5915 C   0  0  0  0  0  0  0  0  0  0  0  0
   27.2336  -23.9689  -16.7060 C   0  0  2  0  0  0  0  0  0  0  0  0
   27.4210  -24.3030  -15.3191 N   0  0  0  0  0  0  0  0  0  0  0  0
   25.8109  -24.0375  -17.1188 C   0  0  0  0  0  0  0  0  0  0  0  0
   25.5594  -24.0114  -18.3532 O   0  0  0  0  0  0  0  0  0  0  0  0
   24.2239  -25.8644  -18.4280 C   0  0  0  0  0  0  0  0  0  0  0  0
   23.3312  -25.7323  -17.2438 C   0  0  1  0  0  0  0  0  0  0  0  0
   23.5931  -26.7401  -16.1873 C   0  0  0  0  0  0  0  0  0  0  0  0
   23.3224  -24.3152  -16.6717 C   0  0  2  0  0  0  0  0  0  0  0  0
   24.7305  -24.1295  -16.2311 N   0  0  0  0  0  0  0  0  0  0  0  0
   22.4359  -24.2333  -15.5147 C   0  0  0  0  0  0  0  0  0  0  0  0
   22.6233  -24.8809  -14.4422 O   0  0  0  0  0  0  0  0  0  0  0  0
   17.3913  -20.3999  -15.9958 C   0  0  0  0  0  0  0  0  0  0  0  0
   16.9157  -21.0977  -14.3893 S   0  0  0  0  0  0  0  0  0  0  0  0
   18.2116  -22.2275  -13.7666 C   0  0  0  0  0  0  0  0  0  0  0  0
   19.3130  -22.3749  -14.7620 C   0  0  0  0  0  0  0  0  0  0  0  0
   20.3747  -23.3789  -14.3937 C   0  0  2  0  0  0  0  0  0  0  0  0
   21.2970  -23.4005  -15.5336 N   0  0  0  0  0  0  0  0  0  0  0  0
   19.7692  -24.7150  -14.2752 C   0  0  0  0  0  0  0  0  0  0  0  0
   19.3613  -25.2974  -13.0803 O   0  0  0  0  0  0  0  0  0  0  0  0
   19.5800  -25.4404  -15.3065 O   0  0  0  0  0  0  0  0  0  0  0  0
  1  2  1  0
  2  3  2  0
  4  2  1  0
  5  4  1  0
  5  6  1  1
  7  5  1  0
  7  8  2  0
 10 12  1  0
 10  9  1  6
 11 10  1  0
 12 13  1  1
 13  7  1  0
 14 12  1  0
 15 14  2  0
 17 16  1  0
 18 17  1  0
 19 18  1  0
 20 19  1  6
 20 22  1  0
 20 21  1  0
 21 14  1  0
 22 23  1  0
 24 22  2  0
M  END
$$$$
