NVM.pdb
     RDKit          3D

 24 23  0  0  1  0  0  0  0  0999 V2000
   18.2469  -18.7553  -14.3068 N   0  0  0  0  0  0  0  0  0  0  0  0
   19.1502  -18.2016  -13.3608 C   0  0  0  0  0  0  0  0  0  0  0  0
   19.1004  -16.9764  -13.0746 O   0  0  0  0  0  0  0  0  0  0  0  0
   20.1584  -19.0582  -12.7017 C   0  0  0  0  0  0  0  0  0  0  0  0
   20.0253  -20.4550  -13.2305 C   0  0  2  0  0  0  0  0  0  0  0  0
   18.8291  -21.0914  -12.7467 N   0  0  0  0  0  0  0  0  0  0  0  0
   21.2357  -21.2850  -13.0166 C   0  0  0  0  0  0  0  0  0  0  0  0
   21.3461  -21.8825  -11.9128 O   0  0  0  0  0  0  0  0  0  0  0  0
   24.8153  -23.8645  -15.1426 C   0  0  0  0  0  0  0  0  0  0  0  0
   23.5139  -23.1577  -14.9894 C   0  0  1  0  0  0  0  0  0  0  0  0
   22.3360  -24.0536  -15.0901 C   0  0  0  0  0  0  0  0  0  0  0  0
   23.4568  -22.3028  -13.7239 C   0  0  2  0  0  0  0  0  0  0  0  0
   22.2615  -21.4492  -13.9570 N   0  0  0  0  0  0  0  0  0  0  0  0
   24.6438  -21.4595  -13.6191 C   0  0  0  0  0  0  0  0  0  0  0  0
   24.8007  -20.3872  -14.2752 O   0  0  0  0  0  0  0  0  0  0  0  0
   31.7726  -21.2104  -10.0765 C   0  0  0  0  0  0  0  0  0  0  0  0
   30.1177  -21.9354  -10.2486 S   0  0  0  0  0  0  0  0  0  0  0  0
   29.1320  -21.0103  -11.4799 C   0  0  0  0  0  0  0  0  0  0  0  0
   27.7733  -21.6075  -11.6319 C   0  0  0  0  0  0  0  0  0  0  0  0
   26.9321  -21.0065  -12.7283 C   0  0  2  0  0  0  0  0  0  0  0  0
   25.7025  -21.8051  -12.7527 N   0  0  0  0  0  0  0  0  0  0  0  0
   27.6115  -21.1810  -14.0222 C   0  0  0  0  0  0  0  0  0  0  0  0
   28.3148  -20.1840  -14.6891 O   0  0  0  0  0  0  0  0  0  0  0  0
   27.5886  -22.3036  -14.6260 O   0  0  0  0  0  0  0  0  0  0  0  0
  1  2  1  0
  2  3  2  0
  4  2  1  0
  5  4  1  0
  5  6  1  1
  7  5  1  0
  7  8  2  0
 10 12  1  0
 10  9  1  1
 11 10  1  0
 12 13  1  6
 13  7  1  0
 14 12  1  0
 15 14  2  0
 17 16  1  0
 18 17  1  0
 19 18  1  0
 20 19  1  1
 20 22  1  0
 20 21  1  0
 21 14  1  0
 22 23  1  0
 24 22  2  0
M  END
$$$$
