NVM.pdb
     RDKit          3D

 24 23  0  0  1  0  0  0  0  0999 V2000
   16.2486  -14.8486  -17.9692 N   0  0  0  0  0  0  0  0  0  0  0  0
   16.8676  -14.6515  -16.7061 C   0  0  0  0  0  0  0  0  0  0  0  0
   16.3620  -15.1475  -15.6651 O   0  0  0  0  0  0  0  0  0  0  0  0
   18.1125  -13.8618  -16.6003 C   0  0  0  0  0  0  0  0  0  0  0  0
   18.4916  -13.3726  -17.9661 C   0  0  2  0  0  0  0  0  0  0  0  0
   19.1653  -14.3928  -18.7247 N   0  0  0  0  0  0  0  0  0  0  0  0
   19.2395  -12.0921  -17.9479 C   0  0  0  0  0  0  0  0  0  0  0  0
   20.4888  -12.1480  -17.7936 O   0  0  0  0  0  0  0  0  0  0  0  0
   19.0128   -7.1991  -18.7655 C   0  0  0  0  0  0  0  0  0  0  0  0
   18.6449   -8.6309  -18.9430 C   0  0  1  0  0  0  0  0  0  0  0  0
   18.7313   -9.0964  -20.3488 C   0  0  0  0  0  0  0  0  0  0  0  0
   19.4164   -9.5553  -18.0019 C   0  0  2  0  0  0  0  0  0  0  0  0
   18.6521  -10.8279  -18.0908 N   0  0  0  0  0  0  0  0  0  0  0  0
   19.3664   -9.0526  -16.6322 C   0  0  0  0  0  0  0  0  0  0  0  0
   18.3019   -8.9899  -15.9481 O   0  0  0  0  0  0  0  0  0  0  0  0
   22.6274  -11.4557  -12.3242 C   0  0  0  0  0  0  0  0  0  0  0  0
   22.7224   -9.8140  -11.5562 S   0  0  0  0  0  0  0  0  0  0  0  0
   21.5941   -8.6432  -12.3929 C   0  0  0  0  0  0  0  0  0  0  0  0
   21.4082   -9.0145  -13.8258 C   0  0  0  0  0  0  0  0  0  0  0  0
   20.4777   -8.1177  -14.6009 C   0  0  2  0  0  0  0  0  0  0  0  0
   20.5361   -8.6038  -15.9832 N   0  0  0  0  0  0  0  0  0  0  0  0
   20.9934   -6.7394  -14.5829 C   0  0  0  0  0  0  0  0  0  0  0  0
   20.7499   -5.8150  -13.5731 O   0  0  0  0  0  0  0  0  0  0  0  0
   21.7207   -6.3015  -15.5341 O   0  0  0  0  0  0  0  0  0  0  0  0
  1  2  1  0
  2  3  2  0
  4  2  1  0
  5  4  1  0
  5  6  1  1
  7  5  1  0
  7  8  2  0
 10 12  1  0
 10  9  1  6
 11 10  1  0
 12 13  1  1
 13  7  1  0
 14 12  1  0
 15 14  2  0
 17 16  1  0
 18 17  1  0
 19 18  1  0
 20 19  1  1
 20 22  1  0
 20 21  1  0
 21 14  1  0
 22 23  1  0
 24 22  2  0
M  END
$$$$
