RWG.pdb
     RDKit          3D

 30 31  0  0  1  0  0  0  0  0999 V2000
    7.7814  -12.8787   19.7916 N   0  0  0  0  0  0  0  0  0  0  0  0
    7.7244  -13.6257   18.5877 C   0  0  0  0  0  0  0  0  0  0  0  0
    7.9987  -13.0696   17.4409 N   0  0  0  0  0  0  0  0  0  0  0  0
    7.3776  -14.9898   18.5363 N   0  0  0  0  0  0  0  0  0  0  0  0
    7.6030  -15.8345   19.6799 C   0  0  0  0  0  0  0  0  0  0  0  0
    9.0909  -15.9304   19.8719 C   0  0  0  0  0  0  0  0  0  0  0  0
    9.5986  -15.4545   21.1874 C   0  0  0  0  0  0  0  0  0  0  0  0
   10.0652  -16.5773   22.0689 C   0  0  2  0  0  0  0  0  0  0  0  0
    9.2059  -17.7143   21.9538 N   0  0  0  0  0  0  0  0  0  0  0  0
   10.2732  -16.1617   23.4630 C   0  0  0  0  0  0  0  0  0  0  0  0
   11.0085  -15.1657   23.7634 O   0  0  0  0  0  0  0  0  0  0  0  0
    7.8337  -13.6488   16.5925 N   0  0  0  0  0  0  0  0  0  0  0  0
    9.6337  -16.8969   24.5071 C   0  0  1  0  0  0  0  0  0  0  0  0
    9.7917  -16.5468   25.8781 C   0  0  0  0  0  0  0  0  0  0  0  0
    8.4625  -16.5016   26.5772 C   0  0  0  0  0  0  0  0  0  0  0  0
    7.5266  -15.4891   26.0530 C   0  0  0  0  0  0  0  0  0  0  0  0
    6.4754  -15.7975   25.1859 N   0  0  0  0  0  0  0  0  0  0  0  0
    5.7901  -14.6704   24.9100 C   0  0  0  0  0  0  0  0  0  0  0  0
    6.3341  -13.6312   25.5496 C   0  0  0  0  0  0  0  0  0  0  0  0
    6.0114  -12.2884   25.5846 C   0  0  0  0  0  0  0  0  0  0  0  0
    6.7750  -11.4355   26.3375 C   0  0  0  0  0  0  0  0  0  0  0  0
    7.8439  -11.9353   27.0402 C   0  0  0  0  0  0  0  0  0  0  0  0
    8.1711  -13.2874   27.0072 C   0  0  0  0  0  0  0  0  0  0  0  0
    7.4134  -14.1439   26.2588 C   0  0  0  0  0  0  0  0  0  0  0  0
   10.7341  -17.4637   26.5872 O   0  0  0  0  0  0  0  0  0  0  0  0
   10.8875  -17.4192   27.8385 N   0  0  0  0  0  0  0  0  0  0  0  0
   11.4754  -18.4041   25.8591 C   0  0  0  0  0  0  0  0  0  0  0  0
   12.4225  -19.3007   26.5327 C   0  0  0  0  0  0  0  0  0  0  0  0
   12.9795  -20.2942   25.6197 O   0  0  0  0  0  0  0  0  0  0  0  0
   12.6523  -20.2969   24.4135 O   0  0  0  0  0  0  0  0  0  0  0  0
  2  1  1  0
  2  3  2  0
  4  5  1  0
  4  2  1  0
  6  5  1  0
  7  6  1  0
  8  7  1  0
  8  9  1  1
 10  8  1  0
 10 11  2  0
 12 10  1  0
 13 14  1  1
 13 12  1  0
 15 14  1  0
 15 23  1  0
 16 15  2  0
 17 16  1  0
 17 18  1  0
 18 19  1  0
 18 23  2  0
 19 20  2  0
 20 21  1  0
 22 21  2  0
 23 22  1  0
 24 13  1  0
 25 24  2  0
 26 24  1  0
 27 26  1  0
 28 30  1  0
 28 27  1  0
 29 28  2  0
M  END
$$$$
