RWG.pdb
     RDKit          3D

 30 31  0  0  1  0  0  0  0  0999 V2000
    9.7839  -13.0640   17.4341 N   0  0  0  0  0  0  0  0  0  0  0  0
    8.4449  -13.3627   17.0751 C   0  0  0  0  0  0  0  0  0  0  0  0
    8.1320  -13.6618   15.8454 N   0  0  0  0  0  0  0  0  0  0  0  0
    7.3765  -13.3611   17.9929 N   0  0  0  0  0  0  0  0  0  0  0  0
    7.6143  -13.0387   19.3755 C   0  0  0  0  0  0  0  0  0  0  0  0
    8.3144  -14.2185   19.9901 C   0  0  0  0  0  0  0  0  0  0  0  0
    7.4241  -15.2932   20.5073 C   0  0  0  0  0  0  0  0  0  0  0  0
    8.1877  -16.4460   21.0932 C   0  0  2  0  0  0  0  0  0  0  0  0
    7.3173  -17.5382   21.4000 N   0  0  0  0  0  0  0  0  0  0  0  0
    9.0304  -16.0547   22.2318 C   0  0  0  0  0  0  0  0  0  0  0  0
    9.8918  -15.1207   22.1389 O   0  0  0  0  0  0  0  0  0  0  0  0
    7.1225  -13.8173   15.6477 N   0  0  0  0  0  0  0  0  0  0  0  0
    8.8785  -16.7426   23.4741 C   0  0  1  0  0  0  0  0  0  0  0  0
    9.6531  -16.4043   24.6198 C   0  0  0  0  0  0  0  0  0  0  0  0
    8.7888  -16.3187   25.8459 C   0  0  0  0  0  0  0  0  0  0  0  0
    7.6867  -15.3426   25.7538 C   0  0  0  0  0  0  0  0  0  0  0  0
    6.3584  -15.7103   25.5253 N   0  0  0  0  0  0  0  0  0  0  0  0
    5.5916  -14.6021   25.5208 C   0  0  0  0  0  0  0  0  0  0  0  0
    6.3444  -13.5191   25.7341 C   0  0  0  0  0  0  0  0  0  0  0  0
    6.0383  -12.1741   25.8097 C   0  0  0  0  0  0  0  0  0  0  0  0
    7.0435  -11.2700   26.0320 C   0  0  0  0  0  0  0  0  0  0  0  0
    8.3326  -11.7217   26.1743 C   0  0  0  0  0  0  0  0  0  0  0  0
    8.6439  -13.0759   26.0990 C   0  0  0  0  0  0  0  0  0  0  0  0
    7.6461  -13.9833   25.8782 C   0  0  0  0  0  0  0  0  0  0  0  0
   10.7854  -17.3551   24.8332 O   0  0  0  0  0  0  0  0  0  0  0  0
   10.6334  -18.6028   24.7254 N   0  0  0  0  0  0  0  0  0  0  0  0
   12.0567  -16.8659   25.1626 C   0  0  0  0  0  0  0  0  0  0  0  0
   13.1993  -17.7759   25.3065 C   0  0  0  0  0  0  0  0  0  0  0  0
   13.1473  -18.5259   26.5578 O   0  0  0  0  0  0  0  0  0  0  0  0
   12.1663  -18.4096   27.3233 O   0  0  0  0  0  0  0  0  0  0  0  0
  2  1  1  0
  2  3  2  0
  4  5  1  0
  4  2  1  0
  6  5  1  0
  7  6  1  0
  8  7  1  0
  8  9  1  1
 10  8  1  0
 10 11  2  0
 12 10  1  0
 13 14  1  6
 13 12  1  0
 15 14  1  0
 15 23  1  0
 16 15  2  0
 17 16  1  0
 17 18  1  0
 18 19  1  0
 18 23  2  0
 19 20  2  0
 20 21  1  0
 22 21  2  0
 23 22  1  0
 24 13  1  0
 25 24  2  0
 26 24  1  0
 27 26  1  0
 28 30  1  0
 28 27  1  0
 29 28  2  0
M  END
$$$$
