RWG.pdb
     RDKit          3D

 30 31  0  0  1  0  0  0  0  0999 V2000
    8.0610  -12.9472   17.9992 N   0  0  0  0  0  0  0  0  0  0  0  0
    7.9567  -13.5759   16.7325 C   0  0  0  0  0  0  0  0  0  0  0  0
    8.2042  -12.9167   15.6353 N   0  0  0  0  0  0  0  0  0  0  0  0
    7.5887  -14.9249   16.5634 N   0  0  0  0  0  0  0  0  0  0  0  0
    7.2290  -15.7227   17.7063 C   0  0  0  0  0  0  0  0  0  0  0  0
    8.2952  -15.5126   18.7449 C   0  0  0  0  0  0  0  0  0  0  0  0
    9.4607  -16.4344   18.6615 C   0  0  0  0  0  0  0  0  0  0  0  0
    9.5615  -17.3497   19.8479 C   0  0  2  0  0  0  0  0  0  0  0  0
    8.4758  -18.2797   19.8752 N   0  0  0  0  0  0  0  0  0  0  0  0
    9.7213  -16.6262   21.1169 C   0  0  0  0  0  0  0  0  0  0  0  0
   10.6624  -15.7865   21.2964 O   0  0  0  0  0  0  0  0  0  0  0  0
    8.0559  -13.4292   14.7420 N   0  0  0  0  0  0  0  0  0  0  0  0
    8.7960  -16.8740   22.1762 C   0  0  1  0  0  0  0  0  0  0  0  0
    8.9202  -16.2414   23.4456 C   0  0  0  0  0  0  0  0  0  0  0  0
    7.5867  -15.7496   23.9330 C   0  0  0  0  0  0  0  0  0  0  0  0
    7.6205  -15.0856   25.2497 C   0  0  0  0  0  0  0  0  0  0  0  0
    7.9487  -15.7524   26.4328 N   0  0  0  0  0  0  0  0  0  0  0  0
    7.9168  -14.8739   27.4541 C   0  0  0  0  0  0  0  0  0  0  0  0
    7.5837  -13.6594   27.0081 C   0  0  0  0  0  0  0  0  0  0  0  0
    7.4109  -12.4482   27.6498 C   0  0  0  0  0  0  0  0  0  0  0  0
    7.0474  -11.3484   26.9178 C   0  0  0  0  0  0  0  0  0  0  0  0
    6.8632  -11.4754   25.5629 C   0  0  0  0  0  0  0  0  0  0  0  0
    7.0369  -12.6940   24.9137 C   0  0  0  0  0  0  0  0  0  0  0  0
    7.4000  -13.7950   25.6375 C   0  0  0  0  0  0  0  0  0  0  0  0
    9.5596  -17.1343   24.4583 O   0  0  0  0  0  0  0  0  0  0  0  0
    8.8838  -17.9455   25.1485 N   0  0  0  0  0  0  0  0  0  0  0  0
   10.9455  -17.0828   24.6601 C   0  0  0  0  0  0  0  0  0  0  0  0
   11.5982  -17.9696   25.6306 C   0  0  0  0  0  0  0  0  0  0  0  0
   13.0396  -17.7473   25.6922 O   0  0  0  0  0  0  0  0  0  0  0  0
   13.5952  -16.9789   24.8780 O   0  0  0  0  0  0  0  0  0  0  0  0
  2  1  1  0
  2  3  2  0
  4  5  1  0
  4  2  1  0
  6  5  1  0
  7  6  1  0
  8  7  1  0
  8  9  1  1
 10  8  1  0
 10 11  2  0
 12 10  1  0
 13 14  1  1
 13 12  1  0
 15 14  1  0
 15 23  1  0
 16 15  2  0
 17 16  1  0
 17 18  1  0
 18 19  1  0
 18 23  2  0
 19 20  2  0
 20 21  1  0
 22 21  2  0
 23 22  1  0
 24 13  1  0
 25 24  2  0
 26 24  1  0
 27 26  1  0
 28 30  1  0
 28 27  1  0
 29 28  2  0
M  END
$$$$
