RWG.pdb
     RDKit          3D

 30 31  0  0  1  0  0  0  0  0999 V2000
    8.0570  -12.5673   16.5413 N   0  0  0  0  0  0  0  0  0  0  0  0
    7.7450  -13.9122   16.2178 C   0  0  0  0  0  0  0  0  0  0  0  0
    7.0679  -14.2025   15.1422 N   0  0  0  0  0  0  0  0  0  0  0  0
    8.1316  -15.0108   17.0099 N   0  0  0  0  0  0  0  0  0  0  0  0
    8.7586  -14.7934   18.2872 C   0  0  0  0  0  0  0  0  0  0  0  0
    7.6589  -14.5591   19.2851 C   0  0  0  0  0  0  0  0  0  0  0  0
    8.1019  -14.3689   20.6931 C   0  0  0  0  0  0  0  0  0  0  0  0
    8.8360  -15.5614   21.2356 C   0  0  2  0  0  0  0  0  0  0  0  0
    8.0015  -16.7224   21.2399 N   0  0  0  0  0  0  0  0  0  0  0  0
    9.4582  -15.3047   22.5419 C   0  0  0  0  0  0  0  0  0  0  0  0
   10.1214  -14.2416   22.7716 O   0  0  0  0  0  0  0  0  0  0  0  0
    6.8960  -15.2123   14.9600 N   0  0  0  0  0  0  0  0  0  0  0  0
    9.3151  -16.2756   23.5795 C   0  0  1  0  0  0  0  0  0  0  0  0
    9.8295  -16.0572   24.8889 C   0  0  0  0  0  0  0  0  0  0  0  0
    8.7784  -16.3219   25.9296 C   0  0  0  0  0  0  0  0  0  0  0  0
    7.6553  -15.3656   25.9256 C   0  0  0  0  0  0  0  0  0  0  0  0
    6.3382  -15.7362   25.6432 N   0  0  0  0  0  0  0  0  0  0  0  0
    5.5463  -14.6504   25.7443 C   0  0  0  0  0  0  0  0  0  0  0  0
    6.2719  -13.5796   26.0787 C   0  0  0  0  0  0  0  0  0  0  0  0
    5.9343  -12.2567   26.2900 C   0  0  0  0  0  0  0  0  0  0  0  0
    6.9162  -11.3591   26.6178 C   0  0  0  0  0  0  0  0  0  0  0  0
    8.2137  -11.7952   26.7288 C   0  0  0  0  0  0  0  0  0  0  0  0
    8.5567  -13.1270   26.5169 C   0  0  0  0  0  0  0  0  0  0  0  0
    7.5822  -14.0279   26.1902 C   0  0  0  0  0  0  0  0  0  0  0  0
   11.0555  -16.8686   25.1537 O   0  0  0  0  0  0  0  0  0  0  0  0
   11.5995  -16.8969   26.2915 N   0  0  0  0  0  0  0  0  0  0  0  0
   11.6300  -17.6243   24.1227 C   0  0  0  0  0  0  0  0  0  0  0  0
   12.8468  -18.4116   24.3548 C   0  0  0  0  0  0  0  0  0  0  0  0
   13.3351  -19.0382   23.1301 O   0  0  0  0  0  0  0  0  0  0  0  0
   12.7502  -18.8410   22.0434 O   0  0  0  0  0  0  0  0  0  0  0  0
  2  1  1  0
  2  3  2  0
  4  5  1  0
  4  2  1  0
  6  5  1  0
  7  6  1  0
  8  7  1  0
  8  9  1  1
 10  8  1  0
 10 11  2  0
 12 10  1  0
 13 14  1  6
 13 12  1  0
 15 14  1  0
 15 23  1  0
 16 15  2  0
 17 16  1  0
 17 18  1  0
 18 19  1  0
 18 23  2  0
 19 20  2  0
 20 21  1  0
 22 21  2  0
 23 22  1  0
 24 13  1  0
 25 24  2  0
 26 24  1  0
 27 26  1  0
 28 30  1  0
 28 27  1  0
 29 28  2  0
M  END
$$$$
