RWG.pdb
     RDKit          3D

 30 31  0  0  1  0  0  0  0  0999 V2000
    8.4807  -12.3228   16.6300 N   0  0  0  0  0  0  0  0  0  0  0  0
    7.8164  -13.5427   16.3451 C   0  0  0  0  0  0  0  0  0  0  0  0
    7.5500  -13.8893   15.1169 N   0  0  0  0  0  0  0  0  0  0  0  0
    7.4037  -14.4521   17.3383 N   0  0  0  0  0  0  0  0  0  0  0  0
    7.7230  -14.2046   18.7199 C   0  0  0  0  0  0  0  0  0  0  0  0
    7.1520  -15.3446   19.5164 C   0  0  0  0  0  0  0  0  0  0  0  0
    7.3783  -15.2756   20.9857 C   0  0  0  0  0  0  0  0  0  0  0  0
    8.5396  -16.1161   21.4331 C   0  0  2  0  0  0  0  0  0  0  0  0
    8.1512  -17.4811   21.6075 N   0  0  0  0  0  0  0  0  0  0  0  0
    9.2241  -15.5658   22.6113 C   0  0  0  0  0  0  0  0  0  0  0  0
    9.7027  -14.3851   22.6184 O   0  0  0  0  0  0  0  0  0  0  0  0
    7.1255  -14.8294   14.9812 N   0  0  0  0  0  0  0  0  0  0  0  0
    9.3560  -16.3790   23.7779 C   0  0  1  0  0  0  0  0  0  0  0  0
   10.0080  -15.9076   24.9525 C   0  0  0  0  0  0  0  0  0  0  0  0
    9.1176  -16.0499   26.1544 C   0  0  0  0  0  0  0  0  0  0  0  0
    7.9115  -15.2010   26.1295 C   0  0  0  0  0  0  0  0  0  0  0  0
    6.6245  -15.7087   25.9346 N   0  0  0  0  0  0  0  0  0  0  0  0
    5.7401  -14.6934   25.9899 C   0  0  0  0  0  0  0  0  0  0  0  0
    6.3756  -13.5392   26.2109 C   0  0  0  0  0  0  0  0  0  0  0  0
    5.9253  -12.2394   26.3381 C   0  0  0  0  0  0  0  0  0  0  0  0
    6.8317  -11.2348   26.5541 C   0  0  0  0  0  0  0  0  0  0  0  0
    8.1673  -11.5432   26.6391 C   0  0  0  0  0  0  0  0  0  0  0  0
    8.6237  -12.8516   26.5117 C   0  0  0  0  0  0  0  0  0  0  0  0
    7.7251  -13.8587   26.2968 C   0  0  0  0  0  0  0  0  0  0  0  0
   11.3188  -16.5876   25.1789 O   0  0  0  0  0  0  0  0  0  0  0  0
   11.9300  -16.5007   26.2789 N   0  0  0  0  0  0  0  0  0  0  0  0
   11.8994  -17.3460   24.1533 C   0  0  0  0  0  0  0  0  0  0  0  0
   13.1306  -18.1102   24.3871 C   0  0  0  0  0  0  0  0  0  0  0  0
   13.4803  -18.9476   23.2437 O   0  0  0  0  0  0  0  0  0  0  0  0
   12.8188  -18.8796   22.1855 O   0  0  0  0  0  0  0  0  0  0  0  0
  2  1  1  0
  2  3  2  0
  4  5  1  0
  4  2  1  0
  6  5  1  0
  7  6  1  0
  8  7  1  0
  8  9  1  1
 10  8  1  0
 10 11  2  0
 12 10  1  0
 13 14  1  6
 13 12  1  0
 15 14  1  0
 15 23  1  0
 16 15  2  0
 17 16  1  0
 17 18  1  0
 18 19  1  0
 18 23  2  0
 19 20  2  0
 20 21  1  0
 22 21  2  0
 23 22  1  0
 24 13  1  0
 25 24  2  0
 26 24  1  0
 27 26  1  0
 28 30  1  0
 28 27  1  0
 29 28  2  0
M  END
$$$$
