RWG.pdb
     RDKit          3D

 30 31  0  0  1  0  0  0  0  0999 V2000
    8.6810  -12.3255   19.5930 N   0  0  0  0  0  0  0  0  0  0  0  0
    8.0478  -13.0787   18.5720 C   0  0  0  0  0  0  0  0  0  0  0  0
    6.9777  -12.6321   17.9762 N   0  0  0  0  0  0  0  0  0  0  0  0
    8.5118  -14.3336   18.1319 N   0  0  0  0  0  0  0  0  0  0  0  0
    8.1108  -15.5325   18.8204 C   0  0  0  0  0  0  0  0  0  0  0  0
    9.1872  -15.8483   19.8212 C   0  0  0  0  0  0  0  0  0  0  0  0
    8.7547  -15.8579   21.2451 C   0  0  0  0  0  0  0  0  0  0  0  0
    9.4791  -16.8877   22.0637 C   0  0  2  0  0  0  0  0  0  0  0  0
    8.7266  -18.1004   22.1499 N   0  0  0  0  0  0  0  0  0  0  0  0
    9.8955  -16.3833   23.3797 C   0  0  0  0  0  0  0  0  0  0  0  0
   10.6194  -15.3419   23.5004 O   0  0  0  0  0  0  0  0  0  0  0  0
    6.5709  -13.2391   17.2355 N   0  0  0  0  0  0  0  0  0  0  0  0
    9.4772  -17.0820   24.5529 C   0  0  1  0  0  0  0  0  0  0  0  0
    9.8981  -16.6852   25.8538 C   0  0  0  0  0  0  0  0  0  0  0  0
    8.7269  -16.5860   26.7899 C   0  0  0  0  0  0  0  0  0  0  0  0
    7.6795  -15.6381   26.3652 C   0  0  0  0  0  0  0  0  0  0  0  0
    6.4666  -16.0426   25.8019 N   0  0  0  0  0  0  0  0  0  0  0  0
    5.7169  -14.9522   25.5467 C   0  0  0  0  0  0  0  0  0  0  0  0
    6.3716  -13.8462   25.9116 C   0  0  0  0  0  0  0  0  0  0  0  0
    6.0410  -12.5064   25.8481 C   0  0  0  0  0  0  0  0  0  0  0  0
    6.9383  -11.5732   26.2968 C   0  0  0  0  0  0  0  0  0  0  0  0
    8.1461  -11.9913   26.7993 C   0  0  0  0  0  0  0  0  0  0  0  0
    8.4817  -13.3402   26.8649 C   0  0  0  0  0  0  0  0  0  0  0  0
    7.5911  -14.2765   26.4196 C   0  0  0  0  0  0  0  0  0  0  0  0
   10.9452  -17.5954   26.4076 O   0  0  0  0  0  0  0  0  0  0  0  0
   11.4046  -17.4468   27.5730 N   0  0  0  0  0  0  0  0  0  0  0  0
   11.4419  -18.6473   25.6259 C   0  0  0  0  0  0  0  0  0  0  0  0
   12.4484  -19.5721   26.1606 C   0  0  0  0  0  0  0  0  0  0  0  0
   13.8075  -19.1477   25.8386 O   0  0  0  0  0  0  0  0  0  0  0  0
   14.0035  -18.1053   25.1776 O   0  0  0  0  0  0  0  0  0  0  0  0
  2  1  1  0
  2  3  2  0
  4  5  1  0
  4  2  1  0
  6  5  1  0
  7  6  1  0
  8  7  1  0
  8  9  1  1
 10  8  1  0
 10 11  2  0
 12 10  1  0
 13 14  1  6
 13 12  1  0
 15 14  1  0
 15 23  1  0
 16 15  2  0
 17 16  1  0
 17 18  1  0
 18 19  1  0
 18 23  2  0
 19 20  2  0
 20 21  1  0
 22 21  2  0
 23 22  1  0
 24 13  1  0
 25 24  2  0
 26 24  1  0
 27 26  1  0
 28 30  1  0
 28 27  1  0
 29 28  2  0
M  END
$$$$
