RWG.pdb
     RDKit          3D

 30 31  0  0  1  0  0  0  0  0999 V2000
    6.4641  -13.4568   19.1361 N   0  0  0  0  0  0  0  0  0  0  0  0
    7.7973  -13.1185   18.7916 C   0  0  0  0  0  0  0  0  0  0  0  0
    8.1523  -11.8745   18.6304 N   0  0  0  0  0  0  0  0  0  0  0  0
    8.8160  -14.0726   18.6021 N   0  0  0  0  0  0  0  0  0  0  0  0
    8.7438  -15.3463   19.2689 C   0  0  0  0  0  0  0  0  0  0  0  0
    9.3469  -15.1652   20.6340 C   0  0  0  0  0  0  0  0  0  0  0  0
    8.5808  -15.7695   21.7577 C   0  0  0  0  0  0  0  0  0  0  0  0
    9.3061  -16.9152   22.4033 C   0  0  2  0  0  0  0  0  0  0  0  0
    8.5280  -18.1135   22.3502 N   0  0  0  0  0  0  0  0  0  0  0  0
    9.7760  -16.6031   23.7603 C   0  0  0  0  0  0  0  0  0  0  0  0
   10.6024  -15.6595   23.9835 O   0  0  0  0  0  0  0  0  0  0  0  0
    9.1251  -11.7080   18.3012 N   0  0  0  0  0  0  0  0  0  0  0  0
    9.2928  -17.3811   24.8561 C   0  0  1  0  0  0  0  0  0  0  0  0
    9.8288  -17.2452   26.1681 C   0  0  0  0  0  0  0  0  0  0  0  0
    8.7744  -16.7821   27.1333 C   0  0  0  0  0  0  0  0  0  0  0  0
    7.8244  -15.7986   26.5802 C   0  0  0  0  0  0  0  0  0  0  0  0
    6.6540  -16.1617   25.9090 N   0  0  0  0  0  0  0  0  0  0  0  0
    5.9903  -15.0450   25.5504 C   0  0  0  0  0  0  0  0  0  0  0  0
    6.6616  -13.9609   25.9493 C   0  0  0  0  0  0  0  0  0  0  0  0
    6.4082  -12.6094   25.8169 C   0  0  0  0  0  0  0  0  0  0  0  0
    7.3035  -11.7069   26.3281 C   0  0  0  0  0  0  0  0  0  0  0  0
    8.4325  -12.1668   26.9605 C   0  0  0  0  0  0  0  0  0  0  0  0
    8.6902  -13.5275   27.0958 C   0  0  0  0  0  0  0  0  0  0  0  0
    7.8011  -14.4333   26.5887 C   0  0  0  0  0  0  0  0  0  0  0  0
   10.4700  -18.5067   26.6466 O   0  0  0  0  0  0  0  0  0  0  0  0
    9.9865  -19.6403   26.3773 N   0  0  0  0  0  0  0  0  0  0  0  0
   11.6398  -18.4482   27.4161 C   0  0  0  0  0  0  0  0  0  0  0  0
   12.2854  -19.6749   27.8986 C   0  0  0  0  0  0  0  0  0  0  0  0
   13.5532  -19.3994   28.5677 O   0  0  0  0  0  0  0  0  0  0  0  0
   14.0407  -18.2488   28.5477 O   0  0  0  0  0  0  0  0  0  0  0  0
  2  1  1  0
  2  3  2  0
  4  5  1  0
  4  2  1  0
  6  5  1  0
  7  6  1  0
  8  7  1  0
  8  9  1  1
 10  8  1  0
 10 11  2  0
 12 10  1  0
 13 14  1  1
 13 12  1  0
 15 14  1  0
 15 23  1  0
 16 15  2  0
 17 16  1  0
 17 18  1  0
 18 19  1  0
 18 23  2  0
 19 20  2  0
 20 21  1  0
 22 21  2  0
 23 22  1  0
 24 13  1  0
 25 24  2  0
 26 24  1  0
 27 26  1  0
 28 30  1  0
 28 27  1  0
 29 28  2  0
M  END
$$$$
