RWG.pdb
     RDKit          3D

 30 31  0  0  1  0  0  0  0  0999 V2000
    6.9571  -13.4545   18.6526 N   0  0  0  0  0  0  0  0  0  0  0  0
    7.9107  -13.4893   17.6038 C   0  0  0  0  0  0  0  0  0  0  0  0
    7.6174  -14.0188   16.4492 N   0  0  0  0  0  0  0  0  0  0  0  0
    9.2140  -12.9683   17.7220 N   0  0  0  0  0  0  0  0  0  0  0  0
   10.3491  -13.7772   17.3622 C   0  0  0  0  0  0  0  0  0  0  0  0
   10.3576  -14.9626   18.2867 C   0  0  0  0  0  0  0  0  0  0  0  0
   11.1436  -14.7923   19.5389 C   0  0  0  0  0  0  0  0  0  0  0  0
   10.9912  -15.9521   20.4807 C   0  0  2  0  0  0  0  0  0  0  0  0
   10.1598  -16.9691   19.9160 N   0  0  0  0  0  0  0  0  0  0  0  0
   10.5568  -15.5450   21.8243 C   0  0  0  0  0  0  0  0  0  0  0  0
   11.2655  -14.7787   22.5548 O   0  0  0  0  0  0  0  0  0  0  0  0
    8.4020  -14.1255   15.7743 N   0  0  0  0  0  0  0  0  0  0  0  0
    9.3069  -16.0238   22.3223 C   0  0  2  0  0  0  0  0  0  0  0  0
    8.8136  -15.6448   23.6030 C   0  0  0  0  0  0  0  0  0  0  0  0
    7.3730  -15.2258   23.5208 C   0  0  0  0  0  0  0  0  0  0  0  0
    6.8284  -14.6508   24.7653 C   0  0  0  0  0  0  0  0  0  0  0  0
    5.9957  -15.3610   25.6338 N   0  0  0  0  0  0  0  0  0  0  0  0
    5.6897  -14.5768   26.6862 C   0  0  0  0  0  0  0  0  0  0  0  0
    6.2765  -13.3834   26.5587 C   0  0  0  0  0  0  0  0  0  0  0  0
    6.2650  -12.2522   27.3515 C   0  0  0  0  0  0  0  0  0  0  0  0
    6.9680  -11.1464   26.9508 C   0  0  0  0  0  0  0  0  0  0  0  0
    7.6679  -11.1881   25.7700 C   0  0  0  0  0  0  0  0  0  0  0  0
    7.6817  -12.3263   24.9695 C   0  0  0  0  0  0  0  0  0  0  0  0
    6.9832  -13.4331   25.3634 C   0  0  0  0  0  0  0  0  0  0  0  0
    8.9954  -16.7260   24.6177 O   0  0  0  0  0  0  0  0  0  0  0  0
    8.0473  -17.4877   24.9527 N   0  0  0  0  0  0  0  0  0  0  0  0
   10.2451  -16.9134   25.2236 C   0  0  0  0  0  0  0  0  0  0  0  0
   10.4728  -18.0293   26.1495 C   0  0  0  0  0  0  0  0  0  0  0  0
   11.8752  -18.1394   26.5394 O   0  0  0  0  0  0  0  0  0  0  0  0
   12.1856  -18.6158   27.6523 O   0  0  0  0  0  0  0  0  0  0  0  0
  2  1  1  0
  2  3  2  0
  4  5  1  0
  4  2  1  0
  6  5  1  0
  7  6  1  0
  8  7  1  0
  8  9  1  6
 10  8  1  0
 10 11  2  0
 12 10  1  0
 13 14  1  1
 13 12  1  0
 15 14  1  0
 15 23  1  0
 16 15  2  0
 17 16  1  0
 17 18  1  0
 18 19  1  0
 18 23  2  0
 19 20  2  0
 20 21  1  0
 22 21  2  0
 23 22  1  0
 24 13  1  0
 25 24  2  0
 26 24  1  0
 27 26  1  0
 28 30  1  0
 28 27  1  0
 29 28  2  0
M  END
$$$$
