RWG.pdb
     RDKit          3D

 30 31  0  0  1  0  0  0  0  0999 V2000
    8.0465  -12.6235   17.3548 N   0  0  0  0  0  0  0  0  0  0  0  0
    8.0935  -13.9374   16.8236 C   0  0  0  0  0  0  0  0  0  0  0  0
    7.3346  -14.2820   15.8211 N   0  0  0  0  0  0  0  0  0  0  0  0
    8.9406  -14.9464   17.3220 N   0  0  0  0  0  0  0  0  0  0  0  0
    9.1164  -15.1036   18.7420 C   0  0  0  0  0  0  0  0  0  0  0  0
    7.8165  -14.7210   19.3932 C   0  0  0  0  0  0  0  0  0  0  0  0
    7.8267  -14.7033   20.8813 C   0  0  0  0  0  0  0  0  0  0  0  0
    8.6835  -15.7884   21.4677 C   0  0  2  0  0  0  0  0  0  0  0  0
    7.9600  -17.0174   21.5709 N   0  0  0  0  0  0  0  0  0  0  0  0
    9.3181  -15.3952   22.7335 C   0  0  0  0  0  0  0  0  0  0  0  0
    9.9812  -14.3131   22.8436 O   0  0  0  0  0  0  0  0  0  0  0  0
    7.4607  -15.2471   15.4534 N   0  0  0  0  0  0  0  0  0  0  0  0
    9.1874  -16.2519   23.8687 C   0  0  1  0  0  0  0  0  0  0  0  0
    9.8623  -15.9845   25.0934 C   0  0  0  0  0  0  0  0  0  0  0  0
    8.9080  -16.0292   26.2531 C   0  0  0  0  0  0  0  0  0  0  0  0
    7.7127  -15.1787   26.0983 C   0  0  0  0  0  0  0  0  0  0  0  0
    6.4488  -15.6874   25.7889 N   0  0  0  0  0  0  0  0  0  0  0  0
    5.5665  -14.6698   25.7422 C   0  0  0  0  0  0  0  0  0  0  0  0
    6.1816  -13.5131   26.0043 C   0  0  0  0  0  0  0  0  0  0  0  0
    5.7256  -12.2106   26.0661 C   0  0  0  0  0  0  0  0  0  0  0  0
    6.6103  -11.2041   26.3517 C   0  0  0  0  0  0  0  0  0  0  0  0
    7.9305  -11.5134   26.5698 C   0  0  0  0  0  0  0  0  0  0  0  0
    8.3927  -12.8245   26.5086 C   0  0  0  0  0  0  0  0  0  0  0  0
    7.5155  -13.8335   26.2248 C   0  0  0  0  0  0  0  0  0  0  0  0
   11.0121  -16.9121   25.3155 O   0  0  0  0  0  0  0  0  0  0  0  0
   11.6343  -16.9467   26.4123 N   0  0  0  0  0  0  0  0  0  0  0  0
   11.4241  -17.7732   24.2895 C   0  0  0  0  0  0  0  0  0  0  0  0
   12.5385  -18.7066   24.4925 C   0  0  0  0  0  0  0  0  0  0  0  0
   13.8115  -18.1427   24.0540 O   0  0  0  0  0  0  0  0  0  0  0  0
   13.8687  -16.9694   23.6271 O   0  0  0  0  0  0  0  0  0  0  0  0
  2  1  1  0
  2  3  2  0
  4  5  1  0
  4  2  1  0
  6  5  1  0
  7  6  1  0
  8  7  1  0
  8  9  1  1
 10  8  1  0
 10 11  2  0
 12 10  1  0
 13 14  1  6
 13 12  1  0
 15 14  1  0
 15 23  1  0
 16 15  2  0
 17 16  1  0
 17 18  1  0
 18 19  1  0
 18 23  2  0
 19 20  2  0
 20 21  1  0
 22 21  2  0
 23 22  1  0
 24 13  1  0
 25 24  2  0
 26 24  1  0
 27 26  1  0
 28 30  1  0
 28 27  1  0
 29 28  2  0
M  END
$$$$
