RWG.pdb
     RDKit          3D

 30 31  0  0  1  0  0  0  0  0999 V2000
    7.7469  -12.4518   17.4565 N   0  0  0  0  0  0  0  0  0  0  0  0
    8.2634  -13.5630   16.7430 C   0  0  0  0  0  0  0  0  0  0  0  0
    7.9088  -13.7902   15.5092 N   0  0  0  0  0  0  0  0  0  0  0  0
    9.1758  -14.4835   17.2945 N   0  0  0  0  0  0  0  0  0  0  0  0
    9.2711  -14.6365   18.7226 C   0  0  0  0  0  0  0  0  0  0  0  0
    7.8667  -14.7124   19.2535 C   0  0  0  0  0  0  0  0  0  0  0  0
    7.7464  -14.8178   20.7331 C   0  0  0  0  0  0  0  0  0  0  0  0
    8.4702  -16.0102   21.2897 C   0  0  2  0  0  0  0  0  0  0  0  0
    7.5626  -17.0781   21.5733 N   0  0  0  0  0  0  0  0  0  0  0  0
    9.3285  -15.6755   22.4347 C   0  0  0  0  0  0  0  0  0  0  0  0
   10.1264  -14.6827   22.4072 O   0  0  0  0  0  0  0  0  0  0  0  0
    8.3635  -14.5978   15.0364 N   0  0  0  0  0  0  0  0  0  0  0  0
    9.2653  -16.4875   23.6078 C   0  0  1  0  0  0  0  0  0  0  0  0
   10.1138  -16.2570   24.7276 C   0  0  0  0  0  0  0  0  0  0  0  0
    9.8723  -14.8942   25.3125 C   0  0  0  0  0  0  0  0  0  0  0  0
    8.4500  -14.5393   25.4767 C   0  0  0  0  0  0  0  0  0  0  0  0
    7.4124  -15.4663   25.3505 N   0  0  0  0  0  0  0  0  0  0  0  0
    6.2392  -14.8447   25.5813 C   0  0  0  0  0  0  0  0  0  0  0  0
    6.4467  -13.5533   25.8534 C   0  0  0  0  0  0  0  0  0  0  0  0
    5.5842  -12.5139   26.1436 C   0  0  0  0  0  0  0  0  0  0  0  0
    6.0954  -11.2634   26.3721 C   0  0  0  0  0  0  0  0  0  0  0  0
    7.4538  -11.0719   26.3072 C   0  0  0  0  0  0  0  0  0  0  0  0
    8.3251  -12.1170   26.0155 C   0  0  0  0  0  0  0  0  0  0  0  0
    7.8220  -13.3671   25.7871 C   0  0  0  0  0  0  0  0  0  0  0  0
    9.9677  -17.3164   25.7708 O   0  0  0  0  0  0  0  0  0  0  0  0
   10.3688  -17.1421   26.9540 N   0  0  0  0  0  0  0  0  0  0  0  0
    9.3720  -18.5421   25.4440 C   0  0  0  0  0  0  0  0  0  0  0  0
   10.1739  -19.6506   24.9124 C   0  0  0  0  0  0  0  0  0  0  0  0
   11.1692  -20.1160   25.8735 O   0  0  0  0  0  0  0  0  0  0  0  0
   11.3688  -19.4829   26.9323 O   0  0  0  0  0  0  0  0  0  0  0  0
  2  1  1  0
  2  3  2  0
  4  5  1  0
  4  2  1  0
  6  5  1  0
  7  6  1  0
  8  7  1  0
  8  9  1  1
 10  8  1  0
 10 11  2  0
 12 10  1  0
 13 14  1  6
 13 12  1  0
 15 14  1  0
 15 23  1  0
 16 15  2  0
 17 16  1  0
 17 18  1  0
 18 19  1  0
 18 23  2  0
 19 20  2  0
 20 21  1  0
 22 21  2  0
 23 22  1  0
 24 13  1  0
 25 24  2  0
 26 24  1  0
 27 26  1  0
 28 30  1  0
 28 27  1  0
 29 28  2  0
M  END
$$$$
