WMH.pdb
     RDKit          3D

 33 35  0  0  1  0  0  0  0  0999 V2000
    5.6354  -17.5630   21.6766 N   0  0  0  0  0  0  0  0  0  0  0  0
    6.7994  -17.0137   22.3928 C   0  0  1  0  0  0  0  0  0  0  0  0
    6.6488  -15.5189   22.4484 C   0  0  0  0  0  0  0  0  0  0  0  0
    6.7513  -14.8019   21.1816 C   0  0  0  0  0  0  0  0  0  0  0  0
    5.7864  -14.8879   20.1684 C   0  0  0  0  0  0  0  0  0  0  0  0
    6.1714  -14.1457   19.1144 N   0  0  0  0  0  0  0  0  0  0  0  0
    7.3656  -13.5617   19.3869 C   0  0  0  0  0  0  0  0  0  0  0  0
    8.1655  -12.7076   18.6538 C   0  0  0  0  0  0  0  0  0  0  0  0
    9.3424  -12.2313   19.1699 C   0  0  0  0  0  0  0  0  0  0  0  0
    9.6869  -12.6425   20.4462 C   0  0  0  0  0  0  0  0  0  0  0  0
    8.8978  -13.4935   21.1851 C   0  0  0  0  0  0  0  0  0  0  0  0
    7.7111  -13.9691   20.6537 C   0  0  0  0  0  0  0  0  0  0  0  0
    6.9280  -17.6685   23.6759 C   0  0  0  0  0  0  0  0  0  0  0  0
    6.3372  -17.2059   24.6830 O   0  0  0  0  0  0  0  0  0  0  0  0
    7.4214  -18.1966   28.9477 C   0  0  0  0  0  0  0  0  0  0  0  0
    8.1828  -19.8204   28.9204 S   0  0  0  0  0  0  0  0  0  0  0  0
    8.8648  -20.2092   27.3067 C   0  0  0  0  0  0  0  0  0  0  0  0
    7.9953  -19.8963   26.1529 C   0  0  0  0  0  0  0  0  0  0  0  0
    8.5458  -19.0305   25.0826 C   0  0  2  0  0  0  0  0  0  0  0  0
    7.7089  -18.8603   23.9215 N   0  0  0  0  0  0  0  0  0  0  0  0
    9.9577  -19.3288   24.7072 C   0  0  0  0  0  0  0  0  0  0  0  0
   10.2798  -20.2291   23.8841 O   0  0  0  0  0  0  0  0  0  0  0  0
   11.0273  -18.5897   25.2760 N   0  0  0  0  0  0  0  0  0  0  0  0
   12.4335  -18.9335   25.0211 C   0  0  1  0  0  0  0  0  0  0  0  0
   13.0117  -17.6599   24.3884 C   0  0  0  0  0  0  0  0  0  0  0  0
   12.4228  -17.3324   23.1002 C   0  0  0  0  0  0  0  0  0  0  0  0
   11.4026  -16.4451   22.8772 C   0  0  0  0  0  0  0  0  0  0  0  0
   11.1348  -16.4141   21.5686 N   0  0  0  0  0  0  0  0  0  0  0  0
   11.9694  -17.2654   20.9739 C   0  0  0  0  0  0  0  0  0  0  0  0
   12.7706  -17.8392   21.9107 N   0  0  0  0  0  0  0  0  0  0  0  0
   13.1338  -19.3110   26.2451 C   0  0  0  0  0  0  0  0  0  0  0  0
   12.5752  -19.2190   27.3513 O   0  0  0  0  0  0  0  0  0  0  0  0
   14.4329  -19.7783   26.1973 O   0  0  0  0  0  0  0  0  0  0  0  0
  2  1  1  1
  3  4  1  0
  3  2  1  0
  4  5  2  0
  6  5  1  0
  7  6  1  0
  8  7  2  0
  9  8  1  0
 10 11  1  0
 10  9  2  0
 11 12  2  0
 12  7  1  0
 12  4  1  0
 13  2  1  0
 13 14  2  0
 16 15  1  0
 17 16  1  0
 17 18  1  0
 19 20  1  0
 19 18  1  1
 20 13  1  0
 21 19  1  0
 22 21  2  0
 23 21  1  0
 24 23  1  0
 25 26  1  0
 24 25  1  1
 26 27  2  0
 28 27  1  0
 29 28  1  0
 30 29  2  0
 30 26  1  0
 31 33  1  0
 31 24  1  0
 32 31  2  0
M  END
$$$$
