WMH.pdb
     RDKit          3D

 33 35  0  0  1  0  0  0  0  0999 V2000
    6.4229  -17.8285   23.5901 N   0  0  0  0  0  0  0  0  0  0  0  0
    7.3146  -16.6724   23.3951 C   0  0  1  0  0  0  0  0  0  0  0  0
    7.8508  -16.2661   24.7396 C   0  0  0  0  0  0  0  0  0  0  0  0
    7.0612  -15.2994   25.4957 C   0  0  0  0  0  0  0  0  0  0  0  0
    5.9592  -15.6556   26.2854 C   0  0  0  0  0  0  0  0  0  0  0  0
    5.4182  -14.5507   26.8299 N   0  0  0  0  0  0  0  0  0  0  0  0
    6.1225  -13.4613   26.4318 C   0  0  0  0  0  0  0  0  0  0  0  0
    5.9867  -12.1174   26.7185 C   0  0  0  0  0  0  0  0  0  0  0  0
    6.8564  -11.1962   26.1956 C   0  0  0  0  0  0  0  0  0  0  0  0
    7.8658  -11.6718   25.3761 C   0  0  0  0  0  0  0  0  0  0  0  0
    8.0100  -13.0084   25.0835 C   0  0  0  0  0  0  0  0  0  0  0  0
    7.1254  -13.9303   25.6166 C   0  0  0  0  0  0  0  0  0  0  0  0
    8.3166  -16.9991   22.4048 C   0  0  0  0  0  0  0  0  0  0  0  0
    8.5793  -18.1993   22.1444 O   0  0  0  0  0  0  0  0  0  0  0  0
    7.4141  -12.0409   20.0713 C   0  0  0  0  0  0  0  0  0  0  0  0
    7.6618  -13.8173   20.0720 S   0  0  0  0  0  0  0  0  0  0  0  0
    9.1917  -14.2768   19.2545 C   0  0  0  0  0  0  0  0  0  0  0  0
    9.4929  -15.7239   19.2283 C   0  0  0  0  0  0  0  0  0  0  0  0
    9.8796  -16.3764   20.5021 C   0  0  2  0  0  0  0  0  0  0  0  0
    9.0812  -16.0306   21.6512 N   0  0  0  0  0  0  0  0  0  0  0  0
   11.3383  -16.3265   20.8076 C   0  0  0  0  0  0  0  0  0  0  0  0
   12.2338  -16.3812   19.9206 O   0  0  0  0  0  0  0  0  0  0  0  0
   11.7915  -16.2107   22.1475 N   0  0  0  0  0  0  0  0  0  0  0  0
   12.6729  -17.2145   22.7607 C   0  0  1  0  0  0  0  0  0  0  0  0
   11.9671  -18.5464   22.4696 C   0  0  0  0  0  0  0  0  0  0  0  0
   12.7150  -19.7099   22.9174 C   0  0  0  0  0  0  0  0  0  0  0  0
   13.9027  -19.6966   23.6006 C   0  0  0  0  0  0  0  0  0  0  0  0
   14.2810  -20.9564   23.8348 N   0  0  0  0  0  0  0  0  0  0  0  0
   13.3506  -21.7527   23.3102 C   0  0  0  0  0  0  0  0  0  0  0  0
   12.3774  -20.9934   22.7402 N   0  0  0  0  0  0  0  0  0  0  0  0
   14.0219  -17.1693   22.2045 C   0  0  0  0  0  0  0  0  0  0  0  0
   14.9915  -16.8512   22.9134 O   0  0  0  0  0  0  0  0  0  0  0  0
   14.2468  -17.4797   20.8773 O   0  0  0  0  0  0  0  0  0  0  0  0
  2  1  1  1
  3  4  1  0
  3  2  1  0
  4  5  2  0
  6  5  1  0
  7  6  1  0
  8  7  2  0
  9  8  1  0
 10 11  1  0
 10  9  2  0
 11 12  2  0
 12  7  1  0
 12  4  1  0
 13  2  1  0
 13 14  2  0
 16 15  1  0
 17 16  1  0
 17 18  1  0
 19 20  1  0
 19 18  1  6
 20 13  1  0
 21 19  1  0
 22 21  2  0
 23 21  1  0
 24 23  1  0
 25 26  1  0
 24 25  1  6
 26 27  2  0
 28 27  1  0
 29 28  1  0
 30 29  2  0
 30 26  1  0
 31 33  1  0
 31 24  1  0
 32 31  2  0
M  END
$$$$
