WMH.pdb
     RDKit          3D

 33 35  0  0  1  0  0  0  0  0999 V2000
    6.9404  -18.4840   24.8645 N   0  0  0  0  0  0  0  0  0  0  0  0
    7.3588  -17.1315   24.4579 C   0  0  1  0  0  0  0  0  0  0  0  0
    7.9537  -16.4479   25.6576 C   0  0  0  0  0  0  0  0  0  0  0  0
    7.2102  -15.3173   26.2039 C   0  0  0  0  0  0  0  0  0  0  0  0
    5.9267  -15.4345   26.7552 C   0  0  0  0  0  0  0  0  0  0  0  0
    5.4896  -14.2226   27.1428 N   0  0  0  0  0  0  0  0  0  0  0  0
    6.4397  -13.2928   26.8704 C   0  0  0  0  0  0  0  0  0  0  0  0
    6.4869  -11.9294   27.0841 C   0  0  0  0  0  0  0  0  0  0  0  0
    7.5920  -11.2006   26.7291 C   0  0  0  0  0  0  0  0  0  0  0  0
    8.6462  -11.8885   26.1529 C   0  0  0  0  0  0  0  0  0  0  0  0
    8.6096  -13.2465   25.9349 C   0  0  0  0  0  0  0  0  0  0  0  0
    7.4880  -13.9729   26.2968 C   0  0  0  0  0  0  0  0  0  0  0  0
    8.2285  -17.2226   23.3060 C   0  0  0  0  0  0  0  0  0  0  0  0
    9.0416  -18.1741   23.2023 O   0  0  0  0  0  0  0  0  0  0  0  0
    7.3100  -11.4725   19.4144 C   0  0  0  0  0  0  0  0  0  0  0  0
    7.9606  -13.0650   18.9067 S   0  0  0  0  0  0  0  0  0  0  0  0
    8.2948  -14.1272   20.3139 C   0  0  0  0  0  0  0  0  0  0  0  0
    8.9612  -15.4096   20.0028 C   0  0  0  0  0  0  0  0  0  0  0  0
    9.1842  -16.3645   21.1148 C   0  0  2  0  0  0  0  0  0  0  0  0
    8.2528  -16.2782   22.2114 N   0  0  0  0  0  0  0  0  0  0  0  0
   10.5945  -16.4430   21.5926 C   0  0  0  0  0  0  0  0  0  0  0  0
   11.0970  -15.6195   22.4057 O   0  0  0  0  0  0  0  0  0  0  0  0
   11.4532  -17.4783   21.1400 N   0  0  0  0  0  0  0  0  0  0  0  0
   12.8653  -17.5500   21.5420 C   0  0  1  0  0  0  0  0  0  0  0  0
   13.2318  -19.0250   21.3257 C   0  0  0  0  0  0  0  0  0  0  0  0
   12.5848  -19.9278   22.2638 C   0  0  0  0  0  0  0  0  0  0  0  0
   12.2490  -19.6442   23.5616 C   0  0  0  0  0  0  0  0  0  0  0  0
   11.6745  -20.7211   24.1049 N   0  0  0  0  0  0  0  0  0  0  0  0
   11.6467  -21.6689   23.1690 C   0  0  0  0  0  0  0  0  0  0  0  0
   12.2068  -21.1901   22.0263 N   0  0  0  0  0  0  0  0  0  0  0  0
   13.7033  -16.6499   20.7552 C   0  0  0  0  0  0  0  0  0  0  0  0
   14.9216  -16.5560   20.9807 O   0  0  0  0  0  0  0  0  0  0  0  0
   13.1571  -15.8840   19.7435 O   0  0  0  0  0  0  0  0  0  0  0  0
  2  1  1  1
  3  4  1  0
  3  2  1  0
  4  5  2  0
  6  5  1  0
  7  6  1  0
  8  7  2  0
  9  8  1  0
 10 11  1  0
 10  9  2  0
 11 12  2  0
 12  7  1  0
 12  4  1  0
 13  2  1  0
 13 14  2  0
 16 15  1  0
 17 16  1  0
 17 18  1  0
 19 20  1  0
 19 18  1  6
 20 13  1  0
 21 19  1  0
 22 21  2  0
 23 21  1  0
 24 23  1  0
 25 26  1  0
 24 25  1  6
 26 27  2  0
 28 27  1  0
 29 28  1  0
 30 29  2  0
 30 26  1  0
 31 33  1  0
 31 24  1  0
 32 31  2  0
M  END
$$$$
