WMH.pdb
     RDKit          3D

 33 35  0  0  1  0  0  0  0  0999 V2000
    7.4168  -19.0273   25.3812 N   0  0  0  0  0  0  0  0  0  0  0  0
    7.1921  -17.6097   25.0503 C   0  0  1  0  0  0  0  0  0  0  0  0
    7.7194  -16.7774   26.1859 C   0  0  0  0  0  0  0  0  0  0  0  0
    7.0219  -15.5252   26.4602 C   0  0  0  0  0  0  0  0  0  0  0  0
    5.6255  -15.4196   26.5211 C   0  0  0  0  0  0  0  0  0  0  0  0
    5.2795  -14.1411   26.7567 N   0  0  0  0  0  0  0  0  0  0  0  0
    6.4000  -13.3824   26.8574 C   0  0  0  0  0  0  0  0  0  0  0  0
    6.5861  -12.0366   27.1044 C   0  0  0  0  0  0  0  0  0  0  0  0
    7.8466  -11.5036   27.1778 C   0  0  0  0  0  0  0  0  0  0  0  0
    8.9119  -12.3687   26.9949 C   0  0  0  0  0  0  0  0  0  0  0  0
    8.7380  -13.7109   26.7477 C   0  0  0  0  0  0  0  0  0  0  0  0
    7.4601  -14.2387   26.6750 C   0  0  0  0  0  0  0  0  0  0  0  0
    7.7672  -17.3207   23.7552 C   0  0  0  0  0  0  0  0  0  0  0  0
    8.8019  -17.9226   23.3752 O   0  0  0  0  0  0  0  0  0  0  0  0
    8.3583  -11.2322   19.3178 C   0  0  0  0  0  0  0  0  0  0  0  0
    7.3880  -12.7173   19.0527 S   0  0  0  0  0  0  0  0  0  0  0  0
    8.1413  -14.1516   19.8244 C   0  0  0  0  0  0  0  0  0  0  0  0
    7.5033  -14.6133   21.0755 C   0  0  0  0  0  0  0  0  0  0  0  0
    7.9834  -15.8824   21.6730 C   0  0  2  0  0  0  0  0  0  0  0  0
    7.2405  -16.3593   22.8124 N   0  0  0  0  0  0  0  0  0  0  0  0
    9.4546  -15.9402   21.9090 C   0  0  0  0  0  0  0  0  0  0  0  0
   10.0584  -15.1725   22.7075 O   0  0  0  0  0  0  0  0  0  0  0  0
   10.2582  -16.8899   21.2261 N   0  0  0  0  0  0  0  0  0  0  0  0
   11.3969  -16.4873   20.3882 C   0  0  1  0  0  0  0  0  0  0  0  0
   12.3771  -15.8530   21.3850 C   0  0  0  0  0  0  0  0  0  0  0  0
   13.6842  -15.5709   20.8144 C   0  0  0  0  0  0  0  0  0  0  0  0
   13.9296  -14.9673   19.6090 C   0  0  0  0  0  0  0  0  0  0  0  0
   15.2507  -14.8831   19.4284 N   0  0  0  0  0  0  0  0  0  0  0  0
   15.8313  -15.4231   20.4992 C   0  0  0  0  0  0  0  0  0  0  0  0
   14.8728  -15.8519   21.3630 N   0  0  0  0  0  0  0  0  0  0  0  0
   11.9828  -17.6223   19.6812 C   0  0  0  0  0  0  0  0  0  0  0  0
   12.4612  -17.4838   18.5428 O   0  0  0  0  0  0  0  0  0  0  0  0
   12.0166  -18.8738   20.2649 O   0  0  0  0  0  0  0  0  0  0  0  0
  2  1  1  1
  3  4  1  0
  3  2  1  0
  4  5  2  0
  6  5  1  0
  7  6  1  0
  8  7  2  0
  9  8  1  0
 10 11  1  0
 10  9  2  0
 11 12  2  0
 12  7  1  0
 12  4  1  0
 13  2  1  0
 13 14  2  0
 16 15  1  0
 17 16  1  0
 17 18  1  0
 19 20  1  0
 19 18  1  1
 20 13  1  0
 21 19  1  0
 22 21  2  0
 23 21  1  0
 24 23  1  0
 25 26  1  0
 24 25  1  1
 26 27  2  0
 28 27  1  0
 29 28  1  0
 30 29  2  0
 30 26  1  0
 31 33  1  0
 31 24  1  0
 32 31  2  0
M  END
$$$$
