WMH.pdb
     RDKit          3D

 33 35  0  0  1  0  0  0  0  0999 V2000
    7.1396  -18.5604   24.9486 N   0  0  0  0  0  0  0  0  0  0  0  0
    7.3943  -17.2327   24.3637 C   0  0  1  0  0  0  0  0  0  0  0  0
    8.0144  -16.3675   25.4254 C   0  0  0  0  0  0  0  0  0  0  0  0
    7.2247  -15.2315   25.8895 C   0  0  0  0  0  0  0  0  0  0  0  0
    5.8866  -15.3382   26.2936 C   0  0  0  0  0  0  0  0  0  0  0  0
    5.4199  -14.1233   26.6345 N   0  0  0  0  0  0  0  0  0  0  0  0
    6.4028  -13.2017   26.4733 C   0  0  0  0  0  0  0  0  0  0  0  0
    6.4381  -11.8394   26.6960 C   0  0  0  0  0  0  0  0  0  0  0  0
    7.5824  -11.1200   26.4693 C   0  0  0  0  0  0  0  0  0  0  0  0
    8.6882  -11.8161   26.0118 C   0  0  0  0  0  0  0  0  0  0  0  0
    8.6639  -13.1731   25.7861 C   0  0  0  0  0  0  0  0  0  0  0  0
    7.5024  -13.8900   26.0178 C   0  0  0  0  0  0  0  0  0  0  0  0
    8.1750  -17.3808   23.1554 C   0  0  0  0  0  0  0  0  0  0  0  0
    8.7583  -18.4655   22.9094 O   0  0  0  0  0  0  0  0  0  0  0  0
    7.5776  -11.9723   20.1613 C   0  0  0  0  0  0  0  0  0  0  0  0
    7.4240  -13.5424   21.0147 S   0  0  0  0  0  0  0  0  0  0  0  0
    7.4806  -14.9279   19.8757 C   0  0  0  0  0  0  0  0  0  0  0  0
    8.7667  -15.6543   19.8159 C   0  0  0  0  0  0  0  0  0  0  0  0
    9.1117  -16.5505   20.9454 C   0  0  2  0  0  0  0  0  0  0  0  0
    8.3573  -16.3508   22.1571 N   0  0  0  0  0  0  0  0  0  0  0  0
   10.5728  -16.6721   21.2178 C   0  0  0  0  0  0  0  0  0  0  0  0
   11.4252  -16.9251   20.3228 O   0  0  0  0  0  0  0  0  0  0  0  0
   11.0783  -16.5016   22.5328 N   0  0  0  0  0  0  0  0  0  0  0  0
   12.5204  -16.4920   22.8173 C   0  0  1  0  0  0  0  0  0  0  0  0
   12.6555  -15.5041   23.9846 C   0  0  0  0  0  0  0  0  0  0  0  0
   12.1852  -16.0361   25.2532 C   0  0  0  0  0  0  0  0  0  0  0  0
   11.4917  -17.2038   25.4355 C   0  0  0  0  0  0  0  0  0  0  0  0
   11.2333  -17.3546   26.7376 N   0  0  0  0  0  0  0  0  0  0  0  0
   11.7533  -16.3025   27.3683 C   0  0  0  0  0  0  0  0  0  0  0  0
   12.3443  -15.4803   26.4608 N   0  0  0  0  0  0  0  0  0  0  0  0
   13.0188  -17.8216   23.1565 C   0  0  0  0  0  0  0  0  0  0  0  0
   12.2366  -18.7766   23.2986 O   0  0  0  0  0  0  0  0  0  0  0  0
   14.3716  -18.0440   23.3265 O   0  0  0  0  0  0  0  0  0  0  0  0
  2  1  1  1
  3  4  1  0
  3  2  1  0
  4  5  2  0
  6  5  1  0
  7  6  1  0
  8  7  2  0
  9  8  1  0
 10 11  1  0
 10  9  2  0
 11 12  2  0
 12  7  1  0
 12  4  1  0
 13  2  1  0
 13 14  2  0
 16 15  1  0
 17 16  1  0
 17 18  1  0
 19 20  1  0
 19 18  1  6
 20 13  1  0
 21 19  1  0
 22 21  2  0
 23 21  1  0
 24 23  1  0
 25 26  1  0
 24 25  1  1
 26 27  2  0
 28 27  1  0
 29 28  1  0
 30 29  2  0
 30 26  1  0
 31 33  1  0
 31 24  1  0
 32 31  2  0
M  END
$$$$
