WMH.pdb
     RDKit          3D

 33 35  0  0  1  0  0  0  0  0999 V2000
    9.5725  -17.9141   21.6871 N   0  0  0  0  0  0  0  0  0  0  0  0
    9.3105  -16.6699   22.4309 C   0  0  1  0  0  0  0  0  0  0  0  0
    7.8902  -16.2570   22.1617 C   0  0  0  0  0  0  0  0  0  0  0  0
    7.5079  -14.9121   22.5797 C   0  0  0  0  0  0  0  0  0  0  0  0
    7.6330  -13.7853   21.7553 C   0  0  0  0  0  0  0  0  0  0  0  0
    7.2328  -12.6894   22.4251 N   0  0  0  0  0  0  0  0  0  0  0  0
    6.8410  -13.0435   23.6751 C   0  0  0  0  0  0  0  0  0  0  0  0
    6.3409  -12.3068   24.7305 C   0  0  0  0  0  0  0  0  0  0  0  0
    5.9942  -12.9142   25.9092 C   0  0  0  0  0  0  0  0  0  0  0  0
    6.1673  -14.2854   25.9902 C   0  0  0  0  0  0  0  0  0  0  0  0
    6.6652  -15.0289   24.9452 C   0  0  0  0  0  0  0  0  0  0  0  0
    7.0128  -14.4051   23.7591 C   0  0  0  0  0  0  0  0  0  0  0  0
    9.6426  -16.8637   23.8251 C   0  0  0  0  0  0  0  0  0  0  0  0
    9.4207  -17.9686   24.3794 O   0  0  0  0  0  0  0  0  0  0  0  0
   12.2762  -13.5641   30.0439 C   0  0  0  0  0  0  0  0  0  0  0  0
   10.6740  -13.4532   29.2453 S   0  0  0  0  0  0  0  0  0  0  0  0
   10.2422  -14.9783   28.4040 C   0  0  0  0  0  0  0  0  0  0  0  0
   10.0413  -14.8681   26.9436 C   0  0  0  0  0  0  0  0  0  0  0  0
   10.4019  -16.0347   26.1026 C   0  0  2  0  0  0  0  0  0  0  0  0
   10.2325  -15.8596   24.6820 N   0  0  0  0  0  0  0  0  0  0  0  0
    9.8402  -17.3345   26.5700 C   0  0  0  0  0  0  0  0  0  0  0  0
    8.8571  -17.9020   26.0194 O   0  0  0  0  0  0  0  0  0  0  0  0
   10.4061  -18.0061   27.6848 N   0  0  0  0  0  0  0  0  0  0  0  0
   10.2645  -19.4569   27.8737 C   0  0  1  0  0  0  0  0  0  0  0  0
   10.6794  -20.0438   26.5172 C   0  0  0  0  0  0  0  0  0  0  0  0
   10.6732  -21.4972   26.4869 C   0  0  0  0  0  0  0  0  0  0  0  0
   10.3444  -22.3285   27.5254 C   0  0  0  0  0  0  0  0  0  0  0  0
   10.4585  -23.5957   27.1179 N   0  0  0  0  0  0  0  0  0  0  0  0
   10.8520  -23.5679   25.8454 C   0  0  0  0  0  0  0  0  0  0  0  0
   10.9881  -22.2759   25.4442 N   0  0  0  0  0  0  0  0  0  0  0  0
   11.0966  -19.9488   28.9678 C   0  0  0  0  0  0  0  0  0  0  0  0
   12.0216  -19.2558   29.4241 O   0  0  0  0  0  0  0  0  0  0  0  0
   10.8714  -21.1959   29.5176 O   0  0  0  0  0  0  0  0  0  0  0  0
  2  1  1  6
  3  4  1  0
  3  2  1  0
  4  5  2  0
  6  5  1  0
  7  6  1  0
  8  7  2  0
  9  8  1  0
 10 11  1  0
 10  9  2  0
 11 12  2  0
 12  7  1  0
 12  4  1  0
 13  2  1  0
 13 14  2  0
 16 15  1  0
 17 16  1  0
 17 18  1  0
 19 20  1  0
 19 18  1  1
 20 13  1  0
 21 19  1  0
 22 21  2  0
 23 21  1  0
 24 23  1  0
 25 26  1  0
 24 25  1  6
 26 27  2  0
 28 27  1  0
 29 28  1  0
 30 29  2  0
 30 26  1  0
 31 33  1  0
 31 24  1  0
 32 31  2  0
M  END
$$$$
