WMH.pdb
     RDKit          3D

 33 35  0  0  1  0  0  0  0  0999 V2000
    6.2987  -18.2233   23.9452 N   0  0  0  0  0  0  0  0  0  0  0  0
    6.7890  -16.8373   24.0363 C   0  0  1  0  0  0  0  0  0  0  0  0
    7.0905  -16.5441   25.4797 C   0  0  0  0  0  0  0  0  0  0  0  0
    6.6810  -15.2368   25.9827 C   0  0  0  0  0  0  0  0  0  0  0  0
    5.3539  -14.9156   26.2999 C   0  0  0  0  0  0  0  0  0  0  0  0
    5.2842  -13.6345   26.7049 N   0  0  0  0  0  0  0  0  0  0  0  0
    6.5237  -13.0833   26.6710 C   0  0  0  0  0  0  0  0  0  0  0  0
    6.9843  -11.8234   26.9984 C   0  0  0  0  0  0  0  0  0  0  0  0
    8.3150  -11.5127   26.8932 C   0  0  0  0  0  0  0  0  0  0  0  0
    9.1653  -12.5105   26.4484 C   0  0  0  0  0  0  0  0  0  0  0  0
    8.7171  -13.7689   26.1191 C   0  0  0  0  0  0  0  0  0  0  0  0
    7.3707  -14.0718   26.2285 C   0  0  0  0  0  0  0  0  0  0  0  0
    7.8986  -16.6585   23.1261 C   0  0  0  0  0  0  0  0  0  0  0  0
    8.4510  -17.6563   22.6002 O   0  0  0  0  0  0  0  0  0  0  0  0
    6.2025  -13.3816   19.1056 C   0  0  0  0  0  0  0  0  0  0  0  0
    7.5712  -14.3095   19.8006 S   0  0  0  0  0  0  0  0  0  0  0  0
    8.6880  -13.2548   20.7282 C   0  0  0  0  0  0  0  0  0  0  0  0
    9.8654  -13.9296   21.3145 C   0  0  0  0  0  0  0  0  0  0  0  0
    9.6604  -15.2480   21.9609 C   0  0  2  0  0  0  0  0  0  0  0  0
    8.4594  -15.3810   22.7466 N   0  0  0  0  0  0  0  0  0  0  0  0
   10.8534  -15.7788   22.6810 C   0  0  0  0  0  0  0  0  0  0  0  0
   11.9800  -15.9333   22.1345 O   0  0  0  0  0  0  0  0  0  0  0  0
   10.7677  -16.1409   24.0505 N   0  0  0  0  0  0  0  0  0  0  0  0
   11.9362  -16.6168   24.8046 C   0  0  1  0  0  0  0  0  0  0  0  0
   11.3340  -17.1523   26.1112 C   0  0  0  0  0  0  0  0  0  0  0  0
   12.3155  -17.7528   26.9998 C   0  0  0  0  0  0  0  0  0  0  0  0
   13.6575  -17.8836   26.7556 C   0  0  0  0  0  0  0  0  0  0  0  0
   14.2307  -18.4859   27.8014 N   0  0  0  0  0  0  0  0  0  0  0  0
   13.2702  -18.7317   28.6914 C   0  0  0  0  0  0  0  0  0  0  0  0
   12.0817  -18.2830   28.2068 N   0  0  0  0  0  0  0  0  0  0  0  0
   12.6764  -17.6420   24.0748 C   0  0  0  0  0  0  0  0  0  0  0  0
   13.8875  -17.5020   23.8347 O   0  0  0  0  0  0  0  0  0  0  0  0
   12.0437  -18.7891   23.6365 O   0  0  0  0  0  0  0  0  0  0  0  0
  2  1  1  1
  3  4  1  0
  3  2  1  0
  4  5  2  0
  6  5  1  0
  7  6  1  0
  8  7  2  0
  9  8  1  0
 10 11  1  0
 10  9  2  0
 11 12  2  0
 12  7  1  0
 12  4  1  0
 13  2  1  0
 13 14  2  0
 16 15  1  0
 17 16  1  0
 17 18  1  0
 19 20  1  0
 19 18  1  1
 20 13  1  0
 21 19  1  0
 22 21  2  0
 23 21  1  0
 24 23  1  0
 25 26  1  0
 24 25  1  1
 26 27  2  0
 28 27  1  0
 29 28  1  0
 30 29  2  0
 30 26  1  0
 31 33  1  0
 31 24  1  0
 32 31  2  0
M  END
$$$$
