WMH.pdb
     RDKit          3D

 33 35  0  0  1  0  0  0  0  0999 V2000
    6.5187  -18.2310   25.7269 N   0  0  0  0  0  0  0  0  0  0  0  0
    6.9786  -16.9165   25.2470 C   0  0  1  0  0  0  0  0  0  0  0  0
    8.2083  -16.5409   26.0261 C   0  0  0  0  0  0  0  0  0  0  0  0
    8.1002  -15.3785   26.9018 C   0  0  0  0  0  0  0  0  0  0  0  0
    8.6444  -15.3345   28.1928 C   0  0  0  0  0  0  0  0  0  0  0  0
    8.3557  -14.1513   28.7642 N   0  0  0  0  0  0  0  0  0  0  0  0
    7.6344  -13.3965   27.8972 C   0  0  0  0  0  0  0  0  0  0  0  0
    7.1143  -12.1210   27.9935 C   0  0  0  0  0  0  0  0  0  0  0  0
    6.4245  -11.5630   26.9489 C   0  0  0  0  0  0  0  0  0  0  0  0
    6.2760  -12.3301   25.8060 C   0  0  0  0  0  0  0  0  0  0  0  0
    6.7896  -13.6020   25.6995 C   0  0  0  0  0  0  0  0  0  0  0  0
    7.4842  -14.1562   26.7612 C   0  0  0  0  0  0  0  0  0  0  0  0
    7.1478  -16.9605   23.8114 C   0  0  0  0  0  0  0  0  0  0  0  0
    7.5662  -18.0067   23.2566 O   0  0  0  0  0  0  0  0  0  0  0  0
    8.1644  -12.5982   17.1636 C   0  0  0  0  0  0  0  0  0  0  0  0
    7.3115  -12.7520   18.7339 S   0  0  0  0  0  0  0  0  0  0  0  0
    8.0163  -14.0521   19.7502 C   0  0  0  0  0  0  0  0  0  0  0  0
    7.3054  -14.3304   21.0162 C   0  0  0  0  0  0  0  0  0  0  0  0
    7.7143  -15.5239   21.7949 C   0  0  2  0  0  0  0  0  0  0  0  0
    6.8689  -15.8634   22.9118 N   0  0  0  0  0  0  0  0  0  0  0  0
    9.1586  -15.5596   22.1641 C   0  0  0  0  0  0  0  0  0  0  0  0
    9.5807  -15.3331   23.3312 O   0  0  0  0  0  0  0  0  0  0  0  0
   10.1454  -15.8601   21.1894 N   0  0  0  0  0  0  0  0  0  0  0  0
   11.4326  -16.4726   21.5480 C   0  0  1  0  0  0  0  0  0  0  0  0
   11.0342  -17.8036   22.2008 C   0  0  0  0  0  0  0  0  0  0  0  0
   12.1702  -18.6053   22.6253 C   0  0  0  0  0  0  0  0  0  0  0  0
   13.4922  -18.2644   22.5079 C   0  0  0  0  0  0  0  0  0  0  0  0
   14.2398  -19.2532   23.0062 N   0  0  0  0  0  0  0  0  0  0  0  0
   13.4073  -20.2026   23.4314 C   0  0  0  0  0  0  0  0  0  0  0  0
   12.1251  -19.8133   23.2011 N   0  0  0  0  0  0  0  0  0  0  0  0
   12.2904  -16.6624   20.3820 C   0  0  0  0  0  0  0  0  0  0  0  0
   13.5030  -16.8986   20.5166 O   0  0  0  0  0  0  0  0  0  0  0  0
   11.7701  -16.5831   19.1048 O   0  0  0  0  0  0  0  0  0  0  0  0
  2  1  1  1
  3  4  1  0
  3  2  1  0
  4  5  2  0
  6  5  1  0
  7  6  1  0
  8  7  2  0
  9  8  1  0
 10 11  1  0
 10  9  2  0
 11 12  2  0
 12  7  1  0
 12  4  1  0
 13  2  1  0
 13 14  2  0
 16 15  1  0
 17 16  1  0
 17 18  1  0
 19 20  1  0
 19 18  1  1
 20 13  1  0
 21 19  1  0
 22 21  2  0
 23 21  1  0
 24 23  1  0
 25 26  1  0
 24 25  1  6
 26 27  2  0
 28 27  1  0
 29 28  1  0
 30 29  2  0
 30 26  1  0
 31 33  1  0
 31 24  1  0
 32 31  2  0
M  END
$$$$
