WMH.pdb
     RDKit          3D

 33 35  0  0  1  0  0  0  0  0999 V2000
    9.4785  -17.5878   21.6548 N   0  0  0  0  0  0  0  0  0  0  0  0
    9.0564  -16.5763   22.6389 C   0  0  1  0  0  0  0  0  0  0  0  0
    7.5778  -16.7322   22.8617 C   0  0  0  0  0  0  0  0  0  0  0  0
    6.9771  -15.8888   23.8900 C   0  0  0  0  0  0  0  0  0  0  0  0
    6.3606  -16.3996   25.0407 C   0  0  0  0  0  0  0  0  0  0  0  0
    5.8749  -15.3861   25.7801 N   0  0  0  0  0  0  0  0  0  0  0  0
    6.1460  -14.2082   25.1633 C   0  0  0  0  0  0  0  0  0  0  0  0
    5.8790  -12.8991   25.5122 C   0  0  0  0  0  0  0  0  0  0  0  0
    6.2826  -11.8625   24.7115 C   0  0  0  0  0  0  0  0  0  0  0  0
    6.9628  -12.1867   23.5501 C   0  0  0  0  0  0  0  0  0  0  0  0
    7.2336  -13.4874   23.1927 C   0  0  0  0  0  0  0  0  0  0  0  0
    6.8208  -14.5269   24.0085 C   0  0  0  0  0  0  0  0  0  0  0  0
    9.8741  -16.6896   23.8264 C   0  0  0  0  0  0  0  0  0  0  0  0
   10.3368  -17.8054   24.1704 O   0  0  0  0  0  0  0  0  0  0  0  0
   10.1567  -12.3398   29.1075 C   0  0  0  0  0  0  0  0  0  0  0  0
   10.8260  -13.9563   29.5029 S   0  0  0  0  0  0  0  0  0  0  0  0
   11.6953  -14.6766   28.1081 C   0  0  0  0  0  0  0  0  0  0  0  0
   11.0201  -14.5495   26.7992 C   0  0  0  0  0  0  0  0  0  0  0  0
   10.8946  -15.7659   25.9610 C   0  0  2  0  0  0  0  0  0  0  0  0
   10.2256  -15.5897   24.6965 N   0  0  0  0  0  0  0  0  0  0  0  0
   10.3980  -16.9709   26.6857 C   0  0  0  0  0  0  0  0  0  0  0  0
    9.7141  -16.9093   27.7440 O   0  0  0  0  0  0  0  0  0  0  0  0
   10.6816  -18.2735   26.1991 N   0  0  0  0  0  0  0  0  0  0  0  0
   10.2018  -19.4821   26.8844 C   0  0  1  0  0  0  0  0  0  0  0  0
    8.9009  -19.8279   26.1464 C   0  0  0  0  0  0  0  0  0  0  0  0
    8.3111  -21.0879   26.5685 C   0  0  0  0  0  0  0  0  0  0  0  0
    8.0687  -21.4774   27.8597 C   0  0  0  0  0  0  0  0  0  0  0  0
    7.5221  -22.6964   27.8484 N   0  0  0  0  0  0  0  0  0  0  0  0
    7.4199  -23.0721   26.5742 C   0  0  0  0  0  0  0  0  0  0  0  0
    7.9046  -22.0857   25.7737 N   0  0  0  0  0  0  0  0  0  0  0  0
   11.1773  -20.5667   26.8254 C   0  0  0  0  0  0  0  0  0  0  0  0
   12.2109  -20.4559   26.1448 O   0  0  0  0  0  0  0  0  0  0  0  0
   10.9696  -21.7390   27.5261 O   0  0  0  0  0  0  0  0  0  0  0  0
  2  1  1  6
  3  4  1  0
  3  2  1  0
  4  5  2  0
  6  5  1  0
  7  6  1  0
  8  7  2  0
  9  8  1  0
 10 11  1  0
 10  9  2  0
 11 12  2  0
 12  7  1  0
 12  4  1  0
 13  2  1  0
 13 14  2  0
 16 15  1  0
 17 16  1  0
 17 18  1  0
 19 20  1  0
 19 18  1  1
 20 13  1  0
 21 19  1  0
 22 21  2  0
 23 21  1  0
 24 23  1  0
 25 26  1  0
 24 25  1  6
 26 27  2  0
 28 27  1  0
 29 28  1  0
 30 29  2  0
 30 26  1  0
 31 33  1  0
 31 24  1  0
 32 31  2  0
M  END
$$$$
