WMH.pdb
     RDKit          3D

 33 35  0  0  1  0  0  0  0  0999 V2000
    6.4656  -17.9544   24.5599 N   0  0  0  0  0  0  0  0  0  0  0  0
    7.0795  -16.7147   24.0538 C   0  0  1  0  0  0  0  0  0  0  0  0
    7.7271  -16.0093   25.2128 C   0  0  0  0  0  0  0  0  0  0  0  0
    6.9394  -14.9734   25.8731 C   0  0  0  0  0  0  0  0  0  0  0  0
    5.7416  -15.2337   26.5531 C   0  0  0  0  0  0  0  0  0  0  0  0
    5.2316  -14.0821   27.0260 N   0  0  0  0  0  0  0  0  0  0  0  0
    6.0497  -13.0541   26.6862 C   0  0  0  0  0  0  0  0  0  0  0  0
    5.9849  -11.6984   26.9401 C   0  0  0  0  0  0  0  0  0  0  0  0
    6.9672  -10.8526   26.4950 C   0  0  0  0  0  0  0  0  0  0  0  0
    8.0152  -11.4158   25.7871 C   0  0  0  0  0  0  0  0  0  0  0  0
    8.0895  -12.7649   25.5280 C   0  0  0  0  0  0  0  0  0  0  0  0
    7.0914  -13.6102   25.9819 C   0  0  0  0  0  0  0  0  0  0  0  0
    7.9623  -17.0296   22.9524 C   0  0  0  0  0  0  0  0  0  0  0  0
    8.7822  -17.9758   23.0509 O   0  0  0  0  0  0  0  0  0  0  0  0
    8.2949  -12.0975   20.1293 C   0  0  0  0  0  0  0  0  0  0  0  0
    7.7019  -13.1576   18.8095 S   0  0  0  0  0  0  0  0  0  0  0  0
    7.7066  -14.8863   19.2908 C   0  0  0  0  0  0  0  0  0  0  0  0
    9.0315  -15.4557   19.6165 C   0  0  0  0  0  0  0  0  0  0  0  0
    9.1417  -16.3151   20.8195 C   0  0  2  0  0  0  0  0  0  0  0  0
    7.9929  -16.3255   21.6899 N   0  0  0  0  0  0  0  0  0  0  0  0
   10.4123  -16.1541   21.5833 C   0  0  0  0  0  0  0  0  0  0  0  0
   10.4515  -15.9666   22.8303 O   0  0  0  0  0  0  0  0  0  0  0  0
   11.6653  -16.2085   20.9193 N   0  0  0  0  0  0  0  0  0  0  0  0
   12.7752  -17.0334   21.4175 C   0  0  1  0  0  0  0  0  0  0  0  0
   12.2089  -18.4601   21.3936 C   0  0  0  0  0  0  0  0  0  0  0  0
   12.0463  -19.0426   22.7157 C   0  0  0  0  0  0  0  0  0  0  0  0
   12.3283  -18.4335   23.9103 C   0  0  0  0  0  0  0  0  0  0  0  0
   12.0531  -19.2827   24.9044 N   0  0  0  0  0  0  0  0  0  0  0  0
   11.6051  -20.4084   24.3501 C   0  0  0  0  0  0  0  0  0  0  0  0
   11.5965  -20.2719   22.9973 N   0  0  0  0  0  0  0  0  0  0  0  0
   13.9703  -16.8981   20.5899 C   0  0  0  0  0  0  0  0  0  0  0  0
   13.9110  -17.0491   19.3580 O   0  0  0  0  0  0  0  0  0  0  0  0
   15.1920  -16.5992   21.1613 O   0  0  0  0  0  0  0  0  0  0  0  0
  2  1  1  1
  3  4  1  0
  3  2  1  0
  4  5  2  0
  6  5  1  0
  7  6  1  0
  8  7  2  0
  9  8  1  0
 10 11  1  0
 10  9  2  0
 11 12  2  0
 12  7  1  0
 12  4  1  0
 13  2  1  0
 13 14  2  0
 16 15  1  0
 17 16  1  0
 17 18  1  0
 19 20  1  0
 19 18  1  6
 20 13  1  0
 21 19  1  0
 22 21  2  0
 23 21  1  0
 24 23  1  0
 25 26  1  0
 24 25  1  6
 26 27  2  0
 28 27  1  0
 29 28  1  0
 30 29  2  0
 30 26  1  0
 31 33  1  0
 31 24  1  0
 32 31  2  0
M  END
$$$$
