WMH.pdb
     RDKit          3D

 33 35  0  0  1  0  0  0  0  0999 V2000
    7.2175  -18.5672   22.3926 N   0  0  0  0  0  0  0  0  0  0  0  0
    7.8199  -17.3962   21.7327 C   0  0  1  0  0  0  0  0  0  0  0  0
    6.7723  -16.7641   20.8591 C   0  0  0  0  0  0  0  0  0  0  0  0
    7.1769  -15.5873   20.0969 C   0  0  0  0  0  0  0  0  0  0  0  0
    7.5583  -15.6373   18.7489 C   0  0  0  0  0  0  0  0  0  0  0  0
    7.9067  -14.4064   18.3325 N   0  0  0  0  0  0  0  0  0  0  0  0
    7.7709  -13.5286   19.3584 C   0  0  0  0  0  0  0  0  0  0  0  0
    7.9819  -12.1666   19.4437 C   0  0  0  0  0  0  0  0  0  0  0  0
    7.7493  -11.4917   20.6137 C   0  0  0  0  0  0  0  0  0  0  0  0
    7.2978  -12.2318   21.6930 C   0  0  0  0  0  0  0  0  0  0  0  0
    7.0847  -13.5890   21.6193 C   0  0  0  0  0  0  0  0  0  0  0  0
    7.3235  -14.2610   20.4326 C   0  0  0  0  0  0  0  0  0  0  0  0
    8.3972  -16.5246   22.7320 C   0  0  0  0  0  0  0  0  0  0  0  0
    9.4142  -15.8395   22.4608 O   0  0  0  0  0  0  0  0  0  0  0  0
    5.6780  -11.9011   26.0688 C   0  0  0  0  0  0  0  0  0  0  0  0
    7.4563  -12.0393   26.2574 S   0  0  0  0  0  0  0  0  0  0  0  0
    8.1280  -13.3816   25.2740 C   0  0  0  0  0  0  0  0  0  0  0  0
    8.1115  -14.7139   25.9145 C   0  0  0  0  0  0  0  0  0  0  0  0
    8.6916  -15.8531   25.1638 C   0  0  2  0  0  0  0  0  0  0  0  0
    7.8921  -16.3597   24.0767 N   0  0  0  0  0  0  0  0  0  0  0  0
    9.2235  -16.9535   26.0181 C   0  0  0  0  0  0  0  0  0  0  0  0
    8.4877  -17.8077   26.5843 O   0  0  0  0  0  0  0  0  0  0  0  0
   10.6196  -17.0891   26.2340 N   0  0  0  0  0  0  0  0  0  0  0  0
   11.1829  -18.2044   27.0081 C   0  0  1  0  0  0  0  0  0  0  0  0
   12.5525  -18.4450   26.3576 C   0  0  0  0  0  0  0  0  0  0  0  0
   13.2974  -19.5385   26.9600 C   0  0  0  0  0  0  0  0  0  0  0  0
   12.8303  -20.4143   27.9047 C   0  0  0  0  0  0  0  0  0  0  0  0
   13.8033  -21.2759   28.2144 N   0  0  0  0  0  0  0  0  0  0  0  0
   14.8666  -20.9523   27.4798 C   0  0  0  0  0  0  0  0  0  0  0  0
   14.5658  -19.8796   26.7003 N   0  0  0  0  0  0  0  0  0  0  0  0
   11.2929  -17.8830   28.4280 C   0  0  0  0  0  0  0  0  0  0  0  0
   11.6723  -18.7381   29.2458 O   0  0  0  0  0  0  0  0  0  0  0  0
   10.9766  -16.6202   28.8903 O   0  0  0  0  0  0  0  0  0  0  0  0
  2  1  1  1
  3  4  1  0
  3  2  1  0
  4  5  2  0
  6  5  1  0
  7  6  1  0
  8  7  2  0
  9  8  1  0
 10 11  1  0
 10  9  2  0
 11 12  2  0
 12  7  1  0
 12  4  1  0
 13  2  1  0
 13 14  2  0
 16 15  1  0
 17 16  1  0
 17 18  1  0
 19 20  1  0
 19 18  1  1
 20 13  1  0
 21 19  1  0
 22 21  2  0
 23 21  1  0
 24 23  1  0
 25 26  1  0
 24 25  1  6
 26 27  2  0
 28 27  1  0
 29 28  1  0
 30 29  2  0
 30 26  1  0
 31 33  1  0
 31 24  1  0
 32 31  2  0
M  END
$$$$
