WMH.pdb
     RDKit          3D

 33 35  0  0  1  0  0  0  0  0999 V2000
   11.2279  -16.8272   21.5059 N   0  0  0  0  0  0  0  0  0  0  0  0
    9.9770  -16.2045   21.9720 C   0  0  1  0  0  0  0  0  0  0  0  0
    8.8452  -16.7683   21.1587 C   0  0  0  0  0  0  0  0  0  0  0  0
    8.2211  -15.8704   20.1924 C   0  0  0  0  0  0  0  0  0  0  0  0
    7.6696  -16.3077   18.9801 C   0  0  0  0  0  0  0  0  0  0  0  0
    7.2007  -15.2519   18.2907 N   0  0  0  0  0  0  0  0  0  0  0  0
    7.4186  -14.1168   19.0019 C   0  0  0  0  0  0  0  0  0  0  0  0
    7.1168  -12.7938   18.7465 C   0  0  0  0  0  0  0  0  0  0  0  0
    7.4313  -11.8142   19.6520 C   0  0  0  0  0  0  0  0  0  0  0  0
    8.0585  -12.2098   20.8210 C   0  0  0  0  0  0  0  0  0  0  0  0
    8.3643  -13.5249   21.0854 C   0  0  0  0  0  0  0  0  0  0  0  0
    8.0427  -14.5064   20.1634 C   0  0  0  0  0  0  0  0  0  0  0  0
    9.8557  -16.3803   23.4024 C   0  0  0  0  0  0  0  0  0  0  0  0
   10.3812  -17.3736   23.9633 O   0  0  0  0  0  0  0  0  0  0  0  0
    7.1597  -11.2167   26.3666 C   0  0  0  0  0  0  0  0  0  0  0  0
    7.6751  -12.9147   26.6278 S   0  0  0  0  0  0  0  0  0  0  0  0
    6.8093  -14.0485   25.5391 C   0  0  0  0  0  0  0  0  0  0  0  0
    7.1316  -15.4799   25.7198 C   0  0  0  0  0  0  0  0  0  0  0  0
    8.5377  -15.9060   25.5210 C   0  0  2  0  0  0  0  0  0  0  0  0
    9.1538  -15.4800   24.2896 N   0  0  0  0  0  0  0  0  0  0  0  0
    8.7943  -17.3488   25.7970 C   0  0  0  0  0  0  0  0  0  0  0  0
    8.9585  -18.2089   24.8887 O   0  0  0  0  0  0  0  0  0  0  0  0
    8.8677  -17.8264   27.1313 N   0  0  0  0  0  0  0  0  0  0  0  0
    9.9639  -18.6920   27.5892 C   0  0  1  0  0  0  0  0  0  0  0  0
   11.0224  -18.5548   26.4858 C   0  0  0  0  0  0  0  0  0  0  0  0
   10.9795  -19.6258   25.5035 C   0  0  0  0  0  0  0  0  0  0  0  0
   10.1233  -20.6956   25.5074 C   0  0  0  0  0  0  0  0  0  0  0  0
   10.3879  -21.4651   24.4477 N   0  0  0  0  0  0  0  0  0  0  0  0
   11.3924  -20.8935   23.7849 C   0  0  0  0  0  0  0  0  0  0  0  0
   11.7667  -19.7556   24.4283 N   0  0  0  0  0  0  0  0  0  0  0  0
   10.4708  -18.2855   28.8966 C   0  0  0  0  0  0  0  0  0  0  0  0
   11.2484  -19.0171   29.5324 O   0  0  0  0  0  0  0  0  0  0  0  0
   10.0953  -17.0782   29.4529 O   0  0  0  0  0  0  0  0  0  0  0  0
  2  1  1  6
  3  4  1  0
  3  2  1  0
  4  5  2  0
  6  5  1  0
  7  6  1  0
  8  7  2  0
  9  8  1  0
 10 11  1  0
 10  9  2  0
 11 12  2  0
 12  7  1  0
 12  4  1  0
 13  2  1  0
 13 14  2  0
 16 15  1  0
 17 16  1  0
 17 18  1  0
 19 20  1  0
 19 18  1  6
 20 13  1  0
 21 19  1  0
 22 21  2  0
 23 21  1  0
 24 23  1  0
 25 26  1  0
 24 25  1  6
 26 27  2  0
 28 27  1  0
 29 28  1  0
 30 29  2  0
 30 26  1  0
 31 33  1  0
 31 24  1  0
 32 31  2  0
M  END
$$$$
