WMH.pdb
     RDKit          3D

 33 35  0  0  1  0  0  0  0  0999 V2000
    6.1849  -18.1462   24.3384 N   0  0  0  0  0  0  0  0  0  0  0  0
    6.9811  -16.9069   24.3294 C   0  0  1  0  0  0  0  0  0  0  0  0
    7.3865  -16.6038   25.7450 C   0  0  0  0  0  0  0  0  0  0  0  0
    6.9113  -15.3441   26.3078 C   0  0  0  0  0  0  0  0  0  0  0  0
    5.6227  -15.1733   26.8326 C   0  0  0  0  0  0  0  0  0  0  0  0
    5.4681  -13.9020   27.2446 N   0  0  0  0  0  0  0  0  0  0  0  0
    6.6133  -13.2114   27.0142 C   0  0  0  0  0  0  0  0  0  0  0  0
    6.9688  -11.9009   27.2650 C   0  0  0  0  0  0  0  0  0  0  0  0
    8.2203  -11.4398   26.9495 C   0  0  0  0  0  0  0  0  0  0  0  0
    9.1006  -12.3401   26.3741 C   0  0  0  0  0  0  0  0  0  0  0  0
    8.7568  -13.6477   26.1194 C   0  0  0  0  0  0  0  0  0  0  0  0
    7.4896  -14.1027   26.4416 C   0  0  0  0  0  0  0  0  0  0  0  0
    8.0731  -17.0432   23.3910 C   0  0  0  0  0  0  0  0  0  0  0  0
    8.3985  -18.1776   22.9613 O   0  0  0  0  0  0  0  0  0  0  0  0
    6.6634  -12.2879   18.9950 C   0  0  0  0  0  0  0  0  0  0  0  0
    8.3212  -12.8694   19.3565 S   0  0  0  0  0  0  0  0  0  0  0  0
    8.3009  -14.3681   20.3432 C   0  0  0  0  0  0  0  0  0  0  0  0
    9.6229  -14.8609   20.7846 C   0  0  0  0  0  0  0  0  0  0  0  0
    9.6608  -16.0420   21.6800 C   0  0  2  0  0  0  0  0  0  0  0  0
    8.8633  -15.9470   22.8769 N   0  0  0  0  0  0  0  0  0  0  0  0
   11.0293  -16.5597   21.9674 C   0  0  0  0  0  0  0  0  0  0  0  0
   11.8093  -16.0276   22.8041 O   0  0  0  0  0  0  0  0  0  0  0  0
   11.5235  -17.7064   21.2929 N   0  0  0  0  0  0  0  0  0  0  0  0
   12.8751  -17.7484   20.7167 C   0  0  1  0  0  0  0  0  0  0  0  0
   12.6542  -17.3863   19.2413 C   0  0  0  0  0  0  0  0  0  0  0  0
   13.8507  -17.5170   18.4258 C   0  0  0  0  0  0  0  0  0  0  0  0
   15.1003  -17.8624   18.8692 C   0  0  0  0  0  0  0  0  0  0  0  0
   15.9395  -17.8764   17.8297 N   0  0  0  0  0  0  0  0  0  0  0  0
   15.2349  -17.5463   16.7482 C   0  0  0  0  0  0  0  0  0  0  0  0
   13.9421  -17.3217   17.1044 N   0  0  0  0  0  0  0  0  0  0  0  0
   13.7826  -16.8203   21.3849 C   0  0  0  0  0  0  0  0  0  0  0  0
   13.5209  -15.6071   21.4441 O   0  0  0  0  0  0  0  0  0  0  0  0
   14.9515  -17.2737   21.9649 O   0  0  0  0  0  0  0  0  0  0  0  0
  2  1  1  1
  3  4  1  0
  3  2  1  0
  4  5  2  0
  6  5  1  0
  7  6  1  0
  8  7  2  0
  9  8  1  0
 10 11  1  0
 10  9  2  0
 11 12  2  0
 12  7  1  0
 12  4  1  0
 13  2  1  0
 13 14  2  0
 16 15  1  0
 17 16  1  0
 17 18  1  0
 19 20  1  0
 19 18  1  1
 20 13  1  0
 21 19  1  0
 22 21  2  0
 23 21  1  0
 24 23  1  0
 25 26  1  0
 24 25  1  6
 26 27  2  0
 28 27  1  0
 29 28  1  0
 30 29  2  0
 30 26  1  0
 31 33  1  0
 31 24  1  0
 32 31  2  0
M  END
$$$$
