EGT.pdb
     RDKit          3D

 21 20  0  0  1  0  0  0  0  0999 V2000
   24.5778  -18.5900  -16.4325 N   0  0  0  0  0  0  0  0  0  0  0  0
   25.6090  -19.3928  -17.1483 C   0  0  1  0  0  0  0  0  0  0  0  0
   26.2276  -18.4908  -18.1620 C   0  0  0  0  0  0  0  0  0  0  0  0
   25.2915  -18.1481  -19.2720 C   0  0  0  0  0  0  0  0  0  0  0  0
   24.5483  -16.9151  -18.9669 C   0  0  0  0  0  0  0  0  0  0  0  0
   25.1473  -15.8795  -18.6262 O   0  0  0  0  0  0  0  0  0  0  0  0
   26.6246  -19.8224  -16.1585 C   0  0  0  0  0  0  0  0  0  0  0  0
   27.5958  -20.5697  -16.4609 O   0  0  0  0  0  0  0  0  0  0  0  0
   23.1540  -16.8467  -19.0432 O   0  0  0  0  0  0  0  0  0  0  0  0
   26.4747  -19.3549  -14.8066 N   0  0  0  0  0  0  0  0  0  0  0  0
   27.3577  -19.9206  -13.8273 C   0  0  0  0  0  0  0  0  0  0  0  0
   26.6168  -20.8039  -12.8606 C   0  0  0  0  0  0  0  0  0  0  0  0
   26.8163  -22.0559  -12.8795 O   0  0  0  0  0  0  0  0  0  0  0  0
   26.4481  -20.7935   -9.1815 C   0  0  0  0  0  0  0  0  0  0  0  0
   25.0433  -20.5202   -9.6462 C   0  0  1  0  0  0  0  0  0  0  0  0
   24.7428  -19.1751   -9.5350 O   0  0  0  0  0  0  0  0  0  0  0  0
   24.9059  -20.9888  -11.1011 C   0  0  2  0  0  0  0  0  0  0  0  0
   25.7183  -20.1870  -11.9618 N   0  0  0  0  0  0  0  0  0  0  0  0
   23.4636  -20.8635  -11.4650 C   0  0  0  0  0  0  0  0  0  0  0  0
   23.0928  -20.0812  -12.3520 O   0  0  0  0  0  0  0  0  0  0  0  0
   22.5441  -21.6342  -10.7974 O   0  0  0  0  0  0  0  0  0  0  0  0
  2  1  1  1
  3  2  1  0
  4  5  1  0
  4  3  1  0
  5  6  2  0
  7 10  1  0
  7  2  1  0
  8  7  2  0
  9  5  1  0
 11 12  1  0
 11 10  1  0
 12 18  1  0
 13 12  2  0
 15 16  1  0
 15 14  1  6
 17 15  1  0
 17 18  1  6
 19 17  1  0
 19 21  1  0
 20 19  2  0
M  END
$$$$
