EGT.pdb
     RDKit          3D

 21 20  0  0  1  0  0  0  0  0999 V2000
   16.7192  -13.6233  -17.0553 N   0  0  0  0  0  0  0  0  0  0  0  0
   18.1734  -13.8945  -17.2333 C   0  0  1  0  0  0  0  0  0  0  0  0
   18.3218  -14.5990  -18.5393 C   0  0  0  0  0  0  0  0  0  0  0  0
   17.7759  -15.9871  -18.5075 C   0  0  0  0  0  0  0  0  0  0  0  0
   17.8645  -16.6140  -19.8359 C   0  0  0  0  0  0  0  0  0  0  0  0
   17.5089  -17.7936  -20.0073 O   0  0  0  0  0  0  0  0  0  0  0  0
   18.8816  -12.5934  -17.2708 C   0  0  0  0  0  0  0  0  0  0  0  0
   20.1404  -12.5045  -17.2951 O   0  0  0  0  0  0  0  0  0  0  0  0
   18.3451  -15.9264  -20.9544 O   0  0  0  0  0  0  0  0  0  0  0  0
   18.0792  -11.3998  -17.2795 N   0  0  0  0  0  0  0  0  0  0  0  0
   18.7786  -10.1537  -17.4090 C   0  0  0  0  0  0  0  0  0  0  0  0
   19.2499   -9.6439  -16.0743 C   0  0  0  0  0  0  0  0  0  0  0  0
   18.4558   -9.6541  -15.0859 O   0  0  0  0  0  0  0  0  0  0  0  0
   22.4237  -10.7047  -14.2997 C   0  0  0  0  0  0  0  0  0  0  0  0
   22.4936   -9.2126  -14.4810 C   0  0  1  0  0  0  0  0  0  0  0  0
   23.3349   -8.8846  -15.5281 O   0  0  0  0  0  0  0  0  0  0  0  0
   21.0767   -8.6806  -14.7356 C   0  0  2  0  0  0  0  0  0  0  0  0
   20.5774   -9.1695  -15.9827 N   0  0  0  0  0  0  0  0  0  0  0  0
   21.1663   -7.1906  -14.7476 C   0  0  0  0  0  0  0  0  0  0  0  0
   20.9761   -6.5463  -15.7892 O   0  0  0  0  0  0  0  0  0  0  0  0
   21.4652   -6.5368  -13.5778 O   0  0  0  0  0  0  0  0  0  0  0  0
  2  1  1  6
  3  2  1  0
  4  5  1  0
  4  3  1  0
  5  6  2  0
  7 10  1  0
  7  2  1  0
  8  7  2  0
  9  5  1  0
 11 12  1  0
 11 10  1  0
 12 18  1  0
 13 12  2  0
 15 16  1  0
 15 14  1  6
 17 15  1  0
 17 18  1  6
 19 17  1  0
 19 21  1  0
 20 19  2  0
M  END
$$$$
