EGT.pdb
     RDKit          3D

 21 20  0  0  1  0  0  0  0  0999 V2000
   18.2160  -12.5360  -16.3328 N   0  0  0  0  0  0  0  0  0  0  0  0
   18.6628  -12.2238  -17.7196 C   0  0  1  0  0  0  0  0  0  0  0  0
   17.4933  -12.4671  -18.6123 C   0  0  0  0  0  0  0  0  0  0  0  0
   16.8683  -13.8030  -18.3874 C   0  0  0  0  0  0  0  0  0  0  0  0
   15.7179  -13.9993  -19.2838 C   0  0  0  0  0  0  0  0  0  0  0  0
   15.3269  -13.0814  -20.0268 O   0  0  0  0  0  0  0  0  0  0  0  0
   19.0524  -10.7949  -17.7653 C   0  0  0  0  0  0  0  0  0  0  0  0
   19.5266  -10.2518  -18.8014 O   0  0  0  0  0  0  0  0  0  0  0  0
   15.0175  -15.2078  -19.3446 O   0  0  0  0  0  0  0  0  0  0  0  0
   18.8725  -10.0182  -16.5682 N   0  0  0  0  0  0  0  0  0  0  0  0
   19.3105   -8.6526  -16.6139 C   0  0  0  0  0  0  0  0  0  0  0  0
   19.8534   -8.2022  -15.2850 C   0  0  0  0  0  0  0  0  0  0  0  0
   19.5983   -8.8797  -14.2440 O   0  0  0  0  0  0  0  0  0  0  0  0
   21.7955   -9.1043  -13.5902 C   0  0  0  0  0  0  0  0  0  0  0  0
   22.4871   -7.7997  -13.8796 C   0  0  1  0  0  0  0  0  0  0  0  0
   23.3096   -7.9151  -14.9851 O   0  0  0  0  0  0  0  0  0  0  0  0
   21.4224   -6.7175  -14.1055 C   0  0  2  0  0  0  0  0  0  0  0  0
   20.6352   -7.0259  -15.2583 N   0  0  0  0  0  0  0  0  0  0  0  0
   22.1466   -5.4251  -14.2881 C   0  0  0  0  0  0  0  0  0  0  0  0
   22.2378   -4.8945  -15.4045 O   0  0  0  0  0  0  0  0  0  0  0  0
   22.7161   -4.8258  -13.1918 O   0  0  0  0  0  0  0  0  0  0  0  0
  2  1  1  1
  3  2  1  0
  4  5  1  0
  4  3  1  0
  5  6  2  0
  7 10  1  0
  7  2  1  0
  8  7  2  0
  9  5  1  0
 11 12  1  0
 11 10  1  0
 12 18  1  0
 13 12  2  0
 15 16  1  0
 15 14  1  6
 17 15  1  0
 17 18  1  6
 19 17  1  0
 19 21  1  0
 20 19  2  0
M  END
$$$$
