EGT.pdb
     RDKit          3D

 21 20  0  0  1  0  0  0  0  0999 V2000
   20.1086  -12.4419  -16.6060 N   0  0  0  0  0  0  0  0  0  0  0  0
   18.7526  -11.8418  -16.4599 C   0  0  1  0  0  0  0  0  0  0  0  0
   17.8673  -12.9099  -15.9126 C   0  0  0  0  0  0  0  0  0  0  0  0
   16.4553  -12.4568  -15.7496 C   0  0  0  0  0  0  0  0  0  0  0  0
   15.6115  -13.5494  -15.2397 C   0  0  0  0  0  0  0  0  0  0  0  0
   15.5077  -14.6184  -15.8672 O   0  0  0  0  0  0  0  0  0  0  0  0
   18.8498  -10.7168  -15.5003 C   0  0  0  0  0  0  0  0  0  0  0  0
   17.8943   -9.9201  -15.2871 O   0  0  0  0  0  0  0  0  0  0  0  0
   14.8955  -13.4427  -14.0436 O   0  0  0  0  0  0  0  0  0  0  0  0
   20.0930  -10.5486  -14.7969 N   0  0  0  0  0  0  0  0  0  0  0  0
   20.2213   -9.3709  -13.9873 C   0  0  0  0  0  0  0  0  0  0  0  0
   21.1224   -8.3532  -14.6322 C   0  0  0  0  0  0  0  0  0  0  0  0
   21.9008   -8.7112  -15.5669 O   0  0  0  0  0  0  0  0  0  0  0  0
   20.2697   -5.6597  -16.6638 C   0  0  0  0  0  0  0  0  0  0  0  0
   20.9253   -4.9881  -15.4877 C   0  0  1  0  0  0  0  0  0  0  0  0
   19.9755   -4.4971  -14.6110 O   0  0  0  0  0  0  0  0  0  0  0  0
   21.8380   -6.0034  -14.7867 C   0  0  2  0  0  0  0  0  0  0  0  0
   21.0584   -7.0239  -14.1585 N   0  0  0  0  0  0  0  0  0  0  0  0
   22.6354   -5.2477  -13.7762 C   0  0  0  0  0  0  0  0  0  0  0  0
   22.4491   -5.4104  -12.5617 O   0  0  0  0  0  0  0  0  0  0  0  0
   23.5877   -4.3609  -14.2144 O   0  0  0  0  0  0  0  0  0  0  0  0
  2  1  1  1
  3  2  1  0
  4  5  1  0
  4  3  1  0
  5  6  2  0
  7 10  1  0
  7  2  1  0
  8  7  2  0
  9  5  1  0
 11 12  1  0
 11 10  1  0
 12 18  1  0
 13 12  2  0
 15 16  1  0
 15 14  1  6
 17 15  1  0
 17 18  1  1
 19 17  1  0
 19 21  1  0
 20 19  2  0
M  END
$$$$
