EGT.pdb
     RDKit          3D

 21 20  0  0  1  0  0  0  0  0999 V2000
   14.1356  -10.8115  -14.0998 N   0  0  0  0  0  0  0  0  0  0  0  0
   15.6154  -10.6765  -13.9886 C   0  0  1  0  0  0  0  0  0  0  0  0
   16.1996  -11.3695  -15.1727 C   0  0  0  0  0  0  0  0  0  0  0  0
   15.9751  -12.8442  -15.1427 C   0  0  0  0  0  0  0  0  0  0  0  0
   17.2401  -13.5607  -14.9148 C   0  0  0  0  0  0  0  0  0  0  0  0
   18.3304  -13.0299  -15.1920 O   0  0  0  0  0  0  0  0  0  0  0  0
   15.9484   -9.2330  -14.0252 C   0  0  0  0  0  0  0  0  0  0  0  0
   15.2078   -8.3781  -14.5852 O   0  0  0  0  0  0  0  0  0  0  0  0
   17.2797  -14.8535  -14.3839 O   0  0  0  0  0  0  0  0  0  0  0  0
   17.1693   -8.8161  -13.3896 N   0  0  0  0  0  0  0  0  0  0  0  0
   17.3639   -7.4034  -13.2312 C   0  0  0  0  0  0  0  0  0  0  0  0
   18.7202   -7.0937  -12.6584 C   0  0  0  0  0  0  0  0  0  0  0  0
   19.1421   -7.7525  -11.6605 O   0  0  0  0  0  0  0  0  0  0  0  0
   21.0624   -7.4603  -15.0956 C   0  0  0  0  0  0  0  0  0  0  0  0
   21.5428   -7.2812  -13.6810 C   0  0  1  0  0  0  0  0  0  0  0  0
   22.9215   -7.1837  -13.6397 O   0  0  0  0  0  0  0  0  0  0  0  0
   20.8916   -6.0207  -13.0957 C   0  0  2  0  0  0  0  0  0  0  0  0
   19.4732   -6.0663  -13.2690 N   0  0  0  0  0  0  0  0  0  0  0  0
   21.4768   -4.8525  -13.8174 C   0  0  0  0  0  0  0  0  0  0  0  0
   20.8094   -4.2079  -14.6392 O   0  0  0  0  0  0  0  0  0  0  0  0
   22.7773   -4.4979  -13.5562 O   0  0  0  0  0  0  0  0  0  0  0  0
  2  1  1  6
  3  2  1  0
  4  5  1  0
  4  3  1  0
  5  6  2  0
  7 10  1  0
  7  2  1  0
  8  7  2  0
  9  5  1  0
 11 12  1  0
 11 10  1  0
 12 18  1  0
 13 12  2  0
 15 16  1  0
 15 14  1  6
 17 15  1  0
 17 18  1  6
 19 17  1  0
 19 21  1  0
 20 19  2  0
M  END
$$$$
