EGT.pdb
     RDKit          3D

 21 20  0  0  1  0  0  0  0  0999 V2000
   20.4094  -21.9588  -12.4857 N   0  0  0  0  0  0  0  0  0  0  0  0
   20.8422  -21.1989  -11.2793 C   0  0  1  0  0  0  0  0  0  0  0  0
   20.5234  -22.0515  -10.0980 C   0  0  0  0  0  0  0  0  0  0  0  0
   19.0967  -22.4869  -10.0732 C   0  0  0  0  0  0  0  0  0  0  0  0
   18.8181  -23.2965   -8.8763 C   0  0  0  0  0  0  0  0  0  0  0  0
   19.7062  -23.5091   -8.0317 O   0  0  0  0  0  0  0  0  0  0  0  0
   22.3051  -20.9825  -11.3738 C   0  0  0  0  0  0  0  0  0  0  0  0
   22.9401  -20.2604  -10.5562 O   0  0  0  0  0  0  0  0  0  0  0  0
   17.5614  -23.8586   -8.6321 O   0  0  0  0  0  0  0  0  0  0  0  0
   23.0052  -21.6327  -12.4488 N   0  0  0  0  0  0  0  0  0  0  0  0
   24.3757  -21.2566  -12.6462 C   0  0  0  0  0  0  0  0  0  0  0  0
   24.5190  -20.2584  -13.7627 C   0  0  0  0  0  0  0  0  0  0  0  0
   23.5023  -19.6106  -14.1557 O   0  0  0  0  0  0  0  0  0  0  0  0
   27.7046  -17.7635  -14.2915 C   0  0  0  0  0  0  0  0  0  0  0  0
   27.4513  -18.6892  -15.4503 C   0  0  1  0  0  0  0  0  0  0  0  0
   28.3109  -19.7715  -15.4106 O   0  0  0  0  0  0  0  0  0  0  0  0
   25.9897  -19.1545  -15.3985 C   0  0  2  0  0  0  0  0  0  0  0  0
   25.8008  -20.0864  -14.3309 N   0  0  0  0  0  0  0  0  0  0  0  0
   25.6873  -19.7886  -16.7155 C   0  0  0  0  0  0  0  0  0  0  0  0
   25.4599  -21.0038  -16.8038 O   0  0  0  0  0  0  0  0  0  0  0  0
   25.6639  -18.9998  -17.8392 O   0  0  0  0  0  0  0  0  0  0  0  0
  2  1  1  6
  3  2  1  0
  4  5  1  0
  4  3  1  0
  5  6  2  0
  7 10  1  0
  7  2  1  0
  8  7  2  0
  9  5  1  0
 11 12  1  0
 11 10  1  0
 12 18  1  0
 13 12  2  0
 15 16  1  0
 15 14  1  1
 17 15  1  0
 17 18  1  1
 19 17  1  0
 19 21  1  0
 20 19  2  0
M  END
$$$$
