EGT.pdb
     RDKit          3D

 21 20  0  0  1  0  0  0  0  0999 V2000
   23.4984  -19.9156  -14.8947 N   0  0  0  0  0  0  0  0  0  0  0  0
   24.5990  -19.6146  -15.8530 C   0  0  1  0  0  0  0  0  0  0  0  0
   24.5236  -18.1547  -16.1482 C   0  0  0  0  0  0  0  0  0  0  0  0
   23.1247  -17.6368  -16.1270 C   0  0  0  0  0  0  0  0  0  0  0  0
   22.8332  -16.8689  -17.3481 C   0  0  0  0  0  0  0  0  0  0  0  0
   22.3760  -17.4315  -18.3589 O   0  0  0  0  0  0  0  0  0  0  0  0
   25.8848  -19.9367  -15.1909 C   0  0  0  0  0  0  0  0  0  0  0  0
   26.9962  -19.8455  -15.7823 O   0  0  0  0  0  0  0  0  0  0  0  0
   23.0520  -15.4906  -17.4323 O   0  0  0  0  0  0  0  0  0  0  0  0
   25.8368  -20.3677  -13.8196 N   0  0  0  0  0  0  0  0  0  0  0  0
   27.0938  -20.6516  -13.1886 C   0  0  0  0  0  0  0  0  0  0  0  0
   26.9211  -20.9530  -11.7247 C   0  0  0  0  0  0  0  0  0  0  0  0
   27.8974  -21.4192  -11.0635 O   0  0  0  0  0  0  0  0  0  0  0  0
   27.3712  -19.9402   -8.9168 C   0  0  0  0  0  0  0  0  0  0  0  0
   25.8753  -20.0586   -8.8059 C   0  0  1  0  0  0  0  0  0  0  0  0
   25.2673  -18.8409   -9.0496 O   0  0  0  0  0  0  0  0  0  0  0  0
   25.3897  -21.1175   -9.8051 C   0  0  2  0  0  0  0  0  0  0  0  0
   25.6581  -20.6984  -11.1452 N   0  0  0  0  0  0  0  0  0  0  0  0
   23.9226  -21.2838   -9.5853 C   0  0  0  0  0  0  0  0  0  0  0  0
   23.1047  -20.9758  -10.4640 O   0  0  0  0  0  0  0  0  0  0  0  0
   23.4870  -21.7877   -8.3846 O   0  0  0  0  0  0  0  0  0  0  0  0
  2  1  1  1
  3  2  1  0
  4  5  1  0
  4  3  1  0
  5  6  2  0
  7 10  1  0
  7  2  1  0
  8  7  2  0
  9  5  1  0
 11 12  1  0
 11 10  1  0
 12 18  1  0
 13 12  2  0
 15 16  1  0
 15 14  1  6
 17 15  1  0
 17 18  1  6
 19 17  1  0
 19 21  1  0
 20 19  2  0
M  END
$$$$
