EGT.pdb
     RDKit          3D

 21 20  0  0  1  0  0  0  0  0999 V2000
   15.3611  -10.7598  -12.0373 N   0  0  0  0  0  0  0  0  0  0  0  0
   16.0113  -10.0083  -13.1477 C   0  0  1  0  0  0  0  0  0  0  0  0
   14.9450   -9.1907  -13.7946 C   0  0  0  0  0  0  0  0  0  0  0  0
   13.9424  -10.0251  -14.5188 C   0  0  0  0  0  0  0  0  0  0  0  0
   12.9419   -9.1774  -15.1867 C   0  0  0  0  0  0  0  0  0  0  0  0
   13.1255   -8.7722  -16.3483 O   0  0  0  0  0  0  0  0  0  0  0  0
   17.0465   -9.1259  -12.5600 C   0  0  0  0  0  0  0  0  0  0  0  0
   16.9847   -8.7019  -11.3727 O   0  0  0  0  0  0  0  0  0  0  0  0
   11.7536   -8.7911  -14.5594 O   0  0  0  0  0  0  0  0  0  0  0  0
   18.1552   -8.7530  -13.3967 N   0  0  0  0  0  0  0  0  0  0  0  0
   19.0972   -7.8235  -12.8423 C   0  0  0  0  0  0  0  0  0  0  0  0
   20.2589   -7.5948  -13.7707 C   0  0  0  0  0  0  0  0  0  0  0  0
   20.8640   -8.5903  -14.2711 O   0  0  0  0  0  0  0  0  0  0  0  0
   20.3256   -6.0604  -17.0094 C   0  0  0  0  0  0  0  0  0  0  0  0
   21.1860   -5.1721  -16.1523 C   0  0  1  0  0  0  0  0  0  0  0  0
   20.4752   -4.0661  -15.7238 O   0  0  0  0  0  0  0  0  0  0  0  0
   21.6964   -5.9866  -14.9559 C   0  0  2  0  0  0  0  0  0  0  0  0
   20.6276   -6.2593  -14.0463 N   0  0  0  0  0  0  0  0  0  0  0  0
   22.7595   -5.1726  -14.2962 C   0  0  0  0  0  0  0  0  0  0  0  0
   22.5618   -4.6287  -13.2001 O   0  0  0  0  0  0  0  0  0  0  0  0
   23.9716   -5.0329  -14.9260 O   0  0  0  0  0  0  0  0  0  0  0  0
  2  1  1  1
  3  2  1  0
  4  5  1  0
  4  3  1  0
  5  6  2  0
  7 10  1  0
  7  2  1  0
  8  7  2  0
  9  5  1  0
 11 12  1  0
 11 10  1  0
 12 18  1  0
 13 12  2  0
 15 16  1  0
 15 14  1  6
 17 15  1  0
 17 18  1  1
 19 17  1  0
 19 21  1  0
 20 19  2  0
M  END
$$$$
