EGT.pdb
     RDKit          3D

 21 20  0  0  1  0  0  0  0  0999 V2000
   14.8969  -10.6508  -14.3098 N   0  0  0  0  0  0  0  0  0  0  0  0
   16.3798  -10.6362  -14.4544 C   0  0  1  0  0  0  0  0  0  0  0  0
   16.7186  -11.6413  -15.5027 C   0  0  0  0  0  0  0  0  0  0  0  0
   16.4479  -13.0413  -15.0637 C   0  0  0  0  0  0  0  0  0  0  0  0
   16.7685  -13.9964  -16.1363 C   0  0  0  0  0  0  0  0  0  0  0  0
   17.2101  -13.6001  -17.2296 O   0  0  0  0  0  0  0  0  0  0  0  0
   16.7843   -9.2808  -14.8959 C   0  0  0  0  0  0  0  0  0  0  0  0
   16.2181   -8.6789  -15.8500 O   0  0  0  0  0  0  0  0  0  0  0  0
   16.5957  -15.3754  -15.9832 O   0  0  0  0  0  0  0  0  0  0  0  0
   17.8676   -8.6482  -14.1924 N   0  0  0  0  0  0  0  0  0  0  0  0
   18.3247   -7.3902  -14.7095 C   0  0  0  0  0  0  0  0  0  0  0  0
   19.4720   -6.8458  -13.9028 C   0  0  0  0  0  0  0  0  0  0  0  0
   19.6347   -7.2346  -12.7069 O   0  0  0  0  0  0  0  0  0  0  0  0
   22.9331   -7.3734  -14.4358 C   0  0  0  0  0  0  0  0  0  0  0  0
   22.7628   -5.8873  -14.5985 C   0  0  1  0  0  0  0  0  0  0  0  0
   22.6768   -5.5468  -15.9359 O   0  0  0  0  0  0  0  0  0  0  0  0
   21.4990   -5.4511  -13.8448 C   0  0  2  0  0  0  0  0  0  0  0  0
   20.3290   -5.9113  -14.5254 N   0  0  0  0  0  0  0  0  0  0  0  0
   21.5229   -3.9600  -13.7803 C   0  0  0  0  0  0  0  0  0  0  0  0
   22.3435   -3.3631  -13.0685 O   0  0  0  0  0  0  0  0  0  0  0  0
   20.6148   -3.2513  -14.5275 O   0  0  0  0  0  0  0  0  0  0  0  0
  2  1  1  6
  3  2  1  0
  4  5  1  0
  4  3  1  0
  5  6  2  0
  7 10  1  0
  7  2  1  0
  8  7  2  0
  9  5  1  0
 11 12  1  0
 11 10  1  0
 12 18  1  0
 13 12  2  0
 15 16  1  0
 15 14  1  6
 17 15  1  0
 17 18  1  6
 19 17  1  0
 19 21  1  0
 20 19  2  0
M  END
$$$$
