EGT.pdb
     RDKit          3D

 21 20  0  0  1  0  0  0  0  0999 V2000
   18.1353   -9.3493  -16.4288 N   0  0  0  0  0  0  0  0  0  0  0  0
   18.3560  -10.5050  -15.5144 C   0  0  1  0  0  0  0  0  0  0  0  0
   17.9815  -11.7317  -16.2752 C   0  0  0  0  0  0  0  0  0  0  0  0
   16.5528  -11.7264  -16.7047 C   0  0  0  0  0  0  0  0  0  0  0  0
   16.2475  -12.9137  -17.5188 C   0  0  0  0  0  0  0  0  0  0  0  0
   17.1307  -13.7498  -17.7799 O   0  0  0  0  0  0  0  0  0  0  0  0
   19.7945  -10.5418  -15.1606 C   0  0  0  0  0  0  0  0  0  0  0  0
   20.2923  -11.4425  -14.4298 O   0  0  0  0  0  0  0  0  0  0  0  0
   14.9700  -13.1578  -18.0317 O   0  0  0  0  0  0  0  0  0  0  0  0
   20.6348   -9.4985  -15.6840 N   0  0  0  0  0  0  0  0  0  0  0  0
   22.0091   -9.5101  -15.2719 C   0  0  0  0  0  0  0  0  0  0  0  0
   22.5371   -8.1155  -15.0716 C   0  0  0  0  0  0  0  0  0  0  0  0
   23.7542   -7.9474  -14.7584 O   0  0  0  0  0  0  0  0  0  0  0  0
   22.3905   -5.3113  -17.5239 C   0  0  0  0  0  0  0  0  0  0  0  0
   21.6500   -4.8458  -16.2996 C   0  0  1  0  0  0  0  0  0  0  0  0
   20.2834   -4.9439  -16.4858 O   0  0  0  0  0  0  0  0  0  0  0  0
   22.0970   -5.6942  -15.1013 C   0  0  2  0  0  0  0  0  0  0  0  0
   21.6374   -7.0403  -15.2447 N   0  0  0  0  0  0  0  0  0  0  0  0
   21.5166   -5.0629  -13.8796 C   0  0  0  0  0  0  0  0  0  0  0  0
   20.6649   -5.6514  -13.1980 O   0  0  0  0  0  0  0  0  0  0  0  0
   21.9430   -3.8091  -13.5172 O   0  0  0  0  0  0  0  0  0  0  0  0
  2  1  1  6
  3  2  1  0
  4  5  1  0
  4  3  1  0
  5  6  2  0
  7 10  1  0
  7  2  1  0
  8  7  2  0
  9  5  1  0
 11 12  1  0
 11 10  1  0
 12 18  1  0
 13 12  2  0
 15 16  1  0
 15 14  1  6
 17 15  1  0
 17 18  1  6
 19 17  1  0
 19 21  1  0
 20 19  2  0
M  END
$$$$
