EGT.pdb
     RDKit          3D

 21 20  0  0  1  0  0  0  0  0999 V2000
   18.2316  -12.0044  -15.1733 N   0  0  0  0  0  0  0  0  0  0  0  0
   19.4380  -12.2337  -16.0172 C   0  0  1  0  0  0  0  0  0  0  0  0
   18.9914  -13.0283  -17.1974 C   0  0  0  0  0  0  0  0  0  0  0  0
   18.5931  -14.4196  -16.8347 C   0  0  0  0  0  0  0  0  0  0  0  0
   18.1103  -15.1501  -18.0174 C   0  0  0  0  0  0  0  0  0  0  0  0
   18.8929  -15.8210  -18.7136 O   0  0  0  0  0  0  0  0  0  0  0  0
   19.9501  -10.9135  -16.4538 C   0  0  0  0  0  0  0  0  0  0  0  0
   20.9725  -10.7878  -17.1832 O   0  0  0  0  0  0  0  0  0  0  0  0
   16.7692  -15.1272  -18.4119 O   0  0  0  0  0  0  0  0  0  0  0  0
   19.2353   -9.7451  -16.0153 N   0  0  0  0  0  0  0  0  0  0  0  0
   19.6943   -8.4820  -16.5182 C   0  0  0  0  0  0  0  0  0  0  0  0
   20.4402   -7.7071  -15.4661 C   0  0  0  0  0  0  0  0  0  0  0  0
   20.6100   -8.2169  -14.3176 O   0  0  0  0  0  0  0  0  0  0  0  0
   23.8809   -6.7027  -15.5726 C   0  0  0  0  0  0  0  0  0  0  0  0
   23.1144   -5.4104  -15.4924 C   0  0  1  0  0  0  0  0  0  0  0  0
   22.9920   -4.8341  -16.7433 O   0  0  0  0  0  0  0  0  0  0  0  0
   21.7326   -5.6941  -14.8877 C   0  0  2  0  0  0  0  0  0  0  0  0
   20.9247   -6.4262  -15.8124 N   0  0  0  0  0  0  0  0  0  0  0  0
   21.1144   -4.3721  -14.5742 C   0  0  0  0  0  0  0  0  0  0  0  0
   20.1757   -3.9279  -15.2507 O   0  0  0  0  0  0  0  0  0  0  0  0
   21.6042   -3.6476  -13.5157 O   0  0  0  0  0  0  0  0  0  0  0  0
  2  1  1  1
  3  2  1  0
  4  5  1  0
  4  3  1  0
  5  6  2  0
  7 10  1  0
  7  2  1  0
  8  7  2  0
  9  5  1  0
 11 12  1  0
 11 10  1  0
 12 18  1  0
 13 12  2  0
 15 16  1  0
 15 14  1  6
 17 15  1  0
 17 18  1  6
 19 17  1  0
 19 21  1  0
 20 19  2  0
M  END
$$$$
