EGT.pdb
     RDKit          3D

 21 20  0  0  1  0  0  0  0  0999 V2000
   18.1221  -12.3578  -15.3267 N   0  0  0  0  0  0  0  0  0  0  0  0
   17.1733  -11.3192  -15.8181 C   0  0  1  0  0  0  0  0  0  0  0  0
   15.7988  -11.8420  -15.5706 C   0  0  0  0  0  0  0  0  0  0  0  0
   15.4875  -13.0480  -16.3919 C   0  0  0  0  0  0  0  0  0  0  0  0
   14.1306  -13.5398  -16.1045 C   0  0  0  0  0  0  0  0  0  0  0  0
   13.4228  -12.9867  -15.2440 O   0  0  0  0  0  0  0  0  0  0  0  0
   17.3993  -10.0831  -15.0327 C   0  0  0  0  0  0  0  0  0  0  0  0
   16.8583   -9.8819  -13.9102 O   0  0  0  0  0  0  0  0  0  0  0  0
   13.5773  -14.6358  -16.7735 O   0  0  0  0  0  0  0  0  0  0  0  0
   18.2742   -9.0893  -15.5943 N   0  0  0  0  0  0  0  0  0  0  0  0
   18.3892   -7.8520  -14.8768 C   0  0  0  0  0  0  0  0  0  0  0  0
   19.7923   -7.6295  -14.3814 C   0  0  0  0  0  0  0  0  0  0  0  0
   20.4399   -8.5990  -13.8829 O   0  0  0  0  0  0  0  0  0  0  0  0
   22.7830   -7.5093  -15.7362 C   0  0  0  0  0  0  0  0  0  0  0  0
   22.6314   -6.0896  -15.2614 C   0  0  1  0  0  0  0  0  0  0  0  0
   22.1622   -5.2794  -16.2789 O   0  0  0  0  0  0  0  0  0  0  0  0
   21.6702   -6.0704  -14.0650 C   0  0  2  0  0  0  0  0  0  0  0  0
   20.3321   -6.3291  -14.4966 N   0  0  0  0  0  0  0  0  0  0  0  0
   21.7747   -4.7173  -13.4436 C   0  0  0  0  0  0  0  0  0  0  0  0
   20.8496   -3.8976  -13.5351 O   0  0  0  0  0  0  0  0  0  0  0  0
   22.9209   -4.3895  -12.7623 O   0  0  0  0  0  0  0  0  0  0  0  0
  2  1  1  1
  3  2  1  0
  4  5  1  0
  4  3  1  0
  5  6  2  0
  7 10  1  0
  7  2  1  0
  8  7  2  0
  9  5  1  0
 11 12  1  0
 11 10  1  0
 12 18  1  0
 13 12  2  0
 15 16  1  0
 15 14  1  6
 17 15  1  0
 17 18  1  6
 19 17  1  0
 19 21  1  0
 20 19  2  0
M  END
$$$$
