EGT.pdb
     RDKit          3D

 21 20  0  0  1  0  0  0  0  0999 V2000
   18.7824  -11.5021  -17.4921 N   0  0  0  0  0  0  0  0  0  0  0  0
   19.5144  -10.9645  -18.6734 C   0  0  1  0  0  0  0  0  0  0  0  0
   18.6479  -11.2080  -19.8624 C   0  0  0  0  0  0  0  0  0  0  0  0
   18.5650  -12.6528  -20.2254 C   0  0  0  0  0  0  0  0  0  0  0  0
   17.7434  -13.3897  -19.2519 C   0  0  0  0  0  0  0  0  0  0  0  0
   18.2587  -14.2265  -18.4894 O   0  0  0  0  0  0  0  0  0  0  0  0
   19.7070   -9.5093  -18.4705 C   0  0  0  0  0  0  0  0  0  0  0  0
   20.3938   -8.7981  -19.2550 O   0  0  0  0  0  0  0  0  0  0  0  0
   16.3644  -13.1897  -19.1370 O   0  0  0  0  0  0  0  0  0  0  0  0
   19.0752   -8.9083  -17.3267 N   0  0  0  0  0  0  0  0  0  0  0  0
   19.3084   -7.5072  -17.1235 C   0  0  0  0  0  0  0  0  0  0  0  0
   19.7650   -7.2216  -15.7187 C   0  0  0  0  0  0  0  0  0  0  0  0
   19.0381   -7.5750  -14.7416 O   0  0  0  0  0  0  0  0  0  0  0  0
   22.0606   -8.8544  -14.0269 C   0  0  0  0  0  0  0  0  0  0  0  0
   22.6853   -7.4858  -14.0523 C   0  0  1  0  0  0  0  0  0  0  0  0
   23.6259   -7.3944  -15.0617 O   0  0  0  0  0  0  0  0  0  0  0  0
   21.5769   -6.4421  -14.2468 C   0  0  2  0  0  0  0  0  0  0  0  0
   21.0028   -6.5619  -15.5505 N   0  0  0  0  0  0  0  0  0  0  0  0
   22.2051   -5.1002  -14.0653 C   0  0  0  0  0  0  0  0  0  0  0  0
   22.3471   -4.3252  -15.0220 O   0  0  0  0  0  0  0  0  0  0  0  0
   22.6278   -4.7323  -12.8118 O   0  0  0  0  0  0  0  0  0  0  0  0
  2  1  1  1
  3  2  1  0
  4  5  1  0
  4  3  1  0
  5  6  2  0
  7 10  1  0
  7  2  1  0
  8  7  2  0
  9  5  1  0
 11 12  1  0
 11 10  1  0
 12 18  1  0
 13 12  2  0
 15 16  1  0
 15 14  1  6
 17 15  1  0
 17 18  1  6
 19 17  1  0
 19 21  1  0
 20 19  2  0
M  END
$$$$
