EGT.pdb
     RDKit          3D

 21 20  0  0  1  0  0  0  0  0999 V2000
   29.0164  -23.1953  -18.0636 N   0  0  0  0  0  0  0  0  0  0  0  0
   27.7263  -22.4983  -17.7987 C   0  0  1  0  0  0  0  0  0  0  0  0
   26.6774  -23.5550  -17.7131 C   0  0  0  0  0  0  0  0  0  0  0  0
   27.2497  -24.9141  -17.4866 C   0  0  0  0  0  0  0  0  0  0  0  0
   26.5885  -25.5769  -16.3513 C   0  0  0  0  0  0  0  0  0  0  0  0
   26.5311  -25.0247  -15.2382 O   0  0  0  0  0  0  0  0  0  0  0  0
   27.8453  -21.7898  -16.5027 C   0  0  0  0  0  0  0  0  0  0  0  0
   28.8014  -21.0089  -16.2397 O   0  0  0  0  0  0  0  0  0  0  0  0
   26.0008  -26.8405  -16.4647 O   0  0  0  0  0  0  0  0  0  0  0  0
   26.8172  -22.0184  -15.5232 N   0  0  0  0  0  0  0  0  0  0  0  0
   26.8007  -21.1397  -14.3890 C   0  0  0  0  0  0  0  0  0  0  0  0
   25.6699  -21.4685  -13.4525 C   0  0  0  0  0  0  0  0  0  0  0  0
   24.7410  -22.2390  -13.8410 O   0  0  0  0  0  0  0  0  0  0  0  0
   26.1324  -21.4376   -9.3070 C   0  0  0  0  0  0  0  0  0  0  0  0
   24.9882  -20.6241   -9.8482 C   0  0  1  0  0  0  0  0  0  0  0  0
   25.3207  -19.2829   -9.8990 O   0  0  0  0  0  0  0  0  0  0  0  0
   24.6291  -21.1478  -11.2454 C   0  0  2  0  0  0  0  0  0  0  0  0
   25.6962  -20.8938  -12.1623 N   0  0  0  0  0  0  0  0  0  0  0  0
   23.3854  -20.4399  -11.6699 C   0  0  0  0  0  0  0  0  0  0  0  0
   23.4007  -19.6211  -12.6002 O   0  0  0  0  0  0  0  0  0  0  0  0
   22.2125  -20.7106  -11.0094 O   0  0  0  0  0  0  0  0  0  0  0  0
  2  1  1  1
  3  2  1  0
  4  5  1  0
  4  3  1  0
  5  6  2  0
  7 10  1  0
  7  2  1  0
  8  7  2  0
  9  5  1  0
 11 12  1  0
 11 10  1  0
 12 18  1  0
 13 12  2  0
 15 16  1  0
 15 14  1  6
 17 15  1  0
 17 18  1  6
 19 17  1  0
 19 21  1  0
 20 19  2  0
M  END
$$$$
