AQI.pdb
     RDKit          3D

 23 22  0  0  1  0  0  0  0  0999 V2000
   28.5554  -19.5504  -14.6800 C   0  0  0  0  0  0  0  0  0  0  0  0
   27.3669  -20.3844  -14.2337 C   0  0  2  0  0  0  0  0  0  0  0  0
   26.3531  -20.3055  -15.2709 N   0  0  0  0  0  0  0  0  0  0  0  0
   26.8488  -19.8151  -12.9617 C   0  0  0  0  0  0  0  0  0  0  0  0
   26.9622  -18.5812  -12.6760 O   0  0  0  0  0  0  0  0  0  0  0  0
   21.4258  -21.0783  -11.0225 N   0  0  0  0  0  0  0  0  0  0  0  0
   21.8670  -20.2739  -12.0898 C   0  0  0  0  0  0  0  0  0  0  0  0
   21.0840  -19.8515  -12.9551 O   0  0  0  0  0  0  0  0  0  0  0  0
   23.3380  -19.9283  -12.1633 C   0  0  0  0  0  0  0  0  0  0  0  0
   24.0231  -20.5633  -10.9928 C   0  0  0  0  0  0  0  0  0  0  0  0
   25.4642  -20.2023  -10.9012 C   0  0  2  0  0  0  0  0  0  0  0  0
   26.2110  -20.6977  -12.0531 N   0  0  0  0  0  0  0  0  0  0  0  0
   26.0822  -20.7730   -9.6848 C   0  0  0  0  0  0  0  0  0  0  0  0
   26.4558  -21.9734   -9.6623 O   0  0  0  0  0  0  0  0  0  0  0  0
   29.2791  -19.5092   -4.6239 C   0  0  0  0  0  0  0  0  0  0  0  0
   28.3874  -20.4481   -5.4332 C   0  0  0  0  0  0  0  0  0  0  0  0
   27.7358  -19.7255   -6.5755 C   0  0  2  0  0  0  0  0  0  0  0  0
   27.0120  -18.5223   -6.0051 C   0  0  0  0  0  0  0  0  0  0  0  0
   26.8402  -20.6339   -7.3380 C   0  0  2  0  0  0  0  0  0  0  0  0
   26.2702  -19.9726   -8.5037 N   0  0  0  0  0  0  0  0  0  0  0  0
   25.7306  -21.1894   -6.5262 C   0  0  0  0  0  0  0  0  0  0  0  0
   25.9604  -22.2786   -5.6507 O   0  0  0  0  0  0  0  0  0  0  0  0
   24.5544  -20.7626   -6.5460 O   0  0  0  0  0  0  0  0  0  0  0  0
  2  3  1  0
  2  1  1  6
  4  5  2  0
  4  2  1  0
  6  7  1  0
  7  8  2  0
  9  7  1  0
  9 10  1  0
 11 10  1  6
 11 13  1  0
 11 12  1  0
 12  4  1  0
 13 20  1  0
 14 13  2  0
 16 15  1  0
 17 19  1  0
 17 16  1  0
 17 18  1  1
 19 21  1  0
 19 20  1  6
 21 23  2  0
 21 22  1  0
M  END
$$$$
