AQI.pdb
     RDKit          3D

 23 22  0  0  1  0  0  0  0  0999 V2000
   26.2806  -16.9127  -14.4509 C   0  0  0  0  0  0  0  0  0  0  0  0
   25.1951  -17.4779  -15.3506 C   0  0  2  0  0  0  0  0  0  0  0  0
   25.7981  -18.5009  -16.1871 N   0  0  0  0  0  0  0  0  0  0  0  0
   24.6630  -16.3724  -16.1905 C   0  0  0  0  0  0  0  0  0  0  0  0
   25.2796  -15.9443  -17.2168 O   0  0  0  0  0  0  0  0  0  0  0  0
   18.6666  -15.3915  -16.6742 N   0  0  0  0  0  0  0  0  0  0  0  0
   19.1002  -14.3673  -17.5366 C   0  0  0  0  0  0  0  0  0  0  0  0
   18.3047  -13.7320  -18.2464 O   0  0  0  0  0  0  0  0  0  0  0  0
   20.5788  -14.0502  -17.5827 C   0  0  0  0  0  0  0  0  0  0  0  0
   21.2858  -14.9989  -16.6646 C   0  0  0  0  0  0  0  0  0  0  0  0
   22.7604  -14.7967  -16.6486 C   0  0  2  0  0  0  0  0  0  0  0  0
   23.4248  -15.7926  -15.8138 N   0  0  0  0  0  0  0  0  0  0  0  0
   23.1113  -13.4605  -16.1210 C   0  0  0  0  0  0  0  0  0  0  0  0
   22.9832  -13.2043  -14.8967 O   0  0  0  0  0  0  0  0  0  0  0  0
   27.4398   -9.6656  -15.5805 C   0  0  0  0  0  0  0  0  0  0  0  0
   25.9188   -9.7883  -15.6374 C   0  0  0  0  0  0  0  0  0  0  0  0
   25.5034  -11.0908  -16.2559 C   0  0  2  0  0  0  0  0  0  0  0  0
   26.2063  -11.2094  -17.5933 C   0  0  0  0  0  0  0  0  0  0  0  0
   24.0240  -11.1785  -16.3679 C   0  0  2  0  0  0  0  0  0  0  0  0
   23.6054  -12.4263  -16.9914 N   0  0  0  0  0  0  0  0  0  0  0  0
   23.4199  -10.0534  -17.1215 C   0  0  0  0  0  0  0  0  0  0  0  0
   23.0314   -8.8689  -16.4494 O   0  0  0  0  0  0  0  0  0  0  0  0
   23.2127  -10.0564  -18.3557 O   0  0  0  0  0  0  0  0  0  0  0  0
  2  3  1  0
  2  1  1  1
  4  5  2  0
  4  2  1  0
  6  7  1  0
  7  8  2  0
  9  7  1  0
  9 10  1  0
 11 10  1  1
 11 13  1  0
 11 12  1  0
 12  4  1  0
 13 20  1  0
 14 13  2  0
 16 15  1  0
 17 19  1  0
 17 16  1  0
 17 18  1  6
 19 21  1  0
 19 20  1  6
 21 23  2  0
 21 22  1  0
M  END
$$$$
