AQI.pdb
     RDKit          3D

 23 22  0  0  1  0  0  0  0  0999 V2000
   20.4408  -11.8237  -17.8227 C   0  0  0  0  0  0  0  0  0  0  0  0
   19.2820  -11.8788  -16.8421 C   0  0  2  0  0  0  0  0  0  0  0  0
   18.1139  -12.3587  -17.5598 N   0  0  0  0  0  0  0  0  0  0  0  0
   19.0419  -10.5052  -16.3262 C   0  0  0  0  0  0  0  0  0  0  0  0
   18.7385   -9.5370  -17.0927 O   0  0  0  0  0  0  0  0  0  0  0  0
   17.1258   -9.2355  -10.5960 N   0  0  0  0  0  0  0  0  0  0  0  0
   16.2470   -9.4939  -11.6646 C   0  0  0  0  0  0  0  0  0  0  0  0
   15.0601   -9.8020  -11.4730 O   0  0  0  0  0  0  0  0  0  0  0  0
   16.7855   -9.3871  -13.0743 C   0  0  0  0  0  0  0  0  0  0  0  0
   18.2582   -9.1290  -12.9904 C   0  0  0  0  0  0  0  0  0  0  0  0
   18.8977   -8.9899  -14.3272 C   0  0  2  0  0  0  0  0  0  0  0  0
   19.1613  -10.2931  -14.9290 N   0  0  0  0  0  0  0  0  0  0  0  0
   20.1856   -8.2693  -14.2317 C   0  0  0  0  0  0  0  0  0  0  0  0
   21.1959   -8.8315  -13.7372 O   0  0  0  0  0  0  0  0  0  0  0  0
   24.4287   -6.2878  -16.9251 C   0  0  0  0  0  0  0  0  0  0  0  0
   23.4181   -5.4078  -16.1930 C   0  0  0  0  0  0  0  0  0  0  0  0
   22.0641   -6.0537  -16.1561 C   0  0  2  0  0  0  0  0  0  0  0  0
   21.0951   -5.1307  -16.8673 C   0  0  0  0  0  0  0  0  0  0  0  0
   21.6576   -6.3571  -14.7591 C   0  0  2  0  0  0  0  0  0  0  0  0
   20.3134   -6.9145  -14.6997 N   0  0  0  0  0  0  0  0  0  0  0  0
   21.7169   -5.1818  -13.8570 C   0  0  0  0  0  0  0  0  0  0  0  0
   22.9413   -4.8040  -13.2538 O   0  0  0  0  0  0  0  0  0  0  0  0
   20.7366   -4.4600  -13.5670 O   0  0  0  0  0  0  0  0  0  0  0  0
  2  3  1  0
  2  1  1  6
  4  5  2  0
  4  2  1  0
  6  7  1  0
  7  8  2  0
  9  7  1  0
  9 10  1  0
 11 10  1  1
 11 13  1  0
 11 12  1  0
 12  4  1  0
 13 20  1  0
 14 13  2  0
 16 15  1  0
 17 19  1  0
 17 16  1  0
 17 18  1  1
 19 21  1  0
 19 20  1  6
 21 23  2  0
 21 22  1  0
M  END
$$$$
