AQI.pdb
     RDKit          3D

 23 22  0  0  1  0  0  0  0  0999 V2000
   21.6839  -13.9469  -17.0641 C   0  0  0  0  0  0  0  0  0  0  0  0
   20.3947  -13.6348  -16.3240 C   0  0  2  0  0  0  0  0  0  0  0  0
   19.3796  -14.5653  -16.7860 N   0  0  0  0  0  0  0  0  0  0  0  0
   19.9988  -12.2382  -16.6454 C   0  0  0  0  0  0  0  0  0  0  0  0
   20.2825  -11.6927  -17.7585 O   0  0  0  0  0  0  0  0  0  0  0  0
   14.6491  -10.2589  -14.9473 N   0  0  0  0  0  0  0  0  0  0  0  0
   15.0812   -9.0519  -15.5279 C   0  0  0  0  0  0  0  0  0  0  0  0
   14.2991   -8.1106  -15.7339 O   0  0  0  0  0  0  0  0  0  0  0  0
   16.5413   -8.9215  -15.9021 C   0  0  0  0  0  0  0  0  0  0  0  0
   17.2203  -10.2170  -15.5809 C   0  0  0  0  0  0  0  0  0  0  0  0
   18.6591  -10.2254  -15.9621 C   0  0  2  0  0  0  0  0  0  0  0  0
   19.2815  -11.5108  -15.6615 N   0  0  0  0  0  0  0  0  0  0  0  0
   19.4112   -9.1801  -15.2350 C   0  0  0  0  0  0  0  0  0  0  0  0
   19.7945   -9.3754  -14.0534 O   0  0  0  0  0  0  0  0  0  0  0  0
   23.8089   -5.1649  -15.9556 C   0  0  0  0  0  0  0  0  0  0  0  0
   22.6120   -5.6286  -15.1285 C   0  0  0  0  0  0  0  0  0  0  0  0
   21.7673   -6.6022  -15.8969 C   0  0  2  0  0  0  0  0  0  0  0  0
   21.4179   -5.9597  -17.2243 C   0  0  0  0  0  0  0  0  0  0  0  0
   20.5699   -7.0021  -15.1125 C   0  0  2  0  0  0  0  0  0  0  0  0
   19.7210   -7.9207  -15.8586 N   0  0  0  0  0  0  0  0  0  0  0  0
   19.7417   -5.8543  -14.6703 C   0  0  0  0  0  0  0  0  0  0  0  0
   20.1128   -5.1019  -13.5294 O   0  0  0  0  0  0  0  0  0  0  0  0
   18.6955   -5.4729  -15.2412 O   0  0  0  0  0  0  0  0  0  0  0  0
  2  3  1  0
  2  1  1  6
  4  5  2  0
  4  2  1  0
  6  7  1  0
  7  8  2  0
  9  7  1  0
  9 10  1  0
 11 10  1  1
 11 13  1  0
 11 12  1  0
 12  4  1  0
 13 20  1  0
 14 13  2  0
 16 15  1  0
 17 19  1  0
 17 16  1  0
 17 18  1  6
 19 21  1  0
 19 20  1  6
 21 23  2  0
 21 22  1  0
M  END
$$$$
