AQI.pdb
     RDKit          3D

 23 22  0  0  1  0  0  0  0  0999 V2000
   13.0186  -11.0422  -13.4504 C   0  0  0  0  0  0  0  0  0  0  0  0
   14.4900  -11.3213  -13.7044 C   0  0  2  0  0  0  0  0  0  0  0  0
   14.6935  -12.7564  -13.6108 N   0  0  0  0  0  0  0  0  0  0  0  0
   15.2846  -10.6186  -12.6624 C   0  0  0  0  0  0  0  0  0  0  0  0
   15.3011  -11.0017  -11.4500 O   0  0  0  0  0  0  0  0  0  0  0  0
   20.1720   -7.3694  -14.2418 N   0  0  0  0  0  0  0  0  0  0  0  0
   20.4371   -8.5385  -13.5045 C   0  0  0  0  0  0  0  0  0  0  0  0
   21.5463   -9.0942  -13.5396 O   0  0  0  0  0  0  0  0  0  0  0  0
   19.3261   -9.1144  -12.6544 C   0  0  0  0  0  0  0  0  0  0  0  0
   18.1195   -8.2419  -12.8141 C   0  0  0  0  0  0  0  0  0  0  0  0
   16.9175   -8.7862  -12.1253 C   0  0  2  0  0  0  0  0  0  0  0  0
   16.0408   -9.4862  -13.0589 N   0  0  0  0  0  0  0  0  0  0  0  0
   16.1299   -7.7070  -11.4912 C   0  0  0  0  0  0  0  0  0  0  0  0
   15.3509   -6.9979  -12.1780 O   0  0  0  0  0  0  0  0  0  0  0  0
   12.3909   -5.9712   -7.3658 C   0  0  0  0  0  0  0  0  0  0  0  0
   13.6539   -5.5462   -8.1114 C   0  0  0  0  0  0  0  0  0  0  0  0
   14.3610   -6.7321   -8.6989 C   0  0  2  0  0  0  0  0  0  0  0  0
   14.7953   -7.6227   -7.5521 C   0  0  0  0  0  0  0  0  0  0  0  0
   15.4927   -6.3030   -9.5613 C   0  0  2  0  0  0  0  0  0  0  0  0
   16.2352   -7.4434  -10.0804 N   0  0  0  0  0  0  0  0  0  0  0  0
   16.4463   -5.3958   -8.8785 C   0  0  0  0  0  0  0  0  0  0  0  0
   16.1289   -4.0271   -8.7003 O   0  0  0  0  0  0  0  0  0  0  0  0
   17.5582   -5.7469   -8.4242 O   0  0  0  0  0  0  0  0  0  0  0  0
  2  3  1  0
  2  1  1  1
  4  5  2  0
  4  2  1  0
  6  7  1  0
  7  8  2  0
  9  7  1  0
  9 10  1  0
 11 10  1  6
 11 13  1  0
 11 12  1  0
 12  4  1  0
 13 20  1  0
 14 13  2  0
 16 15  1  0
 17 19  1  0
 17 16  1  0
 17 18  1  1
 19 21  1  0
 19 20  1  1
 21 23  2  0
 21 22  1  0
M  END
$$$$
