AQI.pdb
     RDKit          3D

 23 22  0  0  1  0  0  0  0  0999 V2000
   27.9534  -20.0227  -16.8151 C   0  0  0  0  0  0  0  0  0  0  0  0
   27.1443  -20.9955  -15.9746 C   0  0  2  0  0  0  0  0  0  0  0  0
   25.9858  -21.3988  -16.7522 N   0  0  0  0  0  0  0  0  0  0  0  0
   26.7152  -20.2957  -14.7349 C   0  0  0  0  0  0  0  0  0  0  0  0
   26.8586  -19.0417  -14.5806 O   0  0  0  0  0  0  0  0  0  0  0  0
   21.2960  -21.5077  -13.3393 N   0  0  0  0  0  0  0  0  0  0  0  0
   21.7013  -20.3440  -14.0192 C   0  0  0  0  0  0  0  0  0  0  0  0
   20.9108  -19.6851  -14.7129 O   0  0  0  0  0  0  0  0  0  0  0  0
   23.1428  -19.9043  -13.8861 C   0  0  0  0  0  0  0  0  0  0  0  0
   23.8288  -20.8419  -12.9412 C   0  0  0  0  0  0  0  0  0  0  0  0
   25.2525  -20.4806  -12.7004 C   0  0  2  0  0  0  0  0  0  0  0  0
   26.1292  -21.0747  -13.7047 N   0  0  0  0  0  0  0  0  0  0  0  0
   25.7062  -20.9491  -11.3731 C   0  0  0  0  0  0  0  0  0  0  0  0
   25.9554  -22.1660  -11.1772 O   0  0  0  0  0  0  0  0  0  0  0  0
   28.5213  -19.4010   -6.1671 C   0  0  0  0  0  0  0  0  0  0  0  0
   27.5615  -20.3104   -6.9310 C   0  0  0  0  0  0  0  0  0  0  0  0
   27.1586  -19.6958   -8.2393 C   0  0  2  0  0  0  0  0  0  0  0  0
   26.5500  -18.3400   -7.9420 C   0  0  0  0  0  0  0  0  0  0  0  0
   26.2402  -20.5928   -8.9879 C   0  0  2  0  0  0  0  0  0  0  0  0
   25.8725  -20.0288  -10.2793 N   0  0  0  0  0  0  0  0  0  0  0  0
   24.9967  -20.9174   -8.2481 C   0  0  0  0  0  0  0  0  0  0  0  0
   23.7434  -20.4545   -8.7178 O   0  0  0  0  0  0  0  0  0  0  0  0
   24.9530  -21.5952   -7.1971 O   0  0  0  0  0  0  0  0  0  0  0  0
  2  3  1  0
  2  1  1  6
  4  5  2  0
  4  2  1  0
  6  7  1  0
  7  8  2  0
  9  7  1  0
  9 10  1  0
 11 10  1  6
 11 13  1  0
 11 12  1  0
 12  4  1  0
 13 20  1  0
 14 13  2  0
 16 15  1  0
 17 19  1  0
 17 16  1  0
 17 18  1  1
 19 21  1  0
 19 20  1  6
 21 23  2  0
 21 22  1  0
M  END
$$$$
