AQI.pdb
     RDKit          3D

 23 22  0  0  1  0  0  0  0  0999 V2000
   18.6714  -15.3897  -16.1527 C   0  0  0  0  0  0  0  0  0  0  0  0
   17.4605  -14.4925  -15.9631 C   0  0  2  0  0  0  0  0  0  0  0  0
   16.4446  -14.9090  -16.9140 N   0  0  0  0  0  0  0  0  0  0  0  0
   17.8733  -13.0894  -16.2309 C   0  0  0  0  0  0  0  0  0  0  0  0
   18.7489  -12.7959  -17.1049 O   0  0  0  0  0  0  0  0  0  0  0  0
   14.3509   -8.2667  -14.6380 N   0  0  0  0  0  0  0  0  0  0  0  0
   15.5013   -7.5460  -15.0093 C   0  0  0  0  0  0  0  0  0  0  0  0
   15.5350   -6.3060  -14.9700 O   0  0  0  0  0  0  0  0  0  0  0  0
   16.7161   -8.3244  -15.4646 C   0  0  0  0  0  0  0  0  0  0  0  0
   16.4057   -9.7840  -15.3397 C   0  0  0  0  0  0  0  0  0  0  0  0
   17.5579  -10.6530  -15.7041 C   0  0  2  0  0  0  0  0  0  0  0  0
   17.2553  -12.0620  -15.4732 N   0  0  0  0  0  0  0  0  0  0  0  0
   18.7567  -10.3137  -14.9074 C   0  0  0  0  0  0  0  0  0  0  0  0
   18.8057  -10.5864  -13.6809 O   0  0  0  0  0  0  0  0  0  0  0  0
   24.5610  -10.8686  -14.4887 C   0  0  0  0  0  0  0  0  0  0  0  0
   23.3695   -9.9866  -14.1225 C   0  0  0  0  0  0  0  0  0  0  0  0
   22.2149  -10.2231  -15.0513 C   0  0  2  0  0  0  0  0  0  0  0  0
   22.6924   -9.9353  -16.4606 C   0  0  0  0  0  0  0  0  0  0  0  0
   21.0393   -9.4033  -14.6579 C   0  0  2  0  0  0  0  0  0  0  0  0
   19.8903   -9.6664  -15.5132 N   0  0  0  0  0  0  0  0  0  0  0  0
   21.3053   -7.9446  -14.6675 C   0  0  0  0  0  0  0  0  0  0  0  0
   20.6026   -7.0951  -15.5564 O   0  0  0  0  0  0  0  0  0  0  0  0
   22.1335   -7.3696  -13.9262 O   0  0  0  0  0  0  0  0  0  0  0  0
  2  3  1  0
  2  1  1  6
  4  5  2  0
  4  2  1  0
  6  7  1  0
  7  8  2  0
  9  7  1  0
  9 10  1  0
 11 10  1  1
 11 13  1  0
 11 12  1  0
 12  4  1  0
 13 20  1  0
 14 13  2  0
 16 15  1  0
 17 19  1  0
 17 16  1  0
 17 18  1  6
 19 21  1  0
 19 20  1  6
 21 23  2  0
 21 22  1  0
M  END
$$$$
