AQI.pdb
     RDKit          3D

 23 22  0  0  1  0  0  0  0  0999 V2000
   29.0763  -17.9644  -15.3956 C   0  0  0  0  0  0  0  0  0  0  0  0
   27.8388  -18.8342  -15.5342 C   0  0  2  0  0  0  0  0  0  0  0  0
   27.0933  -18.3670  -16.6899 N   0  0  0  0  0  0  0  0  0  0  0  0
   27.0234  -18.6853  -14.2999 C   0  0  0  0  0  0  0  0  0  0  0  0
   26.7414  -17.5473  -13.8075 O   0  0  0  0  0  0  0  0  0  0  0  0
   22.0592  -21.5957  -14.2406 N   0  0  0  0  0  0  0  0  0  0  0  0
   21.9258  -21.1671  -12.9067 C   0  0  0  0  0  0  0  0  0  0  0  0
   20.8651  -21.3107  -12.2785 O   0  0  0  0  0  0  0  0  0  0  0  0
   23.1196  -20.5173  -12.2422 C   0  0  0  0  0  0  0  0  0  0  0  0
   24.2452  -20.4946  -13.2298 C   0  0  0  0  0  0  0  0  0  0  0  0
   25.4687  -19.8361  -12.6963 C   0  0  2  0  0  0  0  0  0  0  0  0
   26.5563  -19.8665  -13.6691 N   0  0  0  0  0  0  0  0  0  0  0  0
   25.9449  -20.5073  -11.4675 C   0  0  0  0  0  0  0  0  0  0  0  0
   26.4657  -21.6503  -11.5261 O   0  0  0  0  0  0  0  0  0  0  0  0
   28.2340  -19.9358   -5.8791 C   0  0  0  0  0  0  0  0  0  0  0  0
   27.4114  -20.7385   -6.8844 C   0  0  0  0  0  0  0  0  0  0  0  0
   27.0091  -19.8903   -8.0550 C   0  0  2  0  0  0  0  0  0  0  0  0
   26.2985  -18.6663   -7.5131 C   0  0  0  0  0  0  0  0  0  0  0  0
   26.1797  -20.6661   -9.0138 C   0  0  2  0  0  0  0  0  0  0  0  0
   25.8245  -19.8721  -10.1819 N   0  0  0  0  0  0  0  0  0  0  0  0
   24.9334  -21.2043   -8.4174 C   0  0  0  0  0  0  0  0  0  0  0  0
   24.9831  -22.3062   -7.5292 O   0  0  0  0  0  0  0  0  0  0  0  0
   23.7880  -20.7513   -8.6386 O   0  0  0  0  0  0  0  0  0  0  0  0
  2  3  1  0
  2  1  1  1
  4  5  2  0
  4  2  1  0
  6  7  1  0
  7  8  2  0
  9  7  1  0
  9 10  1  0
 11 10  1  6
 11 13  1  0
 11 12  1  0
 12  4  1  0
 13 20  1  0
 14 13  2  0
 16 15  1  0
 17 19  1  0
 17 16  1  0
 17 18  1  1
 19 21  1  0
 19 20  1  6
 21 23  2  0
 21 22  1  0
M  END
$$$$
