AQI.pdb
     RDKit          3D

 23 22  0  0  1  0  0  0  0  0999 V2000
   14.6532  -11.7927  -18.7538 C   0  0  0  0  0  0  0  0  0  0  0  0
   15.7361  -11.8723  -17.6916 C   0  0  2  0  0  0  0  0  0  0  0  0
   15.0949  -11.7632  -16.3930 N   0  0  0  0  0  0  0  0  0  0  0  0
   16.6770  -10.7399  -17.8991 C   0  0  0  0  0  0  0  0  0  0  0  0
   17.3686  -10.6192  -18.9592 O   0  0  0  0  0  0  0  0  0  0  0  0
   16.4455   -4.7614  -16.5170 N   0  0  0  0  0  0  0  0  0  0  0  0
   16.0038   -5.6028  -15.4788 C   0  0  0  0  0  0  0  0  0  0  0  0
   15.4862   -5.1482  -14.4465 O   0  0  0  0  0  0  0  0  0  0  0  0
   16.1746   -7.0965  -15.6481 C   0  0  0  0  0  0  0  0  0  0  0  0
   16.8071   -7.3430  -16.9829 C   0  0  0  0  0  0  0  0  0  0  0  0
   17.6236   -8.5871  -17.0145 C   0  0  2  0  0  0  0  0  0  0  0  0
   16.7890   -9.7751  -16.8655 N   0  0  0  0  0  0  0  0  0  0  0  0
   18.6225   -8.5992  -15.9240 C   0  0  0  0  0  0  0  0  0  0  0  0
   18.2837   -8.9043  -14.7521 O   0  0  0  0  0  0  0  0  0  0  0  0
   21.6935  -11.7426  -14.6040 C   0  0  0  0  0  0  0  0  0  0  0  0
   21.4349  -10.7439  -15.7297 C   0  0  0  0  0  0  0  0  0  0  0  0
   22.0098   -9.3972  -15.4016 C   0  0  2  0  0  0  0  0  0  0  0  0
   23.0048   -9.5846  -14.2739 C   0  0  0  0  0  0  0  0  0  0  0  0
   20.9344   -8.4260  -15.0715 C   0  0  2  0  0  0  0  0  0  0  0  0
   19.9991   -8.2639  -16.1760 N   0  0  0  0  0  0  0  0  0  0  0  0
   21.4434   -7.0868  -14.6892 C   0  0  0  0  0  0  0  0  0  0  0  0
   21.9221   -6.8510  -13.3773 O   0  0  0  0  0  0  0  0  0  0  0  0
   21.4902   -6.0999  -15.4573 O   0  0  0  0  0  0  0  0  0  0  0  0
  2  3  1  0
  2  1  1  6
  4  5  2  0
  4  2  1  0
  6  7  1  0
  7  8  2  0
  9  7  1  0
  9 10  1  0
 11 10  1  1
 11 13  1  0
 11 12  1  0
 12  4  1  0
 13 20  1  0
 14 13  2  0
 16 15  1  0
 17 19  1  0
 17 16  1  0
 17 18  1  1
 19 21  1  0
 19 20  1  6
 21 23  2  0
 21 22  1  0
M  END
$$$$
