AQI.pdb
     RDKit          3D

 23 22  0  0  1  0  0  0  0  0999 V2000
   21.5267  -20.6147  -11.1017 C   0  0  0  0  0  0  0  0  0  0  0  0
   22.8613  -21.2743  -10.7998 C   0  0  2  0  0  0  0  0  0  0  0  0
   23.1761  -21.0238   -9.4041 N   0  0  0  0  0  0  0  0  0  0  0  0
   23.8930  -20.6633  -11.6789 C   0  0  0  0  0  0  0  0  0  0  0  0
   24.5252  -19.6099  -11.3506 O   0  0  0  0  0  0  0  0  0  0  0  0
   26.8623  -24.2093  -15.7048 N   0  0  0  0  0  0  0  0  0  0  0  0
   27.5561  -23.0120  -15.9612 C   0  0  0  0  0  0  0  0  0  0  0  0
   28.5524  -22.9810  -16.7007 O   0  0  0  0  0  0  0  0  0  0  0  0
   27.0562  -21.7425  -15.3074 C   0  0  0  0  0  0  0  0  0  0  0  0
   25.8699  -22.0914  -14.4629 C   0  0  0  0  0  0  0  0  0  0  0  0
   25.3126  -20.9180  -13.7362 C   0  0  2  0  0  0  0  0  0  0  0  0
   24.1631  -21.2948  -12.9197 N   0  0  0  0  0  0  0  0  0  0  0  0
   24.8707  -19.8665  -14.6776 C   0  0  0  0  0  0  0  0  0  0  0  0
   23.7053  -19.8816  -15.1495 O   0  0  0  0  0  0  0  0  0  0  0  0
   25.7342  -13.9485  -15.9179 C   0  0  0  0  0  0  0  0  0  0  0  0
   25.2189  -15.3161  -16.3605 C   0  0  0  0  0  0  0  0  0  0  0  0
   25.7042  -16.4004  -15.4438 C   0  0  2  0  0  0  0  0  0  0  0  0
   27.2180  -16.3333  -15.4136 C   0  0  0  0  0  0  0  0  0  0  0  0
   25.1905  -17.7278  -15.8713 C   0  0  2  0  0  0  0  0  0  0  0  0
   25.7590  -18.8061  -15.0744 N   0  0  0  0  0  0  0  0  0  0  0  0
   25.4366  -18.0245  -17.3032 C   0  0  0  0  0  0  0  0  0  0  0  0
   26.4754  -18.9093  -17.6821 O   0  0  0  0  0  0  0  0  0  0  0  0
   24.7784  -17.5407  -18.2512 O   0  0  0  0  0  0  0  0  0  0  0  0
  2  3  1  0
  2  1  1  6
  4  5  2  0
  4  2  1  0
  6  7  1  0
  7  8  2  0
  9  7  1  0
  9 10  1  0
 11 10  1  6
 11 13  1  0
 11 12  1  0
 12  4  1  0
 13 20  1  0
 14 13  2  0
 16 15  1  0
 17 19  1  0
 17 16  1  0
 17 18  1  6
 19 21  1  0
 19 20  1  1
 21 23  2  0
 21 22  1  0
M  END
$$$$
