AQI.pdb
     RDKit          3D

 23 22  0  0  1  0  0  0  0  0999 V2000
   20.0344  -17.8277  -15.2153 C   0  0  0  0  0  0  0  0  0  0  0  0
   20.6626  -18.9408  -16.0361 C   0  0  2  0  0  0  0  0  0  0  0  0
   19.5901  -19.6786  -16.6803 N   0  0  0  0  0  0  0  0  0  0  0  0
   21.4193  -19.8294  -15.1150 C   0  0  0  0  0  0  0  0  0  0  0  0
   20.9187  -20.2646  -14.0301 O   0  0  0  0  0  0  0  0  0  0  0  0
   22.7830  -24.2042  -14.5706 N   0  0  0  0  0  0  0  0  0  0  0  0
   24.1601  -24.2188  -14.2806 C   0  0  0  0  0  0  0  0  0  0  0  0
   24.6647  -25.0906  -13.5556 O   0  0  0  0  0  0  0  0  0  0  0  0
   25.0278  -23.1337  -14.8793 C   0  0  0  0  0  0  0  0  0  0  0  0
   24.1375  -22.1800  -15.6144 C   0  0  0  0  0  0  0  0  0  0  0  0
   23.5053  -21.1728  -14.7193 C   0  0  2  0  0  0  0  0  0  0  0  0
   22.7414  -20.1896  -15.4807 N   0  0  0  0  0  0  0  0  0  0  0  0
   24.5230  -20.4419  -13.9336 C   0  0  0  0  0  0  0  0  0  0  0  0
   25.1201  -19.4517  -14.4277 O   0  0  0  0  0  0  0  0  0  0  0  0
   26.1077  -20.9260   -8.1820 C   0  0  0  0  0  0  0  0  0  0  0  0
   26.3659  -21.0187   -9.6841 C   0  0  0  0  0  0  0  0  0  0  0  0
   25.5800  -19.9833  -10.4337 C   0  0  2  0  0  0  0  0  0  0  0  0
   24.1158  -20.1868  -10.0997 C   0  0  0  0  0  0  0  0  0  0  0  0
   25.8585  -20.0566  -11.8917 C   0  0  2  0  0  0  0  0  0  0  0  0
   24.8529  -20.8439  -12.5918 N   0  0  0  0  0  0  0  0  0  0  0  0
   27.1949  -20.6138  -12.2116 C   0  0  0  0  0  0  0  0  0  0  0  0
   28.3514  -19.8030  -12.1085 O   0  0  0  0  0  0  0  0  0  0  0  0
   27.4025  -21.7910  -12.5820 O   0  0  0  0  0  0  0  0  0  0  0  0
  2  3  1  0
  2  1  1  1
  4  5  2  0
  4  2  1  0
  6  7  1  0
  7  8  2  0
  9  7  1  0
  9 10  1  0
 11 10  1  6
 11 13  1  0
 11 12  1  0
 12  4  1  0
 13 20  1  0
 14 13  2  0
 16 15  1  0
 17 19  1  0
 17 16  1  0
 17 18  1  6
 19 21  1  0
 19 20  1  6
 21 23  2  0
 21 22  1  0
M  END
$$$$
