AQI.pdb
     RDKit          3D

 23 22  0  0  1  0  0  0  0  0999 V2000
   22.9166  -20.6630  -18.7461 C   0  0  0  0  0  0  0  0  0  0  0  0
   23.3246  -19.6669  -17.6744 C   0  0  2  0  0  0  0  0  0  0  0  0
   24.1537  -18.6526  -18.3018 N   0  0  0  0  0  0  0  0  0  0  0  0
   24.0979  -20.3931  -16.6326 C   0  0  0  0  0  0  0  0  0  0  0  0
   23.6117  -21.3776  -15.9913 O   0  0  0  0  0  0  0  0  0  0  0  0
   28.1928  -18.9834  -13.2039 N   0  0  0  0  0  0  0  0  0  0  0  0
   28.8396  -20.2260  -13.3397 C   0  0  0  0  0  0  0  0  0  0  0  0
   29.6308  -20.6467  -12.4810 O   0  0  0  0  0  0  0  0  0  0  0  0
   28.5474  -21.0526  -14.5726 C   0  0  0  0  0  0  0  0  0  0  0  0
   27.6682  -20.2441  -15.4759 C   0  0  0  0  0  0  0  0  0  0  0  0
   26.2221  -20.5499  -15.3001 C   0  0  2  0  0  0  0  0  0  0  0  0
   25.4194  -19.9542  -16.3635 N   0  0  0  0  0  0  0  0  0  0  0  0
   25.7183  -20.0298  -14.0106 C   0  0  0  0  0  0  0  0  0  0  0  0
   25.5732  -18.7932  -13.8346 O   0  0  0  0  0  0  0  0  0  0  0  0
   21.5036  -19.7296  -10.1307 C   0  0  0  0  0  0  0  0  0  0  0  0
   23.0234  -19.6930  -10.2740 C   0  0  0  0  0  0  0  0  0  0  0  0
   23.4635  -20.3560  -11.5462 C   0  0  2  0  0  0  0  0  0  0  0  0
   22.9075  -21.7659  -11.5458 C   0  0  0  0  0  0  0  0  0  0  0  0
   24.9428  -20.3155  -11.6829 C   0  0  2  0  0  0  0  0  0  0  0  0
   25.3839  -20.9214  -12.9317 N   0  0  0  0  0  0  0  0  0  0  0  0
   25.6588  -20.9752  -10.5644 C   0  0  0  0  0  0  0  0  0  0  0  0
   26.5003  -22.0873  -10.8107 O   0  0  0  0  0  0  0  0  0  0  0  0
   25.5828  -20.6212   -9.3666 O   0  0  0  0  0  0  0  0  0  0  0  0
  2  3  1  0
  2  1  1  6
  4  5  2  0
  4  2  1  0
  6  7  1  0
  7  8  2  0
  9  7  1  0
  9 10  1  0
 11 10  1  6
 11 13  1  0
 11 12  1  0
 12  4  1  0
 13 20  1  0
 14 13  2  0
 16 15  1  0
 17 19  1  0
 17 16  1  0
 17 18  1  1
 19 21  1  0
 19 20  1  6
 21 23  2  0
 21 22  1  0
M  END
$$$$
