AQI.pdb
     RDKit          3D

 23 22  0  0  1  0  0  0  0  0999 V2000
   28.3546  -20.4678  -11.6284 C   0  0  0  0  0  0  0  0  0  0  0  0
   26.8860  -20.7807  -11.3991 C   0  0  2  0  0  0  0  0  0  0  0  0
   26.8026  -22.0825  -10.7602 N   0  0  0  0  0  0  0  0  0  0  0  0
   26.2036  -20.8097  -12.7198 C   0  0  0  0  0  0  0  0  0  0  0  0
   26.1651  -21.8572  -13.4396 O   0  0  0  0  0  0  0  0  0  0  0  0
   20.7614  -20.1032  -13.2576 N   0  0  0  0  0  0  0  0  0  0  0  0
   20.9641  -20.0198  -14.6478 C   0  0  0  0  0  0  0  0  0  0  0  0
   20.0234  -20.1194  -15.4512 O   0  0  0  0  0  0  0  0  0  0  0  0
   22.3737  -19.8029  -15.1526 C   0  0  0  0  0  0  0  0  0  0  0  0
   23.2837  -19.7186  -13.9663 C   0  0  0  0  0  0  0  0  0  0  0  0
   24.7182  -19.6002  -14.3456 C   0  0  2  0  0  0  0  0  0  0  0  0
   25.5825  -19.6167  -13.1697 N   0  0  0  0  0  0  0  0  0  0  0  0
   24.9760  -18.3404  -15.0761 C   0  0  0  0  0  0  0  0  0  0  0  0
   24.8620  -17.2313  -14.4948 O   0  0  0  0  0  0  0  0  0  0  0  0
   29.3789  -17.4794  -17.6083 C   0  0  0  0  0  0  0  0  0  0  0  0
   28.0265  -17.5369  -16.9017 C   0  0  0  0  0  0  0  0  0  0  0  0
   26.9258  -17.0512  -17.7985 C   0  0  2  0  0  0  0  0  0  0  0  0
   27.3140  -15.6740  -18.2980 C   0  0  0  0  0  0  0  0  0  0  0  0
   25.6186  -17.0651  -17.0915 C   0  0  2  0  0  0  0  0  0  0  0  0
   25.3616  -18.3532  -16.4625 N   0  0  0  0  0  0  0  0  0  0  0  0
   24.4686  -16.7344  -17.9673 C   0  0  0  0  0  0  0  0  0  0  0  0
   23.9094  -17.7202  -18.8164 O   0  0  0  0  0  0  0  0  0  0  0  0
   23.9223  -15.6101  -18.0265 O   0  0  0  0  0  0  0  0  0  0  0  0
  2  3  1  0
  2  1  1  6
  4  5  2  0
  4  2  1  0
  6  7  1  0
  7  8  2  0
  9  7  1  0
  9 10  1  0
 11 10  1  1
 11 13  1  0
 11 12  1  0
 12  4  1  0
 13 20  1  0
 14 13  2  0
 16 15  1  0
 17 19  1  0
 17 16  1  0
 17 18  1  1
 19 21  1  0
 19 20  1  6
 21 23  2  0
 21 22  1  0
M  END
$$$$
