AQI.pdb
     RDKit          3D

 23 22  0  0  1  0  0  0  0  0999 V2000
   24.7540  -20.5850   -9.1662 C   0  0  0  0  0  0  0  0  0  0  0  0
   23.3984  -20.5594   -9.8510 C   0  0  2  0  0  0  0  0  0  0  0  0
   22.6034  -21.6457   -9.3055 N   0  0  0  0  0  0  0  0  0  0  0  0
   23.6089  -20.7564  -11.3096 C   0  0  0  0  0  0  0  0  0  0  0  0
   24.4509  -21.5931  -11.7656 O   0  0  0  0  0  0  0  0  0  0  0  0
   21.8914  -23.0865  -15.0150 N   0  0  0  0  0  0  0  0  0  0  0  0
   21.7823  -22.1494  -16.0594 C   0  0  0  0  0  0  0  0  0  0  0  0
   21.8371  -22.4918  -17.2511 O   0  0  0  0  0  0  0  0  0  0  0  0
   21.5940  -20.6930  -15.6959 C   0  0  0  0  0  0  0  0  0  0  0  0
   21.5867  -20.5846  -14.2023 C   0  0  0  0  0  0  0  0  0  0  0  0
   22.9022  -20.1645  -13.6470 C   0  0  2  0  0  0  0  0  0  0  0  0
   22.8328  -19.9732  -12.2017 N   0  0  0  0  0  0  0  0  0  0  0  0
   23.3548  -18.8915  -14.2483 C   0  0  0  0  0  0  0  0  0  0  0  0
   22.8264  -17.8022  -13.9086 O   0  0  0  0  0  0  0  0  0  0  0  0
   26.3308  -14.8258  -15.3194 C   0  0  0  0  0  0  0  0  0  0  0  0
   26.5910  -15.9907  -16.2717 C   0  0  0  0  0  0  0  0  0  0  0  0
   26.2224  -17.3004  -15.6387 C   0  0  2  0  0  0  0  0  0  0  0  0
   27.0898  -18.3738  -16.2651 C   0  0  0  0  0  0  0  0  0  0  0  0
   24.7683  -17.5708  -15.7843 C   0  0  2  0  0  0  0  0  0  0  0  0
   24.4052  -18.8685  -15.2317 N   0  0  0  0  0  0  0  0  0  0  0  0
   24.2927  -17.5103  -17.1875 C   0  0  0  0  0  0  0  0  0  0  0  0
   24.2903  -18.6752  -17.9929 O   0  0  0  0  0  0  0  0  0  0  0  0
   23.8737  -16.4742  -17.7503 O   0  0  0  0  0  0  0  0  0  0  0  0
  2  3  1  0
  2  1  1  1
  4  5  2  0
  4  2  1  0
  6  7  1  0
  7  8  2  0
  9  7  1  0
  9 10  1  0
 11 10  1  6
 11 13  1  0
 11 12  1  0
 12  4  1  0
 13 20  1  0
 14 13  2  0
 16 15  1  0
 17 19  1  0
 17 16  1  0
 17 18  1  6
 19 21  1  0
 19 20  1  6
 21 23  2  0
 21 22  1  0
M  END
$$$$
