AQI.pdb
     RDKit          3D

 23 22  0  0  1  0  0  0  0  0999 V2000
   15.3468  -13.5688  -17.5859 C   0  0  0  0  0  0  0  0  0  0  0  0
   16.2017  -13.1714  -16.3948 C   0  0  2  0  0  0  0  0  0  0  0  0
   15.3204  -12.9926  -15.2542 N   0  0  0  0  0  0  0  0  0  0  0  0
   16.8898  -11.8942  -16.7201 C   0  0  0  0  0  0  0  0  0  0  0  0
   17.6562  -11.7751  -17.7277 O   0  0  0  0  0  0  0  0  0  0  0  0
   14.7068   -6.3750  -15.2813 N   0  0  0  0  0  0  0  0  0  0  0  0
   14.4789   -6.9938  -16.5246 C   0  0  0  0  0  0  0  0  0  0  0  0
   13.5895   -6.6004  -17.2956 O   0  0  0  0  0  0  0  0  0  0  0  0
   15.3532   -8.1669  -16.9098 C   0  0  0  0  0  0  0  0  0  0  0  0
   16.3618   -8.3711  -15.8219 C   0  0  0  0  0  0  0  0  0  0  0  0
   17.2985   -9.4926  -16.1053 C   0  0  2  0  0  0  0  0  0  0  0  0
   16.6681  -10.7864  -15.8628 N   0  0  0  0  0  0  0  0  0  0  0  0
   18.5034   -9.4118  -15.2516 C   0  0  0  0  0  0  0  0  0  0  0  0
   18.4529   -9.7549  -14.0429 O   0  0  0  0  0  0  0  0  0  0  0  0
   24.0766  -10.9069  -14.4409 C   0  0  0  0  0  0  0  0  0  0  0  0
   23.0217   -9.8427  -14.1468 C   0  0  0  0  0  0  0  0  0  0  0  0
   21.8832   -9.9250  -15.1209 C   0  0  2  0  0  0  0  0  0  0  0  0
   22.4673   -9.8526  -16.5175 C   0  0  0  0  0  0  0  0  0  0  0  0
   20.8788   -8.8621  -14.8560 C   0  0  2  0  0  0  0  0  0  0  0  0
   19.7562   -8.9411  -15.7805 N   0  0  0  0  0  0  0  0  0  0  0  0
   21.4388   -7.4904  -14.9164 C   0  0  0  0  0  0  0  0  0  0  0  0
   21.9348   -6.8680  -13.7450 O   0  0  0  0  0  0  0  0  0  0  0  0
   21.5161   -6.8010  -15.9579 O   0  0  0  0  0  0  0  0  0  0  0  0
  2  3  1  0
  2  1  1  6
  4  5  2  0
  4  2  1  0
  6  7  1  0
  7  8  2  0
  9  7  1  0
  9 10  1  0
 11 10  1  1
 11 13  1  0
 11 12  1  0
 12  4  1  0
 13 20  1  0
 14 13  2  0
 16 15  1  0
 17 19  1  0
 17 16  1  0
 17 18  1  6
 19 21  1  0
 19 20  1  6
 21 23  2  0
 21 22  1  0
M  END
$$$$
