CII.pdb
     RDKit          3D

 23 22  0  0  1  0  0  0  0  0999 V2000
    8.9687  -16.3276   19.8041 N   0  0  0  0  0  0  0  0  0  0  0  0
    8.1757  -16.5687   20.9724 C   0  0  1  0  0  0  0  0  0  0  0  0
    8.1634  -18.0121   21.3997 C   0  0  0  0  0  0  0  0  0  0  0  0
    9.7905  -18.7849   21.3016 S   0  0  0  0  0  0  0  0  0  0  0  0
    8.5856  -15.7502   22.1311 C   0  0  0  0  0  0  0  0  0  0  0  0
    9.7745  -15.3398   22.1645 O   0  0  0  0  0  0  0  0  0  0  0  0
    6.4409  -11.8038   26.2223 C   0  0  0  0  0  0  0  0  0  0  0  0
    7.6347  -12.5814   25.6971 C   0  0  0  0  0  0  0  0  0  0  0  0
    7.1014  -13.7071   24.8599 C   0  0  2  0  0  0  0  0  0  0  0  0
    6.2518  -14.6048   25.7181 C   0  0  0  0  0  0  0  0  0  0  0  0
    8.1990  -14.5566   24.2579 C   0  0  2  0  0  0  0  0  0  0  0  0
    7.7342  -15.3983   23.2018 N   0  0  0  0  0  0  0  0  0  0  0  0
    8.9266  -15.3324   25.2936 C   0  0  0  0  0  0  0  0  0  0  0  0
    8.4431  -16.4016   25.7351 O   0  0  0  0  0  0  0  0  0  0  0  0
   10.7970  -14.3437   30.5143 C   0  0  0  0  0  0  0  0  0  0  0  0
   11.4435  -15.0178   29.3139 C   0  0  0  0  0  0  0  0  0  0  0  0
   10.8599  -14.5662   28.0302 C   0  0  2  0  0  0  0  0  0  0  0  0
    9.4427  -14.0455   28.1635 C   0  0  0  0  0  0  0  0  0  0  0  0
   10.8518  -15.5622   26.9065 C   0  0  2  0  0  0  0  0  0  0  0  0
   10.1673  -14.8926   25.8030 N   0  0  0  0  0  0  0  0  0  0  0  0
   10.1963  -16.8071   27.2857 C   0  0  0  0  0  0  0  0  0  0  0  0
   10.9250  -17.9047   27.6620 O   0  0  0  0  0  0  0  0  0  0  0  0
    8.9361  -16.9444   27.2869 O   0  0  0  0  0  0  0  0  0  0  0  0
  2  1  1  6
  3  2  1  0
  3  4  1  0
  5  6  2  0
  5  2  1  0
  8  7  1  0
  8  9  1  0
  9 11  1  0
  9 10  1  1
 11 13  1  0
 11 12  1  6
 12  5  1  0
 13 20  1  0
 14 13  2  0
 15 16  1  0
 17 19  1  0
 17 16  1  0
 17 18  1  1
 19 21  1  0
 19 20  1  6
 21 23  2  0
 21 22  1  0
M  END
$$$$
