CII.pdb
     RDKit          3D

 23 22  0  0  1  0  0  0  0  0999 V2000
    8.0878  -14.6086   20.4001 N   0  0  0  0  0  0  0  0  0  0  0  0
    7.4026  -15.2118   21.5040 C   0  0  1  0  0  0  0  0  0  0  0  0
    7.2388  -16.7018   21.3646 C   0  0  0  0  0  0  0  0  0  0  0  0
    6.2885  -17.4306   22.7137 S   0  0  0  0  0  0  0  0  0  0  0  0
    8.0460  -14.9403   22.8050 C   0  0  0  0  0  0  0  0  0  0  0  0
    9.3036  -14.9364   22.8447 O   0  0  0  0  0  0  0  0  0  0  0  0
    5.9306  -11.5326   26.5660 C   0  0  0  0  0  0  0  0  0  0  0  0
    6.8167  -12.2375   25.5544 C   0  0  0  0  0  0  0  0  0  0  0  0
    7.2498  -13.5367   26.1685 C   0  0  2  0  0  0  0  0  0  0  0  0
    8.1203  -13.2554   27.3633 C   0  0  0  0  0  0  0  0  0  0  0  0
    8.0495  -14.3951   25.2133 C   0  0  2  0  0  0  0  0  0  0  0  0
    7.3459  -14.6854   24.0049 N   0  0  0  0  0  0  0  0  0  0  0  0
    8.5448  -15.6327   25.8669 C   0  0  0  0  0  0  0  0  0  0  0  0
    7.7335  -16.4600   26.3457 O   0  0  0  0  0  0  0  0  0  0  0  0
   14.1431  -16.7865   25.4541 C   0  0  0  0  0  0  0  0  0  0  0  0
   12.8701  -16.4608   26.2200 C   0  0  0  0  0  0  0  0  0  0  0  0
   11.7600  -17.3831   25.8891 C   0  0  2  0  0  0  0  0  0  0  0  0
   11.4702  -17.4677   24.4038 C   0  0  0  0  0  0  0  0  0  0  0  0
   10.4473  -17.1301   26.5730 C   0  0  2  0  0  0  0  0  0  0  0  0
    9.9256  -15.9080   25.9657 N   0  0  0  0  0  0  0  0  0  0  0  0
   10.5996  -17.0051   28.0168 C   0  0  0  0  0  0  0  0  0  0  0  0
   10.4320  -15.7988   28.6444 O   0  0  0  0  0  0  0  0  0  0  0  0
   10.8932  -17.9878   28.7617 O   0  0  0  0  0  0  0  0  0  0  0  0
  2  1  1  6
  3  2  1  0
  3  4  1  0
  5  6  2  0
  5  2  1  0
  8  7  1  0
  8  9  1  0
  9 11  1  0
  9 10  1  1
 11 13  1  0
 11 12  1  6
 12  5  1  0
 13 20  1  0
 14 13  2  0
 15 16  1  0
 17 19  1  0
 17 16  1  0
 17 18  1  6
 19 21  1  0
 19 20  1  6
 21 23  2  0
 21 22  1  0
M  END
$$$$
