CII.pdb
     RDKit          3D

 23 22  0  0  1  0  0  0  0  0999 V2000
   12.1791  -17.5602   19.9322 N   0  0  0  0  0  0  0  0  0  0  0  0
   11.0278  -17.8454   20.7355 C   0  0  1  0  0  0  0  0  0  0  0  0
   11.2580  -18.9392   21.7440 C   0  0  0  0  0  0  0  0  0  0  0  0
    9.7882  -19.3099   22.7220 S   0  0  0  0  0  0  0  0  0  0  0  0
   10.5121  -16.6616   21.4518 C   0  0  0  0  0  0  0  0  0  0  0  0
   11.3265  -15.9973   22.1435 O   0  0  0  0  0  0  0  0  0  0  0  0
    7.1532  -12.8729   19.4671 C   0  0  0  0  0  0  0  0  0  0  0  0
    8.2841  -13.6336   20.1364 C   0  0  0  0  0  0  0  0  0  0  0  0
    7.7321  -14.2400   21.3934 C   0  0  2  0  0  0  0  0  0  0  0  0
    7.2775  -13.1420   22.3164 C   0  0  0  0  0  0  0  0  0  0  0  0
    8.7551  -15.0685   22.1390 C   0  0  2  0  0  0  0  0  0  0  0  0
    9.1690  -16.2262   21.4123 N   0  0  0  0  0  0  0  0  0  0  0  0
    8.2910  -15.4190   23.5050 C   0  0  0  0  0  0  0  0  0  0  0  0
    7.4148  -16.3014   23.6655 O   0  0  0  0  0  0  0  0  0  0  0  0
    5.8689  -12.2770   26.7552 C   0  0  0  0  0  0  0  0  0  0  0  0
    6.4389  -13.5047   26.0616 C   0  0  0  0  0  0  0  0  0  0  0  0
    7.7898  -13.8563   26.5553 C   0  0  2  0  0  0  0  0  0  0  0  0
    8.8086  -12.7513   26.3594 C   0  0  0  0  0  0  0  0  0  0  0  0
    8.4021  -15.1125   26.0058 C   0  0  2  0  0  0  0  0  0  0  0  0
    8.8172  -14.7761   24.6461 N   0  0  0  0  0  0  0  0  0  0  0  0
    7.4694  -16.2318   26.0350 C   0  0  0  0  0  0  0  0  0  0  0  0
    6.7515  -16.5842   24.9226 O   0  0  0  0  0  0  0  0  0  0  0  0
    7.2706  -16.9302   27.0741 O   0  0  0  0  0  0  0  0  0  0  0  0
  2  1  1  1
  3  2  1  0
  3  4  1  0
  5  6  2  0
  5  2  1  0
  8  7  1  0
  8  9  1  0
  9 11  1  0
  9 10  1  1
 11 13  1  0
 11 12  1  6
 12  5  1  0
 13 20  1  0
 14 13  2  0
 15 16  1  0
 17 19  1  0
 17 16  1  0
 17 18  1  6
 19 21  1  0
 19 20  1  6
 21 23  2  0
 21 22  1  0
M  END
$$$$
