CII.pdb
     RDKit          3D

 23 22  0  0  1  0  0  0  0  0999 V2000
   11.5294  -18.0143   19.7267 N   0  0  0  0  0  0  0  0  0  0  0  0
   10.3710  -18.1121   20.5636 C   0  0  1  0  0  0  0  0  0  0  0  0
   10.4659  -19.2086   21.5908 C   0  0  0  0  0  0  0  0  0  0  0  0
    9.0694  -19.2205   22.7327 S   0  0  0  0  0  0  0  0  0  0  0  0
   10.0537  -16.8521   21.2651 C   0  0  0  0  0  0  0  0  0  0  0  0
   10.9873  -16.2759   21.8812 O   0  0  0  0  0  0  0  0  0  0  0  0
    7.3191  -12.6541   19.3710 C   0  0  0  0  0  0  0  0  0  0  0  0
    8.3293  -13.5465   20.0703 C   0  0  0  0  0  0  0  0  0  0  0  0
    7.6812  -14.0583   21.3235 C   0  0  2  0  0  0  0  0  0  0  0  0
    7.4367  -12.9076   22.2617 C   0  0  0  0  0  0  0  0  0  0  0  0
    8.5398  -15.0677   22.0534 C   0  0  2  0  0  0  0  0  0  0  0  0
    8.7754  -16.2519   21.2906 N   0  0  0  0  0  0  0  0  0  0  0  0
    7.9961  -15.3842   23.3981 C   0  0  0  0  0  0  0  0  0  0  0  0
    6.9488  -16.0645   23.5098 O   0  0  0  0  0  0  0  0  0  0  0  0
    5.9079  -12.1864   26.6536 C   0  0  0  0  0  0  0  0  0  0  0  0
    6.4019  -13.4168   25.9085 C   0  0  0  0  0  0  0  0  0  0  0  0
    7.6566  -13.9573   26.4795 C   0  0  2  0  0  0  0  0  0  0  0  0
    8.8160  -12.9833   26.4142 C   0  0  0  0  0  0  0  0  0  0  0  0
    8.1499  -15.2571   25.9122 C   0  0  2  0  0  0  0  0  0  0  0  0
    8.6356  -14.9334   24.5728 N   0  0  0  0  0  0  0  0  0  0  0  0
    7.1055  -16.2730   25.8878 C   0  0  0  0  0  0  0  0  0  0  0  0
    6.9244  -17.1275   26.9434 O   0  0  0  0  0  0  0  0  0  0  0  0
    6.3197  -16.4234   24.9045 O   0  0  0  0  0  0  0  0  0  0  0  0
  2  1  1  1
  3  2  1  0
  3  4  1  0
  5  6  2  0
  5  2  1  0
  8  7  1  0
  8  9  1  0
  9 11  1  0
  9 10  1  1
 11 13  1  0
 11 12  1  6
 12  5  1  0
 13 20  1  0
 14 13  2  0
 15 16  1  0
 17 19  1  0
 17 16  1  0
 17 18  1  6
 19 21  1  0
 19 20  1  6
 21 23  2  0
 21 22  1  0
M  END
$$$$
