CII.pdb
     RDKit          3D

 23 22  0  0  1  0  0  0  0  0999 V2000
    6.0607  -18.5498   22.2712 N   0  0  0  0  0  0  0  0  0  0  0  0
    5.9651  -17.9566   23.5714 C   0  0  1  0  0  0  0  0  0  0  0  0
    6.2748  -18.9148   24.6905 C   0  0  0  0  0  0  0  0  0  0  0  0
    7.9931  -19.4640   24.6860 S   0  0  0  0  0  0  0  0  0  0  0  0
    6.8273  -16.7686   23.7323 C   0  0  0  0  0  0  0  0  0  0  0  0
    7.8144  -16.6551   22.9605 O   0  0  0  0  0  0  0  0  0  0  0  0
    5.2194  -12.3111   26.7001 C   0  0  0  0  0  0  0  0  0  0  0  0
    5.6301  -13.2226   25.5573 C   0  0  0  0  0  0  0  0  0  0  0  0
    7.0638  -13.6042   25.7833 C   0  0  2  0  0  0  0  0  0  0  0  0
    7.9366  -12.3942   25.5867 C   0  0  0  0  0  0  0  0  0  0  0  0
    7.5412  -14.6718   24.8236 C   0  0  2  0  0  0  0  0  0  0  0  0
    6.6184  -15.7539   24.6924 N   0  0  0  0  0  0  0  0  0  0  0  0
    8.9023  -15.1544   25.1683 C   0  0  0  0  0  0  0  0  0  0  0  0
    9.8596  -14.9520   24.3843 O   0  0  0  0  0  0  0  0  0  0  0  0
   10.2444  -13.6560   29.9070 C   0  0  0  0  0  0  0  0  0  0  0  0
   10.3341  -14.0791   28.4489 C   0  0  0  0  0  0  0  0  0  0  0  0
   10.4816  -15.5442   28.2939 C   0  0  2  0  0  0  0  0  0  0  0  0
   11.7077  -16.1025   28.9882 C   0  0  0  0  0  0  0  0  0  0  0  0
   10.4999  -16.0745   26.8891 C   0  0  2  0  0  0  0  0  0  0  0  0
    9.1523  -15.8456   26.3732 N   0  0  0  0  0  0  0  0  0  0  0  0
   10.8750  -17.4818   26.8422 C   0  0  0  0  0  0  0  0  0  0  0  0
   12.1900  -17.8652   26.8702 O   0  0  0  0  0  0  0  0  0  0  0  0
   10.0208  -18.4159   26.7717 O   0  0  0  0  0  0  0  0  0  0  0  0
  2  1  1  6
  3  2  1  0
  3  4  1  0
  5  6  2  0
  5  2  1  0
  8  7  1  0
  8  9  1  0
  9 11  1  0
  9 10  1  6
 11 13  1  0
 11 12  1  1
 12  5  1  0
 13 20  1  0
 14 13  2  0
 15 16  1  0
 17 19  1  0
 17 16  1  0
 17 18  1  6
 19 21  1  0
 19 20  1  1
 21 23  2  0
 21 22  1  0
M  END
$$$$
