CII.pdb
     RDKit          3D

 23 22  0  0  1  0  0  0  0  0999 V2000
   13.1130  -16.4491   19.9557 N   0  0  0  0  0  0  0  0  0  0  0  0
   12.2696  -17.2678   20.7743 C   0  0  1  0  0  0  0  0  0  0  0  0
   13.0089  -18.3777   21.4730 C   0  0  0  0  0  0  0  0  0  0  0  0
   11.9042  -19.5842   22.2332 S   0  0  0  0  0  0  0  0  0  0  0  0
   11.5262  -16.4992   21.7927 C   0  0  0  0  0  0  0  0  0  0  0  0
   12.1596  -15.6295   22.4450 O   0  0  0  0  0  0  0  0  0  0  0  0
    6.5409  -14.5041   21.0858 C   0  0  0  0  0  0  0  0  0  0  0  0
    8.0094  -14.6611   21.4385 C   0  0  0  0  0  0  0  0  0  0  0  0
    8.0836  -15.5059   22.6768 C   0  0  2  0  0  0  0  0  0  0  0  0
    7.4787  -14.7513   23.8296 C   0  0  0  0  0  0  0  0  0  0  0  0
    9.5046  -15.8585   23.0576 C   0  0  2  0  0  0  0  0  0  0  0  0
   10.1550  -16.6747   22.0827 N   0  0  0  0  0  0  0  0  0  0  0  0
    9.5788  -16.4626   24.4118 C   0  0  0  0  0  0  0  0  0  0  0  0
    9.4090  -17.6958   24.5615 O   0  0  0  0  0  0  0  0  0  0  0  0
   10.3384  -12.7384   28.4845 C   0  0  0  0  0  0  0  0  0  0  0  0
   10.5607  -13.8077   27.4261 C   0  0  0  0  0  0  0  0  0  0  0  0
   10.0298  -15.1277   27.8363 C   0  0  2  0  0  0  0  0  0  0  0  0
   10.5952  -15.6210   29.1532 C   0  0  0  0  0  0  0  0  0  0  0  0
   10.1824  -16.2509   26.8513 C   0  0  2  0  0  0  0  0  0  0  0  0
    9.8393  -15.6745   25.5534 N   0  0  0  0  0  0  0  0  0  0  0  0
    9.3380  -17.3898   27.1877 C   0  0  0  0  0  0  0  0  0  0  0  0
    9.8577  -18.5000   27.7997 O   0  0  0  0  0  0  0  0  0  0  0  0
    8.0960  -17.4192   26.9357 O   0  0  0  0  0  0  0  0  0  0  0  0
  2  1  1  1
  3  2  1  0
  3  4  1  0
  5  6  2  0
  5  2  1  0
  8  7  1  0
  8  9  1  0
  9 11  1  0
  9 10  1  1
 11 13  1  0
 11 12  1  6
 12  5  1  0
 13 20  1  0
 14 13  2  0
 15 16  1  0
 17 19  1  0
 17 16  1  0
 17 18  1  1
 19 21  1  0
 19 20  1  6
 21 23  2  0
 21 22  1  0
M  END
$$$$
