CII.pdb
     RDKit          3D

 23 22  0  0  1  0  0  0  0  0999 V2000
   12.5438  -16.9936   19.1637 N   0  0  0  0  0  0  0  0  0  0  0  0
   11.7116  -17.6248   20.1438 C   0  0  1  0  0  0  0  0  0  0  0  0
   12.3999  -18.7403   20.8843 C   0  0  0  0  0  0  0  0  0  0  0  0
   11.2961  -19.6200   22.0077 S   0  0  0  0  0  0  0  0  0  0  0  0
   11.1683  -16.6794   21.1396 C   0  0  0  0  0  0  0  0  0  0  0  0
   11.9406  -15.7900   21.5821 O   0  0  0  0  0  0  0  0  0  0  0  0
    6.7784  -13.7972   20.4787 C   0  0  0  0  0  0  0  0  0  0  0  0
    8.1657  -14.3156   20.8138 C   0  0  0  0  0  0  0  0  0  0  0  0
    8.0548  -15.0952   22.0914 C   0  0  2  0  0  0  0  0  0  0  0  0
    7.5920  -14.1803   23.1928 C   0  0  0  0  0  0  0  0  0  0  0  0
    9.3736  -15.6980   22.5228 C   0  0  2  0  0  0  0  0  0  0  0  0
    9.8430  -16.7067   21.6274 N   0  0  0  0  0  0  0  0  0  0  0  0
    9.3227  -16.1916   23.9221 C   0  0  0  0  0  0  0  0  0  0  0  0
    9.1436  -17.4108   24.1537 O   0  0  0  0  0  0  0  0  0  0  0  0
   10.0786  -13.4727   29.4423 C   0  0  0  0  0  0  0  0  0  0  0  0
   10.3770  -14.6964   28.5897 C   0  0  0  0  0  0  0  0  0  0  0  0
    9.9509  -14.5220   27.1825 C   0  0  2  0  0  0  0  0  0  0  0  0
    8.5478  -13.9661   27.0429 C   0  0  0  0  0  0  0  0  0  0  0  0
   10.0263  -15.7350   26.3005 C   0  0  2  0  0  0  0  0  0  0  0  0
    9.4728  -15.3125   25.0161 N   0  0  0  0  0  0  0  0  0  0  0  0
    9.3025  -16.8663   26.8658 C   0  0  0  0  0  0  0  0  0  0  0  0
    8.0375  -17.1800   26.4431 O   0  0  0  0  0  0  0  0  0  0  0  0
    9.7923  -17.6108   27.7673 O   0  0  0  0  0  0  0  0  0  0  0  0
  2  1  1  6
  3  2  1  0
  3  4  1  0
  5  6  2  0
  5  2  1  0
  8  7  1  0
  8  9  1  0
  9 11  1  0
  9 10  1  1
 11 13  1  0
 11 12  1  6
 12  5  1  0
 13 20  1  0
 14 13  2  0
 15 16  1  0
 17 19  1  0
 17 16  1  0
 17 18  1  1
 19 21  1  0
 19 20  1  6
 21 23  2  0
 21 22  1  0
M  END
$$$$
