CII.pdb
     RDKit          3D

 23 22  0  0  1  0  0  0  0  0999 V2000
    9.4634  -16.1883   19.8797 N   0  0  0  0  0  0  0  0  0  0  0  0
    8.7707  -16.7258   21.0125 C   0  0  1  0  0  0  0  0  0  0  0  0
    9.0746  -18.1784   21.2656 C   0  0  0  0  0  0  0  0  0  0  0  0
    7.9573  -19.2902   20.3882 S   0  0  0  0  0  0  0  0  0  0  0  0
    9.0298  -15.9785   22.2595 C   0  0  0  0  0  0  0  0  0  0  0  0
   10.1993  -15.5578   22.4556 O   0  0  0  0  0  0  0  0  0  0  0  0
    6.4082  -12.4431   26.4386 C   0  0  0  0  0  0  0  0  0  0  0  0
    7.6470  -13.2310   26.0510 C   0  0  0  0  0  0  0  0  0  0  0  0
    7.2255  -14.2577   25.0407 C   0  0  2  0  0  0  0  0  0  0  0  0
    6.3430  -15.2777   25.7079 C   0  0  0  0  0  0  0  0  0  0  0  0
    8.3990  -14.9959   24.4352 C   0  0  2  0  0  0  0  0  0  0  0  0
    8.0549  -15.7051   23.2443 N   0  0  0  0  0  0  0  0  0  0  0  0
    9.0633  -15.8814   25.4246 C   0  0  0  0  0  0  0  0  0  0  0  0
    8.7237  -17.0845   25.5209 O   0  0  0  0  0  0  0  0  0  0  0  0
   10.6236  -13.8704   30.3592 C   0  0  0  0  0  0  0  0  0  0  0  0
   10.0911  -14.8174   29.2950 C   0  0  0  0  0  0  0  0  0  0  0  0
   11.1501  -15.2798   28.3692 C   0  0  2  0  0  0  0  0  0  0  0  0
   11.8948  -14.1464   27.6924 C   0  0  0  0  0  0  0  0  0  0  0  0
   10.7295  -16.2302   27.2853 C   0  0  2  0  0  0  0  0  0  0  0  0
   10.0826  -15.3986   26.2732 N   0  0  0  0  0  0  0  0  0  0  0  0
    9.8447  -17.2734   27.7876 C   0  0  0  0  0  0  0  0  0  0  0  0
   10.3429  -18.3721   28.4371 O   0  0  0  0  0  0  0  0  0  0  0  0
    8.5851  -17.2260   27.6527 O   0  0  0  0  0  0  0  0  0  0  0  0
  2  1  1  6
  3  2  1  0
  3  4  1  0
  5  6  2  0
  5  2  1  0
  8  7  1  0
  8  9  1  0
  9 11  1  0
  9 10  1  1
 11 13  1  0
 11 12  1  6
 12  5  1  0
 13 20  1  0
 14 13  2  0
 15 16  1  0
 17 19  1  0
 17 16  1  0
 17 18  1  6
 19 21  1  0
 19 20  1  6
 21 23  2  0
 21 22  1  0
M  END
$$$$
