CII.pdb
     RDKit          3D

 23 22  0  0  1  0  0  0  0  0999 V2000
    9.3200  -15.8369   19.7602 N   0  0  0  0  0  0  0  0  0  0  0  0
    8.7093  -16.4472   20.9032 C   0  0  1  0  0  0  0  0  0  0  0  0
    9.1170  -17.8823   21.1046 C   0  0  0  0  0  0  0  0  0  0  0  0
    8.2346  -18.6764   22.4630 S   0  0  0  0  0  0  0  0  0  0  0  0
    8.9683  -15.7157   22.1596 C   0  0  0  0  0  0  0  0  0  0  0  0
   10.1253  -15.2550   22.3389 O   0  0  0  0  0  0  0  0  0  0  0  0
    6.4262  -12.2696   26.4412 C   0  0  0  0  0  0  0  0  0  0  0  0
    7.6506  -13.0602   26.0152 C   0  0  0  0  0  0  0  0  0  0  0  0
    7.2052  -14.0493   24.9781 C   0  0  2  0  0  0  0  0  0  0  0  0
    6.2670  -15.0421   25.6093 C   0  0  0  0  0  0  0  0  0  0  0  0
    8.3576  -14.8265   24.3808 C   0  0  2  0  0  0  0  0  0  0  0  0
    8.0063  -15.4992   23.1709 N   0  0  0  0  0  0  0  0  0  0  0  0
    8.9645  -15.7568   25.3658 C   0  0  0  0  0  0  0  0  0  0  0  0
    8.5854  -16.9507   25.4210 O   0  0  0  0  0  0  0  0  0  0  0  0
   10.6532  -13.9340   30.3444 C   0  0  0  0  0  0  0  0  0  0  0  0
   10.0579  -14.7704   29.2222 C   0  0  0  0  0  0  0  0  0  0  0  0
   11.0939  -15.3335   28.3267 C   0  0  2  0  0  0  0  0  0  0  0  0
   11.9781  -14.2791   27.6913 C   0  0  0  0  0  0  0  0  0  0  0  0
   10.6135  -16.2228   27.2162 C   0  0  2  0  0  0  0  0  0  0  0  0
    9.9726  -15.3278   26.2557 N   0  0  0  0  0  0  0  0  0  0  0  0
    9.7042  -17.2544   27.6981 C   0  0  0  0  0  0  0  0  0  0  0  0
   10.1740  -18.3629   28.3521 O   0  0  0  0  0  0  0  0  0  0  0  0
    8.4481  -17.1878   27.5405 O   0  0  0  0  0  0  0  0  0  0  0  0
  2  1  1  6
  3  2  1  0
  3  4  1  0
  5  6  2  0
  5  2  1  0
  8  7  1  0
  8  9  1  0
  9 11  1  0
  9 10  1  1
 11 13  1  0
 11 12  1  6
 12  5  1  0
 13 20  1  0
 14 13  2  0
 15 16  1  0
 17 19  1  0
 17 16  1  0
 17 18  1  6
 19 21  1  0
 19 20  1  6
 21 23  2  0
 21 22  1  0
M  END
$$$$
