CII.pdb
     RDKit          3D

 23 22  0  0  1  0  0  0  0  0999 V2000
    7.4046  -16.7358   21.2368 N   0  0  0  0  0  0  0  0  0  0  0  0
    6.8847  -16.8632   22.5655 C   0  0  1  0  0  0  0  0  0  0  0  0
    6.7704  -18.2910   23.0289 C   0  0  0  0  0  0  0  0  0  0  0  0
    5.0689  -18.8903   23.0357 S   0  0  0  0  0  0  0  0  0  0  0  0
    7.6684  -16.1159   23.5695 C   0  0  0  0  0  0  0  0  0  0  0  0
    8.9212  -16.1195   23.4528 O   0  0  0  0  0  0  0  0  0  0  0  0
    5.7694  -11.7151   26.2897 C   0  0  0  0  0  0  0  0  0  0  0  0
    6.6688  -12.6066   25.4520 C   0  0  0  0  0  0  0  0  0  0  0  0
    7.2362  -13.6535   26.3656 C   0  0  2  0  0  0  0  0  0  0  0  0
    8.2409  -13.0165   27.2872 C   0  0  0  0  0  0  0  0  0  0  0  0
    7.9430  -14.7609   25.6154 C   0  0  2  0  0  0  0  0  0  0  0  0
    7.1070  -15.3994   24.6495 N   0  0  0  0  0  0  0  0  0  0  0  0
    8.5600  -15.7460   26.5390 C   0  0  0  0  0  0  0  0  0  0  0  0
    7.8362  -16.5172   27.2124 O   0  0  0  0  0  0  0  0  0  0  0  0
   13.4882  -19.0116   26.2345 C   0  0  0  0  0  0  0  0  0  0  0  0
   12.8598  -18.1183   27.2929 C   0  0  0  0  0  0  0  0  0  0  0  0
   11.9431  -17.1117   26.7109 C   0  0  2  0  0  0  0  0  0  0  0  0
   12.5571  -15.7302   26.6018 C   0  0  0  0  0  0  0  0  0  0  0  0
   10.6124  -16.9424   27.3857 C   0  0  2  0  0  0  0  0  0  0  0  0
    9.9611  -15.8399   26.6822 N   0  0  0  0  0  0  0  0  0  0  0  0
   10.7537  -16.6778   28.8117 C   0  0  0  0  0  0  0  0  0  0  0  0
   10.5516  -15.4225   29.3221 O   0  0  0  0  0  0  0  0  0  0  0  0
   11.0684  -17.5779   29.6470 O   0  0  0  0  0  0  0  0  0  0  0  0
  2  1  1  6
  3  2  1  0
  3  4  1  0
  5  6  2  0
  5  2  1  0
  8  7  1  0
  8  9  1  0
  9 11  1  0
  9 10  1  1
 11 13  1  0
 11 12  1  6
 12  5  1  0
 13 20  1  0
 14 13  2  0
 15 16  1  0
 17 19  1  0
 17 16  1  0
 17 18  1  1
 19 21  1  0
 19 20  1  6
 21 23  2  0
 21 22  1  0
M  END
$$$$
