KVA.pdb
     RDKit          3D

 22 21  0  0  1  0  0  0  0  0999 V2000
    8.2741  -14.9774   20.7113 N   0  0  0  0  0  0  0  0  0  0  0  0
    7.5010  -15.3621   21.8565 C   0  0  1  0  0  0  0  0  0  0  0  0
    7.3221  -16.8459   21.9032 C   0  0  0  0  0  0  0  0  0  0  0  0
    6.5422  -17.4153   20.7851 C   0  0  0  0  0  0  0  0  0  0  0  0
    6.1849  -18.8506   20.8943 C   0  0  0  0  0  0  0  0  0  0  0  0
    5.3094  -19.3202   19.7512 C   0  0  0  0  0  0  0  0  0  0  0  0
    4.9083  -20.6892   19.9241 N   0  0  0  0  0  0  0  0  0  0  0  0
    8.1361  -14.8633   23.1217 C   0  0  0  0  0  0  0  0  0  0  0  0
    9.4060  -14.8913   23.1695 O   0  0  0  0  0  0  0  0  0  0  0  0
    6.6213  -11.9006   25.2832 C   0  0  0  0  0  0  0  0  0  0  0  0
    7.0114  -13.0494   26.1938 C   0  0  2  0  0  0  0  0  0  0  0  0
    7.5464  -12.5699   27.5123 C   0  0  0  0  0  0  0  0  0  0  0  0
    8.0272  -13.8914   25.4411 C   0  0  2  0  0  0  0  0  0  0  0  0
    7.3896  -14.3789   24.2269 N   0  0  0  0  0  0  0  0  0  0  0  0
    8.3992  -15.0500   26.2779 C   0  0  0  0  0  0  0  0  0  0  0  0
    7.5400  -15.8582   26.7472 O   0  0  0  0  0  0  0  0  0  0  0  0
   11.4424  -17.0129   26.8004 C   0  0  0  0  0  0  0  0  0  0  0  0
   10.1424  -16.4906   27.3736 C   0  0  2  0  0  0  0  0  0  0  0  0
    9.7560  -15.3271   26.6078 N   0  0  0  0  0  0  0  0  0  0  0  0
   10.3416  -16.1691   28.8085 C   0  0  0  0  0  0  0  0  0  0  0  0
   10.2404  -14.8638   29.2208 O   0  0  0  0  0  0  0  0  0  0  0  0
   10.5994  -17.0804   29.6349 O   0  0  0  0  0  0  0  0  0  0  0  0
  2  8  1  0
  2  1  1  6
  3  2  1  0
  4  3  1  0
  5  4  1  0
  6  5  1  0
  7  6  1  0
  8  9  2  0
 11 10  1  6
 11 13  1  0
 12 11  1  0
 13 14  1  6
 14  8  1  0
 15 13  1  0
 16 15  2  0
 18 17  1  6
 18 19  1  0
 18 20  1  0
 19 15  1  0
 20 22  2  0
 20 21  1  0
M  END
$$$$
