KVA.pdb
     RDKit          3D

 22 21  0  0  1  0  0  0  0  0999 V2000
    9.0990  -16.3540   15.3194 N   0  0  0  0  0  0  0  0  0  0  0  0
    8.1789  -16.3911   16.4190 C   0  0  1  0  0  0  0  0  0  0  0  0
    7.7122  -17.7885   16.6748 C   0  0  0  0  0  0  0  0  0  0  0  0
    6.8355  -18.3542   15.6288 C   0  0  0  0  0  0  0  0  0  0  0  0
    6.2384  -19.6811   15.9159 C   0  0  0  0  0  0  0  0  0  0  0  0
    5.3899  -20.1964   14.7721 C   0  0  0  0  0  0  0  0  0  0  0  0
    4.8911  -21.5169   15.0408 N   0  0  0  0  0  0  0  0  0  0  0  0
    8.7982  -15.8033   17.6536 C   0  0  0  0  0  0  0  0  0  0  0  0
   10.0649  -15.8658   17.7389 O   0  0  0  0  0  0  0  0  0  0  0  0
    7.4976  -12.5475   19.5227 C   0  0  0  0  0  0  0  0  0  0  0  0
    7.6865  -13.6777   20.5167 C   0  0  2  0  0  0  0  0  0  0  0  0
    8.1654  -13.1835   21.8512 C   0  0  0  0  0  0  0  0  0  0  0  0
    8.6600  -14.6631   19.8934 C   0  0  2  0  0  0  0  0  0  0  0  0
    8.0405  -15.2017   18.6914 N   0  0  0  0  0  0  0  0  0  0  0  0
    8.8909  -15.7702   20.8432 C   0  0  0  0  0  0  0  0  0  0  0  0
    7.9722  -16.5738   21.1925 O   0  0  0  0  0  0  0  0  0  0  0  0
   11.8547  -17.5613   22.0913 C   0  0  0  0  0  0  0  0  0  0  0  0
   10.4262  -17.1119   22.3119 C   0  0  2  0  0  0  0  0  0  0  0  0
   10.1695  -15.9994   21.4254 N   0  0  0  0  0  0  0  0  0  0  0  0
   10.2522  -16.7371   23.7372 C   0  0  0  0  0  0  0  0  0  0  0  0
   10.2723  -17.7213   24.6937 O   0  0  0  0  0  0  0  0  0  0  0  0
   10.0886  -15.5345   24.0634 O   0  0  0  0  0  0  0  0  0  0  0  0
  2  8  1  0
  2  1  1  6
  3  2  1  0
  4  3  1  0
  5  4  1  0
  6  5  1  0
  7  6  1  0
  8  9  2  0
 11 10  1  6
 11 13  1  0
 12 11  1  0
 13 14  1  6
 14  8  1  0
 15 13  1  0
 16 15  2  0
 18 17  1  1
 18 19  1  0
 18 20  1  0
 19 15  1  0
 20 22  2  0
 20 21  1  0
M  END
$$$$
