KVA.pdb
     RDKit          3D

 22 21  0  0  1  0  0  0  0  0999 V2000
    8.1508  -15.2609   20.8204 N   0  0  0  0  0  0  0  0  0  0  0  0
    7.4694  -15.6534   22.0199 C   0  0  1  0  0  0  0  0  0  0  0  0
    7.3863  -17.1429   22.1210 C   0  0  0  0  0  0  0  0  0  0  0  0
    6.5097  -17.7877   21.1217 C   0  0  0  0  0  0  0  0  0  0  0  0
    6.3655  -19.2603   21.2239 C   0  0  0  0  0  0  0  0  0  0  0  0
    5.4978  -19.8369   20.1246 C   0  0  0  0  0  0  0  0  0  0  0  0
    5.4731  -21.2728   20.1729 N   0  0  0  0  0  0  0  0  0  0  0  0
    8.1429  -15.0753   23.2303 C   0  0  0  0  0  0  0  0  0  0  0  0
    9.4140  -15.0730   23.2266 O   0  0  0  0  0  0  0  0  0  0  0  0
    6.5550  -12.0915   25.1990 C   0  0  0  0  0  0  0  0  0  0  0  0
    7.0996  -13.0802   26.2125 C   0  0  2  0  0  0  0  0  0  0  0  0
    7.7101  -12.3944   27.4006 C   0  0  0  0  0  0  0  0  0  0  0  0
    8.1037  -13.9581   25.4856 C   0  0  2  0  0  0  0  0  0  0  0  0
    7.4302  -14.5501   24.3391 N   0  0  0  0  0  0  0  0  0  0  0  0
    8.5340  -15.0412   26.3926 C   0  0  0  0  0  0  0  0  0  0  0  0
    7.7107  -15.8116   26.9760 O   0  0  0  0  0  0  0  0  0  0  0  0
   11.7119  -16.8057   27.0635 C   0  0  0  0  0  0  0  0  0  0  0  0
   10.3483  -16.3502   27.5369 C   0  0  2  0  0  0  0  0  0  0  0  0
    9.9099  -15.2835   26.6654 N   0  0  0  0  0  0  0  0  0  0  0  0
   10.4506  -15.9060   28.9492 C   0  0  0  0  0  0  0  0  0  0  0  0
   10.6592  -16.8429   29.9304 O   0  0  0  0  0  0  0  0  0  0  0  0
   10.3475  -14.6882   29.2422 O   0  0  0  0  0  0  0  0  0  0  0  0
  2  8  1  0
  2  1  1  6
  3  2  1  0
  4  3  1  0
  5  4  1  0
  6  5  1  0
  7  6  1  0
  8  9  2  0
 11 10  1  6
 11 13  1  0
 12 11  1  0
 13 14  1  6
 14  8  1  0
 15 13  1  0
 16 15  2  0
 18 17  1  6
 18 19  1  0
 18 20  1  0
 19 15  1  0
 20 22  2  0
 20 21  1  0
M  END
$$$$
