KVA.pdb
     RDKit          3D

 22 21  0  0  1  0  0  0  0  0999 V2000
    9.3193  -17.4962   16.2365 N   0  0  0  0  0  0  0  0  0  0  0  0
    8.3439  -17.3525   17.2782 C   0  0  1  0  0  0  0  0  0  0  0  0
    7.8767  -18.6896   17.7573 C   0  0  0  0  0  0  0  0  0  0  0  0
    6.5322  -19.0847   17.2894 C   0  0  0  0  0  0  0  0  0  0  0  0
    6.3259  -19.1083   15.8209 C   0  0  0  0  0  0  0  0  0  0  0  0
    4.9447  -19.5958   15.4358 C   0  0  0  0  0  0  0  0  0  0  0  0
    4.7051  -19.4384   14.0277 N   0  0  0  0  0  0  0  0  0  0  0  0
    8.8932  -16.5423   18.4161 C   0  0  0  0  0  0  0  0  0  0  0  0
   10.1228  -16.7098   18.6913 O   0  0  0  0  0  0  0  0  0  0  0  0
    7.4317  -12.9008   19.5539 C   0  0  0  0  0  0  0  0  0  0  0  0
    7.6158  -13.8575   20.7166 C   0  0  2  0  0  0  0  0  0  0  0  0
    8.0118  -13.1457   21.9780 C   0  0  0  0  0  0  0  0  0  0  0  0
    8.6543  -14.8818   20.2926 C   0  0  2  0  0  0  0  0  0  0  0  0
    8.1105  -15.6281   19.1675 N   0  0  0  0  0  0  0  0  0  0  0  0
    8.8864  -15.8163   21.4123 C   0  0  0  0  0  0  0  0  0  0  0  0
    7.9617  -16.5293   21.9104 O   0  0  0  0  0  0  0  0  0  0  0  0
   11.1563  -18.0586   22.6308 C   0  0  0  0  0  0  0  0  0  0  0  0
   10.4068  -16.8421   23.1301 C   0  0  2  0  0  0  0  0  0  0  0  0
   10.1734  -15.9706   22.0007 N   0  0  0  0  0  0  0  0  0  0  0  0
   11.2112  -16.1785   24.1859 C   0  0  0  0  0  0  0  0  0  0  0  0
   11.3048  -16.7662   25.4227 O   0  0  0  0  0  0  0  0  0  0  0  0
   11.7988  -15.0928   23.9500 O   0  0  0  0  0  0  0  0  0  0  0  0
  2  8  1  0
  2  1  1  6
  3  2  1  0
  4  3  1  0
  5  4  1  0
  6  5  1  0
  7  6  1  0
  8  9  2  0
 11 10  1  6
 11 13  1  0
 12 11  1  0
 13 14  1  6
 14  8  1  0
 15 13  1  0
 16 15  2  0
 18 17  1  6
 18 19  1  0
 18 20  1  0
 19 15  1  0
 20 22  2  0
 20 21  1  0
M  END
$$$$
