KVA.pdb
     RDKit          3D

 22 21  0  0  1  0  0  0  0  0999 V2000
    8.0636  -15.0266   21.0527 N   0  0  0  0  0  0  0  0  0  0  0  0
    7.3053  -15.2430   22.2508 C   0  0  1  0  0  0  0  0  0  0  0  0
    7.0724  -16.7027   22.4761 C   0  0  0  0  0  0  0  0  0  0  0  0
    6.8186  -17.4899   21.2519 C   0  0  0  0  0  0  0  0  0  0  0  0
    6.3387  -18.8792   21.4492 C   0  0  0  0  0  0  0  0  0  0  0  0
    6.1011  -19.6035   20.1405 C   0  0  0  0  0  0  0  0  0  0  0  0
    5.5512  -20.9133   20.3566 N   0  0  0  0  0  0  0  0  0  0  0  0
    7.9899  -14.6251   23.4350 C   0  0  0  0  0  0  0  0  0  0  0  0
    9.2554  -14.5236   23.3708 O   0  0  0  0  0  0  0  0  0  0  0  0
    5.7749  -13.2535   26.7257 C   0  0  0  0  0  0  0  0  0  0  0  0
    7.0502  -12.5335   26.3300 C   0  0  2  0  0  0  0  0  0  0  0  0
    6.7877  -11.3928   25.3895 C   0  0  0  0  0  0  0  0  0  0  0  0
    7.9781  -13.5702   25.7203 C   0  0  2  0  0  0  0  0  0  0  0  0
    7.2933  -14.1671   24.5831 N   0  0  0  0  0  0  0  0  0  0  0  0
    8.2387  -14.6238   26.7218 C   0  0  0  0  0  0  0  0  0  0  0  0
    8.7176  -14.3717   27.8702 O   0  0  0  0  0  0  0  0  0  0  0  0
    7.4666  -18.2668   27.0088 C   0  0  0  0  0  0  0  0  0  0  0  0
    8.2695  -17.0439   27.3975 C   0  0  2  0  0  0  0  0  0  0  0  0
    7.9645  -15.9942   26.4516 N   0  0  0  0  0  0  0  0  0  0  0  0
    9.7121  -17.3919   27.3938 C   0  0  0  0  0  0  0  0  0  0  0  0
   10.1875  -18.2787   28.3273 O   0  0  0  0  0  0  0  0  0  0  0  0
   10.4877  -16.8809   26.5470 O   0  0  0  0  0  0  0  0  0  0  0  0
  2  8  1  0
  2  1  1  6
  3  2  1  0
  4  3  1  0
  5  4  1  0
  6  5  1  0
  7  6  1  0
  8  9  2  0
 11 10  1  6
 11 13  1  0
 12 11  1  0
 13 14  1  6
 14  8  1  0
 15 13  1  0
 16 15  2  0
 18 17  1  6
 18 19  1  0
 18 20  1  0
 19 15  1  0
 20 22  2  0
 20 21  1  0
M  END
$$$$
