KVA.pdb
     RDKit          3D

 22 21  0  0  1  0  0  0  0  0999 V2000
    6.7135  -18.5075   17.6937 N   0  0  0  0  0  0  0  0  0  0  0  0
    6.3749  -18.0670   19.0160 C   0  0  1  0  0  0  0  0  0  0  0  0
    6.2462  -19.2298   19.9471 C   0  0  0  0  0  0  0  0  0  0  0  0
    5.1070  -20.1284   19.6686 C   0  0  0  0  0  0  0  0  0  0  0  0
    4.9311  -21.2754   20.5921 C   0  0  0  0  0  0  0  0  0  0  0  0
    3.7110  -22.1084   20.2586 C   0  0  0  0  0  0  0  0  0  0  0  0
    2.5836  -21.7376   21.0687 N   0  0  0  0  0  0  0  0  0  0  0  0
    7.3889  -17.0858   19.5280 C   0  0  0  0  0  0  0  0  0  0  0  0
    8.6103  -17.3714   19.3221 O   0  0  0  0  0  0  0  0  0  0  0  0
    7.1280  -13.1776   19.5164 C   0  0  0  0  0  0  0  0  0  0  0  0
    7.4431  -13.6337   20.9284 C   0  0  2  0  0  0  0  0  0  0  0  0
    8.3637  -12.6832   21.6380 C   0  0  0  0  0  0  0  0  0  0  0  0
    8.0359  -15.0285   20.8259 C   0  0  2  0  0  0  0  0  0  0  0  0
    7.0390  -15.8922   20.2106 N   0  0  0  0  0  0  0  0  0  0  0  0
    8.3186  -15.5271   22.1869 C   0  0  0  0  0  0  0  0  0  0  0  0
    7.4339  -15.5703   23.0965 O   0  0  0  0  0  0  0  0  0  0  0  0
   10.0272  -17.9439   23.8765 C   0  0  0  0  0  0  0  0  0  0  0  0
    9.9185  -16.4343   23.8992 C   0  0  2  0  0  0  0  0  0  0  0  0
    9.6121  -15.9916   22.5577 N   0  0  0  0  0  0  0  0  0  0  0  0
   11.1970  -15.8651   24.3927 C   0  0  0  0  0  0  0  0  0  0  0  0
   11.4783  -15.9197   25.7350 O   0  0  0  0  0  0  0  0  0  0  0  0
   12.0110  -15.3403   23.5917 O   0  0  0  0  0  0  0  0  0  0  0  0
  2  8  1  0
  2  1  1  6
  3  2  1  0
  4  3  1  0
  5  4  1  0
  6  5  1  0
  7  6  1  0
  8  9  2  0
 11 10  1  6
 11 13  1  0
 12 11  1  0
 13 14  1  1
 14  8  1  0
 15 13  1  0
 16 15  2  0
 18 17  1  6
 18 19  1  0
 18 20  1  0
 19 15  1  0
 20 22  2  0
 20 21  1  0
M  END
$$$$
