KVA.pdb
     RDKit          3D

 22 21  0  0  1  0  0  0  0  0999 V2000
    8.5167  -17.6979   18.2219 N   0  0  0  0  0  0  0  0  0  0  0  0
    7.8966  -17.8773   19.5027 C   0  0  1  0  0  0  0  0  0  0  0  0
    7.8382  -19.3264   19.8668 C   0  0  0  0  0  0  0  0  0  0  0  0
    7.0058  -20.1601   18.9753 C   0  0  0  0  0  0  0  0  0  0  0  0
    5.5372  -19.9957   19.1006 C   0  0  0  0  0  0  0  0  0  0  0  0
    4.7701  -20.8573   18.1193 C   0  0  0  0  0  0  0  0  0  0  0  0
    3.3524  -20.6558   18.2389 N   0  0  0  0  0  0  0  0  0  0  0  0
    8.6175  -17.0924   20.5597 C   0  0  0  0  0  0  0  0  0  0  0  0
    9.8877  -17.1249   20.5245 O   0  0  0  0  0  0  0  0  0  0  0  0
    7.3815  -13.5875   21.9245 C   0  0  0  0  0  0  0  0  0  0  0  0
    7.7236  -14.4987   23.0880 C   0  0  2  0  0  0  0  0  0  0  0  0
    8.3179  -13.7442   24.2421 C   0  0  0  0  0  0  0  0  0  0  0  0
    8.6686  -15.5638   22.5588 C   0  0  2  0  0  0  0  0  0  0  0  0
    7.9490  -16.3421   21.5614 N   0  0  0  0  0  0  0  0  0  0  0  0
    9.0500  -16.4573   23.6711 C   0  0  0  0  0  0  0  0  0  0  0  0
    8.1941  -17.0816   24.3706 O   0  0  0  0  0  0  0  0  0  0  0  0
   12.1949  -18.0955   24.7406 C   0  0  0  0  0  0  0  0  0  0  0  0
   10.8061  -17.5899   25.0669 C   0  0  2  0  0  0  0  0  0  0  0  0
   10.4127  -16.6698   24.0237 N   0  0  0  0  0  0  0  0  0  0  0  0
   10.8296  -16.9394   26.4004 C   0  0  0  0  0  0  0  0  0  0  0  0
   10.7359  -15.5722   26.4783 O   0  0  0  0  0  0  0  0  0  0  0  0
   10.9339  -17.6316   27.4442 O   0  0  0  0  0  0  0  0  0  0  0  0
  2  8  1  0
  2  1  1  6
  3  2  1  0
  4  3  1  0
  5  4  1  0
  6  5  1  0
  7  6  1  0
  8  9  2  0
 11 10  1  6
 11 13  1  0
 12 11  1  0
 13 14  1  6
 14  8  1  0
 15 13  1  0
 16 15  2  0
 18 17  1  6
 18 19  1  0
 18 20  1  0
 19 15  1  0
 20 22  2  0
 20 21  1  0
M  END
$$$$
