KVA.pdb
     RDKit          3D

 22 21  0  0  1  0  0  0  0  0999 V2000
    9.1290  -17.6179   16.4575 N   0  0  0  0  0  0  0  0  0  0  0  0
    8.2754  -17.5227   17.6062 C   0  0  1  0  0  0  0  0  0  0  0  0
    8.0780  -18.8650   18.2346 C   0  0  0  0  0  0  0  0  0  0  0  0
    7.6048  -19.9203   17.3152 C   0  0  0  0  0  0  0  0  0  0  0  0
    7.3875  -21.2623   17.9081 C   0  0  0  0  0  0  0  0  0  0  0  0
    6.9109  -22.2772   16.8900 C   0  0  0  0  0  0  0  0  0  0  0  0
    5.4864  -22.2146   16.7121 N   0  0  0  0  0  0  0  0  0  0  0  0
    8.8280  -16.5455   18.6026 C   0  0  0  0  0  0  0  0  0  0  0  0
   10.0940  -16.4880   18.7002 O   0  0  0  0  0  0  0  0  0  0  0  0
    7.3604  -12.9391   19.5609 C   0  0  0  0  0  0  0  0  0  0  0  0
    7.5228  -13.8086   20.7932 C   0  0  2  0  0  0  0  0  0  0  0  0
    7.9077  -13.0082   22.0039 C   0  0  0  0  0  0  0  0  0  0  0  0
    8.5593  -14.8677   20.4596 C   0  0  2  0  0  0  0  0  0  0  0  0
    8.0101  -15.7137   19.4103 N   0  0  0  0  0  0  0  0  0  0  0  0
    8.7973  -15.6959   21.6589 C   0  0  0  0  0  0  0  0  0  0  0  0
    7.8526  -16.1370   22.3833 O   0  0  0  0  0  0  0  0  0  0  0  0
   10.8578  -18.1845   22.8516 C   0  0  0  0  0  0  0  0  0  0  0  0
   10.3652  -16.8163   23.2716 C   0  0  2  0  0  0  0  0  0  0  0  0
   10.1127  -16.0487   22.0730 N   0  0  0  0  0  0  0  0  0  0  0  0
   11.3902  -16.1774   24.1338 C   0  0  0  0  0  0  0  0  0  0  0  0
   12.0348  -15.0525   23.6832 O   0  0  0  0  0  0  0  0  0  0  0  0
   11.6638  -16.6603   25.2614 O   0  0  0  0  0  0  0  0  0  0  0  0
  2  8  1  0
  2  1  1  6
  3  2  1  0
  4  3  1  0
  5  4  1  0
  6  5  1  0
  7  6  1  0
  8  9  2  0
 11 10  1  6
 11 13  1  0
 12 11  1  0
 13 14  1  6
 14  8  1  0
 15 13  1  0
 16 15  2  0
 18 17  1  6
 18 19  1  0
 18 20  1  0
 19 15  1  0
 20 22  2  0
 20 21  1  0
M  END
$$$$
