KVA.pdb
     RDKit          3D

 22 21  0  0  1  0  0  0  0  0999 V2000
    9.0101  -17.4758   16.1275 N   0  0  0  0  0  0  0  0  0  0  0  0
    8.1299  -17.4646   17.2599 C   0  0  1  0  0  0  0  0  0  0  0  0
    7.8402  -18.8569   17.7219 C   0  0  0  0  0  0  0  0  0  0  0  0
    7.5675  -19.8279   16.6423 C   0  0  0  0  0  0  0  0  0  0  0  0
    6.6801  -20.9651   16.9873 C   0  0  0  0  0  0  0  0  0  0  0  0
    6.4412  -21.8926   15.8141 C   0  0  0  0  0  0  0  0  0  0  0  0
    5.5904  -22.9920   16.1777 N   0  0  0  0  0  0  0  0  0  0  0  0
    8.7064  -16.6433   18.3762 C   0  0  0  0  0  0  0  0  0  0  0  0
    9.9548  -16.7625   18.5832 O   0  0  0  0  0  0  0  0  0  0  0  0
    7.0599  -13.1279   19.4211 C   0  0  0  0  0  0  0  0  0  0  0  0
    7.4668  -13.9227   20.6474 C   0  0  2  0  0  0  0  0  0  0  0  0
    7.9622  -13.0392   21.7558 C   0  0  0  0  0  0  0  0  0  0  0  0
    8.5214  -14.9216   20.2030 C   0  0  2  0  0  0  0  0  0  0  0  0
    7.9287  -15.7694   19.1791 N   0  0  0  0  0  0  0  0  0  0  0  0
    8.8955  -15.7643   21.3566 C   0  0  0  0  0  0  0  0  0  0  0  0
    8.1576  -16.7048   21.7839 O   0  0  0  0  0  0  0  0  0  0  0  0
   10.7434  -17.8204   22.5597 C   0  0  0  0  0  0  0  0  0  0  0  0
   10.5386  -16.4356   23.1355 C   0  0  2  0  0  0  0  0  0  0  0  0
   10.1170  -15.5662   22.0603 N   0  0  0  0  0  0  0  0  0  0  0  0
   11.8069  -15.9772   23.7546 C   0  0  0  0  0  0  0  0  0  0  0  0
   12.2708  -16.6156   24.8776 O   0  0  0  0  0  0  0  0  0  0  0  0
   12.4473  -15.0171   23.2568 O   0  0  0  0  0  0  0  0  0  0  0  0
  2  8  1  0
  2  1  1  6
  3  2  1  0
  4  3  1  0
  5  4  1  0
  6  5  1  0
  7  6  1  0
  8  9  2  0
 11 10  1  6
 11 13  1  0
 12 11  1  0
 13 14  1  6
 14  8  1  0
 15 13  1  0
 16 15  2  0
 18 17  1  6
 18 19  1  0
 18 20  1  0
 19 15  1  0
 20 22  2  0
 20 21  1  0
M  END
$$$$
