SML.pdb
     RDKit          3D

 23 22  0  0  1  0  0  0  0  0999 V2000
    7.8816  -18.1077   20.7978 O   0  0  0  0  0  0  0  0  0  0  0  0
    7.1564  -17.0369   20.2679 C   0  0  0  0  0  0  0  0  0  0  0  0
    8.0095  -15.8005   20.1954 C   0  0  2  0  0  0  0  0  0  0  0  0
    9.0985  -16.0273   19.2670 N   0  0  0  0  0  0  0  0  0  0  0  0
    8.5439  -15.3620   21.4801 C   0  0  0  0  0  0  0  0  0  0  0  0
    9.7502  -15.5861   21.7608 O   0  0  0  0  0  0  0  0  0  0  0  0
    5.8408  -12.3191   27.7254 C   0  0  0  0  0  0  0  0  0  0  0  0
    6.9688  -11.5538   26.5098 S   0  0  0  0  0  0  0  0  0  0  0  0
    8.0721  -12.8345   25.7984 C   0  0  0  0  0  0  0  0  0  0  0  0
    7.5316  -13.2340   24.4546 C   0  0  0  0  0  0  0  0  0  0  0  0
    8.3080  -14.3094   23.7789 C   0  0  2  0  0  0  0  0  0  0  0  0
    7.7966  -14.6800   22.4782 N   0  0  0  0  0  0  0  0  0  0  0  0
    8.5480  -15.4911   24.6437 C   0  0  0  0  0  0  0  0  0  0  0  0
    7.6790  -16.4001   24.8058 O   0  0  0  0  0  0  0  0  0  0  0  0
   10.8436  -19.3091   24.1391 C   0  0  0  0  0  0  0  0  0  0  0  0
   11.5309  -18.0215   24.3644 C   0  0  2  0  0  0  0  0  0  0  0  0
   13.0514  -18.2670   24.1787 C   0  0  0  0  0  0  0  0  0  0  0  0
   11.3846  -17.3225   25.6435 C   0  0  0  0  0  0  0  0  0  0  0  0
   10.0606  -16.8836   26.1434 C   0  0  2  0  0  0  0  0  0  0  0  0
    9.7772  -15.6494   25.3315 N   0  0  0  0  0  0  0  0  0  0  0  0
   10.0783  -16.4558   27.5329 C   0  0  0  0  0  0  0  0  0  0  0  0
   10.0179  -17.2616   28.6613 O   0  0  0  0  0  0  0  0  0  0  0  0
   10.1510  -15.2051   27.7888 O   0  0  0  0  0  0  0  0  0  0  0  0
  1  2  1  0
  3  2  1  0
  3  5  1  0
  3  4  1  6
  5 12  1  0
  6  5  2  0
  8  9  1  0
  8  7  1  0
 10  9  1  0
 11 10  1  1
 11 13  1  0
 12 11  1  0
 13 14  2  0
 16 18  1  0
 16 15  1  1
 17 16  1  0
 19 18  1  6
 20 13  1  0
 20 19  1  0
 21 22  1  0
 21 19  1  0
 23 21  2  0
M  END
$$$$
