SML.pdb
     RDKit          3D

 23 22  0  0  1  0  0  0  0  0999 V2000
    9.1560  -18.2501   21.0980 O   0  0  0  0  0  0  0  0  0  0  0  0
    8.4521  -17.4160   20.2249 C   0  0  0  0  0  0  0  0  0  0  0  0
    8.9394  -15.9976   20.3352 C   0  0  2  0  0  0  0  0  0  0  0  0
   10.1755  -15.8597   19.5920 N   0  0  0  0  0  0  0  0  0  0  0  0
    9.1364  -15.5338   21.7043 C   0  0  0  0  0  0  0  0  0  0  0  0
   10.3044  -15.3622   22.1406 O   0  0  0  0  0  0  0  0  0  0  0  0
    5.9156  -11.1410   26.3007 C   0  0  0  0  0  0  0  0  0  0  0  0
    5.7664  -12.9339   26.6151 S   0  0  0  0  0  0  0  0  0  0  0  0
    7.2857  -13.7897   26.0469 C   0  0  0  0  0  0  0  0  0  0  0  0
    7.0850  -14.2175   24.6207 C   0  0  0  0  0  0  0  0  0  0  0  0
    8.2870  -14.8300   23.9914 C   0  0  2  0  0  0  0  0  0  0  0  0
    8.0891  -15.2484   22.6216 N   0  0  0  0  0  0  0  0  0  0  0  0
    8.9030  -15.8963   24.8193 C   0  0  0  0  0  0  0  0  0  0  0  0
    8.6428  -17.1249   24.6453 O   0  0  0  0  0  0  0  0  0  0  0  0
   10.0546  -13.7079   28.1652 C   0  0  0  0  0  0  0  0  0  0  0  0
   10.4909  -15.0513   28.5967 C   0  0  2  0  0  0  0  0  0  0  0  0
   11.3871  -14.8693   29.8498 C   0  0  0  0  0  0  0  0  0  0  0  0
   11.2430  -15.9113   27.6796 C   0  0  0  0  0  0  0  0  0  0  0  0
   10.5756  -16.6507   26.5827 C   0  0  2  0  0  0  0  0  0  0  0  0
    9.8196  -15.5751   25.8516 N   0  0  0  0  0  0  0  0  0  0  0  0
    9.5769  -17.5998   27.0471 C   0  0  0  0  0  0  0  0  0  0  0  0
    8.1984  -17.4983   26.9213 O   0  0  0  0  0  0  0  0  0  0  0  0
    9.9688  -18.6576   27.6492 O   0  0  0  0  0  0  0  0  0  0  0  0
  1  2  1  0
  3  2  1  0
  3  5  1  0
  3  4  1  6
  5 12  1  0
  6  5  2  0
  8  9  1  0
  8  7  1  0
 10  9  1  0
 11 10  1  1
 11 13  1  0
 12 11  1  0
 13 14  2  0
 16 18  1  0
 16 15  1  6
 17 16  1  0
 19 18  1  1
 20 13  1  0
 20 19  1  0
 21 22  1  0
 21 19  1  0
 23 21  2  0
M  END
$$$$
