SML.pdb
     RDKit          3D

 23 22  0  0  1  0  0  0  0  0999 V2000
    8.9465  -19.6801   23.5596 O   0  0  0  0  0  0  0  0  0  0  0  0
    7.8007  -19.4644   22.7889 C   0  0  0  0  0  0  0  0  0  0  0  0
    8.0697  -18.4560   21.7062 C   0  0  2  0  0  0  0  0  0  0  0  0
    8.8567  -19.0783   20.6608 N   0  0  0  0  0  0  0  0  0  0  0  0
    8.7374  -17.2431   22.1660 C   0  0  0  0  0  0  0  0  0  0  0  0
    9.9669  -17.0886   21.9459 O   0  0  0  0  0  0  0  0  0  0  0  0
    5.9018  -12.3128   26.9520 C   0  0  0  0  0  0  0  0  0  0  0  0
    6.9812  -12.2612   25.4796 S   0  0  0  0  0  0  0  0  0  0  0  0
    6.9298  -13.8796   24.6183 C   0  0  0  0  0  0  0  0  0  0  0  0
    7.8025  -13.7964   23.3981 C   0  0  0  0  0  0  0  0  0  0  0  0
    8.7403  -14.9413   23.2382 C   0  0  2  0  0  0  0  0  0  0  0  0
    8.0998  -16.1828   22.8653 N   0  0  0  0  0  0  0  0  0  0  0  0
    9.6612  -15.1100   24.3895 C   0  0  0  0  0  0  0  0  0  0  0  0
   10.6110  -14.3029   24.6217 O   0  0  0  0  0  0  0  0  0  0  0  0
   10.0097  -13.6567   29.1631 C   0  0  0  0  0  0  0  0  0  0  0  0
   10.6731  -14.5825   28.2228 C   0  0  2  0  0  0  0  0  0  0  0  0
   11.3512  -13.7228   27.1238 C   0  0  0  0  0  0  0  0  0  0  0  0
    9.8914  -15.6016   27.5180 C   0  0  0  0  0  0  0  0  0  0  0  0
   10.4748  -16.4090   26.4211 C   0  0  2  0  0  0  0  0  0  0  0  0
    9.5102  -16.1972   25.2863 N   0  0  0  0  0  0  0  0  0  0  0  0
   10.4732  -17.8380   26.6890 C   0  0  0  0  0  0  0  0  0  0  0  0
    9.6722  -18.8036   26.0955 O   0  0  0  0  0  0  0  0  0  0  0  0
   11.2808  -18.2985   27.5670 O   0  0  0  0  0  0  0  0  0  0  0  0
  1  2  1  0
  3  2  1  0
  3  5  1  0
  3  4  1  6
  5 12  1  0
  6  5  2  0
  8  9  1  0
  8  7  1  0
 10  9  1  0
 11 10  1  1
 11 13  1  0
 12 11  1  0
 13 14  2  0
 16 18  1  0
 16 15  1  6
 17 16  1  0
 19 18  1  1
 20 13  1  0
 20 19  1  0
 21 22  1  0
 21 19  1  0
 23 21  2  0
M  END
$$$$
