SML.pdb
     RDKit          3D

 23 22  0  0  1  0  0  0  0  0999 V2000
    8.7952  -20.5249   23.3448 O   0  0  0  0  0  0  0  0  0  0  0  0
    7.7611  -20.3702   22.4174 C   0  0  0  0  0  0  0  0  0  0  0  0
    8.2520  -19.6590   21.1867 C   0  0  2  0  0  0  0  0  0  0  0  0
    9.3392  -20.4167   20.6007 N   0  0  0  0  0  0  0  0  0  0  0  0
    8.6815  -18.2840   21.4174 C   0  0  0  0  0  0  0  0  0  0  0  0
    9.9089  -18.0249   21.5194 O   0  0  0  0  0  0  0  0  0  0  0  0
    8.7389  -11.9570   18.6931 C   0  0  0  0  0  0  0  0  0  0  0  0
    7.4617  -12.2775   19.9586 S   0  0  0  0  0  0  0  0  0  0  0  0
    8.1367  -13.3909   21.2501 C   0  0  0  0  0  0  0  0  0  0  0  0
    7.6030  -14.7749   21.0107 C   0  0  0  0  0  0  0  0  0  0  0  0
    8.2260  -15.8257   21.8613 C   0  0  2  0  0  0  0  0  0  0  0  0
    7.8057  -17.1717   21.5414 N   0  0  0  0  0  0  0  0  0  0  0  0
    8.1276  -15.5386   23.3139 C   0  0  0  0  0  0  0  0  0  0  0  0
    7.1292  -15.8954   24.0092 O   0  0  0  0  0  0  0  0  0  0  0  0
    5.7317  -12.7727   26.7242 C   0  0  0  0  0  0  0  0  0  0  0  0
    7.1275  -13.2551   26.7073 C   0  0  2  0  0  0  0  0  0  0  0  0
    8.0239  -12.1047   27.2361 C   0  0  0  0  0  0  0  0  0  0  0  0
    7.7370  -13.7022   25.4523 C   0  0  0  0  0  0  0  0  0  0  0  0
    9.0195  -14.4439   25.4311 C   0  0  2  0  0  0  0  0  0  0  0  0
    9.1628  -14.8438   23.9880 N   0  0  0  0  0  0  0  0  0  0  0  0
    8.9850  -15.6833   26.1904 C   0  0  0  0  0  0  0  0  0  0  0  0
    8.0886  -16.7330   26.0459 O   0  0  0  0  0  0  0  0  0  0  0  0
    9.8569  -15.8652   27.1079 O   0  0  0  0  0  0  0  0  0  0  0  0
  1  2  1  0
  3  2  1  0
  3  5  1  0
  3  4  1  1
  5 12  1  0
  6  5  2  0
  8  9  1  0
  8  7  1  0
 10  9  1  0
 11 10  1  6
 11 13  1  0
 12 11  1  0
 13 14  2  0
 16 18  1  0
 16 15  1  6
 17 16  1  0
 19 18  1  6
 20 13  1  0
 20 19  1  0
 21 22  1  0
 21 19  1  0
 23 21  2  0
M  END
$$$$
