SML.pdb
     RDKit          3D

 23 22  0  0  1  0  0  0  0  0999 V2000
    7.0775  -21.0253   24.9340 O   0  0  0  0  0  0  0  0  0  0  0  0
    6.7116  -20.3616   23.7598 C   0  0  0  0  0  0  0  0  0  0  0  0
    5.4944  -19.5084   23.9879 C   0  0  2  0  0  0  0  0  0  0  0  0
    4.4500  -19.9135   23.0690 N   0  0  0  0  0  0  0  0  0  0  0  0
    5.7317  -18.0747   23.8590 C   0  0  0  0  0  0  0  0  0  0  0  0
    5.4383  -17.4902   22.7836 O   0  0  0  0  0  0  0  0  0  0  0  0
    5.7451  -11.9597   27.4235 C   0  0  0  0  0  0  0  0  0  0  0  0
    7.3622  -12.7895   27.2452 S   0  0  0  0  0  0  0  0  0  0  0  0
    7.4181  -13.6994   25.6539 C   0  0  0  0  0  0  0  0  0  0  0  0
    6.9316  -15.1012   25.8907 C   0  0  0  0  0  0  0  0  0  0  0  0
    6.8300  -15.9292   24.6579 C   0  0  2  0  0  0  0  0  0  0  0  0
    6.2845  -17.2503   24.8761 N   0  0  0  0  0  0  0  0  0  0  0  0
    8.0875  -15.9655   23.8708 C   0  0  0  0  0  0  0  0  0  0  0  0
    8.9479  -16.8862   24.0102 O   0  0  0  0  0  0  0  0  0  0  0  0
    7.1623  -13.9725   19.7896 C   0  0  0  0  0  0  0  0  0  0  0  0
    8.0921  -13.2832   20.7069 C   0  0  2  0  0  0  0  0  0  0  0  0
    8.4520  -11.9175   20.0650 C   0  0  0  0  0  0  0  0  0  0  0  0
    9.3651  -13.9093   21.0727 C   0  0  0  0  0  0  0  0  0  0  0  0
    9.4175  -15.1676   21.8532 C   0  0  2  0  0  0  0  0  0  0  0  0
    8.3773  -14.9560   22.9191 N   0  0  0  0  0  0  0  0  0  0  0  0
   10.6766  -15.3637   22.5532 C   0  0  0  0  0  0  0  0  0  0  0  0
   10.8970  -15.2955   23.9218 O   0  0  0  0  0  0  0  0  0  0  0  0
   11.7249  -15.6244   21.8688 O   0  0  0  0  0  0  0  0  0  0  0  0
  1  2  1  0
  3  2  1  0
  3  5  1  0
  3  4  1  6
  5 12  1  0
  6  5  2  0
  8  9  1  0
  8  7  1  0
 10  9  1  0
 11 10  1  1
 11 13  1  0
 12 11  1  0
 13 14  2  0
 16 18  1  0
 16 15  1  6
 17 16  1  0
 19 18  1  6
 20 13  1  0
 20 19  1  0
 21 22  1  0
 21 19  1  0
 23 21  2  0
M  END
$$$$
