SML.pdb
     RDKit          3D

 23 22  0  0  1  0  0  0  0  0999 V2000
    8.5045  -19.4391   23.3489 O   0  0  0  0  0  0  0  0  0  0  0  0
    8.9796  -19.3061   22.0413 C   0  0  0  0  0  0  0  0  0  0  0  0
    8.4513  -18.0483   21.4086 C   0  0  2  0  0  0  0  0  0  0  0  0
    8.9761  -17.9356   20.0628 N   0  0  0  0  0  0  0  0  0  0  0  0
    8.7475  -16.8295   22.1538 C   0  0  0  0  0  0  0  0  0  0  0  0
    9.8359  -16.2292   21.9565 O   0  0  0  0  0  0  0  0  0  0  0  0
    6.0519  -11.0877   27.0539 C   0  0  0  0  0  0  0  0  0  0  0  0
    5.7535  -12.6564   26.1675 S   0  0  0  0  0  0  0  0  0  0  0  0
    7.2754  -13.1633   25.2785 C   0  0  0  0  0  0  0  0  0  0  0  0
    6.9808  -14.4210   24.5111 C   0  0  0  0  0  0  0  0  0  0  0  0
    8.1640  -15.0108   23.8270 C   0  0  2  0  0  0  0  0  0  0  0  0
    7.8852  -16.2392   23.1170 N   0  0  0  0  0  0  0  0  0  0  0  0
    9.3515  -15.1307   24.7088 C   0  0  0  0  0  0  0  0  0  0  0  0
   10.2407  -14.2293   24.7745 O   0  0  0  0  0  0  0  0  0  0  0  0
   10.6894  -13.6734   28.0090 C   0  0  0  0  0  0  0  0  0  0  0  0
    9.7991  -14.8407   28.1702 C   0  0  2  0  0  0  0  0  0  0  0  0
    9.4524  -14.9568   29.6779 C   0  0  0  0  0  0  0  0  0  0  0  0
   10.2465  -16.1715   27.7518 C   0  0  0  0  0  0  0  0  0  0  0  0
   10.7613  -16.4255   26.3858 C   0  0  2  0  0  0  0  0  0  0  0  0
    9.5382  -16.2759   25.5229 N   0  0  0  0  0  0  0  0  0  0  0  0
   11.2298  -17.7875   26.1868 C   0  0  0  0  0  0  0  0  0  0  0  0
   12.4713  -18.3072   26.5255 O   0  0  0  0  0  0  0  0  0  0  0  0
   10.4437  -18.6324   25.6360 O   0  0  0  0  0  0  0  0  0  0  0  0
  1  2  1  0
  3  2  1  0
  3  5  1  0
  3  4  1  6
  5 12  1  0
  6  5  2  0
  8  9  1  0
  8  7  1  0
 10  9  1  0
 11 10  1  1
 11 13  1  0
 12 11  1  0
 13 14  2  0
 16 18  1  0
 16 15  1  1
 17 16  1  0
 19 18  1  1
 20 13  1  0
 20 19  1  0
 21 22  1  0
 21 19  1  0
 23 21  2  0
M  END
$$$$
