SML.pdb
     RDKit          3D

 23 22  0  0  1  0  0  0  0  0999 V2000
    7.8650  -18.2256   20.8804 O   0  0  0  0  0  0  0  0  0  0  0  0
    8.7405  -17.6495   19.9558 C   0  0  0  0  0  0  0  0  0  0  0  0
    8.7216  -16.1500   20.0679 C   0  0  2  0  0  0  0  0  0  0  0  0
    9.6740  -15.5905   19.1302 N   0  0  0  0  0  0  0  0  0  0  0  0
    8.9975  -15.6432   21.4079 C   0  0  0  0  0  0  0  0  0  0  0  0
   10.1828  -15.6146   21.8299 O   0  0  0  0  0  0  0  0  0  0  0  0
    6.7192  -11.3513   27.6954 C   0  0  0  0  0  0  0  0  0  0  0  0
    6.2349  -12.2039   26.1546 S   0  0  0  0  0  0  0  0  0  0  0  0
    7.5893  -13.3142   25.6103 C   0  0  0  0  0  0  0  0  0  0  0  0
    7.2405  -13.8599   24.2546 C   0  0  0  0  0  0  0  0  0  0  0  0
    8.2704  -14.7665   23.6773 C   0  0  2  0  0  0  0  0  0  0  0  0
    8.0112  -15.1619   22.3109 N   0  0  0  0  0  0  0  0  0  0  0  0
    8.5828  -15.9278   24.5467 C   0  0  0  0  0  0  0  0  0  0  0  0
    7.9570  -17.0270   24.4601 O   0  0  0  0  0  0  0  0  0  0  0  0
   13.7102  -18.3986   24.8866 C   0  0  0  0  0  0  0  0  0  0  0  0
   12.4351  -18.3168   25.6273 C   0  0  2  0  0  0  0  0  0  0  0  0
   11.6531  -19.6284   25.3536 C   0  0  0  0  0  0  0  0  0  0  0  0
   11.4987  -17.2217   25.3627 C   0  0  0  0  0  0  0  0  0  0  0  0
   10.2232  -17.0920   26.1055 C   0  0  2  0  0  0  0  0  0  0  0  0
    9.6087  -15.8493   25.5215 N   0  0  0  0  0  0  0  0  0  0  0  0
   10.4027  -16.8239   27.5232 C   0  0  0  0  0  0  0  0  0  0  0  0
   10.3090  -15.5969   28.1651 O   0  0  0  0  0  0  0  0  0  0  0  0
   10.6855  -17.7987   28.3010 O   0  0  0  0  0  0  0  0  0  0  0  0
  1  2  1  0
  3  2  1  0
  3  5  1  0
  3  4  1  6
  5 12  1  0
  6  5  2  0
  8  9  1  0
  8  7  1  0
 10  9  1  0
 11 10  1  1
 11 13  1  0
 12 11  1  0
 13 14  2  0
 16 18  1  0
 16 15  1  6
 17 16  1  0
 19 18  1  6
 20 13  1  0
 20 19  1  0
 21 22  1  0
 21 19  1  0
 23 21  2  0
M  END
$$$$
