SML.pdb
     RDKit          3D

 23 22  0  0  1  0  0  0  0  0999 V2000
    6.5284  -18.5278   25.0529 O   0  0  0  0  0  0  0  0  0  0  0  0
    5.5191  -18.9103   24.1652 C   0  0  0  0  0  0  0  0  0  0  0  0
    5.9914  -18.7978   22.7419 C   0  0  2  0  0  0  0  0  0  0  0  0
    6.4011  -20.1055   22.2714 N   0  0  0  0  0  0  0  0  0  0  0  0
    7.0761  -17.8429   22.5416 C   0  0  0  0  0  0  0  0  0  0  0  0
    8.2693  -18.2209   22.6730 O   0  0  0  0  0  0  0  0  0  0  0  0
    6.7482  -12.4766   18.8637 C   0  0  0  0  0  0  0  0  0  0  0  0
    8.0737  -11.9510   20.0050 S   0  0  0  0  0  0  0  0  0  0  0  0
    8.7337  -13.4097   20.8995 C   0  0  0  0  0  0  0  0  0  0  0  0
    7.5801  -14.2897   21.2899 C   0  0  0  0  0  0  0  0  0  0  0  0
    7.9741  -15.5257   22.0198 C   0  0  2  0  0  0  0  0  0  0  0  0
    6.8984  -16.4751   22.1989 N   0  0  0  0  0  0  0  0  0  0  0  0
    8.6972  -15.2531   23.2866 C   0  0  0  0  0  0  0  0  0  0  0  0
    9.8468  -14.7189   23.3094 O   0  0  0  0  0  0  0  0  0  0  0  0
    8.1573  -11.9354   26.4669 C   0  0  0  0  0  0  0  0  0  0  0  0
    7.2535  -13.0627   26.1612 C   0  0  2  0  0  0  0  0  0  0  0  0
    5.9085  -12.7902   26.8848 C   0  0  0  0  0  0  0  0  0  0  0  0
    7.6369  -14.4313   26.5165 C   0  0  0  0  0  0  0  0  0  0  0  0
    8.7462  -15.1321   25.8281 C   0  0  2  0  0  0  0  0  0  0  0  0
    8.1198  -15.5854   24.5377 N   0  0  0  0  0  0  0  0  0  0  0  0
    9.1807  -16.3402   26.5105 C   0  0  0  0  0  0  0  0  0  0  0  0
    9.0523  -17.6488   26.0664 O   0  0  0  0  0  0  0  0  0  0  0  0
    9.7438  -16.2305   27.6533 O   0  0  0  0  0  0  0  0  0  0  0  0
  1  2  1  0
  3  2  1  0
  3  5  1  0
  3  4  1  1
  5 12  1  0
  6  5  2  0
  8  9  1  0
  8  7  1  0
 10  9  1  0
 11 10  1  1
 11 13  1  0
 12 11  1  0
 13 14  2  0
 16 18  1  0
 16 15  1  1
 17 16  1  0
 19 18  1  1
 20 13  1  0
 20 19  1  0
 21 22  1  0
 21 19  1  0
 23 21  2  0
M  END
$$$$
