SML.pdb
     RDKit          3D

 23 22  0  0  1  0  0  0  0  0999 V2000
   10.9610  -18.6501   21.4155 O   0  0  0  0  0  0  0  0  0  0  0  0
    9.7952  -18.3118   20.7227 C   0  0  0  0  0  0  0  0  0  0  0  0
    9.7441  -16.8325   20.4575 C   0  0  2  0  0  0  0  0  0  0  0  0
   10.8788  -16.4560   19.6389 N   0  0  0  0  0  0  0  0  0  0  0  0
    9.7116  -16.0065   21.6596 C   0  0  0  0  0  0  0  0  0  0  0  0
   10.7915  -15.6193   22.1774 O   0  0  0  0  0  0  0  0  0  0  0  0
    5.7114  -11.0566   25.3998 C   0  0  0  0  0  0  0  0  0  0  0  0
    5.5377  -12.8689   25.5438 S   0  0  0  0  0  0  0  0  0  0  0  0
    7.1738  -13.6666   25.3195 C   0  0  0  0  0  0  0  0  0  0  0  0
    7.1918  -14.3453   23.9791 C   0  0  0  0  0  0  0  0  0  0  0  0
    8.4864  -14.9981   23.6420 C   0  0  2  0  0  0  0  0  0  0  0  0
    8.5265  -15.5852   22.3213 N   0  0  0  0  0  0  0  0  0  0  0  0
    8.9582  -15.9392   24.6878 C   0  0  0  0  0  0  0  0  0  0  0  0
    9.2405  -17.1488   24.4337 O   0  0  0  0  0  0  0  0  0  0  0  0
   10.8148  -14.6127   30.4712 C   0  0  0  0  0  0  0  0  0  0  0  0
   11.1372  -15.2448   29.1760 C   0  0  2  0  0  0  0  0  0  0  0  0
   12.5324  -14.7257   28.7394 C   0  0  0  0  0  0  0  0  0  0  0  0
   10.2531  -15.0547   28.0234 C   0  0  0  0  0  0  0  0  0  0  0  0
   10.2754  -15.9781   26.8649 C   0  0  2  0  0  0  0  0  0  0  0  0
    9.1130  -15.5134   26.0308 N   0  0  0  0  0  0  0  0  0  0  0  0
    9.9899  -17.3591   27.2188 C   0  0  0  0  0  0  0  0  0  0  0  0
   10.8906  -18.4129   27.2865 O   0  0  0  0  0  0  0  0  0  0  0  0
    8.7857  -17.6838   27.5009 O   0  0  0  0  0  0  0  0  0  0  0  0
  1  2  1  0
  3  2  1  0
  3  5  1  0
  3  4  1  1
  5 12  1  0
  6  5  2  0
  8  9  1  0
  8  7  1  0
 10  9  1  0
 11 10  1  1
 11 13  1  0
 12 11  1  0
 13 14  2  0
 16 18  1  0
 16 15  1  1
 17 16  1  0
 19 18  1  1
 20 13  1  0
 20 19  1  0
 21 22  1  0
 21 19  1  0
 23 21  2  0
M  END
$$$$
