SML.pdb
     RDKit          3D

 23 22  0  0  1  0  0  0  0  0999 V2000
    8.1015  -20.3466   23.5866 O   0  0  0  0  0  0  0  0  0  0  0  0
    7.5139  -20.7702   24.7818 C   0  0  0  0  0  0  0  0  0  0  0  0
    6.1670  -20.1282   24.9694 C   0  0  2  0  0  0  0  0  0  0  0  0
    5.1773  -20.8683   24.2130 N   0  0  0  0  0  0  0  0  0  0  0  0
    6.1152  -18.7186   24.5967 C   0  0  0  0  0  0  0  0  0  0  0  0
    5.5386  -18.3781   23.5311 O   0  0  0  0  0  0  0  0  0  0  0  0
    8.1800  -11.5667   26.8699 C   0  0  0  0  0  0  0  0  0  0  0  0
    6.8237  -12.7772   27.0448 S   0  0  0  0  0  0  0  0  0  0  0  0
    6.7656  -13.8588   25.5649 C   0  0  0  0  0  0  0  0  0  0  0  0
    6.8144  -15.2899   26.0201 C   0  0  0  0  0  0  0  0  0  0  0  0
    6.7666  -16.2849   24.9140 C   0  0  2  0  0  0  0  0  0  0  0  0
    6.6781  -17.6583   25.3574 N   0  0  0  0  0  0  0  0  0  0  0  0
    7.8359  -16.0904   23.9038 C   0  0  0  0  0  0  0  0  0  0  0  0
    8.9318  -16.7266   23.9457 O   0  0  0  0  0  0  0  0  0  0  0  0
    8.4126  -14.2340   18.6469 C   0  0  0  0  0  0  0  0  0  0  0  0
    7.7557  -13.6324   19.8249 C   0  0  2  0  0  0  0  0  0  0  0  0
    7.5753  -12.1192   19.5348 C   0  0  0  0  0  0  0  0  0  0  0  0
    8.3850  -13.7218   21.1448 C   0  0  0  0  0  0  0  0  0  0  0  0
    8.7123  -15.0275   21.7640 C   0  0  2  0  0  0  0  0  0  0  0  0
    7.6687  -15.1712   22.8379 N   0  0  0  0  0  0  0  0  0  0  0  0
    9.9961  -15.0399   22.4464 C   0  0  0  0  0  0  0  0  0  0  0  0
   11.1993  -15.5363   21.9647 O   0  0  0  0  0  0  0  0  0  0  0  0
   10.0681  -14.5540   23.6270 O   0  0  0  0  0  0  0  0  0  0  0  0
  1  2  1  0
  3  2  1  0
  3  5  1  0
  3  4  1  6
  5 12  1  0
  6  5  2  0
  8  9  1  0
  8  7  1  0
 10  9  1  0
 11 10  1  1
 11 13  1  0
 12 11  1  0
 13 14  2  0
 16 18  1  0
 16 15  1  6
 17 16  1  0
 19 18  1  1
 20 13  1  0
 20 19  1  0
 21 22  1  0
 21 19  1  0
 23 21  2  0
M  END
$$$$
