SML.pdb
     RDKit          3D

 23 22  0  0  1  0  0  0  0  0999 V2000
    8.6424  -20.2567   22.8356 O   0  0  0  0  0  0  0  0  0  0  0  0
    7.7853  -19.9965   21.7627 C   0  0  0  0  0  0  0  0  0  0  0  0
    8.4252  -19.0459   20.7889 C   0  0  2  0  0  0  0  0  0  0  0  0
    9.5501  -19.7013   20.1530 N   0  0  0  0  0  0  0  0  0  0  0  0
    8.8618  -17.7845   21.3779 C   0  0  0  0  0  0  0  0  0  0  0  0
   10.0710  -17.6302   21.6911 O   0  0  0  0  0  0  0  0  0  0  0  0
    8.2707  -11.2252   20.0630 C   0  0  0  0  0  0  0  0  0  0  0  0
    7.4608  -12.6865   19.3254 S   0  0  0  0  0  0  0  0  0  0  0  0
    8.1830  -14.2166   20.0329 C   0  0  0  0  0  0  0  0  0  0  0  0
    7.9381  -14.2162   21.5153 C   0  0  0  0  0  0  0  0  0  0  0  0
    8.4480  -15.4247   22.2192 C   0  0  2  0  0  0  0  0  0  0  0  0
    8.0125  -16.6752   21.6385 N   0  0  0  0  0  0  0  0  0  0  0  0
    8.2317  -15.3833   23.6867 C   0  0  0  0  0  0  0  0  0  0  0  0
    7.1989  -15.8749   24.2337 O   0  0  0  0  0  0  0  0  0  0  0  0
    7.9905  -11.8640   26.6254 C   0  0  0  0  0  0  0  0  0  0  0  0
    7.2632  -12.9794   25.9866 C   0  0  2  0  0  0  0  0  0  0  0  0
    5.7725  -12.8597   26.3992 C   0  0  0  0  0  0  0  0  0  0  0  0
    7.6516  -14.3650   26.2612 C   0  0  0  0  0  0  0  0  0  0  0  0
    9.0363  -14.8434   26.0399 C   0  0  2  0  0  0  0  0  0  0  0  0
    9.1873  -14.7831   24.5444 N   0  0  0  0  0  0  0  0  0  0  0  0
    9.2344  -16.2359   26.4083 C   0  0  0  0  0  0  0  0  0  0  0  0
    8.8359  -17.3587   25.6964 O   0  0  0  0  0  0  0  0  0  0  0  0
    9.8335  -16.5007   27.5065 O   0  0  0  0  0  0  0  0  0  0  0  0
  1  2  1  0
  3  2  1  0
  3  5  1  0
  3  4  1  1
  5 12  1  0
  6  5  2  0
  8  9  1  0
  8  7  1  0
 10  9  1  0
 11 10  1  6
 11 13  1  0
 12 11  1  0
 13 14  2  0
 16 18  1  0
 16 15  1  1
 17 16  1  0
 19 18  1  6
 20 13  1  0
 20 19  1  0
 21 22  1  0
 21 19  1  0
 23 21  2  0
M  END
$$$$
