SML.pdb
     RDKit          3D

 23 22  0  0  1  0  0  0  0  0999 V2000
    9.2118  -19.6668   20.1193 O   0  0  0  0  0  0  0  0  0  0  0  0
    8.8288  -18.7486   21.1009 C   0  0  0  0  0  0  0  0  0  0  0  0
    9.0290  -17.3387   20.6178 C   0  0  2  0  0  0  0  0  0  0  0  0
   10.0712  -17.3237   19.6113 N   0  0  0  0  0  0  0  0  0  0  0  0
    9.3509  -16.3817   21.6709 C   0  0  0  0  0  0  0  0  0  0  0  0
   10.5519  -16.0707   21.8825 O   0  0  0  0  0  0  0  0  0  0  0  0
    5.4214  -12.6624   26.5130 C   0  0  0  0  0  0  0  0  0  0  0  0
    6.6802  -11.8659   25.4563 S   0  0  0  0  0  0  0  0  0  0  0  0
    8.0633  -13.0322   25.1561 C   0  0  0  0  0  0  0  0  0  0  0  0
    7.6725  -13.9547   24.0364 C   0  0  0  0  0  0  0  0  0  0  0  0
    8.7194  -14.9469   23.6685 C   0  0  2  0  0  0  0  0  0  0  0  0
    8.3944  -15.7470   22.5088 N   0  0  0  0  0  0  0  0  0  0  0  0
    9.1686  -15.7769   24.8135 C   0  0  0  0  0  0  0  0  0  0  0  0
    8.4189  -16.6415   25.3594 O   0  0  0  0  0  0  0  0  0  0  0  0
   11.3967  -13.6163   28.4508 C   0  0  0  0  0  0  0  0  0  0  0  0
   10.1752  -14.2060   27.8665 C   0  0  2  0  0  0  0  0  0  0  0  0
    8.9882  -13.8293   28.7917 C   0  0  0  0  0  0  0  0  0  0  0  0
   10.0840  -15.6530   27.6559 C   0  0  0  0  0  0  0  0  0  0  0  0
   10.8800  -16.3389   26.6113 C   0  0  2  0  0  0  0  0  0  0  0  0
   10.4734  -15.6312   25.3476 N   0  0  0  0  0  0  0  0  0  0  0  0
   10.5144  -17.7339   26.4266 C   0  0  0  0  0  0  0  0  0  0  0  0
    9.8257  -18.2878   25.3564 O   0  0  0  0  0  0  0  0  0  0  0  0
   10.8395  -18.5782   27.3303 O   0  0  0  0  0  0  0  0  0  0  0  0
  1  2  1  0
  3  2  1  0
  3  5  1  0
  3  4  1  6
  5 12  1  0
  6  5  2  0
  8  9  1  0
  8  7  1  0
 10  9  1  0
 11 10  1  1
 11 13  1  0
 12 11  1  0
 13 14  2  0
 16 18  1  0
 16 15  1  1
 17 16  1  0
 19 18  1  1
 20 13  1  0
 20 19  1  0
 21 22  1  0
 21 19  1  0
 23 21  2  0
M  END
$$$$
