HLA.pdb
     RDKit          3D

 24 24  0  0  1  0  0  0  0  0999 V2000
   18.3730  -11.8225  -16.4545 N   0  0  0  0  0  0  0  0  0  0  0  0
   18.8504  -10.5598  -16.9622 C   0  0  1  0  0  0  0  0  0  0  0  0
   17.6781   -9.7454  -17.3905 C   0  0  0  0  0  0  0  0  0  0  0  0
   17.0149  -10.4341  -18.5283 C   0  0  0  0  0  0  0  0  0  0  0  0
   15.7402  -10.9528  -18.6208 C   0  0  0  0  0  0  0  0  0  0  0  0
   15.5382  -11.4929  -19.8267 N   0  0  0  0  0  0  0  0  0  0  0  0
   16.6774  -11.3263  -20.5165 C   0  0  0  0  0  0  0  0  0  0  0  0
   17.5730  -10.6890  -19.7417 N   0  0  0  0  0  0  0  0  0  0  0  0
   19.7323   -9.8782  -15.9983 C   0  0  0  0  0  0  0  0  0  0  0  0
   19.3714   -9.7929  -14.8168 O   0  0  0  0  0  0  0  0  0  0  0  0
   25.2850  -10.1207  -15.3643 C   0  0  0  0  0  0  0  0  0  0  0  0
   23.7760  -10.1419  -15.0468 C   0  0  1  0  0  0  0  0  0  0  0  0
   23.6226  -10.5528  -13.6289 C   0  0  0  0  0  0  0  0  0  0  0  0
   23.2618   -8.7991  -15.4286 C   0  0  0  0  0  0  0  0  0  0  0  0
   21.8180   -8.5720  -15.4637 C   0  0  2  0  0  0  0  0  0  0  0  0
   20.9812   -9.3041  -16.3259 N   0  0  0  0  0  0  0  0  0  0  0  0
   21.5769   -7.0911  -15.6191 C   0  0  0  0  0  0  0  0  0  0  0  0
   22.0991   -6.2519  -14.8408 O   0  0  0  0  0  0  0  0  0  0  0  0
   20.5968   -4.7794  -18.3128 C   0  0  0  0  0  0  0  0  0  0  0  0
   20.5125   -5.1588  -16.8422 C   0  0  2  0  0  0  0  0  0  0  0  0
   20.7474   -6.5759  -16.6540 N   0  0  0  0  0  0  0  0  0  0  0  0
   19.2422   -4.7190  -16.2347 C   0  0  0  0  0  0  0  0  0  0  0  0
   19.0470   -3.3905  -15.8982 O   0  0  0  0  0  0  0  0  0  0  0  0
   18.3355   -5.5510  -16.0222 O   0  0  0  0  0  0  0  0  0  0  0  0
  2  1  1  1
  3  2  1  0
  4  3  1  0
  5  4  2  0
  6  7  1  0
  6  5  1  0
  7  8  2  0
  8  4  1  0
  9 10  2  0
  9  2  1  0
 12 11  1  1
 12 14  1  0
 12 13  1  0
 15 14  1  6
 15 16  1  0
 16  9  1  0
 17 15  1  0
 18 17  2  0
 20 19  1  6
 20 21  1  0
 21 17  1  0
 22 23  1  0
 22 20  1  0
 24 22  2  0
M  END
$$$$
