HLA.pdb
     RDKit          3D

 24 24  0  0  1  0  0  0  0  0999 V2000
   27.2957  -20.8009  -16.2119 N   0  0  0  0  0  0  0  0  0  0  0  0
   26.1720  -19.9979  -15.7964 C   0  0  1  0  0  0  0  0  0  0  0  0
   25.4642  -19.5048  -17.0117 C   0  0  0  0  0  0  0  0  0  0  0  0
   26.3383  -18.5197  -17.7002 C   0  0  0  0  0  0  0  0  0  0  0  0
   26.3045  -17.1412  -17.6703 C   0  0  0  0  0  0  0  0  0  0  0  0
   27.2739  -16.6298  -18.4354 N   0  0  0  0  0  0  0  0  0  0  0  0
   27.9363  -17.6719  -18.9614 C   0  0  0  0  0  0  0  0  0  0  0  0
   27.3792  -18.8150  -18.5237 N   0  0  0  0  0  0  0  0  0  0  0  0
   25.3029  -20.7177  -14.8486 C   0  0  0  0  0  0  0  0  0  0  0  0
   24.7728  -21.7763  -15.2116 O   0  0  0  0  0  0  0  0  0  0  0  0
   25.5430  -20.3652   -9.0861 C   0  0  0  0  0  0  0  0  0  0  0  0
   25.7173  -20.7452  -10.5704 C   0  0  1  0  0  0  0  0  0  0  0  0
   26.4504  -22.0349  -10.6194 C   0  0  0  0  0  0  0  0  0  0  0  0
   24.3523  -20.7123  -11.1612 C   0  0  0  0  0  0  0  0  0  0  0  0
   24.1920  -20.9271  -12.5983 C   0  0  2  0  0  0  0  0  0  0  0  0
   25.0235  -20.2837  -13.5332 N   0  0  0  0  0  0  0  0  0  0  0  0
   22.7391  -20.7197  -12.9472 C   0  0  0  0  0  0  0  0  0  0  0  0
   22.1895  -19.5928  -12.8435 O   0  0  0  0  0  0  0  0  0  0  0  0
   20.0669  -22.6901  -14.7300 C   0  0  0  0  0  0  0  0  0  0  0  0
   20.5240  -21.6253  -13.7447 C   0  0  2  0  0  0  0  0  0  0  0  0
   21.9239  -21.7902  -13.4097 N   0  0  0  0  0  0  0  0  0  0  0  0
   19.6654  -21.5831  -12.5459 C   0  0  0  0  0  0  0  0  0  0  0  0
   18.4171  -20.9869  -12.5963 O   0  0  0  0  0  0  0  0  0  0  0  0
   20.0671  -22.0889  -11.4771 O   0  0  0  0  0  0  0  0  0  0  0  0
  2  1  1  6
  3  2  1  0
  4  3  1  0
  5  4  2  0
  6  7  1  0
  6  5  1  0
  7  8  2  0
  8  4  1  0
  9 10  2  0
  9  2  1  0
 12 11  1  1
 12 14  1  0
 12 13  1  0
 15 14  1  1
 15 16  1  0
 16  9  1  0
 17 15  1  0
 18 17  2  0
 20 19  1  6
 20 21  1  0
 21 17  1  0
 22 23  1  0
 22 20  1  0
 24 22  2  0
M  END
$$$$
