HLA.pdb
     RDKit          3D

 24 24  0  0  1  0  0  0  0  0999 V2000
   25.4417  -19.0565  -16.8558 N   0  0  0  0  0  0  0  0  0  0  0  0
   24.8507  -18.9711  -15.5430 C   0  0  1  0  0  0  0  0  0  0  0  0
   23.3924  -18.7033  -15.6943 C   0  0  0  0  0  0  0  0  0  0  0  0
   23.2206  -17.3786  -16.3456 C   0  0  0  0  0  0  0  0  0  0  0  0
   23.7190  -16.1461  -15.9784 C   0  0  0  0  0  0  0  0  0  0  0  0
   23.3266  -15.2035  -16.8411 N   0  0  0  0  0  0  0  0  0  0  0  0
   22.5754  -15.8205  -17.7666 C   0  0  0  0  0  0  0  0  0  0  0  0
   22.5061  -17.1318  -17.4759 N   0  0  0  0  0  0  0  0  0  0  0  0
   25.1595  -20.1562  -14.7233 C   0  0  0  0  0  0  0  0  0  0  0  0
   24.8904  -21.2784  -15.1724 O   0  0  0  0  0  0  0  0  0  0  0  0
   29.6406  -20.5988  -11.4050 C   0  0  0  0  0  0  0  0  0  0  0  0
   28.5345  -20.4989  -12.4748 C   0  0  1  0  0  0  0  0  0  0  0  0
   29.1160  -20.9503  -13.7637 C   0  0  0  0  0  0  0  0  0  0  0  0
   27.3802  -21.2694  -11.9388 C   0  0  0  0  0  0  0  0  0  0  0  0
   26.0972  -21.2098  -12.6371 C   0  0  2  0  0  0  0  0  0  0  0  0
   25.7500  -20.1083  -13.4405 N   0  0  0  0  0  0  0  0  0  0  0  0
   25.0039  -21.5077  -11.6414 C   0  0  0  0  0  0  0  0  0  0  0  0
   25.0489  -22.5189  -10.8942 O   0  0  0  0  0  0  0  0  0  0  0  0
   22.3962  -19.8866   -9.7047 C   0  0  0  0  0  0  0  0  0  0  0  0
   22.7251  -21.0017  -10.6855 C   0  0  2  0  0  0  0  0  0  0  0  0
   23.8712  -20.6579  -11.5022 N   0  0  0  0  0  0  0  0  0  0  0  0
   21.5539  -21.3788  -11.4994 C   0  0  0  0  0  0  0  0  0  0  0  0
   20.4042  -21.8591  -10.8962 O   0  0  0  0  0  0  0  0  0  0  0  0
   21.5993  -21.2640  -12.7421 O   0  0  0  0  0  0  0  0  0  0  0  0
  2  1  1  6
  3  2  1  0
  4  3  1  0
  5  4  2  0
  6  7  1  0
  6  5  1  0
  7  8  2  0
  8  4  1  0
  9 10  2  0
  9  2  1  0
 12 11  1  1
 12 14  1  0
 12 13  1  0
 15 14  1  1
 15 16  1  0
 16  9  1  0
 17 15  1  0
 18 17  2  0
 20 19  1  6
 20 21  1  0
 21 17  1  0
 22 23  1  0
 22 20  1  0
 24 22  2  0
M  END
$$$$
