HLA.pdb
     RDKit          3D

 24 24  0  0  1  0  0  0  0  0999 V2000
   20.7699  -13.0152  -15.9790 N   0  0  0  0  0  0  0  0  0  0  0  0
   20.6741  -11.6935  -16.5480 C   0  0  1  0  0  0  0  0  0  0  0  0
   19.2377  -11.2994  -16.5970 C   0  0  0  0  0  0  0  0  0  0  0  0
   18.5394  -12.1797  -17.5698 C   0  0  0  0  0  0  0  0  0  0  0  0
   19.0422  -13.1948  -18.3567 C   0  0  0  0  0  0  0  0  0  0  0  0
   18.0726  -13.7405  -19.0974 N   0  0  0  0  0  0  0  0  0  0  0  0
   16.9427  -13.0829  -18.7936 C   0  0  0  0  0  0  0  0  0  0  0  0
   17.2147  -12.1403  -17.8737 N   0  0  0  0  0  0  0  0  0  0  0  0
   21.5356  -10.7280  -15.8427 C   0  0  0  0  0  0  0  0  0  0  0  0
   21.3333  -10.5162  -14.6396 O   0  0  0  0  0  0  0  0  0  0  0  0
   27.0559   -9.9604  -16.5839 C   0  0  0  0  0  0  0  0  0  0  0  0
   25.6672  -10.2947  -16.0027 C   0  0  1  0  0  0  0  0  0  0  0  0
   25.8744  -10.8672  -14.6490 C   0  0  0  0  0  0  0  0  0  0  0  0
   24.8735   -9.0401  -16.0999 C   0  0  0  0  0  0  0  0  0  0  0  0
   23.4396   -9.0800  -15.8177 C   0  0  2  0  0  0  0  0  0  0  0  0
   22.5942  -10.0125  -16.4462 N   0  0  0  0  0  0  0  0  0  0  0  0
   22.8911   -7.6822  -15.9630 C   0  0  0  0  0  0  0  0  0  0  0  0
   23.3627   -6.7166  -15.3089 O   0  0  0  0  0  0  0  0  0  0  0  0
   20.5272   -5.9271  -18.3293 C   0  0  0  0  0  0  0  0  0  0  0  0
   21.2611   -6.0629  -17.0039 C   0  0  2  0  0  0  0  0  0  0  0  0
   21.8148   -7.3925  -16.8473 N   0  0  0  0  0  0  0  0  0  0  0  0
   20.4088   -5.6764  -15.8635 C   0  0  0  0  0  0  0  0  0  0  0  0
   20.2969   -4.3486  -15.4882 O   0  0  0  0  0  0  0  0  0  0  0  0
   19.7833   -6.5531  -15.2314 O   0  0  0  0  0  0  0  0  0  0  0  0
  2  1  1  1
  3  2  1  0
  4  3  1  0
  5  4  2  0
  6  7  1  0
  6  5  1  0
  7  8  2  0
  8  4  1  0
  9 10  2  0
  9  2  1  0
 12 11  1  1
 12 14  1  0
 12 13  1  0
 15 14  1  6
 15 16  1  0
 16  9  1  0
 17 15  1  0
 18 17  2  0
 20 19  1  6
 20 21  1  0
 21 17  1  0
 22 23  1  0
 22 20  1  0
 24 22  2  0
M  END
$$$$
