HLA.pdb
     RDKit          3D

 24 24  0  0  1  0  0  0  0  0999 V2000
   24.7676  -20.9303  -14.6248 N   0  0  0  0  0  0  0  0  0  0  0  0
   24.2339  -20.1172  -13.5599 C   0  0  1  0  0  0  0  0  0  0  0  0
   22.8003  -19.8326  -13.8512 C   0  0  0  0  0  0  0  0  0  0  0  0
   22.7297  -18.8854  -14.9943 C   0  0  0  0  0  0  0  0  0  0  0  0
   23.7477  -18.2581  -15.6816 C   0  0  0  0  0  0  0  0  0  0  0  0
   23.2528  -17.4799  -16.6492 N   0  0  0  0  0  0  0  0  0  0  0  0
   21.9173  -17.6004  -16.5918 C   0  0  0  0  0  0  0  0  0  0  0  0
   21.5930  -18.4456  -15.5972 N   0  0  0  0  0  0  0  0  0  0  0  0
   24.4667  -20.7227  -12.2367 C   0  0  0  0  0  0  0  0  0  0  0  0
   24.3795  -21.9524  -12.1200 O   0  0  0  0  0  0  0  0  0  0  0  0
   27.4048  -19.7260   -6.9226 C   0  0  0  0  0  0  0  0  0  0  0  0
   26.2788  -20.5558   -7.5719 C   0  0  1  0  0  0  0  0  0  0  0  0
   25.1563  -20.6227   -6.6031 C   0  0  0  0  0  0  0  0  0  0  0  0
   26.0089  -19.9152   -8.8873 C   0  0  0  0  0  0  0  0  0  0  0  0
   25.0359  -20.5260   -9.7915 C   0  0  2  0  0  0  0  0  0  0  0  0
   24.7877  -19.9933  -11.0698 N   0  0  0  0  0  0  0  0  0  0  0  0
   23.7449  -20.7181   -9.0353 C   0  0  0  0  0  0  0  0  0  0  0  0
   23.0081  -19.7455   -8.7290 O   0  0  0  0  0  0  0  0  0  0  0  0
   21.6970  -23.6976   -7.8752 C   0  0  0  0  0  0  0  0  0  0  0  0
   22.0772  -22.2249   -7.8904 C   0  0  2  0  0  0  0  0  0  0  0  0
   23.3017  -22.0092   -8.6340 N   0  0  0  0  0  0  0  0  0  0  0  0
   22.1460  -21.6626   -6.5283 C   0  0  0  0  0  0  0  0  0  0  0  0
   20.9957  -21.2438   -5.8820 O   0  0  0  0  0  0  0  0  0  0  0  0
   23.2500  -21.5634   -5.9533 O   0  0  0  0  0  0  0  0  0  0  0  0
  2  1  1  6
  3  2  1  0
  4  3  1  0
  5  4  2  0
  6  7  1  0
  6  5  1  0
  7  8  2  0
  8  4  1  0
  9 10  2  0
  9  2  1  0
 12 11  1  1
 12 14  1  0
 12 13  1  0
 15 14  1  1
 15 16  1  0
 16  9  1  0
 17 15  1  0
 18 17  2  0
 20 19  1  1
 20 21  1  0
 21 17  1  0
 22 23  1  0
 22 20  1  0
 24 22  2  0
M  END
$$$$
