HLA.pdb
     RDKit          3D

 24 24  0  0  1  0  0  0  0  0999 V2000
   27.2605  -21.8092  -16.2887 N   0  0  0  0  0  0  0  0  0  0  0  0
   26.5565  -20.7174  -15.6622 C   0  0  1  0  0  0  0  0  0  0  0  0
   25.9467  -19.8712  -16.7266 C   0  0  0  0  0  0  0  0  0  0  0  0
   26.8118  -18.6813  -16.9375 C   0  0  0  0  0  0  0  0  0  0  0  0
   27.9151  -18.5285  -17.7511 C   0  0  0  0  0  0  0  0  0  0  0  0
   28.4082  -17.2904  -17.6478 N   0  0  0  0  0  0  0  0  0  0  0  0
   27.6286  -16.6397  -16.7701 C   0  0  0  0  0  0  0  0  0  0  0  0
   26.6637  -17.4704  -16.3369 N   0  0  0  0  0  0  0  0  0  0  0  0
   25.5952  -21.1917  -14.6509 C   0  0  0  0  0  0  0  0  0  0  0  0
   25.0919  -22.3149  -14.7872 O   0  0  0  0  0  0  0  0  0  0  0  0
   26.0330  -20.1142   -9.1271 C   0  0  0  0  0  0  0  0  0  0  0  0
   26.0492  -20.7068  -10.5507 C   0  0  1  0  0  0  0  0  0  0  0  0
   26.5846  -22.0878  -10.4548 C   0  0  0  0  0  0  0  0  0  0  0  0
   24.6658  -20.5451  -11.0737 C   0  0  0  0  0  0  0  0  0  0  0  0
   24.3826  -20.9016  -12.4630 C   0  0  2  0  0  0  0  0  0  0  0  0
   25.1970  -20.4486  -13.5170 N   0  0  0  0  0  0  0  0  0  0  0  0
   22.9321  -20.5959  -12.7422 C   0  0  0  0  0  0  0  0  0  0  0  0
   22.0290  -20.8600  -11.9071 O   0  0  0  0  0  0  0  0  0  0  0  0
   20.9834  -18.6519  -15.3204 C   0  0  0  0  0  0  0  0  0  0  0  0
   21.1279  -19.7708  -14.3001 C   0  0  2  0  0  0  0  0  0  0  0  0
   22.5193  -19.9944  -13.9638 N   0  0  0  0  0  0  0  0  0  0  0  0
   20.4562  -21.0071  -14.7436 C   0  0  0  0  0  0  0  0  0  0  0  0
   19.0793  -21.0484  -14.8804 O   0  0  0  0  0  0  0  0  0  0  0  0
   21.1343  -22.0244  -14.9979 O   0  0  0  0  0  0  0  0  0  0  0  0
  2  1  1  6
  3  2  1  0
  4  3  1  0
  5  4  2  0
  6  7  1  0
  6  5  1  0
  7  8  2  0
  8  4  1  0
  9 10  2  0
  9  2  1  0
 12 11  1  1
 12 14  1  0
 12 13  1  0
 15 14  1  1
 15 16  1  0
 16  9  1  0
 17 15  1  0
 18 17  2  0
 20 19  1  6
 20 21  1  0
 21 17  1  0
 22 23  1  0
 22 20  1  0
 24 22  2  0
M  END
$$$$
