HLA.pdb
     RDKit          3D

 24 24  0  0  1  0  0  0  0  0999 V2000
   19.4667  -13.4102  -18.0233 N   0  0  0  0  0  0  0  0  0  0  0  0
   19.6146  -11.9859  -18.1948 C   0  0  1  0  0  0  0  0  0  0  0  0
   18.2604  -11.3809  -18.3405 C   0  0  0  0  0  0  0  0  0  0  0  0
   17.6616  -11.8639  -19.6120 C   0  0  0  0  0  0  0  0  0  0  0  0
   17.5603  -11.2310  -20.8333 C   0  0  0  0  0  0  0  0  0  0  0  0
   16.9472  -12.0186  -21.7223 N   0  0  0  0  0  0  0  0  0  0  0  0
   16.6506  -13.1603  -21.0818 C   0  0  0  0  0  0  0  0  0  0  0  0
   17.0775  -13.0759  -19.8093 N   0  0  0  0  0  0  0  0  0  0  0  0
   20.4263  -11.3846  -17.1218 C   0  0  0  0  0  0  0  0  0  0  0  0
   20.1435  -11.6430  -15.9442 O   0  0  0  0  0  0  0  0  0  0  0  0
   24.4069  -10.4502  -13.9286 C   0  0  0  0  0  0  0  0  0  0  0  0
   24.5847   -9.6013  -15.2037 C   0  0  1  0  0  0  0  0  0  0  0  0
   26.0414   -9.4770  -15.4594 C   0  0  0  0  0  0  0  0  0  0  0  0
   23.7613  -10.2639  -16.2508 C   0  0  0  0  0  0  0  0  0  0  0  0
   22.3392   -9.9396  -16.3508 C   0  0  2  0  0  0  0  0  0  0  0  0
   21.5225  -10.5198  -17.3387 N   0  0  0  0  0  0  0  0  0  0  0  0
   22.1972   -8.4379  -16.3576 C   0  0  0  0  0  0  0  0  0  0  0  0
   22.6511   -7.7360  -17.2979 O   0  0  0  0  0  0  0  0  0  0  0  0
   19.9514   -5.8881  -15.1804 C   0  0  0  0  0  0  0  0  0  0  0  0
   21.4120   -6.3043  -15.2650 C   0  0  2  0  0  0  0  0  0  0  0  0
   21.5428   -7.7467  -15.3000 N   0  0  0  0  0  0  0  0  0  0  0  0
   22.2179   -5.6976  -14.1886 C   0  0  0  0  0  0  0  0  0  0  0  0
   22.6549   -4.3880  -14.2908 O   0  0  0  0  0  0  0  0  0  0  0  0
   22.5085   -6.3699  -13.1772 O   0  0  0  0  0  0  0  0  0  0  0  0
  2  1  1  1
  3  2  1  0
  4  3  1  0
  5  4  2  0
  6  7  1  0
  6  5  1  0
  7  8  2  0
  8  4  1  0
  9 10  2  0
  9  2  1  0
 12 11  1  1
 12 14  1  0
 12 13  1  0
 15 14  1  6
 15 16  1  0
 16  9  1  0
 17 15  1  0
 18 17  2  0
 20 19  1  1
 20 21  1  0
 21 17  1  0
 22 23  1  0
 22 20  1  0
 24 22  2  0
M  END
$$$$
