HLA.pdb
     RDKit          3D

 24 24  0  0  1  0  0  0  0  0999 V2000
   16.5985  -11.8402  -15.1684 N   0  0  0  0  0  0  0  0  0  0  0  0
   16.5930  -10.3986  -15.2109 C   0  0  1  0  0  0  0  0  0  0  0  0
   15.2161   -9.9376  -15.5466 C   0  0  0  0  0  0  0  0  0  0  0  0
   14.9513  -10.2432  -16.9767 C   0  0  0  0  0  0  0  0  0  0  0  0
   15.3515   -9.5664  -18.1099 C   0  0  0  0  0  0  0  0  0  0  0  0
   14.8977  -10.1780  -19.2085 N   0  0  0  0  0  0  0  0  0  0  0  0
   14.2046  -11.2492  -18.7916 C   0  0  0  0  0  0  0  0  0  0  0  0
   14.2316  -11.2963  -17.4478 N   0  0  0  0  0  0  0  0  0  0  0  0
   17.1358   -9.8104  -13.9735 C   0  0  0  0  0  0  0  0  0  0  0  0
   16.7471  -10.2510  -12.8835 O   0  0  0  0  0  0  0  0  0  0  0  0
   20.9611   -9.9244  -13.4430 C   0  0  0  0  0  0  0  0  0  0  0  0
   21.1092   -8.7862  -12.4131 C   0  0  1  0  0  0  0  0  0  0  0  0
   22.5228   -8.3347  -12.4451 C   0  0  0  0  0  0  0  0  0  0  0  0
   20.0643   -7.7858  -12.7604 C   0  0  0  0  0  0  0  0  0  0  0  0
   18.6620   -8.1985  -12.7843 C   0  0  2  0  0  0  0  0  0  0  0  0
   18.0832   -8.7627  -13.9359 N   0  0  0  0  0  0  0  0  0  0  0  0
   17.8241   -7.0523  -12.2747 C   0  0  0  0  0  0  0  0  0  0  0  0
   17.2952   -6.2218  -13.0578 O   0  0  0  0  0  0  0  0  0  0  0  0
   16.4642   -6.0048   -8.8850 C   0  0  0  0  0  0  0  0  0  0  0  0
   16.7455   -5.8044  -10.3663 C   0  0  2  0  0  0  0  0  0  0  0  0
   17.5939   -6.8584  -10.8841 N   0  0  0  0  0  0  0  0  0  0  0  0
   17.2917   -4.4625  -10.6438 C   0  0  0  0  0  0  0  0  0  0  0  0
   16.4866   -3.3410  -10.5412 O   0  0  0  0  0  0  0  0  0  0  0  0
   18.4895   -4.3364  -10.9738 O   0  0  0  0  0  0  0  0  0  0  0  0
  2  1  1  1
  3  2  1  0
  4  3  1  0
  5  4  2  0
  6  7  1  0
  6  5  1  0
  7  8  2  0
  8  4  1  0
  9 10  2  0
  9  2  1  0
 12 11  1  6
 12 14  1  0
 12 13  1  0
 15 14  1  6
 15 16  1  0
 16  9  1  0
 17 15  1  0
 18 17  2  0
 20 19  1  1
 20 21  1  0
 21 17  1  0
 22 23  1  0
 22 20  1  0
 24 22  2  0
M  END
$$$$
