HLA.pdb
     RDKit          3D

 24 24  0  0  1  0  0  0  0  0999 V2000
   24.6141  -35.7985  -13.6242 N   0  0  0  0  0  0  0  0  0  0  0  0
   24.4532  -35.3391  -14.9818 C   0  0  1  0  0  0  0  0  0  0  0  0
   23.1003  -35.7389  -15.4622 C   0  0  0  0  0  0  0  0  0  0  0  0
   23.0909  -37.2093  -15.6773 C   0  0  0  0  0  0  0  0  0  0  0  0
   22.4802  -38.2026  -14.9405 C   0  0  0  0  0  0  0  0  0  0  0  0
   22.7205  -39.4027  -15.4779 N   0  0  0  0  0  0  0  0  0  0  0  0
   23.4851  -39.1911  -16.5606 C   0  0  0  0  0  0  0  0  0  0  0  0
   23.7133  -37.8719  -16.6885 N   0  0  0  0  0  0  0  0  0  0  0  0
   24.7321  -33.8978  -15.1108 C   0  0  0  0  0  0  0  0  0  0  0  0
   24.3648  -33.1361  -14.2062 O   0  0  0  0  0  0  0  0  0  0  0  0
   29.4856  -31.7908  -16.7340 C   0  0  0  0  0  0  0  0  0  0  0  0
   28.2183  -32.1796  -15.9461 C   0  0  1  0  0  0  0  0  0  0  0  0
   28.4485  -31.8234  -14.5238 C   0  0  0  0  0  0  0  0  0  0  0  0
   27.0860  -31.5123  -16.6431 C   0  0  0  0  0  0  0  0  0  0  0  0
   25.7190  -31.9469  -16.3603 C   0  0  2  0  0  0  0  0  0  0  0  0
   25.3991  -33.3084  -16.2083 N   0  0  0  0  0  0  0  0  0  0  0  0
   24.7995  -31.2929  -17.3615 C   0  0  0  0  0  0  0  0  0  0  0  0
   24.4706  -31.8688  -18.4305 O   0  0  0  0  0  0  0  0  0  0  0  0
   22.5510  -28.2521  -17.3414 C   0  0  0  0  0  0  0  0  0  0  0  0
   23.3024  -29.3778  -18.0354 C   0  0  2  0  0  0  0  0  0  0  0  0
   24.2620  -29.9939  -17.1417 N   0  0  0  0  0  0  0  0  0  0  0  0
   23.9237  -28.9270  -19.2951 C   0  0  0  0  0  0  0  0  0  0  0  0
   23.2689  -29.0990  -20.5025 O   0  0  0  0  0  0  0  0  0  0  0  0
   25.0490  -28.3859  -19.2728 O   0  0  0  0  0  0  0  0  0  0  0  0
  2  1  1  1
  3  2  1  0
  4  3  1  0
  5  4  2  0
  6  7  1  0
  6  5  1  0
  7  8  2  0
  8  4  1  0
  9 10  2  0
  9  2  1  0
 12 11  1  6
 12 14  1  0
 12 13  1  0
 15 14  1  6
 15 16  1  0
 16  9  1  0
 17 15  1  0
 18 17  2  0
 20 19  1  1
 20 21  1  0
 21 17  1  0
 22 23  1  0
 22 20  1  0
 24 22  2  0
M  END
$$$$
