HLA.pdb
     RDKit          3D

 24 24  0  0  1  0  0  0  0  0999 V2000
   18.6207  -12.8002  -17.2161 N   0  0  0  0  0  0  0  0  0  0  0  0
   18.6694  -11.5153  -17.8692 C   0  0  1  0  0  0  0  0  0  0  0  0
   17.4263  -11.3427  -18.6730 C   0  0  0  0  0  0  0  0  0  0  0  0
   17.4516  -12.3149  -19.7967 C   0  0  0  0  0  0  0  0  0  0  0  0
   18.1550  -12.2714  -20.9824 C   0  0  0  0  0  0  0  0  0  0  0  0
   17.8941  -13.3521  -21.7245 N   0  0  0  0  0  0  0  0  0  0  0  0
   17.0238  -14.0963  -21.0242 C   0  0  0  0  0  0  0  0  0  0  0  0
   16.7515  -13.4788  -19.8609 N   0  0  0  0  0  0  0  0  0  0  0  0
   18.9204  -10.4222  -16.9134 C   0  0  0  0  0  0  0  0  0  0  0  0
   18.1101  -10.2345  -15.9960 O   0  0  0  0  0  0  0  0  0  0  0  0
   23.5976   -9.7434  -14.3479 C   0  0  0  0  0  0  0  0  0  0  0  0
   22.0624   -9.7814  -14.4885 C   0  0  1  0  0  0  0  0  0  0  0  0
   21.4882   -9.8155  -13.1203 C   0  0  0  0  0  0  0  0  0  0  0  0
   21.7047   -8.6232  -15.3511 C   0  0  0  0  0  0  0  0  0  0  0  0
   20.3957   -8.5962  -16.0017 C   0  0  2  0  0  0  0  0  0  0  0  0
   20.0358   -9.5562  -16.9652 N   0  0  0  0  0  0  0  0  0  0  0  0
   20.1579   -7.2017  -16.5255 C   0  0  0  0  0  0  0  0  0  0  0  0
   20.7413   -6.7747  -17.5551 O   0  0  0  0  0  0  0  0  0  0  0  0
   17.6017   -4.5067  -15.9694 C   0  0  0  0  0  0  0  0  0  0  0  0
   18.9946   -4.9690  -16.3691 C   0  0  2  0  0  0  0  0  0  0  0  0
   19.2623   -6.3055  -15.8781 N   0  0  0  0  0  0  0  0  0  0  0  0
   20.0318   -4.0051  -15.9551 C   0  0  0  0  0  0  0  0  0  0  0  0
   20.2496   -2.8500  -16.6863 O   0  0  0  0  0  0  0  0  0  0  0  0
   20.7189   -4.2323  -14.9375 O   0  0  0  0  0  0  0  0  0  0  0  0
  2  1  1  1
  3  2  1  0
  4  3  1  0
  5  4  2  0
  6  7  1  0
  6  5  1  0
  7  8  2  0
  8  4  1  0
  9 10  2  0
  9  2  1  0
 12 11  1  1
 12 14  1  0
 12 13  1  0
 15 14  1  6
 15 16  1  0
 16  9  1  0
 17 15  1  0
 18 17  2  0
 20 19  1  1
 20 21  1  0
 21 17  1  0
 22 23  1  0
 22 20  1  0
 24 22  2  0
M  END
$$$$
