HLA.pdb
     RDKit          3D

 24 24  0  0  1  0  0  0  0  0999 V2000
   18.6308  -12.0927  -17.8162 N   0  0  0  0  0  0  0  0  0  0  0  0
   19.5120  -11.0472  -18.2750 C   0  0  1  0  0  0  0  0  0  0  0  0
   18.6914   -9.9791  -18.9128 C   0  0  0  0  0  0  0  0  0  0  0  0
   18.1442  -10.5038  -20.1910 C   0  0  0  0  0  0  0  0  0  0  0  0
   18.5585  -11.5779  -20.9506 C   0  0  0  0  0  0  0  0  0  0  0  0
   17.7904  -11.7108  -22.0365 N   0  0  0  0  0  0  0  0  0  0  0  0
   16.8793  -10.7265  -21.9837 C   0  0  0  0  0  0  0  0  0  0  0  0
   17.0851   -9.9940  -20.8747 N   0  0  0  0  0  0  0  0  0  0  0  0
   20.3949  -10.5615  -17.1997 C   0  0  0  0  0  0  0  0  0  0  0  0
   19.9160  -10.3770  -16.0727 O   0  0  0  0  0  0  0  0  0  0  0  0
   24.3016  -10.2277  -13.8677 C   0  0  0  0  0  0  0  0  0  0  0  0
   24.9293   -9.8241  -15.2171 C   0  0  1  0  0  0  0  0  0  0  0  0
   26.3330  -10.3065  -15.2201 C   0  0  0  0  0  0  0  0  0  0  0  0
   24.0200  -10.3613  -16.2649 C   0  0  0  0  0  0  0  0  0  0  0  0
   22.6575   -9.8401  -16.3620 C   0  0  2  0  0  0  0  0  0  0  0  0
   21.7714  -10.2854  -17.3599 N   0  0  0  0  0  0  0  0  0  0  0  0
   22.7266   -8.3333  -16.3458 C   0  0  0  0  0  0  0  0  0  0  0  0
   23.3214   -7.6898  -17.2484 O   0  0  0  0  0  0  0  0  0  0  0  0
   20.8185   -5.5140  -15.5771 C   0  0  0  0  0  0  0  0  0  0  0  0
   22.1754   -6.1240  -15.2604 C   0  0  2  0  0  0  0  0  0  0  0  0
   22.1214   -7.5710  -15.3079 N   0  0  0  0  0  0  0  0  0  0  0  0
   22.7137   -5.6282  -13.9795 C   0  0  0  0  0  0  0  0  0  0  0  0
   23.1804   -4.3296  -13.8690 O   0  0  0  0  0  0  0  0  0  0  0  0
   22.7488   -6.3851  -12.9869 O   0  0  0  0  0  0  0  0  0  0  0  0
  2  1  1  1
  3  2  1  0
  4  3  1  0
  5  4  2  0
  6  7  1  0
  6  5  1  0
  7  8  2  0
  8  4  1  0
  9 10  2  0
  9  2  1  0
 12 11  1  1
 12 14  1  0
 12 13  1  0
 15 14  1  6
 15 16  1  0
 16  9  1  0
 17 15  1  0
 18 17  2  0
 20 19  1  1
 20 21  1  0
 21 17  1  0
 22 23  1  0
 22 20  1  0
 24 22  2  0
M  END
$$$$
