HLA.pdb
     RDKit          3D

 24 24  0  0  1  0  0  0  0  0999 V2000
   26.9016  -20.7940  -17.1668 N   0  0  0  0  0  0  0  0  0  0  0  0
   26.2403  -19.9148  -16.2342 C   0  0  1  0  0  0  0  0  0  0  0  0
   25.1307  -19.2169  -16.9432 C   0  0  0  0  0  0  0  0  0  0  0  0
   25.7191  -18.2277  -17.8833 C   0  0  0  0  0  0  0  0  0  0  0  0
   27.0423  -17.9221  -18.1246 C   0  0  0  0  0  0  0  0  0  0  0  0
   27.1428  -16.9659  -19.0533 N   0  0  0  0  0  0  0  0  0  0  0  0
   25.8893  -16.6504  -19.4151 C   0  0  0  0  0  0  0  0  0  0  0  0
   25.0247  -17.4060  -18.7149 N   0  0  0  0  0  0  0  0  0  0  0  0
   25.8175  -20.6254  -15.0144 C   0  0  0  0  0  0  0  0  0  0  0  0
   25.5551  -21.8333  -15.0886 O   0  0  0  0  0  0  0  0  0  0  0  0
   25.9142  -22.2114   -9.9826 C   0  0  0  0  0  0  0  0  0  0  0  0
   25.2027  -20.8438  -10.0194 C   0  0  1  0  0  0  0  0  0  0  0  0
   25.4521  -20.1742   -8.7184 C   0  0  0  0  0  0  0  0  0  0  0  0
   25.6978  -20.1612  -11.2451 C   0  0  0  0  0  0  0  0  0  0  0  0
   25.2756  -20.6536  -12.5552 C   0  0  2  0  0  0  0  0  0  0  0  0
   25.6865  -20.0220  -13.7433 N   0  0  0  0  0  0  0  0  0  0  0  0
   23.7769  -20.8243  -12.5345 C   0  0  0  0  0  0  0  0  0  0  0  0
   23.2158  -21.6381  -11.7563 O   0  0  0  0  0  0  0  0  0  0  0  0
   20.8684  -18.7690  -13.6302 C   0  0  0  0  0  0  0  0  0  0  0  0
   21.4837  -20.1245  -13.3180 C   0  0  2  0  0  0  0  0  0  0  0  0
   22.9294  -20.0721  -13.3949 N   0  0  0  0  0  0  0  0  0  0  0  0
   20.9189  -21.1912  -14.1662 C   0  0  0  0  0  0  0  0  0  0  0  0
   19.5699  -21.4961  -14.1067 O   0  0  0  0  0  0  0  0  0  0  0  0
   21.6628  -21.8244  -14.9441 O   0  0  0  0  0  0  0  0  0  0  0  0
  2  1  1  6
  3  2  1  0
  4  3  1  0
  5  4  2  0
  6  7  1  0
  6  5  1  0
  7  8  2  0
  8  4  1  0
  9 10  2  0
  9  2  1  0
 12 11  1  1
 12 14  1  0
 12 13  1  0
 15 14  1  1
 15 16  1  0
 16  9  1  0
 17 15  1  0
 18 17  2  0
 20 19  1  6
 20 21  1  0
 21 17  1  0
 22 23  1  0
 22 20  1  0
 24 22  2  0
M  END
$$$$
