QSN.pdb
     RDKit          3D

 24 23  0  0  1  0  0  0  0  0999 V2000
    7.7556  -11.9285   18.3249 N   0  0  0  0  0  0  0  0  0  0  0  0
    7.6188  -13.3601   18.4424 C   0  0  0  0  0  0  0  0  0  0  0  0
    6.4835  -13.8041   18.1390 O   0  0  0  0  0  0  0  0  0  0  0  0
    8.7620  -14.1908   18.8897 C   0  0  0  0  0  0  0  0  0  0  0  0
    9.9461  -13.4199   19.3598 C   0  0  0  0  0  0  0  0  0  0  0  0
   11.0356  -14.2718   19.9223 C   0  0  2  0  0  0  0  0  0  0  0  0
   11.4097  -15.2420   18.8918 N   0  0  0  0  0  0  0  0  0  0  0  0
   10.6245  -15.0178   21.1281 C   0  0  0  0  0  0  0  0  0  0  0  0
   10.2809  -14.3879   22.1565 O   0  0  0  0  0  0  0  0  0  0  0  0
   10.8112  -19.2240   21.2389 O   0  0  0  0  0  0  0  0  0  0  0  0
    9.7746  -18.5542   21.8750 C   0  0  0  0  0  0  0  0  0  0  0  0
   10.2521  -17.1893   22.3916 C   0  0  2  0  0  0  0  0  0  0  0  0
   10.5915  -16.4331   21.2027 N   0  0  0  0  0  0  0  0  0  0  0  0
   11.4439  -17.4658   23.2303 C   0  0  0  0  0  0  0  0  0  0  0  0
   12.6173  -17.3746   22.7825 O   0  0  0  0  0  0  0  0  0  0  0  0
    9.4516  -18.5705   27.2868 N   0  0  0  0  0  0  0  0  0  0  0  0
   10.8194  -18.8964   27.3067 C   0  0  0  0  0  0  0  0  0  0  0  0
   11.1447  -20.0582   27.6996 O   0  0  0  0  0  0  0  0  0  0  0  0
   11.9095  -18.0025   26.9091 C   0  0  0  0  0  0  0  0  0  0  0  0
   12.3399  -18.1567   25.4806 C   0  0  2  0  0  0  0  0  0  0  0  0
   11.2550  -17.8421   24.5675 N   0  0  0  0  0  0  0  0  0  0  0  0
   12.8418  -19.5106   25.1623 C   0  0  0  0  0  0  0  0  0  0  0  0
   13.8973  -19.9703   25.6898 O   0  0  0  0  0  0  0  0  0  0  0  0
   12.1768  -20.3376   24.2697 O   0  0  0  0  0  0  0  0  0  0  0  0
  1  2  1  0
  2  3  2  0
  4  2  1  0
  4  5  1  0
  6  5  1  0
  6  7  1  6
  8  6  1  0
  9  8  2  0
 12 11  1  6
 11 10  1  0
 12 13  1  0
 13  8  1  0
 14 21  1  0
 14 12  1  0
 15 14  2  0
 17 16  1  0
 18 17  2  0
 19 17  1  0
 20 19  1  1
 20 21  1  0
 22 20  1  0
 22 24  1  0
 23 22  2  0
M  END
$$$$
