QSN.pdb
     RDKit          3D

 24 23  0  0  1  0  0  0  0  0999 V2000
    8.3368  -18.6478   14.4077 N   0  0  0  0  0  0  0  0  0  0  0  0
    9.1656  -17.6128   13.8384 C   0  0  0  0  0  0  0  0  0  0  0  0
   10.0994  -18.0316   13.1099 O   0  0  0  0  0  0  0  0  0  0  0  0
    8.8890  -16.1851   14.1246 C   0  0  0  0  0  0  0  0  0  0  0  0
    7.6580  -15.9372   14.9252 C   0  0  0  0  0  0  0  0  0  0  0  0
    7.4397  -14.5001   15.2658 C   0  0  2  0  0  0  0  0  0  0  0  0
    7.5737  -13.7309   14.0275 N   0  0  0  0  0  0  0  0  0  0  0  0
    8.4202  -13.9791   16.2387 C   0  0  0  0  0  0  0  0  0  0  0  0
    9.5366  -13.5757   15.8342 O   0  0  0  0  0  0  0  0  0  0  0  0
    7.6381  -14.3703   20.2603 O   0  0  0  0  0  0  0  0  0  0  0  0
    8.3472  -13.2321   19.9006 C   0  0  0  0  0  0  0  0  0  0  0  0
    9.1546  -13.4832   18.6188 C   0  0  2  0  0  0  0  0  0  0  0  0
    8.1782  -13.9025   17.6333 N   0  0  0  0  0  0  0  0  0  0  0  0
   10.1111  -14.5685   18.9464 C   0  0  0  0  0  0  0  0  0  0  0  0
    9.9350  -15.7569   18.5689 O   0  0  0  0  0  0  0  0  0  0  0  0
   14.5261  -13.0155   18.1810 N   0  0  0  0  0  0  0  0  0  0  0  0
   14.0606  -14.2753   18.5980 C   0  0  0  0  0  0  0  0  0  0  0  0
   13.9913  -15.1972   17.7289 O   0  0  0  0  0  0  0  0  0  0  0  0
   13.6460  -14.6172   19.9605 C   0  0  0  0  0  0  0  0  0  0  0  0
   12.2773  -15.2238   20.0519 C   0  0  2  0  0  0  0  0  0  0  0  0
   11.2497  -14.2583   19.7032 N   0  0  0  0  0  0  0  0  0  0  0  0
   11.9680  -15.7743   21.3889 C   0  0  0  0  0  0  0  0  0  0  0  0
   11.0232  -15.3146   22.0956 O   0  0  0  0  0  0  0  0  0  0  0  0
   12.7014  -16.8204   21.9282 O   0  0  0  0  0  0  0  0  0  0  0  0
  1  2  1  0
  2  3  2  0
  4  2  1  0
  4  5  1  0
  6  5  1  0
  6  7  1  6
  8  6  1  0
  9  8  2  0
 12 11  1  1
 11 10  1  0
 12 13  1  0
 13  8  1  0
 14 21  1  0
 14 12  1  0
 15 14  2  0
 17 16  1  0
 18 17  2  0
 19 17  1  0
 20 19  1  1
 20 21  1  0
 22 20  1  0
 22 24  1  0
 23 22  2  0
M  END
$$$$
