QSN.pdb
     RDKit          3D

 24 23  0  0  1  0  0  0  0  0999 V2000
    5.6059  -21.0531   23.6049 N   0  0  0  0  0  0  0  0  0  0  0  0
    5.2352  -20.3213   22.4179 C   0  0  0  0  0  0  0  0  0  0  0  0
    4.1012  -20.6072   21.9594 O   0  0  0  0  0  0  0  0  0  0  0  0
    6.1596  -19.3224   21.8307 C   0  0  0  0  0  0  0  0  0  0  0  0
    5.5048  -18.0738   21.3513 C   0  0  0  0  0  0  0  0  0  0  0  0
    6.4592  -17.0643   20.8045 C   0  0  2  0  0  0  0  0  0  0  0  0
    7.1736  -17.6936   19.6925 N   0  0  0  0  0  0  0  0  0  0  0  0
    7.4568  -16.6132   21.7949 C   0  0  0  0  0  0  0  0  0  0  0  0
    8.4960  -16.0308   21.4031 O   0  0  0  0  0  0  0  0  0  0  0  0
    6.6675  -14.2042   24.9632 O   0  0  0  0  0  0  0  0  0  0  0  0
    7.5827  -14.5829   23.9903 C   0  0  0  0  0  0  0  0  0  0  0  0
    8.0235  -16.0384   24.2029 C   0  0  2  0  0  0  0  0  0  0  0  0
    7.3150  -16.7990   23.1931 N   0  0  0  0  0  0  0  0  0  0  0  0
    7.5880  -16.3993   25.5742 C   0  0  0  0  0  0  0  0  0  0  0  0
    6.3901  -16.2959   25.9485 O   0  0  0  0  0  0  0  0  0  0  0  0
    7.3363  -21.4220   27.0266 N   0  0  0  0  0  0  0  0  0  0  0  0
    8.4524  -20.6184   26.7329 C   0  0  0  0  0  0  0  0  0  0  0  0
    9.6025  -21.0842   26.9983 O   0  0  0  0  0  0  0  0  0  0  0  0
    8.4006  -19.2794   26.1416 C   0  0  0  0  0  0  0  0  0  0  0  0
    8.4676  -18.1637   27.1417 C   0  0  2  0  0  0  0  0  0  0  0  0
    8.5450  -16.8712   26.4835 N   0  0  0  0  0  0  0  0  0  0  0  0
    9.6072  -18.2817   28.0766 C   0  0  0  0  0  0  0  0  0  0  0  0
   10.7549  -17.8319   27.7870 O   0  0  0  0  0  0  0  0  0  0  0  0
    9.4679  -18.8920   29.3139 O   0  0  0  0  0  0  0  0  0  0  0  0
  1  2  1  0
  2  3  2  0
  4  2  1  0
  4  5  1  0
  6  5  1  0
  6  7  1  6
  8  6  1  0
  9  8  2  0
 12 11  1  6
 11 10  1  0
 12 13  1  0
 13  8  1  0
 14 21  1  0
 14 12  1  0
 15 14  2  0
 17 16  1  0
 18 17  2  0
 19 17  1  0
 20 19  1  6
 20 21  1  0
 22 20  1  0
 22 24  1  0
 23 22  2  0
M  END
$$$$
