QSN.pdb
     RDKit          3D

 24 23  0  0  1  0  0  0  0  0999 V2000
    3.9463  -19.1111   18.2403 N   0  0  0  0  0  0  0  0  0  0  0  0
    4.8815  -19.9807   17.5684 C   0  0  0  0  0  0  0  0  0  0  0  0
    4.3587  -20.7839   16.7564 O   0  0  0  0  0  0  0  0  0  0  0  0
    6.3331  -19.8877   17.8531 C   0  0  0  0  0  0  0  0  0  0  0  0
    6.6924  -18.9621   18.9629 C   0  0  0  0  0  0  0  0  0  0  0  0
    6.7466  -17.5264   18.5568 C   0  0  2  0  0  0  0  0  0  0  0  0
    7.0301  -17.4874   17.1211 N   0  0  0  0  0  0  0  0  0  0  0  0
    7.8023  -16.7658   19.2543 C   0  0  0  0  0  0  0  0  0  0  0  0
    9.0066  -17.0104   19.0050 O   0  0  0  0  0  0  0  0  0  0  0  0
    6.7937  -14.7668   22.7444 O   0  0  0  0  0  0  0  0  0  0  0  0
    7.7587  -14.1599   21.9519 C   0  0  0  0  0  0  0  0  0  0  0  0
    8.5192  -15.2104   21.1297 C   0  0  2  0  0  0  0  0  0  0  0  0
    7.5389  -15.7527   20.2104 N   0  0  0  0  0  0  0  0  0  0  0  0
    8.9874  -16.2276   22.1025 C   0  0  0  0  0  0  0  0  0  0  0  0
    8.3610  -17.3006   22.3076 O   0  0  0  0  0  0  0  0  0  0  0  0
   11.8311  -20.3242   23.6294 N   0  0  0  0  0  0  0  0  0  0  0  0
   12.2481  -19.1022   23.0723 C   0  0  0  0  0  0  0  0  0  0  0  0
   13.4923  -18.8533   23.0574 O   0  0  0  0  0  0  0  0  0  0  0  0
   11.3623  -18.0842   22.5029 C   0  0  0  0  0  0  0  0  0  0  0  0
   10.9454  -17.0202   23.4744 C   0  0  2  0  0  0  0  0  0  0  0  0
   10.1682  -15.9836   22.8177 N   0  0  0  0  0  0  0  0  0  0  0  0
   12.0839  -16.3821   24.1695 C   0  0  0  0  0  0  0  0  0  0  0  0
   12.6442  -16.9256   25.1665 O   0  0  0  0  0  0  0  0  0  0  0  0
   12.5882  -15.1574   23.7586 O   0  0  0  0  0  0  0  0  0  0  0  0
  1  2  1  0
  2  3  2  0
  4  2  1  0
  4  5  1  0
  6  5  1  0
  6  7  1  6
  8  6  1  0
  9  8  2  0
 12 11  1  1
 11 10  1  0
 12 13  1  0
 13  8  1  0
 14 21  1  0
 14 12  1  0
 15 14  2  0
 17 16  1  0
 18 17  2  0
 19 17  1  0
 20 19  1  6
 20 21  1  0
 22 20  1  0
 22 24  1  0
 23 22  2  0
M  END
$$$$
