QSN.pdb
     RDKit          3D

 24 23  0  0  1  0  0  0  0  0999 V2000
    7.9677  -13.1241   17.5804 N   0  0  0  0  0  0  0  0  0  0  0  0
    8.0073  -12.6421   18.9399 C   0  0  0  0  0  0  0  0  0  0  0  0
    8.9195  -11.8108   19.1741 O   0  0  0  0  0  0  0  0  0  0  0  0
    7.0233  -13.1243   19.9380 C   0  0  0  0  0  0  0  0  0  0  0  0
    6.5776  -14.5319   19.7438 C   0  0  0  0  0  0  0  0  0  0  0  0
    7.5751  -15.5475   20.1939 C   0  0  2  0  0  0  0  0  0  0  0  0
    7.0327  -16.8681   19.8700 N   0  0  0  0  0  0  0  0  0  0  0  0
    7.8351  -15.5012   21.6464 C   0  0  0  0  0  0  0  0  0  0  0  0
    8.4543  -14.5249   22.1319 O   0  0  0  0  0  0  0  0  0  0  0  0
    6.4538  -18.5474   24.2518 O   0  0  0  0  0  0  0  0  0  0  0  0
    6.5014  -17.2098   24.6207 C   0  0  0  0  0  0  0  0  0  0  0  0
    7.7070  -16.5146   23.9717 C   0  0  2  0  0  0  0  0  0  0  0  0
    7.4214  -16.5114   22.5508 N   0  0  0  0  0  0  0  0  0  0  0  0
    8.8851  -17.3549   24.2973 C   0  0  0  0  0  0  0  0  0  0  0  0
    9.2509  -18.3126   23.5661 O   0  0  0  0  0  0  0  0  0  0  0  0
   12.1128  -15.9496   23.5173 N   0  0  0  0  0  0  0  0  0  0  0  0
   12.3614  -17.1006   24.2862 C   0  0  0  0  0  0  0  0  0  0  0  0
   12.9167  -18.0865   23.7119 O   0  0  0  0  0  0  0  0  0  0  0  0
   12.0321  -17.2599   25.7044 C   0  0  0  0  0  0  0  0  0  0  0  0
   10.6995  -17.9001   25.9571 C   0  0  2  0  0  0  0  0  0  0  0  0
    9.6150  -17.0714   25.4602 N   0  0  0  0  0  0  0  0  0  0  0  0
   10.4499  -18.1907   27.3853 C   0  0  0  0  0  0  0  0  0  0  0  0
    9.4969  -17.6479   28.0182 O   0  0  0  0  0  0  0  0  0  0  0  0
   11.2511  -19.0722   28.0951 O   0  0  0  0  0  0  0  0  0  0  0  0
  1  2  1  0
  2  3  2  0
  4  2  1  0
  4  5  1  0
  6  5  1  0
  6  7  1  1
  8  6  1  0
  9  8  2  0
 12 11  1  1
 11 10  1  0
 12 13  1  0
 13  8  1  0
 14 21  1  0
 14 12  1  0
 15 14  2  0
 17 16  1  0
 18 17  2  0
 19 17  1  0
 20 19  1  1
 20 21  1  0
 22 20  1  0
 22 24  1  0
 23 22  2  0
M  END
$$$$
