QSN.pdb
     RDKit          3D

 24 23  0  0  1  0  0  0  0  0999 V2000
    7.7117  -14.0471   13.7940 N   0  0  0  0  0  0  0  0  0  0  0  0
    8.9724  -14.7489   13.7883 C   0  0  0  0  0  0  0  0  0  0  0  0
    9.6119  -14.6678   12.7101 O   0  0  0  0  0  0  0  0  0  0  0  0
    9.4265  -15.4895   14.9893 C   0  0  0  0  0  0  0  0  0  0  0  0
    8.4380  -15.5381   16.1020 C   0  0  0  0  0  0  0  0  0  0  0  0
    8.9683  -16.1570   17.3529 C   0  0  2  0  0  0  0  0  0  0  0  0
    7.9833  -17.1400   17.8074 N   0  0  0  0  0  0  0  0  0  0  0  0
    9.1777  -15.1801   18.4398 C   0  0  0  0  0  0  0  0  0  0  0  0
   10.2338  -14.5046   18.4678 O   0  0  0  0  0  0  0  0  0  0  0  0
    6.3902  -14.8809   21.5077 O   0  0  0  0  0  0  0  0  0  0  0  0
    7.0456  -13.7212   21.1162 C   0  0  0  0  0  0  0  0  0  0  0  0
    8.4523  -14.0476   20.5942 C   0  0  2  0  0  0  0  0  0  0  0  0
    8.2418  -14.9491   19.4792 N   0  0  0  0  0  0  0  0  0  0  0  0
    9.1589  -14.7118   21.7167 C   0  0  0  0  0  0  0  0  0  0  0  0
    9.4476  -14.1060   22.7822 O   0  0  0  0  0  0  0  0  0  0  0  0
   10.1955  -19.7635   24.4001 N   0  0  0  0  0  0  0  0  0  0  0  0
   10.8210  -19.1359   23.3081 C   0  0  0  0  0  0  0  0  0  0  0  0
   12.0707  -19.3038   23.1662 O   0  0  0  0  0  0  0  0  0  0  0  0
   10.1480  -18.2989   22.3123 C   0  0  0  0  0  0  0  0  0  0  0  0
   10.1610  -16.8335   22.6321 C   0  0  2  0  0  0  0  0  0  0  0  0
    9.5172  -16.0607   21.5843 N   0  0  0  0  0  0  0  0  0  0  0  0
   11.5203  -16.2919   22.8452 C   0  0  0  0  0  0  0  0  0  0  0  0
   12.0137  -16.1696   24.0050 O   0  0  0  0  0  0  0  0  0  0  0  0
   12.3154  -15.8932   21.7814 O   0  0  0  0  0  0  0  0  0  0  0  0
  1  2  1  0
  2  3  2  0
  4  2  1  0
  4  5  1  0
  6  5  1  0
  6  7  1  1
  8  6  1  0
  9  8  2  0
 12 11  1  1
 11 10  1  0
 12 13  1  0
 13  8  1  0
 14 21  1  0
 14 12  1  0
 15 14  2  0
 17 16  1  0
 18 17  2  0
 19 17  1  0
 20 19  1  6
 20 21  1  0
 22 20  1  0
 22 24  1  0
 23 22  2  0
M  END
$$$$
