QSN.pdb
     RDKit          3D

 24 23  0  0  1  0  0  0  0  0999 V2000
    8.9316  -16.1171   14.2630 N   0  0  0  0  0  0  0  0  0  0  0  0
    7.9152  -15.6075   15.1515 C   0  0  0  0  0  0  0  0  0  0  0  0
    7.1362  -14.7709   14.6306 O   0  0  0  0  0  0  0  0  0  0  0  0
    7.8437  -16.0714   16.5574 C   0  0  0  0  0  0  0  0  0  0  0  0
    8.7350  -15.3409   17.5006 C   0  0  0  0  0  0  0  0  0  0  0  0
    8.0241  -14.3370   18.3466 C   0  0  2  0  0  0  0  0  0  0  0  0
    8.0823  -13.0532   17.6455 N   0  0  0  0  0  0  0  0  0  0  0  0
    8.6378  -14.1616   19.6778 C   0  0  0  0  0  0  0  0  0  0  0  0
    9.7837  -13.6604   19.7682 O   0  0  0  0  0  0  0  0  0  0  0  0
    6.3984  -14.9927   22.9548 O   0  0  0  0  0  0  0  0  0  0  0  0
    7.4667  -14.1309   23.1642 C   0  0  0  0  0  0  0  0  0  0  0  0
    8.6173  -14.4554   22.2004 C   0  0  2  0  0  0  0  0  0  0  0  0
    8.0026  -14.5310   20.8902 N   0  0  0  0  0  0  0  0  0  0  0  0
    9.1550  -15.7675   22.6358 C   0  0  0  0  0  0  0  0  0  0  0  0
    8.7921  -16.8517   22.1081 O   0  0  0  0  0  0  0  0  0  0  0  0
   13.2118  -16.1811   22.0732 N   0  0  0  0  0  0  0  0  0  0  0  0
   12.6144  -17.2166   22.8137 C   0  0  0  0  0  0  0  0  0  0  0  0
   12.5085  -18.3538   22.2608 O   0  0  0  0  0  0  0  0  0  0  0  0
   12.1002  -17.0941   24.1796 C   0  0  0  0  0  0  0  0  0  0  0  0
   10.6046  -17.0231   24.2687 C   0  0  2  0  0  0  0  0  0  0  0  0
   10.0997  -15.7992   23.6712 N   0  0  0  0  0  0  0  0  0  0  0  0
   10.0947  -17.1127   25.6537 C   0  0  0  0  0  0  0  0  0  0  0  0
   10.3248  -18.1215   26.3837 O   0  0  0  0  0  0  0  0  0  0  0  0
    9.3402  -16.0933   26.2145 O   0  0  0  0  0  0  0  0  0  0  0  0
  1  2  1  0
  2  3  2  0
  4  2  1  0
  4  5  1  0
  6  5  1  0
  6  7  1  6
  8  6  1  0
  9  8  2  0
 12 11  1  1
 11 10  1  0
 12 13  1  0
 13  8  1  0
 14 21  1  0
 14 12  1  0
 15 14  2  0
 17 16  1  0
 18 17  2  0
 19 17  1  0
 20 19  1  1
 20 21  1  0
 22 20  1  0
 22 24  1  0
 23 22  2  0
M  END
$$$$
