QSN.pdb
     RDKit          3D

 24 23  0  0  1  0  0  0  0  0999 V2000
    7.7645  -15.2898   10.9217 N   0  0  0  0  0  0  0  0  0  0  0  0
    7.3943  -15.1807   12.3121 C   0  0  0  0  0  0  0  0  0  0  0  0
    6.1714  -15.3516   12.5431 O   0  0  0  0  0  0  0  0  0  0  0  0
    8.4189  -14.8894   13.3427 C   0  0  0  0  0  0  0  0  0  0  0  0
    9.5050  -15.9031   13.4455 C   0  0  0  0  0  0  0  0  0  0  0  0
    9.6137  -16.5355   14.7935 C   0  0  2  0  0  0  0  0  0  0  0  0
    8.2682  -16.9523   15.1921 N   0  0  0  0  0  0  0  0  0  0  0  0
   10.1345  -15.6166   15.8250 C   0  0  0  0  0  0  0  0  0  0  0  0
   11.2983  -15.1625   15.7165 O   0  0  0  0  0  0  0  0  0  0  0  0
    8.1999  -15.2200   19.5428 O   0  0  0  0  0  0  0  0  0  0  0  0
    8.7079  -14.0816   18.9315 C   0  0  0  0  0  0  0  0  0  0  0  0
    9.9240  -14.4339   18.0627 C   0  0  2  0  0  0  0  0  0  0  0  0
    9.3885  -15.2034   16.9574 N   0  0  0  0  0  0  0  0  0  0  0  0
   10.8164  -15.2487   18.9230 C   0  0  0  0  0  0  0  0  0  0  0  0
   10.8245  -16.5072   18.8823 O   0  0  0  0  0  0  0  0  0  0  0  0
   14.8894  -13.4123   18.7343 N   0  0  0  0  0  0  0  0  0  0  0  0
   14.6845  -14.5351   19.5559 C   0  0  0  0  0  0  0  0  0  0  0  0
   15.2130  -15.6324   19.2000 O   0  0  0  0  0  0  0  0  0  0  0  0
   13.9075  -14.5464   20.7974 C   0  0  0  0  0  0  0  0  0  0  0  0
   12.6026  -15.2793   20.6985 C   0  0  2  0  0  0  0  0  0  0  0  0
   11.6796  -14.5926   19.8117 N   0  0  0  0  0  0  0  0  0  0  0  0
   11.9388  -15.4738   22.0054 C   0  0  0  0  0  0  0  0  0  0  0  0
   10.8522  -14.8909   22.2933 O   0  0  0  0  0  0  0  0  0  0  0  0
   12.4793  -16.3051   22.9748 O   0  0  0  0  0  0  0  0  0  0  0  0
  1  2  1  0
  2  3  2  0
  4  2  1  0
  4  5  1  0
  6  5  1  0
  6  7  1  1
  8  6  1  0
  9  8  2  0
 12 11  1  1
 11 10  1  0
 12 13  1  0
 13  8  1  0
 14 21  1  0
 14 12  1  0
 15 14  2  0
 17 16  1  0
 18 17  2  0
 19 17  1  0
 20 19  1  1
 20 21  1  0
 22 20  1  0
 22 24  1  0
 23 22  2  0
M  END
$$$$
