QSN.pdb
     RDKit          3D

 24 23  0  0  1  0  0  0  0  0999 V2000
    7.9359  -21.2492   18.2449 N   0  0  0  0  0  0  0  0  0  0  0  0
    8.4825  -20.8906   16.9585 C   0  0  0  0  0  0  0  0  0  0  0  0
    7.7229  -21.1201   15.9846 O   0  0  0  0  0  0  0  0  0  0  0  0
    9.8382  -20.3004   16.8552 C   0  0  0  0  0  0  0  0  0  0  0  0
   10.5519  -20.1479   18.1533 C   0  0  0  0  0  0  0  0  0  0  0  0
   11.2491  -18.8368   18.3075 C   0  0  2  0  0  0  0  0  0  0  0  0
   11.9303  -18.5512   17.0436 N   0  0  0  0  0  0  0  0  0  0  0  0
   12.2600  -18.8404   19.3835 C   0  0  0  0  0  0  0  0  0  0  0  0
   11.9022  -19.0563   20.5658 O   0  0  0  0  0  0  0  0  0  0  0  0
   16.1208  -17.5746   18.6225 O   0  0  0  0  0  0  0  0  0  0  0  0
   15.9949  -18.6943   19.4338 C   0  0  0  0  0  0  0  0  0  0  0  0
   14.6606  -18.6619   20.1931 C   0  0  2  0  0  0  0  0  0  0  0  0
   13.6415  -18.6105   19.1639 N   0  0  0  0  0  0  0  0  0  0  0  0
   14.6863  -17.4232   21.0085 C   0  0  0  0  0  0  0  0  0  0  0  0
   14.5336  -16.2808   20.5014 O   0  0  0  0  0  0  0  0  0  0  0  0
   11.5747  -15.2621   23.4820 N   0  0  0  0  0  0  0  0  0  0  0  0
   12.3719  -16.4172   23.5701 C   0  0  0  0  0  0  0  0  0  0  0  0
   11.9349  -17.4795   23.0309 O   0  0  0  0  0  0  0  0  0  0  0  0
   13.6739  -16.4997   24.2357 C   0  0  0  0  0  0  0  0  0  0  0  0
   14.8464  -16.4020   23.3054 C   0  0  2  0  0  0  0  0  0  0  0  0
   14.8883  -17.5303   22.3917 N   0  0  0  0  0  0  0  0  0  0  0  0
   16.1457  -16.3189   24.0063 C   0  0  0  0  0  0  0  0  0  0  0  0
   16.4132  -15.3709   24.8022 O   0  0  0  0  0  0  0  0  0  0  0  0
   17.1302  -17.2778   23.8217 O   0  0  0  0  0  0  0  0  0  0  0  0
  1  2  1  0
  2  3  2  0
  4  2  1  0
  4  5  1  0
  6  5  1  0
  6  7  1  6
  8  6  1  0
  9  8  2  0
 12 11  1  6
 11 10  1  0
 12 13  1  0
 13  8  1  0
 14 21  1  0
 14 12  1  0
 15 14  2  0
 17 16  1  0
 18 17  2  0
 19 17  1  0
 20 19  1  1
 20 21  1  0
 22 20  1  0
 22 24  1  0
 23 22  2  0
M  END
$$$$
