QSN.pdb
     RDKit          3D

 24 23  0  0  1  0  0  0  0  0999 V2000
    8.8527  -13.3904   12.7849 N   0  0  0  0  0  0  0  0  0  0  0  0
    7.5738  -14.0246   12.5744 C   0  0  0  0  0  0  0  0  0  0  0  0
    7.2487  -14.1595   11.3685 O   0  0  0  0  0  0  0  0  0  0  0  0
    6.7523  -14.4624   13.7278 C   0  0  0  0  0  0  0  0  0  0  0  0
    7.3069  -14.0993   15.0613 C   0  0  0  0  0  0  0  0  0  0  0  0
    8.6453  -14.6988   15.3410 C   0  0  2  0  0  0  0  0  0  0  0  0
    8.5769  -16.1144   14.9745 N   0  0  0  0  0  0  0  0  0  0  0  0
    9.0349  -14.6105   16.7622 C   0  0  0  0  0  0  0  0  0  0  0  0
    8.7400  -13.5848   17.4206 O   0  0  0  0  0  0  0  0  0  0  0  0
    8.1186  -16.8423   19.5175 O   0  0  0  0  0  0  0  0  0  0  0  0
    8.7191  -15.5925   19.5893 C   0  0  0  0  0  0  0  0  0  0  0  0
   10.0700  -15.6013   18.8592 C   0  0  2  0  0  0  0  0  0  0  0  0
    9.7371  -15.6327   17.4490 N   0  0  0  0  0  0  0  0  0  0  0  0
   10.7588  -16.8414   19.2927 C   0  0  0  0  0  0  0  0  0  0  0  0
   10.2925  -17.9872   19.0573 O   0  0  0  0  0  0  0  0  0  0  0  0
   13.3405  -15.6401   22.8252 N   0  0  0  0  0  0  0  0  0  0  0  0
   12.2180  -16.4321   23.1260 C   0  0  0  0  0  0  0  0  0  0  0  0
   11.6091  -16.2049   24.2158 O   0  0  0  0  0  0  0  0  0  0  0  0
   11.6870  -17.5050   22.2821 C   0  0  0  0  0  0  0  0  0  0  0  0
   12.4203  -17.6869   20.9864 C   0  0  2  0  0  0  0  0  0  0  0  0
   11.9707  -16.7316   19.9889 N   0  0  0  0  0  0  0  0  0  0  0  0
   12.2881  -19.0480   20.4239 C   0  0  0  0  0  0  0  0  0  0  0  0
   13.3006  -19.7662   20.1740 O   0  0  0  0  0  0  0  0  0  0  0  0
   11.0461  -19.5982   20.1448 O   0  0  0  0  0  0  0  0  0  0  0  0
  1  2  1  0
  2  3  2  0
  4  2  1  0
  4  5  1  0
  6  5  1  0
  6  7  1  1
  8  6  1  0
  9  8  2  0
 12 11  1  1
 11 10  1  0
 12 13  1  0
 13  8  1  0
 14 21  1  0
 14 12  1  0
 15 14  2  0
 17 16  1  0
 18 17  2  0
 19 17  1  0
 20 19  1  1
 20 21  1  0
 22 20  1  0
 22 24  1  0
 23 22  2  0
M  END
$$$$
