QSN.pdb
     RDKit          3D

 24 23  0  0  1  0  0  0  0  0999 V2000
    8.1560  -17.3815   17.0470 N   0  0  0  0  0  0  0  0  0  0  0  0
    8.1890  -16.7532   15.7485 C   0  0  0  0  0  0  0  0  0  0  0  0
    7.6698  -17.4300   14.8263 O   0  0  0  0  0  0  0  0  0  0  0  0
    8.7994  -15.4136   15.5763 C   0  0  0  0  0  0  0  0  0  0  0  0
    9.3241  -14.8023   16.8287 C   0  0  0  0  0  0  0  0  0  0  0  0
    8.2702  -14.1779   17.6822 C   0  0  2  0  0  0  0  0  0  0  0  0
    7.9090  -12.8993   17.0676 N   0  0  0  0  0  0  0  0  0  0  0  0
    8.7230  -13.9127   19.0621 C   0  0  0  0  0  0  0  0  0  0  0  0
    9.7329  -13.1943   19.2531 O   0  0  0  0  0  0  0  0  0  0  0  0
    7.3683  -16.4899   21.8967 O   0  0  0  0  0  0  0  0  0  0  0  0
    7.6347  -15.2244   22.4021 C   0  0  0  0  0  0  0  0  0  0  0  0
    8.6749  -14.5047   21.5314 C   0  0  2  0  0  0  0  0  0  0  0  0
    8.0767  -14.4284   20.2136 N   0  0  0  0  0  0  0  0  0  0  0  0
    9.8815  -15.3674   21.5421 C   0  0  0  0  0  0  0  0  0  0  0  0
   10.5114  -15.6559   20.4906 O   0  0  0  0  0  0  0  0  0  0  0  0
   13.4285  -14.5968   20.3321 N   0  0  0  0  0  0  0  0  0  0  0  0
   13.4905  -15.3057   21.5451 C   0  0  0  0  0  0  0  0  0  0  0  0
   14.3583  -16.2256   21.6485 O   0  0  0  0  0  0  0  0  0  0  0  0
   12.6325  -15.0709   22.7087 C   0  0  0  0  0  0  0  0  0  0  0  0
   11.7206  -16.2148   23.0400 C   0  0  2  0  0  0  0  0  0  0  0  0
   10.3343  -15.8785   22.7665 N   0  0  0  0  0  0  0  0  0  0  0  0
   11.8256  -16.6601   24.4461 C   0  0  0  0  0  0  0  0  0  0  0  0
   10.9140  -16.4175   25.2908 O   0  0  0  0  0  0  0  0  0  0  0  0
   12.9299  -17.3642   24.9016 O   0  0  0  0  0  0  0  0  0  0  0  0
  1  2  1  0
  2  3  2  0
  4  2  1  0
  4  5  1  0
  6  5  1  0
  6  7  1  6
  8  6  1  0
  9  8  2  0
 12 11  1  1
 11 10  1  0
 12 13  1  0
 13  8  1  0
 14 21  1  0
 14 12  1  0
 15 14  2  0
 17 16  1  0
 18 17  2  0
 19 17  1  0
 20 19  1  1
 20 21  1  0
 22 20  1  0
 22 24  1  0
 23 22  2  0
M  END
$$$$
