QSN.pdb
     RDKit          3D

 24 23  0  0  1  0  0  0  0  0999 V2000
    9.7736  -14.9116   15.6803 N   0  0  0  0  0  0  0  0  0  0  0  0
    9.5086  -16.3024   15.9591 C   0  0  0  0  0  0  0  0  0  0  0  0
    9.1458  -16.9760   14.9628 O   0  0  0  0  0  0  0  0  0  0  0  0
    9.6697  -16.8384   17.3316 C   0  0  0  0  0  0  0  0  0  0  0  0
   10.0766  -15.8311   18.3501 C   0  0  0  0  0  0  0  0  0  0  0  0
   10.1004  -16.3608   19.7458 C   0  0  2  0  0  0  0  0  0  0  0  0
    9.1590  -17.4803   19.8059 N   0  0  0  0  0  0  0  0  0  0  0  0
    9.6908  -15.3617   20.7525 C   0  0  0  0  0  0  0  0  0  0  0  0
   10.4711  -14.4248   21.0453 O   0  0  0  0  0  0  0  0  0  0  0  0
    5.7734  -15.2305   21.9781 O   0  0  0  0  0  0  0  0  0  0  0  0
    6.5450  -14.0764   21.9581 C   0  0  0  0  0  0  0  0  0  0  0  0
    7.9912  -14.3883   22.3693 C   0  0  2  0  0  0  0  0  0  0  0  0
    8.4441  -15.3915   21.4266 N   0  0  0  0  0  0  0  0  0  0  0  0
    7.9153  -14.9220   23.7512 C   0  0  0  0  0  0  0  0  0  0  0  0
    6.9841  -14.6139   24.5409 O   0  0  0  0  0  0  0  0  0  0  0  0
    8.5417  -18.5563   27.5139 N   0  0  0  0  0  0  0  0  0  0  0  0
    7.5031  -18.3084   26.5989 C   0  0  0  0  0  0  0  0  0  0  0  0
    6.4216  -18.9563   26.7424 O   0  0  0  0  0  0  0  0  0  0  0  0
    7.5631  -17.3584   25.4857 C   0  0  0  0  0  0  0  0  0  0  0  0
    8.8356  -16.5672   25.4216 C   0  0  2  0  0  0  0  0  0  0  0  0
    8.9163  -15.7993   24.1913 N   0  0  0  0  0  0  0  0  0  0  0  0
   10.0512  -17.4016   25.5330 C   0  0  0  0  0  0  0  0  0  0  0  0
   10.2544  -18.1515   26.5330 O   0  0  0  0  0  0  0  0  0  0  0  0
   11.0240  -17.3988   24.5447 O   0  0  0  0  0  0  0  0  0  0  0  0
  1  2  1  0
  2  3  2  0
  4  2  1  0
  4  5  1  0
  6  5  1  0
  6  7  1  6
  8  6  1  0
  9  8  2  0
 12 11  1  6
 11 10  1  0
 12 13  1  0
 13  8  1  0
 14 21  1  0
 14 12  1  0
 15 14  2  0
 17 16  1  0
 18 17  2  0
 19 17  1  0
 20 19  1  6
 20 21  1  0
 22 20  1  0
 22 24  1  0
 23 22  2  0
M  END
$$$$
