QSN.pdb
     RDKit          3D

 24 23  0  0  1  0  0  0  0  0999 V2000
   11.9879  -21.0768   15.0285 N   0  0  0  0  0  0  0  0  0  0  0  0
   11.0211  -20.3349   14.2559 C   0  0  0  0  0  0  0  0  0  0  0  0
   11.2140  -20.3577   13.0148 O   0  0  0  0  0  0  0  0  0  0  0  0
    9.9084  -19.6224   14.9277 C   0  0  0  0  0  0  0  0  0  0  0  0
    9.8587  -19.7974   16.4057 C   0  0  0  0  0  0  0  0  0  0  0  0
    8.4735  -19.8501   16.9602 C   0  0  2  0  0  0  0  0  0  0  0  0
    7.6990  -18.7942   16.3059 N   0  0  0  0  0  0  0  0  0  0  0  0
    8.4231  -19.6208   18.4178 C   0  0  0  0  0  0  0  0  0  0  0  0
    8.5049  -18.4509   18.8618 O   0  0  0  0  0  0  0  0  0  0  0  0
    6.9219  -22.4264   21.0109 O   0  0  0  0  0  0  0  0  0  0  0  0
    6.9839  -21.0720   21.3100 C   0  0  0  0  0  0  0  0  0  0  0  0
    8.3043  -20.4696   20.8085 C   0  0  2  0  0  0  0  0  0  0  0  0
    8.2850  -20.6600   19.3720 N   0  0  0  0  0  0  0  0  0  0  0  0
    9.3824  -21.2560   21.4563 C   0  0  0  0  0  0  0  0  0  0  0  0
   10.1413  -22.0209   20.8047 O   0  0  0  0  0  0  0  0  0  0  0  0
   13.5091  -21.4732   24.6269 N   0  0  0  0  0  0  0  0  0  0  0  0
   13.1761  -20.5131   23.6547 C   0  0  0  0  0  0  0  0  0  0  0  0
   14.0768  -19.6919   23.3021 O   0  0  0  0  0  0  0  0  0  0  0  0
   11.8684  -20.3792   23.0090 C   0  0  0  0  0  0  0  0  0  0  0  0
   10.8332  -21.3402   23.5135 C   0  0  2  0  0  0  0  0  0  0  0  0
    9.5604  -21.1425   22.8422 N   0  0  0  0  0  0  0  0  0  0  0  0
   10.6116  -21.2505   24.9727 C   0  0  0  0  0  0  0  0  0  0  0  0
    9.6609  -20.5715   25.4611 O   0  0  0  0  0  0  0  0  0  0  0  0
   11.4377  -21.9078   25.8718 O   0  0  0  0  0  0  0  0  0  0  0  0
  1  2  1  0
  2  3  2  0
  4  2  1  0
  4  5  1  0
  6  5  1  0
  6  7  1  6
  8  6  1  0
  9  8  2  0
 12 11  1  1
 11 10  1  0
 12 13  1  0
 13  8  1  0
 14 21  1  0
 14 12  1  0
 15 14  2  0
 17 16  1  0
 18 17  2  0
 19 17  1  0
 20 19  1  6
 20 21  1  0
 22 20  1  0
 22 24  1  0
 23 22  2  0
M  END
$$$$
