QSN.pdb
     RDKit          3D

 24 23  0  0  1  0  0  0  0  0999 V2000
    8.1303  -12.5864   16.4177 N   0  0  0  0  0  0  0  0  0  0  0  0
    7.6117  -13.9294   16.3199 C   0  0  0  0  0  0  0  0  0  0  0  0
    7.0703  -14.2026   15.2198 O   0  0  0  0  0  0  0  0  0  0  0  0
    7.7374  -14.8691   17.4592 C   0  0  0  0  0  0  0  0  0  0  0  0
    9.0803  -15.4962   17.6045 C   0  0  0  0  0  0  0  0  0  0  0  0
    9.2252  -16.3331   18.8323 C   0  0  2  0  0  0  0  0  0  0  0  0
    7.9562  -17.0335   19.0376 N   0  0  0  0  0  0  0  0  0  0  0  0
    9.5136  -15.5404   20.0439 C   0  0  0  0  0  0  0  0  0  0  0  0
   10.6521  -15.0373   20.1959 O   0  0  0  0  0  0  0  0  0  0  0  0
    6.7092  -15.9884   23.0242 O   0  0  0  0  0  0  0  0  0  0  0  0
    7.5491  -14.8929   23.1728 C   0  0  0  0  0  0  0  0  0  0  0  0
    8.8932  -15.1460   22.4749 C   0  0  2  0  0  0  0  0  0  0  0  0
    8.5664  -15.3043   21.0719 N   0  0  0  0  0  0  0  0  0  0  0  0
    9.4277  -16.3983   23.0632 C   0  0  0  0  0  0  0  0  0  0  0  0
    9.7052  -17.4062   22.3612 O   0  0  0  0  0  0  0  0  0  0  0  0
   13.8384  -17.5391   22.8533 N   0  0  0  0  0  0  0  0  0  0  0  0
   12.6460  -17.7175   23.5773 C   0  0  0  0  0  0  0  0  0  0  0  0
   12.0293  -18.8177   23.4388 O   0  0  0  0  0  0  0  0  0  0  0  0
   12.0506  -16.7343   24.4851 C   0  0  0  0  0  0  0  0  0  0  0  0
   10.7386  -17.1589   25.0750 C   0  0  2  0  0  0  0  0  0  0  0  0
    9.6297  -16.4599   24.4491 N   0  0  0  0  0  0  0  0  0  0  0  0
   10.6579  -16.9505   26.5366 C   0  0  0  0  0  0  0  0  0  0  0  0
   10.7899  -17.9088   27.3538 O   0  0  0  0  0  0  0  0  0  0  0  0
   10.4334  -15.6933   27.0771 O   0  0  0  0  0  0  0  0  0  0  0  0
  1  2  1  0
  2  3  2  0
  4  2  1  0
  4  5  1  0
  6  5  1  0
  6  7  1  1
  8  6  1  0
  9  8  2  0
 12 11  1  1
 11 10  1  0
 12 13  1  0
 13  8  1  0
 14 21  1  0
 14 12  1  0
 15 14  2  0
 17 16  1  0
 18 17  2  0
 19 17  1  0
 20 19  1  6
 20 21  1  0
 22 20  1  0
 22 24  1  0
 23 22  2  0
M  END
$$$$
