QSN.pdb
     RDKit          3D

 24 23  0  0  1  0  0  0  0  0999 V2000
    6.0161  -12.9680   15.1907 N   0  0  0  0  0  0  0  0  0  0  0  0
    7.0635  -13.5557   14.3909 C   0  0  0  0  0  0  0  0  0  0  0  0
    6.8977  -13.4479   13.1504 O   0  0  0  0  0  0  0  0  0  0  0  0
    8.2203  -14.2201   15.0369 C   0  0  0  0  0  0  0  0  0  0  0  0
    8.1568  -14.2751   16.5237 C   0  0  0  0  0  0  0  0  0  0  0  0
    9.3401  -14.9324   17.1536 C   0  0  2  0  0  0  0  0  0  0  0  0
    9.6916  -16.0880   16.3265 N   0  0  0  0  0  0  0  0  0  0  0  0
    9.0756  -15.4122   18.5245 C   0  0  0  0  0  0  0  0  0  0  0  0
    8.3359  -14.7400   19.2818 O   0  0  0  0  0  0  0  0  0  0  0  0
    7.6780  -18.6599   19.6065 O   0  0  0  0  0  0  0  0  0  0  0  0
    7.8674  -17.5185   20.3739 C   0  0  0  0  0  0  0  0  0  0  0  0
    9.3496  -17.1176   20.3864 C   0  0  2  0  0  0  0  0  0  0  0  0
    9.6152  -16.6111   19.0548 N   0  0  0  0  0  0  0  0  0  0  0  0
   10.1056  -18.3629   20.6655 C   0  0  0  0  0  0  0  0  0  0  0  0
   10.4753  -19.1448   19.7502 O   0  0  0  0  0  0  0  0  0  0  0  0
   12.8971  -21.2361   25.1970 N   0  0  0  0  0  0  0  0  0  0  0  0
   12.9647  -20.6729   23.9102 C   0  0  0  0  0  0  0  0  0  0  0  0
   13.7649  -21.1973   23.0767 O   0  0  0  0  0  0  0  0  0  0  0  0
   12.1839  -19.5240   23.4458 C   0  0  0  0  0  0  0  0  0  0  0  0
   11.1695  -19.8565   22.3922 C   0  0  2  0  0  0  0  0  0  0  0  0
   10.4180  -18.6786   21.9952 N   0  0  0  0  0  0  0  0  0  0  0  0
   10.2125  -20.9037   22.8093 C   0  0  0  0  0  0  0  0  0  0  0  0
    9.0926  -20.6147   23.3250 O   0  0  0  0  0  0  0  0  0  0  0  0
   10.5009  -22.2511   22.6536 O   0  0  0  0  0  0  0  0  0  0  0  0
  1  2  1  0
  2  3  2  0
  4  2  1  0
  4  5  1  0
  6  5  1  0
  6  7  1  6
  8  6  1  0
  9  8  2  0
 12 11  1  6
 11 10  1  0
 12 13  1  0
 13  8  1  0
 14 21  1  0
 14 12  1  0
 15 14  2  0
 17 16  1  0
 18 17  2  0
 19 17  1  0
 20 19  1  1
 20 21  1  0
 22 20  1  0
 22 24  1  0
 23 22  2  0
M  END
$$$$
