QSN.pdb
     RDKit          3D

 24 23  0  0  1  0  0  0  0  0999 V2000
    8.6464  -14.1689   10.5430 N   0  0  0  0  0  0  0  0  0  0  0  0
    8.0111  -15.3905   10.9744 C   0  0  0  0  0  0  0  0  0  0  0  0
    8.0897  -16.3391   10.1547 O   0  0  0  0  0  0  0  0  0  0  0  0
    7.3350  -15.4623   12.2915 C   0  0  0  0  0  0  0  0  0  0  0  0
    8.0626  -14.7892   13.4029 C   0  0  0  0  0  0  0  0  0  0  0  0
    8.8023  -15.7296   14.2958 C   0  0  2  0  0  0  0  0  0  0  0  0
    7.8286  -16.6819   14.8325 N   0  0  0  0  0  0  0  0  0  0  0  0
    9.4592  -15.0544   15.4325 C   0  0  0  0  0  0  0  0  0  0  0  0
   10.4400  -14.3023   15.2207 O   0  0  0  0  0  0  0  0  0  0  0  0
    8.9074  -16.3918   19.3555 O   0  0  0  0  0  0  0  0  0  0  0  0
    8.8783  -15.0209   19.1375 C   0  0  0  0  0  0  0  0  0  0  0  0
    9.7427  -14.6501   17.9238 C   0  0  2  0  0  0  0  0  0  0  0  0
    9.0453  -15.2033   16.7801 N   0  0  0  0  0  0  0  0  0  0  0  0
   11.0546  -15.3069   18.1425 C   0  0  0  0  0  0  0  0  0  0  0  0
   11.4797  -16.2259   17.3940 O   0  0  0  0  0  0  0  0  0  0  0  0
   16.4388  -14.8491   18.1284 N   0  0  0  0  0  0  0  0  0  0  0  0
   15.5653  -14.3536   19.1129 C   0  0  0  0  0  0  0  0  0  0  0  0
   16.0485  -14.1002   20.2585 O   0  0  0  0  0  0  0  0  0  0  0  0
   14.1343  -14.1025   18.9276 C   0  0  0  0  0  0  0  0  0  0  0  0
   13.2504  -15.2291   19.3739 C   0  0  2  0  0  0  0  0  0  0  0  0
   11.8467  -14.8887   19.2210 N   0  0  0  0  0  0  0  0  0  0  0  0
   13.4831  -15.6368   20.7761 C   0  0  0  0  0  0  0  0  0  0  0  0
   12.8396  -15.1182   21.7355 O   0  0  0  0  0  0  0  0  0  0  0  0
   14.4187  -16.6071   21.1018 O   0  0  0  0  0  0  0  0  0  0  0  0
  1  2  1  0
  2  3  2  0
  4  2  1  0
  4  5  1  0
  6  5  1  0
  6  7  1  1
  8  6  1  0
  9  8  2  0
 12 11  1  1
 11 10  1  0
 12 13  1  0
 13  8  1  0
 14 21  1  0
 14 12  1  0
 15 14  2  0
 17 16  1  0
 18 17  2  0
 19 17  1  0
 20 19  1  1
 20 21  1  0
 22 20  1  0
 22 24  1  0
 23 22  2  0
M  END
$$$$
