QSN.pdb
     RDKit          3D

 24 23  0  0  1  0  0  0  0  0999 V2000
   12.5547  -22.3421   18.1235 N   0  0  0  0  0  0  0  0  0  0  0  0
   13.0053  -21.6241   16.9558 C   0  0  0  0  0  0  0  0  0  0  0  0
   13.9361  -22.1835   16.3242 O   0  0  0  0  0  0  0  0  0  0  0  0
   12.3815  -20.3335   16.5790 C   0  0  0  0  0  0  0  0  0  0  0  0
   11.2163  -19.9365   17.4172 C   0  0  0  0  0  0  0  0  0  0  0  0
   10.7688  -18.5289   17.1994 C   0  0  2  0  0  0  0  0  0  0  0  0
   11.3978  -18.0549   15.9654 N   0  0  0  0  0  0  0  0  0  0  0  0
   11.1616  -17.6194   18.2939 C   0  0  0  0  0  0  0  0  0  0  0  0
   12.3555  -17.2480   18.3895 O   0  0  0  0  0  0  0  0  0  0  0  0
    9.5374  -15.1237   22.1840 O   0  0  0  0  0  0  0  0  0  0  0  0
    9.3149  -15.9914   21.1232 C   0  0  0  0  0  0  0  0  0  0  0  0
   10.6361  -16.3291   20.4173 C   0  0  2  0  0  0  0  0  0  0  0  0
   10.2572  -17.1261   19.2677 N   0  0  0  0  0  0  0  0  0  0  0  0
   11.4313  -17.1114   21.3950 C   0  0  0  0  0  0  0  0  0  0  0  0
   11.4875  -18.3690   21.3635 O   0  0  0  0  0  0  0  0  0  0  0  0
   12.9219  -20.3928   25.2825 N   0  0  0  0  0  0  0  0  0  0  0  0
   12.8596  -19.0184   24.9913 C   0  0  0  0  0  0  0  0  0  0  0  0
   13.2691  -18.2073   25.8770 O   0  0  0  0  0  0  0  0  0  0  0  0
   12.3590  -18.4385   23.7430 C   0  0  0  0  0  0  0  0  0  0  0  0
   12.9131  -17.0799   23.4315 C   0  0  2  0  0  0  0  0  0  0  0  0
   12.1441  -16.4247   22.3880 N   0  0  0  0  0  0  0  0  0  0  0  0
   14.3331  -17.1061   23.0200 C   0  0  0  0  0  0  0  0  0  0  0  0
   14.7756  -17.9735   22.2104 O   0  0  0  0  0  0  0  0  0  0  0  0
   15.2441  -16.1796   23.5043 O   0  0  0  0  0  0  0  0  0  0  0  0
  1  2  1  0
  2  3  2  0
  4  2  1  0
  4  5  1  0
  6  5  1  0
  6  7  1  6
  8  6  1  0
  9  8  2  0
 12 11  1  1
 11 10  1  0
 12 13  1  0
 13  8  1  0
 14 21  1  0
 14 12  1  0
 15 14  2  0
 17 16  1  0
 18 17  2  0
 19 17  1  0
 20 19  1  6
 20 21  1  0
 22 20  1  0
 22 24  1  0
 23 22  2  0
M  END
$$$$
