CQA.pdb
     RDKit          3D

 21 20  0  0  1  0  0  0  0  0999 V2000
   27.1643  -21.1681  -10.7554 N   0  0  0  0  0  0  0  0  0  0  0  0
   25.7318  -21.1175  -10.7697 C   0  0  1  0  0  0  0  0  0  0  0  0
   25.1919  -20.1358   -9.7336 C   0  0  0  0  0  0  0  0  0  0  0  0
   25.3314  -20.8021   -8.0634 S   0  0  0  0  0  0  0  0  0  0  0  0
   25.2387  -20.6209  -12.1040 C   0  0  0  0  0  0  0  0  0  0  0  0
   25.8422  -19.6908  -12.6967 O   0  0  0  0  0  0  0  0  0  0  0  0
   24.3407  -19.4758  -17.8358 N   0  0  0  0  0  0  0  0  0  0  0  0
   24.7218  -20.5473  -16.9992 C   0  0  0  0  0  0  0  0  0  0  0  0
   25.9306  -20.7392  -16.7610 O   0  0  0  0  0  0  0  0  0  0  0  0
   23.6368  -21.4204  -16.4255 C   0  0  0  0  0  0  0  0  0  0  0  0
   23.9662  -21.8363  -15.0306 C   0  0  0  0  0  0  0  0  0  0  0  0
   23.6868  -20.7400  -14.0449 C   0  0  2  0  0  0  0  0  0  0  0  0
   24.1055  -21.1716  -12.7213 N   0  0  0  0  0  0  0  0  0  0  0  0
   22.3154  -20.2432  -14.0570 C   0  0  0  0  0  0  0  0  0  0  0  0
   21.4424  -20.8102  -13.3612 O   0  0  0  0  0  0  0  0  0  0  0  0
   20.2811  -17.5768  -15.7767 C   0  0  0  0  0  0  0  0  0  0  0  0
   20.5105  -18.7344  -14.8273 C   0  0  2  0  0  0  0  0  0  0  0  0
   21.9049  -19.1137  -14.8416 N   0  0  0  0  0  0  0  0  0  0  0  0
   19.6171  -19.8516  -15.1849 C   0  0  0  0  0  0  0  0  0  0  0  0
   19.9811  -20.8442  -16.0750 O   0  0  0  0  0  0  0  0  0  0  0  0
   18.4801  -19.9101  -14.6644 O   0  0  0  0  0  0  0  0  0  0  0  0
  2  1  1  6
  2  5  1  0
  3  2  1  0
  4  3  1  0
  5  6  2  0
  7  8  1  0
  8  9  2  0
  8 10  1  0
 10 11  1  0
 12 11  1  6
 12 14  1  0
 13 12  1  0
 13  5  1  0
 14 15  2  0
 14 18  1  0
 17 16  1  6
 18 17  1  0
 19 17  1  0
 19 20  1  0
 21 19  2  0
M  END
$$$$
