CQA.pdb
     RDKit          3D

 21 20  0  0  1  0  0  0  0  0999 V2000
   21.6135  -14.6170  -20.0798 N   0  0  0  0  0  0  0  0  0  0  0  0
   22.2314  -13.7040  -19.1636 C   0  0  1  0  0  0  0  0  0  0  0  0
   23.4155  -12.9816  -19.7998 C   0  0  0  0  0  0  0  0  0  0  0  0
   24.2256  -11.8844  -18.6197 S   0  0  0  0  0  0  0  0  0  0  0  0
   21.2583  -12.6258  -18.7624 C   0  0  0  0  0  0  0  0  0  0  0  0
   20.6300  -11.9807  -19.6397 O   0  0  0  0  0  0  0  0  0  0  0  0
   16.7583  -12.9391  -15.0542 N   0  0  0  0  0  0  0  0  0  0  0  0
   16.7284  -11.5394  -15.2359 C   0  0  0  0  0  0  0  0  0  0  0  0
   15.7553  -10.8865  -14.8097 O   0  0  0  0  0  0  0  0  0  0  0  0
   17.8880  -10.8909  -15.9453 C   0  0  0  0  0  0  0  0  0  0  0  0
   18.9130  -11.9042  -16.3324 C   0  0  0  0  0  0  0  0  0  0  0  0
   20.0755  -11.2736  -17.0414 C   0  0  2  0  0  0  0  0  0  0  0  0
   21.0239  -12.3098  -17.4158 N   0  0  0  0  0  0  0  0  0  0  0  0
   20.7101  -10.1775  -16.3179 C   0  0  0  0  0  0  0  0  0  0  0  0
   21.5451  -10.4269  -15.4188 O   0  0  0  0  0  0  0  0  0  0  0  0
   20.9394   -6.4313  -16.5185 C   0  0  0  0  0  0  0  0  0  0  0  0
   21.1709   -7.7851  -15.8800 C   0  0  2  0  0  0  0  0  0  0  0  0
   20.4216   -8.7979  -16.5883 N   0  0  0  0  0  0  0  0  0  0  0  0
   20.8234   -7.7226  -14.4484 C   0  0  0  0  0  0  0  0  0  0  0  0
   21.5810   -7.0273  -13.5251 O   0  0  0  0  0  0  0  0  0  0  0  0
   19.8009   -8.3218  -14.0452 O   0  0  0  0  0  0  0  0  0  0  0  0
  2  1  1  6
  2  5  1  0
  3  2  1  0
  4  3  1  0
  5  6  2  0
  7  8  1  0
  8  9  2  0
  8 10  1  0
 10 11  1  0
 12 11  1  1
 12 14  1  0
 13 12  1  0
 13  5  1  0
 14 15  2  0
 14 18  1  0
 17 16  1  6
 18 17  1  0
 19 17  1  0
 19 20  1  0
 21 19  2  0
M  END
$$$$
