CQA.pdb
     RDKit          3D

 21 20  0  0  1  0  0  0  0  0999 V2000
   14.3425   -8.9338   -9.0712 N   0  0  0  0  0  0  0  0  0  0  0  0
   15.0056   -7.8025   -9.6504 C   0  0  1  0  0  0  0  0  0  0  0  0
   15.6433   -6.9161   -8.5843 C   0  0  0  0  0  0  0  0  0  0  0  0
   14.3943   -6.1718   -7.5171 S   0  0  0  0  0  0  0  0  0  0  0  0
   16.1351   -8.2558  -10.5387 C   0  0  0  0  0  0  0  0  0  0  0  0
   16.9197   -9.1600  -10.1548 O   0  0  0  0  0  0  0  0  0  0  0  0
   17.8580  -10.8971  -15.0342 N   0  0  0  0  0  0  0  0  0  0  0  0
   16.6254  -11.1036  -14.3776 C   0  0  0  0  0  0  0  0  0  0  0  0
   16.1456  -12.2532  -14.3215 O   0  0  0  0  0  0  0  0  0  0  0  0
   15.9378   -9.9106  -13.7673 C   0  0  0  0  0  0  0  0  0  0  0  0
   16.7398   -8.6686  -13.9708 C   0  0  0  0  0  0  0  0  0  0  0  0
   17.3771   -8.2051  -12.6937 C   0  0  2  0  0  0  0  0  0  0  0  0
   16.3463   -7.6923  -11.8060 N   0  0  0  0  0  0  0  0  0  0  0  0
   18.4770   -7.2629  -12.8673 C   0  0  0  0  0  0  0  0  0  0  0  0
   18.2513   -6.0316  -12.8396 O   0  0  0  0  0  0  0  0  0  0  0  0
   22.2226   -7.3009  -13.2257 C   0  0  0  0  0  0  0  0  0  0  0  0
   20.8466   -6.6693  -13.2671 C   0  0  2  0  0  0  0  0  0  0  0  0
   19.8341   -7.6821  -13.0725 N   0  0  0  0  0  0  0  0  0  0  0  0
   20.6768   -5.9367  -14.5354 C   0  0  0  0  0  0  0  0  0  0  0  0
   21.1605   -4.6567  -14.7297 O   0  0  0  0  0  0  0  0  0  0  0  0
   20.0704   -6.4908  -15.4801 O   0  0  0  0  0  0  0  0  0  0  0  0
  2  1  1  1
  2  5  1  0
  3  2  1  0
  4  3  1  0
  5  6  2  0
  7  8  1  0
  8  9  2  0
  8 10  1  0
 10 11  1  0
 12 11  1  6
 12 14  1  0
 13 12  1  0
 13  5  1  0
 14 15  2  0
 14 18  1  0
 17 16  1  6
 18 17  1  0
 19 17  1  0
 19 20  1  0
 21 19  2  0
M  END
$$$$
