CQA.pdb
     RDKit          3D

 21 20  0  0  1  0  0  0  0  0999 V2000
   26.5777  -21.2837  -10.2036 N   0  0  0  0  0  0  0  0  0  0  0  0
   25.2261  -21.1007  -10.6446 C   0  0  1  0  0  0  0  0  0  0  0  0
   24.5072  -20.0294   -9.8295 C   0  0  0  0  0  0  0  0  0  0  0  0
   23.9510  -20.6769   -8.2407 S   0  0  0  0  0  0  0  0  0  0  0  0
   25.2016  -20.6182  -12.0717 C   0  0  0  0  0  0  0  0  0  0  0  0
   26.0011  -19.7260  -12.4530 O   0  0  0  0  0  0  0  0  0  0  0  0
   24.6477  -24.2852  -16.6581 N   0  0  0  0  0  0  0  0  0  0  0  0
   25.8091  -23.9016  -15.9531 C   0  0  0  0  0  0  0  0  0  0  0  0
   26.8459  -24.5858  -16.0611 O   0  0  0  0  0  0  0  0  0  0  0  0
   25.7414  -22.6678  -15.0919 C   0  0  0  0  0  0  0  0  0  0  0  0
   24.4376  -21.9632  -15.2679 C   0  0  0  0  0  0  0  0  0  0  0  0
   24.3491  -20.7381  -14.4059 C   0  0  2  0  0  0  0  0  0  0  0  0
   24.2987  -21.1407  -13.0099 N   0  0  0  0  0  0  0  0  0  0  0  0
   23.2701  -19.8214  -14.7569 C   0  0  0  0  0  0  0  0  0  0  0  0
   22.1286  -19.9892  -14.2704 O   0  0  0  0  0  0  0  0  0  0  0  0
   22.7824  -16.5959  -16.6215 C   0  0  0  0  0  0  0  0  0  0  0  0
   22.3180  -17.8631  -15.9341 C   0  0  2  0  0  0  0  0  0  0  0  0
   23.4519  -18.7129  -15.6501 N   0  0  0  0  0  0  0  0  0  0  0  0
   21.3034  -18.5342  -16.7673 C   0  0  0  0  0  0  0  0  0  0  0  0
   21.5557  -19.7081  -17.4517 O   0  0  0  0  0  0  0  0  0  0  0  0
   20.1637  -18.0253  -16.8635 O   0  0  0  0  0  0  0  0  0  0  0  0
  2  1  1  1
  2  5  1  0
  3  2  1  0
  4  3  1  0
  5  6  2  0
  7  8  1  0
  8  9  2  0
  8 10  1  0
 10 11  1  0
 12 11  1  6
 12 14  1  0
 13 12  1  0
 13  5  1  0
 14 15  2  0
 14 18  1  0
 17 16  1  6
 18 17  1  0
 19 17  1  0
 19 20  1  0
 21 19  2  0
M  END
$$$$
