CQA.pdb
     RDKit          3D

 21 20  0  0  1  0  0  0  0  0999 V2000
   14.5991  -12.5058  -10.1105 N   0  0  0  0  0  0  0  0  0  0  0  0
   14.0796  -11.1849  -10.3112 C   0  0  1  0  0  0  0  0  0  0  0  0
   12.8950  -10.8993   -9.3924 C   0  0  0  0  0  0  0  0  0  0  0  0
   11.5832  -12.1168   -9.6157 S   0  0  0  0  0  0  0  0  0  0  0  0
   15.1238  -10.1539   -9.9695 C   0  0  0  0  0  0  0  0  0  0  0  0
   15.7772  -10.2440   -8.8991 O   0  0  0  0  0  0  0  0  0  0  0  0
   19.6512   -8.0537  -13.0654 N   0  0  0  0  0  0  0  0  0  0  0  0
   19.6371   -7.0255  -12.0981 C   0  0  0  0  0  0  0  0  0  0  0  0
   20.5869   -6.2191  -12.0466 O   0  0  0  0  0  0  0  0  0  0  0  0
   18.4606   -6.9488  -11.1609 C   0  0  0  0  0  0  0  0  0  0  0  0
   17.4674   -8.0218  -11.4600 C   0  0  0  0  0  0  0  0  0  0  0  0
   16.3587   -8.0480  -10.4490 C   0  0  2  0  0  0  0  0  0  0  0  0
   15.3985   -9.0739  -10.8219 N   0  0  0  0  0  0  0  0  0  0  0  0
   15.7236   -6.7576  -10.2060 C   0  0  0  0  0  0  0  0  0  0  0  0
   15.0182   -6.2338  -11.0981 O   0  0  0  0  0  0  0  0  0  0  0  0
   15.0721   -4.3810   -7.3946 C   0  0  0  0  0  0  0  0  0  0  0  0
   15.2562   -4.7366   -8.8553 C   0  0  2  0  0  0  0  0  0  0  0  0
   15.8678   -6.0409   -8.9710 N   0  0  0  0  0  0  0  0  0  0  0  0
   16.0405   -3.6831   -9.5256 C   0  0  0  0  0  0  0  0  0  0  0  0
   15.5197   -2.4376   -9.8214 O   0  0  0  0  0  0  0  0  0  0  0  0
   17.2281   -3.9195   -9.8429 O   0  0  0  0  0  0  0  0  0  0  0  0
  2  1  1  1
  2  5  1  0
  3  2  1  0
  4  3  1  0
  5  6  2  0
  7  8  1  0
  8  9  2  0
  8 10  1  0
 10 11  1  0
 12 11  1  6
 12 14  1  0
 13 12  1  0
 13  5  1  0
 14 15  2  0
 14 18  1  0
 17 16  1  1
 18 17  1  0
 19 17  1  0
 19 20  1  0
 21 19  2  0
M  END
$$$$
