CQA.pdb
     RDKit          3D

 21 20  0  0  1  0  0  0  0  0999 V2000
   26.8884  -11.8375  -18.0959 N   0  0  0  0  0  0  0  0  0  0  0  0
   26.6997  -10.9687  -16.9714 C   0  0  1  0  0  0  0  0  0  0  0  0
   27.7294   -9.8427  -16.9498 C   0  0  0  0  0  0  0  0  0  0  0  0
   29.4041  -10.4886  -16.7734 S   0  0  0  0  0  0  0  0  0  0  0  0
   25.3543  -10.2950  -17.0502 C   0  0  0  0  0  0  0  0  0  0  0  0
   24.8216  -10.0715  -18.1668 O   0  0  0  0  0  0  0  0  0  0  0  0
   20.5500  -11.5052  -16.7042 N   0  0  0  0  0  0  0  0  0  0  0  0
   20.0605  -10.2927  -16.1719 C   0  0  0  0  0  0  0  0  0  0  0  0
   18.8891   -9.9435  -16.4184 O   0  0  0  0  0  0  0  0  0  0  0  0
   20.9875   -9.4663  -15.3198 C   0  0  0  0  0  0  0  0  0  0  0  0
   22.3466  -10.0797  -15.2574 C   0  0  0  0  0  0  0  0  0  0  0  0
   23.3629   -9.2502  -15.9861 C   0  0  2  0  0  0  0  0  0  0  0  0
   24.6603   -9.8999  -15.8966 N   0  0  0  0  0  0  0  0  0  0  0  0
   23.4152   -7.8509  -15.5774 C   0  0  0  0  0  0  0  0  0  0  0  0
   24.0154   -7.5323  -14.5257 O   0  0  0  0  0  0  0  0  0  0  0  0
   22.2809   -4.4829  -16.8313 C   0  0  0  0  0  0  0  0  0  0  0  0
   22.9091   -5.4424  -15.8420 C   0  0  2  0  0  0  0  0  0  0  0  0
   22.8014   -6.7970  -16.3338 N   0  0  0  0  0  0  0  0  0  0  0  0
   22.2813   -5.2698  -14.5190 C   0  0  0  0  0  0  0  0  0  0  0  0
   22.7595   -4.3809  -13.5751 O   0  0  0  0  0  0  0  0  0  0  0  0
   21.2727   -5.9536  -14.2318 O   0  0  0  0  0  0  0  0  0  0  0  0
  2  1  1  6
  2  5  1  0
  3  2  1  0
  4  3  1  0
  5  6  2  0
  7  8  1  0
  8  9  2  0
  8 10  1  0
 10 11  1  0
 12 11  1  1
 12 14  1  0
 13 12  1  0
 13  5  1  0
 14 15  2  0
 14 18  1  0
 17 16  1  6
 18 17  1  0
 19 17  1  0
 19 20  1  0
 21 19  2  0
M  END
$$$$
