CQA.pdb
     RDKit          3D

 21 20  0  0  1  0  0  0  0  0999 V2000
   28.5103  -19.4421  -17.5476 N   0  0  0  0  0  0  0  0  0  0  0  0
   28.0098  -18.4867  -16.6033 C   0  0  1  0  0  0  0  0  0  0  0  0
   27.2760  -17.3414  -17.2951 C   0  0  0  0  0  0  0  0  0  0  0  0
   28.0157  -15.7476  -16.8881 S   0  0  0  0  0  0  0  0  0  0  0  0
   26.9990  -19.1321  -15.6912 C   0  0  0  0  0  0  0  0  0  0  0  0
   26.1395  -19.9231  -16.1561 O   0  0  0  0  0  0  0  0  0  0  0  0
   27.1198  -21.6197  -11.0806 N   0  0  0  0  0  0  0  0  0  0  0  0
   25.8329  -21.2089  -10.6704 C   0  0  0  0  0  0  0  0  0  0  0  0
   25.1305  -21.9823   -9.9898 O   0  0  0  0  0  0  0  0  0  0  0  0
   25.3617  -19.8380  -11.0791 C   0  0  0  0  0  0  0  0  0  0  0  0
   26.3290  -19.1973  -12.0177 C   0  0  0  0  0  0  0  0  0  0  0  0
   25.9708  -19.4644  -13.4502 C   0  0  2  0  0  0  0  0  0  0  0  0
   26.9831  -18.8759  -14.3119 N   0  0  0  0  0  0  0  0  0  0  0  0
   24.6206  -19.0611  -13.8272 C   0  0  0  0  0  0  0  0  0  0  0  0
   24.4401  -17.9774  -14.4278 O   0  0  0  0  0  0  0  0  0  0  0  0
   22.4722  -18.9926  -15.5749 C   0  0  0  0  0  0  0  0  0  0  0  0
   22.2122  -19.5136  -14.1767 C   0  0  2  0  0  0  0  0  0  0  0  0
   23.4626  -19.8587  -13.5396 N   0  0  0  0  0  0  0  0  0  0  0  0
   21.2767  -20.6517  -14.2391 C   0  0  0  0  0  0  0  0  0  0  0  0
   20.0138  -20.5515  -14.7914 O   0  0  0  0  0  0  0  0  0  0  0  0
   21.6344  -21.7577  -13.7746 O   0  0  0  0  0  0  0  0  0  0  0  0
  2  1  1  6
  2  5  1  0
  3  2  1  0
  4  3  1  0
  5  6  2  0
  7  8  1  0
  8  9  2  0
  8 10  1  0
 10 11  1  0
 12 11  1  1
 12 14  1  0
 13 12  1  0
 13  5  1  0
 14 15  2  0
 14 18  1  0
 17 16  1  6
 18 17  1  0
 19 17  1  0
 19 20  1  0
 21 19  2  0
M  END
$$$$
