CQA.pdb
     RDKit          3D

 21 20  0  0  1  0  0  0  0  0999 V2000
   17.3572  -10.7036  -14.5461 N   0  0  0  0  0  0  0  0  0  0  0  0
   17.4975   -9.6941  -15.5541 C   0  0  1  0  0  0  0  0  0  0  0  0
   16.1414   -9.2016  -16.0514 C   0  0  0  0  0  0  0  0  0  0  0  0
   15.1531  -10.5579  -16.7122 S   0  0  0  0  0  0  0  0  0  0  0  0
   18.1936   -8.4831  -14.9891 C   0  0  0  0  0  0  0  0  0  0  0  0
   18.0392   -8.1690  -13.7816 O   0  0  0  0  0  0  0  0  0  0  0  0
   21.8927   -6.7455  -13.0173 N   0  0  0  0  0  0  0  0  0  0  0  0
   22.2207   -5.5171  -13.6310 C   0  0  0  0  0  0  0  0  0  0  0  0
   22.7976   -4.6342  -12.9658 O   0  0  0  0  0  0  0  0  0  0  0  0
   21.8539   -5.3271  -15.0794 C   0  0  0  0  0  0  0  0  0  0  0  0
   21.1295   -6.5197  -15.6089 C   0  0  0  0  0  0  0  0  0  0  0  0
   19.6784   -6.5011  -15.2273 C   0  0  2  0  0  0  0  0  0  0  0  0
   19.0256   -7.6766  -15.7801 N   0  0  0  0  0  0  0  0  0  0  0  0
   18.9748   -5.2682  -15.5626 C   0  0  0  0  0  0  0  0  0  0  0  0
   18.4168   -5.1541  -16.6777 O   0  0  0  0  0  0  0  0  0  0  0  0
   18.4392   -2.6713  -16.5258 C   0  0  0  0  0  0  0  0  0  0  0  0
   18.1370   -2.9902  -15.0764 C   0  0  2  0  0  0  0  0  0  0  0  0
   18.8864   -4.1543  -14.6619 N   0  0  0  0  0  0  0  0  0  0  0  0
   16.6831   -3.1619  -14.9007 C   0  0  0  0  0  0  0  0  0  0  0  0
   16.1057   -4.3803  -14.5971 O   0  0  0  0  0  0  0  0  0  0  0  0
   15.9343   -2.1672  -15.0304 O   0  0  0  0  0  0  0  0  0  0  0  0
  2  1  1  1
  2  5  1  0
  3  2  1  0
  4  3  1  0
  5  6  2  0
  7  8  1  0
  8  9  2  0
  8 10  1  0
 10 11  1  0
 12 11  1  6
 12 14  1  0
 13 12  1  0
 13  5  1  0
 14 15  2  0
 14 18  1  0
 17 16  1  6
 18 17  1  0
 19 17  1  0
 19 20  1  0
 21 19  2  0
M  END
$$$$
