CQA.pdb
     RDKit          3D

 21 20  0  0  1  0  0  0  0  0999 V2000
   15.2539  -10.7145  -12.2194 N   0  0  0  0  0  0  0  0  0  0  0  0
   15.4198   -9.5318  -13.0121 C   0  0  1  0  0  0  0  0  0  0  0  0
   14.7848   -8.3137  -12.3473 C   0  0  0  0  0  0  0  0  0  0  0  0
   12.9911   -8.4778  -12.2544 S   0  0  0  0  0  0  0  0  0  0  0  0
   16.8825   -9.2031  -13.1627 C   0  0  0  0  0  0  0  0  0  0  0  0
   17.6795   -9.4092  -12.2125 O   0  0  0  0  0  0  0  0  0  0  0  0
   22.2429   -8.6638  -18.0549 N   0  0  0  0  0  0  0  0  0  0  0  0
   21.1102   -9.2582  -17.4577 C   0  0  0  0  0  0  0  0  0  0  0  0
   20.4754  -10.1314  -18.0817 O   0  0  0  0  0  0  0  0  0  0  0  0
   20.7156   -8.8044  -16.0768 C   0  0  0  0  0  0  0  0  0  0  0  0
   19.2513   -8.9848  -15.8523 C   0  0  0  0  0  0  0  0  0  0  0  0
   18.8241   -8.4429  -14.5197 C   0  0  2  0  0  0  0  0  0  0  0  0
   17.3971   -8.6637  -14.3511 N   0  0  0  0  0  0  0  0  0  0  0  0
   19.2022   -7.0554  -14.2753 C   0  0  0  0  0  0  0  0  0  0  0  0
   18.4034   -6.1340  -14.5591 O   0  0  0  0  0  0  0  0  0  0  0  0
   22.0179   -5.0901  -12.7450 C   0  0  0  0  0  0  0  0  0  0  0  0
   20.7943   -5.2778  -13.6176 C   0  0  2  0  0  0  0  0  0  0  0  0
   20.4695   -6.6827  -13.7144 N   0  0  0  0  0  0  0  0  0  0  0  0
   21.0273   -4.6594  -14.9357 C   0  0  0  0  0  0  0  0  0  0  0  0
   20.8653   -3.3063  -15.1657 O   0  0  0  0  0  0  0  0  0  0  0  0
   21.3871   -5.3840  -15.8911 O   0  0  0  0  0  0  0  0  0  0  0  0
  2  1  1  1
  2  5  1  0
  3  2  1  0
  4  3  1  0
  5  6  2  0
  7  8  1  0
  8  9  2  0
  8 10  1  0
 10 11  1  0
 12 11  1  6
 12 14  1  0
 13 12  1  0
 13  5  1  0
 14 15  2  0
 14 18  1  0
 17 16  1  1
 18 17  1  0
 19 17  1  0
 19 20  1  0
 21 19  2  0
M  END
$$$$
