CQA.pdb
     RDKit          3D

 21 20  0  0  1  0  0  0  0  0999 V2000
   16.5371   -9.6226   -9.7370 N   0  0  0  0  0  0  0  0  0  0  0  0
   15.7128   -9.8697  -10.8834 C   0  0  1  0  0  0  0  0  0  0  0  0
   14.4077  -10.5620  -10.5009 C   0  0  0  0  0  0  0  0  0  0  0  0
   14.7150  -12.1750   -9.7548 S   0  0  0  0  0  0  0  0  0  0  0  0
   15.3145   -8.5694  -11.5322 C   0  0  0  0  0  0  0  0  0  0  0  0
   14.6001   -8.5698  -12.5667 O   0  0  0  0  0  0  0  0  0  0  0  0
   14.0712   -3.4511   -8.6520 N   0  0  0  0  0  0  0  0  0  0  0  0
   13.9806   -4.8267   -8.3475 C   0  0  0  0  0  0  0  0  0  0  0  0
   13.5524   -5.1805   -7.2311 O   0  0  0  0  0  0  0  0  0  0  0  0
   14.4108   -5.8161   -9.3984 C   0  0  0  0  0  0  0  0  0  0  0  0
   14.8509   -5.1183  -10.6421 C   0  0  0  0  0  0  0  0  0  0  0  0
   15.3632   -6.0857  -11.6685 C   0  0  2  0  0  0  0  0  0  0  0  0
   15.7215   -7.3320  -11.0112 N   0  0  0  0  0  0  0  0  0  0  0  0
   16.4408   -5.5725  -12.5069 C   0  0  0  0  0  0  0  0  0  0  0  0
   17.6319   -5.7291  -12.1539 O   0  0  0  0  0  0  0  0  0  0  0  0
   16.9591   -4.5275  -16.0174 C   0  0  0  0  0  0  0  0  0  0  0  0
   17.3390   -4.5044  -14.5514 C   0  0  2  0  0  0  0  0  0  0  0  0
   16.2026   -4.8822  -13.7424 N   0  0  0  0  0  0  0  0  0  0  0  0
   17.8669   -3.1737  -14.1983 C   0  0  0  0  0  0  0  0  0  0  0  0
   19.1105   -2.7304  -14.6070 O   0  0  0  0  0  0  0  0  0  0  0  0
   17.1650   -2.4081  -13.4995 O   0  0  0  0  0  0  0  0  0  0  0  0
  2  1  1  1
  2  5  1  0
  3  2  1  0
  4  3  1  0
  5  6  2  0
  7  8  1  0
  8  9  2  0
  8 10  1  0
 10 11  1  0
 12 11  1  1
 12 14  1  0
 13 12  1  0
 13  5  1  0
 14 15  2  0
 14 18  1  0
 17 16  1  6
 18 17  1  0
 19 17  1  0
 19 20  1  0
 21 19  2  0
M  END
$$$$
