CQA.pdb
     RDKit          3D

 21 20  0  0  1  0  0  0  0  0999 V2000
   17.4525  -10.9098  -16.1398 N   0  0  0  0  0  0  0  0  0  0  0  0
   17.1904   -9.6301  -16.7302 C   0  0  1  0  0  0  0  0  0  0  0  0
   15.7086   -9.4477  -17.0462 C   0  0  0  0  0  0  0  0  0  0  0  0
   15.1729  -10.5720  -18.3508 S   0  0  0  0  0  0  0  0  0  0  0  0
   17.5451   -8.5266  -15.7675 C   0  0  0  0  0  0  0  0  0  0  0  0
   17.1881   -8.5963  -14.5641 O   0  0  0  0  0  0  0  0  0  0  0  0
   22.7222   -6.1497  -14.4941 N   0  0  0  0  0  0  0  0  0  0  0  0
   21.9404   -5.1528  -13.8712 C   0  0  0  0  0  0  0  0  0  0  0  0
   22.4920   -4.3147  -13.1308 O   0  0  0  0  0  0  0  0  0  0  0  0
   20.4572   -5.1473  -14.1331 C   0  0  0  0  0  0  0  0  0  0  0  0
   20.0717   -6.2592  -15.0508 C   0  0  0  0  0  0  0  0  0  0  0  0
   18.5852   -6.3280  -15.2440 C   0  0  2  0  0  0  0  0  0  0  0  0
   18.2753   -7.4003  -16.1756 N   0  0  0  0  0  0  0  0  0  0  0  0
   17.9601   -5.0663  -15.6246 C   0  0  0  0  0  0  0  0  0  0  0  0
   18.1227   -4.6157  -16.7814 O   0  0  0  0  0  0  0  0  0  0  0  0
   15.2595   -2.7860  -14.6050 C   0  0  0  0  0  0  0  0  0  0  0  0
   16.6455   -3.0188  -15.1695 C   0  0  2  0  0  0  0  0  0  0  0  0
   17.1505   -4.2972  -14.7231 N   0  0  0  0  0  0  0  0  0  0  0  0
   17.5277   -1.8994  -14.7917 C   0  0  0  0  0  0  0  0  0  0  0  0
   18.7122   -2.0808  -14.1032 O   0  0  0  0  0  0  0  0  0  0  0  0
   17.1966   -0.7333  -15.1044 O   0  0  0  0  0  0  0  0  0  0  0  0
  2  1  1  1
  2  5  1  0
  3  2  1  0
  4  3  1  0
  5  6  2  0
  7  8  1  0
  8  9  2  0
  8 10  1  0
 10 11  1  0
 12 11  1  6
 12 14  1  0
 13 12  1  0
 13  5  1  0
 14 15  2  0
 14 18  1  0
 17 16  1  1
 18 17  1  0
 19 17  1  0
 19 20  1  0
 21 19  2  0
M  END
$$$$
