CQA.pdb
     RDKit          3D

 21 20  0  0  1  0  0  0  0  0999 V2000
   16.2459  -11.9380  -15.0721 N   0  0  0  0  0  0  0  0  0  0  0  0
   17.1371  -11.1897  -14.2349 C   0  0  1  0  0  0  0  0  0  0  0  0
   18.5002  -10.9963  -14.8933 C   0  0  0  0  0  0  0  0  0  0  0  0
   19.4228  -12.5447  -14.9583 S   0  0  0  0  0  0  0  0  0  0  0  0
   16.5939   -9.8045  -13.9980 C   0  0  0  0  0  0  0  0  0  0  0  0
   15.9472   -9.2143  -14.9003 O   0  0  0  0  0  0  0  0  0  0  0  0
   15.6808   -7.3401   -8.3391 N   0  0  0  0  0  0  0  0  0  0  0  0
   15.1014   -6.3430   -9.1536 C   0  0  0  0  0  0  0  0  0  0  0  0
   14.5358   -5.3680   -8.6204 O   0  0  0  0  0  0  0  0  0  0  0  0
   15.1943   -6.5050  -10.6481 C   0  0  0  0  0  0  0  0  0  0  0  0
   15.9370   -7.7489  -11.0065 C   0  0  0  0  0  0  0  0  0  0  0  0
   16.1040   -7.8862  -12.4914 C   0  0  2  0  0  0  0  0  0  0  0  0
   16.7885   -9.1359  -12.7801 N   0  0  0  0  0  0  0  0  0  0  0  0
   16.7376   -6.7449  -13.1426 C   0  0  0  0  0  0  0  0  0  0  0  0
   17.9591   -6.5301  -12.9707 O   0  0  0  0  0  0  0  0  0  0  0  0
   15.9832   -4.1514  -15.7310 C   0  0  0  0  0  0  0  0  0  0  0  0
   16.7196   -4.6895  -14.5218 C   0  0  2  0  0  0  0  0  0  0  0  0
   16.0187   -5.8353  -13.9884 N   0  0  0  0  0  0  0  0  0  0  0  0
   16.8864   -3.6150  -13.5259 C   0  0  0  0  0  0  0  0  0  0  0  0
   16.3497   -3.6847  -12.2542 O   0  0  0  0  0  0  0  0  0  0  0  0
   17.5403   -2.5942  -13.8381 O   0  0  0  0  0  0  0  0  0  0  0  0
  2  1  1  6
  2  5  1  0
  3  2  1  0
  4  3  1  0
  5  6  2  0
  7  8  1  0
  8  9  2  0
  8 10  1  0
 10 11  1  0
 12 11  1  1
 12 14  1  0
 13 12  1  0
 13  5  1  0
 14 15  2  0
 14 18  1  0
 17 16  1  6
 18 17  1  0
 19 17  1  0
 19 20  1  0
 21 19  2  0
M  END
$$$$
