CQA.pdb
     RDKit          3D

 21 20  0  0  1  0  0  0  0  0999 V2000
   14.1520   -8.5331   -9.1697 N   0  0  0  0  0  0  0  0  0  0  0  0
   14.7779   -7.3057   -9.5654 C   0  0  1  0  0  0  0  0  0  0  0  0
   15.3689   -6.5633   -8.3703 C   0  0  0  0  0  0  0  0  0  0  0  0
   14.0839   -6.0638   -7.2075 S   0  0  0  0  0  0  0  0  0  0  0  0
   15.9339   -7.5821  -10.4914 C   0  0  0  0  0  0  0  0  0  0  0  0
   16.6339   -8.6154  -10.3405 O   0  0  0  0  0  0  0  0  0  0  0  0
   15.4903   -6.5564  -16.3315 N   0  0  0  0  0  0  0  0  0  0  0  0
   15.1043   -7.7173  -15.6269 C   0  0  0  0  0  0  0  0  0  0  0  0
   14.3008   -8.5139  -16.1511 O   0  0  0  0  0  0  0  0  0  0  0  0
   15.6880   -7.9429  -14.2569 C   0  0  0  0  0  0  0  0  0  0  0  0
   16.6624   -6.8682  -13.9067 C   0  0  0  0  0  0  0  0  0  0  0  0
   17.2495   -7.0758  -12.5414 C   0  0  2  0  0  0  0  0  0  0  0  0
   16.2636   -6.7082  -11.5382 N   0  0  0  0  0  0  0  0  0  0  0  0
   18.5333   -6.4189  -12.3226 C   0  0  0  0  0  0  0  0  0  0  0  0
   18.5679   -5.2748  -11.8151 O   0  0  0  0  0  0  0  0  0  0  0  0
   22.2036   -7.1964  -12.6122 C   0  0  0  0  0  0  0  0  0  0  0  0
   21.0042   -6.2951  -12.4048 C   0  0  2  0  0  0  0  0  0  0  0  0
   19.7865   -7.0284  -12.6658 N   0  0  0  0  0  0  0  0  0  0  0  0
   21.1344   -5.0957  -13.2525 C   0  0  0  0  0  0  0  0  0  0  0  0
   20.3259   -4.8641  -14.3491 O   0  0  0  0  0  0  0  0  0  0  0  0
   22.0118   -4.2474  -12.9734 O   0  0  0  0  0  0  0  0  0  0  0  0
  2  1  1  1
  2  5  1  0
  3  2  1  0
  4  3  1  0
  5  6  2  0
  7  8  1  0
  8  9  2  0
  8 10  1  0
 10 11  1  0
 12 11  1  6
 12 14  1  0
 13 12  1  0
 13  5  1  0
 14 15  2  0
 14 18  1  0
 17 16  1  6
 18 17  1  0
 19 17  1  0
 19 20  1  0
 21 19  2  0
M  END
$$$$
