GNY.pdb
     RDKit          3D

 25 25  0  0  1  0  0  0  0  0999 V2000
   24.9849  -14.9977  -15.5862 N   0  0  0  0  0  0  0  0  0  0  0  0
   25.6773  -14.0305  -16.3854 C   0  0  0  0  0  0  0  0  0  0  0  0
   24.7762  -12.9498  -16.8270 C   0  0  0  0  0  0  0  0  0  0  0  0
   25.2564  -11.9714  -17.4528 O   0  0  0  0  0  0  0  0  0  0  0  0
   20.7123  -14.8000  -18.7819 N   0  0  0  0  0  0  0  0  0  0  0  0
   21.2975  -13.4914  -18.8107 C   0  0  0  0  0  0  0  0  0  0  0  0
   21.8320  -13.1430  -19.8766 O   0  0  0  0  0  0  0  0  0  0  0  0
   21.1982  -12.7068  -17.5677 C   0  0  0  0  0  0  0  0  0  0  0  0
   22.4570  -12.0089  -17.1797 C   0  0  2  0  0  0  0  0  0  0  0  0
   23.3755  -12.9756  -16.5682 N   0  0  0  0  0  0  0  0  0  0  0  0
   22.2134  -10.9213  -16.2323 C   0  0  0  0  0  0  0  0  0  0  0  0
   21.8533  -11.0289  -15.0319 O   0  0  0  0  0  0  0  0  0  0  0  0
   21.3441   -2.2896  -13.9972 O   0  0  0  0  0  0  0  0  0  0  0  0
   21.7733   -3.5264  -14.4851 C   0  0  0  0  0  0  0  0  0  0  0  0
   22.1139   -4.5557  -13.6398 C   0  0  0  0  0  0  0  0  0  0  0  0
   22.5366   -5.7722  -14.1329 C   0  0  0  0  0  0  0  0  0  0  0  0
   22.6381   -6.0141  -15.5119 C   0  0  0  0  0  0  0  0  0  0  0  0
   23.0981   -7.3236  -16.0090 C   0  0  0  0  0  0  0  0  0  0  0  0
   22.0859   -8.4193  -15.8170 C   0  0  2  0  0  0  0  0  0  0  0  0
   22.3896   -9.5591  -16.6701 N   0  0  0  0  0  0  0  0  0  0  0  0
   20.7028   -7.9434  -16.0123 C   0  0  0  0  0  0  0  0  0  0  0  0
   20.2335   -7.9275  -17.1716 O   0  0  0  0  0  0  0  0  0  0  0  0
   22.2949   -4.9785  -16.3616 C   0  0  0  0  0  0  0  0  0  0  0  0
   21.8767   -3.7764  -15.8348 C   0  0  0  0  0  0  0  0  0  0  0  0
   19.8819   -7.5091  -14.9871 O   0  0  0  0  0  0  0  0  0  0  0  0
  1  2  1  0
  2  3  1  0
  3 10  1  0
  4  3  2  0
  6  7  2  0
  6  5  1  0
  8  6  1  0
  9  8  1  1
  9 11  1  0
 10  9  1  0
 11 12  2  0
 11 20  1  0
 13 14  1  0
 14 15  2  0
 15 16  1  0
 17 18  1  0
 17 16  2  0
 19 18  1  6
 19 21  1  0
 20 19  1  0
 21 25  1  0
 22 21  2  0
 23 17  1  0
 24 23  2  0
 24 14  1  0
M  END
$$$$
