GNY.pdb
     RDKit          3D

 25 25  0  0  1  0  0  0  0  0999 V2000
   18.8160  -12.6035  -17.3153 N   0  0  0  0  0  0  0  0  0  0  0  0
   18.8845  -11.1844  -17.5028 C   0  0  0  0  0  0  0  0  0  0  0  0
   19.6977  -10.5396  -16.4551 C   0  0  0  0  0  0  0  0  0  0  0  0
   19.2701  -10.5231  -15.2734 O   0  0  0  0  0  0  0  0  0  0  0  0
   24.0763  -11.9013  -15.7296 N   0  0  0  0  0  0  0  0  0  0  0  0
   23.3577  -10.8937  -15.0057 C   0  0  0  0  0  0  0  0  0  0  0  0
   23.0042  -11.1825  -13.8504 O   0  0  0  0  0  0  0  0  0  0  0  0
   23.1192   -9.6263  -15.7181 C   0  0  0  0  0  0  0  0  0  0  0  0
   21.6969   -9.1800  -15.7180 C   0  0  2  0  0  0  0  0  0  0  0  0
   20.9553   -9.9322  -16.7361 N   0  0  0  0  0  0  0  0  0  0  0  0
   21.5690   -7.7500  -15.9981 C   0  0  0  0  0  0  0  0  0  0  0  0
   21.5326   -7.1999  -17.1287 O   0  0  0  0  0  0  0  0  0  0  0  0
   19.3194    0.7234  -14.8038 O   0  0  0  0  0  0  0  0  0  0  0  0
   19.5986   -0.6307  -14.6038 C   0  0  0  0  0  0  0  0  0  0  0  0
   20.6989   -1.0419  -13.8895 C   0  0  0  0  0  0  0  0  0  0  0  0
   20.9645   -2.3815  -13.6989 C   0  0  0  0  0  0  0  0  0  0  0  0
   20.1292   -3.3809  -14.2221 C   0  0  0  0  0  0  0  0  0  0  0  0
   20.4422   -4.8053  -14.0059 C   0  0  0  0  0  0  0  0  0  0  0  0
   21.3041   -5.3937  -15.0889 C   0  0  2  0  0  0  0  0  0  0  0  0
   21.4717   -6.8267  -14.8951 N   0  0  0  0  0  0  0  0  0  0  0  0
   22.6025   -4.7026  -15.2078 C   0  0  0  0  0  0  0  0  0  0  0  0
   23.5139   -4.9989  -14.4041 O   0  0  0  0  0  0  0  0  0  0  0  0
   19.0223   -2.9667  -14.9401 C   0  0  0  0  0  0  0  0  0  0  0  0
   18.7872   -1.6203  -15.1112 C   0  0  0  0  0  0  0  0  0  0  0  0
   22.8815   -3.7382  -16.1596 O   0  0  0  0  0  0  0  0  0  0  0  0
  1  2  1  0
  2  3  1  0
  3 10  1  0
  4  3  2  0
  6  7  2  0
  6  5  1  0
  8  6  1  0
  9  8  1  6
  9 11  1  0
 10  9  1  0
 11 12  2  0
 11 20  1  0
 13 14  1  0
 14 15  2  0
 15 16  1  0
 17 18  1  0
 17 16  2  0
 19 18  1  1
 19 21  1  0
 20 19  1  0
 21 25  1  0
 22 21  2  0
 23 17  1  0
 24 23  2  0
 24 14  1  0
M  END
$$$$
