GNY.pdb
     RDKit          3D

 25 25  0  0  1  0  0  0  0  0999 V2000
   28.4188  -21.2578  -16.7105 N   0  0  0  0  0  0  0  0  0  0  0  0
   28.2171  -21.9577  -15.4765 C   0  0  0  0  0  0  0  0  0  0  0  0
   27.2558  -21.2541  -14.6071 C   0  0  0  0  0  0  0  0  0  0  0  0
   27.4376  -20.0364  -14.3551 O   0  0  0  0  0  0  0  0  0  0  0  0
   23.2974  -19.9027  -11.7099 N   0  0  0  0  0  0  0  0  0  0  0  0
   22.8184  -20.9785  -12.5277 C   0  0  0  0  0  0  0  0  0  0  0  0
   21.6002  -21.2168  -12.4783 O   0  0  0  0  0  0  0  0  0  0  0  0
   23.8299  -21.6818  -13.3358 C   0  0  0  0  0  0  0  0  0  0  0  0
   25.2302  -21.2304  -13.0956 C   0  0  2  0  0  0  0  0  0  0  0  0
   26.1243  -21.9085  -14.0405 N   0  0  0  0  0  0  0  0  0  0  0  0
   25.6747  -21.5183  -11.7320 C   0  0  0  0  0  0  0  0  0  0  0  0
   25.8117  -22.6514  -11.2034 O   0  0  0  0  0  0  0  0  0  0  0  0
   28.8717  -20.2286   -3.5550 O   0  0  0  0  0  0  0  0  0  0  0  0
   28.4866  -20.0624   -4.8876 C   0  0  0  0  0  0  0  0  0  0  0  0
   27.1846  -19.7874   -5.2325 C   0  0  0  0  0  0  0  0  0  0  0  0
   26.8160  -19.6257   -6.5515 C   0  0  0  0  0  0  0  0  0  0  0  0
   27.7474  -19.7338   -7.5961 C   0  0  0  0  0  0  0  0  0  0  0  0
   27.3221  -19.5609   -8.9972 C   0  0  0  0  0  0  0  0  0  0  0  0
   26.3549  -20.6166   -9.4576 C   0  0  2  0  0  0  0  0  0  0  0  0
   26.0034  -20.4210  -10.8567 N   0  0  0  0  0  0  0  0  0  0  0  0
   25.1576  -20.6912   -8.5983 C   0  0  0  0  0  0  0  0  0  0  0  0
   24.2075  -19.9106   -8.8267 O   0  0  0  0  0  0  0  0  0  0  0  0
   29.0570  -20.0099   -7.2485 C   0  0  0  0  0  0  0  0  0  0  0  0
   29.3902  -20.1655   -5.9210 C   0  0  0  0  0  0  0  0  0  0  0  0
   25.0148  -21.5770   -7.5454 O   0  0  0  0  0  0  0  0  0  0  0  0
  1  2  1  0
  2  3  1  0
  3 10  1  0
  4  3  2  0
  6  7  2  0
  6  5  1  0
  8  6  1  0
  9  8  1  1
  9 11  1  0
 10  9  1  0
 11 12  2  0
 11 20  1  0
 13 14  1  0
 14 15  2  0
 15 16  1  0
 17 18  1  0
 17 16  2  0
 19 18  1  1
 19 21  1  0
 20 19  1  0
 21 25  1  0
 22 21  2  0
 23 17  1  0
 24 23  2  0
 24 14  1  0
M  END
$$$$
