GNY.pdb
     RDKit          3D

 25 25  0  0  1  0  0  0  0  0999 V2000
   30.3081  -24.1053  -18.2735 N   0  0  0  0  0  0  0  0  0  0  0  0
   29.1005  -24.3543  -17.5434 C   0  0  0  0  0  0  0  0  0  0  0  0
   28.3464  -23.1095  -17.3057 C   0  0  0  0  0  0  0  0  0  0  0  0
   28.8852  -22.1850  -16.6465 O   0  0  0  0  0  0  0  0  0  0  0  0
   25.8066  -21.2087  -20.9715 N   0  0  0  0  0  0  0  0  0  0  0  0
   25.9256  -20.6458  -19.6582 C   0  0  0  0  0  0  0  0  0  0  0  0
   26.5403  -19.5702  -19.5663 O   0  0  0  0  0  0  0  0  0  0  0  0
   25.3036  -21.4109  -18.5635 C   0  0  0  0  0  0  0  0  0  0  0  0
   26.2275  -21.7379  -17.4404 C   0  0  2  0  0  0  0  0  0  0  0  0
   27.0236  -22.9170  -17.7985 N   0  0  0  0  0  0  0  0  0  0  0  0
   25.5069  -22.0120  -16.1973 C   0  0  0  0  0  0  0  0  0  0  0  0
   24.8274  -23.0350  -15.9255 O   0  0  0  0  0  0  0  0  0  0  0  0
   22.8020  -20.8471   -7.7676 O   0  0  0  0  0  0  0  0  0  0  0  0
   23.4517  -20.7324   -8.9991 C   0  0  0  0  0  0  0  0  0  0  0  0
   24.7357  -21.1884   -9.1817 C   0  0  0  0  0  0  0  0  0  0  0  0
   25.3671  -21.0694  -10.4018 C   0  0  0  0  0  0  0  0  0  0  0  0
   24.7321  -20.4808  -11.5067 C   0  0  0  0  0  0  0  0  0  0  0  0
   25.4350  -20.3631  -12.7973 C   0  0  0  0  0  0  0  0  0  0  0  0
   24.8398  -21.2245  -13.8771 C   0  0  2  0  0  0  0  0  0  0  0  0
   25.5458  -21.0368  -15.1362 N   0  0  0  0  0  0  0  0  0  0  0  0
   23.3877  -21.0094  -14.0271 C   0  0  0  0  0  0  0  0  0  0  0  0
   22.9939  -20.0296  -14.6974 O   0  0  0  0  0  0  0  0  0  0  0  0
   23.4404  -20.0228  -11.3225 C   0  0  0  0  0  0  0  0  0  0  0  0
   22.8398  -20.1577  -10.0902 C   0  0  0  0  0  0  0  0  0  0  0  0
   22.4224  -21.8287  -13.4697 O   0  0  0  0  0  0  0  0  0  0  0  0
  1  2  1  0
  2  3  1  0
  3 10  1  0
  4  3  2  0
  6  7  2  0
  6  5  1  0
  8  6  1  0
  9  8  1  6
  9 11  1  0
 10  9  1  0
 11 12  2  0
 11 20  1  0
 13 14  1  0
 14 15  2  0
 15 16  1  0
 17 18  1  0
 17 16  2  0
 19 18  1  1
 19 21  1  0
 20 19  1  0
 21 25  1  0
 22 21  2  0
 23 17  1  0
 24 23  2  0
 24 14  1  0
M  END
$$$$
