GNY.pdb
     RDKit          3D

 25 25  0  0  1  0  0  0  0  0999 V2000
   17.7285  -11.8204  -16.0587 N   0  0  0  0  0  0  0  0  0  0  0  0
   19.0917  -11.5265  -15.7291 C   0  0  0  0  0  0  0  0  0  0  0  0
   19.1841  -10.4738  -14.7005 C   0  0  0  0  0  0  0  0  0  0  0  0
   19.4955  -10.7932  -13.5255 O   0  0  0  0  0  0  0  0  0  0  0  0
   21.6799   -6.3597  -15.6207 N   0  0  0  0  0  0  0  0  0  0  0  0
   20.9154   -6.5104  -14.4171 C   0  0  0  0  0  0  0  0  0  0  0  0
   21.5332   -6.3927  -13.3459 O   0  0  0  0  0  0  0  0  0  0  0  0
   19.4791   -6.7895  -14.5893 C   0  0  0  0  0  0  0  0  0  0  0  0
   19.0212   -8.0619  -13.9622 C   0  0  2  0  0  0  0  0  0  0  0  0
   18.9316   -9.1025  -14.9925 N   0  0  0  0  0  0  0  0  0  0  0  0
   17.7158   -7.9190  -13.3177 C   0  0  0  0  0  0  0  0  0  0  0  0
   16.5919   -7.8888  -13.8817 O   0  0  0  0  0  0  0  0  0  0  0  0
   11.7792   -7.3461   -6.6854 O   0  0  0  0  0  0  0  0  0  0  0  0
   12.9488   -7.5109   -7.4315 C   0  0  0  0  0  0  0  0  0  0  0  0
   13.1538   -8.6223   -8.2143 C   0  0  0  0  0  0  0  0  0  0  0  0
   14.3126   -8.7743   -8.9461 C   0  0  0  0  0  0  0  0  0  0  0  0
   15.3300   -7.8074   -8.9258 C   0  0  0  0  0  0  0  0  0  0  0  0
   16.5602   -8.0005   -9.7151 C   0  0  0  0  0  0  0  0  0  0  0  0
   16.3958   -7.6408  -11.1662 C   0  0  2  0  0  0  0  0  0  0  0  0
   17.6536   -7.7946  -11.8828 N   0  0  0  0  0  0  0  0  0  0  0  0
   15.8250   -6.2921  -11.3469 C   0  0  0  0  0  0  0  0  0  0  0  0
   14.6110   -6.1890  -11.6295 O   0  0  0  0  0  0  0  0  0  0  0  0
   15.1231   -6.6895   -8.1387 C   0  0  0  0  0  0  0  0  0  0  0  0
   13.9537   -6.5700   -7.4205 C   0  0  0  0  0  0  0  0  0  0  0  0
   16.5515   -5.1214  -11.2229 O   0  0  0  0  0  0  0  0  0  0  0  0
  1  2  1  0
  2  3  1  0
  3 10  1  0
  4  3  2  0
  6  7  2  0
  6  5  1  0
  8  6  1  0
  9  8  1  6
  9 11  1  0
 10  9  1  0
 11 12  2  0
 11 20  1  0
 13 14  1  0
 14 15  2  0
 15 16  1  0
 17 18  1  0
 17 16  2  0
 19 18  1  1
 19 21  1  0
 20 19  1  0
 21 25  1  0
 22 21  2  0
 23 17  1  0
 24 23  2  0
 24 14  1  0
M  END
$$$$
