GNY.pdb
     RDKit          3D

 25 25  0  0  1  0  0  0  0  0999 V2000
   16.7092  -13.7568  -15.5170 N   0  0  0  0  0  0  0  0  0  0  0  0
   16.4317  -12.3743  -15.2619 C   0  0  0  0  0  0  0  0  0  0  0  0
   17.6376  -11.5416  -15.4278 C   0  0  0  0  0  0  0  0  0  0  0  0
   18.7497  -11.9967  -15.0596 O   0  0  0  0  0  0  0  0  0  0  0  0
   19.7945   -7.1907  -19.0029 N   0  0  0  0  0  0  0  0  0  0  0  0
   20.0040   -8.2879  -18.1040 C   0  0  0  0  0  0  0  0  0  0  0  0
   21.1765   -8.5095  -17.7585 O   0  0  0  0  0  0  0  0  0  0  0  0
   18.8001   -9.0305  -17.6920 C   0  0  0  0  0  0  0  0  0  0  0  0
   18.8020   -9.4602  -16.2646 C   0  0  2  0  0  0  0  0  0  0  0  0
   17.5862  -10.2347  -15.9924 N   0  0  0  0  0  0  0  0  0  0  0  0
   18.8544   -8.3218  -15.3475 C   0  0  0  0  0  0  0  0  0  0  0  0
   17.8846   -7.6319  -14.9404 O   0  0  0  0  0  0  0  0  0  0  0  0
   25.9743   -6.6416  -16.9984 O   0  0  0  0  0  0  0  0  0  0  0  0
   24.9096   -6.6638  -16.0940 C   0  0  0  0  0  0  0  0  0  0  0  0
   24.4308   -7.8427  -15.5734 C   0  0  0  0  0  0  0  0  0  0  0  0
   23.3790   -7.8523  -14.6817 C   0  0  0  0  0  0  0  0  0  0  0  0
   22.7526   -6.6666  -14.2671 C   0  0  0  0  0  0  0  0  0  0  0  0
   21.6267   -6.7093  -13.3162 C   0  0  0  0  0  0  0  0  0  0  0  0
   20.2820   -6.7195  -13.9899 C   0  0  2  0  0  0  0  0  0  0  0  0
   20.1307   -7.9026  -14.8245 N   0  0  0  0  0  0  0  0  0  0  0  0
   20.0269   -5.4794  -14.7479 C   0  0  0  0  0  0  0  0  0  0  0  0
   19.8991   -4.4075  -14.1163 O   0  0  0  0  0  0  0  0  0  0  0  0
   23.2349   -5.4811  -14.7907 C   0  0  0  0  0  0  0  0  0  0  0  0
   24.2871   -5.5081  -15.6793 C   0  0  0  0  0  0  0  0  0  0  0  0
   19.9186   -5.4232  -16.1259 O   0  0  0  0  0  0  0  0  0  0  0  0
  1  2  1  0
  2  3  1  0
  3 10  1  0
  4  3  2  0
  6  7  2  0
  6  5  1  0
  8  6  1  0
  9  8  1  6
  9 11  1  0
 10  9  1  0
 11 12  2  0
 11 20  1  0
 13 14  1  0
 14 15  2  0
 15 16  1  0
 17 18  1  0
 17 16  2  0
 19 18  1  6
 19 21  1  0
 20 19  1  0
 21 25  1  0
 22 21  2  0
 23 17  1  0
 24 23  2  0
 24 14  1  0
M  END
$$$$
