GNY.pdb
     RDKit          3D

 25 25  0  0  1  0  0  0  0  0999 V2000
   16.1989  -11.4046  -14.6505 N   0  0  0  0  0  0  0  0  0  0  0  0
   17.5175  -10.9416  -14.3337 C   0  0  0  0  0  0  0  0  0  0  0  0
   17.5093   -9.5239  -13.9275 C   0  0  0  0  0  0  0  0  0  0  0  0
   17.2807   -8.6417  -14.7929 O   0  0  0  0  0  0  0  0  0  0  0  0
   16.0696   -5.9093   -9.4313 N   0  0  0  0  0  0  0  0  0  0  0  0
   17.2107   -6.2399  -10.2339 C   0  0  0  0  0  0  0  0  0  0  0  0
   18.0515   -5.3416  -10.4045 O   0  0  0  0  0  0  0  0  0  0  0  0
   17.2553   -7.6126  -10.7674 C   0  0  0  0  0  0  0  0  0  0  0  0
   17.7143   -7.7070  -12.1824 C   0  0  2  0  0  0  0  0  0  0  0  0
   17.7526   -9.1175  -12.5839 N   0  0  0  0  0  0  0  0  0  0  0  0
   19.0429   -7.1244  -12.3698 C   0  0  0  0  0  0  0  0  0  0  0  0
   20.1057   -7.4586  -11.7859 O   0  0  0  0  0  0  0  0  0  0  0  0
   22.3524  -11.4285  -15.2797 O   0  0  0  0  0  0  0  0  0  0  0  0
   22.0099  -10.0759  -15.2094 C   0  0  0  0  0  0  0  0  0  0  0  0
   20.9652   -9.5582  -15.9378 C   0  0  0  0  0  0  0  0  0  0  0  0
   20.6366   -8.2212  -15.8608 C   0  0  0  0  0  0  0  0  0  0  0  0
   21.3491   -7.3327  -15.0402 C   0  0  0  0  0  0  0  0  0  0  0  0
   20.9772   -5.9072  -14.9826 C   0  0  0  0  0  0  0  0  0  0  0  0
   20.5090   -5.4713  -13.6214 C   0  0  2  0  0  0  0  0  0  0  0  0
   19.2079   -6.0469  -13.3132 N   0  0  0  0  0  0  0  0  0  0  0  0
   20.5060   -4.0030  -13.4747 C   0  0  0  0  0  0  0  0  0  0  0  0
   21.5975   -3.3943  -13.5239 O   0  0  0  0  0  0  0  0  0  0  0  0
   22.3995   -7.8541  -14.3073 C   0  0  0  0  0  0  0  0  0  0  0  0
   22.7003   -9.1945  -14.4084 C   0  0  0  0  0  0  0  0  0  0  0  0
   19.3633   -3.2467  -13.2845 O   0  0  0  0  0  0  0  0  0  0  0  0
  1  2  1  0
  2  3  1  0
  3 10  1  0
  4  3  2  0
  6  7  2  0
  6  5  1  0
  8  6  1  0
  9  8  1  1
  9 11  1  0
 10  9  1  0
 11 12  2  0
 11 20  1  0
 13 14  1  0
 14 15  2  0
 15 16  1  0
 17 18  1  0
 17 16  2  0
 19 18  1  6
 19 21  1  0
 20 19  1  0
 21 25  1  0
 22 21  2  0
 23 17  1  0
 24 23  2  0
 24 14  1  0
M  END
$$$$
