GNY.pdb
     RDKit          3D

 25 25  0  0  1  0  0  0  0  0999 V2000
   27.3015  -27.2000  -16.5853 N   0  0  0  0  0  0  0  0  0  0  0  0
   26.0610  -26.5506  -16.8899 C   0  0  0  0  0  0  0  0  0  0  0  0
   26.1356  -25.0990  -16.6406 C   0  0  0  0  0  0  0  0  0  0  0  0
   27.2142  -24.6048  -16.2260 O   0  0  0  0  0  0  0  0  0  0  0  0
   25.6349  -20.7987  -19.0216 N   0  0  0  0  0  0  0  0  0  0  0  0
   24.7008  -21.8734  -18.8539 C   0  0  0  0  0  0  0  0  0  0  0  0
   24.4242  -22.5349  -19.8683 O   0  0  0  0  0  0  0  0  0  0  0  0
   24.1732  -22.0705  -17.4925 C   0  0  0  0  0  0  0  0  0  0  0  0
   25.0974  -22.7954  -16.5746 C   0  0  2  0  0  0  0  0  0  0  0  0
   25.0239  -24.2339  -16.8535 N   0  0  0  0  0  0  0  0  0  0  0  0
   24.7665  -22.5675  -15.1681 C   0  0  0  0  0  0  0  0  0  0  0  0
   23.7304  -22.9449  -14.5630 O   0  0  0  0  0  0  0  0  0  0  0  0
   25.7714  -19.6758   -6.7881 O   0  0  0  0  0  0  0  0  0  0  0  0
   25.9727  -19.9695   -8.1390 C   0  0  0  0  0  0  0  0  0  0  0  0
   26.3415  -21.2265   -8.5561 C   0  0  0  0  0  0  0  0  0  0  0  0
   26.5378  -21.5046   -9.8924 C   0  0  0  0  0  0  0  0  0  0  0  0
   26.3712  -20.5233  -10.8822 C   0  0  0  0  0  0  0  0  0  0  0  0
   26.5933  -20.8497  -12.3028 C   0  0  0  0  0  0  0  0  0  0  0  0
   25.4016  -21.4939  -12.9562 C   0  0  2  0  0  0  0  0  0  0  0  0
   25.6931  -21.8358  -14.3408 N   0  0  0  0  0  0  0  0  0  0  0  0
   24.1855  -20.6660  -12.8418 C   0  0  0  0  0  0  0  0  0  0  0  0
   23.3831  -20.9063  -11.9129 O   0  0  0  0  0  0  0  0  0  0  0  0
   25.9998  -19.2593  -10.4622 C   0  0  0  0  0  0  0  0  0  0  0  0
   25.8122  -19.0164   -9.1193 C   0  0  0  0  0  0  0  0  0  0  0  0
   23.8707  -19.6302  -13.7030 O   0  0  0  0  0  0  0  0  0  0  0  0
  1  2  1  0
  2  3  1  0
  3 10  1  0
  4  3  2  0
  6  7  2  0
  6  5  1  0
  8  6  1  0
  9  8  1  6
  9 11  1  0
 10  9  1  0
 11 12  2  0
 11 20  1  0
 13 14  1  0
 14 15  2  0
 15 16  1  0
 17 18  1  0
 17 16  2  0
 19 18  1  6
 19 21  1  0
 20 19  1  0
 21 25  1  0
 22 21  2  0
 23 17  1  0
 24 23  2  0
 24 14  1  0
M  END
$$$$
