GNY.pdb
     RDKit          3D

 25 25  0  0  1  0  0  0  0  0999 V2000
   26.7227  -26.7962  -16.5197 N   0  0  0  0  0  0  0  0  0  0  0  0
   26.7144  -25.7302  -17.4773 C   0  0  0  0  0  0  0  0  0  0  0  0
   27.0107  -24.4321  -16.8434 C   0  0  0  0  0  0  0  0  0  0  0  0
   28.0753  -24.3008  -16.1885 O   0  0  0  0  0  0  0  0  0  0  0  0
   27.6064  -19.4939  -18.3630 N   0  0  0  0  0  0  0  0  0  0  0  0
   26.7520  -19.7016  -17.2305 C   0  0  0  0  0  0  0  0  0  0  0  0
   26.7747  -18.8284  -16.3473 O   0  0  0  0  0  0  0  0  0  0  0  0
   25.9421  -20.9323  -17.2435 C   0  0  0  0  0  0  0  0  0  0  0  0
   26.4555  -22.0148  -16.3565 C   0  0  2  0  0  0  0  0  0  0  0  0
   26.1295  -23.3175  -16.9471 N   0  0  0  0  0  0  0  0  0  0  0  0
   25.8793  -21.9452  -15.0138 C   0  0  0  0  0  0  0  0  0  0  0  0
   24.7544  -22.3741  -14.6491 O   0  0  0  0  0  0  0  0  0  0  0  0
   25.3126  -19.8108   -6.3615 O   0  0  0  0  0  0  0  0  0  0  0  0
   25.7642  -19.9874   -7.6717 C   0  0  0  0  0  0  0  0  0  0  0  0
   25.8536  -18.9346   -8.5512 C   0  0  0  0  0  0  0  0  0  0  0  0
   26.3004  -19.1210   -9.8424 C   0  0  0  0  0  0  0  0  0  0  0  0
   26.6821  -20.3864  -10.3154 C   0  0  0  0  0  0  0  0  0  0  0  0
   27.1510  -20.5552  -11.7029 C   0  0  0  0  0  0  0  0  0  0  0  0
   26.1250  -21.1878  -12.6024 C   0  0  2  0  0  0  0  0  0  0  0  0
   26.6404  -21.3276  -13.9566 N   0  0  0  0  0  0  0  0  0  0  0  0
   24.8389  -20.4647  -12.5789 C   0  0  0  0  0  0  0  0  0  0  0  0
   24.6975  -19.4705  -13.3245 O   0  0  0  0  0  0  0  0  0  0  0  0
   26.5925  -21.4449   -9.4300 C   0  0  0  0  0  0  0  0  0  0  0  0
   26.1418  -21.2228   -8.1475 C   0  0  0  0  0  0  0  0  0  0  0  0
   23.7673  -20.8175  -11.7782 O   0  0  0  0  0  0  0  0  0  0  0  0
  1  2  1  0
  2  3  1  0
  3 10  1  0
  4  3  2  0
  6  7  2  0
  6  5  1  0
  8  6  1  0
  9  8  1  6
  9 11  1  0
 10  9  1  0
 11 12  2  0
 11 20  1  0
 13 14  1  0
 14 15  2  0
 15 16  1  0
 17 18  1  0
 17 16  2  0
 19 18  1  1
 19 21  1  0
 20 19  1  0
 21 25  1  0
 22 21  2  0
 23 17  1  0
 24 23  2  0
 24 14  1  0
M  END
$$$$
