GNY.pdb
     RDKit          3D

 25 25  0  0  1  0  0  0  0  0999 V2000
   30.1638  -24.5767  -17.1045 N   0  0  0  0  0  0  0  0  0  0  0  0
   29.2466  -23.7951  -17.8799 C   0  0  0  0  0  0  0  0  0  0  0  0
   28.6161  -22.7382  -17.0673 C   0  0  0  0  0  0  0  0  0  0  0  0
   28.8161  -22.7201  -15.8267 O   0  0  0  0  0  0  0  0  0  0  0  0
   29.2770  -19.2094  -16.1352 N   0  0  0  0  0  0  0  0  0  0  0  0
   28.4272  -18.6243  -17.1308 C   0  0  0  0  0  0  0  0  0  0  0  0
   28.7831  -17.5277  -17.5931 O   0  0  0  0  0  0  0  0  0  0  0  0
   27.2238  -19.3935  -17.4925 C   0  0  0  0  0  0  0  0  0  0  0  0
   27.1164  -20.7189  -16.8188 C   0  0  2  0  0  0  0  0  0  0  0  0
   27.7850  -21.7334  -17.6410 N   0  0  0  0  0  0  0  0  0  0  0  0
   25.7249  -21.1189  -16.6104 C   0  0  0  0  0  0  0  0  0  0  0  0
   24.9038  -21.4893  -17.4883 O   0  0  0  0  0  0  0  0  0  0  0  0
   18.2847  -23.2956  -12.2230 O   0  0  0  0  0  0  0  0  0  0  0  0
   19.5931  -22.9292  -12.5480 C   0  0  0  0  0  0  0  0  0  0  0  0
   20.4752  -23.8247  -13.1046 C   0  0  0  0  0  0  0  0  0  0  0  0
   21.7645  -23.4517  -13.4208 C   0  0  0  0  0  0  0  0  0  0  0  0
   22.2329  -22.1487  -13.1905 C   0  0  0  0  0  0  0  0  0  0  0  0
   23.6186  -21.7810  -13.5345 C   0  0  0  0  0  0  0  0  0  0  0  0
   23.7976  -21.4396  -14.9883 C   0  0  2  0  0  0  0  0  0  0  0  0
   25.1852  -21.1045  -15.2737 N   0  0  0  0  0  0  0  0  0  0  0  0
   22.8761  -20.3752  -15.4303 C   0  0  0  0  0  0  0  0  0  0  0  0
   21.8577  -20.6975  -16.0810 O   0  0  0  0  0  0  0  0  0  0  0  0
   21.3450  -21.2481  -12.6311 C   0  0  0  0  0  0  0  0  0  0  0  0
   20.0644  -21.6546  -12.3275 C   0  0  0  0  0  0  0  0  0  0  0  0
   23.0658  -19.0299  -15.1699 O   0  0  0  0  0  0  0  0  0  0  0  0
  1  2  1  0
  2  3  1  0
  3 10  1  0
  4  3  2  0
  6  7  2  0
  6  5  1  0
  8  6  1  0
  9  8  1  6
  9 11  1  0
 10  9  1  0
 11 12  2  0
 11 20  1  0
 13 14  1  0
 14 15  2  0
 15 16  1  0
 17 18  1  0
 17 16  2  0
 19 18  1  1
 19 21  1  0
 20 19  1  0
 21 25  1  0
 22 21  2  0
 23 17  1  0
 24 23  2  0
 24 14  1  0
M  END
$$$$
