GNY.pdb
     RDKit          3D

 25 25  0  0  1  0  0  0  0  0999 V2000
   25.4483  -18.9028  -20.4995 N   0  0  0  0  0  0  0  0  0  0  0  0
   24.1097  -19.4088  -20.5746 C   0  0  0  0  0  0  0  0  0  0  0  0
   23.2786  -18.9051  -19.4654 C   0  0  0  0  0  0  0  0  0  0  0  0
   23.7496  -18.0280  -18.6984 O   0  0  0  0  0  0  0  0  0  0  0  0
   19.9891  -16.6033  -18.8012 N   0  0  0  0  0  0  0  0  0  0  0  0
   19.1242  -17.7464  -18.8306 C   0  0  0  0  0  0  0  0  0  0  0  0
   17.9578  -17.5534  -19.2119 O   0  0  0  0  0  0  0  0  0  0  0  0
   19.7199  -19.0242  -18.4028 C   0  0  0  0  0  0  0  0  0  0  0  0
   21.1709  -18.9448  -18.0708 C   0  0  2  0  0  0  0  0  0  0  0  0
   21.9558  -19.3796  -19.2315 N   0  0  0  0  0  0  0  0  0  0  0  0
   21.5191  -19.7814  -16.9225 C   0  0  0  0  0  0  0  0  0  0  0  0
   21.6512  -21.0322  -16.9090 O   0  0  0  0  0  0  0  0  0  0  0  0
   24.7419  -21.6750   -8.8364 O   0  0  0  0  0  0  0  0  0  0  0  0
   24.3135  -21.0193   -9.9933 C   0  0  0  0  0  0  0  0  0  0  0  0
   23.0876  -20.4005  -10.0589 C   0  0  0  0  0  0  0  0  0  0  0  0
   22.6751  -19.7567  -11.2064 C   0  0  0  0  0  0  0  0  0  0  0  0
   23.4827  -19.7037  -12.3533 C   0  0  0  0  0  0  0  0  0  0  0  0
   23.0121  -19.0120  -13.5673 C   0  0  0  0  0  0  0  0  0  0  0  0
   22.2134  -19.8988  -14.4827 C   0  0  2  0  0  0  0  0  0  0  0  0
   21.7451  -19.1557  -15.6435 N   0  0  0  0  0  0  0  0  0  0  0  0
   21.1040  -20.5726  -13.7808 C   0  0  0  0  0  0  0  0  0  0  0  0
   21.2995  -21.7148  -13.3102 O   0  0  0  0  0  0  0  0  0  0  0  0
   24.7159  -20.3257  -12.2865 C   0  0  0  0  0  0  0  0  0  0  0  0
   25.0961  -20.9598  -11.1243 C   0  0  0  0  0  0  0  0  0  0  0  0
   19.8484  -20.0186  -13.6069 O   0  0  0  0  0  0  0  0  0  0  0  0
  1  2  1  0
  2  3  1  0
  3 10  1  0
  4  3  2  0
  6  7  2  0
  6  5  1  0
  8  6  1  0
  9  8  1  6
  9 11  1  0
 10  9  1  0
 11 12  2  0
 11 20  1  0
 13 14  1  0
 14 15  2  0
 15 16  1  0
 17 18  1  0
 17 16  2  0
 19 18  1  1
 19 21  1  0
 20 19  1  0
 21 25  1  0
 22 21  2  0
 23 17  1  0
 24 23  2  0
 24 14  1  0
M  END
$$$$
