GNY.pdb
     RDKit          3D

 25 25  0  0  1  0  0  0  0  0999 V2000
   18.8639  -19.7198  -11.7118 N   0  0  0  0  0  0  0  0  0  0  0  0
   19.9829  -19.3642  -12.5332 C   0  0  0  0  0  0  0  0  0  0  0  0
   21.0511  -20.3783  -12.4597 C   0  0  0  0  0  0  0  0  0  0  0  0
   20.9453  -21.3184  -11.6323 O   0  0  0  0  0  0  0  0  0  0  0  0
   24.7054  -24.0060  -14.2907 N   0  0  0  0  0  0  0  0  0  0  0  0
   24.9410  -22.6049  -14.4835 C   0  0  0  0  0  0  0  0  0  0  0  0
   26.1241  -22.2524  -14.6220 O   0  0  0  0  0  0  0  0  0  0  0  0
   23.7484  -21.7400  -14.4947 C   0  0  0  0  0  0  0  0  0  0  0  0
   23.3102  -21.2806  -13.1460 C   0  0  2  0  0  0  0  0  0  0  0  0
   22.2031  -20.3299  -13.2964 N   0  0  0  0  0  0  0  0  0  0  0  0
   24.3938  -20.6336  -12.4064 C   0  0  0  0  0  0  0  0  0  0  0  0
   24.7890  -19.4455  -12.5267 O   0  0  0  0  0  0  0  0  0  0  0  0
   29.6302  -18.6226   -5.6590 O   0  0  0  0  0  0  0  0  0  0  0  0
   28.8252  -19.3263   -6.5582 C   0  0  0  0  0  0  0  0  0  0  0  0
   27.4697  -19.1099   -6.6338 C   0  0  0  0  0  0  0  0  0  0  0  0
   26.6850  -19.8108   -7.5251 C   0  0  0  0  0  0  0  0  0  0  0  0
   27.2306  -20.7716   -8.3910 C   0  0  0  0  0  0  0  0  0  0  0  0
   26.3652  -21.5088   -9.3297 C   0  0  0  0  0  0  0  0  0  0  0  0
   26.2341  -20.8357  -10.6683 C   0  0  2  0  0  0  0  0  0  0  0  0
   25.1211  -21.3949  -11.4216 N   0  0  0  0  0  0  0  0  0  0  0  0
   27.4914  -20.8756  -11.4398 C   0  0  0  0  0  0  0  0  0  0  0  0
   27.8355  -21.9560  -11.9678 O   0  0  0  0  0  0  0  0  0  0  0  0
   28.5942  -20.9885   -8.3149 C   0  0  0  0  0  0  0  0  0  0  0  0
   29.3480  -20.2706   -7.4127 C   0  0  0  0  0  0  0  0  0  0  0  0
   28.3238  -19.7855  -11.6199 O   0  0  0  0  0  0  0  0  0  0  0  0
  1  2  1  0
  2  3  1  0
  3 10  1  0
  4  3  2  0
  6  7  2  0
  6  5  1  0
  8  6  1  0
  9  8  1  6
  9 11  1  0
 10  9  1  0
 11 12  2  0
 11 20  1  0
 13 14  1  0
 14 15  2  0
 15 16  1  0
 17 18  1  0
 17 16  2  0
 19 18  1  1
 19 21  1  0
 20 19  1  0
 21 25  1  0
 22 21  2  0
 23 17  1  0
 24 23  2  0
 24 14  1  0
M  END
$$$$
