NAW.pdb
     RDKit          3D

 28 29  0  0  1  0  0  0  0  0999 V2000
    9.3522  -13.7146   17.0901 N   0  0  0  0  0  0  0  0  0  0  0  0
    8.0611  -13.3186   17.5002 C   0  0  0  0  0  0  0  0  0  0  0  0
    7.2869  -12.8086   16.6618 O   0  0  0  0  0  0  0  0  0  0  0  0
    7.6130  -13.4959   18.8941 C   0  0  0  0  0  0  0  0  0  0  0  0
    8.7325  -13.9706   19.8073 C   0  0  2  0  0  0  0  0  0  0  0  0
    9.6981  -14.7672   19.0827 N   0  0  0  0  0  0  0  0  0  0  0  0
    8.0659  -14.8199   20.8469 C   0  0  0  0  0  0  0  0  0  0  0  0
    7.2349  -14.2913   21.6164 O   0  0  0  0  0  0  0  0  0  0  0  0
    7.7381  -18.4694   21.3761 C   0  0  0  0  0  0  0  0  0  0  0  0
    7.7095  -17.0674   21.9463 C   0  0  2  0  0  0  0  0  0  0  0  0
    8.3419  -16.1956   20.9902 N   0  0  0  0  0  0  0  0  0  0  0  0
    8.3821  -17.0148   23.2752 C   0  0  0  0  0  0  0  0  0  0  0  0
    8.0847  -17.9085   24.1063 O   0  0  0  0  0  0  0  0  0  0  0  0
    9.3123  -16.0323   23.6286 N   0  0  0  0  0  0  0  0  0  0  0  0
    9.9153  -15.8829   24.9251 C   0  0  1  0  0  0  0  0  0  0  0  0
    8.9301  -16.1717   26.0406 C   0  0  0  0  0  0  0  0  0  0  0  0
    7.7214  -15.3171   25.9174 C   0  0  0  0  0  0  0  0  0  0  0  0
    6.4534  -15.7969   25.6174 C   0  0  0  0  0  0  0  0  0  0  0  0
    5.5988  -14.7532   25.5833 N   0  0  0  0  0  0  0  0  0  0  0  0
    6.2482  -13.6058   25.8479 C   0  0  0  0  0  0  0  0  0  0  0  0
    5.8709  -12.2776   25.9403 C   0  0  0  0  0  0  0  0  0  0  0  0
    6.7667  -11.2837   26.2337 C   0  0  0  0  0  0  0  0  0  0  0  0
    8.0769  -11.6532   26.4373 C   0  0  0  0  0  0  0  0  0  0  0  0
    8.4933  -12.9734   26.3531 C   0  0  0  0  0  0  0  0  0  0  0  0
    7.5826  -13.9558   26.0584 C   0  0  0  0  0  0  0  0  0  0  0  0
   11.1145  -16.7294   25.0993 C   0  0  0  0  0  0  0  0  0  0  0  0
   11.8188  -16.7115   26.1232 O   0  0  0  0  0  0  0  0  0  0  0  0
   11.4687  -17.5851   24.0670 O   0  0  0  0  0  0  0  0  0  0  0  0
  2  3  2  0
  2  1  1  0
  4  2  1  0
  5  6  1  6
  5  4  1  0
  5  7  1  0
  7  8  2  0
  7 11  1  0
 10  9  1  6
 11 10  1  0
 12 10  1  0
 12 14  1  0
 13 12  2  0
 15 14  1  0
 15 26  1  0
 15 16  1  1
 17 16  1  0
 17 18  2  0
 19 18  1  0
 20 25  2  0
 20 19  1  0
 21 20  1  0
 22 23  1  0
 22 21  2  0
 23 24  2  0
 24 25  1  0
 25 17  1  0
 26 28  1  0
 27 26  2  0
M  END
$$$$
