NAW.pdb
     RDKit          3D

 28 29  0  0  1  0  0  0  0  0999 V2000
    5.4186  -21.9543   19.6663 N   0  0  0  0  0  0  0  0  0  0  0  0
    6.3229  -22.0903   20.7413 C   0  0  0  0  0  0  0  0  0  0  0  0
    6.0706  -22.9138   21.6473 O   0  0  0  0  0  0  0  0  0  0  0  0
    7.5540  -21.2813   20.8128 C   0  0  0  0  0  0  0  0  0  0  0  0
    7.5688  -20.3528   22.0170 C   0  0  2  0  0  0  0  0  0  0  0  0
    6.2314  -19.9293   22.3691 N   0  0  0  0  0  0  0  0  0  0  0  0
    8.3729  -19.1616   21.5922 C   0  0  0  0  0  0  0  0  0  0  0  0
    9.5047  -19.3435   21.0938 O   0  0  0  0  0  0  0  0  0  0  0  0
    7.6727  -15.6278   20.8758 C   0  0  0  0  0  0  0  0  0  0  0  0
    8.6504  -16.6567   21.4020 C   0  0  2  0  0  0  0  0  0  0  0  0
    7.9001  -17.8404   21.7341 N   0  0  0  0  0  0  0  0  0  0  0  0
    9.4042  -16.1302   22.5749 C   0  0  0  0  0  0  0  0  0  0  0  0
   10.1461  -15.1351   22.3823 O   0  0  0  0  0  0  0  0  0  0  0  0
    9.3215  -16.6858   23.8554 N   0  0  0  0  0  0  0  0  0  0  0  0
   10.1273  -16.3046   24.9833 C   0  0  1  0  0  0  0  0  0  0  0  0
    9.9259  -14.8480   25.3521 C   0  0  0  0  0  0  0  0  0  0  0  0
    8.5145  -14.5862   25.7342 C   0  0  0  0  0  0  0  0  0  0  0  0
    7.5073  -15.5416   25.7031 C   0  0  0  0  0  0  0  0  0  0  0  0
    6.3577  -14.9638   26.1097 N   0  0  0  0  0  0  0  0  0  0  0  0
    6.5631  -13.6686   26.4076 C   0  0  0  0  0  0  0  0  0  0  0  0
    5.7570  -12.6383   26.8592 C   0  0  0  0  0  0  0  0  0  0  0  0
    6.2433  -11.3781   27.0868 C   0  0  0  0  0  0  0  0  0  0  0  0
    7.5819  -11.1642   26.8483 C   0  0  0  0  0  0  0  0  0  0  0  0
    8.4213  -12.1712   26.3955 C   0  0  0  0  0  0  0  0  0  0  0  0
    7.9173  -13.4272   26.1729 C   0  0  0  0  0  0  0  0  0  0  0  0
    9.8836  -17.1490   26.1719 C   0  0  0  0  0  0  0  0  0  0  0  0
   10.4809  -16.9959   27.2510 O   0  0  0  0  0  0  0  0  0  0  0  0
    8.9409  -18.1616   26.0748 O   0  0  0  0  0  0  0  0  0  0  0  0
  2  3  2  0
  2  1  1  0
  4  2  1  0
  5  6  1  6
  5  4  1  0
  5  7  1  0
  7  8  2  0
  7 11  1  0
 10  9  1  1
 11 10  1  0
 12 10  1  0
 12 14  1  0
 13 12  2  0
 15 14  1  0
 15 26  1  0
 15 16  1  1
 17 16  1  0
 17 18  2  0
 19 18  1  0
 20 25  2  0
 20 19  1  0
 21 20  1  0
 22 23  1  0
 22 21  2  0
 23 24  2  0
 24 25  1  0
 25 17  1  0
 26 28  1  0
 27 26  2  0
M  END
$$$$
