NAW.pdb
     RDKit          3D

 28 29  0  0  1  0  0  0  0  0999 V2000
   12.2044  -17.8078   16.0273 N   0  0  0  0  0  0  0  0  0  0  0  0
   10.8498  -18.0637   16.3298 C   0  0  0  0  0  0  0  0  0  0  0  0
   10.2913  -19.0597   15.8213 O   0  0  0  0  0  0  0  0  0  0  0  0
   10.0868  -17.1803   17.2312 C   0  0  0  0  0  0  0  0  0  0  0  0
   10.0712  -17.6881   18.6645 C   0  0  2  0  0  0  0  0  0  0  0  0
    9.0807  -18.7270   18.8420 N   0  0  0  0  0  0  0  0  0  0  0  0
    9.7044  -16.5017   19.5038 C   0  0  0  0  0  0  0  0  0  0  0  0
   10.4166  -15.4763   19.4438 O   0  0  0  0  0  0  0  0  0  0  0  0
    6.7794  -15.6539   21.6693 C   0  0  0  0  0  0  0  0  0  0  0  0
    8.1996  -15.4013   21.2102 C   0  0  2  0  0  0  0  0  0  0  0  0
    8.5842  -16.4989   20.3607 N   0  0  0  0  0  0  0  0  0  0  0  0
    9.1204  -15.2497   22.3722 C   0  0  0  0  0  0  0  0  0  0  0  0
   10.1343  -14.5257   22.2122 O   0  0  0  0  0  0  0  0  0  0  0  0
    8.9070  -15.8667   23.6088 N   0  0  0  0  0  0  0  0  0  0  0  0
    9.8068  -15.8221   24.7291 C   0  0  1  0  0  0  0  0  0  0  0  0
    9.0706  -15.9542   26.0478 C   0  0  0  0  0  0  0  0  0  0  0  0
    7.8517  -15.1055   26.0639 C   0  0  0  0  0  0  0  0  0  0  0  0
    6.5598  -15.5918   25.9132 C   0  0  0  0  0  0  0  0  0  0  0  0
    5.7019  -14.5522   25.9766 N   0  0  0  0  0  0  0  0  0  0  0  0
    6.3720  -13.4013   26.1626 C   0  0  0  0  0  0  0  0  0  0  0  0
    6.0014  -12.0746   26.2960 C   0  0  0  0  0  0  0  0  0  0  0  0
    6.9203  -11.0760   26.4824 C   0  0  0  0  0  0  0  0  0  0  0  0
    8.2470  -11.4389   26.5337 C   0  0  0  0  0  0  0  0  0  0  0  0
    8.6573  -12.7574   26.4039 C   0  0  0  0  0  0  0  0  0  0  0  0
    7.7234  -13.7445   26.2180 C   0  0  0  0  0  0  0  0  0  0  0  0
   10.8655  -16.8510   24.6539 C   0  0  0  0  0  0  0  0  0  0  0  0
   10.8842  -17.7482   23.7940 O   0  0  0  0  0  0  0  0  0  0  0  0
   11.8872  -16.8104   25.5908 O   0  0  0  0  0  0  0  0  0  0  0  0
  2  3  2  0
  2  1  1  0
  4  2  1  0
  5  6  1  6
  5  4  1  0
  5  7  1  0
  7  8  2  0
  7 11  1  0
 10  9  1  1
 11 10  1  0
 12 10  1  0
 12 14  1  0
 13 12  2  0
 15 14  1  0
 15 26  1  0
 15 16  1  1
 17 16  1  0
 17 18  2  0
 19 18  1  0
 20 25  2  0
 20 19  1  0
 21 20  1  0
 22 23  1  0
 22 21  2  0
 23 24  2  0
 24 25  1  0
 25 17  1  0
 26 28  1  0
 27 26  2  0
M  END
$$$$
