NAW.pdb
     RDKit          3D

 28 29  0  0  1  0  0  0  0  0999 V2000
    8.5655  -19.4263   15.6697 N   0  0  0  0  0  0  0  0  0  0  0  0
    9.4884  -19.0601   16.6728 C   0  0  0  0  0  0  0  0  0  0  0  0
   10.4798  -19.7918   16.8829 O   0  0  0  0  0  0  0  0  0  0  0  0
    9.3032  -17.8347   17.4724 C   0  0  0  0  0  0  0  0  0  0  0  0
    9.3258  -18.1092   18.9679 C   0  0  2  0  0  0  0  0  0  0  0  0
    8.1043  -18.7507   19.4019 N   0  0  0  0  0  0  0  0  0  0  0  0
    9.4402  -16.7639   19.6186 C   0  0  0  0  0  0  0  0  0  0  0  0
   10.5045  -16.1207   19.4926 O   0  0  0  0  0  0  0  0  0  0  0  0
    7.0576  -14.5402   21.4504 C   0  0  0  0  0  0  0  0  0  0  0  0
    8.4683  -14.9441   21.0784 C   0  0  2  0  0  0  0  0  0  0  0  0
    8.3903  -16.1953   20.3694 N   0  0  0  0  0  0  0  0  0  0  0  0
    9.3343  -15.0442   22.2872 C   0  0  0  0  0  0  0  0  0  0  0  0
   10.2393  -14.1832   22.4194 O   0  0  0  0  0  0  0  0  0  0  0  0
    9.1842  -16.0360   23.2615 N   0  0  0  0  0  0  0  0  0  0  0  0
    9.9603  -16.1450   24.4668 C   0  0  1  0  0  0  0  0  0  0  0  0
    9.7377  -14.9619   25.3883 C   0  0  0  0  0  0  0  0  0  0  0  0
    8.2880  -14.7274   25.6121 C   0  0  0  0  0  0  0  0  0  0  0  0
    7.3005  -15.6790   25.3942 C   0  0  0  0  0  0  0  0  0  0  0  0
    6.1050  -15.1307   25.6956 N   0  0  0  0  0  0  0  0  0  0  0  0
    6.2612  -13.8587   26.1029 C   0  0  0  0  0  0  0  0  0  0  0  0
    5.3972  -12.8618   26.5212 C   0  0  0  0  0  0  0  0  0  0  0  0
    5.8411  -11.6197   26.8908 C   0  0  0  0  0  0  0  0  0  0  0  0
    7.1969  -11.3895   26.8322 C   0  0  0  0  0  0  0  0  0  0  0  0
    8.0939  -12.3630   26.4183 C   0  0  0  0  0  0  0  0  0  0  0  0
    7.6317  -13.6012   26.0519 C   0  0  0  0  0  0  0  0  0  0  0  0
    9.6965  -17.3978   25.2056 C   0  0  0  0  0  0  0  0  0  0  0  0
    8.8193  -18.2133   24.8735 O   0  0  0  0  0  0  0  0  0  0  0  0
   10.4678  -17.6741   26.3245 O   0  0  0  0  0  0  0  0  0  0  0  0
  2  3  2  0
  2  1  1  0
  4  2  1  0
  5  6  1  1
  5  4  1  0
  5  7  1  0
  7  8  2  0
  7 11  1  0
 10  9  1  1
 11 10  1  0
 12 10  1  0
 12 14  1  0
 13 12  2  0
 15 14  1  0
 15 26  1  0
 15 16  1  1
 17 16  1  0
 17 18  2  0
 19 18  1  0
 20 25  2  0
 20 19  1  0
 21 20  1  0
 22 23  1  0
 22 21  2  0
 23 24  2  0
 24 25  1  0
 25 17  1  0
 26 28  1  0
 27 26  2  0
M  END
$$$$
