NAW.pdb
     RDKit          3D

 28 29  0  0  1  0  0  0  0  0999 V2000
    8.1604  -19.6284   16.4834 N   0  0  0  0  0  0  0  0  0  0  0  0
    9.0079  -19.5533   17.6095 C   0  0  0  0  0  0  0  0  0  0  0  0
    9.5441  -20.5983   18.0373 O   0  0  0  0  0  0  0  0  0  0  0  0
    9.2699  -18.2691   18.2858 C   0  0  0  0  0  0  0  0  0  0  0  0
    9.1641  -18.3783   19.7988 C   0  0  2  0  0  0  0  0  0  0  0  0
    7.8656  -18.8737   20.1993 N   0  0  0  0  0  0  0  0  0  0  0  0
    9.3447  -16.9820   20.3129 C   0  0  0  0  0  0  0  0  0  0  0  0
   10.4498  -16.4193   20.1570 O   0  0  0  0  0  0  0  0  0  0  0  0
    6.9801  -14.3600   21.4466 C   0  0  0  0  0  0  0  0  0  0  0  0
    8.3920  -14.9027   21.3882 C   0  0  2  0  0  0  0  0  0  0  0  0
    8.3128  -16.2779   20.9677 N   0  0  0  0  0  0  0  0  0  0  0  0
    9.0753  -14.7636   22.7053 C   0  0  0  0  0  0  0  0  0  0  0  0
    9.3719  -13.6018   23.0796 O   0  0  0  0  0  0  0  0  0  0  0  0
    9.3932  -15.8502   23.5260 N   0  0  0  0  0  0  0  0  0  0  0  0
   10.0617  -15.7683   24.7962 C   0  0  1  0  0  0  0  0  0  0  0  0
    9.1387  -16.1326   25.9424 C   0  0  0  0  0  0  0  0  0  0  0  0
    7.9001  -15.3133   25.9090 C   0  0  0  0  0  0  0  0  0  0  0  0
    6.6412  -15.8134   25.6037 C   0  0  0  0  0  0  0  0  0  0  0  0
    5.7525  -14.7999   25.6650 N   0  0  0  0  0  0  0  0  0  0  0  0
    6.3707  -13.6530   25.9975 C   0  0  0  0  0  0  0  0  0  0  0  0
    5.9527  -12.3485   26.1949 C   0  0  0  0  0  0  0  0  0  0  0  0
    6.8228  -11.3482   26.5395 C   0  0  0  0  0  0  0  0  0  0  0  0
    8.1490  -11.6862   26.6859 C   0  0  0  0  0  0  0  0  0  0  0  0
    8.6059  -12.9820   26.4965 C   0  0  0  0  0  0  0  0  0  0  0  0
    7.7206  -13.9712   26.1518 C   0  0  0  0  0  0  0  0  0  0  0  0
   11.2759  -16.6089   24.8588 C   0  0  0  0  0  0  0  0  0  0  0  0
   12.0565  -16.6081   25.8260 O   0  0  0  0  0  0  0  0  0  0  0  0
   11.5552  -17.4387   23.7833 O   0  0  0  0  0  0  0  0  0  0  0  0
  2  3  2  0
  2  1  1  0
  4  2  1  0
  5  6  1  6
  5  4  1  0
  5  7  1  0
  7  8  2  0
  7 11  1  0
 10  9  1  1
 11 10  1  0
 12 10  1  0
 12 14  1  0
 13 12  2  0
 15 14  1  0
 15 26  1  0
 15 16  1  1
 17 16  1  0
 17 18  2  0
 19 18  1  0
 20 25  2  0
 20 19  1  0
 21 20  1  0
 22 23  1  0
 22 21  2  0
 23 24  2  0
 24 25  1  0
 25 17  1  0
 26 28  1  0
 27 26  2  0
M  END
$$$$
