NAW.pdb
     RDKit          3D

 28 29  0  0  1  0  0  0  0  0999 V2000
    7.4977  -20.2764   17.0895 N   0  0  0  0  0  0  0  0  0  0  0  0
    8.7063  -19.7328   17.5752 C   0  0  0  0  0  0  0  0  0  0  0  0
    9.7571  -20.4024   17.4757 O   0  0  0  0  0  0  0  0  0  0  0  0
    8.7493  -18.3950   18.1945 C   0  0  0  0  0  0  0  0  0  0  0  0
    8.8549  -18.4606   19.7100 C   0  0  2  0  0  0  0  0  0  0  0  0
    7.6809  -19.0732   20.2916 N   0  0  0  0  0  0  0  0  0  0  0  0
    8.9504  -17.0357   20.1651 C   0  0  0  0  0  0  0  0  0  0  0  0
    9.9580  -16.3671   19.8491 O   0  0  0  0  0  0  0  0  0  0  0  0
    6.5164  -14.5886   21.4779 C   0  0  0  0  0  0  0  0  0  0  0  0
    7.9556  -15.0423   21.3585 C   0  0  2  0  0  0  0  0  0  0  0  0
    7.9444  -16.4199   20.9384 N   0  0  0  0  0  0  0  0  0  0  0  0
    8.6843  -14.8606   22.6457 C   0  0  0  0  0  0  0  0  0  0  0  0
    8.9421  -13.6833   22.9996 O   0  0  0  0  0  0  0  0  0  0  0  0
    9.0844  -15.9243   23.4605 N   0  0  0  0  0  0  0  0  0  0  0  0
    9.9385  -15.8172   24.6119 C   0  0  1  0  0  0  0  0  0  0  0  0
    9.2062  -16.1723   25.8909 C   0  0  0  0  0  0  0  0  0  0  0  0
    7.9705  -15.3614   26.0390 C   0  0  0  0  0  0  0  0  0  0  0  0
    6.6838  -15.8737   25.9384 C   0  0  0  0  0  0  0  0  0  0  0  0
    5.8067  -14.8651   26.1234 N   0  0  0  0  0  0  0  0  0  0  0  0
    6.4592  -13.7097   26.3418 C   0  0  0  0  0  0  0  0  0  0  0  0
    6.0658  -12.4053   26.5848 C   0  0  0  0  0  0  0  0  0  0  0  0
    6.9703  -11.3948   26.7779 C   0  0  0  0  0  0  0  0  0  0  0  0
    8.3059  -11.7224   26.7219 C   0  0  0  0  0  0  0  0  0  0  0  0
    8.7390  -13.0177   26.4807 C   0  0  0  0  0  0  0  0  0  0  0  0
    7.8194  -14.0172   26.2896 C   0  0  0  0  0  0  0  0  0  0  0  0
   11.1573  -16.6459   24.4990 C   0  0  0  0  0  0  0  0  0  0  0  0
   11.3352  -17.4767   23.5919 O   0  0  0  0  0  0  0  0  0  0  0  0
   12.1498  -16.4862   25.4544 O   0  0  0  0  0  0  0  0  0  0  0  0
  2  3  2  0
  2  1  1  0
  4  2  1  0
  5  6  1  1
  5  4  1  0
  5  7  1  0
  7  8  2  0
  7 11  1  0
 10  9  1  1
 11 10  1  0
 12 10  1  0
 12 14  1  0
 13 12  2  0
 15 14  1  0
 15 26  1  0
 15 16  1  1
 17 16  1  0
 17 18  2  0
 19 18  1  0
 20 25  2  0
 20 19  1  0
 21 20  1  0
 22 23  1  0
 22 21  2  0
 23 24  2  0
 24 25  1  0
 25 17  1  0
 26 28  1  0
 27 26  2  0
M  END
$$$$
