NAW.pdb
     RDKit          3D

 28 29  0  0  1  0  0  0  0  0999 V2000
    7.5590  -18.8491   16.1006 N   0  0  0  0  0  0  0  0  0  0  0  0
    8.4936  -19.3896   17.0096 C   0  0  0  0  0  0  0  0  0  0  0  0
    8.5864  -20.6313   17.1195 O   0  0  0  0  0  0  0  0  0  0  0  0
    9.3580  -18.5182   17.8273 C   0  0  0  0  0  0  0  0  0  0  0  0
    8.9871  -18.5520   19.3016 C   0  0  2  0  0  0  0  0  0  0  0  0
    7.5998  -18.9177   19.4851 N   0  0  0  0  0  0  0  0  0  0  0  0
    9.2040  -17.1551   19.7995 C   0  0  0  0  0  0  0  0  0  0  0  0
   10.3436  -16.6505   19.7052 O   0  0  0  0  0  0  0  0  0  0  0  0
    6.9695  -14.5676   21.3390 C   0  0  0  0  0  0  0  0  0  0  0  0
    8.3432  -15.0945   20.9828 C   0  0  2  0  0  0  0  0  0  0  0  0
    8.1688  -16.3871   20.3720 N   0  0  0  0  0  0  0  0  0  0  0  0
    9.2203  -15.1629   22.1857 C   0  0  0  0  0  0  0  0  0  0  0  0
   10.1551  -14.3276   22.2643 O   0  0  0  0  0  0  0  0  0  0  0  0
    9.0493  -16.0986   23.2107 N   0  0  0  0  0  0  0  0  0  0  0  0
    9.8534  -16.1899   24.3989 C   0  0  1  0  0  0  0  0  0  0  0  0
    9.6975  -14.9657   25.2794 C   0  0  0  0  0  0  0  0  0  0  0  0
    8.2680  -14.7193   25.5996 C   0  0  0  0  0  0  0  0  0  0  0  0
    7.2767  -15.6900   25.5424 C   0  0  0  0  0  0  0  0  0  0  0  0
    6.1033  -15.1233   25.8928 N   0  0  0  0  0  0  0  0  0  0  0  0
    6.2777  -13.8209   26.1787 C   0  0  0  0  0  0  0  0  0  0  0  0
    5.4393  -12.7961   26.5810 C   0  0  0  0  0  0  0  0  0  0  0  0
    5.8978  -11.5255   26.8086 C   0  0  0  0  0  0  0  0  0  0  0  0
    7.2418  -11.2953   26.6214 C   0  0  0  0  0  0  0  0  0  0  0  0
    8.1134  -12.2963   26.2189 C   0  0  0  0  0  0  0  0  0  0  0  0
    7.6369  -13.5629   25.9956 C   0  0  0  0  0  0  0  0  0  0  0  0
    9.5659  -17.4037   25.1922 C   0  0  0  0  0  0  0  0  0  0  0  0
    8.6428  -18.1913   24.9230 O   0  0  0  0  0  0  0  0  0  0  0  0
   10.3679  -17.6743   26.2908 O   0  0  0  0  0  0  0  0  0  0  0  0
  2  3  2  0
  2  1  1  0
  4  2  1  0
  5  6  1  6
  5  4  1  0
  5  7  1  0
  7  8  2  0
  7 11  1  0
 10  9  1  1
 11 10  1  0
 12 10  1  0
 12 14  1  0
 13 12  2  0
 15 14  1  0
 15 26  1  0
 15 16  1  1
 17 16  1  0
 17 18  2  0
 19 18  1  0
 20 25  2  0
 20 19  1  0
 21 20  1  0
 22 23  1  0
 22 21  2  0
 23 24  2  0
 24 25  1  0
 25 17  1  0
 26 28  1  0
 27 26  2  0
M  END
$$$$
