NAW.pdb
     RDKit          3D

 28 29  0  0  1  0  0  0  0  0999 V2000
    8.7618  -12.3910   17.8057 N   0  0  0  0  0  0  0  0  0  0  0  0
    7.7824  -13.4067   17.8406 C   0  0  0  0  0  0  0  0  0  0  0  0
    6.9219  -13.4524   16.9352 O   0  0  0  0  0  0  0  0  0  0  0  0
    7.7581  -14.4094   18.9219 C   0  0  0  0  0  0  0  0  0  0  0  0
    8.8461  -14.1722   19.9574 C   0  0  2  0  0  0  0  0  0  0  0  0
   10.1630  -14.3094   19.3754 N   0  0  0  0  0  0  0  0  0  0  0  0
    8.6471  -15.2348   20.9954 C   0  0  0  0  0  0  0  0  0  0  0  0
    7.5736  -15.2607   21.6351 O   0  0  0  0  0  0  0  0  0  0  0  0
   10.4733  -18.3203   21.9916 C   0  0  0  0  0  0  0  0  0  0  0  0
    9.5433  -17.1779   22.3403 C   0  0  2  0  0  0  0  0  0  0  0  0
    9.6275  -16.2084   21.2785 N   0  0  0  0  0  0  0  0  0  0  0  0
    9.8934  -16.5852   23.6621 C   0  0  0  0  0  0  0  0  0  0  0  0
   10.8005  -15.7165   23.6809 O   0  0  0  0  0  0  0  0  0  0  0  0
    9.2666  -16.9476   24.8584 N   0  0  0  0  0  0  0  0  0  0  0  0
    9.6571  -16.5089   26.1705 C   0  0  1  0  0  0  0  0  0  0  0  0
    8.4586  -16.3101   27.0773 C   0  0  0  0  0  0  0  0  0  0  0  0
    7.4740  -15.3835   26.4621 C   0  0  0  0  0  0  0  0  0  0  0  0
    6.3836  -15.7928   25.7060 C   0  0  0  0  0  0  0  0  0  0  0  0
    5.7063  -14.6967   25.3049 N   0  0  0  0  0  0  0  0  0  0  0  0
    6.3028  -13.5823   25.7638 C   0  0  0  0  0  0  0  0  0  0  0  0
    6.0400  -12.2279   25.6563 C   0  0  0  0  0  0  0  0  0  0  0  0
    6.8375  -11.2814   26.2433 C   0  0  0  0  0  0  0  0  0  0  0  0
    7.9277  -11.7268   26.9558 C   0  0  0  0  0  0  0  0  0  0  0  0
    8.2238  -13.0755   27.0860 C   0  0  0  0  0  0  0  0  0  0  0  0
    7.4142  -14.0095   26.4915 C   0  0  0  0  0  0  0  0  0  0  0  0
   10.6152  -17.4286   26.8196 C   0  0  0  0  0  0  0  0  0  0  0  0
   11.1617  -17.1860   27.9093 O   0  0  0  0  0  0  0  0  0  0  0  0
   10.9173  -18.6205   26.1783 O   0  0  0  0  0  0  0  0  0  0  0  0
  2  3  2  0
  2  1  1  0
  4  2  1  0
  5  6  1  6
  5  4  1  0
  5  7  1  0
  7  8  2  0
  7 11  1  0
 10  9  1  6
 11 10  1  0
 12 10  1  0
 12 14  1  0
 13 12  2  0
 15 14  1  0
 15 26  1  0
 15 16  1  1
 17 16  1  0
 17 18  2  0
 19 18  1  0
 20 25  2  0
 20 19  1  0
 21 20  1  0
 22 23  1  0
 22 21  2  0
 23 24  2  0
 24 25  1  0
 25 17  1  0
 26 28  1  0
 27 26  2  0
M  END
$$$$
