NAW.pdb
     RDKit          3D

 28 29  0  0  1  0  0  0  0  0999 V2000
    8.5124  -20.7692   16.6658 N   0  0  0  0  0  0  0  0  0  0  0  0
    9.4665  -20.2400   17.5612 C   0  0  0  0  0  0  0  0  0  0  0  0
   10.4292  -20.9543   17.9153 O   0  0  0  0  0  0  0  0  0  0  0  0
    9.3469  -18.8657   18.0826 C   0  0  0  0  0  0  0  0  0  0  0  0
    9.1780  -18.8312   19.5934 C   0  0  2  0  0  0  0  0  0  0  0  0
    7.8861  -19.3477   19.9886 N   0  0  0  0  0  0  0  0  0  0  0  0
    9.2731  -17.3843   19.9724 C   0  0  0  0  0  0  0  0  0  0  0  0
   10.3162  -16.7544   19.6939 O   0  0  0  0  0  0  0  0  0  0  0  0
    6.9199  -14.9113   21.5012 C   0  0  0  0  0  0  0  0  0  0  0  0
    8.3237  -15.3745   21.1751 C   0  0  2  0  0  0  0  0  0  0  0  0
    8.2282  -16.7053   20.6330 N   0  0  0  0  0  0  0  0  0  0  0  0
    9.1979  -15.3279   22.3812 C   0  0  0  0  0  0  0  0  0  0  0  0
   10.0674  -14.4225   22.4269 O   0  0  0  0  0  0  0  0  0  0  0  0
    9.0927  -16.2312   23.4434 N   0  0  0  0  0  0  0  0  0  0  0  0
    9.9399  -16.2553   24.6046 C   0  0  1  0  0  0  0  0  0  0  0  0
    9.8036  -14.9891   25.4271 C   0  0  0  0  0  0  0  0  0  0  0  0
    8.3752  -14.6732   25.6845 C   0  0  0  0  0  0  0  0  0  0  0  0
    7.3370  -15.5850   25.5470 C   0  0  0  0  0  0  0  0  0  0  0  0
    6.1797  -14.9647   25.8577 N   0  0  0  0  0  0  0  0  0  0  0  0
    6.4096  -13.6832   26.1942 C   0  0  0  0  0  0  0  0  0  0  0  0
    5.6084  -12.6258   26.5881 C   0  0  0  0  0  0  0  0  0  0  0  0
    6.1228  -11.3901   26.8794 C   0  0  0  0  0  0  0  0  0  0  0  0
    7.4851  -11.2295   26.7661 C   0  0  0  0  0  0  0  0  0  0  0  0
    8.3205  -12.2650   26.3743 C   0  0  0  0  0  0  0  0  0  0  0  0
    7.7882  -13.4958   26.0866 C   0  0  0  0  0  0  0  0  0  0  0  0
    9.6935  -17.4293   25.4683 C   0  0  0  0  0  0  0  0  0  0  0  0
    8.7637  -18.2320   25.2787 O   0  0  0  0  0  0  0  0  0  0  0  0
   10.5437  -17.6429   26.5429 O   0  0  0  0  0  0  0  0  0  0  0  0
  2  3  2  0
  2  1  1  0
  4  2  1  0
  5  6  1  6
  5  4  1  0
  5  7  1  0
  7  8  2  0
  7 11  1  0
 10  9  1  1
 11 10  1  0
 12 10  1  0
 12 14  1  0
 13 12  2  0
 15 14  1  0
 15 26  1  0
 15 16  1  1
 17 16  1  0
 17 18  2  0
 19 18  1  0
 20 25  2  0
 20 19  1  0
 21 20  1  0
 22 23  1  0
 22 21  2  0
 23 24  2  0
 24 25  1  0
 25 17  1  0
 26 28  1  0
 27 26  2  0
M  END
$$$$
