NAW.pdb
     RDKit          3D

 28 29  0  0  1  0  0  0  0  0999 V2000
    1.7929  -19.1379   20.2687 N   0  0  0  0  0  0  0  0  0  0  0  0
    3.1189  -19.6205   20.2398 C   0  0  0  0  0  0  0  0  0  0  0  0
    3.3410  -20.8071   20.5643 O   0  0  0  0  0  0  0  0  0  0  0  0
    4.2405  -18.7525   19.8351 C   0  0  0  0  0  0  0  0  0  0  0  0
    5.3793  -18.7687   20.8427 C   0  0  2  0  0  0  0  0  0  0  0  0
    4.8895  -18.5816   22.1907 N   0  0  0  0  0  0  0  0  0  0  0  0
    6.2596  -17.6151   20.4680 C   0  0  0  0  0  0  0  0  0  0  0  0
    6.1498  -17.1174   19.3267 O   0  0  0  0  0  0  0  0  0  0  0  0
    7.0795  -14.7439   20.8457 C   0  0  0  0  0  0  0  0  0  0  0  0
    8.0173  -15.9076   21.0864 C   0  0  2  0  0  0  0  0  0  0  0  0
    7.2095  -17.0690   21.3562 N   0  0  0  0  0  0  0  0  0  0  0  0
    8.9596  -15.6153   22.2034 C   0  0  0  0  0  0  0  0  0  0  0  0
    9.7016  -14.6092   22.0817 O   0  0  0  0  0  0  0  0  0  0  0  0
    9.0503  -16.3981   23.3585 N   0  0  0  0  0  0  0  0  0  0  0  0
    9.9896  -16.1995   24.4287 C   0  0  1  0  0  0  0  0  0  0  0  0
    9.8547  -14.8221   25.0475 C   0  0  0  0  0  0  0  0  0  0  0  0
    8.4751  -14.5976   25.5502 C   0  0  0  0  0  0  0  0  0  0  0  0
    7.4798  -15.5659   25.5580 C   0  0  0  0  0  0  0  0  0  0  0  0
    6.3594  -15.0228   26.0780 N   0  0  0  0  0  0  0  0  0  0  0  0
    6.5726  -13.7382   26.4136 C   0  0  0  0  0  0  0  0  0  0  0  0
    5.7929  -12.7397   26.9707 C   0  0  0  0  0  0  0  0  0  0  0  0
    6.2809  -11.4829   27.2127 C   0  0  0  0  0  0  0  0  0  0  0  0
    7.5938  -11.2392   26.8788 C   0  0  0  0  0  0  0  0  0  0  0  0
    8.4063  -12.2138   26.3189 C   0  0  0  0  0  0  0  0  0  0  0  0
    7.9010  -13.4670   26.0835 C   0  0  0  0  0  0  0  0  0  0  0  0
    9.8761  -17.2252   25.4870 C   0  0  0  0  0  0  0  0  0  0  0  0
    8.9437  -18.0450   25.5448 O   0  0  0  0  0  0  0  0  0  0  0  0
   10.8606  -17.2725   26.4626 O   0  0  0  0  0  0  0  0  0  0  0  0
  2  3  2  0
  2  1  1  0
  4  2  1  0
  5  6  1  1
  5  4  1  0
  5  7  1  0
  7  8  2  0
  7 11  1  0
 10  9  1  1
 11 10  1  0
 12 10  1  0
 12 14  1  0
 13 12  2  0
 15 14  1  0
 15 26  1  0
 15 16  1  1
 17 16  1  0
 17 18  2  0
 19 18  1  0
 20 25  2  0
 20 19  1  0
 21 20  1  0
 22 23  1  0
 22 21  2  0
 23 24  2  0
 24 25  1  0
 25 17  1  0
 26 28  1  0
 27 26  2  0
M  END
$$$$
