NAW.pdb
     RDKit          3D

 28 29  0  0  1  0  0  0  0  0999 V2000
    7.9085  -12.8156   17.8668 N   0  0  0  0  0  0  0  0  0  0  0  0
    7.8466  -14.1190   17.3288 C   0  0  0  0  0  0  0  0  0  0  0  0
    7.0129  -14.3668   16.4310 O   0  0  0  0  0  0  0  0  0  0  0  0
    8.7448  -15.1872   17.8057 C   0  0  0  0  0  0  0  0  0  0  0  0
    8.2808  -15.7902   19.1222 C   0  0  2  0  0  0  0  0  0  0  0  0
    7.9134  -14.7611   20.0699 N   0  0  0  0  0  0  0  0  0  0  0  0
    9.4584  -16.5539   19.6479 C   0  0  0  0  0  0  0  0  0  0  0  0
    9.9947  -17.4148   18.9175 O   0  0  0  0  0  0  0  0  0  0  0  0
   12.3186  -16.7282   20.6459 C   0  0  0  0  0  0  0  0  0  0  0  0
   11.1083  -17.0438   21.4986 C   0  0  2  0  0  0  0  0  0  0  0  0
    9.9849  -16.3378   20.9383 N   0  0  0  0  0  0  0  0  0  0  0  0
   11.3433  -16.6720   22.9225 C   0  0  0  0  0  0  0  0  0  0  0  0
   12.2171  -15.7995   23.1526 O   0  0  0  0  0  0  0  0  0  0  0  0
   10.6455  -17.2418   23.9920 N   0  0  0  0  0  0  0  0  0  0  0  0
    9.7114  -16.5525   24.8400 C   0  0  1  0  0  0  0  0  0  0  0  0
    8.5847  -15.9252   24.0430 C   0  0  0  0  0  0  0  0  0  0  0  0
    7.6589  -15.1754   24.9302 C   0  0  0  0  0  0  0  0  0  0  0  0
    6.5997  -15.7516   25.6190 C   0  0  0  0  0  0  0  0  0  0  0  0
    5.9721  -14.7863   26.3226 N   0  0  0  0  0  0  0  0  0  0  0  0
    6.5715  -13.5984   26.1278 C   0  0  0  0  0  0  0  0  0  0  0  0
    6.3497  -12.3133   26.5911 C   0  0  0  0  0  0  0  0  0  0  0  0
    7.1399  -11.2578   26.2198 C   0  0  0  0  0  0  0  0  0  0  0  0
    8.1797  -11.5191   25.3567 C   0  0  0  0  0  0  0  0  0  0  0  0
    8.4336  -12.7932   24.8710 C   0  0  0  0  0  0  0  0  0  0  0  0
    7.6321  -13.8385   25.2533 C   0  0  0  0  0  0  0  0  0  0  0  0
    9.1427  -17.4228   25.8908 C   0  0  0  0  0  0  0  0  0  0  0  0
    8.7636  -18.5875   25.6799 O   0  0  0  0  0  0  0  0  0  0  0  0
    9.0277  -16.9113   27.1747 O   0  0  0  0  0  0  0  0  0  0  0  0
  2  3  2  0
  2  1  1  0
  4  2  1  0
  5  6  1  1
  5  4  1  0
  5  7  1  0
  7  8  2  0
  7 11  1  0
 10  9  1  6
 11 10  1  0
 12 10  1  0
 12 14  1  0
 13 12  2  0
 15 14  1  0
 15 26  1  0
 15 16  1  6
 17 16  1  0
 17 18  2  0
 19 18  1  0
 20 25  2  0
 20 19  1  0
 21 20  1  0
 22 23  1  0
 22 21  2  0
 23 24  2  0
 24 25  1  0
 25 17  1  0
 26 28  1  0
 27 26  2  0
M  END
$$$$
