NAW.pdb
     RDKit          3D

 28 29  0  0  1  0  0  0  0  0999 V2000
   10.4294  -20.6755   18.1383 N   0  0  0  0  0  0  0  0  0  0  0  0
    9.9473  -19.6831   17.2581 C   0  0  0  0  0  0  0  0  0  0  0  0
   10.2883  -19.7193   16.0561 O   0  0  0  0  0  0  0  0  0  0  0  0
    9.0525  -18.6103   17.7308 C   0  0  0  0  0  0  0  0  0  0  0  0
    8.8066  -18.6786   19.2299 C   0  0  2  0  0  0  0  0  0  0  0  0
    7.4714  -19.1523   19.5213 N   0  0  0  0  0  0  0  0  0  0  0  0
    8.9543  -17.2709   19.7228 C   0  0  0  0  0  0  0  0  0  0  0  0
   10.0122  -16.6526   19.4761 O   0  0  0  0  0  0  0  0  0  0  0  0
    6.6705  -14.8613   21.4485 C   0  0  0  0  0  0  0  0  0  0  0  0
    8.0548  -15.2935   21.0143 C   0  0  2  0  0  0  0  0  0  0  0  0
    7.9428  -16.6164   20.4561 N   0  0  0  0  0  0  0  0  0  0  0  0
    9.0127  -15.2517   22.1552 C   0  0  0  0  0  0  0  0  0  0  0  0
    9.8880  -14.3510   22.1388 O   0  0  0  0  0  0  0  0  0  0  0  0
    8.9783  -16.1547   23.2224 N   0  0  0  0  0  0  0  0  0  0  0  0
    9.8829  -16.1599   24.3397 C   0  0  1  0  0  0  0  0  0  0  0  0
    9.7854  -14.8814   25.1487 C   0  0  0  0  0  0  0  0  0  0  0  0
    8.3964  -14.6582   25.6253 C   0  0  0  0  0  0  0  0  0  0  0  0
    7.4455  -15.6615   25.7570 C   0  0  0  0  0  0  0  0  0  0  0  0
    6.3011  -15.1086   26.2102 N   0  0  0  0  0  0  0  0  0  0  0  0
    6.4560  -13.7840   26.3831 C   0  0  0  0  0  0  0  0  0  0  0  0
    5.6315  -12.7600   26.8153 C   0  0  0  0  0  0  0  0  0  0  0  0
    6.0623  -11.4623   26.8976 C   0  0  0  0  0  0  0  0  0  0  0  0
    7.3635  -11.2036   26.5309 C   0  0  0  0  0  0  0  0  0  0  0  0
    8.2198  -12.2028   26.0928 C   0  0  0  0  0  0  0  0  0  0  0  0
    7.7714  -13.4968   26.0166 C   0  0  0  0  0  0  0  0  0  0  0  0
    9.6827  -17.3209   25.2325 C   0  0  0  0  0  0  0  0  0  0  0  0
    8.7447  -18.1261   25.1037 O   0  0  0  0  0  0  0  0  0  0  0  0
   10.5881  -17.5187   26.2641 O   0  0  0  0  0  0  0  0  0  0  0  0
  2  3  2  0
  2  1  1  0
  4  2  1  0
  5  6  1  6
  5  4  1  0
  5  7  1  0
  7  8  2  0
  7 11  1  0
 10  9  1  1
 11 10  1  0
 12 10  1  0
 12 14  1  0
 13 12  2  0
 15 14  1  0
 15 26  1  0
 15 16  1  1
 17 16  1  0
 17 18  2  0
 19 18  1  0
 20 25  2  0
 20 19  1  0
 21 20  1  0
 22 23  1  0
 22 21  2  0
 23 24  2  0
 24 25  1  0
 25 17  1  0
 26 28  1  0
 27 26  2  0
M  END
$$$$
