LWI.pdb
     RDKit          3D

 31 32  0  0  1  0  0  0  0  0999 V2000
    7.9101  -12.4619   18.8510 C   0  0  0  0  0  0  0  0  0  0  0  0
    8.2555  -13.8536   19.2786 C   0  0  1  0  0  0  0  0  0  0  0  0
    8.4124  -14.7272   18.0563 C   0  0  0  0  0  0  0  0  0  0  0  0
    9.4437  -13.9182   20.1901 C   0  0  0  0  0  0  0  0  0  0  0  0
    9.6600  -15.2772   20.8027 C   0  0  2  0  0  0  0  0  0  0  0  0
    8.6449  -16.2214   20.4568 N   0  0  0  0  0  0  0  0  0  0  0  0
    9.6534  -15.0907   22.2773 C   0  0  0  0  0  0  0  0  0  0  0  0
   10.4031  -14.2127   22.7963 O   0  0  0  0  0  0  0  0  0  0  0  0
    8.8259  -15.8731   23.1261 N   0  0  0  0  0  0  0  0  0  0  0  0
    8.7526  -15.5742   24.5786 C   0  0  1  0  0  0  0  0  0  0  0  0
    7.4269  -16.0997   25.0251 C   0  0  0  0  0  0  0  0  0  0  0  0
    6.4003  -15.0852   25.3153 C   0  0  0  0  0  0  0  0  0  0  0  0
    5.0374  -15.2482   25.3699 C   0  0  0  0  0  0  0  0  0  0  0  0
    4.4606  -14.0737   25.6405 N   0  0  0  0  0  0  0  0  0  0  0  0
    5.4144  -13.1196   25.7695 C   0  0  0  0  0  0  0  0  0  0  0  0
    5.3502  -11.7651   26.0434 C   0  0  0  0  0  0  0  0  0  0  0  0
    6.4936  -11.0190   26.1189 C   0  0  0  0  0  0  0  0  0  0  0  0
    7.7150  -11.6404   25.9171 C   0  0  0  0  0  0  0  0  0  0  0  0
    7.7865  -12.9763   25.6465 C   0  0  0  0  0  0  0  0  0  0  0  0
    6.6346  -13.7574   25.5646 C   0  0  0  0  0  0  0  0  0  0  0  0
    9.8844  -16.2750   25.2202 C   0  0  0  0  0  0  0  0  0  0  0  0
   10.8169  -16.7655   24.4831 O   0  0  0  0  0  0  0  0  0  0  0  0
   10.9055  -14.3352   29.9866 C   0  0  0  0  0  0  0  0  0  0  0  0
   11.1512  -14.8814   28.6234 C   0  0  0  0  0  0  0  0  0  0  0  0
   11.4665  -16.3192   28.5162 C   0  0  2  0  0  0  0  0  0  0  0  0
   12.7149  -16.7599   29.2501 C   0  0  0  0  0  0  0  0  0  0  0  0
   11.3077  -16.9747   27.1691 C   0  0  2  0  0  0  0  0  0  0  0  0
   10.0475  -16.4597   26.6193 N   0  0  0  0  0  0  0  0  0  0  0  0
   11.4040  -18.4282   27.1526 C   0  0  0  0  0  0  0  0  0  0  0  0
   12.5230  -19.0079   27.1886 O   0  0  0  0  0  0  0  0  0  0  0  0
   10.2844  -19.2503   27.0975 O   0  0  0  0  0  0  0  0  0  0  0  0
  2  1  1  6
  2  3  1  0
  4  2  1  0
  5  4  1  0
  5  6  1  1
  7  8  2  0
  7  5  1  0
  9  7  1  0
 10 21  1  0
 10  9  1  0
 10 11  1  1
 12 11  1  0
 13 12  2  0
 14 13  1  0
 15 14  1  0
 15 20  2  0
 16 15  1  0
 17 16  2  0
 17 18  1  0
 18 19  2  0
 19 20  1  0
 20 12  1  0
 21 28  1  0
 22 21  2  0
 23 24  1  0
 24 25  1  0
 25 26  1  6
 25 27  1  0
 27 28  1  1
 27 29  1  0
 29 30  2  0
 29 31  1  0
M  END
$$$$
