LWI.pdb
     RDKit          3D

 31 32  0  0  1  0  0  0  0  0999 V2000
    7.1619  -12.1339   19.1046 C   0  0  0  0  0  0  0  0  0  0  0  0
    7.3840  -13.5801   19.4178 C   0  0  1  0  0  0  0  0  0  0  0  0
    7.7496  -14.3153   18.1499 C   0  0  0  0  0  0  0  0  0  0  0  0
    8.3739  -13.8047   20.5206 C   0  0  0  0  0  0  0  0  0  0  0  0
    8.5972  -15.2591   20.8430 C   0  0  2  0  0  0  0  0  0  0  0  0
    7.3837  -15.9872   21.0403 N   0  0  0  0  0  0  0  0  0  0  0  0
    9.3889  -15.3047   22.1001 C   0  0  0  0  0  0  0  0  0  0  0  0
   10.4494  -14.6198   22.1923 O   0  0  0  0  0  0  0  0  0  0  0  0
    8.9883  -16.0989   23.2075 N   0  0  0  0  0  0  0  0  0  0  0  0
    9.7393  -16.0288   24.4865 C   0  0  1  0  0  0  0  0  0  0  0  0
    8.7368  -16.3329   25.5520 C   0  0  0  0  0  0  0  0  0  0  0  0
    7.5925  -15.4106   25.6371 C   0  0  0  0  0  0  0  0  0  0  0  0
    6.2720  -15.6686   25.3600 C   0  0  0  0  0  0  0  0  0  0  0  0
    5.5553  -14.5553   25.5399 N   0  0  0  0  0  0  0  0  0  0  0  0
    6.3727  -13.5490   25.9345 C   0  0  0  0  0  0  0  0  0  0  0  0
    6.1376  -12.2221   26.2471 C   0  0  0  0  0  0  0  0  0  0  0  0
    7.1680  -11.4067   26.6252 C   0  0  0  0  0  0  0  0  0  0  0  0
    8.4489  -11.9299   26.6900 C   0  0  0  0  0  0  0  0  0  0  0  0
    8.6889  -13.2381   26.3832 C   0  0  0  0  0  0  0  0  0  0  0  0
    7.6545  -14.0885   25.9953 C   0  0  0  0  0  0  0  0  0  0  0  0
   10.8118  -17.0427   24.4123 C   0  0  0  0  0  0  0  0  0  0  0  0
   10.5632  -18.1791   23.8641 O   0  0  0  0  0  0  0  0  0  0  0  0
   15.5995  -15.8703   22.8003 C   0  0  0  0  0  0  0  0  0  0  0  0
   14.3307  -16.5291   23.2165 C   0  0  0  0  0  0  0  0  0  0  0  0
   14.3852  -17.4259   24.3874 C   0  0  2  0  0  0  0  0  0  0  0  0
   15.5110  -18.4377   24.3702 C   0  0  0  0  0  0  0  0  0  0  0  0
   13.0866  -17.9919   24.8999 C   0  0  2  0  0  0  0  0  0  0  0  0
   12.1350  -16.8738   24.9006 N   0  0  0  0  0  0  0  0  0  0  0  0
   13.1582  -18.7018   26.1700 C   0  0  0  0  0  0  0  0  0  0  0  0
   13.5745  -19.8903   26.2301 O   0  0  0  0  0  0  0  0  0  0  0  0
   12.7779  -18.1194   27.3736 O   0  0  0  0  0  0  0  0  0  0  0  0
  2  1  1  6
  2  3  1  0
  4  2  1  0
  5  4  1  0
  5  6  1  1
  7  8  2  0
  7  5  1  0
  9  7  1  0
 10 21  1  0
 10  9  1  0
 10 11  1  1
 12 11  1  0
 13 12  2  0
 14 13  1  0
 15 14  1  0
 15 20  2  0
 16 15  1  0
 17 16  2  0
 17 18  1  0
 18 19  2  0
 19 20  1  0
 20 12  1  0
 21 28  1  0
 22 21  2  0
 23 24  1  0
 24 25  1  0
 25 26  1  6
 25 27  1  0
 27 28  1  1
 27 29  1  0
 29 30  2  0
 29 31  1  0
M  END
$$$$
