LWI.pdb
     RDKit          3D

 31 32  0  0  1  0  0  0  0  0999 V2000
    8.0560  -12.5210   18.7726 C   0  0  0  0  0  0  0  0  0  0  0  0
    8.2374  -13.7890   19.5461 C   0  0  1  0  0  0  0  0  0  0  0  0
    7.1780  -14.7827   19.1317 C   0  0  0  0  0  0  0  0  0  0  0  0
    9.6238  -14.3506   19.4510 C   0  0  0  0  0  0  0  0  0  0  0  0
    9.8195  -15.6114   20.2515 C   0  0  2  0  0  0  0  0  0  0  0  0
    8.8603  -16.6268   19.9505 N   0  0  0  0  0  0  0  0  0  0  0  0
    9.6828  -15.2377   21.6836 C   0  0  0  0  0  0  0  0  0  0  0  0
   10.2774  -14.2076   22.1168 O   0  0  0  0  0  0  0  0  0  0  0  0
    8.9002  -16.0067   22.5856 N   0  0  0  0  0  0  0  0  0  0  0  0
    8.6123  -15.4930   23.9486 C   0  0  1  0  0  0  0  0  0  0  0  0
    7.3037  -16.1031   24.3338 C   0  0  0  0  0  0  0  0  0  0  0  0
    6.3811  -15.2260   25.0734 C   0  0  0  0  0  0  0  0  0  0  0  0
    5.1051  -15.5034   25.5002 C   0  0  0  0  0  0  0  0  0  0  0  0
    4.5997  -14.4300   26.1147 N   0  0  0  0  0  0  0  0  0  0  0  0
    5.5159  -13.4314   26.1091 C   0  0  0  0  0  0  0  0  0  0  0  0
    5.4937  -12.1400   26.6046 C   0  0  0  0  0  0  0  0  0  0  0  0
    6.5810  -11.3238   26.4592 C   0  0  0  0  0  0  0  0  0  0  0  0
    7.7032  -11.8101   25.8089 C   0  0  0  0  0  0  0  0  0  0  0  0
    7.7328  -13.0832   25.3173 C   0  0  0  0  0  0  0  0  0  0  0  0
    6.6365  -13.9336   25.4536 C   0  0  0  0  0  0  0  0  0  0  0  0
    9.7213  -15.9360   24.8190 C   0  0  0  0  0  0  0  0  0  0  0  0
   10.5106  -16.8631   24.4057 O   0  0  0  0  0  0  0  0  0  0  0  0
   12.1292  -14.7611   30.4725 C   0  0  0  0  0  0  0  0  0  0  0  0
   12.1133  -15.5649   29.2193 C   0  0  0  0  0  0  0  0  0  0  0  0
   11.1736  -15.1494   28.1597 C   0  0  2  0  0  0  0  0  0  0  0  0
    9.8826  -14.5310   28.6518 C   0  0  0  0  0  0  0  0  0  0  0  0
   10.9784  -16.0785   26.9900 C   0  0  2  0  0  0  0  0  0  0  0  0
   10.0101  -15.4144   26.1084 N   0  0  0  0  0  0  0  0  0  0  0  0
   10.6247  -17.4526   27.3199 C   0  0  0  0  0  0  0  0  0  0  0  0
    9.4199  -17.8072   27.4303 O   0  0  0  0  0  0  0  0  0  0  0  0
   11.5803  -18.4402   27.5288 O   0  0  0  0  0  0  0  0  0  0  0  0
  2  1  1  6
  2  3  1  0
  4  2  1  0
  5  4  1  0
  5  6  1  6
  7  8  2  0
  7  5  1  0
  9  7  1  0
 10 21  1  0
 10  9  1  0
 10 11  1  1
 12 11  1  0
 13 12  2  0
 14 13  1  0
 15 14  1  0
 15 20  2  0
 16 15  1  0
 17 16  2  0
 17 18  1  0
 18 19  2  0
 19 20  1  0
 20 12  1  0
 21 28  1  0
 22 21  2  0
 23 24  1  0
 24 25  1  0
 25 26  1  1
 25 27  1  0
 27 28  1  6
 27 29  1  0
 29 30  2  0
 29 31  1  0
M  END
$$$$
