LWI.pdb
     RDKit          3D

 31 32  0  0  1  0  0  0  0  0999 V2000
    8.2595  -12.5316   18.4220 C   0  0  0  0  0  0  0  0  0  0  0  0
    8.5274  -13.9106   18.9374 C   0  0  1  0  0  0  0  0  0  0  0  0
    8.6109  -14.8709   17.7745 C   0  0  0  0  0  0  0  0  0  0  0  0
    9.7246  -13.9875   19.8361 C   0  0  0  0  0  0  0  0  0  0  0  0
    9.9094  -15.3369   20.4795 C   0  0  2  0  0  0  0  0  0  0  0  0
    8.9290  -16.2947   20.0757 N   0  0  0  0  0  0  0  0  0  0  0  0
    9.7984  -15.1327   21.9475 C   0  0  0  0  0  0  0  0  0  0  0  0
   10.5312  -14.2687   22.5123 O   0  0  0  0  0  0  0  0  0  0  0  0
    8.8891  -15.8828   22.7400 N   0  0  0  0  0  0  0  0  0  0  0  0
    8.6741  -15.5286   24.1658 C   0  0  1  0  0  0  0  0  0  0  0  0
    7.2944  -16.0029   24.4885 C   0  0  0  0  0  0  0  0  0  0  0  0
    6.3955  -15.0008   25.0845 C   0  0  0  0  0  0  0  0  0  0  0  0
    5.0691  -15.1397   25.4141 C   0  0  0  0  0  0  0  0  0  0  0  0
    4.6121  -13.9861   25.9098 N   0  0  0  0  0  0  0  0  0  0  0  0
    5.6107  -13.0699   25.9198 C   0  0  0  0  0  0  0  0  0  0  0  0
    5.6625  -11.7484   26.3256 C   0  0  0  0  0  0  0  0  0  0  0  0
    6.8263  -11.0379   26.2237 C   0  0  0  0  0  0  0  0  0  0  0  0
    7.9506  -11.6617   25.7084 C   0  0  0  0  0  0  0  0  0  0  0  0
    7.9074  -12.9653   25.3059 C   0  0  0  0  0  0  0  0  0  0  0  0
    6.7325  -13.7097   25.4002 C   0  0  0  0  0  0  0  0  0  0  0  0
    9.7121  -16.2341   24.9460 C   0  0  0  0  0  0  0  0  0  0  0  0
   10.6118  -16.9107   24.3246 O   0  0  0  0  0  0  0  0  0  0  0  0
   10.6808  -13.5908   29.3106 C   0  0  0  0  0  0  0  0  0  0  0  0
   11.0436  -14.3771   28.0994 C   0  0  0  0  0  0  0  0  0  0  0  0
   11.1891  -15.8372   28.2579 C   0  0  2  0  0  0  0  0  0  0  0  0
   12.3251  -16.2761   29.1569 C   0  0  0  0  0  0  0  0  0  0  0  0
   11.0395  -16.6957   27.0290 C   0  0  2  0  0  0  0  0  0  0  0  0
    9.8162  -16.2315   26.3628 N   0  0  0  0  0  0  0  0  0  0  0  0
   11.0773  -18.1352   27.2489 C   0  0  0  0  0  0  0  0  0  0  0  0
   12.1704  -18.7409   27.4152 O   0  0  0  0  0  0  0  0  0  0  0  0
    9.9273  -18.9151   27.2886 O   0  0  0  0  0  0  0  0  0  0  0  0
  2  1  1  6
  2  3  1  0
  4  2  1  0
  5  4  1  0
  5  6  1  6
  7  8  2  0
  7  5  1  0
  9  7  1  0
 10 21  1  0
 10  9  1  0
 10 11  1  1
 12 11  1  0
 13 12  2  0
 14 13  1  0
 15 14  1  0
 15 20  2  0
 16 15  1  0
 17 16  2  0
 17 18  1  0
 18 19  2  0
 19 20  1  0
 20 12  1  0
 21 28  1  0
 22 21  2  0
 23 24  1  0
 24 25  1  0
 25 26  1  6
 25 27  1  0
 27 28  1  1
 27 29  1  0
 29 30  2  0
 29 31  1  0
M  END
$$$$
