LWI.pdb
     RDKit          3D

 31 32  0  0  1  0  0  0  0  0999 V2000
    7.1664  -13.9181   19.4758 C   0  0  0  0  0  0  0  0  0  0  0  0
    8.2069  -14.3305   18.4827 C   0  0  1  0  0  0  0  0  0  0  0  0
    8.1182  -13.4384   17.2669 C   0  0  0  0  0  0  0  0  0  0  0  0
    9.5898  -14.3855   19.0580 C   0  0  0  0  0  0  0  0  0  0  0  0
    9.8627  -15.6356   19.8527 C   0  0  2  0  0  0  0  0  0  0  0  0
    8.8882  -16.6602   19.6469 N   0  0  0  0  0  0  0  0  0  0  0  0
    9.8475  -15.2460   21.2870 C   0  0  0  0  0  0  0  0  0  0  0  0
   10.6618  -14.3703   21.7020 O   0  0  0  0  0  0  0  0  0  0  0  0
    8.9410  -15.8307   22.2110 N   0  0  0  0  0  0  0  0  0  0  0  0
    8.7869  -15.2551   23.5709 C   0  0  1  0  0  0  0  0  0  0  0  0
    7.5291  -15.8519   24.1138 C   0  0  0  0  0  0  0  0  0  0  0  0
    6.8459  -15.0679   25.1560 C   0  0  0  0  0  0  0  0  0  0  0  0
    5.8939  -15.4928   26.0505 C   0  0  0  0  0  0  0  0  0  0  0  0
    5.5116  -14.4645   26.8134 N   0  0  0  0  0  0  0  0  0  0  0  0
    6.1919  -13.3511   26.4470 C   0  0  0  0  0  0  0  0  0  0  0  0
    6.1698  -12.0478   26.9101 C   0  0  0  0  0  0  0  0  0  0  0  0
    6.9786  -11.0994   26.3480 C   0  0  0  0  0  0  0  0  0  0  0  0
    7.8190  -11.4642   25.3091 C   0  0  0  0  0  0  0  0  0  0  0  0
    7.8466  -12.7481   24.8466 C   0  0  0  0  0  0  0  0  0  0  0  0
    7.0312  -13.7321   25.4039 C   0  0  0  0  0  0  0  0  0  0  0  0
    9.9816  -15.6524   24.3446 C   0  0  0  0  0  0  0  0  0  0  0  0
   11.0278  -14.9054   24.3100 O   0  0  0  0  0  0  0  0  0  0  0  0
   11.2080  -13.6901   28.5878 C   0  0  0  0  0  0  0  0  0  0  0  0
   11.5751  -14.6947   27.5520 C   0  0  0  0  0  0  0  0  0  0  0  0
   10.5575  -15.7021   27.1942 C   0  0  2  0  0  0  0  0  0  0  0  0
    9.6464  -16.1255   28.3265 C   0  0  0  0  0  0  0  0  0  0  0  0
   10.9827  -16.8486   26.3145 C   0  0  2  0  0  0  0  0  0  0  0  0
   10.0856  -16.8161   25.1527 N   0  0  0  0  0  0  0  0  0  0  0  0
   11.0594  -18.1524   26.9598 C   0  0  0  0  0  0  0  0  0  0  0  0
   10.0963  -18.9641   26.9062 O   0  0  0  0  0  0  0  0  0  0  0  0
   12.1829  -18.5732   27.6621 O   0  0  0  0  0  0  0  0  0  0  0  0
  2  1  1  1
  2  3  1  0
  4  2  1  0
  5  4  1  0
  5  6  1  1
  7  8  2  0
  7  5  1  0
  9  7  1  0
 10 21  1  0
 10  9  1  0
 10 11  1  1
 12 11  1  0
 13 12  2  0
 14 13  1  0
 15 14  1  0
 15 20  2  0
 16 15  1  0
 17 16  2  0
 17 18  1  0
 18 19  2  0
 19 20  1  0
 20 12  1  0
 21 28  1  0
 22 21  2  0
 23 24  1  0
 24 25  1  0
 25 26  1  1
 25 27  1  0
 27 28  1  6
 27 29  1  0
 29 30  2  0
 29 31  1  0
M  END
$$$$
