LWI.pdb
     RDKit          3D

 31 32  0  0  1  0  0  0  0  0999 V2000
    6.7327  -12.3380   19.1885 C   0  0  0  0  0  0  0  0  0  0  0  0
    7.2404  -13.7300   19.3973 C   0  0  1  0  0  0  0  0  0  0  0  0
    7.9456  -14.1974   18.1460 C   0  0  0  0  0  0  0  0  0  0  0  0
    8.0871  -13.8764   20.6254 C   0  0  0  0  0  0  0  0  0  0  0  0
    8.5565  -15.2868   20.8691 C   0  0  2  0  0  0  0  0  0  0  0  0
    7.4865  -16.2264   20.9868 N   0  0  0  0  0  0  0  0  0  0  0  0
    9.3192  -15.2723   22.1448 C   0  0  0  0  0  0  0  0  0  0  0  0
   10.2713  -14.4511   22.2907 O   0  0  0  0  0  0  0  0  0  0  0  0
    9.0093  -16.1579   23.2112 N   0  0  0  0  0  0  0  0  0  0  0  0
    9.7682  -16.0859   24.4853 C   0  0  1  0  0  0  0  0  0  0  0  0
    8.7811  -16.4256   25.5544 C   0  0  0  0  0  0  0  0  0  0  0  0
    7.6428  -15.5022   25.6921 C   0  0  0  0  0  0  0  0  0  0  0  0
    6.3141  -15.7503   25.4466 C   0  0  0  0  0  0  0  0  0  0  0  0
    5.6065  -14.6394   25.6713 N   0  0  0  0  0  0  0  0  0  0  0  0
    6.4381  -13.6443   26.0650 C   0  0  0  0  0  0  0  0  0  0  0  0
    6.2163  -12.3240   26.4133 C   0  0  0  0  0  0  0  0  0  0  0  0
    7.2597  -11.5201   26.7803 C   0  0  0  0  0  0  0  0  0  0  0  0
    8.5401  -12.0482   26.7974 C   0  0  0  0  0  0  0  0  0  0  0  0
    8.7670  -13.3499   26.4550 C   0  0  0  0  0  0  0  0  0  0  0  0
    7.7192  -14.1885   26.0776 C   0  0  0  0  0  0  0  0  0  0  0  0
   10.8628  -17.0742   24.3910 C   0  0  0  0  0  0  0  0  0  0  0  0
   10.6328  -18.2139   23.8418 O   0  0  0  0  0  0  0  0  0  0  0  0
   15.5646  -15.7789   22.6974 C   0  0  0  0  0  0  0  0  0  0  0  0
   14.3241  -16.4731   23.1406 C   0  0  0  0  0  0  0  0  0  0  0  0
   14.4350  -17.3898   24.2919 C   0  0  2  0  0  0  0  0  0  0  0  0
   15.5657  -18.3928   24.2083 C   0  0  0  0  0  0  0  0  0  0  0  0
   13.1635  -17.9742   24.8497 C   0  0  2  0  0  0  0  0  0  0  0  0
   12.1890  -16.8761   24.8602 N   0  0  0  0  0  0  0  0  0  0  0  0
   13.2856  -18.6621   26.1280 C   0  0  0  0  0  0  0  0  0  0  0  0
   13.9016  -19.7580   26.2225 O   0  0  0  0  0  0  0  0  0  0  0  0
   12.7388  -18.1582   27.3025 O   0  0  0  0  0  0  0  0  0  0  0  0
  2  1  1  6
  2  3  1  0
  4  2  1  0
  5  4  1  0
  5  6  1  1
  7  8  2  0
  7  5  1  0
  9  7  1  0
 10 21  1  0
 10  9  1  0
 10 11  1  1
 12 11  1  0
 13 12  2  0
 14 13  1  0
 15 14  1  0
 15 20  2  0
 16 15  1  0
 17 16  2  0
 17 18  1  0
 18 19  2  0
 19 20  1  0
 20 12  1  0
 21 28  1  0
 22 21  2  0
 23 24  1  0
 24 25  1  0
 25 26  1  6
 25 27  1  0
 27 28  1  1
 27 29  1  0
 29 30  2  0
 29 31  1  0
M  END
$$$$
