LWI.pdb
     RDKit          3D

 31 32  0  0  1  0  0  0  0  0999 V2000
    7.6483  -13.1957   17.5845 C   0  0  0  0  0  0  0  0  0  0  0  0
    8.1839  -14.4398   18.2206 C   0  0  1  0  0  0  0  0  0  0  0  0
    8.6146  -15.4061   17.1425 C   0  0  0  0  0  0  0  0  0  0  0  0
    9.2650  -14.1764   19.2247 C   0  0  0  0  0  0  0  0  0  0  0  0
    9.6806  -15.4005   19.9978 C   0  0  2  0  0  0  0  0  0  0  0  0
    8.8667  -16.5433   19.7274 N   0  0  0  0  0  0  0  0  0  0  0  0
    9.5594  -15.0607   21.4397 C   0  0  0  0  0  0  0  0  0  0  0  0
   10.0481  -13.9735   21.8656 O   0  0  0  0  0  0  0  0  0  0  0  0
    8.9075  -15.9251   22.3592 N   0  0  0  0  0  0  0  0  0  0  0  0
    8.6207  -15.4646   23.7413 C   0  0  1  0  0  0  0  0  0  0  0  0
    7.2824  -16.0364   24.0800 C   0  0  0  0  0  0  0  0  0  0  0  0
    6.4822  -15.2656   25.0460 C   0  0  0  0  0  0  0  0  0  0  0  0
    5.3294  -15.6465   25.6887 C   0  0  0  0  0  0  0  0  0  0  0  0
    4.9040  -14.6467   26.4664 N   0  0  0  0  0  0  0  0  0  0  0  0
    5.7530  -13.5959   26.3583 C   0  0  0  0  0  0  0  0  0  0  0  0
    5.7672  -12.3421   26.9427 C   0  0  0  0  0  0  0  0  0  0  0  0
    6.7649  -11.4537   26.6514 C   0  0  0  0  0  0  0  0  0  0  0  0
    7.7595  -11.8288   25.7633 C   0  0  0  0  0  0  0  0  0  0  0  0
    7.7524  -13.0641   25.1826 C   0  0  0  0  0  0  0  0  0  0  0  0
    6.7457  -13.9866   25.4642 C   0  0  0  0  0  0  0  0  0  0  0  0
    9.6973  -15.9944   24.6039 C   0  0  0  0  0  0  0  0  0  0  0  0
   10.4380  -16.9501   24.1663 O   0  0  0  0  0  0  0  0  0  0  0  0
   10.2831  -14.6063   30.2166 C   0  0  0  0  0  0  0  0  0  0  0  0
   10.0930  -15.4031   28.9733 C   0  0  0  0  0  0  0  0  0  0  0  0
   11.1736  -15.3598   27.9688 C   0  0  2  0  0  0  0  0  0  0  0  0
   11.7302  -13.9816   27.6826 C   0  0  0  0  0  0  0  0  0  0  0  0
   11.0170  -16.2051   26.7317 C   0  0  2  0  0  0  0  0  0  0  0  0
   10.0044  -15.5296   25.9107 N   0  0  0  0  0  0  0  0  0  0  0  0
   10.7429  -17.6181   26.9560 C   0  0  0  0  0  0  0  0  0  0  0  0
   11.6458  -18.4022   27.3551 O   0  0  0  0  0  0  0  0  0  0  0  0
    9.4877  -18.1777   26.7469 O   0  0  0  0  0  0  0  0  0  0  0  0
  2  1  1  6
  2  3  1  0
  4  2  1  0
  5  4  1  0
  5  6  1  6
  7  8  2  0
  7  5  1  0
  9  7  1  0
 10 21  1  0
 10  9  1  0
 10 11  1  1
 12 11  1  0
 13 12  2  0
 14 13  1  0
 15 14  1  0
 15 20  2  0
 16 15  1  0
 17 16  2  0
 17 18  1  0
 18 19  2  0
 19 20  1  0
 20 12  1  0
 21 28  1  0
 22 21  2  0
 23 24  1  0
 24 25  1  0
 25 26  1  6
 25 27  1  0
 27 28  1  6
 27 29  1  0
 29 30  2  0
 29 31  1  0
M  END
$$$$
