LWI.pdb
     RDKit          3D

 31 32  0  0  1  0  0  0  0  0999 V2000
    7.4550  -13.2587   17.8186 C   0  0  0  0  0  0  0  0  0  0  0  0
    8.2066  -14.4179   18.3933 C   0  0  1  0  0  0  0  0  0  0  0  0
    9.3674  -14.7583   17.4886 C   0  0  0  0  0  0  0  0  0  0  0  0
    8.6269  -14.2077   19.8166 C   0  0  0  0  0  0  0  0  0  0  0  0
    9.3670  -15.3798   20.4058 C   0  0  2  0  0  0  0  0  0  0  0  0
    8.6894  -16.6248   20.2254 N   0  0  0  0  0  0  0  0  0  0  0  0
    9.4994  -15.1171   21.8627 C   0  0  0  0  0  0  0  0  0  0  0  0
   10.1057  -14.0773   22.2545 O   0  0  0  0  0  0  0  0  0  0  0  0
    8.9625  -16.0036   22.8341 N   0  0  0  0  0  0  0  0  0  0  0  0
    8.6953  -15.5252   24.2140 C   0  0  1  0  0  0  0  0  0  0  0  0
    7.4049  -16.1648   24.6124 C   0  0  0  0  0  0  0  0  0  0  0  0
    6.3940  -15.2630   25.1888 C   0  0  0  0  0  0  0  0  0  0  0  0
    5.0999  -15.5556   25.5449 C   0  0  0  0  0  0  0  0  0  0  0  0
    4.5069  -14.4516   26.0084 N   0  0  0  0  0  0  0  0  0  0  0  0
    5.3819  -13.4174   25.9706 C   0  0  0  0  0  0  0  0  0  0  0  0
    5.2713  -12.0862   26.3302 C   0  0  0  0  0  0  0  0  0  0  0  0
    6.3347  -11.2390   26.1849 C   0  0  0  0  0  0  0  0  0  0  0  0
    7.5225  -11.7346   25.6726 C   0  0  0  0  0  0  0  0  0  0  0  0
    7.6394  -13.0468   25.3155 C   0  0  0  0  0  0  0  0  0  0  0  0
    6.5690  -13.9292   25.4546 C   0  0  0  0  0  0  0  0  0  0  0  0
    9.8293  -15.9693   25.0510 C   0  0  0  0  0  0  0  0  0  0  0  0
   10.6676  -16.8183   24.5714 O   0  0  0  0  0  0  0  0  0  0  0  0
   12.0435  -15.1762   30.8350 C   0  0  0  0  0  0  0  0  0  0  0  0
   12.1629  -15.8190   29.4972 C   0  0  0  0  0  0  0  0  0  0  0  0
   11.2627  -15.3375   28.4313 C   0  0  2  0  0  0  0  0  0  0  0  0
    9.9586  -14.7388   28.9132 C   0  0  0  0  0  0  0  0  0  0  0  0
   11.1032  -16.1975   27.2047 C   0  0  2  0  0  0  0  0  0  0  0  0
   10.0921  -15.5294   26.3759 N   0  0  0  0  0  0  0  0  0  0  0  0
   10.8253  -17.6069   27.4465 C   0  0  0  0  0  0  0  0  0  0  0  0
    9.6434  -18.0456   27.4589 O   0  0  0  0  0  0  0  0  0  0  0  0
   11.8318  -18.5384   27.6739 O   0  0  0  0  0  0  0  0  0  0  0  0
  2  1  1  6
  2  3  1  0
  4  2  1  0
  5  4  1  0
  5  6  1  1
  7  8  2  0
  7  5  1  0
  9  7  1  0
 10 21  1  0
 10  9  1  0
 10 11  1  1
 12 11  1  0
 13 12  2  0
 14 13  1  0
 15 14  1  0
 15 20  2  0
 16 15  1  0
 17 16  2  0
 17 18  1  0
 18 19  2  0
 19 20  1  0
 20 12  1  0
 21 28  1  0
 22 21  2  0
 23 24  1  0
 24 25  1  0
 25 26  1  1
 25 27  1  0
 27 28  1  6
 27 29  1  0
 29 30  2  0
 29 31  1  0
M  END
$$$$
