LWI.pdb
     RDKit          3D

 31 32  0  0  1  0  0  0  0  0999 V2000
    8.3249  -12.7543   18.3676 C   0  0  0  0  0  0  0  0  0  0  0  0
    8.6227  -14.1097   18.9272 C   0  0  1  0  0  0  0  0  0  0  0  0
    8.0196  -15.1642   18.0294 C   0  0  0  0  0  0  0  0  0  0  0  0
   10.0811  -14.3387   19.1870 C   0  0  0  0  0  0  0  0  0  0  0  0
   10.3656  -15.6065   19.9490 C   0  0  2  0  0  0  0  0  0  0  0  0
    9.5095  -16.6903   19.5830 N   0  0  0  0  0  0  0  0  0  0  0  0
   10.1561  -15.3000   21.3882 C   0  0  0  0  0  0  0  0  0  0  0  0
   10.8949  -14.4427   21.9553 O   0  0  0  0  0  0  0  0  0  0  0  0
    9.1455  -15.9443   22.1504 N   0  0  0  0  0  0  0  0  0  0  0  0
    8.7898  -15.4356   23.4992 C   0  0  1  0  0  0  0  0  0  0  0  0
    7.3415  -15.7584   23.6754 C   0  0  0  0  0  0  0  0  0  0  0  0
    6.6946  -15.1741   24.8618 C   0  0  0  0  0  0  0  0  0  0  0  0
    5.9832  -15.8186   25.8445 C   0  0  0  0  0  0  0  0  0  0  0  0
    5.5419  -14.9229   26.7325 N   0  0  0  0  0  0  0  0  0  0  0  0
    5.9450  -13.6827   26.3637 C   0  0  0  0  0  0  0  0  0  0  0  0
    5.7580  -12.4332   26.9272 C   0  0  0  0  0  0  0  0  0  0  0  0
    6.2862  -11.3201   26.3342 C   0  0  0  0  0  0  0  0  0  0  0  0
    7.0103  -11.4637   25.1621 C   0  0  0  0  0  0  0  0  0  0  0  0
    7.1992  -12.6931   24.6000 C   0  0  0  0  0  0  0  0  0  0  0  0
    6.6703  -13.8421   25.1864 C   0  0  0  0  0  0  0  0  0  0  0  0
    9.6499  -16.1463   24.4682 C   0  0  0  0  0  0  0  0  0  0  0  0
   10.3021  -17.1855   24.0831 O   0  0  0  0  0  0  0  0  0  0  0  0
   10.5572  -14.2781   29.8810 C   0  0  0  0  0  0  0  0  0  0  0  0
   10.1333  -15.1866   28.7802 C   0  0  0  0  0  0  0  0  0  0  0  0
   11.1556  -15.5716   27.7877 C   0  0  2  0  0  0  0  0  0  0  0  0
   12.0316  -14.4396   27.2952 C   0  0  0  0  0  0  0  0  0  0  0  0
   10.7498  -16.5262   26.6952 C   0  0  2  0  0  0  0  0  0  0  0  0
    9.8342  -15.7754   25.8271 N   0  0  0  0  0  0  0  0  0  0  0  0
   10.2202  -17.8100   27.1351 C   0  0  0  0  0  0  0  0  0  0  0  0
   10.9480  -18.6426   27.7405 O   0  0  0  0  0  0  0  0  0  0  0  0
    8.9002  -18.1875   26.9174 O   0  0  0  0  0  0  0  0  0  0  0  0
  2  1  1  6
  2  3  1  0
  4  2  1  0
  5  4  1  0
  5  6  1  6
  7  8  2  0
  7  5  1  0
  9  7  1  0
 10 21  1  0
 10  9  1  0
 10 11  1  1
 12 11  1  0
 13 12  2  0
 14 13  1  0
 15 14  1  0
 15 20  2  0
 16 15  1  0
 17 16  2  0
 17 18  1  0
 18 19  2  0
 19 20  1  0
 20 12  1  0
 21 28  1  0
 22 21  2  0
 23 24  1  0
 24 25  1  0
 25 26  1  6
 25 27  1  0
 27 28  1  1
 27 29  1  0
 29 30  2  0
 29 31  1  0
M  END
$$$$
