LWI.pdb
     RDKit          3D

 31 32  0  0  1  0  0  0  0  0999 V2000
    7.5572  -12.9133   17.9814 C   0  0  0  0  0  0  0  0  0  0  0  0
    8.1778  -14.1834   18.4719 C   0  0  1  0  0  0  0  0  0  0  0  0
    8.9497  -14.8295   17.3457 C   0  0  0  0  0  0  0  0  0  0  0  0
    9.0050  -14.0024   19.7087 C   0  0  0  0  0  0  0  0  0  0  0  0
    9.4800  -15.2987   20.3111 C   0  0  2  0  0  0  0  0  0  0  0  0
    8.6002  -16.3956   20.0577 N   0  0  0  0  0  0  0  0  0  0  0  0
    9.5639  -15.0857   21.7797 C   0  0  0  0  0  0  0  0  0  0  0  0
   10.2730  -14.1394   22.2313 O   0  0  0  0  0  0  0  0  0  0  0  0
    8.8676  -15.9175   22.6967 N   0  0  0  0  0  0  0  0  0  0  0  0
    8.6760  -15.4809   24.1029 C   0  0  1  0  0  0  0  0  0  0  0  0
    7.3418  -16.0192   24.5067 C   0  0  0  0  0  0  0  0  0  0  0  0
    6.4731  -15.0890   25.2467 C   0  0  0  0  0  0  0  0  0  0  0  0
    5.1981  -15.3051   25.7102 C   0  0  0  0  0  0  0  0  0  0  0  0
    4.7508  -14.1984   26.3105 N   0  0  0  0  0  0  0  0  0  0  0  0
    5.7053  -13.2377   26.2591 C   0  0  0  0  0  0  0  0  0  0  0  0
    5.7463  -11.9353   26.7237 C   0  0  0  0  0  0  0  0  0  0  0  0
    6.8611  -11.1669   26.5329 C   0  0  0  0  0  0  0  0  0  0  0  0
    7.9468  -11.7127   25.8681 C   0  0  0  0  0  0  0  0  0  0  0  0
    7.9140  -12.9970   25.4067 C   0  0  0  0  0  0  0  0  0  0  0  0
    6.7886  -13.7994   25.5894 C   0  0  0  0  0  0  0  0  0  0  0  0
    9.7831  -16.0636   24.8894 C   0  0  0  0  0  0  0  0  0  0  0  0
   10.5584  -16.9274   24.3360 O   0  0  0  0  0  0  0  0  0  0  0  0
   11.0897  -14.4524   30.3108 C   0  0  0  0  0  0  0  0  0  0  0  0
   10.6548  -15.3719   29.2234 C   0  0  0  0  0  0  0  0  0  0  0  0
   11.5711  -15.5507   28.0803 C   0  0  2  0  0  0  0  0  0  0  0  0
   12.2332  -14.2836   27.5830 C   0  0  0  0  0  0  0  0  0  0  0  0
   11.1358  -16.4686   26.9678 C   0  0  2  0  0  0  0  0  0  0  0  0
   10.0845  -15.7461   26.2409 N   0  0  0  0  0  0  0  0  0  0  0  0
   10.7526  -17.8162   27.3669 C   0  0  0  0  0  0  0  0  0  0  0  0
    9.5475  -18.1857   27.3421 O   0  0  0  0  0  0  0  0  0  0  0  0
   11.6792  -18.7612   27.7919 O   0  0  0  0  0  0  0  0  0  0  0  0
  2  1  1  6
  2  3  1  0
  4  2  1  0
  5  4  1  0
  5  6  1  1
  7  8  2  0
  7  5  1  0
  9  7  1  0
 10 21  1  0
 10  9  1  0
 10 11  1  1
 12 11  1  0
 13 12  2  0
 14 13  1  0
 15 14  1  0
 15 20  2  0
 16 15  1  0
 17 16  2  0
 17 18  1  0
 18 19  2  0
 19 20  1  0
 20 12  1  0
 21 28  1  0
 22 21  2  0
 23 24  1  0
 24 25  1  0
 25 26  1  6
 25 27  1  0
 27 28  1  1
 27 29  1  0
 29 30  2  0
 29 31  1  0
M  END
$$$$
