LWI.pdb
     RDKit          3D

 31 32  0  0  1  0  0  0  0  0999 V2000
   13.9981  -19.9992   20.5362 C   0  0  0  0  0  0  0  0  0  0  0  0
   12.8760  -19.2568   19.8813 C   0  0  1  0  0  0  0  0  0  0  0  0
   11.7213  -20.2021   19.6470 C   0  0  0  0  0  0  0  0  0  0  0  0
   12.4676  -18.0203   20.6236 C   0  0  0  0  0  0  0  0  0  0  0  0
   11.1593  -17.4400   20.1540 C   0  0  2  0  0  0  0  0  0  0  0  0
   11.2772  -16.6826   18.9482 N   0  0  0  0  0  0  0  0  0  0  0  0
   10.6743  -16.5418   21.2343 C   0  0  0  0  0  0  0  0  0  0  0  0
   11.2071  -15.4032   21.3824 O   0  0  0  0  0  0  0  0  0  0  0  0
    9.6244  -16.9256   22.1106 N   0  0  0  0  0  0  0  0  0  0  0  0
    9.1308  -15.9795   23.1430 C   0  0  1  0  0  0  0  0  0  0  0  0
    7.6621  -16.2353   23.2454 C   0  0  0  0  0  0  0  0  0  0  0  0
    6.9628  -15.5275   24.3305 C   0  0  0  0  0  0  0  0  0  0  0  0
    6.2332  -16.0655   25.3627 C   0  0  0  0  0  0  0  0  0  0  0  0
    5.7422  -15.0799   26.1197 N   0  0  0  0  0  0  0  0  0  0  0  0
    6.1297  -13.8839   25.6136 C   0  0  0  0  0  0  0  0  0  0  0  0
    5.8958  -12.5802   26.0129 C   0  0  0  0  0  0  0  0  0  0  0  0
    6.4186  -11.5345   25.3038 C   0  0  0  0  0  0  0  0  0  0  0  0
    7.1848  -11.8012   24.1811 C   0  0  0  0  0  0  0  0  0  0  0  0
    7.4201  -13.0848   23.7808 C   0  0  0  0  0  0  0  0  0  0  0  0
    6.8977  -14.1669   24.4877 C   0  0  0  0  0  0  0  0  0  0  0  0
    9.8490  -16.2954   24.3953 C   0  0  0  0  0  0  0  0  0  0  0  0
   10.3953  -17.4516   24.5300 O   0  0  0  0  0  0  0  0  0  0  0  0
   10.7657  -13.9882   30.0876 C   0  0  0  0  0  0  0  0  0  0  0  0
   11.3085  -14.8072   28.9689 C   0  0  0  0  0  0  0  0  0  0  0  0
   10.6668  -14.6602   27.6480 C   0  0  2  0  0  0  0  0  0  0  0  0
    9.3496  -13.9143   27.6528 C   0  0  0  0  0  0  0  0  0  0  0  0
   10.6694  -15.8538   26.7289 C   0  0  2  0  0  0  0  0  0  0  0  0
   10.0020  -15.4126   25.4978 N   0  0  0  0  0  0  0  0  0  0  0  0
   10.1235  -17.0856   27.2827 C   0  0  0  0  0  0  0  0  0  0  0  0
   10.7744  -17.7695   28.1181 O   0  0  0  0  0  0  0  0  0  0  0  0
    8.8705  -17.5727   26.9287 O   0  0  0  0  0  0  0  0  0  0  0  0
  2  1  1  1
  2  3  1  0
  4  2  1  0
  5  4  1  0
  5  6  1  6
  7  8  2  0
  7  5  1  0
  9  7  1  0
 10 21  1  0
 10  9  1  0
 10 11  1  1
 12 11  1  0
 13 12  2  0
 14 13  1  0
 15 14  1  0
 15 20  2  0
 16 15  1  0
 17 16  2  0
 17 18  1  0
 18 19  2  0
 19 20  1  0
 20 12  1  0
 21 28  1  0
 22 21  2  0
 23 24  1  0
 24 25  1  0
 25 26  1  1
 25 27  1  0
 27 28  1  6
 27 29  1  0
 29 30  2  0
 29 31  1  0
M  END
$$$$
