LWI.pdb
     RDKit          3D

 31 32  0  0  1  0  0  0  0  0999 V2000
    7.8288  -12.9832   17.8113 C   0  0  0  0  0  0  0  0  0  0  0  0
    8.2332  -14.2847   18.4289 C   0  0  1  0  0  0  0  0  0  0  0  0
    8.7299  -15.2169   17.3491 C   0  0  0  0  0  0  0  0  0  0  0  0
    9.2122  -14.1309   19.5533 C   0  0  0  0  0  0  0  0  0  0  0  0
    9.5317  -15.4246   20.2555 C   0  0  2  0  0  0  0  0  0  0  0  0
    8.5962  -16.4670   19.9731 N   0  0  0  0  0  0  0  0  0  0  0  0
    9.5023  -15.1414   21.7143 C   0  0  0  0  0  0  0  0  0  0  0  0
   10.1526  -14.1555   22.1695 O   0  0  0  0  0  0  0  0  0  0  0  0
    8.7615  -15.9491   22.6179 N   0  0  0  0  0  0  0  0  0  0  0  0
    8.5604  -15.5070   24.0210 C   0  0  1  0  0  0  0  0  0  0  0  0
    7.2508  -16.0938   24.4376 C   0  0  0  0  0  0  0  0  0  0  0  0
    6.3396  -15.1843   25.1517 C   0  0  0  0  0  0  0  0  0  0  0  0
    5.0679  -15.4398   25.6042 C   0  0  0  0  0  0  0  0  0  0  0  0
    4.5730  -14.3406   26.1805 N   0  0  0  0  0  0  0  0  0  0  0  0
    5.4921  -13.3462   26.1239 C   0  0  0  0  0  0  0  0  0  0  0  0
    5.4796  -12.0358   26.5669 C   0  0  0  0  0  0  0  0  0  0  0  0
    6.5676  -11.2299   26.3760 C   0  0  0  0  0  0  0  0  0  0  0  0
    7.6806  -11.7461   25.7330 C   0  0  0  0  0  0  0  0  0  0  0  0
    7.7005  -13.0381   25.2930 C   0  0  0  0  0  0  0  0  0  0  0  0
    6.6033  -13.8785   25.4763 C   0  0  0  0  0  0  0  0  0  0  0  0
    9.6939  -16.0379   24.8064 C   0  0  0  0  0  0  0  0  0  0  0  0
   10.5070  -16.8661   24.2527 O   0  0  0  0  0  0  0  0  0  0  0  0
   10.8444  -14.5736   30.3389 C   0  0  0  0  0  0  0  0  0  0  0  0
   10.5100  -15.3900   29.1394 C   0  0  0  0  0  0  0  0  0  0  0  0
   11.4365  -15.3206   27.9927 C   0  0  2  0  0  0  0  0  0  0  0  0
   11.8408  -13.9224   27.5767 C   0  0  0  0  0  0  0  0  0  0  0  0
   11.1781  -16.2358   26.8243 C   0  0  2  0  0  0  0  0  0  0  0  0
    9.9825  -15.7056   26.1571 N   0  0  0  0  0  0  0  0  0  0  0  0
   11.0951  -17.6568   27.1342 C   0  0  0  0  0  0  0  0  0  0  0  0
   12.1186  -18.3117   27.4702 O   0  0  0  0  0  0  0  0  0  0  0  0
    9.9000  -18.3646   27.0793 O   0  0  0  0  0  0  0  0  0  0  0  0
  2  1  1  6
  2  3  1  0
  4  2  1  0
  5  4  1  0
  5  6  1  1
  7  8  2  0
  7  5  1  0
  9  7  1  0
 10 21  1  0
 10  9  1  0
 10 11  1  1
 12 11  1  0
 13 12  2  0
 14 13  1  0
 15 14  1  0
 15 20  2  0
 16 15  1  0
 17 16  2  0
 17 18  1  0
 18 19  2  0
 19 20  1  0
 20 12  1  0
 21 28  1  0
 22 21  2  0
 23 24  1  0
 24 25  1  0
 25 26  1  6
 25 27  1  0
 27 28  1  1
 27 29  1  0
 29 30  2  0
 29 31  1  0
M  END
$$$$
