LWI.pdb
     RDKit          3D

 31 32  0  0  1  0  0  0  0  0999 V2000
    7.8282  -12.7505   17.4096 C   0  0  0  0  0  0  0  0  0  0  0  0
    8.4959  -13.9591   17.9864 C   0  0  1  0  0  0  0  0  0  0  0  0
    9.7213  -14.2911   17.1679 C   0  0  0  0  0  0  0  0  0  0  0  0
    8.7966  -13.8314   19.4492 C   0  0  0  0  0  0  0  0  0  0  0  0
    9.4226  -15.0647   20.0457 C   0  0  2  0  0  0  0  0  0  0  0  0
    8.6885  -16.2597   19.7728 N   0  0  0  0  0  0  0  0  0  0  0  0
    9.4644  -14.8577   21.5170 C   0  0  0  0  0  0  0  0  0  0  0  0
   10.0811  -13.8571   21.9869 O   0  0  0  0  0  0  0  0  0  0  0  0
    8.8291  -15.7549   22.4165 N   0  0  0  0  0  0  0  0  0  0  0  0
    8.5992  -15.3575   23.8285 C   0  0  1  0  0  0  0  0  0  0  0  0
    7.2803  -15.9547   24.1986 C   0  0  0  0  0  0  0  0  0  0  0  0
    6.3574  -15.0682   24.9264 C   0  0  0  0  0  0  0  0  0  0  0  0
    5.0737  -15.3328   25.3378 C   0  0  0  0  0  0  0  0  0  0  0  0
    4.5713  -14.2541   25.9455 N   0  0  0  0  0  0  0  0  0  0  0  0
    5.4973  -13.2645   25.9506 C   0  0  0  0  0  0  0  0  0  0  0  0
    5.4817  -11.9727   26.4451 C   0  0  0  0  0  0  0  0  0  0  0  0
    6.5786  -11.1672   26.3126 C   0  0  0  0  0  0  0  0  0  0  0  0
    7.7038  -11.6649   25.6763 C   0  0  0  0  0  0  0  0  0  0  0  0
    7.7269  -12.9385   25.1857 C   0  0  0  0  0  0  0  0  0  0  0  0
    6.6208  -13.7781   25.3090 C   0  0  0  0  0  0  0  0  0  0  0  0
    9.7153  -15.9156   24.6201 C   0  0  0  0  0  0  0  0  0  0  0  0
   10.5371  -16.7293   24.0580 O   0  0  0  0  0  0  0  0  0  0  0  0
   11.1337  -13.4509   29.3294 C   0  0  0  0  0  0  0  0  0  0  0  0
   11.1655  -14.1527   28.0166 C   0  0  0  0  0  0  0  0  0  0  0  0
   11.1705  -15.6285   28.0371 C   0  0  2  0  0  0  0  0  0  0  0  0
   12.2063  -16.2551   28.9459 C   0  0  0  0  0  0  0  0  0  0  0  0
   11.0198  -16.3499   26.7232 C   0  0  2  0  0  0  0  0  0  0  0  0
    9.9775  -15.6251   25.9857 N   0  0  0  0  0  0  0  0  0  0  0  0
   10.7877  -17.7856   26.8076 C   0  0  0  0  0  0  0  0  0  0  0  0
    9.6250  -18.2506   26.9536 O   0  0  0  0  0  0  0  0  0  0  0  0
   11.8191  -18.7146   26.7326 O   0  0  0  0  0  0  0  0  0  0  0  0
  2  1  1  6
  2  3  1  0
  4  2  1  0
  5  4  1  0
  5  6  1  1
  7  8  2  0
  7  5  1  0
  9  7  1  0
 10 21  1  0
 10  9  1  0
 10 11  1  1
 12 11  1  0
 13 12  2  0
 14 13  1  0
 15 14  1  0
 15 20  2  0
 16 15  1  0
 17 16  2  0
 17 18  1  0
 18 19  2  0
 19 20  1  0
 20 12  1  0
 21 28  1  0
 22 21  2  0
 23 24  1  0
 24 25  1  0
 25 26  1  6
 25 27  1  0
 27 28  1  1
 27 29  1  0
 29 30  2  0
 29 31  1  0
M  END
$$$$
