LWI.pdb
     RDKit          3D

 31 32  0  0  1  0  0  0  0  0999 V2000
    7.6606  -13.1589   17.5821 C   0  0  0  0  0  0  0  0  0  0  0  0
    8.3471  -14.3327   18.2066 C   0  0  1  0  0  0  0  0  0  0  0  0
    9.4733  -14.7883   17.3090 C   0  0  0  0  0  0  0  0  0  0  0  0
    8.7974  -14.0791   19.6135 C   0  0  0  0  0  0  0  0  0  0  0  0
    9.3944  -15.2894   20.2826 C   0  0  2  0  0  0  0  0  0  0  0  0
    8.6497  -16.4871   20.0533 N   0  0  0  0  0  0  0  0  0  0  0  0
    9.4093  -15.0108   21.7425 C   0  0  0  0  0  0  0  0  0  0  0  0
   10.0048  -13.9801   22.1728 O   0  0  0  0  0  0  0  0  0  0  0  0
    8.7712  -15.8721   22.6745 N   0  0  0  0  0  0  0  0  0  0  0  0
    8.5423  -15.4220   24.0708 C   0  0  1  0  0  0  0  0  0  0  0  0
    7.2562  -16.0591   24.4868 C   0  0  0  0  0  0  0  0  0  0  0  0
    6.3063  -15.1832   25.1925 C   0  0  0  0  0  0  0  0  0  0  0  0
    5.0200  -15.4661   25.5829 C   0  0  0  0  0  0  0  0  0  0  0  0
    4.4896  -14.3920   26.1747 N   0  0  0  0  0  0  0  0  0  0  0  0
    5.3993  -13.3875   26.1898 C   0  0  0  0  0  0  0  0  0  0  0  0
    5.3541  -12.0931   26.6756 C   0  0  0  0  0  0  0  0  0  0  0  0
    6.4401  -11.2707   26.5573 C   0  0  0  0  0  0  0  0  0  0  0  0
    7.5842  -11.7540   25.9441 C   0  0  0  0  0  0  0  0  0  0  0  0
    7.6366  -13.0301   25.4622 C   0  0  0  0  0  0  0  0  0  0  0  0
    6.5421  -13.8867   25.5714 C   0  0  0  0  0  0  0  0  0  0  0  0
    9.6922  -15.8944   24.8696 C   0  0  0  0  0  0  0  0  0  0  0  0
   10.5880  -16.6257   24.3072 O   0  0  0  0  0  0  0  0  0  0  0  0
   12.2667  -15.0466   30.4732 C   0  0  0  0  0  0  0  0  0  0  0  0
   12.2386  -15.7851   29.1806 C   0  0  0  0  0  0  0  0  0  0  0  0
   11.2914  -15.3140   28.1515 C   0  0  2  0  0  0  0  0  0  0  0  0
   10.0397  -14.6509   28.6853 C   0  0  0  0  0  0  0  0  0  0  0  0
   11.0290  -16.2149   26.9730 C   0  0  2  0  0  0  0  0  0  0  0  0
    9.9113  -15.6038   26.2428 N   0  0  0  0  0  0  0  0  0  0  0  0
   10.8274  -17.6244   27.2810 C   0  0  0  0  0  0  0  0  0  0  0  0
   11.7933  -18.3642   27.6113 O   0  0  0  0  0  0  0  0  0  0  0  0
    9.5764  -18.2285   27.2303 O   0  0  0  0  0  0  0  0  0  0  0  0
  2  1  1  6
  2  3  1  0
  4  2  1  0
  5  4  1  0
  5  6  1  1
  7  8  2  0
  7  5  1  0
  9  7  1  0
 10 21  1  0
 10  9  1  0
 10 11  1  1
 12 11  1  0
 13 12  2  0
 14 13  1  0
 15 14  1  0
 15 20  2  0
 16 15  1  0
 17 16  2  0
 17 18  1  0
 18 19  2  0
 19 20  1  0
 20 12  1  0
 21 28  1  0
 22 21  2  0
 23 24  1  0
 24 25  1  0
 25 26  1  1
 25 27  1  0
 27 28  1  1
 27 29  1  0
 29 30  2  0
 29 31  1  0
M  END
$$$$
