LWI.pdb
     RDKit          3D

 31 32  0  0  1  0  0  0  0  0999 V2000
    7.7241  -12.4354   19.0759 C   0  0  0  0  0  0  0  0  0  0  0  0
    7.9836  -13.8170   19.5885 C   0  0  1  0  0  0  0  0  0  0  0  0
    7.6534  -14.8205   18.5089 C   0  0  0  0  0  0  0  0  0  0  0  0
    9.3656  -13.9971   20.1401 C   0  0  0  0  0  0  0  0  0  0  0  0
    9.5918  -15.3462   20.7706 C   0  0  2  0  0  0  0  0  0  0  0  0
    8.5967  -16.3090   20.4180 N   0  0  0  0  0  0  0  0  0  0  0  0
    9.5579  -15.1445   22.2428 C   0  0  0  0  0  0  0  0  0  0  0  0
   10.1874  -14.1714   22.7518 O   0  0  0  0  0  0  0  0  0  0  0  0
    8.8358  -16.0166   23.1005 N   0  0  0  0  0  0  0  0  0  0  0  0
    8.7165  -15.7093   24.5482 C   0  0  1  0  0  0  0  0  0  0  0  0
    7.3740  -16.2252   24.9537 C   0  0  0  0  0  0  0  0  0  0  0  0
    6.3669  -15.2025   25.2810 C   0  0  0  0  0  0  0  0  0  0  0  0
    4.9985  -15.3219   25.2611 C   0  0  0  0  0  0  0  0  0  0  0  0
    4.4463  -14.1540   25.6024 N   0  0  0  0  0  0  0  0  0  0  0  0
    5.4221  -13.2473   25.8525 C   0  0  0  0  0  0  0  0  0  0  0  0
    5.3872  -11.9183   26.2346 C   0  0  0  0  0  0  0  0  0  0  0  0
    6.5483  -11.2211   26.4227 C   0  0  0  0  0  0  0  0  0  0  0  0
    7.7580  -11.8661   26.2247 C   0  0  0  0  0  0  0  0  0  0  0  0
    7.8007  -13.1773   25.8476 C   0  0  0  0  0  0  0  0  0  0  0  0
    6.6302  -13.9084   25.6499 C   0  0  0  0  0  0  0  0  0  0  0  0
    9.8228  -16.4127   25.2303 C   0  0  0  0  0  0  0  0  0  0  0  0
   10.7259  -16.9946   24.5236 O   0  0  0  0  0  0  0  0  0  0  0  0
   10.8962  -14.1836   29.9372 C   0  0  0  0  0  0  0  0  0  0  0  0
   11.0060  -14.8126   28.5921 C   0  0  0  0  0  0  0  0  0  0  0  0
   11.3852  -16.2380   28.5394 C   0  0  2  0  0  0  0  0  0  0  0  0
   12.6460  -16.5962   29.2967 C   0  0  0  0  0  0  0  0  0  0  0  0
   11.2658  -16.9484   27.2164 C   0  0  2  0  0  0  0  0  0  0  0  0
    9.9910  -16.5058   26.6378 N   0  0  0  0  0  0  0  0  0  0  0  0
   11.4211  -18.3963   27.2543 C   0  0  0  0  0  0  0  0  0  0  0  0
   10.4262  -19.1550   27.4091 O   0  0  0  0  0  0  0  0  0  0  0  0
   12.6573  -19.0185   27.1233 O   0  0  0  0  0  0  0  0  0  0  0  0
  2  1  1  6
  2  3  1  0
  4  2  1  0
  5  4  1  0
  5  6  1  6
  7  8  2  0
  7  5  1  0
  9  7  1  0
 10 21  1  0
 10  9  1  0
 10 11  1  1
 12 11  1  0
 13 12  2  0
 14 13  1  0
 15 14  1  0
 15 20  2  0
 16 15  1  0
 17 16  2  0
 17 18  1  0
 18 19  2  0
 19 20  1  0
 20 12  1  0
 21 28  1  0
 22 21  2  0
 23 24  1  0
 24 25  1  0
 25 26  1  6
 25 27  1  0
 27 28  1  1
 27 29  1  0
 29 30  2  0
 29 31  1  0
M  END
$$$$
