LWI.pdb
     RDKit          3D

 31 32  0  0  1  0  0  0  0  0999 V2000
    7.5439  -12.9356   17.8191 C   0  0  0  0  0  0  0  0  0  0  0  0
    8.2200  -14.1602   18.3504 C   0  0  1  0  0  0  0  0  0  0  0  0
    9.1807  -14.6904   17.3122 C   0  0  0  0  0  0  0  0  0  0  0  0
    8.8707  -13.9492   19.6840 C   0  0  0  0  0  0  0  0  0  0  0  0
    9.4778  -15.2002   20.2631 C   0  0  2  0  0  0  0  0  0  0  0  0
    8.7093  -16.3757   19.9997 N   0  0  0  0  0  0  0  0  0  0  0  0
    9.5533  -15.0011   21.7340 C   0  0  0  0  0  0  0  0  0  0  0  0
   10.1578  -13.9886   22.1942 O   0  0  0  0  0  0  0  0  0  0  0  0
    8.9639  -15.9188   22.6439 N   0  0  0  0  0  0  0  0  0  0  0  0
    8.7220  -15.5205   24.0537 C   0  0  1  0  0  0  0  0  0  0  0  0
    7.3948  -16.1076   24.4094 C   0  0  0  0  0  0  0  0  0  0  0  0
    6.4617  -15.2067   25.1059 C   0  0  0  0  0  0  0  0  0  0  0  0
    5.1632  -15.4538   25.4799 C   0  0  0  0  0  0  0  0  0  0  0  0
    4.6563  -14.3663   26.0680 N   0  0  0  0  0  0  0  0  0  0  0  0
    5.5939  -13.3881   26.0967 C   0  0  0  0  0  0  0  0  0  0  0  0
    5.5796  -12.0940   26.5852 C   0  0  0  0  0  0  0  0  0  0  0  0
    6.6899  -11.3026   26.4821 C   0  0  0  0  0  0  0  0  0  0  0  0
    7.8272  -11.8169   25.8816 C   0  0  0  0  0  0  0  0  0  0  0  0
    7.8492  -13.0928   25.3971 C   0  0  0  0  0  0  0  0  0  0  0  0
    6.7295  -13.9182   25.4909 C   0  0  0  0  0  0  0  0  0  0  0  0
    9.8253  -16.0875   24.8568 C   0  0  0  0  0  0  0  0  0  0  0  0
   10.6387  -16.9177   24.3066 O   0  0  0  0  0  0  0  0  0  0  0  0
   11.0005  -14.5192   30.3323 C   0  0  0  0  0  0  0  0  0  0  0  0
   10.6251  -15.4330   29.2183 C   0  0  0  0  0  0  0  0  0  0  0  0
   11.5475  -15.5151   28.0690 C   0  0  2  0  0  0  0  0  0  0  0  0
   12.1019  -14.1891   27.5939 C   0  0  0  0  0  0  0  0  0  0  0  0
   11.1831  -16.4444   26.9407 C   0  0  2  0  0  0  0  0  0  0  0  0
   10.0836  -15.7891   26.2214 N   0  0  0  0  0  0  0  0  0  0  0  0
   10.8985  -17.8226   27.3171 C   0  0  0  0  0  0  0  0  0  0  0  0
    9.7225  -18.2762   27.2903 O   0  0  0  0  0  0  0  0  0  0  0  0
   11.8919  -18.7068   27.7215 O   0  0  0  0  0  0  0  0  0  0  0  0
  2  1  1  6
  2  3  1  0
  4  2  1  0
  5  4  1  0
  5  6  1  1
  7  8  2  0
  7  5  1  0
  9  7  1  0
 10 21  1  0
 10  9  1  0
 10 11  1  1
 12 11  1  0
 13 12  2  0
 14 13  1  0
 15 14  1  0
 15 20  2  0
 16 15  1  0
 17 16  2  0
 17 18  1  0
 18 19  2  0
 19 20  1  0
 20 12  1  0
 21 28  1  0
 22 21  2  0
 23 24  1  0
 24 25  1  0
 25 26  1  6
 25 27  1  0
 27 28  1  1
 27 29  1  0
 29 30  2  0
 29 31  1  0
M  END
$$$$
