TRM.pdb
     RDKit          3D

 27 26  0  0  1  0  0  0  0  0999 V2000
    5.9208  -20.9394   26.1765 C   0  0  0  0  0  0  0  0  0  0  0  0
    6.6738  -19.7319   25.6309 C   0  0  1  0  0  0  0  0  0  0  0  0
    7.9099  -19.7135   26.2487 O   0  0  0  0  0  0  0  0  0  0  0  0
    6.7598  -19.8860   24.1397 C   0  0  2  0  0  0  0  0  0  0  0  0
    7.4222  -21.1470   23.8629 N   0  0  0  0  0  0  0  0  0  0  0  0
    7.5076  -18.8246   23.4695 C   0  0  0  0  0  0  0  0  0  0  0  0
    8.7472  -18.8220   23.4342 O   0  0  0  0  0  0  0  0  0  0  0  0
    9.7843  -14.2369   18.6058 N   0  0  0  0  0  0  0  0  0  0  0  0
    8.6859  -13.4089   18.2871 C   0  0  0  0  0  0  0  0  0  0  0  0
    8.8737  -12.2143   17.8569 N   0  0  0  0  0  0  0  0  0  0  0  0
    7.3542  -13.8730   18.4331 N   0  0  0  0  0  0  0  0  0  0  0  0
    6.7908  -13.8977   19.7463 C   0  0  0  0  0  0  0  0  0  0  0  0
    7.6663  -14.6053   20.7618 C   0  0  0  0  0  0  0  0  0  0  0  0
    6.8423  -15.7761   21.2775 C   0  0  0  0  0  0  0  0  0  0  0  0
    7.5687  -16.5894   22.3007 C   0  0  2  0  0  0  0  0  0  0  0  0
    6.8757  -17.7144   22.8072 N   0  0  0  0  0  0  0  0  0  0  0  0
    8.1174  -15.6871   23.3432 C   0  0  0  0  0  0  0  0  0  0  0  0
    7.9873  -14.4531   23.1692 O   0  0  0  0  0  0  0  0  0  0  0  0
    8.0703  -11.6095   17.6462 C   0  0  0  0  0  0  0  0  0  0  0  0
    6.8030  -11.0096   26.2541 S   0  0  0  0  0  0  0  0  0  0  0  0
    6.9062  -12.3621   27.4518 C   0  0  0  0  0  0  0  0  0  0  0  0
    8.3437  -13.4255   27.0706 C   0  0  0  0  0  0  0  0  0  0  0  0
    7.9585  -14.4082   26.0038 C   0  0  1  0  0  0  0  0  0  0  0  0
    9.1750  -15.1516   25.5030 N   0  0  0  0  0  0  0  0  0  0  0  0
    8.7763  -16.1142   24.5176 C   0  0  0  0  0  0  0  0  0  0  0  0
    9.9393  -15.7631   26.6213 O   0  0  0  0  0  0  0  0  0  0  0  0
   10.0755  -16.9977   26.7956 O   0  0  0  0  0  0  0  0  0  0  0  0
  2  1  1  1
  3  2  1  0
  4  5  1  1
  4  2  1  0
  6  4  1  0
  7  6  2  0
  8  9  1  0
  9 10  2  0
  9 11  1  0
 11 12  1  0
 13 14  1  0
 13 12  1  0
 15 14  1  6
 15 16  1  0
 16  6  1  0
 17 18  2  0
 17 15  1  0
 19 20  1  0
 20 21  1  0
 22 21  1  0
 23 22  1  6
 23 24  1  0
 24 17  1  0
 25 27  1  0
 25 23  1  0
 26 25  2  0
M  END
$$$$
