TRM.pdb
     RDKit          3D

 27 26  0  0  1  0  0  0  0  0999 V2000
    7.6422  -14.0626   20.9615 C   0  0  0  0  0  0  0  0  0  0  0  0
    6.4670  -14.8273   21.5588 C   0  0  1  0  0  0  0  0  0  0  0  0
    5.3425  -14.4643   20.8422 O   0  0  0  0  0  0  0  0  0  0  0  0
    6.7825  -16.2923   21.4627 C   0  0  2  0  0  0  0  0  0  0  0  0
    5.5652  -17.0268   21.7532 N   0  0  0  0  0  0  0  0  0  0  0  0
    7.8170  -16.7447   22.3902 C   0  0  0  0  0  0  0  0  0  0  0  0
    7.5400  -17.1546   23.5272 O   0  0  0  0  0  0  0  0  0  0  0  0
   13.7255  -20.8515   23.6984 N   0  0  0  0  0  0  0  0  0  0  0  0
   14.8494  -20.0237   23.9111 C   0  0  0  0  0  0  0  0  0  0  0  0
   15.8277  -20.4271   24.6374 N   0  0  0  0  0  0  0  0  0  0  0  0
   14.9263  -18.7324   23.3306 N   0  0  0  0  0  0  0  0  0  0  0  0
   13.8351  -18.2943   22.5183 C   0  0  0  0  0  0  0  0  0  0  0  0
   12.5486  -18.0980   23.2963 C   0  0  0  0  0  0  0  0  0  0  0  0
   11.5752  -17.4378   22.3308 C   0  0  0  0  0  0  0  0  0  0  0  0
   10.2410  -17.1660   22.9492 C   0  0  2  0  0  0  0  0  0  0  0  0
    9.2184  -16.7507   22.0636 N   0  0  0  0  0  0  0  0  0  0  0  0
   10.4200  -16.2896   24.1331 C   0  0  0  0  0  0  0  0  0  0  0  0
   11.2196  -15.3306   24.0293 O   0  0  0  0  0  0  0  0  0  0  0  0
   16.6508  -19.8275   24.7737 C   0  0  0  0  0  0  0  0  0  0  0  0
    6.6894  -11.5870   25.1826 S   0  0  0  0  0  0  0  0  0  0  0  0
    7.1056  -12.8457   26.4142 C   0  0  0  0  0  0  0  0  0  0  0  0
    8.5581  -13.8070   25.8585 C   0  0  0  0  0  0  0  0  0  0  0  0
    8.9136  -14.8136   26.9133 C   0  0  2  0  0  0  0  0  0  0  0  0
   10.1123  -15.6285   26.4865 N   0  0  0  0  0  0  0  0  0  0  0  0
    9.7570  -16.4548   25.3697 C   0  0  0  0  0  0  0  0  0  0  0  0
   10.6717  -16.4107   27.6196 O   0  0  0  0  0  0  0  0  0  0  0  0
   10.7166  -17.6634   27.6629 O   0  0  0  0  0  0  0  0  0  0  0  0
  2  1  1  6
  3  2  1  0
  4  5  1  1
  4  2  1  0
  6  4  1  0
  7  6  2  0
  8  9  1  0
  9 10  2  0
  9 11  1  0
 11 12  1  0
 13 14  1  0
 13 12  1  0
 15 14  1  6
 15 16  1  0
 16  6  1  0
 17 18  2  0
 17 15  1  0
 19 20  1  0
 20 21  1  0
 22 21  1  0
 23 22  1  6
 23 24  1  0
 24 17  1  0
 25 27  1  0
 25 23  1  0
 26 25  2  0
M  END
$$$$
