TRM.pdb
     RDKit          3D

 27 26  0  0  1  0  0  0  0  0999 V2000
   -1.0544  -22.7282   23.4909 C   0  0  0  0  0  0  0  0  0  0  0  0
   -1.7667  -23.2484   22.2481 C   0  0  1  0  0  0  0  0  0  0  0  0
   -0.9818  -22.9116   21.1616 O   0  0  0  0  0  0  0  0  0  0  0  0
   -1.9442  -24.7304   22.4132 C   0  0  2  0  0  0  0  0  0  0  0  0
   -2.5293  -25.2448   21.1891 N   0  0  0  0  0  0  0  0  0  0  0  0
   -2.8130  -25.1098   23.5251 C   0  0  0  0  0  0  0  0  0  0  0  0
   -4.0222  -24.8352   23.5314 O   0  0  0  0  0  0  0  0  0  0  0  0
   -2.9756  -26.8089   31.3226 N   0  0  0  0  0  0  0  0  0  0  0  0
   -3.6364  -28.0471   31.1680 C   0  0  0  0  0  0  0  0  0  0  0  0
   -4.3341  -28.5375   32.1272 N   0  0  0  0  0  0  0  0  0  0  0  0
   -3.5470  -28.7768   29.9557 N   0  0  0  0  0  0  0  0  0  0  0  0
   -2.7271  -28.2479   28.9113 C   0  0  0  0  0  0  0  0  0  0  0  0
   -3.4458  -27.2397   28.0363 C   0  0  0  0  0  0  0  0  0  0  0  0
   -2.5128  -26.9646   26.8661 C   0  0  0  0  0  0  0  0  0  0  0  0
   -3.1184  -26.0568   25.8437 C   0  0  2  0  0  0  0  0  0  0  0  0
   -2.3425  -25.8212   24.6839 N   0  0  0  0  0  0  0  0  0  0  0  0
   -3.6109  -24.8269   26.5120 C   0  0  0  0  0  0  0  0  0  0  0  0
   -2.7564  -24.0403   26.9819 O   0  0  0  0  0  0  0  0  0  0  0  0
   -4.7557  -29.4698   32.0342 C   0  0  0  0  0  0  0  0  0  0  0  0
   -4.0131  -18.9245   25.3876 S   0  0  0  0  0  0  0  0  0  0  0  0
   -5.7093  -19.5230   25.5855 C   0  0  0  0  0  0  0  0  0  0  0  0
   -5.7645  -20.8337   26.8589 C   0  0  0  0  0  0  0  0  0  0  0  0
   -5.3337  -22.1335   26.2448 C   0  0  1  0  0  0  0  0  0  0  0  0
   -5.3247  -23.2329   27.2814 N   0  0  0  0  0  0  0  0  0  0  0  0
   -4.9714  -24.4755   26.6591 C   0  0  0  0  0  0  0  0  0  0  0  0
   -6.6182  -23.3070   28.0093 O   0  0  0  0  0  0  0  0  0  0  0  0
   -7.0622  -22.4056   28.7601 O   0  0  0  0  0  0  0  0  0  0  0  0
  2  1  1  1
  3  2  1  0
  4  5  1  6
  4  2  1  0
  6  4  1  0
  7  6  2  0
  8  9  1  0
  9 10  2  0
  9 11  1  0
 11 12  1  0
 13 14  1  0
 13 12  1  0
 15 14  1  1
 15 16  1  0
 16  6  1  0
 17 18  2  0
 17 15  1  0
 19 20  1  0
 20 21  1  0
 22 21  1  0
 23 22  1  1
 23 24  1  0
 24 17  1  0
 25 27  1  0
 25 23  1  0
 26 25  2  0
M  END
$$$$
