TRM.pdb
     RDKit          3D

 27 26  0  0  1  0  0  0  0  0999 V2000
   10.4394  -13.3996   20.1899 C   0  0  0  0  0  0  0  0  0  0  0  0
    9.2089  -12.7902   19.5287 C   0  0  1  0  0  0  0  0  0  0  0  0
    9.6480  -12.1041   18.4123 O   0  0  0  0  0  0  0  0  0  0  0  0
    8.2668  -13.9127   19.2008 C   0  0  2  0  0  0  0  0  0  0  0  0
    7.1334  -13.3465   18.4934 N   0  0  0  0  0  0  0  0  0  0  0  0
    7.7598  -14.6302   20.3684 C   0  0  0  0  0  0  0  0  0  0  0  0
    6.8798  -14.1497   21.0980 O   0  0  0  0  0  0  0  0  0  0  0  0
    8.0657  -22.9965   20.8123 N   0  0  0  0  0  0  0  0  0  0  0  0
    7.1652  -22.4017   19.9018 C   0  0  0  0  0  0  0  0  0  0  0  0
    6.4983  -23.1256   19.0781 N   0  0  0  0  0  0  0  0  0  0  0  0
    6.9751  -20.9970   19.8742 N   0  0  0  0  0  0  0  0  0  0  0  0
    7.6075  -20.2128   20.8879 C   0  0  0  0  0  0  0  0  0  0  0  0
    7.2853  -18.7344   20.7914 C   0  0  0  0  0  0  0  0  0  0  0  0
    8.0006  -18.0755   21.9619 C   0  0  0  0  0  0  0  0  0  0  0  0
    7.8660  -16.5862   21.9585 C   0  0  2  0  0  0  0  0  0  0  0  0
    8.2337  -15.9314   20.7592 N   0  0  0  0  0  0  0  0  0  0  0  0
    8.5049  -16.0346   23.1789 C   0  0  0  0  0  0  0  0  0  0  0  0
    9.6944  -15.6512   23.0881 O   0  0  0  0  0  0  0  0  0  0  0  0
    5.8399  -22.6875   18.4222 C   0  0  0  0  0  0  0  0  0  0  0  0
    6.4296  -10.9132   25.9514 S   0  0  0  0  0  0  0  0  0  0  0  0
    6.9502  -11.8454   27.4124 C   0  0  0  0  0  0  0  0  0  0  0  0
    8.1422  -13.1456   26.9316 C   0  0  0  0  0  0  0  0  0  0  0  0
    7.5174  -14.0223   25.8860 C   0  0  2  0  0  0  0  0  0  0  0  0
    8.4775  -15.1093   25.4622 N   0  0  0  0  0  0  0  0  0  0  0  0
    7.8736  -15.9091   24.4365 C   0  0  0  0  0  0  0  0  0  0  0  0
    8.9322  -15.9185   26.6228 O   0  0  0  0  0  0  0  0  0  0  0  0
    8.6478  -17.1272   26.7997 O   0  0  0  0  0  0  0  0  0  0  0  0
  2  1  1  6
  3  2  1  0
  4  5  1  1
  4  2  1  0
  6  4  1  0
  7  6  2  0
  8  9  1  0
  9 10  2  0
  9 11  1  0
 11 12  1  0
 13 14  1  0
 13 12  1  0
 15 14  1  6
 15 16  1  0
 16  6  1  0
 17 18  2  0
 17 15  1  0
 19 20  1  0
 20 21  1  0
 22 21  1  0
 23 22  1  6
 23 24  1  0
 24 17  1  0
 25 27  1  0
 25 23  1  0
 26 25  2  0
M  END
$$$$
