TRM.pdb
     RDKit          3D

 27 26  0  0  1  0  0  0  0  0999 V2000
    5.8734  -22.3746   25.1806 C   0  0  0  0  0  0  0  0  0  0  0  0
    6.6188  -21.0566   25.0077 C   0  0  1  0  0  0  0  0  0  0  0  0
    7.8578  -21.2122   25.5996 O   0  0  0  0  0  0  0  0  0  0  0  0
    6.6980  -20.7693   23.5359 C   0  0  2  0  0  0  0  0  0  0  0  0
    7.3649  -21.8911   22.9017 N   0  0  0  0  0  0  0  0  0  0  0  0
    7.4374  -19.5543   23.2012 C   0  0  0  0  0  0  0  0  0  0  0  0
    8.6498  -19.5788   22.9420 O   0  0  0  0  0  0  0  0  0  0  0  0
    8.2349  -13.7736   18.1771 N   0  0  0  0  0  0  0  0  0  0  0  0
    8.5256  -12.8349   19.1911 C   0  0  0  0  0  0  0  0  0  0  0  0
    8.8902  -11.6418   18.8894 N   0  0  0  0  0  0  0  0  0  0  0  0
    8.4225  -13.1839   20.5614 N   0  0  0  0  0  0  0  0  0  0  0  0
    7.6613  -14.3439   20.9045 C   0  0  0  0  0  0  0  0  0  0  0  0
    7.6031  -14.6037   22.3970 C   0  0  0  0  0  0  0  0  0  0  0  0
    6.7505  -15.8524   22.5690 C   0  0  0  0  0  0  0  0  0  0  0  0
    7.5460  -17.0412   23.0050 C   0  0  2  0  0  0  0  0  0  0  0  0
    6.8276  -18.2521   23.1465 N   0  0  0  0  0  0  0  0  0  0  0  0
    8.3672  -16.6741   24.1851 C   0  0  0  0  0  0  0  0  0  0  0  0
    7.9230  -16.9756   25.3173 O   0  0  0  0  0  0  0  0  0  0  0  0
    9.0542  -10.9495   19.6306 C   0  0  0  0  0  0  0  0  0  0  0  0
    9.8212  -13.6960   30.3714 S   0  0  0  0  0  0  0  0  0  0  0  0
    8.9544  -14.1046   28.8365 C   0  0  0  0  0  0  0  0  0  0  0  0
   10.1183  -14.8546   27.6425 C   0  0  0  0  0  0  0  0  0  0  0  0
    9.3974  -15.1172   26.3528 C   0  0  1  0  0  0  0  0  0  0  0  0
   10.3316  -15.7367   25.3394 N   0  0  0  0  0  0  0  0  0  0  0  0
    9.6128  -16.0097   24.1291 C   0  0  0  0  0  0  0  0  0  0  0  0
   11.0073  -16.9422   25.8859 O   0  0  0  0  0  0  0  0  0  0  0  0
   11.6740  -16.9613   26.9482 O   0  0  0  0  0  0  0  0  0  0  0  0
  2  1  1  6
  3  2  1  0
  4  5  1  6
  4  2  1  0
  6  4  1  0
  7  6  2  0
  8  9  1  0
  9 10  2  0
  9 11  1  0
 11 12  1  0
 13 14  1  0
 13 12  1  0
 15 14  1  1
 15 16  1  0
 16  6  1  0
 17 18  2  0
 17 15  1  0
 19 20  1  0
 20 21  1  0
 22 21  1  0
 23 22  1  6
 23 24  1  0
 24 17  1  0
 25 27  1  0
 25 23  1  0
 26 25  2  0
M  END
$$$$
