TRM.pdb
     RDKit          3D

 27 26  0  0  1  0  0  0  0  0999 V2000
   10.8784  -13.6764   19.9210 C   0  0  0  0  0  0  0  0  0  0  0  0
    9.7438  -12.8513   19.3255 C   0  0  1  0  0  0  0  0  0  0  0  0
   10.2712  -12.1501   18.2578 O   0  0  0  0  0  0  0  0  0  0  0  0
    8.6515  -13.8018   18.9276 C   0  0  2  0  0  0  0  0  0  0  0  0
    7.5988  -13.0270   18.2974 N   0  0  0  0  0  0  0  0  0  0  0  0
    8.0644  -14.5410   20.0429 C   0  0  0  0  0  0  0  0  0  0  0  0
    7.2386  -14.0208   20.8078 O   0  0  0  0  0  0  0  0  0  0  0  0
   11.6865  -19.7431   19.7855 N   0  0  0  0  0  0  0  0  0  0  0  0
   11.7783  -20.5116   20.9665 C   0  0  0  0  0  0  0  0  0  0  0  0
   12.9008  -21.0175   21.3290 N   0  0  0  0  0  0  0  0  0  0  0  0
   10.6391  -20.7429   21.7782 N   0  0  0  0  0  0  0  0  0  0  0  0
    9.4158  -20.0964   21.4203 C   0  0  0  0  0  0  0  0  0  0  0  0
    9.4377  -18.5987   21.6544 C   0  0  0  0  0  0  0  0  0  0  0  0
    8.0198  -18.1151   21.3869 C   0  0  0  0  0  0  0  0  0  0  0  0
    7.8936  -16.6265   21.4527 C   0  0  2  0  0  0  0  0  0  0  0  0
    8.3924  -15.9105   20.3387 N   0  0  0  0  0  0  0  0  0  0  0  0
    8.3992  -16.1502   22.7639 C   0  0  0  0  0  0  0  0  0  0  0  0
    9.5805  -15.7355   22.8142 O   0  0  0  0  0  0  0  0  0  0  0  0
   12.9599  -21.5812   22.1860 C   0  0  0  0  0  0  0  0  0  0  0  0
    7.6534  -10.7074   27.2267 S   0  0  0  0  0  0  0  0  0  0  0  0
    7.2445  -11.9108   25.9388 C   0  0  0  0  0  0  0  0  0  0  0  0
    7.1686  -13.5911   26.6554 C   0  0  0  0  0  0  0  0  0  0  0  0
    6.7942  -14.5676   25.5792 C   0  0  2  0  0  0  0  0  0  0  0  0
    8.0262  -15.2439   25.0244 N   0  0  0  0  0  0  0  0  0  0  0  0
    7.6493  -16.1291   23.9610 C   0  0  0  0  0  0  0  0  0  0  0  0
    8.7987  -15.9312   26.0919 O   0  0  0  0  0  0  0  0  0  0  0  0
    8.7227  -17.1574   26.3448 O   0  0  0  0  0  0  0  0  0  0  0  0
  2  1  1  6
  3  2  1  0
  4  5  1  1
  4  2  1  0
  6  4  1  0
  7  6  2  0
  8  9  1  0
  9 10  2  0
  9 11  1  0
 11 12  1  0
 13 14  1  0
 13 12  1  0
 15 14  1  6
 15 16  1  0
 16  6  1  0
 17 18  2  0
 17 15  1  0
 19 20  1  0
 20 21  1  0
 22 21  1  0
 23 22  1  6
 23 24  1  0
 24 17  1  0
 25 27  1  0
 25 23  1  0
 26 25  2  0
M  END
$$$$
