TRM.pdb
     RDKit          3D

 27 26  0  0  1  0  0  0  0  0999 V2000
    9.3137  -13.5224   17.9472 C   0  0  0  0  0  0  0  0  0  0  0  0
    9.1372  -14.1973   19.3023 C   0  0  1  0  0  0  0  0  0  0  0  0
    9.7841  -13.4080   20.2342 O   0  0  0  0  0  0  0  0  0  0  0  0
    7.6629  -14.3257   19.5570 C   0  0  2  0  0  0  0  0  0  0  0  0
    7.0773  -13.0030   19.4423 N   0  0  0  0  0  0  0  0  0  0  0  0
    7.3266  -14.8573   20.8759 C   0  0  0  0  0  0  0  0  0  0  0  0
    6.8731  -14.1335   21.7749 O   0  0  0  0  0  0  0  0  0  0  0  0
    6.2605  -21.5993   21.7464 N   0  0  0  0  0  0  0  0  0  0  0  0
    5.4486  -21.5375   22.9001 C   0  0  0  0  0  0  0  0  0  0  0  0
    4.2732  -22.0530   22.8980 N   0  0  0  0  0  0  0  0  0  0  0  0
    5.9085  -20.9080   24.0844 N   0  0  0  0  0  0  0  0  0  0  0  0
    7.1682  -20.2343   24.0422 C   0  0  0  0  0  0  0  0  0  0  0  0
    7.0425  -18.7239   24.0795 C   0  0  0  0  0  0  0  0  0  0  0  0
    7.3178  -18.2483   22.6604 C   0  0  0  0  0  0  0  0  0  0  0  0
    7.2955  -16.7584   22.5345 C   0  0  2  0  0  0  0  0  0  0  0  0
    7.4922  -16.2416   21.2319 N   0  0  0  0  0  0  0  0  0  0  0  0
    8.1799  -16.1668   23.5687 C   0  0  0  0  0  0  0  0  0  0  0  0
    9.4001  -16.0684   23.3012 O   0  0  0  0  0  0  0  0  0  0  0  0
    3.6558  -21.9329   23.7104 C   0  0  0  0  0  0  0  0  0  0  0  0
    5.3387  -11.8546   26.6068 S   0  0  0  0  0  0  0  0  0  0  0  0
    7.0733  -11.4344   26.3085 C   0  0  0  0  0  0  0  0  0  0  0  0
    7.9160  -12.8214   25.4666 C   0  0  0  0  0  0  0  0  0  0  0  0
    8.0975  -13.9493   26.4398 C   0  0  2  0  0  0  0  0  0  0  0  0
    8.7014  -15.1515   25.7521 N   0  0  0  0  0  0  0  0  0  0  0  0
    7.7504  -15.7060   24.8332 C   0  0  0  0  0  0  0  0  0  0  0  0
    9.1951  -16.1513   26.7347 O   0  0  0  0  0  0  0  0  0  0  0  0
    8.7296  -17.3089   26.8634 O   0  0  0  0  0  0  0  0  0  0  0  0
  2  1  1  6
  3  2  1  0
  4  5  1  1
  4  2  1  0
  6  4  1  0
  7  6  2  0
  8  9  1  0
  9 10  2  0
  9 11  1  0
 11 12  1  0
 13 14  1  0
 13 12  1  0
 15 14  1  6
 15 16  1  0
 16  6  1  0
 17 18  2  0
 17 15  1  0
 19 20  1  0
 20 21  1  0
 22 21  1  0
 23 22  1  6
 23 24  1  0
 24 17  1  0
 25 27  1  0
 25 23  1  0
 26 25  2  0
M  END
$$$$
