TRM.pdb
     RDKit          3D

 27 26  0  0  1  0  0  0  0  0999 V2000
    9.6526  -13.4971   17.3195 C   0  0  0  0  0  0  0  0  0  0  0  0
    9.4498  -14.0755   18.7149 C   0  0  1  0  0  0  0  0  0  0  0  0
   10.0769  -13.2209   19.6016 O   0  0  0  0  0  0  0  0  0  0  0  0
    7.9709  -14.1897   18.9487 C   0  0  2  0  0  0  0  0  0  0  0  0
    7.3995  -12.8618   18.8235 N   0  0  0  0  0  0  0  0  0  0  0  0
    7.6108  -14.7160   20.2634 C   0  0  0  0  0  0  0  0  0  0  0  0
    7.2517  -13.9718   21.1880 O   0  0  0  0  0  0  0  0  0  0  0  0
    9.8382  -20.3497   19.4724 N   0  0  0  0  0  0  0  0  0  0  0  0
   10.3361  -21.0012   20.6219 C   0  0  0  0  0  0  0  0  0  0  0  0
   11.4800  -21.5826   20.5972 N   0  0  0  0  0  0  0  0  0  0  0  0
    9.5893  -21.0298   21.8268 N   0  0  0  0  0  0  0  0  0  0  0  0
    8.3755  -20.2776   21.8837 C   0  0  0  0  0  0  0  0  0  0  0  0
    8.5929  -18.7798   21.7945 C   0  0  0  0  0  0  0  0  0  0  0  0
    7.2128  -18.1509   21.9196 C   0  0  0  0  0  0  0  0  0  0  0  0
    7.2464  -16.6585   21.8317 C   0  0  2  0  0  0  0  0  0  0  0  0
    7.6435  -16.1179   20.5856 N   0  0  0  0  0  0  0  0  0  0  0  0
    7.9854  -16.1163   22.9986 C   0  0  0  0  0  0  0  0  0  0  0  0
    9.2175  -15.9292   22.8690 O   0  0  0  0  0  0  0  0  0  0  0  0
   11.8757  -21.9797   21.4583 C   0  0  0  0  0  0  0  0  0  0  0  0
    5.7148  -11.3286   26.8453 S   0  0  0  0  0  0  0  0  0  0  0  0
    7.5143  -11.5060   26.9138 C   0  0  0  0  0  0  0  0  0  0  0  0
    7.9667  -13.2773   26.9395 C   0  0  0  0  0  0  0  0  0  0  0  0
    7.2578  -13.9816   25.8199 C   0  0  1  0  0  0  0  0  0  0  0  0
    8.1505  -15.0350   25.2062 N   0  0  0  0  0  0  0  0  0  0  0  0
    7.4047  -15.7950   24.2458 C   0  0  0  0  0  0  0  0  0  0  0  0
    8.7796  -15.8902   26.2462 O   0  0  0  0  0  0  0  0  0  0  0  0
    9.7562  -15.5445   26.9533 O   0  0  0  0  0  0  0  0  0  0  0  0
  2  1  1  6
  3  2  1  0
  4  5  1  1
  4  2  1  0
  6  4  1  0
  7  6  2  0
  8  9  1  0
  9 10  2  0
  9 11  1  0
 11 12  1  0
 13 14  1  0
 13 12  1  0
 15 14  1  6
 15 16  1  0
 16  6  1  0
 17 18  2  0
 17 15  1  0
 19 20  1  0
 20 21  1  0
 22 21  1  0
 23 22  1  6
 23 24  1  0
 24 17  1  0
 25 27  1  0
 25 23  1  0
 26 25  2  0
M  END
$$$$
