TRM.pdb
     RDKit          3D

 27 26  0  0  1  0  0  0  0  0999 V2000
   11.1039  -14.6121   19.9668 C   0  0  0  0  0  0  0  0  0  0  0  0
   10.3180  -13.4606   19.3509 C   0  0  1  0  0  0  0  0  0  0  0  0
   11.0096  -13.0560   18.2248 O   0  0  0  0  0  0  0  0  0  0  0  0
    8.9364  -13.9648   19.0475 C   0  0  2  0  0  0  0  0  0  0  0  0
    8.1980  -12.8828   18.4232 N   0  0  0  0  0  0  0  0  0  0  0  0
    8.1878  -14.4055   20.2225 C   0  0  0  0  0  0  0  0  0  0  0  0
    7.7125  -13.5975   21.0342 O   0  0  0  0  0  0  0  0  0  0  0  0
    3.9436  -20.5572   20.3844 N   0  0  0  0  0  0  0  0  0  0  0  0
    3.4587  -19.7758   21.4559 C   0  0  0  0  0  0  0  0  0  0  0  0
    2.3583  -19.1251   21.3419 N   0  0  0  0  0  0  0  0  0  0  0  0
    4.1707  -19.6905   22.6790 N   0  0  0  0  0  0  0  0  0  0  0  0
    5.5901  -19.5337   22.6212 C   0  0  0  0  0  0  0  0  0  0  0  0
    6.0472  -18.1095   22.8684 C   0  0  0  0  0  0  0  0  0  0  0  0
    6.7460  -17.6690   21.5904 C   0  0  0  0  0  0  0  0  0  0  0  0
    7.1934  -16.2429   21.6370 C   0  0  2  0  0  0  0  0  0  0  0  0
    7.9460  -15.7908   20.5272 N   0  0  0  0  0  0  0  0  0  0  0  0
    7.8191  -15.9693   22.9544 C   0  0  0  0  0  0  0  0  0  0  0  0
    9.0167  -16.3040   23.1084 O   0  0  0  0  0  0  0  0  0  0  0  0
    2.0219  -18.5405   22.1170 C   0  0  0  0  0  0  0  0  0  0  0  0
    5.7613  -11.2236   26.8047 S   0  0  0  0  0  0  0  0  0  0  0  0
    6.8763  -12.0638   27.9558 C   0  0  0  0  0  0  0  0  0  0  0  0
    7.9079  -13.2747   27.0546 C   0  0  0  0  0  0  0  0  0  0  0  0
    7.1013  -13.8735   25.9397 C   0  0  2  0  0  0  0  0  0  0  0  0
    7.9362  -14.8525   25.1473 N   0  0  0  0  0  0  0  0  0  0  0  0
    7.1663  -15.3600   24.0492 C   0  0  0  0  0  0  0  0  0  0  0  0
    8.4773  -15.9331   26.0123 O   0  0  0  0  0  0  0  0  0  0  0  0
    9.3825  -15.7722   26.8655 O   0  0  0  0  0  0  0  0  0  0  0  0
  2  1  1  6
  3  2  1  0
  4  5  1  1
  4  2  1  0
  6  4  1  0
  7  6  2  0
  8  9  1  0
  9 10  2  0
  9 11  1  0
 11 12  1  0
 13 14  1  0
 13 12  1  0
 15 14  1  6
 15 16  1  0
 16  6  1  0
 17 18  2  0
 17 15  1  0
 19 20  1  0
 20 21  1  0
 22 21  1  0
 23 22  1  6
 23 24  1  0
 24 17  1  0
 25 27  1  0
 25 23  1  0
 26 25  2  0
M  END
$$$$
