TRM.pdb
     RDKit          3D

 27 26  0  0  1  0  0  0  0  0999 V2000
    6.0531  -19.5197   24.8426 C   0  0  0  0  0  0  0  0  0  0  0  0
    6.9196  -20.5482   24.1257 C   0  0  1  0  0  0  0  0  0  0  0  0
    6.2984  -21.7738   24.2739 O   0  0  0  0  0  0  0  0  0  0  0  0
    7.0440  -20.1173   22.6925 C   0  0  2  0  0  0  0  0  0  0  0  0
    7.7702  -21.1526   21.9809 N   0  0  0  0  0  0  0  0  0  0  0  0
    7.7555  -18.8547   22.5058 C   0  0  0  0  0  0  0  0  0  0  0  0
    8.9853  -18.7725   22.6423 O   0  0  0  0  0  0  0  0  0  0  0  0
    7.4230  -12.3740   17.3805 N   0  0  0  0  0  0  0  0  0  0  0  0
    8.1104  -13.5844   17.6176 C   0  0  0  0  0  0  0  0  0  0  0  0
    8.6197  -14.2462   16.6429 N   0  0  0  0  0  0  0  0  0  0  0  0
    8.2553  -14.0973   18.9314 N   0  0  0  0  0  0  0  0  0  0  0  0
    7.7253  -13.3306   20.0148 C   0  0  0  0  0  0  0  0  0  0  0  0
    7.9099  -13.9933   21.3659 C   0  0  0  0  0  0  0  0  0  0  0  0
    7.1561  -15.3129   21.2885 C   0  0  0  0  0  0  0  0  0  0  0  0
    7.7052  -16.3488   22.2167 C   0  0  2  0  0  0  0  0  0  0  0  0
    7.0966  -17.6248   22.1542 N   0  0  0  0  0  0  0  0  0  0  0  0
    7.7984  -15.7803   23.5841 C   0  0  0  0  0  0  0  0  0  0  0  0
    6.7537  -15.7582   24.2755 O   0  0  0  0  0  0  0  0  0  0  0  0
    9.0963  -15.1393   16.8189 C   0  0  0  0  0  0  0  0  0  0  0  0
    6.6384  -10.3372   26.5063 S   0  0  0  0  0  0  0  0  0  0  0  0
    6.8675  -12.0603   27.0091 C   0  0  0  0  0  0  0  0  0  0  0  0
    7.5735  -13.0259   25.6264 C   0  0  0  0  0  0  0  0  0  0  0  0
    7.7112  -14.4594   26.0485 C   0  0  2  0  0  0  0  0  0  0  0  0
    9.0311  -15.0261   25.5795 N   0  0  0  0  0  0  0  0  0  0  0  0
    8.9765  -15.2613   24.1660 C   0  0  0  0  0  0  0  0  0  0  0  0
    9.4057  -16.2428   26.3462 O   0  0  0  0  0  0  0  0  0  0  0  0
    9.1154  -17.4141   26.0040 O   0  0  0  0  0  0  0  0  0  0  0  0
  2  1  1  1
  3  2  1  0
  4  5  1  6
  4  2  1  0
  6  4  1  0
  7  6  2  0
  8  9  1  0
  9 10  2  0
  9 11  1  0
 11 12  1  0
 13 14  1  0
 13 12  1  0
 15 14  1  6
 15 16  1  0
 16  6  1  0
 17 18  2  0
 17 15  1  0
 19 20  1  0
 20 21  1  0
 22 21  1  0
 23 22  1  6
 23 24  1  0
 24 17  1  0
 25 27  1  0
 25 23  1  0
 26 25  2  0
M  END
$$$$
