TRM.pdb
     RDKit          3D

 27 26  0  0  1  0  0  0  0  0999 V2000
   10.9577  -13.7650   19.8913 C   0  0  0  0  0  0  0  0  0  0  0  0
    9.8437  -13.0591   19.1274 C   0  0  1  0  0  0  0  0  0  0  0  0
   10.4203  -12.4863   18.0097 O   0  0  0  0  0  0  0  0  0  0  0  0
    8.7999  -14.0860   18.7944 C   0  0  2  0  0  0  0  0  0  0  0  0
    7.8043  -13.4480   17.9536 N   0  0  0  0  0  0  0  0  0  0  0  0
    8.1179  -14.6468   19.9587 C   0  0  0  0  0  0  0  0  0  0  0  0
    7.3222  -13.9770   20.6340 O   0  0  0  0  0  0  0  0  0  0  0  0
   11.8171  -19.7434   21.3267 N   0  0  0  0  0  0  0  0  0  0  0  0
   11.0187  -20.5995   20.5371 C   0  0  0  0  0  0  0  0  0  0  0  0
   11.5236  -21.2186   19.5326 N   0  0  0  0  0  0  0  0  0  0  0  0
    9.6459  -20.7964   20.8320 N   0  0  0  0  0  0  0  0  0  0  0  0
    9.0823  -20.0704   21.9264 C   0  0  0  0  0  0  0  0  0  0  0  0
    9.2276  -18.5676   21.7880 C   0  0  0  0  0  0  0  0  0  0  0  0
    7.8105  -18.0148   21.7447 C   0  0  0  0  0  0  0  0  0  0  0  0
    7.7735  -16.5264   21.6062 C   0  0  2  0  0  0  0  0  0  0  0  0
    8.3118  -15.9999   20.4080 N   0  0  0  0  0  0  0  0  0  0  0  0
    8.3095  -15.9066   22.8433 C   0  0  0  0  0  0  0  0  0  0  0  0
    9.5036  -15.5271   22.8316 O   0  0  0  0  0  0  0  0  0  0  0  0
   10.9447  -21.8619   18.9789 C   0  0  0  0  0  0  0  0  0  0  0  0
    6.8506  -10.6963   28.3564 S   0  0  0  0  0  0  0  0  0  0  0  0
    6.2672  -11.7563   27.0109 C   0  0  0  0  0  0  0  0  0  0  0  0
    7.5470  -12.9920   26.5895 C   0  0  0  0  0  0  0  0  0  0  0  0
    7.0585  -13.8354   25.4484 C   0  0  1  0  0  0  0  0  0  0  0  0
    8.0979  -14.8630   25.0651 N   0  0  0  0  0  0  0  0  0  0  0  0
    7.5752  -15.7120   24.0344 C   0  0  0  0  0  0  0  0  0  0  0  0
    8.5716  -15.6273   26.2482 O   0  0  0  0  0  0  0  0  0  0  0  0
    8.3270  -16.8403   26.4533 O   0  0  0  0  0  0  0  0  0  0  0  0
  2  1  1  6
  3  2  1  0
  4  5  1  6
  4  2  1  0
  6  4  1  0
  7  6  2  0
  8  9  1  0
  9 10  2  0
  9 11  1  0
 11 12  1  0
 13 14  1  0
 13 12  1  0
 15 14  1  1
 15 16  1  0
 16  6  1  0
 17 18  2  0
 17 15  1  0
 19 20  1  0
 20 21  1  0
 22 21  1  0
 23 22  1  6
 23 24  1  0
 24 17  1  0
 25 27  1  0
 25 23  1  0
 26 25  2  0
M  END
$$$$
