KEE.pdb
     RDKit          3D

 28 27  0  0  1  0  0  0  0  0999 V2000
   30.5956  -22.8672  -17.3384 N   0  0  0  0  0  0  0  0  0  0  0  0
   30.7173  -24.2646  -17.6871 C   0  0  1  0  0  0  0  0  0  0  0  0
   32.1059  -24.7030  -17.5674 C   0  0  0  0  0  0  0  0  0  0  0  0
   32.6718  -25.3337  -18.8223 C   0  0  0  0  0  0  0  0  0  0  0  0
   33.1044  -26.7572  -18.5237 C   0  0  0  0  0  0  0  0  0  0  0  0
   34.5237  -26.9879  -18.9870 C   0  0  0  0  0  0  0  0  0  0  0  0
   34.9509  -28.2957  -18.5427 N   0  0  0  0  0  0  0  0  0  0  0  0
   29.7026  -25.0352  -16.9733 C   0  0  0  0  0  0  0  0  0  0  0  0
   29.5606  -24.8398  -15.7404 O   0  0  0  0  0  0  0  0  0  0  0  0
   28.8538  -25.9988  -17.5652 N   0  0  0  0  0  0  0  0  0  0  0  0
   27.7111  -26.6147  -16.8987 C   0  0  1  0  0  0  0  0  0  0  0  0
   26.7727  -25.5248  -16.5382 C   0  0  0  0  0  0  0  0  0  0  0  0
   26.3177  -24.6642  -17.6829 C   0  0  0  0  0  0  0  0  0  0  0  0
   25.2565  -23.7538  -17.2277 C   0  0  0  0  0  0  0  0  0  0  0  0
   24.0528  -24.0870  -17.3486 O   0  0  0  0  0  0  0  0  0  0  0  0
   27.0937  -27.6499  -17.7764 C   0  0  0  0  0  0  0  0  0  0  0  0
   26.8154  -27.3544  -18.9636 O   0  0  0  0  0  0  0  0  0  0  0  0
   25.5773  -22.5352  -16.6656 O   0  0  0  0  0  0  0  0  0  0  0  0
   26.8070  -28.9600  -17.3237 N   0  0  0  0  0  0  0  0  0  0  0  0
   26.2292  -29.9846  -18.1215 C   0  0  1  0  0  0  0  0  0  0  0  0
   26.3705  -31.3491  -17.5504 C   0  0  0  0  0  0  0  0  0  0  0  0
   26.3895  -31.5182  -16.0886 C   0  0  0  0  0  0  0  0  0  0  0  0
   26.4913  -32.8827  -15.5711 C   0  0  0  0  0  0  0  0  0  0  0  0
   26.5102  -33.8670  -16.3448 O   0  0  0  0  0  0  0  0  0  0  0  0
   24.8334  -29.6786  -18.5375 C   0  0  0  0  0  0  0  0  0  0  0  0
   24.1922  -30.4000  -19.5273 O   0  0  0  0  0  0  0  0  0  0  0  0
   26.5707  -33.1550  -14.2051 O   0  0  0  0  0  0  0  0  0  0  0  0
   24.2178  -28.7440  -17.9809 O   0  0  0  0  0  0  0  0  0  0  0  0
  2  1  1  1
  2  3  1  0
  4  3  1  0
  5  4  1  0
  6  5  1  0
  7  6  1  0
  8  9  2  0
  8  2  1  0
 10  8  1  0
 11 10  1  0
 11 12  1  6
 13 14  1  0
 13 12  1  0
 14 15  2  0
 16 17  2  0
 16 11  1  0
 18 14  1  0
 19 16  1  0
 20 21  1  1
 20 19  1  0
 22 23  1  0
 22 21  1  0
 23 27  1  0
 24 23  2  0
 25 20  1  0
 26 25  1  0
 28 25  2  0
M  END
$$$$
