KEE.pdb
     RDKit          3D

 28 27  0  0  1  0  0  0  0  0999 V2000
   17.9180  -11.5688  -14.6421 N   0  0  0  0  0  0  0  0  0  0  0  0
   16.9585  -10.4902  -14.5733 C   0  0  1  0  0  0  0  0  0  0  0  0
   15.6027  -11.0186  -14.4416 C   0  0  0  0  0  0  0  0  0  0  0  0
   15.1760  -11.9314  -15.5718 C   0  0  0  0  0  0  0  0  0  0  0  0
   13.9672  -11.3397  -16.2728 C   0  0  0  0  0  0  0  0  0  0  0  0
   13.4354  -12.2985  -17.3122 C   0  0  0  0  0  0  0  0  0  0  0  0
   12.3312  -11.6703  -18.0024 N   0  0  0  0  0  0  0  0  0  0  0  0
   17.3988   -9.5085  -13.5856 C   0  0  0  0  0  0  0  0  0  0  0  0
   16.9358   -9.5835  -12.4202 O   0  0  0  0  0  0  0  0  0  0  0  0
   18.3176   -8.4636  -13.8377 N   0  0  0  0  0  0  0  0  0  0  0  0
   18.7432   -7.4802  -12.8472 C   0  0  1  0  0  0  0  0  0  0  0  0
   19.9196   -6.7727  -13.4078 C   0  0  0  0  0  0  0  0  0  0  0  0
   20.5139   -5.7138  -12.5227 C   0  0  0  0  0  0  0  0  0  0  0  0
   21.7549   -5.2036  -13.1244 C   0  0  0  0  0  0  0  0  0  0  0  0
   22.5983   -6.0061  -13.5926 O   0  0  0  0  0  0  0  0  0  0  0  0
   17.6174   -6.5631  -12.5086 C   0  0  0  0  0  0  0  0  0  0  0  0
   16.9005   -6.1115  -13.4339 O   0  0  0  0  0  0  0  0  0  0  0  0
   21.9962   -3.8462  -13.1792 O   0  0  0  0  0  0  0  0  0  0  0  0
   17.3216   -6.1787  -11.1788 N   0  0  0  0  0  0  0  0  0  0  0  0
   16.2283   -5.3541  -10.7981 C   0  0  1  0  0  0  0  0  0  0  0  0
   15.7535   -5.5816   -9.4086 C   0  0  0  0  0  0  0  0  0  0  0  0
   14.6071   -4.8082   -8.9049 C   0  0  0  0  0  0  0  0  0  0  0  0
   14.1984   -5.0374   -7.5191 C   0  0  0  0  0  0  0  0  0  0  0  0
   14.7938   -5.8718   -6.7999 O   0  0  0  0  0  0  0  0  0  0  0  0
   16.4551   -3.9142  -11.0982 C   0  0  0  0  0  0  0  0  0  0  0  0
   15.4171   -3.0682  -11.4419 O   0  0  0  0  0  0  0  0  0  0  0  0
   13.1364   -4.3473   -6.9340 O   0  0  0  0  0  0  0  0  0  0  0  0
   17.6142   -3.4502  -11.0406 O   0  0  0  0  0  0  0  0  0  0  0  0
  2  1  1  1
  2  3  1  0
  4  3  1  0
  5  4  1  0
  6  5  1  0
  7  6  1  0
  8  9  2  0
  8  2  1  0
 10  8  1  0
 11 10  1  0
 11 12  1  6
 13 14  1  0
 13 12  1  0
 14 15  2  0
 16 17  2  0
 16 11  1  0
 18 14  1  0
 19 16  1  0
 20 21  1  1
 20 19  1  0
 22 23  1  0
 22 21  1  0
 23 27  1  0
 24 23  2  0
 25 20  1  0
 26 25  1  0
 28 25  2  0
M  END
$$$$
