KEE.pdb
     RDKit          3D

 28 27  0  0  1  0  0  0  0  0999 V2000
   24.6094  -13.1371  -17.3448 N   0  0  0  0  0  0  0  0  0  0  0  0
   24.6536  -12.2489  -16.2054 C   0  0  1  0  0  0  0  0  0  0  0  0
   26.0340  -11.8871  -15.8916 C   0  0  0  0  0  0  0  0  0  0  0  0
   26.8565  -11.4645  -17.0906 C   0  0  0  0  0  0  0  0  0  0  0  0
   28.1959  -10.9263  -16.6225 C   0  0  0  0  0  0  0  0  0  0  0  0
   29.0531  -10.5376  -17.8043 C   0  0  0  0  0  0  0  0  0  0  0  0
   29.5432  -11.7407  -18.4388 N   0  0  0  0  0  0  0  0  0  0  0  0
   23.6982  -11.1613  -16.3979 C   0  0  0  0  0  0  0  0  0  0  0  0
   23.5944  -10.6517  -17.5415 O   0  0  0  0  0  0  0  0  0  0  0  0
   22.8675  -10.6259  -15.3865 N   0  0  0  0  0  0  0  0  0  0  0  0
   21.8821   -9.5707  -15.5986 C   0  0  1  0  0  0  0  0  0  0  0  0
   20.5904  -10.0612  -15.0606 C   0  0  0  0  0  0  0  0  0  0  0  0
   19.4355   -9.1094  -15.1959 C   0  0  0  0  0  0  0  0  0  0  0  0
   18.1939   -9.7726  -14.7707 C   0  0  0  0  0  0  0  0  0  0  0  0
   17.6967  -10.6815  -15.4787 O   0  0  0  0  0  0  0  0  0  0  0  0
   22.3353   -8.3011  -14.9616 C   0  0  0  0  0  0  0  0  0  0  0  0
   22.7047   -8.3193  -13.7628 O   0  0  0  0  0  0  0  0  0  0  0  0
   17.5732   -9.4024  -13.5952 O   0  0  0  0  0  0  0  0  0  0  0  0
   22.3665   -7.0687  -15.6572 N   0  0  0  0  0  0  0  0  0  0  0  0
   22.6948   -5.8159  -15.0715 C   0  0  1  0  0  0  0  0  0  0  0  0
   22.7909   -4.6984  -16.0462 C   0  0  0  0  0  0  0  0  0  0  0  0
   21.6985   -3.7152  -16.1224 C   0  0  0  0  0  0  0  0  0  0  0  0
   21.7295   -2.7605  -17.2304 C   0  0  0  0  0  0  0  0  0  0  0  0
   22.6583   -2.7758  -18.0701 O   0  0  0  0  0  0  0  0  0  0  0  0
   21.8420   -5.4822  -13.8984 C   0  0  0  0  0  0  0  0  0  0  0  0
   22.2837   -4.6469  -12.8892 O   0  0  0  0  0  0  0  0  0  0  0  0
   20.7385   -1.7945  -17.4066 O   0  0  0  0  0  0  0  0  0  0  0  0
   20.6933   -5.9679  -13.8165 O   0  0  0  0  0  0  0  0  0  0  0  0
  2  1  1  6
  2  3  1  0
  4  3  1  0
  5  4  1  0
  6  5  1  0
  7  6  1  0
  8  9  2  0
  8  2  1  0
 10  8  1  0
 11 10  1  0
 11 12  1  1
 13 14  1  0
 13 12  1  0
 14 15  2  0
 16 17  2  0
 16 11  1  0
 18 14  1  0
 19 16  1  0
 20 21  1  6
 20 19  1  0
 22 23  1  0
 22 21  1  0
 23 27  1  0
 24 23  2  0
 25 20  1  0
 26 25  1  0
 28 25  2  0
M  END
$$$$
