KEE.pdb
     RDKit          3D

 28 27  0  0  1  0  0  0  0  0999 V2000
   25.4028  -32.4923   -8.8657 N   0  0  0  0  0  0  0  0  0  0  0  0
   24.3533  -33.0335   -8.0324 C   0  0  1  0  0  0  0  0  0  0  0  0
   23.9264  -34.3392   -8.5299 C   0  0  0  0  0  0  0  0  0  0  0  0
   24.9937  -35.4113   -8.4653 C   0  0  0  0  0  0  0  0  0  0  0  0
   24.4780  -36.5926   -7.6645 C   0  0  0  0  0  0  0  0  0  0  0  0
   25.4987  -37.7062   -7.6459 C   0  0  0  0  0  0  0  0  0  0  0  0
   24.9448  -38.8327   -6.9285 N   0  0  0  0  0  0  0  0  0  0  0  0
   24.7492  -32.9426   -6.6295 C   0  0  0  0  0  0  0  0  0  0  0  0
   25.7841  -32.2914   -6.3411 O   0  0  0  0  0  0  0  0  0  0  0  0
   24.0526  -33.5374   -5.5523 N   0  0  0  0  0  0  0  0  0  0  0  0
   24.4214  -33.3913   -4.1480 C   0  0  1  0  0  0  0  0  0  0  0  0
   23.1799  -33.0853   -3.3972 C   0  0  0  0  0  0  0  0  0  0  0  0
   23.3440  -32.9597   -1.9088 C   0  0  0  0  0  0  0  0  0  0  0  0
   22.0341  -32.7235   -1.2837 C   0  0  0  0  0  0  0  0  0  0  0  0
   21.0074  -32.6324   -1.9993 O   0  0  0  0  0  0  0  0  0  0  0  0
   25.1098  -34.6209   -3.6610 C   0  0  0  0  0  0  0  0  0  0  0  0
   24.6069  -35.7418   -3.9158 O   0  0  0  0  0  0  0  0  0  0  0  0
   21.9273  -32.6037    0.0868 O   0  0  0  0  0  0  0  0  0  0  0  0
   26.3145  -34.5763   -2.9191 N   0  0  0  0  0  0  0  0  0  0  0  0
   26.9672  -35.7109   -2.3651 C   0  0  1  0  0  0  0  0  0  0  0  0
   28.3473  -35.4411   -1.8851 C   0  0  0  0  0  0  0  0  0  0  0  0
   29.1321  -36.5393   -1.2987 C   0  0  0  0  0  0  0  0  0  0  0  0
   30.4922  -36.2320   -0.8563 C   0  0  0  0  0  0  0  0  0  0  0  0
   31.0433  -35.1512   -1.1662 O   0  0  0  0  0  0  0  0  0  0  0  0
   26.1374  -36.4223   -1.3551 C   0  0  0  0  0  0  0  0  0  0  0  0
   25.9290  -37.7878   -1.4128 O   0  0  0  0  0  0  0  0  0  0  0  0
   31.2373  -37.1167   -0.0763 O   0  0  0  0  0  0  0  0  0  0  0  0
   25.6105  -35.7730   -0.4261 O   0  0  0  0  0  0  0  0  0  0  0  0
  2  1  1  6
  2  3  1  0
  4  3  1  0
  5  4  1  0
  6  5  1  0
  7  6  1  0
  8  9  2  0
  8  2  1  0
 10  8  1  0
 11 10  1  0
 11 12  1  1
 13 14  1  0
 13 12  1  0
 14 15  2  0
 16 17  2  0
 16 11  1  0
 18 14  1  0
 19 16  1  0
 20 21  1  1
 20 19  1  0
 22 23  1  0
 22 21  1  0
 23 27  1  0
 24 23  2  0
 25 20  1  0
 26 25  1  0
 28 25  2  0
M  END
$$$$
