KEE.pdb
     RDKit          3D

 28 27  0  0  1  0  0  0  0  0999 V2000
   16.2058  -11.5910  -10.3500 N   0  0  0  0  0  0  0  0  0  0  0  0
   15.8170  -10.2745  -10.8023 C   0  0  1  0  0  0  0  0  0  0  0  0
   14.4199  -10.0097  -10.4669 C   0  0  0  0  0  0  0  0  0  0  0  0
   13.4769  -11.1544  -10.7721 C   0  0  0  0  0  0  0  0  0  0  0  0
   12.0559  -10.7458  -10.4302 C   0  0  0  0  0  0  0  0  0  0  0  0
   11.0937  -11.8702  -10.7339 C   0  0  0  0  0  0  0  0  0  0  0  0
    9.7599  -11.4534  -10.3634 N   0  0  0  0  0  0  0  0  0  0  0  0
   16.8118   -9.2968  -10.3691 C   0  0  0  0  0  0  0  0  0  0  0  0
   17.2842   -9.3979   -9.2094 O   0  0  0  0  0  0  0  0  0  0  0  0
   17.2941   -8.2286  -11.1602 N   0  0  0  0  0  0  0  0  0  0  0  0
   18.1429   -7.1502  -10.6643 C   0  0  1  0  0  0  0  0  0  0  0  0
   19.2470   -6.9766  -11.6386 C   0  0  0  0  0  0  0  0  0  0  0  0
   20.1781   -5.8314  -11.3568 C   0  0  0  0  0  0  0  0  0  0  0  0
   21.2470   -5.8013  -12.3661 C   0  0  0  0  0  0  0  0  0  0  0  0
   21.2943   -6.6877  -13.2529 O   0  0  0  0  0  0  0  0  0  0  0  0
   17.3416   -5.9091  -10.4630 C   0  0  0  0  0  0  0  0  0  0  0  0
   16.2505   -5.7836  -11.0695 O   0  0  0  0  0  0  0  0  0  0  0  0
   22.1978   -4.8015  -12.3448 O   0  0  0  0  0  0  0  0  0  0  0  0
   17.7628   -4.8602   -9.6109 N   0  0  0  0  0  0  0  0  0  0  0  0
   16.9546   -3.7570   -9.2236 C   0  0  1  0  0  0  0  0  0  0  0  0
   15.6257   -4.1410   -8.6808 C   0  0  0  0  0  0  0  0  0  0  0  0
   14.7361   -3.0951   -8.1511 C   0  0  0  0  0  0  0  0  0  0  0  0
   13.4335   -3.5178   -7.6366 C   0  0  0  0  0  0  0  0  0  0  0  0
   12.4135   -2.8104   -7.8017 O   0  0  0  0  0  0  0  0  0  0  0  0
   17.6730   -2.7893   -8.3505 C   0  0  0  0  0  0  0  0  0  0  0  0
   17.1860   -1.5168   -8.1163 O   0  0  0  0  0  0  0  0  0  0  0  0
   13.2620   -4.7161   -6.9430 O   0  0  0  0  0  0  0  0  0  0  0  0
   18.7479   -3.1298   -7.8112 O   0  0  0  0  0  0  0  0  0  0  0  0
  2  1  1  1
  2  3  1  0
  4  3  1  0
  5  4  1  0
  6  5  1  0
  7  6  1  0
  8  9  2  0
  8  2  1  0
 10  8  1  0
 11 10  1  0
 11 12  1  6
 13 14  1  0
 13 12  1  0
 14 15  2  0
 16 17  2  0
 16 11  1  0
 18 14  1  0
 19 16  1  0
 20 21  1  1
 20 19  1  0
 22 23  1  0
 22 21  1  0
 23 27  1  0
 24 23  2  0
 25 20  1  0
 26 25  1  0
 28 25  2  0
M  END
$$$$
