KEE.pdb
     RDKit          3D

 28 27  0  0  1  0  0  0  0  0999 V2000
   22.6779  -16.7226  -20.2332 N   0  0  0  0  0  0  0  0  0  0  0  0
   21.8521  -16.6428  -21.4167 C   0  0  1  0  0  0  0  0  0  0  0  0
   22.5856  -17.1219  -22.5860 C   0  0  0  0  0  0  0  0  0  0  0  0
   23.8315  -16.3251  -22.9110 C   0  0  0  0  0  0  0  0  0  0  0  0
   25.0134  -16.9002  -22.1527 C   0  0  0  0  0  0  0  0  0  0  0  0
   26.2577  -16.0837  -22.4125 C   0  0  0  0  0  0  0  0  0  0  0  0
   27.3415  -16.6238  -21.6227 N   0  0  0  0  0  0  0  0  0  0  0  0
   20.5499  -17.2451  -21.1438 C   0  0  0  0  0  0  0  0  0  0  0  0
   19.7643  -17.4328  -22.1061 O   0  0  0  0  0  0  0  0  0  0  0  0
   20.0933  -17.6399  -19.8651 N   0  0  0  0  0  0  0  0  0  0  0  0
   18.8472  -18.3578  -19.6176 C   0  0  1  0  0  0  0  0  0  0  0  0
   18.9587  -18.9825  -18.2775 C   0  0  0  0  0  0  0  0  0  0  0  0
   17.7548  -19.7627  -17.8305 C   0  0  0  0  0  0  0  0  0  0  0  0
   17.9663  -20.2609  -16.4633 C   0  0  0  0  0  0  0  0  0  0  0  0
   19.0078  -19.9468  -15.8378 O   0  0  0  0  0  0  0  0  0  0  0  0
   17.6830  -17.4338  -19.7357 C   0  0  0  0  0  0  0  0  0  0  0  0
   17.7586  -16.2905  -19.2246 O   0  0  0  0  0  0  0  0  0  0  0  0
   17.0241  -21.0707  -15.8630 O   0  0  0  0  0  0  0  0  0  0  0  0
   16.4889  -17.7946  -20.4048 N   0  0  0  0  0  0  0  0  0  0  0  0
   15.3422  -16.9628  -20.5208 C   0  0  1  0  0  0  0  0  0  0  0  0
   14.3579  -17.4262  -21.5329 C   0  0  0  0  0  0  0  0  0  0  0  0
   13.1350  -16.6394  -21.7592 C   0  0  0  0  0  0  0  0  0  0  0  0
   12.1941  -17.1337  -22.7645 C   0  0  0  0  0  0  0  0  0  0  0  0
   12.4959  -18.0875  -23.5176 O   0  0  0  0  0  0  0  0  0  0  0  0
   14.7131  -16.6551  -19.2077 C   0  0  0  0  0  0  0  0  0  0  0  0
   14.3490  -15.3684  -18.8566 O   0  0  0  0  0  0  0  0  0  0  0  0
   10.9275  -16.5743  -22.9350 O   0  0  0  0  0  0  0  0  0  0  0  0
   14.5058  -17.5811  -18.3942 O   0  0  0  0  0  0  0  0  0  0  0  0
  2  1  1  1
  2  3  1  0
  4  3  1  0
  5  4  1  0
  6  5  1  0
  7  6  1  0
  8  9  2  0
  8  2  1  0
 10  8  1  0
 11 10  1  0
 11 12  1  1
 13 14  1  0
 13 12  1  0
 14 15  2  0
 16 17  2  0
 16 11  1  0
 18 14  1  0
 19 16  1  0
 20 21  1  6
 20 19  1  0
 22 23  1  0
 22 21  1  0
 23 27  1  0
 24 23  2  0
 25 20  1  0
 26 25  1  0
 28 25  2  0
M  END
$$$$
