KEE.pdb
     RDKit          3D

 28 27  0  0  1  0  0  0  0  0999 V2000
   23.3513  -19.4080  -15.8483 N   0  0  0  0  0  0  0  0  0  0  0  0
   22.6969  -18.8540  -17.0119 C   0  0  1  0  0  0  0  0  0  0  0  0
   21.4748  -19.5956  -17.3135 C   0  0  0  0  0  0  0  0  0  0  0  0
   20.4206  -19.5294  -16.2286 C   0  0  0  0  0  0  0  0  0  0  0  0
   19.1860  -20.2912  -16.6739 C   0  0  0  0  0  0  0  0  0  0  0  0
   18.0711  -20.1282  -15.6675 C   0  0  0  0  0  0  0  0  0  0  0  0
   16.9639  -20.9711  -16.0597 N   0  0  0  0  0  0  0  0  0  0  0  0
   22.5882  -17.4049  -16.8663 C   0  0  0  0  0  0  0  0  0  0  0  0
   22.3536  -16.9344  -15.7253 O   0  0  0  0  0  0  0  0  0  0  0  0
   22.7270  -16.4733  -17.9209 N   0  0  0  0  0  0  0  0  0  0  0  0
   22.6523  -15.0249  -17.7597 C   0  0  1  0  0  0  0  0  0  0  0  0
   23.5029  -14.4211  -18.8135 C   0  0  0  0  0  0  0  0  0  0  0  0
   24.9807  -14.4539  -18.5431 C   0  0  0  0  0  0  0  0  0  0  0  0
   25.6985  -13.7658  -19.6264 C   0  0  0  0  0  0  0  0  0  0  0  0
   25.9126  -12.5318  -19.5490 O   0  0  0  0  0  0  0  0  0  0  0  0
   21.2345  -14.5678  -17.8211 C   0  0  0  0  0  0  0  0  0  0  0  0
   20.3415  -15.3929  -18.1309 O   0  0  0  0  0  0  0  0  0  0  0  0
   26.1404  -14.4705  -20.7273 O   0  0  0  0  0  0  0  0  0  0  0  0
   20.8514  -13.2339  -17.5425 N   0  0  0  0  0  0  0  0  0  0  0  0
   19.5110  -12.7969  -17.3623 C   0  0  1  0  0  0  0  0  0  0  0  0
   18.7310  -13.6168  -16.3994 C   0  0  0  0  0  0  0  0  0  0  0  0
   17.3738  -13.1884  -16.0246 C   0  0  0  0  0  0  0  0  0  0  0  0
   16.6793  -13.9727  -15.0035 C   0  0  0  0  0  0  0  0  0  0  0  0
   17.0909  -15.1073  -14.6700 O   0  0  0  0  0  0  0  0  0  0  0  0
   19.4081  -11.3377  -17.0883 C   0  0  0  0  0  0  0  0  0  0  0  0
   18.1954  -10.6744  -17.1125 O   0  0  0  0  0  0  0  0  0  0  0  0
   15.5356  -13.5036  -14.3568 O   0  0  0  0  0  0  0  0  0  0  0  0
   20.4434  -10.6873  -16.8290 O   0  0  0  0  0  0  0  0  0  0  0  0
  2  1  1  1
  2  3  1  0
  4  3  1  0
  5  4  1  0
  6  5  1  0
  7  6  1  0
  8  9  2  0
  8  2  1  0
 10  8  1  0
 11 10  1  0
 11 12  1  6
 13 14  1  0
 13 12  1  0
 14 15  2  0
 16 17  2  0
 16 11  1  0
 18 14  1  0
 19 16  1  0
 20 21  1  1
 20 19  1  0
 22 23  1  0
 22 21  1  0
 23 27  1  0
 24 23  2  0
 25 20  1  0
 26 25  1  0
 28 25  2  0
M  END
$$$$
