KEE.pdb
     RDKit          3D

 28 27  0  0  1  0  0  0  0  0999 V2000
   28.3918  -21.0029  -16.6743 N   0  0  0  0  0  0  0  0  0  0  0  0
   28.0901  -20.1566  -15.5421 C   0  0  1  0  0  0  0  0  0  0  0  0
   27.9033  -18.7730  -15.9726 C   0  0  0  0  0  0  0  0  0  0  0  0
   27.6838  -18.6066  -17.4615 C   0  0  0  0  0  0  0  0  0  0  0  0
   27.5396  -17.1324  -17.7913 C   0  0  0  0  0  0  0  0  0  0  0  0
   27.2381  -16.9450  -19.2597 C   0  0  0  0  0  0  0  0  0  0  0  0
   27.0682  -15.5335  -19.5229 N   0  0  0  0  0  0  0  0  0  0  0  0
   27.0263  -20.7657  -14.7482 C   0  0  0  0  0  0  0  0  0  0  0  0
   26.2777  -21.6108  -15.2993 O   0  0  0  0  0  0  0  0  0  0  0  0
   26.7652  -20.4772  -13.3888 N   0  0  0  0  0  0  0  0  0  0  0  0
   25.6122  -20.9737  -12.6450 C   0  0  1  0  0  0  0  0  0  0  0  0
   25.8912  -20.7562  -11.2050 C   0  0  0  0  0  0  0  0  0  0  0  0
   24.8248  -21.2408  -10.2638 C   0  0  0  0  0  0  0  0  0  0  0  0
   25.2381  -20.9908   -8.8750 C   0  0  0  0  0  0  0  0  0  0  0  0
   26.2317  -20.2611   -8.6404 O   0  0  0  0  0  0  0  0  0  0  0  0
   24.3659  -20.2977  -13.1065 C   0  0  0  0  0  0  0  0  0  0  0  0
   24.4376  -19.1278  -13.5539 O   0  0  0  0  0  0  0  0  0  0  0  0
   24.5375  -21.5525   -7.8274 O   0  0  0  0  0  0  0  0  0  0  0  0
   23.0976  -20.9247  -13.0609 N   0  0  0  0  0  0  0  0  0  0  0  0
   21.9324  -20.4442  -13.7178 C   0  0  1  0  0  0  0  0  0  0  0  0
   22.0886  -20.2822  -15.1866 C   0  0  0  0  0  0  0  0  0  0  0  0
   20.9256  -19.8786  -15.9931 C   0  0  0  0  0  0  0  0  0  0  0  0
   21.1469  -18.8803  -17.0393 C   0  0  0  0  0  0  0  0  0  0  0  0
   22.3049  -18.5662  -17.3975 O   0  0  0  0  0  0  0  0  0  0  0  0
   20.7052  -21.2024  -13.3516 C   0  0  0  0  0  0  0  0  0  0  0  0
   19.4740  -20.5848  -13.2334 O   0  0  0  0  0  0  0  0  0  0  0  0
   20.0922  -18.2334  -17.6838 O   0  0  0  0  0  0  0  0  0  0  0  0
   20.7829  -22.4323  -13.1431 O   0  0  0  0  0  0  0  0  0  0  0  0
  2  1  1  6
  2  3  1  0
  4  3  1  0
  5  4  1  0
  6  5  1  0
  7  6  1  0
  8  9  2  0
  8  2  1  0
 10  8  1  0
 11 10  1  0
 11 12  1  1
 13 14  1  0
 13 12  1  0
 14 15  2  0
 16 17  2  0
 16 11  1  0
 18 14  1  0
 19 16  1  0
 20 21  1  6
 20 19  1  0
 22 23  1  0
 22 21  1  0
 23 27  1  0
 24 23  2  0
 25 20  1  0
 26 25  1  0
 28 25  2  0
M  END
$$$$
