KEE.pdb
     RDKit          3D

 28 27  0  0  1  0  0  0  0  0999 V2000
   27.5599  -19.9732  -15.7547 N   0  0  0  0  0  0  0  0  0  0  0  0
   26.7132  -19.3326  -16.7353 C   0  0  1  0  0  0  0  0  0  0  0  0
   27.3129  -19.4199  -18.0648 C   0  0  0  0  0  0  0  0  0  0  0  0
   28.8187  -19.2619  -18.0819 C   0  0  0  0  0  0  0  0  0  0  0  0
   29.2281  -18.4345  -19.2864 C   0  0  0  0  0  0  0  0  0  0  0  0
   30.7301  -18.2809  -19.3378 C   0  0  0  0  0  0  0  0  0  0  0  0
   31.0802  -17.5297  -20.5225 N   0  0  0  0  0  0  0  0  0  0  0  0
   25.3416  -19.8100  -16.5812 C   0  0  0  0  0  0  0  0  0  0  0  0
   24.4319  -19.2356  -17.2299 O   0  0  0  0  0  0  0  0  0  0  0  0
   24.9472  -20.8824  -15.7482 N   0  0  0  0  0  0  0  0  0  0  0  0
   23.6000  -21.4415  -15.7025 C   0  0  1  0  0  0  0  0  0  0  0  0
   23.7068  -22.7975  -15.1123 C   0  0  0  0  0  0  0  0  0  0  0  0
   24.9241  -23.5800  -15.5170 C   0  0  0  0  0  0  0  0  0  0  0  0
   24.9296  -24.8795  -14.8289 C   0  0  0  0  0  0  0  0  0  0  0  0
   25.8274  -25.7182  -15.0845 O   0  0  0  0  0  0  0  0  0  0  0  0
   22.6899  -20.5419  -14.9373 C   0  0  0  0  0  0  0  0  0  0  0  0
   23.0975  -20.0313  -13.8662 O   0  0  0  0  0  0  0  0  0  0  0  0
   23.9537  -25.1812  -13.9013 O   0  0  0  0  0  0  0  0  0  0  0  0
   21.3775  -20.2377  -15.3716 N   0  0  0  0  0  0  0  0  0  0  0  0
   20.4855  -19.3582  -14.7001 C   0  0  1  0  0  0  0  0  0  0  0  0
   19.8326  -18.3628  -15.5895 C   0  0  0  0  0  0  0  0  0  0  0  0
   18.8434  -17.4320  -15.0229 C   0  0  0  0  0  0  0  0  0  0  0  0
   18.1485  -16.5417  -15.9526 C   0  0  0  0  0  0  0  0  0  0  0  0
   18.5084  -16.4485  -17.1483 O   0  0  0  0  0  0  0  0  0  0  0  0
   19.5139  -20.0717  -13.8273 C   0  0  0  0  0  0  0  0  0  0  0  0
   18.9256  -19.4587  -12.7367 O   0  0  0  0  0  0  0  0  0  0  0  0
   17.0624  -15.7589  -15.5600 O   0  0  0  0  0  0  0  0  0  0  0  0
   19.2176  -21.2591  -14.0811 O   0  0  0  0  0  0  0  0  0  0  0  0
  2  1  1  1
  2  3  1  0
  4  3  1  0
  5  4  1  0
  6  5  1  0
  7  6  1  0
  8  9  2  0
  8  2  1  0
 10  8  1  0
 11 10  1  0
 11 12  1  1
 13 14  1  0
 13 12  1  0
 14 15  2  0
 16 17  2  0
 16 11  1  0
 18 14  1  0
 19 16  1  0
 20 21  1  6
 20 19  1  0
 22 23  1  0
 22 21  1  0
 23 27  1  0
 24 23  2  0
 25 20  1  0
 26 25  1  0
 28 25  2  0
M  END
$$$$
