KEE.pdb
     RDKit          3D

 28 27  0  0  1  0  0  0  0  0999 V2000
   16.2361  -14.4361  -18.3888 N   0  0  0  0  0  0  0  0  0  0  0  0
   17.2766  -14.0780  -17.4518 C   0  0  1  0  0  0  0  0  0  0  0  0
   18.5289  -14.7469  -17.7970 C   0  0  0  0  0  0  0  0  0  0  0  0
   18.3575  -16.0077  -18.6178 C   0  0  0  0  0  0  0  0  0  0  0  0
   19.6875  -16.7315  -18.7192 C   0  0  0  0  0  0  0  0  0  0  0  0
   19.5359  -18.0102  -19.5093 C   0  0  0  0  0  0  0  0  0  0  0  0
   20.8082  -18.6965  -19.5315 N   0  0  0  0  0  0  0  0  0  0  0  0
   17.3090  -12.6269  -17.2905 C   0  0  0  0  0  0  0  0  0  0  0  0
   17.1322  -11.9081  -18.3056 O   0  0  0  0  0  0  0  0  0  0  0  0
   17.5271  -11.9538  -16.0662 N   0  0  0  0  0  0  0  0  0  0  0  0
   17.5154  -10.5033  -15.9067 C   0  0  1  0  0  0  0  0  0  0  0  0
   16.4297  -10.1750  -14.9517 C   0  0  0  0  0  0  0  0  0  0  0  0
   15.0351  -10.2995  -15.4973 C   0  0  0  0  0  0  0  0  0  0  0  0
   14.0607   -9.9557  -14.4509 C   0  0  0  0  0  0  0  0  0  0  0  0
   12.8358   -9.9293  -14.7220 O   0  0  0  0  0  0  0  0  0  0  0  0
   18.8526  -10.0191  -15.4591 C   0  0  0  0  0  0  0  0  0  0  0  0
   19.4965  -10.6961  -14.6217 O   0  0  0  0  0  0  0  0  0  0  0  0
   14.4861   -9.6641  -13.1711 O   0  0  0  0  0  0  0  0  0  0  0  0
   19.4297   -8.8204  -15.9425 N   0  0  0  0  0  0  0  0  0  0  0  0
   20.7179   -8.3391  -15.5833 C   0  0  1  0  0  0  0  0  0  0  0  0
   21.5472   -7.9082  -16.7385 C   0  0  0  0  0  0  0  0  0  0  0  0
   21.3176   -6.5817  -17.3332 C   0  0  0  0  0  0  0  0  0  0  0  0
   22.1524   -6.2025  -18.4731 C   0  0  0  0  0  0  0  0  0  0  0  0
   21.9585   -5.1281  -19.0864 O   0  0  0  0  0  0  0  0  0  0  0  0
   20.6757   -7.3229  -14.4968 C   0  0  0  0  0  0  0  0  0  0  0  0
   21.8015   -6.9860  -13.7685 O   0  0  0  0  0  0  0  0  0  0  0  0
   23.1948   -7.0087  -18.9312 O   0  0  0  0  0  0  0  0  0  0  0  0
   19.5951   -6.7547  -14.2293 O   0  0  0  0  0  0  0  0  0  0  0  0
  2  1  1  6
  2  3  1  0
  4  3  1  0
  5  4  1  0
  6  5  1  0
  7  6  1  0
  8  9  2  0
  8  2  1  0
 10  8  1  0
 11 10  1  0
 11 12  1  1
 13 14  1  0
 13 12  1  0
 14 15  2  0
 16 17  2  0
 16 11  1  0
 18 14  1  0
 19 16  1  0
 20 21  1  6
 20 19  1  0
 22 23  1  0
 22 21  1  0
 23 27  1  0
 24 23  2  0
 25 20  1  0
 26 25  1  0
 28 25  2  0
M  END
$$$$
