KEE.pdb
     RDKit          3D

 28 27  0  0  1  0  0  0  0  0999 V2000
   23.5258  -19.5192  -15.6614 N   0  0  0  0  0  0  0  0  0  0  0  0
   23.7013  -18.5719  -16.7388 C   0  0  1  0  0  0  0  0  0  0  0  0
   24.5105  -19.1549  -17.8065 C   0  0  0  0  0  0  0  0  0  0  0  0
   25.9338  -19.4795  -17.4047 C   0  0  0  0  0  0  0  0  0  0  0  0
   26.0685  -20.9739  -17.1777 C   0  0  0  0  0  0  0  0  0  0  0  0
   27.5163  -21.3491  -16.9644 C   0  0  0  0  0  0  0  0  0  0  0  0
   27.6106  -22.7865  -16.8408 N   0  0  0  0  0  0  0  0  0  0  0  0
   22.4058  -18.0063  -17.1063 C   0  0  0  0  0  0  0  0  0  0  0  0
   22.3386  -17.2809  -18.1298 O   0  0  0  0  0  0  0  0  0  0  0  0
   21.2022  -18.2111  -16.3931 N   0  0  0  0  0  0  0  0  0  0  0  0
   19.9054  -17.6705  -16.7875 C   0  0  1  0  0  0  0  0  0  0  0  0
   18.8950  -18.7268  -16.5388 C   0  0  0  0  0  0  0  0  0  0  0  0
   19.0019  -19.9383  -17.4213 C   0  0  0  0  0  0  0  0  0  0  0  0
   17.8996  -20.8658  -17.1261 C   0  0  0  0  0  0  0  0  0  0  0  0
   17.1050  -20.6137  -16.1882 O   0  0  0  0  0  0  0  0  0  0  0  0
   19.6228  -16.4069  -16.0482 C   0  0  0  0  0  0  0  0  0  0  0  0
   19.8067  -16.3730  -14.8076 O   0  0  0  0  0  0  0  0  0  0  0  0
   17.7327  -22.0114  -17.8767 O   0  0  0  0  0  0  0  0  0  0  0  0
   19.1530  -15.2368  -16.6915 N   0  0  0  0  0  0  0  0  0  0  0  0
   18.7874  -14.0365  -16.0238 C   0  0  1  0  0  0  0  0  0  0  0  0
   19.2103  -12.7986  -16.7286 C   0  0  0  0  0  0  0  0  0  0  0  0
   18.9729  -11.4927  -16.0930 C   0  0  0  0  0  0  0  0  0  0  0  0
   19.4641  -10.3054  -16.7925 C   0  0  0  0  0  0  0  0  0  0  0  0
   19.8070  -10.3605  -17.9956 O   0  0  0  0  0  0  0  0  0  0  0  0
   17.3541  -14.0079  -15.6242 C   0  0  0  0  0  0  0  0  0  0  0  0
   16.9145  -13.2782  -14.5354 O   0  0  0  0  0  0  0  0  0  0  0  0
   19.5756   -9.0654  -16.1630 O   0  0  0  0  0  0  0  0  0  0  0  0
   16.5190  -14.6603  -16.2869 O   0  0  0  0  0  0  0  0  0  0  0  0
  2  1  1  1
  2  3  1  0
  4  3  1  0
  5  4  1  0
  6  5  1  0
  7  6  1  0
  8  9  2  0
  8  2  1  0
 10  8  1  0
 11 10  1  0
 11 12  1  1
 13 14  1  0
 13 12  1  0
 14 15  2  0
 16 17  2  0
 16 11  1  0
 18 14  1  0
 19 16  1  0
 20 21  1  6
 20 19  1  0
 22 23  1  0
 22 21  1  0
 23 27  1  0
 24 23  2  0
 25 20  1  0
 26 25  1  0
 28 25  2  0
M  END
$$$$
