KEE.pdb
     RDKit          3D

 28 27  0  0  1  0  0  0  0  0999 V2000
   24.9008  -20.8042  -14.9533 N   0  0  0  0  0  0  0  0  0  0  0  0
   23.5022  -20.5791  -15.2401 C   0  0  1  0  0  0  0  0  0  0  0  0
   23.0426  -21.4852  -16.2901 C   0  0  0  0  0  0  0  0  0  0  0  0
   24.0962  -21.8318  -17.3209 C   0  0  0  0  0  0  0  0  0  0  0  0
   23.9261  -20.9427  -18.5387 C   0  0  0  0  0  0  0  0  0  0  0  0
   24.9116  -21.3272  -19.6173 C   0  0  0  0  0  0  0  0  0  0  0  0
   24.7571  -20.4205  -20.7328 N   0  0  0  0  0  0  0  0  0  0  0  0
   22.7462  -20.5553  -13.9908 C   0  0  0  0  0  0  0  0  0  0  0  0
   23.1962  -21.1941  -13.0071 O   0  0  0  0  0  0  0  0  0  0  0  0
   21.5296  -19.8618  -13.7947 N   0  0  0  0  0  0  0  0  0  0  0  0
   20.7713  -19.8591  -12.5480 C   0  0  1  0  0  0  0  0  0  0  0  0
   19.8632  -18.6877  -12.5884 C   0  0  0  0  0  0  0  0  0  0  0  0
   18.7792  -18.7511  -13.6271 C   0  0  0  0  0  0  0  0  0  0  0  0
   17.9145  -17.5671  -13.5144 C   0  0  0  0  0  0  0  0  0  0  0  0
   16.9545  -17.4164  -14.3082 O   0  0  0  0  0  0  0  0  0  0  0  0
   20.0487  -21.1521  -12.3767 C   0  0  0  0  0  0  0  0  0  0  0  0
   19.6228  -21.7510  -13.3936 O   0  0  0  0  0  0  0  0  0  0  0  0
   18.1517  -16.6212  -12.5382 O   0  0  0  0  0  0  0  0  0  0  0  0
   19.8220  -21.7357  -11.1072 N   0  0  0  0  0  0  0  0  0  0  0  0
   19.0944  -22.9365  -10.8859 C   0  0  1  0  0  0  0  0  0  0  0  0
   19.1403  -23.4223   -9.4824 C   0  0  0  0  0  0  0  0  0  0  0  0
   18.5101  -24.7090   -9.1461 C   0  0  0  0  0  0  0  0  0  0  0  0
   18.6320  -25.1767   -7.7654 C   0  0  0  0  0  0  0  0  0  0  0  0
   19.2337  -24.4959   -6.9038 O   0  0  0  0  0  0  0  0  0  0  0  0
   17.7103  -22.8853  -11.4302 C   0  0  0  0  0  0  0  0  0  0  0  0
   16.8470  -21.8473  -11.1325 O   0  0  0  0  0  0  0  0  0  0  0  0
   18.0916  -26.3912   -7.3420 O   0  0  0  0  0  0  0  0  0  0  0  0
   17.3102  -23.8036  -12.1777 O   0  0  0  0  0  0  0  0  0  0  0  0
  2  1  1  1
  2  3  1  0
  4  3  1  0
  5  4  1  0
  6  5  1  0
  7  6  1  0
  8  9  2  0
  8  2  1  0
 10  8  1  0
 11 10  1  0
 11 12  1  6
 13 14  1  0
 13 12  1  0
 14 15  2  0
 16 17  2  0
 16 11  1  0
 18 14  1  0
 19 16  1  0
 20 21  1  1
 20 19  1  0
 22 23  1  0
 22 21  1  0
 23 27  1  0
 24 23  2  0
 25 20  1  0
 26 25  1  0
 28 25  2  0
M  END
$$$$
