KEE.pdb
     RDKit          3D

 28 27  0  0  1  0  0  0  0  0999 V2000
   22.7999  -13.8418  -19.1351 N   0  0  0  0  0  0  0  0  0  0  0  0
   23.5414  -12.6615  -18.7529 C   0  0  1  0  0  0  0  0  0  0  0  0
   24.5604  -12.3509  -19.7529 C   0  0  0  0  0  0  0  0  0  0  0  0
   25.9003  -13.0110  -19.5047 C   0  0  0  0  0  0  0  0  0  0  0  0
   26.2439  -13.9163  -20.6731 C   0  0  0  0  0  0  0  0  0  0  0  0
   27.6159  -14.5213  -20.4890 C   0  0  0  0  0  0  0  0  0  0  0  0
   27.8874  -15.4048  -21.6007 N   0  0  0  0  0  0  0  0  0  0  0  0
   22.6098  -11.5982  -18.3862 C   0  0  0  0  0  0  0  0  0  0  0  0
   22.4050  -10.6720  -19.2100 O   0  0  0  0  0  0  0  0  0  0  0  0
   21.9088  -11.5241  -17.1604 N   0  0  0  0  0  0  0  0  0  0  0  0
   20.9255  -10.4974  -16.8313 C   0  0  1  0  0  0  0  0  0  0  0  0
   19.7537  -11.1855  -16.2379 C   0  0  0  0  0  0  0  0  0  0  0  0
   18.6417  -10.2831  -15.7828 C   0  0  0  0  0  0  0  0  0  0  0  0
   17.5088  -11.0922  -15.3093 C   0  0  0  0  0  0  0  0  0  0  0  0
   17.3660  -12.2690  -15.7210 O   0  0  0  0  0  0  0  0  0  0  0  0
   21.5239   -9.4767  -15.9241 C   0  0  0  0  0  0  0  0  0  0  0  0
   22.2532   -9.8569  -14.9765 O   0  0  0  0  0  0  0  0  0  0  0  0
   16.6025  -10.5651  -14.4123 O   0  0  0  0  0  0  0  0  0  0  0  0
   21.3026   -8.0883  -16.0883 N   0  0  0  0  0  0  0  0  0  0  0  0
   21.8358   -7.0774  -15.2433 C   0  0  1  0  0  0  0  0  0  0  0  0
   21.7565   -5.7075  -15.8134 C   0  0  0  0  0  0  0  0  0  0  0  0
   22.1268   -4.5569  -14.9739 C   0  0  0  0  0  0  0  0  0  0  0  0
   21.9407   -3.2221  -15.5430 C   0  0  0  0  0  0  0  0  0  0  0  0
   21.7244   -3.0662  -16.7664 O   0  0  0  0  0  0  0  0  0  0  0  0
   21.3151   -7.1503  -13.8510 C   0  0  0  0  0  0  0  0  0  0  0  0
   22.1449   -7.0151  -12.7535 O   0  0  0  0  0  0  0  0  0  0  0  0
   21.9948   -2.0674  -14.7619 O   0  0  0  0  0  0  0  0  0  0  0  0
   20.0943   -7.3396  -13.6613 O   0  0  0  0  0  0  0  0  0  0  0  0
  2  1  1  6
  2  3  1  0
  4  3  1  0
  5  4  1  0
  6  5  1  0
  7  6  1  0
  8  9  2  0
  8  2  1  0
 10  8  1  0
 11 10  1  0
 11 12  1  1
 13 14  1  0
 13 12  1  0
 14 15  2  0
 16 17  2  0
 16 11  1  0
 18 14  1  0
 19 16  1  0
 20 21  1  6
 20 19  1  0
 22 23  1  0
 22 21  1  0
 23 27  1  0
 24 23  2  0
 25 20  1  0
 26 25  1  0
 28 25  2  0
M  END
$$$$
