KEE.pdb
     RDKit          3D

 28 27  0  0  1  0  0  0  0  0999 V2000
   25.4511  -20.5884  -16.8055 N   0  0  0  0  0  0  0  0  0  0  0  0
   25.8495  -20.5521  -15.4167 C   0  0  1  0  0  0  0  0  0  0  0  0
   27.1150  -19.8376  -15.2656 C   0  0  0  0  0  0  0  0  0  0  0  0
   28.1590  -20.1906  -16.3041 C   0  0  0  0  0  0  0  0  0  0  0  0
   28.5676  -21.6427  -16.1392 C   0  0  0  0  0  0  0  0  0  0  0  0
   29.6558  -22.0019  -17.1236 C   0  0  0  0  0  0  0  0  0  0  0  0
   29.9858  -23.4002  -16.9620 N   0  0  0  0  0  0  0  0  0  0  0  0
   24.7236  -20.1104  -14.5980 C   0  0  0  0  0  0  0  0  0  0  0  0
   24.9504  -19.7387  -13.4196 O   0  0  0  0  0  0  0  0  0  0  0  0
   23.3778  -20.0667  -15.0296 N   0  0  0  0  0  0  0  0  0  0  0  0
   22.2567  -19.6394  -14.1989 C   0  0  1  0  0  0  0  0  0  0  0  0
   21.6779  -18.4293  -14.8306 C   0  0  0  0  0  0  0  0  0  0  0  0
   20.9497  -18.6657  -16.1236 C   0  0  0  0  0  0  0  0  0  0  0  0
   20.3781  -17.4009  -16.6093 C   0  0  0  0  0  0  0  0  0  0  0  0
   19.7408  -17.3773  -17.6899 O   0  0  0  0  0  0  0  0  0  0  0  0
   21.2704  -20.7473  -14.0475 C   0  0  0  0  0  0  0  0  0  0  0  0
   21.2139  -21.6371  -14.9302 O   0  0  0  0  0  0  0  0  0  0  0  0
   20.5367  -16.2394  -15.8815 O   0  0  0  0  0  0  0  0  0  0  0  0
   20.3900  -20.8378  -12.9428 N   0  0  0  0  0  0  0  0  0  0  0  0
   19.4681  -21.8977  -12.7264 C   0  0  1  0  0  0  0  0  0  0  0  0
   19.4485  -22.4077  -11.3308 C   0  0  0  0  0  0  0  0  0  0  0  0
   18.4875  -23.4601  -10.9635 C   0  0  0  0  0  0  0  0  0  0  0  0
   18.4975  -23.9250   -9.5765 C   0  0  0  0  0  0  0  0  0  0  0  0
   17.7556  -24.8626   -9.2043 O   0  0  0  0  0  0  0  0  0  0  0  0
   18.1063  -21.5979  -13.2467 C   0  0  0  0  0  0  0  0  0  0  0  0
   17.4553  -20.4153  -12.9485 O   0  0  0  0  0  0  0  0  0  0  0  0
   19.3235  -23.3543   -8.6077 O   0  0  0  0  0  0  0  0  0  0  0  0
   17.5289  -22.4347  -13.9736 O   0  0  0  0  0  0  0  0  0  0  0  0
  2  1  1  6
  2  3  1  0
  4  3  1  0
  5  4  1  0
  6  5  1  0
  7  6  1  0
  8  9  2  0
  8  2  1  0
 10  8  1  0
 11 10  1  0
 11 12  1  6
 13 14  1  0
 13 12  1  0
 14 15  2  0
 16 17  2  0
 16 11  1  0
 18 14  1  0
 19 16  1  0
 20 21  1  1
 20 19  1  0
 22 23  1  0
 22 21  1  0
 23 27  1  0
 24 23  2  0
 25 20  1  0
 26 25  1  0
 28 25  2  0
M  END
$$$$
