QFQ.pdb
     RDKit          3D

 30 30  0  0  1  0  0  0  0  0999 V2000
   24.4917  -22.9179  -14.7357 N   0  0  0  0  0  0  0  0  0  0  0  0
   25.4417  -22.1112  -15.4532 C   0  0  0  0  0  0  0  0  0  0  0  0
   25.1859  -21.8031  -16.6357 O   0  0  0  0  0  0  0  0  0  0  0  0
   26.6720  -21.6720  -14.8073 C   0  0  0  0  0  0  0  0  0  0  0  0
   26.8089  -21.9479  -13.3464 C   0  0  0  0  0  0  0  0  0  0  0  0
   25.8944  -21.1624  -12.4493 C   0  0  2  0  0  0  0  0  0  0  0  0
   25.6903  -19.8332  -12.8380 N   0  0  0  0  0  0  0  0  0  0  0  0
   26.2365  -21.3494  -11.0138 C   0  0  0  0  0  0  0  0  0  0  0  0
   26.2249  -22.5206  -10.5769 O   0  0  0  0  0  0  0  0  0  0  0  0
   26.5700  -20.3022  -10.1213 N   0  0  0  0  0  0  0  0  0  0  0  0
   26.8080  -20.3920   -8.7287 C   0  0  1  0  0  0  0  0  0  0  0  0
   27.8234  -19.4219   -8.1589 C   0  0  0  0  0  0  0  0  0  0  0  0
   28.1209  -19.6006   -6.7444 C   0  0  0  0  0  0  0  0  0  0  0  0
   28.8923  -20.6794   -6.3615 C   0  0  0  0  0  0  0  0  0  0  0  0
   29.1988  -20.9026   -5.0468 C   0  0  0  0  0  0  0  0  0  0  0  0
   28.7326  -20.0371   -4.0707 C   0  0  0  0  0  0  0  0  0  0  0  0
   27.9645  -18.9570   -4.4173 C   0  0  0  0  0  0  0  0  0  0  0  0
   27.6673  -18.7537   -5.7651 C   0  0  0  0  0  0  0  0  0  0  0  0
   25.6242  -20.3770   -7.8598 C   0  0  0  0  0  0  0  0  0  0  0  0
   24.7639  -19.4552   -7.9539 O   0  0  0  0  0  0  0  0  0  0  0  0
   20.7556  -22.5518   -8.4453 N   0  0  0  0  0  0  0  0  0  0  0  0
   20.6354  -22.6779   -7.0109 C   0  0  0  0  0  0  0  0  0  0  0  0
   19.4858  -22.7923   -6.5806 O   0  0  0  0  0  0  0  0  0  0  0  0
   21.8308  -22.6606   -6.2083 C   0  0  0  0  0  0  0  0  0  0  0  0
   23.1422  -22.4070   -6.8214 C   0  0  0  0  0  0  0  0  0  0  0  0
   24.0872  -21.4791   -6.1679 C   0  0  2  0  0  0  0  0  0  0  0  0
   25.3523  -21.3641   -6.8713 N   0  0  0  0  0  0  0  0  0  0  0  0
   24.3143  -21.6553   -4.7433 C   0  0  0  0  0  0  0  0  0  0  0  0
   25.4578  -22.2797   -4.2715 O   0  0  0  0  0  0  0  0  0  0  0  0
   23.4803  -21.2524   -3.9028 O   0  0  0  0  0  0  0  0  0  0  0  0
  2  3  2  0
  2  1  1  0
  4  2  1  0
  5  6  1  0
  5  4  1  0
  6  7  1  6
  8  6  1  0
  9  8  2  0
 10  8  1  0
 11 12  1  1
 11 10  1  0
 12 13  1  0
 13 18  2  0
 14 13  1  0
 14 15  2  0
 15 16  1  0
 16 17  2  0
 18 17  1  0
 19 20  2  0
 19 11  1  0
 22 21  1  0
 22 24  1  0
 23 22  2  0
 25 24  1  0
 26 25  1  6
 26 27  1  0
 27 19  1  0
 28 26  1  0
 28 29  1  0
 30 28  2  0
M  END
$$$$
