QFQ.pdb
     RDKit          3D

 30 30  0  0  1  0  0  0  0  0999 V2000
   27.1402  -18.2271  -17.2552 N   0  0  0  0  0  0  0  0  0  0  0  0
   27.8243  -18.9286  -18.3078 C   0  0  0  0  0  0  0  0  0  0  0  0
   28.5754  -18.2786  -19.0642 O   0  0  0  0  0  0  0  0  0  0  0  0
   27.6357  -20.3632  -18.4810 C   0  0  0  0  0  0  0  0  0  0  0  0
   26.8119  -21.0695  -17.4554 C   0  0  0  0  0  0  0  0  0  0  0  0
   27.5822  -21.7299  -16.3470 C   0  0  2  0  0  0  0  0  0  0  0  0
   28.2628  -22.8953  -16.7184 N   0  0  0  0  0  0  0  0  0  0  0  0
   26.7705  -21.8475  -15.1060 C   0  0  0  0  0  0  0  0  0  0  0  0
   26.2439  -22.9578  -14.8771 O   0  0  0  0  0  0  0  0  0  0  0  0
   26.5579  -20.7986  -14.1791 N   0  0  0  0  0  0  0  0  0  0  0  0
   25.7382  -20.8137  -13.0250 C   0  0  1  0  0  0  0  0  0  0  0  0
   26.2592  -20.0509  -11.8236 C   0  0  0  0  0  0  0  0  0  0  0  0
   27.5642  -20.4795  -11.3393 C   0  0  0  0  0  0  0  0  0  0  0  0
   28.6702  -20.2604  -12.1356 C   0  0  0  0  0  0  0  0  0  0  0  0
   29.9206  -20.6473  -11.7367 C   0  0  0  0  0  0  0  0  0  0  0  0
   30.0944  -21.2720  -10.5125 C   0  0  0  0  0  0  0  0  0  0  0  0
   29.0172  -21.5043   -9.6984 C   0  0  0  0  0  0  0  0  0  0  0  0
   27.7540  -21.0995  -10.1303 C   0  0  0  0  0  0  0  0  0  0  0  0
   24.3280  -20.4529  -13.2188 C   0  0  0  0  0  0  0  0  0  0  0  0
   23.9680  -19.7589  -14.2126 O   0  0  0  0  0  0  0  0  0  0  0  0
   19.2223  -17.5627  -12.6786 N   0  0  0  0  0  0  0  0  0  0  0  0
   19.5974  -18.1270  -13.9548 C   0  0  0  0  0  0  0  0  0  0  0  0
   18.7495  -18.0406  -14.8455 O   0  0  0  0  0  0  0  0  0  0  0  0
   20.8960  -18.7336  -14.0925 C   0  0  0  0  0  0  0  0  0  0  0  0
   21.6978  -19.0669  -12.9067 C   0  0  0  0  0  0  0  0  0  0  0  0
   21.8867  -20.4814  -12.5264 C   0  0  2  0  0  0  0  0  0  0  0  0
   23.2809  -20.8395  -12.3357 N   0  0  0  0  0  0  0  0  0  0  0  0
   21.2128  -21.4832  -13.3354 C   0  0  0  0  0  0  0  0  0  0  0  0
   19.8315  -21.5924  -13.3371 O   0  0  0  0  0  0  0  0  0  0  0  0
   21.8621  -22.2787  -14.0493 O   0  0  0  0  0  0  0  0  0  0  0  0
  2  3  2  0
  2  1  1  0
  4  2  1  0
  5  6  1  0
  5  4  1  0
  6  7  1  6
  8  6  1  0
  9  8  2  0
 10  8  1  0
 11 12  1  1
 11 10  1  0
 12 13  1  0
 13 18  2  0
 14 13  1  0
 14 15  2  0
 15 16  1  0
 16 17  2  0
 18 17  1  0
 19 20  2  0
 19 11  1  0
 22 21  1  0
 22 24  1  0
 23 22  2  0
 25 24  1  0
 26 25  1  6
 26 27  1  0
 27 19  1  0
 28 26  1  0
 28 29  1  0
 30 28  2  0
M  END
$$$$
