QFQ.pdb
     RDKit          3D

 30 30  0  0  1  0  0  0  0  0999 V2000
   27.4328  -18.6447  -17.7401 N   0  0  0  0  0  0  0  0  0  0  0  0
   28.4659  -17.9881  -16.9854 C   0  0  0  0  0  0  0  0  0  0  0  0
   29.2870  -17.2746  -17.5983 O   0  0  0  0  0  0  0  0  0  0  0  0
   28.5458  -18.1606  -15.5405 C   0  0  0  0  0  0  0  0  0  0  0  0
   27.4538  -18.9421  -14.8877 C   0  0  0  0  0  0  0  0  0  0  0  0
   27.9027  -20.0859  -14.0226 C   0  0  2  0  0  0  0  0  0  0  0  0
   28.8010  -20.9677  -14.6348 N   0  0  0  0  0  0  0  0  0  0  0  0
   26.7571  -20.7378  -13.3331 C   0  0  0  0  0  0  0  0  0  0  0  0
   26.0862  -21.5554  -13.9995 O   0  0  0  0  0  0  0  0  0  0  0  0
   26.3814  -20.4966  -11.9896 N   0  0  0  0  0  0  0  0  0  0  0  0
   25.2807  -21.0413  -11.2855 C   0  0  1  0  0  0  0  0  0  0  0  0
   25.5180  -21.3753   -9.8264 C   0  0  0  0  0  0  0  0  0  0  0  0
   26.8733  -21.1334   -9.3508 C   0  0  0  0  0  0  0  0  0  0  0  0
   27.9219  -21.7602   -9.9935 C   0  0  0  0  0  0  0  0  0  0  0  0
   29.2155  -21.5767   -9.5873 C   0  0  0  0  0  0  0  0  0  0  0  0
   29.4927  -20.7488   -8.5118 C   0  0  0  0  0  0  0  0  0  0  0  0
   28.4747  -20.1120   -7.8522 C   0  0  0  0  0  0  0  0  0  0  0  0
   27.1653  -20.3172   -8.2876 C   0  0  0  0  0  0  0  0  0  0  0  0
   24.0118  -20.3089  -11.3859 C   0  0  0  0  0  0  0  0  0  0  0  0
   23.9603  -19.0678  -11.1497 O   0  0  0  0  0  0  0  0  0  0  0  0
   23.1000  -18.5389  -16.4287 N   0  0  0  0  0  0  0  0  0  0  0  0
   22.7885  -19.9496  -16.4050 C   0  0  0  0  0  0  0  0  0  0  0  0
   22.8620  -20.5299  -17.4901 O   0  0  0  0  0  0  0  0  0  0  0  0
   22.4238  -20.5605  -15.1531 C   0  0  0  0  0  0  0  0  0  0  0  0
   22.4816  -19.7949  -13.8999 C   0  0  0  0  0  0  0  0  0  0  0  0
   21.8326  -20.3301  -12.6860 C   0  0  2  0  0  0  0  0  0  0  0  0
   22.7735  -20.9115  -11.7451 N   0  0  0  0  0  0  0  0  0  0  0  0
   20.6945  -21.2138  -12.8752 C   0  0  0  0  0  0  0  0  0  0  0  0
   20.8681  -22.5749  -13.0681 O   0  0  0  0  0  0  0  0  0  0  0  0
   19.5256  -20.7689  -12.8740 O   0  0  0  0  0  0  0  0  0  0  0  0
  2  3  2  0
  2  1  1  0
  4  2  1  0
  5  6  1  0
  5  4  1  0
  6  7  1  6
  8  6  1  0
  9  8  2  0
 10  8  1  0
 11 12  1  1
 11 10  1  0
 12 13  1  0
 13 18  2  0
 14 13  1  0
 14 15  2  0
 15 16  1  0
 16 17  2  0
 18 17  1  0
 19 20  2  0
 19 11  1  0
 22 21  1  0
 22 24  1  0
 23 22  2  0
 25 24  1  0
 26 25  1  6
 26 27  1  0
 27 19  1  0
 28 26  1  0
 28 29  1  0
 30 28  2  0
M  END
$$$$
