QFQ.pdb
     RDKit          3D

 30 30  0  0  1  0  0  0  0  0999 V2000
   32.5769  -41.8434   -4.6699 N   0  0  0  0  0  0  0  0  0  0  0  0
   33.7711  -42.5039   -5.1234 C   0  0  0  0  0  0  0  0  0  0  0  0
   33.6530  -43.5531   -5.7896 O   0  0  0  0  0  0  0  0  0  0  0  0
   35.0830  -41.9551   -4.8045 C   0  0  0  0  0  0  0  0  0  0  0  0
   35.1172  -40.6275   -4.1222 C   0  0  0  0  0  0  0  0  0  0  0  0
   34.7768  -39.4455   -4.9855 C   0  0  2  0  0  0  0  0  0  0  0  0
   35.7171  -39.1556   -5.9811 N   0  0  0  0  0  0  0  0  0  0  0  0
   34.3440  -38.2767   -4.1736 C   0  0  0  0  0  0  0  0  0  0  0  0
   34.6406  -38.2899   -2.9592 O   0  0  0  0  0  0  0  0  0  0  0  0
   33.6278  -37.1648   -4.6787 N   0  0  0  0  0  0  0  0  0  0  0  0
   33.1655  -36.0335   -3.9643 C   0  0  1  0  0  0  0  0  0  0  0  0
   32.8969  -34.7876   -4.7842 C   0  0  0  0  0  0  0  0  0  0  0  0
   32.4112  -33.6429   -4.0258 C   0  0  0  0  0  0  0  0  0  0  0  0
   33.3119  -32.9187   -3.2711 C   0  0  0  0  0  0  0  0  0  0  0  0
   32.9129  -31.8380   -2.5328 C   0  0  0  0  0  0  0  0  0  0  0  0
   31.5824  -31.4521   -2.5335 C   0  0  0  0  0  0  0  0  0  0  0  0
   30.6631  -32.1497   -3.2718 C   0  0  0  0  0  0  0  0  0  0  0  0
   31.0976  -33.2473   -4.0151 C   0  0  0  0  0  0  0  0  0  0  0  0
   32.0208  -36.2470   -3.0695 C   0  0  0  0  0  0  0  0  0  0  0  0
   30.9580  -36.7841   -3.4948 O   0  0  0  0  0  0  0  0  0  0  0  0
   31.3268  -39.7030    1.6600 N   0  0  0  0  0  0  0  0  0  0  0  0
   30.0567  -39.0147    1.6336 C   0  0  0  0  0  0  0  0  0  0  0  0
   29.1775  -39.4906    2.3548 O   0  0  0  0  0  0  0  0  0  0  0  0
   29.9107  -37.8562    0.7908 C   0  0  0  0  0  0  0  0  0  0  0  0
   31.0406  -37.3638   -0.0097 C   0  0  0  0  0  0  0  0  0  0  0  0
   30.8911  -36.1255   -0.8004 C   0  0  2  0  0  0  0  0  0  0  0  0
   32.0090  -35.8809   -1.6942 N   0  0  0  0  0  0  0  0  0  0  0  0
   30.5459  -34.9127   -0.0778 C   0  0  0  0  0  0  0  0  0  0  0  0
   29.5315  -34.9049    0.8660 O   0  0  0  0  0  0  0  0  0  0  0  0
   31.1523  -33.8400   -0.2918 O   0  0  0  0  0  0  0  0  0  0  0  0
  2  3  2  0
  2  1  1  0
  4  2  1  0
  5  6  1  0
  5  4  1  0
  6  7  1  1
  8  6  1  0
  9  8  2  0
 10  8  1  0
 11 12  1  6
 11 10  1  0
 12 13  1  0
 13 18  2  0
 14 13  1  0
 14 15  2  0
 15 16  1  0
 16 17  2  0
 18 17  1  0
 19 20  2  0
 19 11  1  0
 22 21  1  0
 22 24  1  0
 23 22  2  0
 25 24  1  0
 26 25  1  1
 26 27  1  0
 27 19  1  0
 28 26  1  0
 28 29  1  0
 30 28  2  0
M  END
$$$$
