QFQ.pdb
     RDKit          3D

 30 30  0  0  1  0  0  0  0  0999 V2000
   26.5356  -26.8631  -15.9597 N   0  0  0  0  0  0  0  0  0  0  0  0
   27.0061  -25.9080  -16.9265 C   0  0  0  0  0  0  0  0  0  0  0  0
   27.4650  -26.3334  -18.0068 O   0  0  0  0  0  0  0  0  0  0  0  0
   26.9473  -24.4802  -16.6407 C   0  0  0  0  0  0  0  0  0  0  0  0
   26.4347  -24.0761  -15.2979 C   0  0  0  0  0  0  0  0  0  0  0  0
   25.1049  -23.3762  -15.2948 C   0  0  2  0  0  0  0  0  0  0  0  0
   24.8871  -22.5249  -16.3845 N   0  0  0  0  0  0  0  0  0  0  0  0
   24.7974  -22.7831  -13.9658 C   0  0  0  0  0  0  0  0  0  0  0  0
   24.9023  -23.5348  -12.9724 O   0  0  0  0  0  0  0  0  0  0  0  0
   24.3991  -21.4411  -13.7543 N   0  0  0  0  0  0  0  0  0  0  0  0
   24.0961  -20.8097  -12.5240 C   0  0  1  0  0  0  0  0  0  0  0  0
   25.0026  -19.6652  -12.1176 C   0  0  0  0  0  0  0  0  0  0  0  0
   26.4189  -19.9965  -12.0431 C   0  0  0  0  0  0  0  0  0  0  0  0
   27.2522  -19.5718  -13.0583 C   0  0  0  0  0  0  0  0  0  0  0  0
   28.5900  -19.8588  -13.0461 C   0  0  0  0  0  0  0  0  0  0  0  0
   29.1319  -20.5889  -12.0010 C   0  0  0  0  0  0  0  0  0  0  0  0
   28.3322  -21.0254  -10.9779 C   0  0  0  0  0  0  0  0  0  0  0  0
   26.9718  -20.7185  -11.0160 C   0  0  0  0  0  0  0  0  0  0  0  0
   22.7048  -20.3803  -12.3336 C   0  0  0  0  0  0  0  0  0  0  0  0
   22.4373  -19.2123  -11.9298 O   0  0  0  0  0  0  0  0  0  0  0  0
   21.9513  -17.8364  -15.8975 N   0  0  0  0  0  0  0  0  0  0  0  0
   20.5777  -18.2233  -16.1247 C   0  0  0  0  0  0  0  0  0  0  0  0
   19.8992  -17.4238  -16.7728 O   0  0  0  0  0  0  0  0  0  0  0  0
   20.1112  -19.4776  -15.5931 C   0  0  0  0  0  0  0  0  0  0  0  0
   20.9965  -20.3234  -14.7802 C   0  0  0  0  0  0  0  0  0  0  0  0
   20.5069  -20.8762  -13.5012 C   0  0  2  0  0  0  0  0  0  0  0  0
   21.5764  -21.2125  -12.5783 N   0  0  0  0  0  0  0  0  0  0  0  0
   19.5399  -21.9587  -13.5714 C   0  0  0  0  0  0  0  0  0  0  0  0
   18.1791  -21.7022  -13.6212 O   0  0  0  0  0  0  0  0  0  0  0  0
   19.9093  -23.1535  -13.5837 O   0  0  0  0  0  0  0  0  0  0  0  0
  2  3  2  0
  2  1  1  0
  4  2  1  0
  5  6  1  0
  5  4  1  0
  6  7  1  6
  8  6  1  0
  9  8  2  0
 10  8  1  0
 11 12  1  6
 11 10  1  0
 12 13  1  0
 13 18  2  0
 14 13  1  0
 14 15  2  0
 15 16  1  0
 16 17  2  0
 18 17  1  0
 19 20  2  0
 19 11  1  0
 22 21  1  0
 22 24  1  0
 23 22  2  0
 25 24  1  0
 26 25  1  6
 26 27  1  0
 27 19  1  0
 28 26  1  0
 28 29  1  0
 30 28  2  0
M  END
$$$$
