QFQ.pdb
     RDKit          3D

 30 30  0  0  1  0  0  0  0  0999 V2000
   29.0782  -19.0677  -16.1078 N   0  0  0  0  0  0  0  0  0  0  0  0
   28.1949  -19.2743  -17.2237 C   0  0  0  0  0  0  0  0  0  0  0  0
   28.6357  -19.0756  -18.3748 O   0  0  0  0  0  0  0  0  0  0  0  0
   26.8190  -19.7019  -17.0051 C   0  0  0  0  0  0  0  0  0  0  0  0
   26.4225  -20.0266  -15.6027 C   0  0  0  0  0  0  0  0  0  0  0  0
   27.0748  -21.2434  -15.0094 C   0  0  2  0  0  0  0  0  0  0  0  0
   26.9992  -22.3951  -15.8014 N   0  0  0  0  0  0  0  0  0  0  0  0
   26.6893  -21.4363  -13.5857 C   0  0  0  0  0  0  0  0  0  0  0  0
   25.6482  -22.0922  -13.3649 O   0  0  0  0  0  0  0  0  0  0  0  0
   27.4140  -20.9327  -12.4787 N   0  0  0  0  0  0  0  0  0  0  0  0
   26.9667  -20.7845  -11.1438 C   0  0  1  0  0  0  0  0  0  0  0  0
   28.0297  -20.4607  -10.1133 C   0  0  0  0  0  0  0  0  0  0  0  0
   27.5282  -20.1970   -8.7716 C   0  0  0  0  0  0  0  0  0  0  0  0
   27.0729  -18.9287   -8.4726 C   0  0  0  0  0  0  0  0  0  0  0  0
   26.5968  -18.6200   -7.2275 C   0  0  0  0  0  0  0  0  0  0  0  0
   26.5655  -19.5893   -6.2384 C   0  0  0  0  0  0  0  0  0  0  0  0
   27.0101  -20.8580   -6.5025 C   0  0  0  0  0  0  0  0  0  0  0  0
   27.4903  -21.1448   -7.7805 C   0  0  0  0  0  0  0  0  0  0  0  0
   25.8321  -19.8769  -10.9303 C   0  0  0  0  0  0  0  0  0  0  0  0
   25.8520  -18.6975  -11.3858 O   0  0  0  0  0  0  0  0  0  0  0  0
   22.6438  -21.6718  -14.7095 N   0  0  0  0  0  0  0  0  0  0  0  0
   21.5440  -21.0491  -14.0090 C   0  0  0  0  0  0  0  0  0  0  0  0
   20.4587  -21.0723  -14.5932 O   0  0  0  0  0  0  0  0  0  0  0  0
   21.7857  -20.4615  -12.7168 C   0  0  0  0  0  0  0  0  0  0  0  0
   23.1068  -20.5646  -12.0812 C   0  0  0  0  0  0  0  0  0  0  0  0
   23.3074  -20.0250  -10.7212 C   0  0  2  0  0  0  0  0  0  0  0  0
   24.6532  -20.2337  -10.2173 N   0  0  0  0  0  0  0  0  0  0  0  0
   22.3270  -20.3863   -9.7111 C   0  0  0  0  0  0  0  0  0  0  0  0
   21.0780  -19.7871   -9.6778 O   0  0  0  0  0  0  0  0  0  0  0  0
   22.5856  -21.2453   -8.8398 O   0  0  0  0  0  0  0  0  0  0  0  0
  2  3  2  0
  2  1  1  0
  4  2  1  0
  5  6  1  0
  5  4  1  0
  6  7  1  6
  8  6  1  0
  9  8  2  0
 10  8  1  0
 11 12  1  1
 11 10  1  0
 12 13  1  0
 13 18  2  0
 14 13  1  0
 14 15  2  0
 15 16  1  0
 16 17  2  0
 18 17  1  0
 19 20  2  0
 19 11  1  0
 22 21  1  0
 22 24  1  0
 23 22  2  0
 25 24  1  0
 26 25  1  6
 26 27  1  0
 27 19  1  0
 28 26  1  0
 28 29  1  0
 30 28  2  0
M  END
$$$$
