QFQ.pdb
     RDKit          3D

 30 30  0  0  1  0  0  0  0  0999 V2000
   22.2211  -27.1696  -18.4166 N   0  0  0  0  0  0  0  0  0  0  0  0
   22.8963  -28.4020  -18.7224 C   0  0  0  0  0  0  0  0  0  0  0  0
   22.6281  -28.9748  -19.7988 O   0  0  0  0  0  0  0  0  0  0  0  0
   23.8659  -28.9620  -17.7898 C   0  0  0  0  0  0  0  0  0  0  0  0
   24.1625  -28.1695  -16.5596 C   0  0  0  0  0  0  0  0  0  0  0  0
   25.1270  -27.0311  -16.7382 C   0  0  2  0  0  0  0  0  0  0  0  0
   26.4766  -27.4021  -16.7543 N   0  0  0  0  0  0  0  0  0  0  0  0
   24.8024  -25.8884  -15.8429 C   0  0  0  0  0  0  0  0  0  0  0  0
   25.3082  -25.9034  -14.6998 O   0  0  0  0  0  0  0  0  0  0  0  0
   23.9695  -24.7992  -16.1953 N   0  0  0  0  0  0  0  0  0  0  0  0
   23.6784  -23.6459  -15.4277 C   0  0  1  0  0  0  0  0  0  0  0  0
   24.2380  -22.3369  -15.9473 C   0  0  0  0  0  0  0  0  0  0  0  0
   25.6761  -22.3289  -16.1776 C   0  0  0  0  0  0  0  0  0  0  0  0
   26.4915  -21.7128  -15.2497 C   0  0  0  0  0  0  0  0  0  0  0  0
   27.8490  -21.6676  -15.4158 C   0  0  0  0  0  0  0  0  0  0  0  0
   28.4295  -22.2474  -16.5320 C   0  0  0  0  0  0  0  0  0  0  0  0
   27.6484  -22.8667  -17.4718 C   0  0  0  0  0  0  0  0  0  0  0  0
   26.2673  -22.8978  -17.2771 C   0  0  0  0  0  0  0  0  0  0  0  0
   22.2688  -23.4323  -15.0754 C   0  0  0  0  0  0  0  0  0  0  0  0
   21.3728  -23.4240  -15.9675 O   0  0  0  0  0  0  0  0  0  0  0  0
   19.5609  -24.2466   -9.3306 N   0  0  0  0  0  0  0  0  0  0  0  0
   18.9307  -24.9300  -10.4368 C   0  0  0  0  0  0  0  0  0  0  0  0
   18.2088  -25.8821  -10.1333 O   0  0  0  0  0  0  0  0  0  0  0  0
   19.1834  -24.4658  -11.7763 C   0  0  0  0  0  0  0  0  0  0  0  0
   20.0791  -23.3261  -12.0187 C   0  0  0  0  0  0  0  0  0  0  0  0
   20.4214  -22.9477  -13.4046 C   0  0  2  0  0  0  0  0  0  0  0  0
   21.8055  -23.2236  -13.7460 N   0  0  0  0  0  0  0  0  0  0  0  0
   20.0489  -21.6123  -13.8405 C   0  0  0  0  0  0  0  0  0  0  0  0
   18.8586  -21.3834  -14.5119 O   0  0  0  0  0  0  0  0  0  0  0  0
   20.7957  -20.6323  -13.6260 O   0  0  0  0  0  0  0  0  0  0  0  0
  2  3  2  0
  2  1  1  0
  4  2  1  0
  5  6  1  0
  5  4  1  0
  6  7  1  1
  8  6  1  0
  9  8  2  0
 10  8  1  0
 11 12  1  6
 11 10  1  0
 12 13  1  0
 13 18  2  0
 14 13  1  0
 14 15  2  0
 15 16  1  0
 16 17  2  0
 18 17  1  0
 19 20  2  0
 19 11  1  0
 22 21  1  0
 22 24  1  0
 23 22  2  0
 25 24  1  0
 26 25  1  1
 26 27  1  0
 27 19  1  0
 28 26  1  0
 28 29  1  0
 30 28  2  0
M  END
$$$$
