QFQ.pdb
     RDKit          3D

 30 30  0  0  1  0  0  0  0  0999 V2000
   18.4440  -16.3154  -19.1437 N   0  0  0  0  0  0  0  0  0  0  0  0
   19.8655  -16.4912  -19.0162 C   0  0  0  0  0  0  0  0  0  0  0  0
   20.5592  -16.4932  -20.0542 O   0  0  0  0  0  0  0  0  0  0  0  0
   20.4715  -16.6656  -17.7024 C   0  0  0  0  0  0  0  0  0  0  0  0
   20.9815  -15.4390  -17.0206 C   0  0  0  0  0  0  0  0  0  0  0  0
   22.4436  -15.1504  -17.2131 C   0  0  2  0  0  0  0  0  0  0  0  0
   23.2925  -16.2390  -16.9813 N   0  0  0  0  0  0  0  0  0  0  0  0
   22.8488  -13.8864  -16.5415 C   0  0  0  0  0  0  0  0  0  0  0  0
   22.8585  -13.8875  -15.2915 O   0  0  0  0  0  0  0  0  0  0  0  0
   23.2193  -12.6980  -17.2157 N   0  0  0  0  0  0  0  0  0  0  0  0
   23.5957  -11.4582  -16.6452 C   0  0  1  0  0  0  0  0  0  0  0  0
   24.9770  -10.9480  -17.0034 C   0  0  0  0  0  0  0  0  0  0  0  0
   26.0657  -11.8792  -16.7412 C   0  0  0  0  0  0  0  0  0  0  0  0
   26.4191  -12.7786  -17.7269 C   0  0  0  0  0  0  0  0  0  0  0  0
   27.4291  -13.6818  -17.5355 C   0  0  0  0  0  0  0  0  0  0  0  0
   28.1186  -13.7050  -16.3342 C   0  0  0  0  0  0  0  0  0  0  0  0
   27.7925  -12.8258  -15.3355 C   0  0  0  0  0  0  0  0  0  0  0  0
   26.7586  -11.9160  -15.5578 C   0  0  0  0  0  0  0  0  0  0  0  0
   22.6447  -10.3501  -16.8010 C   0  0  0  0  0  0  0  0  0  0  0  0
   21.7389  -10.3934  -17.6822 O   0  0  0  0  0  0  0  0  0  0  0  0
   17.5955   -9.9482  -15.7611 N   0  0  0  0  0  0  0  0  0  0  0  0
   17.7453   -8.5167  -15.6343 C   0  0  0  0  0  0  0  0  0  0  0  0
   16.7001   -7.8839  -15.4705 O   0  0  0  0  0  0  0  0  0  0  0  0
   19.0655   -7.9462  -15.7072 C   0  0  0  0  0  0  0  0  0  0  0  0
   20.2474   -8.8070  -15.8555 C   0  0  0  0  0  0  0  0  0  0  0  0
   21.5860   -8.1954  -15.9787 C   0  0  2  0  0  0  0  0  0  0  0  0
   22.6598   -9.1726  -16.0017 N   0  0  0  0  0  0  0  0  0  0  0  0
   21.9080   -7.1108  -15.0666 C   0  0  0  0  0  0  0  0  0  0  0  0
   21.0915   -5.9962  -14.9617 O   0  0  0  0  0  0  0  0  0  0  0  0
   22.9349   -7.1511  -14.3539 O   0  0  0  0  0  0  0  0  0  0  0  0
  2  3  2  0
  2  1  1  0
  4  2  1  0
  5  6  1  0
  5  4  1  0
  6  7  1  1
  8  6  1  0
  9  8  2  0
 10  8  1  0
 11 12  1  6
 11 10  1  0
 12 13  1  0
 13 18  2  0
 14 13  1  0
 14 15  2  0
 15 16  1  0
 16 17  2  0
 18 17  1  0
 19 20  2  0
 19 11  1  0
 22 21  1  0
 22 24  1  0
 23 22  2  0
 25 24  1  0
 26 25  1  1
 26 27  1  0
 27 19  1  0
 28 26  1  0
 28 29  1  0
 30 28  2  0
M  END
$$$$
