QFQ.pdb
     RDKit          3D

 30 30  0  0  1  0  0  0  0  0999 V2000
   26.7263  -18.6084  -19.0467 N   0  0  0  0  0  0  0  0  0  0  0  0
   26.7691  -19.5915  -20.0954 C   0  0  0  0  0  0  0  0  0  0  0  0
   27.2625  -19.2657  -21.1951 O   0  0  0  0  0  0  0  0  0  0  0  0
   26.2432  -20.9319  -19.8709 C   0  0  0  0  0  0  0  0  0  0  0  0
   25.7541  -21.2490  -18.4963 C   0  0  0  0  0  0  0  0  0  0  0  0
   26.8172  -21.3683  -17.4410 C   0  0  2  0  0  0  0  0  0  0  0  0
   27.8561  -22.2536  -17.7517 N   0  0  0  0  0  0  0  0  0  0  0  0
   26.2306  -21.5427  -16.0852 C   0  0  0  0  0  0  0  0  0  0  0  0
   25.1695  -22.1991  -16.0076 O   0  0  0  0  0  0  0  0  0  0  0  0
   26.7873  -21.0211  -14.8926 N   0  0  0  0  0  0  0  0  0  0  0  0
   26.2045  -20.9938  -13.6027 C   0  0  1  0  0  0  0  0  0  0  0  0
   27.1317  -20.6439  -12.4562 C   0  0  0  0  0  0  0  0  0  0  0  0
   26.4950  -20.5700  -11.1484 C   0  0  0  0  0  0  0  0  0  0  0  0
   26.3206  -21.7360  -10.4304 C   0  0  0  0  0  0  0  0  0  0  0  0
   25.7228  -21.7297   -9.1996 C   0  0  0  0  0  0  0  0  0  0  0  0
   25.2793  -20.5372   -8.6515 C   0  0  0  0  0  0  0  0  0  0  0  0
   25.4371  -19.3624   -9.3383 C   0  0  0  0  0  0  0  0  0  0  0  0
   26.0498  -19.3982  -10.5911 C   0  0  0  0  0  0  0  0  0  0  0  0
   24.9769  -20.2016  -13.4555 C   0  0  0  0  0  0  0  0  0  0  0  0
   24.9574  -18.9750  -13.7619 O   0  0  0  0  0  0  0  0  0  0  0  0
   20.8628  -17.7850  -16.2268 N   0  0  0  0  0  0  0  0  0  0  0  0
   21.2622  -19.1591  -16.4273 C   0  0  0  0  0  0  0  0  0  0  0  0
   20.9875  -19.6384  -17.5293 O   0  0  0  0  0  0  0  0  0  0  0  0
   21.9321  -19.8520  -15.3574 C   0  0  0  0  0  0  0  0  0  0  0  0
   22.2371  -19.1655  -14.0943 C   0  0  0  0  0  0  0  0  0  0  0  0
   22.5171  -19.9589  -12.8805 C   0  0  2  0  0  0  0  0  0  0  0  0
   23.7458  -20.7273  -12.9721 N   0  0  0  0  0  0  0  0  0  0  0  0
   21.4399  -20.7863  -12.3638 C   0  0  0  0  0  0  0  0  0  0  0  0
   21.5754  -22.1620  -12.2682 O   0  0  0  0  0  0  0  0  0  0  0  0
   20.3576  -20.2794  -11.9953 O   0  0  0  0  0  0  0  0  0  0  0  0
  2  3  2  0
  2  1  1  0
  4  2  1  0
  5  6  1  0
  5  4  1  0
  6  7  1  6
  8  6  1  0
  9  8  2  0
 10  8  1  0
 11 12  1  1
 11 10  1  0
 12 13  1  0
 13 18  2  0
 14 13  1  0
 14 15  2  0
 15 16  1  0
 16 17  2  0
 18 17  1  0
 19 20  2  0
 19 11  1  0
 22 21  1  0
 22 24  1  0
 23 22  2  0
 25 24  1  0
 26 25  1  6
 26 27  1  0
 27 19  1  0
 28 26  1  0
 28 29  1  0
 30 28  2  0
M  END
$$$$
