QFQ.pdb
     RDKit          3D

 30 30  0  0  1  0  0  0  0  0999 V2000
   29.6358  -20.9001  -17.2708 N   0  0  0  0  0  0  0  0  0  0  0  0
   29.0075  -19.7191  -17.7985 C   0  0  0  0  0  0  0  0  0  0  0  0
   29.4243  -19.2581  -18.8813 O   0  0  0  0  0  0  0  0  0  0  0  0
   27.9135  -19.0815  -17.0771 C   0  0  0  0  0  0  0  0  0  0  0  0
   26.8769  -19.9774  -16.4837 C   0  0  0  0  0  0  0  0  0  0  0  0
   27.3947  -21.2363  -15.8473 C   0  0  2  0  0  0  0  0  0  0  0  0
   27.4111  -22.3553  -16.6880 N   0  0  0  0  0  0  0  0  0  0  0  0
   26.7873  -21.4674  -14.5092 C   0  0  0  0  0  0  0  0  0  0  0  0
   25.7388  -22.1471  -14.4732 O   0  0  0  0  0  0  0  0  0  0  0  0
   27.3114  -20.9747  -13.2898 N   0  0  0  0  0  0  0  0  0  0  0  0
   26.6973  -20.9855  -12.0143 C   0  0  1  0  0  0  0  0  0  0  0  0
   27.5913  -20.6488  -10.8378 C   0  0  0  0  0  0  0  0  0  0  0  0
   26.8982  -20.4583   -9.5711 C   0  0  0  0  0  0  0  0  0  0  0  0
   26.3802  -21.5641   -8.9273 C   0  0  0  0  0  0  0  0  0  0  0  0
   25.7133  -21.4462   -7.7384 C   0  0  0  0  0  0  0  0  0  0  0  0
   25.5474  -20.1992   -7.1583 C   0  0  0  0  0  0  0  0  0  0  0  0
   26.0494  -19.0817   -7.7715 C   0  0  0  0  0  0  0  0  0  0  0  0
   26.7249  -19.2311   -8.9829 C   0  0  0  0  0  0  0  0  0  0  0  0
   25.4548  -20.2146  -11.8792 C   0  0  0  0  0  0  0  0  0  0  0  0
   25.4251  -18.9810  -12.1553 O   0  0  0  0  0  0  0  0  0  0  0  0
   21.4818  -19.6164  -15.6280 N   0  0  0  0  0  0  0  0  0  0  0  0
   21.5620  -20.9397  -15.0532 C   0  0  0  0  0  0  0  0  0  0  0  0
   21.2230  -21.8642  -15.7948 O   0  0  0  0  0  0  0  0  0  0  0  0
   22.0174  -21.0815  -13.6945 C   0  0  0  0  0  0  0  0  0  0  0  0
   22.4837  -19.9136  -12.9340 C   0  0  0  0  0  0  0  0  0  0  0  0
   22.9431  -20.0848  -11.5409 C   0  0  2  0  0  0  0  0  0  0  0  0
   24.2197  -20.7697  -11.4412 N   0  0  0  0  0  0  0  0  0  0  0  0
   21.9943  -20.6419  -10.5915 C   0  0  0  0  0  0  0  0  0  0  0  0
   20.7477  -20.0670  -10.4028 O   0  0  0  0  0  0  0  0  0  0  0  0
   22.2788  -21.6539   -9.9139 O   0  0  0  0  0  0  0  0  0  0  0  0
  2  3  2  0
  2  1  1  0
  4  2  1  0
  5  6  1  0
  5  4  1  0
  6  7  1  6
  8  6  1  0
  9  8  2  0
 10  8  1  0
 11 12  1  1
 11 10  1  0
 12 13  1  0
 13 18  2  0
 14 13  1  0
 14 15  2  0
 15 16  1  0
 16 17  2  0
 18 17  1  0
 19 20  2  0
 19 11  1  0
 22 21  1  0
 22 24  1  0
 23 22  2  0
 25 24  1  0
 26 25  1  6
 26 27  1  0
 27 19  1  0
 28 26  1  0
 28 29  1  0
 30 28  2  0
M  END
$$$$
