QFQ.pdb
     RDKit          3D

 30 30  0  0  1  0  0  0  0  0999 V2000
   25.3140  -18.5693  -18.6764 N   0  0  0  0  0  0  0  0  0  0  0  0
   26.3819  -19.5311  -18.7295 C   0  0  0  0  0  0  0  0  0  0  0  0
   26.4976  -20.2340  -19.7548 O   0  0  0  0  0  0  0  0  0  0  0  0
   27.2993  -19.6763  -17.6066 C   0  0  0  0  0  0  0  0  0  0  0  0
   26.6946  -19.8378  -16.2510 C   0  0  0  0  0  0  0  0  0  0  0  0
   27.2966  -20.9175  -15.3966 C   0  0  2  0  0  0  0  0  0  0  0  0
   27.7864  -22.0214  -16.1042 N   0  0  0  0  0  0  0  0  0  0  0  0
   26.4263  -21.2526  -14.2377 C   0  0  0  0  0  0  0  0  0  0  0  0
   25.8584  -22.3660  -14.2596 O   0  0  0  0  0  0  0  0  0  0  0  0
   26.2016  -20.4049  -13.1263 N   0  0  0  0  0  0  0  0  0  0  0  0
   25.3372  -20.6263  -12.0273 C   0  0  1  0  0  0  0  0  0  0  0  0
   25.8203  -20.1204  -10.6829 C   0  0  0  0  0  0  0  0  0  0  0  0
   27.1740  -20.5201  -10.3235 C   0  0  0  0  0  0  0  0  0  0  0  0
   27.4660  -20.7468   -8.9936 C   0  0  0  0  0  0  0  0  0  0  0  0
   28.7215  -21.1176   -8.5952 C   0  0  0  0  0  0  0  0  0  0  0  0
   29.7283  -21.2722   -9.5341 C   0  0  0  0  0  0  0  0  0  0  0  0
   29.4714  -21.0548  -10.8621 C   0  0  0  0  0  0  0  0  0  0  0  0
   28.1826  -20.6775  -11.2400 C   0  0  0  0  0  0  0  0  0  0  0  0
   23.9403  -20.2068  -12.1980 C   0  0  0  0  0  0  0  0  0  0  0  0
   23.6513  -18.9982  -12.4317 O   0  0  0  0  0  0  0  0  0  0  0  0
   22.2724  -21.6230  -16.9462 N   0  0  0  0  0  0  0  0  0  0  0  0
   21.4914  -20.4627  -16.5834 C   0  0  0  0  0  0  0  0  0  0  0  0
   21.2001  -19.7051  -17.5113 O   0  0  0  0  0  0  0  0  0  0  0  0
   21.1202  -20.2773  -15.2046 C   0  0  0  0  0  0  0  0  0  0  0  0
   21.5276  -21.2498  -14.1808 C   0  0  0  0  0  0  0  0  0  0  0  0
   21.5502  -20.8486  -12.7597 C   0  0  2  0  0  0  0  0  0  0  0  0
   22.8297  -21.0932  -12.1181 N   0  0  0  0  0  0  0  0  0  0  0  0
   20.4635  -21.3205  -11.9181 C   0  0  0  0  0  0  0  0  0  0  0  0
   20.7118  -21.8962  -10.6824 O   0  0  0  0  0  0  0  0  0  0  0  0
   19.2728  -21.2246  -12.2886 O   0  0  0  0  0  0  0  0  0  0  0  0
  2  3  2  0
  2  1  1  0
  4  2  1  0
  5  6  1  0
  5  4  1  0
  6  7  1  6
  8  6  1  0
  9  8  2  0
 10  8  1  0
 11 12  1  1
 11 10  1  0
 12 13  1  0
 13 18  2  0
 14 13  1  0
 14 15  2  0
 15 16  1  0
 16 17  2  0
 18 17  1  0
 19 20  2  0
 19 11  1  0
 22 21  1  0
 22 24  1  0
 23 22  2  0
 25 24  1  0
 26 25  1  6
 26 27  1  0
 27 19  1  0
 28 26  1  0
 28 29  1  0
 30 28  2  0
M  END
$$$$
