QFQ.pdb
     RDKit          3D

 30 30  0  0  1  0  0  0  0  0999 V2000
   28.4585  -20.0103  -17.7269 N   0  0  0  0  0  0  0  0  0  0  0  0
   28.1925  -20.7849  -18.9090 C   0  0  0  0  0  0  0  0  0  0  0  0
   28.9884  -20.6988  -19.8670 O   0  0  0  0  0  0  0  0  0  0  0  0
   27.0173  -21.6438  -18.9782 C   0  0  0  0  0  0  0  0  0  0  0  0
   26.2098  -21.7930  -17.7312 C   0  0  0  0  0  0  0  0  0  0  0  0
   26.6903  -22.8423  -16.7688 C   0  0  2  0  0  0  0  0  0  0  0  0
   26.6867  -24.1479  -17.2738 N   0  0  0  0  0  0  0  0  0  0  0  0
   26.0651  -22.6880  -15.4279 C   0  0  0  0  0  0  0  0  0  0  0  0
   24.9871  -23.2903  -15.2332 O   0  0  0  0  0  0  0  0  0  0  0  0
   26.6032  -21.9140  -14.3716 N   0  0  0  0  0  0  0  0  0  0  0  0
   25.9809  -21.5623  -13.1496 C   0  0  1  0  0  0  0  0  0  0  0  0
   26.8984  -21.0714  -12.0479 C   0  0  0  0  0  0  0  0  0  0  0  0
   26.2307  -20.7066  -10.8059 C   0  0  0  0  0  0  0  0  0  0  0  0
   26.1246  -19.3695  -10.4796 C   0  0  0  0  0  0  0  0  0  0  0  0
   25.5143  -18.9669   -9.3230 C   0  0  0  0  0  0  0  0  0  0  0  0
   24.9883  -19.9085   -8.4537 C   0  0  0  0  0  0  0  0  0  0  0  0
   25.0771  -21.2435   -8.7481 C   0  0  0  0  0  0  0  0  0  0  0  0
   25.7047  -21.6257   -9.9339 C   0  0  0  0  0  0  0  0  0  0  0  0
   24.8393  -20.6427  -13.2371 C   0  0  0  0  0  0  0  0  0  0  0  0
   24.9720  -19.4926  -13.7453 O   0  0  0  0  0  0  0  0  0  0  0  0
   23.0150  -19.8270  -16.8906 N   0  0  0  0  0  0  0  0  0  0  0  0
   21.9948  -20.7457  -16.4400 C   0  0  0  0  0  0  0  0  0  0  0  0
   21.6413  -21.5941  -17.2616 O   0  0  0  0  0  0  0  0  0  0  0  0
   21.4770  -20.6093  -15.1033 C   0  0  0  0  0  0  0  0  0  0  0  0
   22.0424  -19.6178  -14.1775 C   0  0  0  0  0  0  0  0  0  0  0  0
   22.4153  -20.0261  -12.8081 C   0  0  2  0  0  0  0  0  0  0  0  0
   23.5305  -20.9555  -12.7736 N   0  0  0  0  0  0  0  0  0  0  0  0
   21.3467  -20.4852  -11.9367 C   0  0  0  0  0  0  0  0  0  0  0  0
   20.2266  -19.7036  -11.7032 O   0  0  0  0  0  0  0  0  0  0  0  0
   21.4108  -21.5977  -11.3689 O   0  0  0  0  0  0  0  0  0  0  0  0
  2  3  2  0
  2  1  1  0
  4  2  1  0
  5  6  1  0
  5  4  1  0
  6  7  1  6
  8  6  1  0
  9  8  2  0
 10  8  1  0
 11 12  1  1
 11 10  1  0
 12 13  1  0
 13 18  2  0
 14 13  1  0
 14 15  2  0
 15 16  1  0
 16 17  2  0
 18 17  1  0
 19 20  2  0
 19 11  1  0
 22 21  1  0
 22 24  1  0
 23 22  2  0
 25 24  1  0
 26 25  1  6
 26 27  1  0
 27 19  1  0
 28 26  1  0
 28 29  1  0
 30 28  2  0
M  END
$$$$
