QFQ.pdb
     RDKit          3D

 30 30  0  0  1  0  0  0  0  0999 V2000
   27.3697  -25.7299  -20.5285 N   0  0  0  0  0  0  0  0  0  0  0  0
   27.9368  -26.9539  -20.0302 C   0  0  0  0  0  0  0  0  0  0  0  0
   28.4558  -27.7435  -20.8463 O   0  0  0  0  0  0  0  0  0  0  0  0
   27.8984  -27.2574  -18.6054 C   0  0  0  0  0  0  0  0  0  0  0  0
   27.2208  -26.2668  -17.7172 C   0  0  0  0  0  0  0  0  0  0  0  0
   28.0554  -25.0868  -17.3061 C   0  0  2  0  0  0  0  0  0  0  0  0
   29.3281  -25.4086  -16.8202 N   0  0  0  0  0  0  0  0  0  0  0  0
   27.2852  -24.1346  -16.4616 C   0  0  0  0  0  0  0  0  0  0  0  0
   27.4836  -24.1835  -15.2284 O   0  0  0  0  0  0  0  0  0  0  0  0
   26.3545  -23.1892  -16.9560 N   0  0  0  0  0  0  0  0  0  0  0  0
   25.5760  -22.2686  -16.2141 C   0  0  1  0  0  0  0  0  0  0  0  0
   25.5921  -20.8334  -16.7005 C   0  0  0  0  0  0  0  0  0  0  0  0
   26.9158  -20.2381  -16.8224 C   0  0  0  0  0  0  0  0  0  0  0  0
   27.3459  -19.3734  -15.8362 C   0  0  0  0  0  0  0  0  0  0  0  0
   28.5766  -18.7787  -15.9001 C   0  0  0  0  0  0  0  0  0  0  0  0
   29.4172  -19.0405  -16.9696 C   0  0  0  0  0  0  0  0  0  0  0  0
   29.0204  -19.8939  -17.9651 C   0  0  0  0  0  0  0  0  0  0  0  0
   27.7606  -20.4862  -17.8744 C   0  0  0  0  0  0  0  0  0  0  0  0
   24.1809  -22.6483  -15.9574 C   0  0  0  0  0  0  0  0  0  0  0  0
   23.6980  -23.7091  -16.4478 O   0  0  0  0  0  0  0  0  0  0  0  0
   22.0862  -26.2697  -12.8164 N   0  0  0  0  0  0  0  0  0  0  0  0
   20.8167  -25.5987  -12.9771 C   0  0  0  0  0  0  0  0  0  0  0  0
   19.8423  -26.1792  -12.4940 O   0  0  0  0  0  0  0  0  0  0  0  0
   20.7793  -24.3372  -13.6705 C   0  0  0  0  0  0  0  0  0  0  0  0
   22.0124  -23.7315  -14.1925 C   0  0  0  0  0  0  0  0  0  0  0  0
   21.9808  -22.3552  -14.7272 C   0  0  2  0  0  0  0  0  0  0  0  0
   23.2829  -21.8822  -15.1624 N   0  0  0  0  0  0  0  0  0  0  0  0
   21.3182  -21.3437  -13.9211 C   0  0  0  0  0  0  0  0  0  0  0  0
   19.9370  -21.2993  -13.8199 O   0  0  0  0  0  0  0  0  0  0  0  0
   21.9770  -20.4811  -13.2997 O   0  0  0  0  0  0  0  0  0  0  0  0
  2  3  2  0
  2  1  1  0
  4  2  1  0
  5  6  1  0
  5  4  1  0
  6  7  1  1
  8  6  1  0
  9  8  2  0
 10  8  1  0
 11 12  1  6
 11 10  1  0
 12 13  1  0
 13 18  2  0
 14 13  1  0
 14 15  2  0
 15 16  1  0
 16 17  2  0
 18 17  1  0
 19 20  2  0
 19 11  1  0
 22 21  1  0
 22 24  1  0
 23 22  2  0
 25 24  1  0
 26 25  1  1
 26 27  1  0
 27 19  1  0
 28 26  1  0
 28 29  1  0
 30 28  2  0
M  END
$$$$
