TTS.pdb
     RDKit          3D

 21 20  0  0  1  0  0  0  0  0999 V2000
   16.5598   -8.7961  -16.4032 C   0  0  0  0  0  0  0  0  0  0  0  0
   16.3974  -10.1946  -15.9232 C   0  0  1  0  0  0  0  0  0  0  0  0
   15.3107  -10.7602  -16.5904 O   0  0  0  0  0  0  0  0  0  0  0  0
   17.5989  -11.0623  -16.0924 C   0  0  2  0  0  0  0  0  0  0  0  0
   17.3078  -12.4436  -15.7991 N   0  0  0  0  0  0  0  0  0  0  0  0
   18.7860  -10.6255  -15.3678 C   0  0  0  0  0  0  0  0  0  0  0  0
   18.9288  -10.7329  -14.1181 O   0  0  0  0  0  0  0  0  0  0  0  0
   22.2775  -11.4675  -15.6419 C   0  0  0  0  0  0  0  0  0  0  0  0
   22.2364  -10.0282  -16.1418 C   0  0  1  0  0  0  0  0  0  0  0  0
   22.1885  -10.0958  -17.5296 O   0  0  0  0  0  0  0  0  0  0  0  0
   21.0020   -9.4047  -15.5512 C   0  0  2  0  0  0  0  0  0  0  0  0
   19.8533  -10.0415  -16.1058 N   0  0  0  0  0  0  0  0  0  0  0  0
   20.9799   -7.9216  -15.6394 C   0  0  0  0  0  0  0  0  0  0  0  0
   20.3462   -7.3922  -16.5793 O   0  0  0  0  0  0  0  0  0  0  0  0
   21.3112   -5.4778  -12.5762 O   0  0  0  0  0  0  0  0  0  0  0  0
   22.0368   -4.9300  -13.6177 C   0  0  0  0  0  0  0  0  0  0  0  0
   21.6722   -5.6438  -14.9110 C   0  0  2  0  0  0  0  0  0  0  0  0
   21.6350   -7.0813  -14.7201 N   0  0  0  0  0  0  0  0  0  0  0  0
   22.6263   -5.2449  -15.9607 C   0  0  0  0  0  0  0  0  0  0  0  0
   23.4450   -6.1835  -16.5668 O   0  0  0  0  0  0  0  0  0  0  0  0
   22.7107   -4.0442  -16.3215 O   0  0  0  0  0  0  0  0  0  0  0  0
  2  1  1  6
  2  4  1  0
  3  2  1  0
  4  5  1  1
  6  4  1  0
  6  7  2  0
  9  8  1  1
  9 11  1  0
 10  9  1  0
 11 12  1  6
 11 13  1  0
 12  6  1  0
 13 14  2  0
 13 18  1  0
 17 16  1  1
 16 15  1  0
 17 19  1  0
 18 17  1  0
 19 20  1  0
 21 19  2  0
M  END
$$$$
