TTS.pdb
     RDKit          3D

 21 20  0  0  1  0  0  0  0  0999 V2000
   28.2718  -18.8359  -16.6540 C   0  0  0  0  0  0  0  0  0  0  0  0
   26.9825  -19.5451  -16.4361 C   0  0  1  0  0  0  0  0  0  0  0  0
   26.5806  -20.1004  -17.6512 O   0  0  0  0  0  0  0  0  0  0  0  0
   27.0153  -20.6035  -15.3855 C   0  0  2  0  0  0  0  0  0  0  0  0
   28.0871  -21.5428  -15.6047 N   0  0  0  0  0  0  0  0  0  0  0  0
   25.7557  -21.3062  -15.1740 C   0  0  0  0  0  0  0  0  0  0  0  0
   25.6567  -22.5602  -15.0685 O   0  0  0  0  0  0  0  0  0  0  0  0
   24.6535  -22.5887  -13.3918 C   0  0  0  0  0  0  0  0  0  0  0  0
   23.4460  -21.6636  -13.2973 C   0  0  1  0  0  0  0  0  0  0  0  0
   23.7361  -20.7399  -12.2995 O   0  0  0  0  0  0  0  0  0  0  0  0
   23.2901  -21.0233  -14.6491 C   0  0  2  0  0  0  0  0  0  0  0  0
   24.5604  -20.5400  -15.0796 N   0  0  0  0  0  0  0  0  0  0  0  0
   22.2003  -20.0152  -14.7117 C   0  0  0  0  0  0  0  0  0  0  0  0
   22.4689  -18.8311  -14.4102 O   0  0  0  0  0  0  0  0  0  0  0  0
   19.6546  -18.5548  -17.3643 O   0  0  0  0  0  0  0  0  0  0  0  0
   19.0563  -19.3700  -16.4215 C   0  0  0  0  0  0  0  0  0  0  0  0
   19.8510  -19.3028  -15.1257 C   0  0  2  0  0  0  0  0  0  0  0  0
   20.8812  -20.3235  -15.0928 N   0  0  0  0  0  0  0  0  0  0  0  0
   18.9196  -19.4134  -13.9893 C   0  0  0  0  0  0  0  0  0  0  0  0
   17.9879  -18.4197  -13.7385 O   0  0  0  0  0  0  0  0  0  0  0  0
   18.9578  -20.4138  -13.2298 O   0  0  0  0  0  0  0  0  0  0  0  0
  2  1  1  6
  2  4  1  0
  3  2  1  0
  4  5  1  6
  6  4  1  0
  6  7  2  0
  9  8  1  6
  9 11  1  0
 10  9  1  0
 11 12  1  1
 11 13  1  0
 12  6  1  0
 13 14  2  0
 13 18  1  0
 17 16  1  6
 16 15  1  0
 17 19  1  0
 18 17  1  0
 19 20  1  0
 21 19  2  0
M  END
$$$$
