TTS.pdb
     RDKit          3D

 21 20  0  0  1  0  0  0  0  0999 V2000
   15.7726  -13.6255  -15.5916 C   0  0  0  0  0  0  0  0  0  0  0  0
   17.1314  -13.0534  -15.7899 C   0  0  1  0  0  0  0  0  0  0  0  0
   17.4402  -13.1267  -17.1484 O   0  0  0  0  0  0  0  0  0  0  0  0
   17.3007  -11.6511  -15.3102 C   0  0  2  0  0  0  0  0  0  0  0  0
   16.3951  -10.7454  -15.9724 N   0  0  0  0  0  0  0  0  0  0  0  0
   18.6644  -11.1387  -15.3623 C   0  0  0  0  0  0  0  0  0  0  0  0
   19.6398  -11.6669  -14.7597 O   0  0  0  0  0  0  0  0  0  0  0  0
   20.7598  -10.8117  -18.1402 C   0  0  0  0  0  0  0  0  0  0  0  0
   20.5554   -9.3510  -17.7561 C   0  0  1  0  0  0  0  0  0  0  0  0
   19.5344   -8.8706  -18.5682 O   0  0  0  0  0  0  0  0  0  0  0  0
   20.1875   -9.3389  -16.2981 C   0  0  2  0  0  0  0  0  0  0  0  0
   18.9207   -9.9729  -16.1369 N   0  0  0  0  0  0  0  0  0  0  0  0
   20.2828   -7.9967  -15.6679 C   0  0  0  0  0  0  0  0  0  0  0  0
   19.2539   -7.2863  -15.6256 O   0  0  0  0  0  0  0  0  0  0  0  0
   22.4506   -4.8780  -12.7605 O   0  0  0  0  0  0  0  0  0  0  0  0
   22.3421   -6.1705  -13.2388 C   0  0  0  0  0  0  0  0  0  0  0  0
   21.5100   -6.1643  -14.5127 C   0  0  2  0  0  0  0  0  0  0  0  0
   21.4710   -7.4829  -15.1159 N   0  0  0  0  0  0  0  0  0  0  0  0
   22.0515   -5.1466  -15.4305 C   0  0  0  0  0  0  0  0  0  0  0  0
   21.6554   -3.8230  -15.3328 O   0  0  0  0  0  0  0  0  0  0  0  0
   22.8825   -5.4666  -16.3170 O   0  0  0  0  0  0  0  0  0  0  0  0
  2  1  1  6
  2  4  1  0
  3  2  1  0
  4  5  1  6
  6  4  1  0
  6  7  2  0
  9  8  1  6
  9 11  1  0
 10  9  1  0
 11 12  1  6
 11 13  1  0
 12  6  1  0
 13 14  2  0
 13 18  1  0
 17 16  1  1
 16 15  1  0
 17 19  1  0
 18 17  1  0
 19 20  1  0
 21 19  2  0
M  END
$$$$
