TTS.pdb
     RDKit          3D

 21 20  0  0  1  0  0  0  0  0999 V2000
   21.9876  -11.2799  -19.6366 C   0  0  0  0  0  0  0  0  0  0  0  0
   21.2473  -10.2005  -18.9297 C   0  0  1  0  0  0  0  0  0  0  0  0
   20.1222   -9.8760  -19.6880 O   0  0  0  0  0  0  0  0  0  0  0  0
   20.8359  -10.5286  -17.5339 C   0  0  2  0  0  0  0  0  0  0  0  0
   20.0857  -11.7584  -17.4715 N   0  0  0  0  0  0  0  0  0  0  0  0
   20.1317   -9.4645  -16.8290 C   0  0  0  0  0  0  0  0  0  0  0  0
   18.8761   -9.3346  -16.8208 O   0  0  0  0  0  0  0  0  0  0  0  0
   20.0990   -8.8528  -13.4312 C   0  0  0  0  0  0  0  0  0  0  0  0
   20.7624   -7.5698  -13.9177 C   0  0  1  0  0  0  0  0  0  0  0  0
   22.1309   -7.7462  -13.7468 O   0  0  0  0  0  0  0  0  0  0  0  0
   20.3770   -7.4093  -15.3623 C   0  0  2  0  0  0  0  0  0  0  0  0
   20.8982   -8.5100  -16.1036 N   0  0  0  0  0  0  0  0  0  0  0  0
   20.7155   -6.0777  -15.9278 C   0  0  0  0  0  0  0  0  0  0  0  0
   21.5001   -6.0279  -16.9010 O   0  0  0  0  0  0  0  0  0  0  0  0
   20.3271   -2.3813  -18.0903 O   0  0  0  0  0  0  0  0  0  0  0  0
   20.0514   -3.6117  -17.5234 C   0  0  0  0  0  0  0  0  0  0  0  0
   20.4932   -3.6019  -16.0674 C   0  0  2  0  0  0  0  0  0  0  0  0
   20.1990   -4.8689  -15.4252 N   0  0  0  0  0  0  0  0  0  0  0  0
   19.8508   -2.4667  -15.3822 C   0  0  0  0  0  0  0  0  0  0  0  0
   20.4023   -1.1977  -15.4456 O   0  0  0  0  0  0  0  0  0  0  0  0
   18.7906   -2.6346  -14.7289 O   0  0  0  0  0  0  0  0  0  0  0  0
  2  1  1  6
  2  4  1  0
  3  2  1  0
  4  5  1  6
  6  4  1  0
  6  7  2  0
  9  8  1  6
  9 11  1  0
 10  9  1  0
 11 12  1  6
 11 13  1  0
 12  6  1  0
 13 14  2  0
 13 18  1  0
 17 16  1  6
 16 15  1  0
 17 19  1  0
 18 17  1  0
 19 20  1  0
 21 19  2  0
M  END
$$$$
