TTS.pdb
     RDKit          3D

 21 20  0  0  1  0  0  0  0  0999 V2000
   19.9832  -13.1283  -19.3558 C   0  0  0  0  0  0  0  0  0  0  0  0
   19.3820  -11.9768  -18.6309 C   0  0  1  0  0  0  0  0  0  0  0  0
   18.7850  -12.4598  -17.4661 O   0  0  0  0  0  0  0  0  0  0  0  0
   20.3340  -10.8800  -18.2908 C   0  0  2  0  0  0  0  0  0  0  0  0
   21.4127  -11.3466  -17.4556 N   0  0  0  0  0  0  0  0  0  0  0  0
   19.7247   -9.6857  -17.7184 C   0  0  0  0  0  0  0  0  0  0  0  0
   18.8348   -9.0018  -18.2962 O   0  0  0  0  0  0  0  0  0  0  0  0
   17.8309   -9.4784  -14.8813 C   0  0  0  0  0  0  0  0  0  0  0  0
   18.9956   -8.5920  -14.4563 C   0  0  1  0  0  0  0  0  0  0  0  0
   19.8294   -9.3860  -13.6770 O   0  0  0  0  0  0  0  0  0  0  0  0
   19.6609   -8.1234  -15.7208 C   0  0  2  0  0  0  0  0  0  0  0  0
   20.1529   -9.2579  -16.4306 N   0  0  0  0  0  0  0  0  0  0  0  0
   20.6694   -7.0537  -15.5056 C   0  0  0  0  0  0  0  0  0  0  0  0
   21.8801   -7.3473  -15.6204 O   0  0  0  0  0  0  0  0  0  0  0  0
   21.7545   -2.3886  -14.8006 O   0  0  0  0  0  0  0  0  0  0  0  0
   20.7453   -3.3230  -14.9409 C   0  0  0  0  0  0  0  0  0  0  0  0
   21.3571   -4.7149  -15.0003 C   0  0  2  0  0  0  0  0  0  0  0  0
   20.3332   -5.7268  -15.1791 N   0  0  0  0  0  0  0  0  0  0  0  0
   22.1543   -4.9373  -13.7812 C   0  0  0  0  0  0  0  0  0  0  0  0
   23.4833   -4.5512  -13.7245 O   0  0  0  0  0  0  0  0  0  0  0  0
   21.6380   -5.4818  -12.7733 O   0  0  0  0  0  0  0  0  0  0  0  0
  2  1  1  1
  2  4  1  0
  3  2  1  0
  4  5  1  1
  6  4  1  0
  6  7  2  0
  9  8  1  6
  9 11  1  0
 10  9  1  0
 11 12  1  1
 11 13  1  0
 12  6  1  0
 13 14  2  0
 13 18  1  0
 17 16  1  1
 16 15  1  0
 17 19  1  0
 18 17  1  0
 19 20  1  0
 21 19  2  0
M  END
$$$$
