TTS.pdb
     RDKit          3D

 21 20  0  0  1  0  0  0  0  0999 V2000
   20.0534  -13.9609  -17.4299 C   0  0  0  0  0  0  0  0  0  0  0  0
   18.8215  -13.2921  -16.9323 C   0  0  1  0  0  0  0  0  0  0  0  0
   18.0134  -14.2587  -16.3331 O   0  0  0  0  0  0  0  0  0  0  0  0
   19.0556  -12.1699  -15.9778 C   0  0  2  0  0  0  0  0  0  0  0  0
   17.8345  -11.7467  -15.3386 N   0  0  0  0  0  0  0  0  0  0  0  0
   19.7662  -11.0236  -16.5312 C   0  0  0  0  0  0  0  0  0  0  0  0
   20.9027  -11.0943  -17.0761 O   0  0  0  0  0  0  0  0  0  0  0  0
   18.9087   -8.7856  -19.1363 C   0  0  0  0  0  0  0  0  0  0  0  0
   18.8494   -7.8798  -17.9120 C   0  0  1  0  0  0  0  0  0  0  0  0
   17.5154   -7.8314  -17.5235 O   0  0  0  0  0  0  0  0  0  0  0  0
   19.7317   -8.5098  -16.8699 C   0  0  2  0  0  0  0  0  0  0  0  0
   19.1488   -9.7438  -16.4570 N   0  0  0  0  0  0  0  0  0  0  0  0
   20.0833   -7.5966  -15.7517 C   0  0  0  0  0  0  0  0  0  0  0  0
   19.3765   -7.6221  -14.7197 O   0  0  0  0  0  0  0  0  0  0  0  0
   23.0317   -4.3212  -13.7546 O   0  0  0  0  0  0  0  0  0  0  0  0
   22.7892   -5.1214  -14.8556 C   0  0  0  0  0  0  0  0  0  0  0  0
   21.4263   -5.7808  -14.7043 C   0  0  2  0  0  0  0  0  0  0  0  0
   21.1705   -6.7042  -15.7934 N   0  0  0  0  0  0  0  0  0  0  0  0
   20.3969   -4.7307  -14.6098 C   0  0  0  0  0  0  0  0  0  0  0  0
   19.8648   -4.3696  -13.3830 O   0  0  0  0  0  0  0  0  0  0  0  0
   19.9864   -4.1467  -15.6438 O   0  0  0  0  0  0  0  0  0  0  0  0
  2  1  1  1
  2  4  1  0
  3  2  1  0
  4  5  1  6
  6  4  1  0
  6  7  2  0
  9  8  1  6
  9 11  1  0
 10  9  1  0
 11 12  1  1
 11 13  1  0
 12  6  1  0
 13 14  2  0
 13 18  1  0
 17 16  1  6
 16 15  1  0
 17 19  1  0
 18 17  1  0
 19 20  1  0
 21 19  2  0
M  END
$$$$
