TTS.pdb
     RDKit          3D

 21 20  0  0  1  0  0  0  0  0999 V2000
   16.5650  -11.0541  -18.1777 C   0  0  0  0  0  0  0  0  0  0  0  0
   17.2088  -10.3272  -17.0508 C   0  0  1  0  0  0  0  0  0  0  0  0
   16.2192   -9.9955  -16.1251 O   0  0  0  0  0  0  0  0  0  0  0  0
   18.3079  -11.0696  -16.3682 C   0  0  2  0  0  0  0  0  0  0  0  0
   17.8728  -12.3635  -15.9042 N   0  0  0  0  0  0  0  0  0  0  0  0
   18.9759  -10.3409  -15.2968 C   0  0  0  0  0  0  0  0  0  0  0  0
   18.6215  -10.3853  -14.0860 O   0  0  0  0  0  0  0  0  0  0  0  0
   22.0807  -10.7705  -14.1099 C   0  0  0  0  0  0  0  0  0  0  0  0
   22.2484   -9.3438  -14.6194 C   0  0  1  0  0  0  0  0  0  0  0  0
   22.8691   -9.4402  -15.8597 O   0  0  0  0  0  0  0  0  0  0  0  0
   20.8672   -8.7559  -14.7091 C   0  0  2  0  0  0  0  0  0  0  0  0
   20.0961   -9.5279  -15.6267 N   0  0  0  0  0  0  0  0  0  0  0  0
   20.8551   -7.2949  -14.9798 C   0  0  0  0  0  0  0  0  0  0  0  0
   20.7541   -6.9119  -16.1665 O   0  0  0  0  0  0  0  0  0  0  0  0
   19.8940   -2.8344  -13.7964 O   0  0  0  0  0  0  0  0  0  0  0  0
   19.9697   -4.1519  -13.3842 C   0  0  0  0  0  0  0  0  0  0  0  0
   20.9343   -4.9044  -14.2890 C   0  0  2  0  0  0  0  0  0  0  0  0
   20.9513   -6.3194  -13.9701 N   0  0  0  0  0  0  0  0  0  0  0  0
   22.2695   -4.2912  -14.1768 C   0  0  0  0  0  0  0  0  0  0  0  0
   22.6917   -3.3422  -15.0932 O   0  0  0  0  0  0  0  0  0  0  0  0
   23.0457   -4.6216  -13.2455 O   0  0  0  0  0  0  0  0  0  0  0  0
  2  1  1  6
  2  4  1  0
  3  2  1  0
  4  5  1  1
  6  4  1  0
  6  7  2  0
  9  8  1  6
  9 11  1  0
 10  9  1  0
 11 12  1  6
 11 13  1  0
 12  6  1  0
 13 14  2  0
 13 18  1  0
 17 16  1  1
 16 15  1  0
 17 19  1  0
 18 17  1  0
 19 20  1  0
 21 19  2  0
M  END
$$$$
