TTS.pdb
     RDKit          3D

 21 20  0  0  1  0  0  0  0  0999 V2000
   29.3622  -11.8476  -17.6267 C   0  0  0  0  0  0  0  0  0  0  0  0
   28.6094  -10.7368  -16.9846 C   0  0  1  0  0  0  0  0  0  0  0  0
   29.1406   -9.5303  -17.4412 O   0  0  0  0  0  0  0  0  0  0  0  0
   27.1360  -10.7577  -17.2165 C   0  0  2  0  0  0  0  0  0  0  0  0
   26.8133  -10.6800  -18.6196 N   0  0  0  0  0  0  0  0  0  0  0  0
   26.3759   -9.7686  -16.4621 C   0  0  0  0  0  0  0  0  0  0  0  0
   26.4319   -9.6431  -15.2073 O   0  0  0  0  0  0  0  0  0  0  0  0
   24.6488   -6.6496  -18.7080 C   0  0  0  0  0  0  0  0  0  0  0  0
   25.0768   -6.5457  -17.2489 C   0  0  1  0  0  0  0  0  0  0  0  0
   24.3755   -5.4734  -16.7094 O   0  0  0  0  0  0  0  0  0  0  0  0
   24.7167   -7.8549  -16.6026 C   0  0  2  0  0  0  0  0  0  0  0  0
   25.5161   -8.8872  -17.1754 N   0  0  0  0  0  0  0  0  0  0  0  0
   23.2587   -8.1412  -16.6025 C   0  0  0  0  0  0  0  0  0  0  0  0
   22.7452   -8.6078  -17.6436 O   0  0  0  0  0  0  0  0  0  0  0  0
   19.3124   -9.5643  -14.5438 O   0  0  0  0  0  0  0  0  0  0  0  0
   20.6645   -9.2840  -14.4765 C   0  0  0  0  0  0  0  0  0  0  0  0
   21.0133   -8.2453  -15.5322 C   0  0  2  0  0  0  0  0  0  0  0  0
   22.4251   -7.9148  -15.4915 N   0  0  0  0  0  0  0  0  0  0  0  0
   20.1574   -7.0618  -15.3372 C   0  0  0  0  0  0  0  0  0  0  0  0
   18.7950   -7.1262  -15.5785 O   0  0  0  0  0  0  0  0  0  0  0  0
   20.6531   -5.9747  -14.9481 O   0  0  0  0  0  0  0  0  0  0  0  0
  2  1  1  6
  2  4  1  0
  3  2  1  0
  4  5  1  6
  6  4  1  0
  6  7  2  0
  9  8  1  6
  9 11  1  0
 10  9  1  0
 11 12  1  6
 11 13  1  0
 12  6  1  0
 13 14  2  0
 13 18  1  0
 17 16  1  1
 16 15  1  0
 17 19  1  0
 18 17  1  0
 19 20  1  0
 21 19  2  0
M  END
$$$$
