TTS.pdb
     RDKit          3D

 21 20  0  0  1  0  0  0  0  0999 V2000
   17.3677  -12.8242  -14.8753 C   0  0  0  0  0  0  0  0  0  0  0  0
   17.5783  -12.4491  -16.2992 C   0  0  1  0  0  0  0  0  0  0  0  0
   16.4316  -12.7951  -17.0145 O   0  0  0  0  0  0  0  0  0  0  0  0
   17.9011  -11.0113  -16.5308 C   0  0  2  0  0  0  0  0  0  0  0  0
   18.0018  -10.7044  -17.9360 N   0  0  0  0  0  0  0  0  0  0  0  0
   19.0700  -10.5154  -15.8147 C   0  0  0  0  0  0  0  0  0  0  0  0
   19.3307  -10.7942  -14.6115 O   0  0  0  0  0  0  0  0  0  0  0  0
   22.4683  -10.8337  -16.9860 C   0  0  0  0  0  0  0  0  0  0  0  0
   22.3044   -9.3215  -16.8905 C   0  0  1  0  0  0  0  0  0  0  0  0
   22.0510   -8.8716  -18.1813 O   0  0  0  0  0  0  0  0  0  0  0  0
   21.1524   -9.0737  -15.9562 C   0  0  2  0  0  0  0  0  0  0  0  0
   19.9773   -9.6648  -16.5061 N   0  0  0  0  0  0  0  0  0  0  0  0
   20.9936   -7.6486  -15.5665 C   0  0  0  0  0  0  0  0  0  0  0  0
   20.1282   -6.9646  -16.1567 O   0  0  0  0  0  0  0  0  0  0  0  0
   21.9650   -3.9217  -12.6695 O   0  0  0  0  0  0  0  0  0  0  0  0
   22.2010   -5.2590  -12.9286 C   0  0  0  0  0  0  0  0  0  0  0  0
   21.6533   -5.6061  -14.3051 C   0  0  2  0  0  0  0  0  0  0  0  0
   21.7666   -7.0283  -14.5675 N   0  0  0  0  0  0  0  0  0  0  0  0
   22.3547   -4.7948  -15.3155 C   0  0  0  0  0  0  0  0  0  0  0  0
   23.4617   -5.2951  -15.9808 O   0  0  0  0  0  0  0  0  0  0  0  0
   21.9571   -3.6344  -15.5882 O   0  0  0  0  0  0  0  0  0  0  0  0
  2  1  1  1
  2  4  1  0
  3  2  1  0
  4  5  1  6
  6  4  1  0
  6  7  2  0
  9  8  1  6
  9 11  1  0
 10  9  1  0
 11 12  1  6
 11 13  1  0
 12  6  1  0
 13 14  2  0
 13 18  1  0
 17 16  1  1
 16 15  1  0
 17 19  1  0
 18 17  1  0
 19 20  1  0
 21 19  2  0
M  END
$$$$
