TTS.pdb
     RDKit          3D

 21 20  0  0  1  0  0  0  0  0999 V2000
   19.9333  -20.3629  -10.4776 C   0  0  0  0  0  0  0  0  0  0  0  0
   20.0067  -19.8010  -11.8530 C   0  0  1  0  0  0  0  0  0  0  0  0
   21.2831  -20.0511  -12.3576 O   0  0  0  0  0  0  0  0  0  0  0  0
   18.9797  -20.3211  -12.8017 C   0  0  2  0  0  0  0  0  0  0  0  0
   19.0845  -21.7486  -12.9749 N   0  0  0  0  0  0  0  0  0  0  0  0
   18.9359  -19.6515  -14.0958 C   0  0  0  0  0  0  0  0  0  0  0  0
   19.2463  -20.2048  -15.1872 O   0  0  0  0  0  0  0  0  0  0  0  0
   16.3202  -18.5615  -15.8829 C   0  0  0  0  0  0  0  0  0  0  0  0
   16.9687  -17.2127  -15.5946 C   0  0  1  0  0  0  0  0  0  0  0  0
   16.3027  -16.6838  -14.4948 O   0  0  0  0  0  0  0  0  0  0  0  0
   18.4204  -17.4867  -15.3136 C   0  0  2  0  0  0  0  0  0  0  0  0
   18.5191  -18.2917  -14.1410 N   0  0  0  0  0  0  0  0  0  0  0  0
   19.2660  -16.2652  -15.2883 C   0  0  0  0  0  0  0  0  0  0  0  0
   19.5467  -15.7603  -14.1785 O   0  0  0  0  0  0  0  0  0  0  0  0
   22.0344  -13.0237  -17.5750 O   0  0  0  0  0  0  0  0  0  0  0  0
   21.1708  -14.0932  -17.7225 C   0  0  0  0  0  0  0  0  0  0  0  0
   20.5659  -14.4378  -16.3695 C   0  0  2  0  0  0  0  0  0  0  0  0
   19.7678  -15.6465  -16.4484 N   0  0  0  0  0  0  0  0  0  0  0  0
   19.7853  -13.2842  -15.8889 C   0  0  0  0  0  0  0  0  0  0  0  0
   20.3485  -12.3586  -15.0260 O   0  0  0  0  0  0  0  0  0  0  0  0
   18.5944  -13.1237  -16.2563 O   0  0  0  0  0  0  0  0  0  0  0  0
  2  1  1  1
  2  4  1  0
  3  2  1  0
  4  5  1  6
  6  4  1  0
  6  7  2  0
  9  8  1  1
  9 11  1  0
 10  9  1  0
 11 12  1  1
 11 13  1  0
 12  6  1  0
 13 14  2  0
 13 18  1  0
 17 16  1  6
 16 15  1  0
 17 19  1  0
 18 17  1  0
 19 20  1  0
 21 19  2  0
M  END
$$$$
