HWV.pdb
     RDKit          3D

 32 34  0  0  1  0  0  0  0  0999 V2000
   28.8185  -21.4176  -15.3993 N   0  0  0  0  0  0  0  0  0  0  0  0
   27.5336  -20.7615  -15.3647 C   0  0  1  0  0  0  0  0  0  0  0  0
   26.6627  -21.2966  -16.4748 C   0  0  0  0  0  0  0  0  0  0  0  0
   27.2037  -21.0101  -17.8108 C   0  0  0  0  0  0  0  0  0  0  0  0
   26.7609  -20.0446  -18.6847 C   0  0  0  0  0  0  0  0  0  0  0  0
   27.5106  -20.1082  -19.7765 N   0  0  0  0  0  0  0  0  0  0  0  0
   28.4095  -21.0880  -19.6064 C   0  0  0  0  0  0  0  0  0  0  0  0
   28.2202  -21.6421  -18.3976 N   0  0  0  0  0  0  0  0  0  0  0  0
   26.8732  -21.0890  -14.0727 C   0  0  0  0  0  0  0  0  0  0  0  0
   25.6973  -21.5264  -14.1376 O   0  0  0  0  0  0  0  0  0  0  0  0
   27.4703  -20.9421  -12.8122 N   0  0  0  0  0  0  0  0  0  0  0  0
   26.7801  -21.0962  -11.5538 C   0  0  1  0  0  0  0  0  0  0  0  0
   27.6182  -20.7692  -10.3722 C   0  0  0  0  0  0  0  0  0  0  0  0
   26.7957  -20.8072   -9.1384 C   0  0  0  0  0  0  0  0  0  0  0  0
   25.5821  -21.4347   -8.9213 C   0  0  0  0  0  0  0  0  0  0  0  0
   25.1669  -21.2211   -7.6646 N   0  0  0  0  0  0  0  0  0  0  0  0
   26.0775  -20.4621   -7.0318 C   0  0  0  0  0  0  0  0  0  0  0  0
   26.1591  -19.9440   -5.7327 C   0  0  0  0  0  0  0  0  0  0  0  0
   27.2571  -19.1809   -5.3909 C   0  0  0  0  0  0  0  0  0  0  0  0
   28.2847  -18.9005   -6.2673 C   0  0  0  0  0  0  0  0  0  0  0  0
   28.1722  -19.4285   -7.5436 C   0  0  0  0  0  0  0  0  0  0  0  0
   27.0927  -20.1966   -7.9293 C   0  0  0  0  0  0  0  0  0  0  0  0
   25.5971  -20.1986  -11.5726 C   0  0  0  0  0  0  0  0  0  0  0  0
   25.7115  -18.9564  -11.6766 O   0  0  0  0  0  0  0  0  0  0  0  0
   22.4566  -21.4336  -13.5618 C   0  0  0  0  0  0  0  0  0  0  0  0
   22.6608  -20.0158  -13.0903 C   0  0  1  0  0  0  0  0  0  0  0  0
   21.4427  -19.1562  -13.3261 C   0  0  0  0  0  0  0  0  0  0  0  0
   23.0725  -19.9923  -11.6118 C   0  0  2  0  0  0  0  0  0  0  0  0
   24.2784  -20.7554  -11.4692 N   0  0  0  0  0  0  0  0  0  0  0  0
   21.9309  -20.5723  -10.8725 C   0  0  0  0  0  0  0  0  0  0  0  0
   20.8342  -19.7580  -10.6302 O   0  0  0  0  0  0  0  0  0  0  0  0
   21.8826  -21.7536  -10.4465 O   0  0  0  0  0  0  0  0  0  0  0  0
  2  3  1  0
  2  1  1  1
  3  4  1  0
  4  8  1  0
  4  5  2  0
  5  6  1  0
  7  6  1  0
  8  7  2  0
  9 10  2  0
  9  2  1  0
 11  9  1  0
 12 11  1  0
 12 13  1  1
 13 14  1  0
 14 22  1  0
 14 15  2  0
 15 16  1  0
 17 16  1  0
 17 18  2  0
 19 18  1  0
 20 19  2  0
 21 20  1  0
 21 22  2  0
 22 17  1  0
 23 29  1  0
 23 12  1  0
 24 23  2  0
 26 28  1  0
 26 25  1  1
 27 26  1  0
 28 29  1  6
 28 30  1  0
 30 31  1  0
 32 30  2  0
M  END
$$$$
