HWV.pdb
     RDKit          3D

 32 34  0  0  1  0  0  0  0  0999 V2000
   15.1963  -20.0393    2.4366 N   0  0  0  0  0  0  0  0  0  0  0  0
   14.9977  -19.7096    3.8273 C   0  0  1  0  0  0  0  0  0  0  0  0
   14.4219  -20.9013    4.5522 C   0  0  0  0  0  0  0  0  0  0  0  0
   13.0566  -21.2268    4.1171 C   0  0  0  0  0  0  0  0  0  0  0  0
   11.9062  -20.5519    4.4533 C   0  0  0  0  0  0  0  0  0  0  0  0
   10.8887  -21.1582    3.8574 N   0  0  0  0  0  0  0  0  0  0  0  0
   11.3743  -22.1937    3.1581 C   0  0  0  0  0  0  0  0  0  0  0  0
   12.7073  -22.2353    3.3182 N   0  0  0  0  0  0  0  0  0  0  0  0
   16.3225  -19.4076    4.4327 C   0  0  0  0  0  0  0  0  0  0  0  0
   17.2962  -20.0870    4.0218 O   0  0  0  0  0  0  0  0  0  0  0  0
   16.5468  -18.4312    5.4143 N   0  0  0  0  0  0  0  0  0  0  0  0
   17.8446  -18.0739    5.9354 C   0  0  1  0  0  0  0  0  0  0  0  0
   17.9807  -16.6294    6.2524 C   0  0  0  0  0  0  0  0  0  0  0  0
   17.9920  -15.8324    5.0015 C   0  0  0  0  0  0  0  0  0  0  0  0
   17.5101  -16.1717    3.7499 C   0  0  0  0  0  0  0  0  0  0  0  0
   17.7198  -15.1697    2.8841 N   0  0  0  0  0  0  0  0  0  0  0  0
   18.3333  -14.1629    3.5288 C   0  0  0  0  0  0  0  0  0  0  0  0
   18.7820  -12.8981    3.1268 C   0  0  0  0  0  0  0  0  0  0  0  0
   19.3887  -12.0822    4.0600 C   0  0  0  0  0  0  0  0  0  0  0  0
   19.5773  -12.4499    5.3760 C   0  0  0  0  0  0  0  0  0  0  0  0
   19.1218  -13.7070    5.7397 C   0  0  0  0  0  0  0  0  0  0  0  0
   18.5096  -14.5561    4.8407 C   0  0  0  0  0  0  0  0  0  0  0  0
   18.0703  -18.8651    7.1717 C   0  0  0  0  0  0  0  0  0  0  0  0
   17.1862  -18.9862    8.0497 O   0  0  0  0  0  0  0  0  0  0  0  0
   18.7005  -22.3966    7.7358 C   0  0  0  0  0  0  0  0  0  0  0  0
   19.9649  -21.6990    8.1704 C   0  0  1  0  0  0  0  0  0  0  0  0
   21.0423  -21.7633    7.1153 C   0  0  0  0  0  0  0  0  0  0  0  0
   19.6706  -20.2460    8.5680 C   0  0  2  0  0  0  0  0  0  0  0  0
   19.3325  -19.5152    7.3812 N   0  0  0  0  0  0  0  0  0  0  0  0
   20.9047  -19.7542    9.2174 C   0  0  0  0  0  0  0  0  0  0  0  0
   21.1215  -20.0997   10.5434 O   0  0  0  0  0  0  0  0  0  0  0  0
   21.7737  -19.0437    8.6526 O   0  0  0  0  0  0  0  0  0  0  0  0
  2  3  1  0
  2  1  1  6
  3  4  1  0
  4  8  1  0
  4  5  2  0
  5  6  1  0
  7  6  1  0
  8  7  2  0
  9 10  2  0
  9  2  1  0
 11  9  1  0
 12 11  1  0
 12 13  1  1
 13 14  1  0
 14 22  1  0
 14 15  2  0
 15 16  1  0
 17 16  1  0
 17 18  2  0
 19 18  1  0
 20 19  2  0
 21 20  1  0
 21 22  2  0
 22 17  1  0
 23 29  1  0
 23 12  1  0
 24 23  2  0
 26 28  1  0
 26 25  1  6
 27 26  1  0
 28 29  1  6
 28 30  1  0
 30 31  1  0
 32 30  2  0
M  END
$$$$
