HWV.pdb
     RDKit          3D

 32 34  0  0  1  0  0  0  0  0999 V2000
   27.8380  -21.7346  -15.1828 N   0  0  0  0  0  0  0  0  0  0  0  0
   27.8411  -20.5716  -14.3284 C   0  0  1  0  0  0  0  0  0  0  0  0
   27.0279  -19.4727  -14.9672 C   0  0  0  0  0  0  0  0  0  0  0  0
   27.7748  -18.7374  -15.9972 C   0  0  0  0  0  0  0  0  0  0  0  0
   28.4134  -17.5292  -15.8411 C   0  0  0  0  0  0  0  0  0  0  0  0
   28.9681  -17.2082  -17.0019 N   0  0  0  0  0  0  0  0  0  0  0  0
   28.6924  -18.1848  -17.8779 C   0  0  0  0  0  0  0  0  0  0  0  0
   27.9586  -19.1247  -17.2595 N   0  0  0  0  0  0  0  0  0  0  0  0
   27.1857  -20.9314  -13.0423 C   0  0  0  0  0  0  0  0  0  0  0  0
   26.2124  -21.7228  -13.1097 O   0  0  0  0  0  0  0  0  0  0  0  0
   27.5794  -20.4508  -11.7849 N   0  0  0  0  0  0  0  0  0  0  0  0
   26.8011  -20.5799  -10.5761 C   0  0  1  0  0  0  0  0  0  0  0  0
   27.4194  -19.9208   -9.3977 C   0  0  0  0  0  0  0  0  0  0  0  0
   26.6907  -20.2988   -8.1623 C   0  0  0  0  0  0  0  0  0  0  0  0
   25.4584  -20.9142   -8.0333 C   0  0  0  0  0  0  0  0  0  0  0  0
   25.1531  -21.0756   -6.7379 N   0  0  0  0  0  0  0  0  0  0  0  0
   26.1559  -20.5809   -5.9927 C   0  0  0  0  0  0  0  0  0  0  0  0
   26.3678  -20.4849   -4.6112 C   0  0  0  0  0  0  0  0  0  0  0  0
   27.5357  -19.9055   -4.1582 C   0  0  0  0  0  0  0  0  0  0  0  0
   28.5109  -19.4132   -5.0003 C   0  0  0  0  0  0  0  0  0  0  0  0
   28.2692  -19.5243   -6.3603 C   0  0  0  0  0  0  0  0  0  0  0  0
   27.1163  -20.0960   -6.8582 C   0  0  0  0  0  0  0  0  0  0  0  0
   25.4690  -19.9733  -10.8276 C   0  0  0  0  0  0  0  0  0  0  0  0
   25.3157  -18.7354  -10.9331 O   0  0  0  0  0  0  0  0  0  0  0  0
   23.4678  -19.9376  -13.6051 C   0  0  0  0  0  0  0  0  0  0  0  0
   22.5864  -20.6684  -12.6236 C   0  0  1  0  0  0  0  0  0  0  0  0
   22.5981  -22.1608  -12.8493 C   0  0  0  0  0  0  0  0  0  0  0  0
   22.9856  -20.3273  -11.1814 C   0  0  2  0  0  0  0  0  0  0  0  0
   24.3147  -20.8165  -10.9555 N   0  0  0  0  0  0  0  0  0  0  0  0
   21.9751  -20.9830  -10.3239 C   0  0  0  0  0  0  0  0  0  0  0  0
   20.7129  -20.4114  -10.2563 O   0  0  0  0  0  0  0  0  0  0  0  0
   22.1783  -22.0240   -9.6500 O   0  0  0  0  0  0  0  0  0  0  0  0
  2  3  1  0
  2  1  1  6
  3  4  1  0
  4  8  1  0
  4  5  2  0
  5  6  1  0
  7  6  1  0
  8  7  2  0
  9 10  2  0
  9  2  1  0
 11  9  1  0
 12 11  1  0
 12 13  1  1
 13 14  1  0
 14 22  1  0
 14 15  2  0
 15 16  1  0
 17 16  1  0
 17 18  2  0
 19 18  1  0
 20 19  2  0
 21 20  1  0
 21 22  2  0
 22 17  1  0
 23 29  1  0
 23 12  1  0
 24 23  2  0
 26 28  1  0
 26 25  1  6
 27 26  1  0
 28 29  1  1
 28 30  1  0
 30 31  1  0
 32 30  2  0
M  END
$$$$
