HWV.pdb
     RDKit          3D

 32 34  0  0  1  0  0  0  0  0999 V2000
   27.7271  -21.7218  -15.3157 N   0  0  0  0  0  0  0  0  0  0  0  0
   27.7347  -20.6061  -14.4005 C   0  0  1  0  0  0  0  0  0  0  0  0
   26.8802  -19.4923  -14.9540 C   0  0  0  0  0  0  0  0  0  0  0  0
   27.4905  -18.8302  -16.1153 C   0  0  0  0  0  0  0  0  0  0  0  0
   26.9670  -18.7554  -17.3851 C   0  0  0  0  0  0  0  0  0  0  0  0
   27.8199  -18.0747  -18.1383 N   0  0  0  0  0  0  0  0  0  0  0  0
   28.8617  -17.7229  -17.3715 C   0  0  0  0  0  0  0  0  0  0  0  0
   28.6585  -18.1878  -16.1278 N   0  0  0  0  0  0  0  0  0  0  0  0
   27.1278  -21.0475  -13.1162 C   0  0  0  0  0  0  0  0  0  0  0  0
   26.0283  -21.6505  -13.1920 O   0  0  0  0  0  0  0  0  0  0  0  0
   27.6959  -20.8359  -11.8514 N   0  0  0  0  0  0  0  0  0  0  0  0
   26.9702  -20.8948  -10.6051 C   0  0  1  0  0  0  0  0  0  0  0  0
   27.7136  -20.3175   -9.4564 C   0  0  0  0  0  0  0  0  0  0  0  0
   26.9917  -20.5961   -8.1909 C   0  0  0  0  0  0  0  0  0  0  0  0
   25.7745  -21.2266   -8.0048 C   0  0  0  0  0  0  0  0  0  0  0  0
   25.4705  -21.2738   -6.6999 N   0  0  0  0  0  0  0  0  0  0  0  0
   26.4594  -20.6872   -6.0044 C   0  0  0  0  0  0  0  0  0  0  0  0
   26.6660  -20.4573   -4.6379 C   0  0  0  0  0  0  0  0  0  0  0  0
   27.8184  -19.8098   -4.2412 C   0  0  0  0  0  0  0  0  0  0  0  0
   28.7832  -19.3747   -5.1259 C   0  0  0  0  0  0  0  0  0  0  0  0
   28.5471  -19.6182   -6.4695 C   0  0  0  0  0  0  0  0  0  0  0  0
   27.4095  -20.2619   -6.9116 C   0  0  0  0  0  0  0  0  0  0  0  0
   25.6992  -20.1481  -10.7848 C   0  0  0  0  0  0  0  0  0  0  0  0
   25.6643  -18.8969  -10.8017 O   0  0  0  0  0  0  0  0  0  0  0  0
   23.7896  -19.3318  -13.3863 C   0  0  0  0  0  0  0  0  0  0  0  0
   22.8644  -20.2536  -12.6321 C   0  0  1  0  0  0  0  0  0  0  0  0
   22.8934  -21.6607  -13.1777 C   0  0  0  0  0  0  0  0  0  0  0  0
   23.1914  -20.2385  -11.1326 C   0  0  2  0  0  0  0  0  0  0  0  0
   24.4670  -20.8665  -10.9446 N   0  0  0  0  0  0  0  0  0  0  0  0
   22.0855  -20.9693  -10.4775 C   0  0  0  0  0  0  0  0  0  0  0  0
   22.3490  -22.2398   -9.9866 O   0  0  0  0  0  0  0  0  0  0  0  0
   20.9206  -20.5209  -10.3331 O   0  0  0  0  0  0  0  0  0  0  0  0
  2  3  1  0
  2  1  1  6
  3  4  1  0
  4  8  1  0
  4  5  2  0
  5  6  1  0
  7  6  1  0
  8  7  2  0
  9 10  2  0
  9  2  1  0
 11  9  1  0
 12 11  1  0
 12 13  1  1
 13 14  1  0
 14 22  1  0
 14 15  2  0
 15 16  1  0
 17 16  1  0
 17 18  2  0
 19 18  1  0
 20 19  2  0
 21 20  1  0
 21 22  2  0
 22 17  1  0
 23 29  1  0
 23 12  1  0
 24 23  2  0
 26 28  1  0
 26 25  1  6
 27 26  1  0
 28 29  1  6
 28 30  1  0
 30 31  1  0
 32 30  2  0
M  END
$$$$
