HWV.pdb
     RDKit          3D

 32 34  0  0  1  0  0  0  0  0999 V2000
   28.2113  -20.9230  -13.9672 N   0  0  0  0  0  0  0  0  0  0  0  0
   27.6807  -19.9992  -12.9938 C   0  0  1  0  0  0  0  0  0  0  0  0
   26.8853  -18.9263  -13.6961 C   0  0  0  0  0  0  0  0  0  0  0  0
   27.7092  -18.1000  -14.5893 C   0  0  0  0  0  0  0  0  0  0  0  0
   29.0323  -18.3033  -14.9057 C   0  0  0  0  0  0  0  0  0  0  0  0
   29.4042  -17.3426  -15.7405 N   0  0  0  0  0  0  0  0  0  0  0  0
   28.3477  -16.5454  -15.9532 C   0  0  0  0  0  0  0  0  0  0  0  0
   27.3059  -17.0116  -15.2450 N   0  0  0  0  0  0  0  0  0  0  0  0
   26.7511  -20.7407  -12.1000 C   0  0  0  0  0  0  0  0  0  0  0  0
   25.8840  -21.4565  -12.6603 O   0  0  0  0  0  0  0  0  0  0  0  0
   26.7823  -20.6904  -10.6987 N   0  0  0  0  0  0  0  0  0  0  0  0
   25.8863  -21.4169   -9.8309 C   0  0  1  0  0  0  0  0  0  0  0  0
   26.4417  -21.6645   -8.4760 C   0  0  0  0  0  0  0  0  0  0  0  0
   26.8424  -20.3819   -7.8478 C   0  0  0  0  0  0  0  0  0  0  0  0
   26.7884  -19.1027   -8.3718 C   0  0  0  0  0  0  0  0  0  0  0  0
   27.2521  -18.2155   -7.4800 N   0  0  0  0  0  0  0  0  0  0  0  0
   27.6170  -18.8728   -6.3662 C   0  0  0  0  0  0  0  0  0  0  0  0
   28.1566  -18.4593   -5.1412 C   0  0  0  0  0  0  0  0  0  0  0  0
   28.4252  -19.4121   -4.1796 C   0  0  0  0  0  0  0  0  0  0  0  0
   28.1885  -20.7586   -4.3634 C   0  0  0  0  0  0  0  0  0  0  0  0
   27.6546  -21.1328   -5.5861 C   0  0  0  0  0  0  0  0  0  0  0  0
   27.3702  -20.2150   -6.5765 C   0  0  0  0  0  0  0  0  0  0  0  0
   24.6359  -20.6256   -9.7054 C   0  0  0  0  0  0  0  0  0  0  0  0
   24.6463  -19.3744   -9.6687 O   0  0  0  0  0  0  0  0  0  0  0  0
   20.4235  -20.4055  -11.7473 C   0  0  0  0  0  0  0  0  0  0  0  0
   21.7872  -20.9469  -11.3990 C   0  0  1  0  0  0  0  0  0  0  0  0
   22.8661  -20.3941  -12.2982 C   0  0  0  0  0  0  0  0  0  0  0  0
   22.1126  -20.6817   -9.9227 C   0  0  2  0  0  0  0  0  0  0  0  0
   23.3715  -21.2995   -9.6221 N   0  0  0  0  0  0  0  0  0  0  0  0
   20.9875  -21.2611   -9.1578 C   0  0  0  0  0  0  0  0  0  0  0  0
   21.1730  -22.5062   -8.5747 O   0  0  0  0  0  0  0  0  0  0  0  0
   19.8721  -20.7050   -8.9976 O   0  0  0  0  0  0  0  0  0  0  0  0
  2  3  1  0
  2  1  1  6
  3  4  1  0
  4  8  1  0
  4  5  2  0
  5  6  1  0
  7  6  1  0
  8  7  2  0
  9 10  2  0
  9  2  1  0
 11  9  1  0
 12 11  1  0
 12 13  1  1
 13 14  1  0
 14 22  1  0
 14 15  2  0
 15 16  1  0
 17 16  1  0
 17 18  2  0
 19 18  1  0
 20 19  2  0
 21 20  1  0
 21 22  2  0
 22 17  1  0
 23 29  1  0
 23 12  1  0
 24 23  2  0
 26 28  1  0
 26 25  1  6
 27 26  1  0
 28 29  1  1
 28 30  1  0
 30 31  1  0
 32 30  2  0
M  END
$$$$
