HWV.pdb
     RDKit          3D

 32 34  0  0  1  0  0  0  0  0999 V2000
   26.5201  -20.3790  -17.8210 N   0  0  0  0  0  0  0  0  0  0  0  0
   25.9850  -19.3860  -16.9209 C   0  0  1  0  0  0  0  0  0  0  0  0
   24.7351  -18.7854  -17.5160 C   0  0  0  0  0  0  0  0  0  0  0  0
   25.0224  -17.7984  -18.5660 C   0  0  0  0  0  0  0  0  0  0  0  0
   25.7175  -16.6209  -18.4162 C   0  0  0  0  0  0  0  0  0  0  0  0
   25.7590  -16.0189  -19.5969 N   0  0  0  0  0  0  0  0  0  0  0  0
   25.1081  -16.7901  -20.4793 C   0  0  0  0  0  0  0  0  0  0  0  0
   24.6554  -17.8840  -19.8448 N   0  0  0  0  0  0  0  0  0  0  0  0
   25.6037  -20.0597  -15.6507 C   0  0  0  0  0  0  0  0  0  0  0  0
   24.8474  -21.0580  -15.7490 O   0  0  0  0  0  0  0  0  0  0  0  0
   26.0276  -19.6568  -14.3759 N   0  0  0  0  0  0  0  0  0  0  0  0
   25.6288  -20.2879  -13.1405 C   0  0  1  0  0  0  0  0  0  0  0  0
   26.4723  -19.9070  -11.9790 C   0  0  0  0  0  0  0  0  0  0  0  0
   26.0382  -20.6483  -10.7697 C   0  0  0  0  0  0  0  0  0  0  0  0
   25.5117  -21.9240  -10.6741 C   0  0  0  0  0  0  0  0  0  0  0  0
   25.2433  -22.2210   -9.3945 N   0  0  0  0  0  0  0  0  0  0  0  0
   25.5790  -21.1700   -8.6274 C   0  0  0  0  0  0  0  0  0  0  0  0
   25.5161  -20.9292   -7.2487 C   0  0  0  0  0  0  0  0  0  0  0  0
   25.9521  -19.7113   -6.7677 C   0  0  0  0  0  0  0  0  0  0  0  0
   26.4496  -18.7129   -7.5791 C   0  0  0  0  0  0  0  0  0  0  0  0
   26.4977  -18.9842   -8.9371 C   0  0  0  0  0  0  0  0  0  0  0  0
   26.0729  -20.1874   -9.4624 C   0  0  0  0  0  0  0  0  0  0  0  0
   24.2220  -19.8991  -12.8664 C   0  0  0  0  0  0  0  0  0  0  0  0
   23.8540  -18.7026  -12.8703 O   0  0  0  0  0  0  0  0  0  0  0  0
   19.5287  -21.0938  -13.0082 C   0  0  0  0  0  0  0  0  0  0  0  0
   20.9867  -21.3483  -13.2971 C   0  0  1  0  0  0  0  0  0  0  0  0
   21.3664  -20.9514  -14.7030 C   0  0  0  0  0  0  0  0  0  0  0  0
   21.8738  -20.6366  -12.2664 C   0  0  2  0  0  0  0  0  0  0  0  0
   23.2443  -20.9120  -12.5868 N   0  0  0  0  0  0  0  0  0  0  0  0
   21.4677  -21.1781  -10.9517 C   0  0  0  0  0  0  0  0  0  0  0  0
   20.8255  -20.3225  -10.0684 O   0  0  0  0  0  0  0  0  0  0  0  0
   21.6633  -22.3611  -10.5760 O   0  0  0  0  0  0  0  0  0  0  0  0
  2  3  1  0
  2  1  1  6
  3  4  1  0
  4  8  1  0
  4  5  2  0
  5  6  1  0
  7  6  1  0
  8  7  2  0
  9 10  2  0
  9  2  1  0
 11  9  1  0
 12 11  1  0
 12 13  1  1
 13 14  1  0
 14 22  1  0
 14 15  2  0
 15 16  1  0
 17 16  1  0
 17 18  2  0
 19 18  1  0
 20 19  2  0
 21 20  1  0
 21 22  2  0
 22 17  1  0
 23 29  1  0
 23 12  1  0
 24 23  2  0
 26 28  1  0
 26 25  1  1
 27 26  1  0
 28 29  1  6
 28 30  1  0
 30 31  1  0
 32 30  2  0
M  END
$$$$
