HWV.pdb
     RDKit          3D

 32 34  0  0  1  0  0  0  0  0999 V2000
   21.6550  -19.5771  -11.8883 N   0  0  0  0  0  0  0  0  0  0  0  0
   22.5423  -20.7148  -11.8613 C   0  0  1  0  0  0  0  0  0  0  0  0
   22.8415  -21.1562  -13.2729 C   0  0  0  0  0  0  0  0  0  0  0  0
   21.6699  -21.7289  -13.9504 C   0  0  0  0  0  0  0  0  0  0  0  0
   20.4003  -21.8456  -13.4343 C   0  0  0  0  0  0  0  0  0  0  0  0
   19.6352  -22.4114  -14.3577 N   0  0  0  0  0  0  0  0  0  0  0  0
   20.3944  -22.6506  -15.4363 C   0  0  0  0  0  0  0  0  0  0  0  0
   21.6453  -22.2307  -15.1852 N   0  0  0  0  0  0  0  0  0  0  0  0
   23.8253  -20.2956  -11.2361 C   0  0  0  0  0  0  0  0  0  0  0  0
   24.5435  -19.5078  -11.9008 O   0  0  0  0  0  0  0  0  0  0  0  0
   24.2736  -20.7175   -9.9758 N   0  0  0  0  0  0  0  0  0  0  0  0
   25.5897  -20.4576   -9.4432 C   0  0  1  0  0  0  0  0  0  0  0  0
   25.7016  -20.7123   -7.9843 C   0  0  0  0  0  0  0  0  0  0  0  0
   26.7574  -19.8519   -7.3968 C   0  0  0  0  0  0  0  0  0  0  0  0
   27.2426  -18.6384   -7.8504 C   0  0  0  0  0  0  0  0  0  0  0  0
   28.2040  -18.1873   -7.0320 N   0  0  0  0  0  0  0  0  0  0  0  0
   28.3751  -19.0737   -6.0366 C   0  0  0  0  0  0  0  0  0  0  0  0
   29.2263  -19.1156   -4.9247 C   0  0  0  0  0  0  0  0  0  0  0  0
   29.1496  -20.1974   -4.0712 C   0  0  0  0  0  0  0  0  0  0  0  0
   28.2728  -21.2459   -4.2574 C   0  0  0  0  0  0  0  0  0  0  0  0
   27.4456  -21.1725   -5.3667 C   0  0  0  0  0  0  0  0  0  0  0  0
   27.4876  -20.1105   -6.2467 C   0  0  0  0  0  0  0  0  0  0  0  0
   26.5509  -21.3313  -10.1631 C   0  0  0  0  0  0  0  0  0  0  0  0
   26.1940  -22.4031  -10.7024 O   0  0  0  0  0  0  0  0  0  0  0  0
   29.1698  -20.7494  -13.7760 C   0  0  0  0  0  0  0  0  0  0  0  0
   28.2315  -20.5703  -12.6091 C   0  0  1  0  0  0  0  0  0  0  0  0
   26.8339  -21.0454  -12.9240 C   0  0  0  0  0  0  0  0  0  0  0  0
   28.7827  -21.2724  -11.3604 C   0  0  2  0  0  0  0  0  0  0  0  0
   27.9318  -20.9504  -10.2517 N   0  0  0  0  0  0  0  0  0  0  0  0
   30.1621  -20.7658  -11.1962 C   0  0  0  0  0  0  0  0  0  0  0  0
   30.4301  -19.9581  -10.1006 O   0  0  0  0  0  0  0  0  0  0  0  0
   31.1119  -21.0151  -11.9803 O   0  0  0  0  0  0  0  0  0  0  0  0
  2  3  1  0
  2  1  1  6
  3  4  1  0
  4  8  1  0
  4  5  2  0
  5  6  1  0
  7  6  1  0
  8  7  2  0
  9 10  2  0
  9  2  1  0
 11  9  1  0
 12 11  1  0
 12 13  1  1
 13 14  1  0
 14 22  1  0
 14 15  2  0
 15 16  1  0
 17 16  1  0
 17 18  2  0
 19 18  1  0
 20 19  2  0
 21 20  1  0
 21 22  2  0
 22 17  1  0
 23 29  1  0
 23 12  1  0
 24 23  2  0
 26 28  1  0
 26 25  1  6
 27 26  1  0
 28 29  1  1
 28 30  1  0
 30 31  1  0
 32 30  2  0
M  END
$$$$
