HWV.pdb
     RDKit          3D

 32 34  0  0  1  0  0  0  0  0999 V2000
   28.2386  -21.7212  -15.3722 N   0  0  0  0  0  0  0  0  0  0  0  0
   27.7378  -20.5850  -14.6368 C   0  0  1  0  0  0  0  0  0  0  0  0
   27.1005  -19.6057  -15.5916 C   0  0  0  0  0  0  0  0  0  0  0  0
   28.0537  -18.6152  -16.1110 C   0  0  0  0  0  0  0  0  0  0  0  0
   29.3846  -18.5067  -15.7812 C   0  0  0  0  0  0  0  0  0  0  0  0
   29.8926  -17.4904  -16.4647 N   0  0  0  0  0  0  0  0  0  0  0  0
   28.9133  -16.9620  -17.2123 C   0  0  0  0  0  0  0  0  0  0  0  0
   27.7829  -17.6541  -16.9943 N   0  0  0  0  0  0  0  0  0  0  0  0
   26.6822  -21.0585  -13.7017 C   0  0  0  0  0  0  0  0  0  0  0  0
   26.0090  -22.0528  -14.0711 O   0  0  0  0  0  0  0  0  0  0  0  0
   26.3979  -20.4749  -12.4585 N   0  0  0  0  0  0  0  0  0  0  0  0
   25.3716  -20.9320  -11.5523 C   0  0  1  0  0  0  0  0  0  0  0  0
   25.5487  -20.4468  -10.1599 C   0  0  0  0  0  0  0  0  0  0  0  0
   26.9114  -20.7764   -9.6754 C   0  0  0  0  0  0  0  0  0  0  0  0
   27.8936  -21.5323  -10.2898 C   0  0  0  0  0  0  0  0  0  0  0  0
   28.9851  -21.5948   -9.5139 N   0  0  0  0  0  0  0  0  0  0  0  0
   28.7565  -20.8956   -8.3894 C   0  0  0  0  0  0  0  0  0  0  0  0
   29.5297  -20.6270   -7.2524 C   0  0  0  0  0  0  0  0  0  0  0  0
   28.9848  -19.8539   -6.2474 C   0  0  0  0  0  0  0  0  0  0  0  0
   27.7105  -19.3288   -6.3048 C   0  0  0  0  0  0  0  0  0  0  0  0
   26.9735  -19.6138   -7.4430 C   0  0  0  0  0  0  0  0  0  0  0  0
   27.4775  -20.3820   -8.4726 C   0  0  0  0  0  0  0  0  0  0  0  0
   24.0642  -20.4541  -12.0698 C   0  0  0  0  0  0  0  0  0  0  0  0
   23.9081  -19.2870  -12.4946 O   0  0  0  0  0  0  0  0  0  0  0  0
   22.5924  -21.1876  -15.0132 C   0  0  0  0  0  0  0  0  0  0  0  0
   21.5882  -21.7520  -14.0399 C   0  0  1  0  0  0  0  0  0  0  0  0
   21.7439  -23.2426  -13.8611 C   0  0  0  0  0  0  0  0  0  0  0  0
   21.6754  -21.0243  -12.6913 C   0  0  2  0  0  0  0  0  0  0  0  0
   22.9376  -21.3431  -12.0897 N   0  0  0  0  0  0  0  0  0  0  0  0
   20.5213  -21.5081  -11.9036 C   0  0  0  0  0  0  0  0  0  0  0  0
   19.2752  -20.9633  -12.1775 O   0  0  0  0  0  0  0  0  0  0  0  0
   20.5885  -22.3799  -11.0012 O   0  0  0  0  0  0  0  0  0  0  0  0
  2  3  1  0
  2  1  1  6
  3  4  1  0
  4  8  1  0
  4  5  2  0
  5  6  1  0
  7  6  1  0
  8  7  2  0
  9 10  2  0
  9  2  1  0
 11  9  1  0
 12 11  1  0
 12 13  1  1
 13 14  1  0
 14 22  1  0
 14 15  2  0
 15 16  1  0
 17 16  1  0
 17 18  2  0
 19 18  1  0
 20 19  2  0
 21 20  1  0
 21 22  2  0
 22 17  1  0
 23 29  1  0
 23 12  1  0
 24 23  2  0
 26 28  1  0
 26 25  1  6
 27 26  1  0
 28 29  1  1
 28 30  1  0
 30 31  1  0
 32 30  2  0
M  END
$$$$
