HWV.pdb
     RDKit          3D

 32 34  0  0  1  0  0  0  0  0999 V2000
   28.1428  -21.6378  -15.1961 N   0  0  0  0  0  0  0  0  0  0  0  0
   27.5069  -20.4812  -14.6129 C   0  0  1  0  0  0  0  0  0  0  0  0
   26.7985  -19.6968  -15.6899 C   0  0  0  0  0  0  0  0  0  0  0  0
   27.7193  -18.8999  -16.5124 C   0  0  0  0  0  0  0  0  0  0  0  0
   28.4318  -17.7948  -16.1088 C   0  0  0  0  0  0  0  0  0  0  0  0
   29.1439  -17.3686  -17.1429 N   0  0  0  0  0  0  0  0  0  0  0  0
   28.8943  -18.1791  -18.1811 C   0  0  0  0  0  0  0  0  0  0  0  0
   28.0183  -19.1204  -17.7927 N   0  0  0  0  0  0  0  0  0  0  0  0
   26.4804  -20.9482  -13.6428 C   0  0  0  0  0  0  0  0  0  0  0  0
   25.8437  -21.9855  -13.9541 O   0  0  0  0  0  0  0  0  0  0  0  0
   26.1854  -20.3143  -12.4270 N   0  0  0  0  0  0  0  0  0  0  0  0
   25.2643  -20.8223  -11.4385 C   0  0  1  0  0  0  0  0  0  0  0  0
   25.5272  -20.3184  -10.0665 C   0  0  0  0  0  0  0  0  0  0  0  0
   26.9121  -20.6563   -9.6566 C   0  0  0  0  0  0  0  0  0  0  0  0
   27.8654  -21.3923  -10.3374 C   0  0  0  0  0  0  0  0  0  0  0  0
   28.9929  -21.4719   -9.6164 N   0  0  0  0  0  0  0  0  0  0  0  0
   28.8170  -20.8038   -8.4639 C   0  0  0  0  0  0  0  0  0  0  0  0
   29.6432  -20.5631   -7.3584 C   0  0  0  0  0  0  0  0  0  0  0  0
   29.1454  -19.8189   -6.3081 C   0  0  0  0  0  0  0  0  0  0  0  0
   27.8689  -19.2966   -6.2904 C   0  0  0  0  0  0  0  0  0  0  0  0
   27.0787  -19.5536   -7.3994 C   0  0  0  0  0  0  0  0  0  0  0  0
   27.5344  -20.2924   -8.4721 C   0  0  0  0  0  0  0  0  0  0  0  0
   23.8940  -20.4222  -11.8478 C   0  0  0  0  0  0  0  0  0  0  0  0
   23.4966  -19.2385  -11.7588 O   0  0  0  0  0  0  0  0  0  0  0  0
   22.3223  -21.4190  -15.2504 C   0  0  0  0  0  0  0  0  0  0  0  0
   21.4439  -21.9259  -14.1343 C   0  0  1  0  0  0  0  0  0  0  0  0
   21.6409  -23.4005  -13.8794 C   0  0  0  0  0  0  0  0  0  0  0  0
   21.6734  -21.1111  -12.8540 C   0  0  2  0  0  0  0  0  0  0  0  0
   22.9871  -21.4088  -12.3615 N   0  0  0  0  0  0  0  0  0  0  0  0
   20.6005  -21.5228  -11.9235 C   0  0  0  0  0  0  0  0  0  0  0  0
   19.3363  -20.9837  -12.1124 O   0  0  0  0  0  0  0  0  0  0  0  0
   20.7522  -22.3283  -10.9710 O   0  0  0  0  0  0  0  0  0  0  0  0
  2  3  1  0
  2  1  1  6
  3  4  1  0
  4  8  1  0
  4  5  2  0
  5  6  1  0
  7  6  1  0
  8  7  2  0
  9 10  2  0
  9  2  1  0
 11  9  1  0
 12 11  1  0
 12 13  1  1
 13 14  1  0
 14 22  1  0
 14 15  2  0
 15 16  1  0
 17 16  1  0
 17 18  2  0
 19 18  1  0
 20 19  2  0
 21 20  1  0
 21 22  2  0
 22 17  1  0
 23 29  1  0
 23 12  1  0
 24 23  2  0
 26 28  1  0
 26 25  1  6
 27 26  1  0
 28 29  1  1
 28 30  1  0
 30 31  1  0
 32 30  2  0
M  END
$$$$
