HWV.pdb
     RDKit          3D

 32 34  0  0  1  0  0  0  0  0999 V2000
   28.3426  -21.5615  -15.1471 N   0  0  0  0  0  0  0  0  0  0  0  0
   27.7352  -20.4402  -14.4715 C   0  0  1  0  0  0  0  0  0  0  0  0
   27.0285  -19.5659  -15.4781 C   0  0  0  0  0  0  0  0  0  0  0  0
   27.9571  -18.8804  -16.3876 C   0  0  0  0  0  0  0  0  0  0  0  0
   28.1441  -19.1489  -17.7236 C   0  0  0  0  0  0  0  0  0  0  0  0
   29.0638  -18.3115  -18.1830 N   0  0  0  0  0  0  0  0  0  0  0  0
   29.4553  -17.5276  -17.1685 C   0  0  0  0  0  0  0  0  0  0  0  0
   28.7745  -17.8779  -16.0649 N   0  0  0  0  0  0  0  0  0  0  0  0
   26.7120  -20.9597  -13.5250 C   0  0  0  0  0  0  0  0  0  0  0  0
   26.0618  -21.9679  -13.8980 O   0  0  0  0  0  0  0  0  0  0  0  0
   26.4340  -20.4043  -12.2675 N   0  0  0  0  0  0  0  0  0  0  0  0
   25.3817  -20.8520  -11.3867 C   0  0  1  0  0  0  0  0  0  0  0  0
   25.5359  -20.3785   -9.9876 C   0  0  0  0  0  0  0  0  0  0  0  0
   26.8578  -20.7887   -9.4540 C   0  0  0  0  0  0  0  0  0  0  0  0
   27.8127  -21.6066  -10.0310 C   0  0  0  0  0  0  0  0  0  0  0  0
   28.8702  -21.7322   -9.2166 N   0  0  0  0  0  0  0  0  0  0  0  0
   28.6456  -21.0146   -8.1029 C   0  0  0  0  0  0  0  0  0  0  0  0
   29.3933  -20.7884   -6.9399 C   0  0  0  0  0  0  0  0  0  0  0  0
   28.8618  -19.9783   -5.9571 C   0  0  0  0  0  0  0  0  0  0  0  0
   27.6252  -19.3762   -6.0612 C   0  0  0  0  0  0  0  0  0  0  0  0
   26.9125  -19.6210   -7.2241 C   0  0  0  0  0  0  0  0  0  0  0  0
   27.4043  -20.4239   -8.2329 C   0  0  0  0  0  0  0  0  0  0  0  0
   24.0929  -20.3514  -11.9288 C   0  0  0  0  0  0  0  0  0  0  0  0
   23.9304  -19.1511  -12.2449 O   0  0  0  0  0  0  0  0  0  0  0  0
   21.6803  -23.0809  -13.8741 C   0  0  0  0  0  0  0  0  0  0  0  0
   21.5993  -21.5837  -14.0357 C   0  0  1  0  0  0  0  0  0  0  0  0
   20.3367  -21.1547  -14.7428 C   0  0  0  0  0  0  0  0  0  0  0  0
   21.7317  -20.8858  -12.6751 C   0  0  2  0  0  0  0  0  0  0  0  0
   22.9926  -21.2566  -12.1009 N   0  0  0  0  0  0  0  0  0  0  0  0
   20.5755  -21.3478  -11.8775 C   0  0  0  0  0  0  0  0  0  0  0  0
   19.4643  -20.5202  -11.8071 O   0  0  0  0  0  0  0  0  0  0  0  0
   20.5271  -22.4394  -11.2570 O   0  0  0  0  0  0  0  0  0  0  0  0
  2  3  1  0
  2  1  1  6
  3  4  1  0
  4  8  1  0
  4  5  2  0
  5  6  1  0
  7  6  1  0
  8  7  2  0
  9 10  2  0
  9  2  1  0
 11  9  1  0
 12 11  1  0
 12 13  1  1
 13 14  1  0
 14 22  1  0
 14 15  2  0
 15 16  1  0
 17 16  1  0
 17 18  2  0
 19 18  1  0
 20 19  2  0
 21 20  1  0
 21 22  2  0
 22 17  1  0
 23 29  1  0
 23 12  1  0
 24 23  2  0
 26 28  1  0
 26 25  1  1
 27 26  1  0
 28 29  1  1
 28 30  1  0
 30 31  1  0
 32 30  2  0
M  END
$$$$
