HWV.pdb
     RDKit          3D

 32 34  0  0  1  0  0  0  0  0999 V2000
   29.4528  -22.3810  -18.7570 N   0  0  0  0  0  0  0  0  0  0  0  0
   28.9519  -23.0723  -17.5936 C   0  0  1  0  0  0  0  0  0  0  0  0
   30.0983  -23.4043  -16.6702 C   0  0  0  0  0  0  0  0  0  0  0  0
   30.9408  -24.4955  -17.1788 C   0  0  0  0  0  0  0  0  0  0  0  0
   30.7579  -25.1955  -18.3487 C   0  0  0  0  0  0  0  0  0  0  0  0
   31.7302  -26.0920  -18.4438 N   0  0  0  0  0  0  0  0  0  0  0  0
   32.5148  -25.9696  -17.3638 C   0  0  0  0  0  0  0  0  0  0  0  0
   32.0289  -24.9878  -16.5864 N   0  0  0  0  0  0  0  0  0  0  0  0
   28.0321  -22.1589  -16.8638 C   0  0  0  0  0  0  0  0  0  0  0  0
   28.4714  -21.0118  -16.6002 O   0  0  0  0  0  0  0  0  0  0  0  0
   26.7312  -22.4930  -16.4599 N   0  0  0  0  0  0  0  0  0  0  0  0
   25.8207  -21.5911  -15.7958 C   0  0  1  0  0  0  0  0  0  0  0  0
   24.4496  -21.6037  -16.3664 C   0  0  0  0  0  0  0  0  0  0  0  0
   23.6041  -20.5950  -15.6825 C   0  0  0  0  0  0  0  0  0  0  0  0
   23.8354  -19.2426  -15.5052 C   0  0  0  0  0  0  0  0  0  0  0  0
   22.8241  -18.6836  -14.8253 N   0  0  0  0  0  0  0  0  0  0  0  0
   21.9170  -19.6335  -14.5416 C   0  0  0  0  0  0  0  0  0  0  0  0
   20.6901  -19.6174  -13.8654 C   0  0  0  0  0  0  0  0  0  0  0  0
   19.9846  -20.7973  -13.7436 C   0  0  0  0  0  0  0  0  0  0  0  0
   20.4275  -21.9988  -14.2564 C   0  0  0  0  0  0  0  0  0  0  0  0
   21.6443  -21.9789  -14.9191 C   0  0  0  0  0  0  0  0  0  0  0  0
   22.3837  -20.8230  -15.0649 C   0  0  0  0  0  0  0  0  0  0  0  0
   25.7543  -21.9856  -14.3656 C   0  0  0  0  0  0  0  0  0  0  0  0
   25.4263  -23.1411  -14.0131 O   0  0  0  0  0  0  0  0  0  0  0  0
   28.3781  -21.0592  -11.5561 C   0  0  0  0  0  0  0  0  0  0  0  0
   27.0211  -20.5081  -11.1966 C   0  0  1  0  0  0  0  0  0  0  0  0
   26.9235  -19.0236  -11.4518 C   0  0  0  0  0  0  0  0  0  0  0  0
   25.9150  -21.2680  -11.9414 C   0  0  2  0  0  0  0  0  0  0  0  0
   26.0717  -21.0264  -13.3463 N   0  0  0  0  0  0  0  0  0  0  0  0
   24.6414  -20.7434  -11.4035 C   0  0  0  0  0  0  0  0  0  0  0  0
   24.2423  -21.1737  -10.1465 O   0  0  0  0  0  0  0  0  0  0  0  0
   23.8924  -19.9335  -12.0052 O   0  0  0  0  0  0  0  0  0  0  0  0
  2  3  1  0
  2  1  1  6
  3  4  1  0
  4  8  1  0
  4  5  2  0
  5  6  1  0
  7  6  1  0
  8  7  2  0
  9 10  2  0
  9  2  1  0
 11  9  1  0
 12 11  1  0
 12 13  1  6
 13 14  1  0
 14 22  1  0
 14 15  2  0
 15 16  1  0
 17 16  1  0
 17 18  2  0
 19 18  1  0
 20 19  2  0
 21 20  1  0
 21 22  2  0
 22 17  1  0
 23 29  1  0
 23 12  1  0
 24 23  2  0
 26 28  1  0
 26 25  1  6
 27 26  1  0
 28 29  1  6
 28 30  1  0
 30 31  1  0
 32 30  2  0
M  END
$$$$
