HWV.pdb
     RDKit          3D

 32 34  0  0  1  0  0  0  0  0999 V2000
   27.6328  -22.0791  -15.2601 N   0  0  0  0  0  0  0  0  0  0  0  0
   27.7225  -20.8754  -14.4692 C   0  0  1  0  0  0  0  0  0  0  0  0
   26.9547  -19.7670  -15.1466 C   0  0  0  0  0  0  0  0  0  0  0  0
   27.6360  -19.2511  -16.3420 C   0  0  0  0  0  0  0  0  0  0  0  0
   27.3444  -19.5616  -17.6499 C   0  0  0  0  0  0  0  0  0  0  0  0
   28.1838  -18.8892  -18.4255 N   0  0  0  0  0  0  0  0  0  0  0  0
   28.9913  -18.1674  -17.6357 C   0  0  0  0  0  0  0  0  0  0  0  0
   28.6540  -18.3904  -16.3547 N   0  0  0  0  0  0  0  0  0  0  0  0
   27.0821  -21.1303  -13.1509 C   0  0  0  0  0  0  0  0  0  0  0  0
   26.0546  -21.8531  -13.1556 O   0  0  0  0  0  0  0  0  0  0  0  0
   27.5453  -20.6232  -11.9281 N   0  0  0  0  0  0  0  0  0  0  0  0
   26.8948  -20.8266  -10.6557 C   0  0  1  0  0  0  0  0  0  0  0  0
   27.6852  -20.3349   -9.4985 C   0  0  0  0  0  0  0  0  0  0  0  0
   26.9335  -20.5534   -8.2387 C   0  0  0  0  0  0  0  0  0  0  0  0
   25.6809  -21.1124   -8.0593 C   0  0  0  0  0  0  0  0  0  0  0  0
   25.3587  -21.1224   -6.7579 N   0  0  0  0  0  0  0  0  0  0  0  0
   26.3701  -20.5811   -6.0582 C   0  0  0  0  0  0  0  0  0  0  0  0
   26.5724  -20.3419   -4.6927 C   0  0  0  0  0  0  0  0  0  0  0  0
   27.7542  -19.7533   -4.2905 C   0  0  0  0  0  0  0  0  0  0  0  0
   28.7525  -19.3862   -5.1688 C   0  0  0  0  0  0  0  0  0  0  0  0
   28.5197  -19.6369   -6.5116 C   0  0  0  0  0  0  0  0  0  0  0  0
   27.3535  -20.2233   -6.9591 C   0  0  0  0  0  0  0  0  0  0  0  0
   25.5933  -20.1124  -10.6925 C   0  0  0  0  0  0  0  0  0  0  0  0
   25.5118  -18.8769  -10.5083 O   0  0  0  0  0  0  0  0  0  0  0  0
   21.1983  -20.1504  -12.7720 C   0  0  0  0  0  0  0  0  0  0  0  0
   22.6236  -20.5980  -12.5657 C   0  0  1  0  0  0  0  0  0  0  0  0
   23.5532  -20.0403  -13.6159 C   0  0  0  0  0  0  0  0  0  0  0  0
   23.1054  -20.2329  -11.1549 C   0  0  2  0  0  0  0  0  0  0  0  0
   24.3853  -20.8451  -10.9449 N   0  0  0  0  0  0  0  0  0  0  0  0
   22.0643  -20.7407  -10.2358 C   0  0  0  0  0  0  0  0  0  0  0  0
   21.0515  -19.8707   -9.8593 O   0  0  0  0  0  0  0  0  0  0  0  0
   22.0311  -21.9073   -9.7699 O   0  0  0  0  0  0  0  0  0  0  0  0
  2  3  1  0
  2  1  1  6
  3  4  1  0
  4  8  1  0
  4  5  2  0
  5  6  1  0
  7  6  1  0
  8  7  2  0
  9 10  2  0
  9  2  1  0
 11  9  1  0
 12 11  1  0
 12 13  1  1
 13 14  1  0
 14 22  1  0
 14 15  2  0
 15 16  1  0
 17 16  1  0
 17 18  2  0
 19 18  1  0
 20 19  2  0
 21 20  1  0
 21 22  2  0
 22 17  1  0
 23 29  1  0
 23 12  1  0
 24 23  2  0
 26 28  1  0
 26 25  1  6
 27 26  1  0
 28 29  1  1
 28 30  1  0
 30 31  1  0
 32 30  2  0
M  END
$$$$
