HWV.pdb
     RDKit          3D

 32 34  0  0  1  0  0  0  0  0999 V2000
   39.9980  -26.2441    4.5758 N   0  0  0  0  0  0  0  0  0  0  0  0
   38.6142  -26.2703    4.1672 C   0  0  1  0  0  0  0  0  0  0  0  0
   38.1040  -27.6900    4.2007 C   0  0  0  0  0  0  0  0  0  0  0  0
   38.5025  -28.4658    3.0180 C   0  0  0  0  0  0  0  0  0  0  0  0
   37.7497  -28.6814    1.8872 C   0  0  0  0  0  0  0  0  0  0  0  0
   38.4658  -29.4265    1.0565 N   0  0  0  0  0  0  0  0  0  0  0  0
   39.6457  -29.6814    1.6396 C   0  0  0  0  0  0  0  0  0  0  0  0
   39.6675  -29.0904    2.8456 N   0  0  0  0  0  0  0  0  0  0  0  0
   37.8201  -25.4802    5.1460 C   0  0  0  0  0  0  0  0  0  0  0  0
   38.0622  -25.6845    6.3617 O   0  0  0  0  0  0  0  0  0  0  0  0
   36.8373  -24.5405    4.8020 N   0  0  0  0  0  0  0  0  0  0  0  0
   36.0068  -23.8367    5.7498 C   0  0  1  0  0  0  0  0  0  0  0  0
   35.3518  -22.6295    5.1848 C   0  0  0  0  0  0  0  0  0  0  0  0
   34.4695  -22.0061    6.2012 C   0  0  0  0  0  0  0  0  0  0  0  0
   34.7143  -21.7796    7.5438 C   0  0  0  0  0  0  0  0  0  0  0  0
   33.6527  -21.1955    8.1175 N   0  0  0  0  0  0  0  0  0  0  0  0
   32.6982  -21.0247    7.1872 C   0  0  0  0  0  0  0  0  0  0  0  0
   31.4091  -20.4774    7.2241 C   0  0  0  0  0  0  0  0  0  0  0  0
   30.6660  -20.4520    6.0614 C   0  0  0  0  0  0  0  0  0  0  0  0
   31.1297  -20.9406    4.8576 C   0  0  0  0  0  0  0  0  0  0  0  0
   32.4083  -21.4747    4.8567 C   0  0  0  0  0  0  0  0  0  0  0  0
   33.1870  -21.5209    5.9949 C   0  0  0  0  0  0  0  0  0  0  0  0
   34.9613  -24.7788    6.2238 C   0  0  0  0  0  0  0  0  0  0  0  0
   34.2892  -25.4746    5.4294 O   0  0  0  0  0  0  0  0  0  0  0  0
   34.9973  -27.7856    8.2684 C   0  0  0  0  0  0  0  0  0  0  0  0
   34.2450  -26.7665    9.0868 C   0  0  1  0  0  0  0  0  0  0  0  0
   35.1094  -26.1447   10.1566 C   0  0  0  0  0  0  0  0  0  0  0  0
   33.6335  -25.6901    8.1794 C   0  0  2  0  0  0  0  0  0  0  0  0
   34.7014  -24.9065    7.6295 N   0  0  0  0  0  0  0  0  0  0  0  0
   32.7291  -24.9058    9.0474 C   0  0  0  0  0  0  0  0  0  0  0  0
   31.4018  -25.3015    9.1264 O   0  0  0  0  0  0  0  0  0  0  0  0
   33.0775  -23.9036    9.7206 O   0  0  0  0  0  0  0  0  0  0  0  0
  2  3  1  0
  2  1  1  1
  3  4  1  0
  4  8  1  0
  4  5  2  0
  5  6  1  0
  7  6  1  0
  8  7  2  0
  9 10  2  0
  9  2  1  0
 11  9  1  0
 12 11  1  0
 12 13  1  6
 13 14  1  0
 14 22  1  0
 14 15  2  0
 15 16  1  0
 17 16  1  0
 17 18  2  0
 19 18  1  0
 20 19  2  0
 21 20  1  0
 21 22  2  0
 22 17  1  0
 23 29  1  0
 23 12  1  0
 24 23  2  0
 26 28  1  0
 26 25  1  6
 27 26  1  0
 28 29  1  1
 28 30  1  0
 30 31  1  0
 32 30  2  0
M  END
$$$$
