NKV.pdb
     RDKit          3D

 25 24  0  0  1  0  0  0  0  0999 V2000
   14.5850  -17.4114   18.1848 N   0  0  0  0  0  0  0  0  0  0  0  0
   13.7934  -17.8549   19.2620 C   0  0  0  0  0  0  0  0  0  0  0  0
   13.6784  -19.0809   19.5129 O   0  0  0  0  0  0  0  0  0  0  0  0
   13.0692  -16.8778   20.1353 C   0  0  0  0  0  0  0  0  0  0  0  0
   12.3144  -17.5808   21.2333 C   0  0  2  0  0  0  0  0  0  0  0  0
   11.2730  -18.3821   20.6372 N   0  0  0  0  0  0  0  0  0  0  0  0
   11.6815  -16.5557   22.0972 C   0  0  0  0  0  0  0  0  0  0  0  0
   12.4166  -15.6194   22.5316 O   0  0  0  0  0  0  0  0  0  0  0  0
   10.3065  -16.5706   22.4586 N   0  0  0  0  0  0  0  0  0  0  0  0
    9.6945  -15.5759   23.3153 C   0  0  1  0  0  0  0  0  0  0  0  0
    8.2062  -15.5846   23.0398 C   0  0  0  0  0  0  0  0  0  0  0  0
    7.8062  -14.3399   22.3216 C   0  0  0  0  0  0  0  0  0  0  0  0
    7.6571  -14.6755   20.8530 C   0  0  0  0  0  0  0  0  0  0  0  0
    7.3564  -13.4509   20.0174 C   0  0  0  0  0  0  0  0  0  0  0  0
    7.2695  -13.9163   18.6304 N   0  0  0  0  0  0  0  0  0  0  0  0
   10.0192  -15.8847   24.7069 C   0  0  0  0  0  0  0  0  0  0  0  0
   10.3698  -17.0444   25.0453 O   0  0  0  0  0  0  0  0  0  0  0  0
   10.7081  -14.3552   29.4392 C   0  0  0  0  0  0  0  0  0  0  0  0
   10.2419  -14.0391   28.0397 C   0  0  2  0  0  0  0  0  0  0  0  0
    8.8570  -13.4776   28.0638 C   0  0  0  0  0  0  0  0  0  0  0  0
   10.3805  -15.2331   27.1226 C   0  0  2  0  0  0  0  0  0  0  0  0
    9.9676  -14.9254   25.7690 N   0  0  0  0  0  0  0  0  0  0  0  0
    9.5158  -16.3074   27.6382 C   0  0  0  0  0  0  0  0  0  0  0  0
    8.3599  -16.6384   26.9682 O   0  0  0  0  0  0  0  0  0  0  0  0
    9.8127  -16.9304   28.6813 O   0  0  0  0  0  0  0  0  0  0  0  0
  2  1  1  0
  2  3  2  0
  4  2  1  0
  5  4  1  0
  5  6  1  6
  7  5  1  0
  7  8  2  0
  9  7  1  0
 10  9  1  0
 10 11  1  1
 12 11  1  0
 13 12  1  0
 13 14  1  0
 14 15  1  0
 16 10  1  0
 17 16  2  0
 19 18  1  1
 20 19  1  0
 21 19  1  0
 21 22  1  6
 22 16  1  0
 23 24  1  0
 23 21  1  0
 25 23  2  0
M  END
$$$$
