NKV.pdb
     RDKit          3D

 25 24  0  0  1  0  0  0  0  0999 V2000
    8.1049  -12.2993   17.3998 N   0  0  0  0  0  0  0  0  0  0  0  0
    7.8616  -13.6488   17.7214 C   0  0  0  0  0  0  0  0  0  0  0  0
    8.0563  -14.5564   16.8743 O   0  0  0  0  0  0  0  0  0  0  0  0
    7.3652  -14.0364   19.0798 C   0  0  0  0  0  0  0  0  0  0  0  0
    8.4963  -14.4863   19.9674 C   0  0  2  0  0  0  0  0  0  0  0  0
    8.9970  -15.7462   19.4734 N   0  0  0  0  0  0  0  0  0  0  0  0
    7.9635  -14.6966   21.3347 C   0  0  0  0  0  0  0  0  0  0  0  0
    7.3882  -13.7177   21.8972 O   0  0  0  0  0  0  0  0  0  0  0  0
    8.0647  -15.9279   22.0384 N   0  0  0  0  0  0  0  0  0  0  0  0
    7.4827  -16.1514   23.3458 C   0  0  1  0  0  0  0  0  0  0  0  0
    7.5238  -17.6395   23.6191 C   0  0  0  0  0  0  0  0  0  0  0  0
    6.4606  -18.3377   22.8398 C   0  0  0  0  0  0  0  0  0  0  0  0
    6.5808  -19.8220   23.1117 C   0  0  0  0  0  0  0  0  0  0  0  0
    5.6187  -20.6336   22.2728 C   0  0  0  0  0  0  0  0  0  0  0  0
    5.8088  -22.0307   22.6729 N   0  0  0  0  0  0  0  0  0  0  0  0
    8.2230  -15.3688   24.3341 C   0  0  0  0  0  0  0  0  0  0  0  0
    9.4805  -15.3373   24.3214 O   0  0  0  0  0  0  0  0  0  0  0  0
    6.3147  -12.7102   27.2380 C   0  0  0  0  0  0  0  0  0  0  0  0
    7.6928  -12.5120   26.6570 C   0  0  2  0  0  0  0  0  0  0  0  0
    7.6388  -11.5845   25.4863 C   0  0  0  0  0  0  0  0  0  0  0  0
    8.3579  -13.8315   26.3364 C   0  0  2  0  0  0  0  0  0  0  0  0
    7.6009  -14.5966   25.3675 N   0  0  0  0  0  0  0  0  0  0  0  0
    8.4430  -14.6138   27.5807 C   0  0  0  0  0  0  0  0  0  0  0  0
    9.2401  -14.1750   28.6135 O   0  0  0  0  0  0  0  0  0  0  0  0
    7.8005  -15.6779   27.7195 O   0  0  0  0  0  0  0  0  0  0  0  0
  2  1  1  0
  2  3  2  0
  4  2  1  0
  5  4  1  0
  5  6  1  6
  7  5  1  0
  7  8  2  0
  9  7  1  0
 10  9  1  0
 10 11  1  1
 12 11  1  0
 13 12  1  0
 13 14  1  0
 14 15  1  0
 16 10  1  0
 17 16  2  0
 19 18  1  6
 20 19  1  0
 21 19  1  0
 21 22  1  6
 22 16  1  0
 23 24  1  0
 23 21  1  0
 25 23  2  0
M  END
$$$$
