NKV.pdb
     RDKit          3D

 25 24  0  0  1  0  0  0  0  0999 V2000
    8.1234  -12.3784   17.7968 N   0  0  0  0  0  0  0  0  0  0  0  0
    8.4620  -13.5953   18.4197 C   0  0  0  0  0  0  0  0  0  0  0  0
    9.2299  -14.4143   17.8552 O   0  0  0  0  0  0  0  0  0  0  0  0
    7.9161  -13.9442   19.7696 C   0  0  0  0  0  0  0  0  0  0  0  0
    7.9077  -15.4349   19.9874 C   0  0  2  0  0  0  0  0  0  0  0  0
    6.8552  -16.0120   19.1867 N   0  0  0  0  0  0  0  0  0  0  0  0
    7.6091  -15.6980   21.4154 C   0  0  0  0  0  0  0  0  0  0  0  0
    6.5027  -15.2802   21.8702 O   0  0  0  0  0  0  0  0  0  0  0  0
    8.4924  -16.3879   22.2903 N   0  0  0  0  0  0  0  0  0  0  0  0
    8.1729  -16.6954   23.6691 C   0  0  1  0  0  0  0  0  0  0  0  0
    8.9717  -17.9188   24.0644 C   0  0  0  0  0  0  0  0  0  0  0  0
    8.7574  -18.2320   25.5071 C   0  0  0  0  0  0  0  0  0  0  0  0
    7.8212  -19.4185   25.5933 C   0  0  0  0  0  0  0  0  0  0  0  0
    7.4128  -19.7183   27.0186 C   0  0  0  0  0  0  0  0  0  0  0  0
    6.4944  -20.8584   26.9472 N   0  0  0  0  0  0  0  0  0  0  0  0
    8.4707  -15.5274   24.4964 C   0  0  0  0  0  0  0  0  0  0  0  0
    9.5632  -14.9151   24.3785 O   0  0  0  0  0  0  0  0  0  0  0  0
    5.9553  -12.5430   25.3989 C   0  0  0  0  0  0  0  0  0  0  0  0
    6.6641  -13.0353   26.6362 C   0  0  2  0  0  0  0  0  0  0  0  0
    6.9508  -11.8980   27.5626 C   0  0  0  0  0  0  0  0  0  0  0  0
    7.8956  -13.8413   26.2900 C   0  0  2  0  0  0  0  0  0  0  0  0
    7.5741  -14.9976   25.4795 N   0  0  0  0  0  0  0  0  0  0  0  0
    8.5024  -14.3102   27.5468 C   0  0  0  0  0  0  0  0  0  0  0  0
    8.5706  -15.6587   27.8142 O   0  0  0  0  0  0  0  0  0  0  0  0
    8.9609  -13.5013   28.3834 O   0  0  0  0  0  0  0  0  0  0  0  0
  2  1  1  0
  2  3  2  0
  4  2  1  0
  5  4  1  0
  5  6  1  6
  7  5  1  0
  7  8  2  0
  9  7  1  0
 10  9  1  0
 10 11  1  1
 12 11  1  0
 13 12  1  0
 13 14  1  0
 14 15  1  0
 16 10  1  0
 17 16  2  0
 19 18  1  6
 20 19  1  0
 21 19  1  0
 21 22  1  6
 22 16  1  0
 23 24  1  0
 23 21  1  0
 25 23  2  0
M  END
$$$$
