NKV.pdb
     RDKit          3D

 25 24  0  0  1  0  0  0  0  0999 V2000
    8.2175  -12.5379   17.4574 N   0  0  0  0  0  0  0  0  0  0  0  0
    7.8060  -13.8542   17.7431 C   0  0  0  0  0  0  0  0  0  0  0  0
    7.9019  -14.7597   16.8770 O   0  0  0  0  0  0  0  0  0  0  0  0
    7.2441  -14.2083   19.0850 C   0  0  0  0  0  0  0  0  0  0  0  0
    8.3206  -14.7043   20.0149 C   0  0  2  0  0  0  0  0  0  0  0  0
    8.8198  -15.9618   19.5133 N   0  0  0  0  0  0  0  0  0  0  0  0
    7.7167  -14.9374   21.3485 C   0  0  0  0  0  0  0  0  0  0  0  0
    7.0289  -14.0004   21.8531 O   0  0  0  0  0  0  0  0  0  0  0  0
    7.8691  -16.1462   22.0814 N   0  0  0  0  0  0  0  0  0  0  0  0
    7.2700  -16.3742   23.3803 C   0  0  1  0  0  0  0  0  0  0  0  0
    7.3867  -17.8517   23.6875 C   0  0  0  0  0  0  0  0  0  0  0  0
    6.2442  -18.5969   23.0838 C   0  0  0  0  0  0  0  0  0  0  0  0
    6.4416  -20.0694   23.3739 C   0  0  0  0  0  0  0  0  0  0  0  0
    5.3318  -20.9174   22.7931 C   0  0  0  0  0  0  0  0  0  0  0  0
    5.6761  -22.3074   23.1051 N   0  0  0  0  0  0  0  0  0  0  0  0
    7.9429  -15.5311   24.3671 C   0  0  0  0  0  0  0  0  0  0  0  0
    9.1961  -15.4222   24.3751 O   0  0  0  0  0  0  0  0  0  0  0  0
    6.4288  -11.9889   25.7412 C   0  0  0  0  0  0  0  0  0  0  0  0
    7.0205  -12.8309   26.8442 C   0  0  2  0  0  0  0  0  0  0  0  0
    7.6754  -11.9640   27.8705 C   0  0  0  0  0  0  0  0  0  0  0  0
    7.9405  -13.8993   26.2978 C   0  0  2  0  0  0  0  0  0  0  0  0
    7.2560  -14.7817   25.3759 N   0  0  0  0  0  0  0  0  0  0  0  0
    8.4310  -14.7019   27.4304 C   0  0  0  0  0  0  0  0  0  0  0  0
    9.4460  -14.2188   28.2247 O   0  0  0  0  0  0  0  0  0  0  0  0
    7.9401  -15.8232   27.6875 O   0  0  0  0  0  0  0  0  0  0  0  0
  2  1  1  0
  2  3  2  0
  4  2  1  0
  5  4  1  0
  5  6  1  6
  7  5  1  0
  7  8  2  0
  9  7  1  0
 10  9  1  0
 10 11  1  1
 12 11  1  0
 13 12  1  0
 13 14  1  0
 14 15  1  0
 16 10  1  0
 17 16  2  0
 19 18  1  6
 20 19  1  0
 21 19  1  0
 21 22  1  6
 22 16  1  0
 23 24  1  0
 23 21  1  0
 25 23  2  0
M  END
$$$$
