NKV.pdb
     RDKit          3D

 25 24  0  0  1  0  0  0  0  0999 V2000
   14.2158  -18.7534   20.0895 N   0  0  0  0  0  0  0  0  0  0  0  0
   12.8688  -18.6149   20.4772 C   0  0  0  0  0  0  0  0  0  0  0  0
   11.9890  -19.3944   20.0329 O   0  0  0  0  0  0  0  0  0  0  0  0
   12.4510  -17.5362   21.4278 C   0  0  0  0  0  0  0  0  0  0  0  0
   11.0883  -16.9973   21.0785 C   0  0  2  0  0  0  0  0  0  0  0  0
   11.2136  -16.1381   19.9261 N   0  0  0  0  0  0  0  0  0  0  0  0
   10.5994  -16.1855   22.2184 C   0  0  0  0  0  0  0  0  0  0  0  0
   11.1726  -15.0769   22.4378 O   0  0  0  0  0  0  0  0  0  0  0  0
    9.5315  -16.5841   23.0683 N   0  0  0  0  0  0  0  0  0  0  0  0
    9.0675  -15.7966   24.1918 C   0  0  1  0  0  0  0  0  0  0  0  0
    7.5693  -15.9841   24.2974 C   0  0  0  0  0  0  0  0  0  0  0  0
    7.0452  -15.2870   25.5076 C   0  0  0  0  0  0  0  0  0  0  0  0
    6.6830  -13.8717   25.1112 C   0  0  0  0  0  0  0  0  0  0  0  0
    6.0646  -13.1008   26.2564 C   0  0  0  0  0  0  0  0  0  0  0  0
    5.6843  -11.7953   25.7096 N   0  0  0  0  0  0  0  0  0  0  0  0
    9.7819  -16.2204   25.3948 C   0  0  0  0  0  0  0  0  0  0  0  0
   10.2147  -17.3962   25.5074 O   0  0  0  0  0  0  0  0  0  0  0  0
    9.5210  -14.3638   29.3145 C   0  0  0  0  0  0  0  0  0  0  0  0
   10.8667  -14.7116   28.7280 C   0  0  2  0  0  0  0  0  0  0  0  0
   11.5468  -13.4840   28.2141 C   0  0  0  0  0  0  0  0  0  0  0  0
   10.7568  -15.8056   27.6901 C   0  0  2  0  0  0  0  0  0  0  0  0
   10.0418  -15.3621   26.5114 N   0  0  0  0  0  0  0  0  0  0  0  0
   10.0151  -16.9284   28.2873 C   0  0  0  0  0  0  0  0  0  0  0  0
   10.6265  -17.7358   29.2194 O   0  0  0  0  0  0  0  0  0  0  0  0
    8.8308  -17.1655   27.9621 O   0  0  0  0  0  0  0  0  0  0  0  0
  2  1  1  0
  2  3  2  0
  4  2  1  0
  5  4  1  0
  5  6  1  6
  7  5  1  0
  7  8  2  0
  9  7  1  0
 10  9  1  0
 10 11  1  1
 12 11  1  0
 13 12  1  0
 13 14  1  0
 14 15  1  0
 16 10  1  0
 17 16  2  0
 19 18  1  6
 20 19  1  0
 21 19  1  0
 21 22  1  6
 22 16  1  0
 23 24  1  0
 23 21  1  0
 25 23  2  0
M  END
$$$$
