NKV.pdb
     RDKit          3D

 25 24  0  0  1  0  0  0  0  0999 V2000
    8.3324  -12.3836   17.4612 N   0  0  0  0  0  0  0  0  0  0  0  0
    7.8727  -13.6994   17.6638 C   0  0  0  0  0  0  0  0  0  0  0  0
    7.9611  -14.5586   16.7510 O   0  0  0  0  0  0  0  0  0  0  0  0
    7.2674  -14.1080   18.9709 C   0  0  0  0  0  0  0  0  0  0  0  0
    8.3254  -14.5434   19.9510 C   0  0  2  0  0  0  0  0  0  0  0  0
    9.0488  -15.6560   19.3847 N   0  0  0  0  0  0  0  0  0  0  0  0
    7.6548  -15.0019   21.1911 C   0  0  0  0  0  0  0  0  0  0  0  0
    6.7086  -14.2909   21.6438 O   0  0  0  0  0  0  0  0  0  0  0  0
    8.0163  -16.1862   21.8899 N   0  0  0  0  0  0  0  0  0  0  0  0
    7.4649  -16.5540   23.1778 C   0  0  1  0  0  0  0  0  0  0  0  0
    7.6914  -18.0385   23.3679 C   0  0  0  0  0  0  0  0  0  0  0  0
    7.2823  -18.4519   24.7416 C   0  0  0  0  0  0  0  0  0  0  0  0
    7.5268  -19.9400   24.8737 C   0  0  0  0  0  0  0  0  0  0  0  0
    7.1535  -20.4582   26.2449 C   0  0  0  0  0  0  0  0  0  0  0  0
    6.4384  -21.7181   26.0228 N   0  0  0  0  0  0  0  0  0  0  0  0
    8.1001  -15.7423   24.2145 C   0  0  0  0  0  0  0  0  0  0  0  0
    9.3514  -15.6229   24.2639 O   0  0  0  0  0  0  0  0  0  0  0  0
    6.4355  -12.2672   25.3427 C   0  0  0  0  0  0  0  0  0  0  0  0
    7.0278  -12.9862   26.5293 C   0  0  2  0  0  0  0  0  0  0  0  0
    7.6241  -12.0084   27.4896 C   0  0  0  0  0  0  0  0  0  0  0  0
    7.9995  -14.0626   26.1011 C   0  0  2  0  0  0  0  0  0  0  0  0
    7.3765  -15.0369   25.2293 N   0  0  0  0  0  0  0  0  0  0  0  0
    8.4726  -14.7574   27.3098 C   0  0  0  0  0  0  0  0  0  0  0  0
    9.5523  -14.2636   28.0063 O   0  0  0  0  0  0  0  0  0  0  0  0
    7.9088  -15.7957   27.7200 O   0  0  0  0  0  0  0  0  0  0  0  0
  2  1  1  0
  2  3  2  0
  4  2  1  0
  5  4  1  0
  5  6  1  6
  7  5  1  0
  7  8  2  0
  9  7  1  0
 10  9  1  0
 10 11  1  1
 12 11  1  0
 13 12  1  0
 13 14  1  0
 14 15  1  0
 16 10  1  0
 17 16  2  0
 19 18  1  6
 20 19  1  0
 21 19  1  0
 21 22  1  6
 22 16  1  0
 23 24  1  0
 23 21  1  0
 25 23  2  0
M  END
$$$$
