NKV.pdb
     RDKit          3D

 25 24  0  0  1  0  0  0  0  0999 V2000
    7.8104  -12.6355   17.5855 N   0  0  0  0  0  0  0  0  0  0  0  0
    8.3354  -13.6193   18.4459 C   0  0  0  0  0  0  0  0  0  0  0  0
    9.3242  -14.3136   18.1005 O   0  0  0  0  0  0  0  0  0  0  0  0
    7.7294  -13.8629   19.7933 C   0  0  0  0  0  0  0  0  0  0  0  0
    7.6206  -15.3368   20.0854 C   0  0  2  0  0  0  0  0  0  0  0  0
    6.6208  -15.9069   19.2152 N   0  0  0  0  0  0  0  0  0  0  0  0
    7.1723  -15.5043   21.4885 C   0  0  0  0  0  0  0  0  0  0  0  0
    6.0409  -15.0286   21.8038 O   0  0  0  0  0  0  0  0  0  0  0  0
    7.9398  -16.1646   22.4868 N   0  0  0  0  0  0  0  0  0  0  0  0
    7.4803  -16.3652   23.8456 C   0  0  1  0  0  0  0  0  0  0  0  0
    7.7532  -17.8074   24.2151 C   0  0  0  0  0  0  0  0  0  0  0  0
    6.6235  -18.6764   23.7750 C   0  0  0  0  0  0  0  0  0  0  0  0
    6.9088  -20.0869   24.2448 C   0  0  0  0  0  0  0  0  0  0  0  0
    5.7890  -21.0410   23.8928 C   0  0  0  0  0  0  0  0  0  0  0  0
    6.2114  -22.3593   24.3744 N   0  0  0  0  0  0  0  0  0  0  0  0
    8.1609  -15.4129   24.7215 C   0  0  0  0  0  0  0  0  0  0  0  0
    9.3951  -15.1991   24.6064 O   0  0  0  0  0  0  0  0  0  0  0  0
    6.1188  -13.0516   27.8172 C   0  0  0  0  0  0  0  0  0  0  0  0
    7.2618  -12.5511   26.9695 C   0  0  2  0  0  0  0  0  0  0  0  0
    6.7467  -11.7625   25.8091 C   0  0  0  0  0  0  0  0  0  0  0  0
    8.1849  -13.6755   26.5577 C   0  0  2  0  0  0  0  0  0  0  0  0
    7.5028  -14.6666   25.7515 N   0  0  0  0  0  0  0  0  0  0  0  0
    8.6784  -14.3316   27.7798 C   0  0  0  0  0  0  0  0  0  0  0  0
    9.5322  -13.6575   28.6231 O   0  0  0  0  0  0  0  0  0  0  0  0
    8.3347  -15.4988   28.0696 O   0  0  0  0  0  0  0  0  0  0  0  0
  2  1  1  0
  2  3  2  0
  4  2  1  0
  5  4  1  0
  5  6  1  6
  7  5  1  0
  7  8  2  0
  9  7  1  0
 10  9  1  0
 10 11  1  1
 12 11  1  0
 13 12  1  0
 13 14  1  0
 14 15  1  0
 16 10  1  0
 17 16  2  0
 19 18  1  6
 20 19  1  0
 21 19  1  0
 21 22  1  6
 22 16  1  0
 23 24  1  0
 23 21  1  0
 25 23  2  0
M  END
$$$$
