NKV.pdb
     RDKit          3D

 25 24  0  0  1  0  0  0  0  0999 V2000
   10.5717  -14.3951   17.3103 N   0  0  0  0  0  0  0  0  0  0  0  0
   11.0647  -13.8181   18.4968 C   0  0  0  0  0  0  0  0  0  0  0  0
   12.2502  -13.4072   18.5672 O   0  0  0  0  0  0  0  0  0  0  0  0
   10.1896  -13.6795   19.7038 C   0  0  0  0  0  0  0  0  0  0  0  0
    8.7950  -14.1781   19.4281 C   0  0  2  0  0  0  0  0  0  0  0  0
    8.0929  -13.1812   18.6567 N   0  0  0  0  0  0  0  0  0  0  0  0
    8.0941  -14.3489   20.7232 C   0  0  0  0  0  0  0  0  0  0  0  0
    7.5735  -13.3201   21.2488 O   0  0  0  0  0  0  0  0  0  0  0  0
    7.9783  -15.5954   21.3974 N   0  0  0  0  0  0  0  0  0  0  0  0
    7.1682  -15.7910   22.5820 C   0  0  1  0  0  0  0  0  0  0  0  0
    6.8102  -17.2598   22.6569 C   0  0  0  0  0  0  0  0  0  0  0  0
    5.6951  -17.5686   21.7154 C   0  0  0  0  0  0  0  0  0  0  0  0
    5.3734  -19.0426   21.8400 C   0  0  0  0  0  0  0  0  0  0  0  0
    4.2685  -19.4652   20.8973 C   0  0  0  0  0  0  0  0  0  0  0  0
    4.0788  -20.9027   21.1116 N   0  0  0  0  0  0  0  0  0  0  0  0
    7.9153  -15.3253   23.7492 C   0  0  0  0  0  0  0  0  0  0  0  0
    9.1725  -15.3626   23.7672 O   0  0  0  0  0  0  0  0  0  0  0  0
    8.0530  -12.2352   27.6120 C   0  0  0  0  0  0  0  0  0  0  0  0
    7.2886  -12.9247   26.5093 C   0  0  2  0  0  0  0  0  0  0  0  0
    5.9086  -13.2712   26.9666 C   0  0  0  0  0  0  0  0  0  0  0  0
    8.0472  -14.1135   25.9639 C   0  0  2  0  0  0  0  0  0  0  0  0
    7.3004  -14.8041   24.9330 N   0  0  0  0  0  0  0  0  0  0  0  0
    8.2833  -15.0523   27.0731 C   0  0  0  0  0  0  0  0  0  0  0  0
    7.7565  -16.3228   27.0201 O   0  0  0  0  0  0  0  0  0  0  0  0
    8.9583  -14.7159   28.0709 O   0  0  0  0  0  0  0  0  0  0  0  0
  2  1  1  0
  2  3  2  0
  4  2  1  0
  5  4  1  0
  5  6  1  6
  7  5  1  0
  7  8  2  0
  9  7  1  0
 10  9  1  0
 10 11  1  1
 12 11  1  0
 13 12  1  0
 13 14  1  0
 14 15  1  0
 16 10  1  0
 17 16  2  0
 19 18  1  1
 20 19  1  0
 21 19  1  0
 21 22  1  6
 22 16  1  0
 23 24  1  0
 23 21  1  0
 25 23  2  0
M  END
$$$$
