NKV.pdb
     RDKit          3D

 25 24  0  0  1  0  0  0  0  0999 V2000
   13.9494  -13.8434   18.8018 N   0  0  0  0  0  0  0  0  0  0  0  0
   13.5753  -14.6759   19.8746 C   0  0  0  0  0  0  0  0  0  0  0  0
   14.3873  -15.5036   20.3589 O   0  0  0  0  0  0  0  0  0  0  0  0
   12.2017  -14.5959   20.4651 C   0  0  0  0  0  0  0  0  0  0  0  0
   11.4269  -15.8646   20.2210 C   0  0  2  0  0  0  0  0  0  0  0  0
   10.9899  -15.8807   18.8460 N   0  0  0  0  0  0  0  0  0  0  0  0
   10.2290  -15.8572   21.0942 C   0  0  0  0  0  0  0  0  0  0  0  0
    9.2447  -15.1452   20.7341 O   0  0  0  0  0  0  0  0  0  0  0  0
   10.1306  -16.6008   22.3021 N   0  0  0  0  0  0  0  0  0  0  0  0
    8.9368  -16.6402   23.1213 C   0  0  1  0  0  0  0  0  0  0  0  0
    8.7871  -18.0512   23.6482 C   0  0  0  0  0  0  0  0  0  0  0  0
    7.6761  -18.1167   24.6416 C   0  0  0  0  0  0  0  0  0  0  0  0
    7.5854  -19.5406   25.1476 C   0  0  0  0  0  0  0  0  0  0  0  0
    6.5020  -19.7058   26.1902 C   0  0  0  0  0  0  0  0  0  0  0  0
    6.5828  -21.0971   26.6437 N   0  0  0  0  0  0  0  0  0  0  0  0
    9.0585  -15.6439   24.1843 C   0  0  0  0  0  0  0  0  0  0  0  0
   10.1660  -15.4246   24.7390 O   0  0  0  0  0  0  0  0  0  0  0  0
    7.0955  -11.7849   26.7008 C   0  0  0  0  0  0  0  0  0  0  0  0
    6.8744  -12.9703   25.7945 C   0  0  2  0  0  0  0  0  0  0  0  0
    5.7020  -13.7726   26.2587 C   0  0  0  0  0  0  0  0  0  0  0  0
    8.1317  -13.7955   25.6386 C   0  0  2  0  0  0  0  0  0  0  0  0
    7.9637  -14.8582   24.6692 N   0  0  0  0  0  0  0  0  0  0  0  0
    8.4437  -14.4027   26.9430 C   0  0  0  0  0  0  0  0  0  0  0  0
    9.2534  -13.7356   27.8340 O   0  0  0  0  0  0  0  0  0  0  0  0
    7.9841  -15.5218   27.2606 O   0  0  0  0  0  0  0  0  0  0  0  0
  2  1  1  0
  2  3  2  0
  4  2  1  0
  5  4  1  0
  5  6  1  6
  7  5  1  0
  7  8  2  0
  9  7  1  0
 10  9  1  0
 10 11  1  1
 12 11  1  0
 13 12  1  0
 13 14  1  0
 14 15  1  0
 16 10  1  0
 17 16  2  0
 19 18  1  1
 20 19  1  0
 21 19  1  0
 21 22  1  6
 22 16  1  0
 23 24  1  0
 23 21  1  0
 25 23  2  0
M  END
$$$$
