NKV.pdb
     RDKit          3D

 25 24  0  0  1  0  0  0  0  0999 V2000
    7.2936  -13.4684   16.6368 N   0  0  0  0  0  0  0  0  0  0  0  0
    8.1064  -13.5645   17.7830 C   0  0  0  0  0  0  0  0  0  0  0  0
    9.3574  -13.4877   17.6919 O   0  0  0  0  0  0  0  0  0  0  0  0
    7.5013  -13.7603   19.1385 C   0  0  0  0  0  0  0  0  0  0  0  0
    8.4533  -14.4712   20.0647 C   0  0  2  0  0  0  0  0  0  0  0  0
    8.9130  -15.6761   19.4175 N   0  0  0  0  0  0  0  0  0  0  0  0
    7.7158  -14.8505   21.2935 C   0  0  0  0  0  0  0  0  0  0  0  0
    6.9944  -13.9648   21.8419 O   0  0  0  0  0  0  0  0  0  0  0  0
    7.7768  -16.1440   21.8807 N   0  0  0  0  0  0  0  0  0  0  0  0
    7.2685  -16.4462   23.2029 C   0  0  1  0  0  0  0  0  0  0  0  0
    7.5272  -17.9132   23.4708 C   0  0  0  0  0  0  0  0  0  0  0  0
    7.1366  -18.2602   24.8681 C   0  0  0  0  0  0  0  0  0  0  0  0
    7.4438  -19.7260   25.0886 C   0  0  0  0  0  0  0  0  0  0  0  0
    6.9543  -20.2135   26.4342 C   0  0  0  0  0  0  0  0  0  0  0  0
    7.2953  -21.6375   26.4995 N   0  0  0  0  0  0  0  0  0  0  0  0
    7.9175  -15.5657   24.1728 C   0  0  0  0  0  0  0  0  0  0  0  0
    9.1637  -15.3951   24.1562 O   0  0  0  0  0  0  0  0  0  0  0  0
    6.2275  -12.0932   25.5962 C   0  0  0  0  0  0  0  0  0  0  0  0
    6.8952  -12.9151   26.6707 C   0  0  2  0  0  0  0  0  0  0  0  0
    7.5164  -12.0265   27.6993 C   0  0  0  0  0  0  0  0  0  0  0  0
    7.8685  -13.9132   26.0853 C   0  0  2  0  0  0  0  0  0  0  0  0
    7.2138  -14.8457   25.1914 N   0  0  0  0  0  0  0  0  0  0  0  0
    8.4637  -14.6752   27.1955 C   0  0  0  0  0  0  0  0  0  0  0  0
    9.4324  -14.0959   27.9833 O   0  0  0  0  0  0  0  0  0  0  0  0
    8.1041  -15.8481   27.4394 O   0  0  0  0  0  0  0  0  0  0  0  0
  2  1  1  0
  2  3  2  0
  4  2  1  0
  5  4  1  0
  5  6  1  6
  7  5  1  0
  7  8  2  0
  9  7  1  0
 10  9  1  0
 10 11  1  1
 12 11  1  0
 13 12  1  0
 13 14  1  0
 14 15  1  0
 16 10  1  0
 17 16  2  0
 19 18  1  6
 20 19  1  0
 21 19  1  0
 21 22  1  6
 22 16  1  0
 23 24  1  0
 23 21  1  0
 25 23  2  0
M  END
$$$$
