NKV.pdb
     RDKit          3D

 25 24  0  0  1  0  0  0  0  0999 V2000
    7.2336  -13.7763   16.7425 N   0  0  0  0  0  0  0  0  0  0  0  0
    8.0889  -13.6872   17.8579 C   0  0  0  0  0  0  0  0  0  0  0  0
    9.3139  -13.4487   17.7109 O   0  0  0  0  0  0  0  0  0  0  0  0
    7.5610  -13.8743   19.2465 C   0  0  0  0  0  0  0  0  0  0  0  0
    8.4612  -14.7693   20.0578 C   0  0  2  0  0  0  0  0  0  0  0  0
    8.6468  -16.0080   19.3416 N   0  0  0  0  0  0  0  0  0  0  0  0
    7.7887  -15.0674   21.3448 C   0  0  0  0  0  0  0  0  0  0  0  0
    7.0754  -14.1552   21.8593 O   0  0  0  0  0  0  0  0  0  0  0  0
    7.9029  -16.3118   22.0231 N   0  0  0  0  0  0  0  0  0  0  0  0
    7.3487  -16.5589   23.3383 C   0  0  1  0  0  0  0  0  0  0  0  0
    7.6106  -18.0094   23.6824 C   0  0  0  0  0  0  0  0  0  0  0  0
    7.1802  -18.2944   25.0820 C   0  0  0  0  0  0  0  0  0  0  0  0
    7.3576  -19.7767   25.3326 C   0  0  0  0  0  0  0  0  0  0  0  0
    6.8859  -20.1808   26.7118 C   0  0  0  0  0  0  0  0  0  0  0  0
    7.1141  -21.6251   26.8127 N   0  0  0  0  0  0  0  0  0  0  0  0
    7.9534  -15.6283   24.2899 C   0  0  0  0  0  0  0  0  0  0  0  0
    9.1989  -15.4542   24.3190 O   0  0  0  0  0  0  0  0  0  0  0  0
    5.9853  -12.2313   25.5947 C   0  0  0  0  0  0  0  0  0  0  0  0
    6.7872  -12.9154   26.6740 C   0  0  2  0  0  0  0  0  0  0  0  0
    7.3815  -11.9069   27.6032 C   0  0  0  0  0  0  0  0  0  0  0  0
    7.8135  -13.8608   26.0918 C   0  0  2  0  0  0  0  0  0  0  0  0
    7.2047  -14.8606   25.2391 N   0  0  0  0  0  0  0  0  0  0  0  0
    8.4846  -14.5489   27.2070 C   0  0  0  0  0  0  0  0  0  0  0  0
    9.3475  -13.8526   28.0227 O   0  0  0  0  0  0  0  0  0  0  0  0
    8.2850  -15.7633   27.4301 O   0  0  0  0  0  0  0  0  0  0  0  0
  2  1  1  0
  2  3  2  0
  4  2  1  0
  5  4  1  0
  5  6  1  6
  7  5  1  0
  7  8  2  0
  9  7  1  0
 10  9  1  0
 10 11  1  1
 12 11  1  0
 13 12  1  0
 13 14  1  0
 14 15  1  0
 16 10  1  0
 17 16  2  0
 19 18  1  6
 20 19  1  0
 21 19  1  0
 21 22  1  6
 22 16  1  0
 23 24  1  0
 23 21  1  0
 25 23  2  0
M  END
$$$$
