NKV.pdb
     RDKit          3D

 25 24  0  0  1  0  0  0  0  0999 V2000
   10.6666  -14.2515   17.9067 N   0  0  0  0  0  0  0  0  0  0  0  0
   10.7536  -13.3204   18.9600 C   0  0  0  0  0  0  0  0  0  0  0  0
   11.6475  -12.4372   18.9647 O   0  0  0  0  0  0  0  0  0  0  0  0
    9.7838  -13.3589   20.1001 C   0  0  0  0  0  0  0  0  0  0  0  0
    8.7380  -14.4232   19.8926 C   0  0  2  0  0  0  0  0  0  0  0  0
    7.7400  -13.9177   18.9814 N   0  0  0  0  0  0  0  0  0  0  0  0
    8.0869  -14.7003   21.1953 C   0  0  0  0  0  0  0  0  0  0  0  0
    7.2295  -13.8655   21.6121 O   0  0  0  0  0  0  0  0  0  0  0  0
    8.3732  -15.8431   21.9913 N   0  0  0  0  0  0  0  0  0  0  0  0
    7.7141  -16.1260   23.2497 C   0  0  1  0  0  0  0  0  0  0  0  0
    7.8132  -17.6161   23.4958 C   0  0  0  0  0  0  0  0  0  0  0  0
    7.2676  -17.9550   24.8422 C   0  0  0  0  0  0  0  0  0  0  0  0
    7.3789  -19.4532   25.0278 C   0  0  0  0  0  0  0  0  0  0  0  0
    6.8760  -19.8973   26.3835 C   0  0  0  0  0  0  0  0  0  0  0  0
    7.1255  -21.3397   26.4573 N   0  0  0  0  0  0  0  0  0  0  0  0
    8.3425  -15.3305   24.3030 C   0  0  0  0  0  0  0  0  0  0  0  0
    9.5908  -15.3368   24.4583 O   0  0  0  0  0  0  0  0  0  0  0  0
    6.0976  -12.8526   27.1478 C   0  0  0  0  0  0  0  0  0  0  0  0
    7.4644  -12.4951   26.6189 C   0  0  2  0  0  0  0  0  0  0  0  0
    7.3510  -11.5192   25.4926 C   0  0  0  0  0  0  0  0  0  0  0  0
    8.2619  -13.7273   26.2561 C   0  0  2  0  0  0  0  0  0  0  0  0
    7.6151  -14.5032   25.2182 N   0  0  0  0  0  0  0  0  0  0  0  0
    8.3767  -14.5674   27.4596 C   0  0  0  0  0  0  0  0  0  0  0  0
    9.1550  -14.1503   28.5155 O   0  0  0  0  0  0  0  0  0  0  0  0
    7.7763  -15.6615   27.5429 O   0  0  0  0  0  0  0  0  0  0  0  0
  2  1  1  0
  2  3  2  0
  4  2  1  0
  5  4  1  0
  5  6  1  6
  7  5  1  0
  7  8  2  0
  9  7  1  0
 10  9  1  0
 10 11  1  1
 12 11  1  0
 13 12  1  0
 13 14  1  0
 14 15  1  0
 16 10  1  0
 17 16  2  0
 19 18  1  6
 20 19  1  0
 21 19  1  0
 21 22  1  6
 22 16  1  0
 23 24  1  0
 23 21  1  0
 25 23  2  0
M  END
$$$$
