NKV.pdb
     RDKit          3D

 25 24  0  0  1  0  0  0  0  0999 V2000
    8.3333  -12.5775   17.5368 N   0  0  0  0  0  0  0  0  0  0  0  0
    7.8425  -13.8544   17.8720 C   0  0  0  0  0  0  0  0  0  0  0  0
    7.8422  -14.7848   17.0273 O   0  0  0  0  0  0  0  0  0  0  0  0
    7.3089  -14.1360   19.2424 C   0  0  0  0  0  0  0  0  0  0  0  0
    8.3719  -14.7252   20.1326 C   0  0  2  0  0  0  0  0  0  0  0  0
    8.7372  -16.0227   19.6180 N   0  0  0  0  0  0  0  0  0  0  0  0
    7.8015  -14.9019   21.4894 C   0  0  0  0  0  0  0  0  0  0  0  0
    7.1456  -13.9354   21.9807 O   0  0  0  0  0  0  0  0  0  0  0  0
    7.9519  -16.0884   22.2583 N   0  0  0  0  0  0  0  0  0  0  0  0
    7.3799  -16.2637   23.5774 C   0  0  1  0  0  0  0  0  0  0  0  0
    7.4062  -17.7430   23.8971 C   0  0  0  0  0  0  0  0  0  0  0  0
    6.2518  -18.4320   23.2508 C   0  0  0  0  0  0  0  0  0  0  0  0
    6.3553  -19.9096   23.5633 C   0  0  0  0  0  0  0  0  0  0  0  0
    5.2210  -20.7012   22.9511 C   0  0  0  0  0  0  0  0  0  0  0  0
    5.4457  -22.0976   23.3354 N   0  0  0  0  0  0  0  0  0  0  0  0
    8.1388  -15.4595   24.5337 C   0  0  0  0  0  0  0  0  0  0  0  0
    9.3965  -15.4478   24.5119 O   0  0  0  0  0  0  0  0  0  0  0  0
    6.2874  -12.7812   27.4753 C   0  0  0  0  0  0  0  0  0  0  0  0
    7.6339  -12.5581   26.8325 C   0  0  2  0  0  0  0  0  0  0  0  0
    7.5088  -11.6381   25.6614 C   0  0  0  0  0  0  0  0  0  0  0  0
    8.3109  -13.8655   26.4883 C   0  0  2  0  0  0  0  0  0  0  0  0
    7.5356  -14.6431   25.5440 N   0  0  0  0  0  0  0  0  0  0  0  0
    8.4512  -14.6471   27.7280 C   0  0  0  0  0  0  0  0  0  0  0  0
    9.3035  -14.2148   28.7186 O   0  0  0  0  0  0  0  0  0  0  0  0
    7.8063  -15.7048   27.9007 O   0  0  0  0  0  0  0  0  0  0  0  0
  2  1  1  0
  2  3  2  0
  4  2  1  0
  5  4  1  0
  5  6  1  6
  7  5  1  0
  7  8  2  0
  9  7  1  0
 10  9  1  0
 10 11  1  1
 12 11  1  0
 13 12  1  0
 13 14  1  0
 14 15  1  0
 16 10  1  0
 17 16  2  0
 19 18  1  6
 20 19  1  0
 21 19  1  0
 21 22  1  6
 22 16  1  0
 23 24  1  0
 23 21  1  0
 25 23  2  0
M  END
$$$$
