WWQ.pdb
     RDKit          3D

 38 41  0  0  1  0  0  0  0  0999 V2000
   10.4026  -16.3982   19.6248 N   0  0  0  0  0  0  0  0  0  0  0  0
   11.1316  -15.3487   20.2591 C   0  0  1  0  0  0  0  0  0  0  0  0
   11.2779  -14.1105   19.4371 C   0  0  0  0  0  0  0  0  0  0  0  0
   11.9839  -14.4258   18.1788 C   0  0  0  0  0  0  0  0  0  0  0  0
   11.3920  -14.7606   16.9577 C   0  0  0  0  0  0  0  0  0  0  0  0
   12.3404  -14.9415   16.0354 N   0  0  0  0  0  0  0  0  0  0  0  0
   13.5468  -14.7427   16.5860 C   0  0  0  0  0  0  0  0  0  0  0  0
   14.8447  -14.8046   16.0924 C   0  0  0  0  0  0  0  0  0  0  0  0
   15.9001  -14.5441   16.9473 C   0  0  0  0  0  0  0  0  0  0  0  0
   15.7019  -14.2266   18.2722 C   0  0  0  0  0  0  0  0  0  0  0  0
   14.4143  -14.1676   18.7534 C   0  0  0  0  0  0  0  0  0  0  0  0
   13.3387  -14.4202   17.9276 C   0  0  0  0  0  0  0  0  0  0  0  0
   10.6083  -15.0877   21.6342 C   0  0  0  0  0  0  0  0  0  0  0  0
   11.1252  -14.1860   22.3727 O   0  0  0  0  0  0  0  0  0  0  0  0
    9.5252  -15.8671   22.0910 N   0  0  0  0  0  0  0  0  0  0  0  0
    8.9557  -15.6620   23.4442 C   0  0  1  0  0  0  0  0  0  0  0  0
    7.5844  -15.1476   23.2712 C   0  0  0  0  0  0  0  0  0  0  0  0
    6.9490  -14.7690   24.5419 C   0  0  0  0  0  0  0  0  0  0  0  0
    6.1929  -15.6135   25.3269 C   0  0  0  0  0  0  0  0  0  0  0  0
    5.7609  -14.9112   26.3892 N   0  0  0  0  0  0  0  0  0  0  0  0
    6.2181  -13.6435   26.3064 C   0  0  0  0  0  0  0  0  0  0  0  0
    6.0541  -12.5395   27.1489 C   0  0  0  0  0  0  0  0  0  0  0  0
    6.6514  -11.3303   26.8137 C   0  0  0  0  0  0  0  0  0  0  0  0
    7.3928  -11.2405   25.6604 C   0  0  0  0  0  0  0  0  0  0  0  0
    7.5631  -12.3172   24.8224 C   0  0  0  0  0  0  0  0  0  0  0  0
    6.9610  -13.5280   25.1646 C   0  0  0  0  0  0  0  0  0  0  0  0
    9.1603  -16.8822   24.2034 C   0  0  0  0  0  0  0  0  0  0  0  0
    8.8438  -17.9917   23.6352 O   0  0  0  0  0  0  0  0  0  0  0  0
   13.9951  -18.9778   23.6230 N   0  0  0  0  0  0  0  0  0  0  0  0
   13.9896  -17.8504   24.4833 C   0  0  0  0  0  0  0  0  0  0  0  0
   15.0533  -17.2291   24.8264 O   0  0  0  0  0  0  0  0  0  0  0  0
   12.7330  -17.3052   25.0451 C   0  0  0  0  0  0  0  0  0  0  0  0
   11.6085  -18.2449   24.8714 C   0  0  0  0  0  0  0  0  0  0  0  0
   10.5274  -18.1505   25.8944 C   0  0  2  0  0  0  0  0  0  0  0  0
    9.6728  -16.9832   25.4980 N   0  0  0  0  0  0  0  0  0  0  0  0
   10.9084  -17.9604   27.2841 C   0  0  0  0  0  0  0  0  0  0  0  0
   11.3127  -18.9138   28.0123 O   0  0  0  0  0  0  0  0  0  0  0  0
   10.8781  -16.7184   27.9464 O   0  0  0  0  0  0  0  0  0  0  0  0
  2  1  1  6
  2 13  1  0
  2  3  1  0
  4  5  2  0
  4  3  1  0
  6  5  1  0
  7 12  2  0
  7  6  1  0
  8  7  1  0
  9 10  1  0
  9  8  2  0
 10 11  2  0
 11 12  1  0
 12  4  1  0
 13 15  1  0
 14 13  2  0
 15 16  1  0
 16 17  1  6
 16 27  1  0
 18 17  1  0
 19 18  2  0
 20 21  1  0
 20 19  1  0
 21 26  2  0
 22 23  2  0
 22 21  1  0
 23 24  1  0
 24 25  2  0
 26 25  1  0
 26 18  1  0
 27 28  2  0
 27 35  1  0
 29 30  1  0
 30 32  1  0
 31 30  2  0
 32 33  1  0
 34 33  1  6
 34 36  1  0
 35 34  1  0
 36 37  2  0
 36 38  1  0
M  END
$$$$
