WWQ.pdb
     RDKit          3D

 38 41  0  0  1  0  0  0  0  0999 V2000
    8.8832  -17.2561   22.1198 N   0  0  0  0  0  0  0  0  0  0  0  0
    8.9341  -15.8625   22.4206 C   0  0  1  0  0  0  0  0  0  0  0  0
    7.6289  -15.1501   22.2824 C   0  0  0  0  0  0  0  0  0  0  0  0
    7.3559  -14.8780   20.8567 C   0  0  0  0  0  0  0  0  0  0  0  0
    6.4969  -15.6012   20.0245 C   0  0  0  0  0  0  0  0  0  0  0  0
    6.4729  -15.0425   18.8121 N   0  0  0  0  0  0  0  0  0  0  0  0
    7.2813  -13.9728   18.7939 C   0  0  0  0  0  0  0  0  0  0  0  0
    7.6258  -13.0516   17.8116 C   0  0  0  0  0  0  0  0  0  0  0  0
    8.5185  -12.0422   18.1228 C   0  0  0  0  0  0  0  0  0  0  0  0
    9.0758  -11.9246   19.3763 C   0  0  0  0  0  0  0  0  0  0  0  0
    8.7300  -12.8404   20.3431 C   0  0  0  0  0  0  0  0  0  0  0  0
    7.8414  -13.8586   20.0669 C   0  0  0  0  0  0  0  0  0  0  0  0
    9.6032  -15.6221   23.7350 C   0  0  0  0  0  0  0  0  0  0  0  0
   10.3529  -14.6062   23.9135 O   0  0  0  0  0  0  0  0  0  0  0  0
    9.3803  -16.5509   24.7727 N   0  0  0  0  0  0  0  0  0  0  0  0
   10.1005  -16.4388   26.0636 C   0  0  1  0  0  0  0  0  0  0  0  0
    9.0875  -16.4540   27.1354 C   0  0  0  0  0  0  0  0  0  0  0  0
    7.9118  -15.6273   26.8255 C   0  0  0  0  0  0  0  0  0  0  0  0
    6.6960  -16.1160   26.3968 C   0  0  0  0  0  0  0  0  0  0  0  0
    5.8796  -15.0671   26.1930 N   0  0  0  0  0  0  0  0  0  0  0  0
    6.5373  -13.9230   26.4785 C   0  0  0  0  0  0  0  0  0  0  0  0
    6.1365  -12.5841   26.4317 C   0  0  0  0  0  0  0  0  0  0  0  0
    7.0376  -11.5888   26.7904 C   0  0  0  0  0  0  0  0  0  0  0  0
    8.3066  -11.9376   27.1848 C   0  0  0  0  0  0  0  0  0  0  0  0
    8.7151  -13.2496   27.2360 C   0  0  0  0  0  0  0  0  0  0  0  0
    7.8058  -14.2436   26.8749 C   0  0  0  0  0  0  0  0  0  0  0  0
   11.1535  -17.4380   26.0746 C   0  0  0  0  0  0  0  0  0  0  0  0
   11.7377  -17.6682   27.1970 O   0  0  0  0  0  0  0  0  0  0  0  0
   11.8086  -20.7059   20.9320 N   0  0  0  0  0  0  0  0  0  0  0  0
   13.0412  -20.3764   21.5512 C   0  0  0  0  0  0  0  0  0  0  0  0
   14.1665  -20.8363   21.1545 O   0  0  0  0  0  0  0  0  0  0  0  0
   13.1095  -19.4595   22.7116 C   0  0  0  0  0  0  0  0  0  0  0  0
   12.5952  -20.0980   23.9385 C   0  0  0  0  0  0  0  0  0  0  0  0
   12.6400  -19.2565   25.1690 C   0  0  2  0  0  0  0  0  0  0  0  0
   11.6037  -18.1874   24.9864 N   0  0  0  0  0  0  0  0  0  0  0  0
   13.8907  -18.5986   25.5086 C   0  0  0  0  0  0  0  0  0  0  0  0
   14.9010  -19.2375   25.9255 O   0  0  0  0  0  0  0  0  0  0  0  0
   14.1059  -17.2115   25.4002 O   0  0  0  0  0  0  0  0  0  0  0  0
  2  1  1  1
  2 13  1  0
  2  3  1  0
  4  5  2  0
  4  3  1  0
  6  5  1  0
  7 12  2  0
  7  6  1  0
  8  7  1  0
  9 10  1  0
  9  8  2  0
 10 11  2  0
 11 12  1  0
 12  4  1  0
 13 15  1  0
 14 13  2  0
 15 16  1  0
 16 17  1  1
 16 27  1  0
 18 17  1  0
 19 18  2  0
 20 21  1  0
 20 19  1  0
 21 26  2  0
 22 23  2  0
 22 21  1  0
 23 24  1  0
 24 25  2  0
 26 25  1  0
 26 18  1  0
 27 28  2  0
 27 35  1  0
 29 30  1  0
 30 32  1  0
 31 30  2  0
 32 33  1  0
 34 33  1  6
 34 36  1  0
 35 34  1  0
 36 37  2  0
 36 38  1  0
M  END
$$$$
