WWQ.pdb
     RDKit          3D

 38 41  0  0  1  0  0  0  0  0999 V2000
    8.5974  -17.0512   22.3049 N   0  0  0  0  0  0  0  0  0  0  0  0
    8.7536  -15.6494   22.5190 C   0  0  1  0  0  0  0  0  0  0  0  0
    7.5397  -14.8359   22.2106 C   0  0  0  0  0  0  0  0  0  0  0  0
    7.3573  -14.7440   20.7479 C   0  0  0  0  0  0  0  0  0  0  0  0
    6.5061  -15.5316   19.9677 C   0  0  0  0  0  0  0  0  0  0  0  0
    6.5760  -15.1389   18.6934 N   0  0  0  0  0  0  0  0  0  0  0  0
    7.4400  -14.1193   18.5839 C   0  0  0  0  0  0  0  0  0  0  0  0
    7.8846  -13.3540   17.5120 C   0  0  0  0  0  0  0  0  0  0  0  0
    8.8121  -12.3542   17.7413 C   0  0  0  0  0  0  0  0  0  0  0  0
    9.3078  -12.0962   18.9996 C   0  0  0  0  0  0  0  0  0  0  0  0
    8.8632  -12.8582   20.0554 C   0  0  0  0  0  0  0  0  0  0  0  0
    7.9374  -13.8623   19.8621 C   0  0  0  0  0  0  0  0  0  0  0  0
    9.3220  -15.3741   23.8732 C   0  0  0  0  0  0  0  0  0  0  0  0
    9.9050  -14.2690   24.1279 O   0  0  0  0  0  0  0  0  0  0  0  0
    9.1938  -16.3717   24.8620 N   0  0  0  0  0  0  0  0  0  0  0  0
    9.9713  -16.3002   26.1222 C   0  0  1  0  0  0  0  0  0  0  0  0
    9.0041  -16.2811   27.2354 C   0  0  0  0  0  0  0  0  0  0  0  0
    7.7825  -15.5256   26.9213 C   0  0  0  0  0  0  0  0  0  0  0  0
    6.6014  -16.0851   26.4822 C   0  0  0  0  0  0  0  0  0  0  0  0
    5.7241  -15.0867   26.2775 N   0  0  0  0  0  0  0  0  0  0  0  0
    6.3093  -13.9062   26.5725 C   0  0  0  0  0  0  0  0  0  0  0  0
    5.8283  -12.5939   26.5289 C   0  0  0  0  0  0  0  0  0  0  0  0
    6.6650  -11.5475   26.8980 C   0  0  0  0  0  0  0  0  0  0  0  0
    7.9503  -11.8206   27.2995 C   0  0  0  0  0  0  0  0  0  0  0  0
    8.4373  -13.1056   27.3476 C   0  0  0  0  0  0  0  0  0  0  0  0
    7.5923  -14.1512   26.9760 C   0  0  0  0  0  0  0  0  0  0  0  0
   10.9804  -17.3429   26.0830 C   0  0  0  0  0  0  0  0  0  0  0  0
   11.5746  -17.6318   27.1863 O   0  0  0  0  0  0  0  0  0  0  0  0
   11.8229  -21.6888   21.7281 N   0  0  0  0  0  0  0  0  0  0  0  0
   13.1375  -21.2144   21.9690 C   0  0  0  0  0  0  0  0  0  0  0  0
   14.1369  -21.5241   21.2339 O   0  0  0  0  0  0  0  0  0  0  0  0
   13.4444  -20.3106   23.1007 C   0  0  0  0  0  0  0  0  0  0  0  0
   12.2497  -20.0511   23.9272 C   0  0  0  0  0  0  0  0  0  0  0  0
   12.4511  -19.1197   25.0744 C   0  0  2  0  0  0  0  0  0  0  0  0
   11.3782  -18.0772   24.9643 N   0  0  0  0  0  0  0  0  0  0  0  0
   13.7238  -18.4263   25.1839 C   0  0  0  0  0  0  0  0  0  0  0  0
   14.6698  -18.8564   25.9070 O   0  0  0  0  0  0  0  0  0  0  0  0
   14.0327  -17.2343   24.5013 O   0  0  0  0  0  0  0  0  0  0  0  0
  2  1  1  1
  2 13  1  0
  2  3  1  0
  4  5  2  0
  4  3  1  0
  6  5  1  0
  7 12  2  0
  7  6  1  0
  8  7  1  0
  9 10  1  0
  9  8  2  0
 10 11  2  0
 11 12  1  0
 12  4  1  0
 13 15  1  0
 14 13  2  0
 15 16  1  0
 16 17  1  1
 16 27  1  0
 18 17  1  0
 19 18  2  0
 20 21  1  0
 20 19  1  0
 21 26  2  0
 22 23  2  0
 22 21  1  0
 23 24  1  0
 24 25  2  0
 26 25  1  0
 26 18  1  0
 27 28  2  0
 27 35  1  0
 29 30  1  0
 30 32  1  0
 31 30  2  0
 32 33  1  0
 34 33  1  6
 34 36  1  0
 35 34  1  0
 36 37  2  0
 36 38  1  0
M  END
$$$$
