WWQ.pdb
     RDKit          3D

 38 41  0  0  1  0  0  0  0  0999 V2000
    7.9890  -14.7065   21.8981 N   0  0  0  0  0  0  0  0  0  0  0  0
    8.8497  -15.8377   22.0204 C   0  0  1  0  0  0  0  0  0  0  0  0
    9.8699  -15.9609   20.9367 C   0  0  0  0  0  0  0  0  0  0  0  0
    9.2506  -15.6602   19.6301 C   0  0  0  0  0  0  0  0  0  0  0  0
    9.2988  -16.4615   18.4860 C   0  0  0  0  0  0  0  0  0  0  0  0
    8.5948  -15.8872   17.5075 N   0  0  0  0  0  0  0  0  0  0  0  0
    8.0749  -14.7317   17.9462 C   0  0  0  0  0  0  0  0  0  0  0  0
    7.2831  -13.7542   17.3547 C   0  0  0  0  0  0  0  0  0  0  0  0
    6.9146  -12.6489   18.0997 C   0  0  0  0  0  0  0  0  0  0  0  0
    7.3101  -12.4889   19.4087 C   0  0  0  0  0  0  0  0  0  0  0  0
    8.0939  -13.4605   19.9869 C   0  0  0  0  0  0  0  0  0  0  0  0
    8.4782  -14.5764   19.2730 C   0  0  0  0  0  0  0  0  0  0  0  0
    9.4324  -15.9218   23.3939 C   0  0  0  0  0  0  0  0  0  0  0  0
   10.3671  -15.1353   23.7594 O   0  0  0  0  0  0  0  0  0  0  0  0
    8.9175  -16.8956   24.2746 N   0  0  0  0  0  0  0  0  0  0  0  0
    9.4405  -17.0273   25.6555 C   0  0  1  0  0  0  0  0  0  0  0  0
    8.2882  -16.9440   26.5722 C   0  0  0  0  0  0  0  0  0  0  0  0
    7.4487  -15.7610   26.3327 C   0  0  0  0  0  0  0  0  0  0  0  0
    6.2114  -15.7832   25.7249 C   0  0  0  0  0  0  0  0  0  0  0  0
    5.7623  -14.5173   25.6594 N   0  0  0  0  0  0  0  0  0  0  0  0
    6.6755  -13.6872   26.2069 C   0  0  0  0  0  0  0  0  0  0  0  0
    6.6831  -12.2999   26.3827 C   0  0  0  0  0  0  0  0  0  0  0  0
    7.7754  -11.6950   26.9929 C   0  0  0  0  0  0  0  0  0  0  0  0
    8.8289  -12.4706   27.4129 C   0  0  0  0  0  0  0  0  0  0  0  0
    8.8356  -13.8356   27.2472 C   0  0  0  0  0  0  0  0  0  0  0  0
    7.7362  -14.4364   26.6342 C   0  0  0  0  0  0  0  0  0  0  0  0
   10.2926  -18.2017   25.6992 C   0  0  0  0  0  0  0  0  0  0  0  0
    9.9280  -19.2222   25.0068 O   0  0  0  0  0  0  0  0  0  0  0  0
   14.4652  -19.0686   22.0733 N   0  0  0  0  0  0  0  0  0  0  0  0
   14.5331  -18.8779   23.4769 C   0  0  0  0  0  0  0  0  0  0  0  0
   15.6148  -19.0049   24.1470 O   0  0  0  0  0  0  0  0  0  0  0  0
   13.3401  -18.5076   24.2715 C   0  0  0  0  0  0  0  0  0  0  0  0
   12.6831  -19.6959   24.8496 C   0  0  0  0  0  0  0  0  0  0  0  0
   12.3094  -19.5877   26.2893 C   0  0  2  0  0  0  0  0  0  0  0  0
   11.4811  -18.3437   26.4175 N   0  0  0  0  0  0  0  0  0  0  0  0
   13.3757  -19.5055   27.2736 C   0  0  0  0  0  0  0  0  0  0  0  0
   14.2291  -20.4279   27.4267 O   0  0  0  0  0  0  0  0  0  0  0  0
   13.5712  -18.4077   28.1333 O   0  0  0  0  0  0  0  0  0  0  0  0
  2  1  1  1
  2 13  1  0
  2  3  1  0
  4  5  2  0
  4  3  1  0
  6  5  1  0
  7 12  2  0
  7  6  1  0
  8  7  1  0
  9 10  1  0
  9  8  2  0
 10 11  2  0
 11 12  1  0
 12  4  1  0
 13 15  1  0
 14 13  2  0
 15 16  1  0
 16 17  1  1
 16 27  1  0
 18 17  1  0
 19 18  2  0
 20 21  1  0
 20 19  1  0
 21 26  2  0
 22 23  2  0
 22 21  1  0
 23 24  1  0
 24 25  2  0
 26 25  1  0
 26 18  1  0
 27 28  2  0
 27 35  1  0
 29 30  1  0
 30 32  1  0
 31 30  2  0
 32 33  1  0
 34 33  1  6
 34 36  1  0
 35 34  1  0
 36 37  2  0
 36 38  1  0
M  END
$$$$
