WWQ.pdb
     RDKit          3D

 38 41  0  0  1  0  0  0  0  0999 V2000
    8.8271  -16.7841   22.0388 N   0  0  0  0  0  0  0  0  0  0  0  0
    9.2697  -15.5199   22.5300 C   0  0  1  0  0  0  0  0  0  0  0  0
    8.4307  -14.3605   22.1032 C   0  0  0  0  0  0  0  0  0  0  0  0
    8.4593  -14.2370   20.6317 C   0  0  0  0  0  0  0  0  0  0  0  0
    7.3650  -14.3470   19.7693 C   0  0  0  0  0  0  0  0  0  0  0  0
    7.7638  -14.1404   18.5118 N   0  0  0  0  0  0  0  0  0  0  0  0
    9.0821  -13.8963   18.4926 C   0  0  0  0  0  0  0  0  0  0  0  0
    9.9896  -13.6271   17.4746 C   0  0  0  0  0  0  0  0  0  0  0  0
   11.3188  -13.4238   17.7980 C   0  0  0  0  0  0  0  0  0  0  0  0
   11.7683  -13.4813   19.0981 C   0  0  0  0  0  0  0  0  0  0  0  0
   10.8640  -13.7485   20.1001 C   0  0  0  0  0  0  0  0  0  0  0  0
    9.5308  -13.9547   19.8126 C   0  0  0  0  0  0  0  0  0  0  0  0
    9.5033  -15.5699   24.0051 C   0  0  0  0  0  0  0  0  0  0  0  0
   10.0950  -14.6151   24.6084 O   0  0  0  0  0  0  0  0  0  0  0  0
    9.0492  -16.7035   24.7107 N   0  0  0  0  0  0  0  0  0  0  0  0
    9.2729  -16.8328   26.1704 C   0  0  1  0  0  0  0  0  0  0  0  0
    7.9482  -16.8552   26.8184 C   0  0  0  0  0  0  0  0  0  0  0  0
    7.1339  -15.6731   26.5004 C   0  0  0  0  0  0  0  0  0  0  0  0
    5.9042  -15.7079   25.8777 C   0  0  0  0  0  0  0  0  0  0  0  0
    5.4796  -14.4401   25.7342 N   0  0  0  0  0  0  0  0  0  0  0  0
    6.4009  -13.5964   26.2463 C   0  0  0  0  0  0  0  0  0  0  0  0
    6.4320  -12.2018   26.3430 C   0  0  0  0  0  0  0  0  0  0  0  0
    7.5273  -11.5825   26.9330 C   0  0  0  0  0  0  0  0  0  0  0  0
    8.5608  -12.3515   27.4110 C   0  0  0  0  0  0  0  0  0  0  0  0
    8.5444  -13.7236   27.3232 C   0  0  0  0  0  0  0  0  0  0  0  0
    7.4420  -14.3388   26.7300 C   0  0  0  0  0  0  0  0  0  0  0  0
   10.1815  -17.9444   26.3853 C   0  0  0  0  0  0  0  0  0  0  0  0
   10.1618  -18.5088   27.5407 O   0  0  0  0  0  0  0  0  0  0  0  0
   14.0020  -21.1221   22.4075 N   0  0  0  0  0  0  0  0  0  0  0  0
   12.7947  -20.4084   22.1975 C   0  0  0  0  0  0  0  0  0  0  0  0
   12.2966  -20.2056   21.0373 O   0  0  0  0  0  0  0  0  0  0  0  0
   12.0153  -19.8473   23.3242 C   0  0  0  0  0  0  0  0  0  0  0  0
   12.7424  -19.9721   24.6022 C   0  0  0  0  0  0  0  0  0  0  0  0
   11.9559  -19.6398   25.8250 C   0  0  2  0  0  0  0  0  0  0  0  0
   11.0831  -18.4754   25.4612 N   0  0  0  0  0  0  0  0  0  0  0  0
   12.6795  -19.2821   27.0337 C   0  0  0  0  0  0  0  0  0  0  0  0
   13.4950  -20.0718   27.5940 O   0  0  0  0  0  0  0  0  0  0  0  0
   12.5581  -18.0404   27.6860 O   0  0  0  0  0  0  0  0  0  0  0  0
  2  1  1  1
  2 13  1  0
  2  3  1  0
  4  5  2  0
  4  3  1  0
  6  5  1  0
  7 12  2  0
  7  6  1  0
  8  7  1  0
  9 10  1  0
  9  8  2  0
 10 11  2  0
 11 12  1  0
 12  4  1  0
 13 15  1  0
 14 13  2  0
 15 16  1  0
 16 17  1  1
 16 27  1  0
 18 17  1  0
 19 18  2  0
 20 21  1  0
 20 19  1  0
 21 26  2  0
 22 23  2  0
 22 21  1  0
 23 24  1  0
 24 25  2  0
 26 25  1  0
 26 18  1  0
 27 28  2  0
 27 35  1  0
 29 30  1  0
 30 32  1  0
 31 30  2  0
 32 33  1  0
 34 33  1  6
 34 36  1  0
 35 34  1  0
 36 37  2  0
 36 38  1  0
M  END
$$$$
