WWQ.pdb
     RDKit          3D

 38 41  0  0  1  0  0  0  0  0999 V2000
    8.4054  -16.5861   21.6881 N   0  0  0  0  0  0  0  0  0  0  0  0
    9.0188  -15.3921   22.1713 C   0  0  1  0  0  0  0  0  0  0  0  0
    8.2976  -14.1349   21.8112 C   0  0  0  0  0  0  0  0  0  0  0  0
    8.1458  -14.0477   20.3447 C   0  0  0  0  0  0  0  0  0  0  0  0
    6.9694  -14.2559   19.6194 C   0  0  0  0  0  0  0  0  0  0  0  0
    7.2031  -14.0545   18.3202 N   0  0  0  0  0  0  0  0  0  0  0  0
    8.4891  -13.7197   18.1414 C   0  0  0  0  0  0  0  0  0  0  0  0
    9.2502  -13.4144   17.0190 C   0  0  0  0  0  0  0  0  0  0  0  0
   10.5897  -13.1106   17.1798 C   0  0  0  0  0  0  0  0  0  0  0  0
   11.1905  -13.1031   18.4186 C   0  0  0  0  0  0  0  0  0  0  0  0
   10.4306  -13.4067   19.5247 C   0  0  0  0  0  0  0  0  0  0  0  0
    9.0914  -13.7127   19.4001 C   0  0  0  0  0  0  0  0  0  0  0  0
    9.3274  -15.5003   23.6294 C   0  0  0  0  0  0  0  0  0  0  0  0
    9.9332  -14.5612   24.2433 O   0  0  0  0  0  0  0  0  0  0  0  0
    8.9279  -16.6709   24.3071 N   0  0  0  0  0  0  0  0  0  0  0  0
    9.3075  -16.8999   25.7217 C   0  0  1  0  0  0  0  0  0  0  0  0
    8.0617  -16.9472   26.5095 C   0  0  0  0  0  0  0  0  0  0  0  0
    7.2779  -15.7065   26.4188 C   0  0  0  0  0  0  0  0  0  0  0  0
    6.0067  -15.6145   25.8929 C   0  0  0  0  0  0  0  0  0  0  0  0
    5.6274  -14.3260   25.9564 N   0  0  0  0  0  0  0  0  0  0  0  0
    6.6180  -13.5921   26.5069 C   0  0  0  0  0  0  0  0  0  0  0  0
    6.7152  -12.2262   26.7903 C   0  0  0  0  0  0  0  0  0  0  0  0
    7.8752  -11.7309   27.3737 C   0  0  0  0  0  0  0  0  0  0  0  0
    8.9063  -12.5919   27.6621 C   0  0  0  0  0  0  0  0  0  0  0  0
    8.8252  -13.9372   27.3896 C   0  0  0  0  0  0  0  0  0  0  0  0
    7.6582  -14.4279   26.8041 C   0  0  0  0  0  0  0  0  0  0  0  0
   10.2109  -18.0355   25.7624 C   0  0  0  0  0  0  0  0  0  0  0  0
    9.7740  -19.1546   25.3035 O   0  0  0  0  0  0  0  0  0  0  0  0
   16.3556  -18.0695   25.5884 N   0  0  0  0  0  0  0  0  0  0  0  0
   16.1057  -19.4526   25.7774 C   0  0  0  0  0  0  0  0  0  0  0  0
   17.0334  -20.3324   25.8031 O   0  0  0  0  0  0  0  0  0  0  0  0
   14.7345  -19.9779   25.9666 C   0  0  0  0  0  0  0  0  0  0  0  0
   13.7274  -18.9012   25.9015 C   0  0  0  0  0  0  0  0  0  0  0  0
   12.3319  -19.3044   26.2398 C   0  0  2  0  0  0  0  0  0  0  0  0
   11.5194  -18.0435   26.2486 N   0  0  0  0  0  0  0  0  0  0  0  0
   12.0980  -19.9832   27.5035 C   0  0  0  0  0  0  0  0  0  0  0  0
   11.6104  -19.3911   28.5107 O   0  0  0  0  0  0  0  0  0  0  0  0
   12.3741  -21.3452   27.7290 O   0  0  0  0  0  0  0  0  0  0  0  0
  2  1  1  1
  2 13  1  0
  2  3  1  0
  4  5  2  0
  4  3  1  0
  6  5  1  0
  7 12  2  0
  7  6  1  0
  8  7  1  0
  9 10  1  0
  9  8  2  0
 10 11  2  0
 11 12  1  0
 12  4  1  0
 13 15  1  0
 14 13  2  0
 15 16  1  0
 16 17  1  1
 16 27  1  0
 18 17  1  0
 19 18  2  0
 20 21  1  0
 20 19  1  0
 21 26  2  0
 22 23  2  0
 22 21  1  0
 23 24  1  0
 24 25  2  0
 26 25  1  0
 26 18  1  0
 27 28  2  0
 27 35  1  0
 29 30  1  0
 30 32  1  0
 31 30  2  0
 32 33  1  0
 34 33  1  1
 34 36  1  0
 35 34  1  0
 36 37  2  0
 36 38  1  0
M  END
$$$$
