WWQ.pdb
     RDKit          3D

 38 41  0  0  1  0  0  0  0  0999 V2000
   11.1989  -16.0011   21.1833 N   0  0  0  0  0  0  0  0  0  0  0  0
    9.9791  -16.0234   21.9230 C   0  0  1  0  0  0  0  0  0  0  0  0
    8.8850  -16.8193   21.2908 C   0  0  0  0  0  0  0  0  0  0  0  0
    8.3678  -16.1058   20.1057 C   0  0  0  0  0  0  0  0  0  0  0  0
    8.0101  -16.6805   18.8829 C   0  0  0  0  0  0  0  0  0  0  0  0
    7.5492  -15.7341   18.0614 N   0  0  0  0  0  0  0  0  0  0  0  0
    7.5825  -14.5455   18.6813 C   0  0  0  0  0  0  0  0  0  0  0  0
    7.2326  -13.2566   18.2962 C   0  0  0  0  0  0  0  0  0  0  0  0
    7.4011  -12.2194   19.1953 C   0  0  0  0  0  0  0  0  0  0  0  0
    7.9061  -12.4270   20.4592 C   0  0  0  0  0  0  0  0  0  0  0  0
    8.2505  -13.7056   20.8328 C   0  0  0  0  0  0  0  0  0  0  0  0
    8.0937  -14.7631   19.9613 C   0  0  0  0  0  0  0  0  0  0  0  0
   10.2252  -16.3861   23.3515 C   0  0  0  0  0  0  0  0  0  0  0  0
   11.4116  -16.4997   23.8046 O   0  0  0  0  0  0  0  0  0  0  0  0
    9.1069  -16.5978   24.1845 N   0  0  0  0  0  0  0  0  0  0  0  0
    9.2741  -16.8481   25.6360 C   0  0  1  0  0  0  0  0  0  0  0  0
    7.9369  -16.7687   26.2531 C   0  0  0  0  0  0  0  0  0  0  0  0
    7.2626  -15.4873   25.9983 C   0  0  0  0  0  0  0  0  0  0  0  0
    6.1890  -15.3171   25.1502 C   0  0  0  0  0  0  0  0  0  0  0  0
    5.8630  -14.0125   25.1555 N   0  0  0  0  0  0  0  0  0  0  0  0
    6.6961  -13.3441   25.9814 C   0  0  0  0  0  0  0  0  0  0  0  0
    6.7714  -11.9922   26.3307 C   0  0  0  0  0  0  0  0  0  0  0  0
    7.7479  -11.5716   27.2256 C   0  0  0  0  0  0  0  0  0  0  0  0
    8.6224  -12.4915   27.7518 C   0  0  0  0  0  0  0  0  0  0  0  0
    8.5606  -13.8239   27.4180 C   0  0  0  0  0  0  0  0  0  0  0  0
    7.5781  -14.2395   26.5194 C   0  0  0  0  0  0  0  0  0  0  0  0
   10.0514  -18.0641   25.7919 C   0  0  0  0  0  0  0  0  0  0  0  0
   10.9893  -18.2793   24.9387 O   0  0  0  0  0  0  0  0  0  0  0  0
   12.5695  -20.0771   23.3534 N   0  0  0  0  0  0  0  0  0  0  0  0
   11.4041  -20.8401   23.6195 C   0  0  0  0  0  0  0  0  0  0  0  0
   10.7423  -21.4447   22.7075 O   0  0  0  0  0  0  0  0  0  0  0  0
   10.8711  -20.9953   24.9920 C   0  0  0  0  0  0  0  0  0  0  0  0
   11.7376  -20.3362   25.9882 C   0  0  0  0  0  0  0  0  0  0  0  0
   11.0531  -19.8718   27.2292 C   0  0  2  0  0  0  0  0  0  0  0  0
    9.8911  -19.0354   26.7817 N   0  0  0  0  0  0  0  0  0  0  0  0
   11.8160  -19.0842   28.1833 C   0  0  0  0  0  0  0  0  0  0  0  0
   11.3171  -18.6658   29.2690 O   0  0  0  0  0  0  0  0  0  0  0  0
   13.1651  -18.7226   28.0061 O   0  0  0  0  0  0  0  0  0  0  0  0
  2  1  1  6
  2 13  1  0
  2  3  1  0
  4  5  2  0
  4  3  1  0
  6  5  1  0
  7 12  2  0
  7  6  1  0
  8  7  1  0
  9 10  1  0
  9  8  2  0
 10 11  2  0
 11 12  1  0
 12  4  1  0
 13 15  1  0
 14 13  2  0
 15 16  1  0
 16 17  1  1
 16 27  1  0
 18 17  1  0
 19 18  2  0
 20 21  1  0
 20 19  1  0
 21 26  2  0
 22 23  2  0
 22 21  1  0
 23 24  1  0
 24 25  2  0
 26 25  1  0
 26 18  1  0
 27 28  2  0
 27 35  1  0
 29 30  1  0
 30 32  1  0
 31 30  2  0
 32 33  1  0
 34 33  1  6
 34 36  1  0
 35 34  1  0
 36 37  2  0
 36 38  1  0
M  END
$$$$
