WWQ.pdb
     RDKit          3D

 38 41  0  0  1  0  0  0  0  0999 V2000
   10.9227  -16.6092   21.6179 N   0  0  0  0  0  0  0  0  0  0  0  0
    9.9520  -16.1465   22.5554 C   0  0  1  0  0  0  0  0  0  0  0  0
    8.5702  -16.6633   22.3235 C   0  0  0  0  0  0  0  0  0  0  0  0
    7.9302  -15.9064   21.2285 C   0  0  0  0  0  0  0  0  0  0  0  0
    7.1859  -16.4433   20.1744 C   0  0  0  0  0  0  0  0  0  0  0  0
    6.7315  -15.4559   19.3990 N   0  0  0  0  0  0  0  0  0  0  0  0
    7.1400  -14.2760   19.8879 C   0  0  0  0  0  0  0  0  0  0  0  0
    6.9617  -12.9591   19.4803 C   0  0  0  0  0  0  0  0  0  0  0  0
    7.5370  -11.9440   20.2227 C   0  0  0  0  0  0  0  0  0  0  0  0
    8.2814  -12.2005   21.3522 C   0  0  0  0  0  0  0  0  0  0  0  0
    8.4536  -13.5066   21.7489 C   0  0  0  0  0  0  0  0  0  0  0  0
    7.8922  -14.5430   21.0324 C   0  0  0  0  0  0  0  0  0  0  0  0
   10.4279  -16.3389   23.9588 C   0  0  0  0  0  0  0  0  0  0  0  0
   11.6645  -16.5165   24.2137 O   0  0  0  0  0  0  0  0  0  0  0  0
    9.4694  -16.3173   24.9933 N   0  0  0  0  0  0  0  0  0  0  0  0
    9.8770  -16.4459   26.4128 C   0  0  1  0  0  0  0  0  0  0  0  0
    8.6804  -16.1975   27.2384 C   0  0  0  0  0  0  0  0  0  0  0  0
    7.7405  -15.2530   26.6170 C   0  0  0  0  0  0  0  0  0  0  0  0
    6.6291  -15.6142   25.8853 C   0  0  0  0  0  0  0  0  0  0  0  0
    6.0327  -14.4868   25.4593 N   0  0  0  0  0  0  0  0  0  0  0  0
    6.7296  -13.4163   25.8967 C   0  0  0  0  0  0  0  0  0  0  0  0
    6.5257  -12.0430   25.7295 C   0  0  0  0  0  0  0  0  0  0  0  0
    7.4176  -11.1454   26.3039 C   0  0  0  0  0  0  0  0  0  0  0  0
    8.4844  -11.6230   27.0263 C   0  0  0  0  0  0  0  0  0  0  0  0
    8.6978  -12.9702   27.1995 C   0  0  0  0  0  0  0  0  0  0  0  0
    7.7988  -13.8657   26.6204 C   0  0  0  0  0  0  0  0  0  0  0  0
   10.5867  -17.7036   26.5604 C   0  0  0  0  0  0  0  0  0  0  0  0
   11.0754  -17.9737   27.7189 O   0  0  0  0  0  0  0  0  0  0  0  0
   10.1952  -22.9206   23.5910 N   0  0  0  0  0  0  0  0  0  0  0  0
   11.4990  -23.1185   24.1125 C   0  0  0  0  0  0  0  0  0  0  0  0
   12.0773  -24.2589   24.1321 O   0  0  0  0  0  0  0  0  0  0  0  0
   12.2924  -22.0007   24.6719 C   0  0  0  0  0  0  0  0  0  0  0  0
   11.5496  -20.7268   24.6154 C   0  0  0  0  0  0  0  0  0  0  0  0
   11.5540  -19.9233   25.8718 C   0  0  2  0  0  0  0  0  0  0  0  0
   10.7957  -18.6647   25.5699 N   0  0  0  0  0  0  0  0  0  0  0  0
   12.8355  -19.5357   26.4374 C   0  0  0  0  0  0  0  0  0  0  0  0
   13.5256  -18.5858   25.9640 O   0  0  0  0  0  0  0  0  0  0  0  0
   13.4238  -20.1578   27.5550 O   0  0  0  0  0  0  0  0  0  0  0  0
  2  1  1  6
  2 13  1  0
  2  3  1  0
  4  5  2  0
  4  3  1  0
  6  5  1  0
  7 12  2  0
  7  6  1  0
  8  7  1  0
  9 10  1  0
  9  8  2  0
 10 11  2  0
 11 12  1  0
 12  4  1  0
 13 15  1  0
 14 13  2  0
 15 16  1  0
 16 17  1  1
 16 27  1  0
 18 17  1  0
 19 18  2  0
 20 21  1  0
 20 19  1  0
 21 26  2  0
 22 23  2  0
 22 21  1  0
 23 24  1  0
 24 25  2  0
 26 25  1  0
 26 18  1  0
 27 28  2  0
 27 35  1  0
 29 30  1  0
 30 32  1  0
 31 30  2  0
 32 33  1  0
 34 33  1  6
 34 36  1  0
 35 34  1  0
 36 37  2  0
 36 38  1  0
M  END
$$$$
