WWQ.pdb
     RDKit          3D

 38 41  0  0  1  0  0  0  0  0999 V2000
   10.6192  -15.9823   21.2987 N   0  0  0  0  0  0  0  0  0  0  0  0
    9.6355  -15.8068   22.3169 C   0  0  1  0  0  0  0  0  0  0  0  0
    8.2731  -16.2995   21.9545 C   0  0  0  0  0  0  0  0  0  0  0  0
    7.8448  -15.6926   20.6779 C   0  0  0  0  0  0  0  0  0  0  0  0
    7.3322  -16.3709   19.5686 C   0  0  0  0  0  0  0  0  0  0  0  0
    7.0187  -15.4928   18.6128 N   0  0  0  0  0  0  0  0  0  0  0  0
    7.2998  -14.2510   19.0334 C   0  0  0  0  0  0  0  0  0  0  0  0
    7.1783  -12.9943   18.4517 C   0  0  0  0  0  0  0  0  0  0  0  0
    7.5766  -11.8818   19.1702 C   0  0  0  0  0  0  0  0  0  0  0  0
    8.0903  -11.9836   20.4436 C   0  0  0  0  0  0  0  0  0  0  0  0
    8.2077  -13.2309   21.0123 C   0  0  0  0  0  0  0  0  0  0  0  0
    7.8185  -14.3612   20.3241 C   0  0  0  0  0  0  0  0  0  0  0  0
   10.1236  -16.3284   23.6294 C   0  0  0  0  0  0  0  0  0  0  0  0
   11.3635  -16.5508   23.8269 O   0  0  0  0  0  0  0  0  0  0  0  0
    9.1730  -16.5665   24.6437 N   0  0  0  0  0  0  0  0  0  0  0  0
    9.5658  -16.5601   26.0732 C   0  0  1  0  0  0  0  0  0  0  0  0
    8.3316  -16.4180   26.8680 C   0  0  0  0  0  0  0  0  0  0  0  0
    7.4701  -15.3227   26.3992 C   0  0  0  0  0  0  0  0  0  0  0  0
    6.2758  -15.4906   25.7311 C   0  0  0  0  0  0  0  0  0  0  0  0
    5.7898  -14.2701   25.4439 N   0  0  0  0  0  0  0  0  0  0  0  0
    6.6377  -13.3276   25.9082 C   0  0  0  0  0  0  0  0  0  0  0  0
    6.5876  -11.9307   25.8666 C   0  0  0  0  0  0  0  0  0  0  0  0
    7.6176  -11.1934   26.4381 C   0  0  0  0  0  0  0  0  0  0  0  0
    8.6673  -11.8496   27.0341 C   0  0  0  0  0  0  0  0  0  0  0  0
    8.7303  -13.2223   27.0830 C   0  0  0  0  0  0  0  0  0  0  0  0
    7.6932  -13.9565   26.5076 C   0  0  0  0  0  0  0  0  0  0  0  0
   10.4250  -17.7070   26.3044 C   0  0  0  0  0  0  0  0  0  0  0  0
   10.9566  -17.8216   27.4698 O   0  0  0  0  0  0  0  0  0  0  0  0
   15.9442  -20.8483   23.7302 N   0  0  0  0  0  0  0  0  0  0  0  0
   14.6422  -21.1084   24.2284 C   0  0  0  0  0  0  0  0  0  0  0  0
   13.8547  -21.9704   23.7069 O   0  0  0  0  0  0  0  0  0  0  0  0
   14.1017  -20.3935   25.4068 C   0  0  0  0  0  0  0  0  0  0  0  0
   12.9609  -19.5314   25.0419 C   0  0  0  0  0  0  0  0  0  0  0  0
   11.6839  -19.8172   25.7573 C   0  0  2  0  0  0  0  0  0  0  0  0
   10.7379  -18.7130   25.3885 N   0  0  0  0  0  0  0  0  0  0  0  0
   11.7109  -19.9024   27.2080 C   0  0  0  0  0  0  0  0  0  0  0  0
   11.1906  -19.0173   27.9486 O   0  0  0  0  0  0  0  0  0  0  0  0
   12.2975  -20.9633   27.9240 O   0  0  0  0  0  0  0  0  0  0  0  0
  2  1  1  6
  2 13  1  0
  2  3  1  0
  4  5  2  0
  4  3  1  0
  6  5  1  0
  7 12  2  0
  7  6  1  0
  8  7  1  0
  9 10  1  0
  9  8  2  0
 10 11  2  0
 11 12  1  0
 12  4  1  0
 13 15  1  0
 14 13  2  0
 15 16  1  0
 16 17  1  1
 16 27  1  0
 18 17  1  0
 19 18  2  0
 20 21  1  0
 20 19  1  0
 21 26  2  0
 22 23  2  0
 22 21  1  0
 23 24  1  0
 24 25  2  0
 26 25  1  0
 26 18  1  0
 27 28  2  0
 27 35  1  0
 29 30  1  0
 30 32  1  0
 31 30  2  0
 32 33  1  0
 34 33  1  1
 34 36  1  0
 35 34  1  0
 36 37  2  0
 36 38  1  0
M  END
$$$$
