WWQ.pdb
     RDKit          3D

 38 41  0  0  1  0  0  0  0  0999 V2000
    8.6889  -18.0095   21.6780 N   0  0  0  0  0  0  0  0  0  0  0  0
    9.9612  -17.4214   21.9435 C   0  0  1  0  0  0  0  0  0  0  0  0
   10.3125  -16.2749   21.0534 C   0  0  0  0  0  0  0  0  0  0  0  0
    9.0815  -15.6794   20.4953 C   0  0  0  0  0  0  0  0  0  0  0  0
    8.2203  -16.2729   19.5682 C   0  0  0  0  0  0  0  0  0  0  0  0
    7.1929  -15.4556   19.3248 N   0  0  0  0  0  0  0  0  0  0  0  0
    7.3276  -14.3357   20.0499 C   0  0  0  0  0  0  0  0  0  0  0  0
    6.5661  -13.1794   20.1732 C   0  0  0  0  0  0  0  0  0  0  0  0
    6.9982  -12.1800   21.0259 C   0  0  0  0  0  0  0  0  0  0  0  0
    8.1605  -12.2974   21.7546 C   0  0  0  0  0  0  0  0  0  0  0  0
    8.9089  -13.4448   21.6268 C   0  0  0  0  0  0  0  0  0  0  0  0
    8.5061  -14.4617   20.7865 C   0  0  0  0  0  0  0  0  0  0  0  0
   10.1153  -17.1109   23.3970 C   0  0  0  0  0  0  0  0  0  0  0  0
   11.1217  -16.4553   23.8248 O   0  0  0  0  0  0  0  0  0  0  0  0
    9.1144  -17.5631   24.2818 N   0  0  0  0  0  0  0  0  0  0  0  0
    9.2434  -17.3630   25.7451 C   0  0  1  0  0  0  0  0  0  0  0  0
    7.8831  -17.1860   26.2866 C   0  0  0  0  0  0  0  0  0  0  0  0
    7.2886  -15.8889   25.9320 C   0  0  0  0  0  0  0  0  0  0  0  0
    6.2592  -15.7139   25.0316 C   0  0  0  0  0  0  0  0  0  0  0  0
    6.0036  -14.3963   24.9498 N   0  0  0  0  0  0  0  0  0  0  0  0
    6.8387  -13.7242   25.7706 C   0  0  0  0  0  0  0  0  0  0  0  0
    6.9727  -12.3597   26.0458 C   0  0  0  0  0  0  0  0  0  0  0  0
    7.9350  -11.9380   26.9555 C   0  0  0  0  0  0  0  0  0  0  0  0
    8.7380  -12.8691   27.5687 C   0  0  0  0  0  0  0  0  0  0  0  0
    8.6179  -14.2139   27.3084 C   0  0  0  0  0  0  0  0  0  0  0  0
    7.6501  -14.6305   26.3945 C   0  0  0  0  0  0  0  0  0  0  0  0
   10.0774  -18.4295   26.2688 C   0  0  0  0  0  0  0  0  0  0  0  0
   10.5134  -19.3035   25.4322 O   0  0  0  0  0  0  0  0  0  0  0  0
   15.1928  -18.2401   26.1485 N   0  0  0  0  0  0  0  0  0  0  0  0
   15.0776  -19.5840   26.5864 C   0  0  0  0  0  0  0  0  0  0  0  0
   15.9390  -20.4862   26.3048 O   0  0  0  0  0  0  0  0  0  0  0  0
   13.9388  -20.0381   27.4163 C   0  0  0  0  0  0  0  0  0  0  0  0
   12.7071  -19.2875   27.1046 C   0  0  0  0  0  0  0  0  0  0  0  0
   11.5262  -19.6061   27.9580 C   0  0  2  0  0  0  0  0  0  0  0  0
   10.4647  -18.6093   27.5978 N   0  0  0  0  0  0  0  0  0  0  0  0
   11.6890  -19.5679   29.4018 C   0  0  0  0  0  0  0  0  0  0  0  0
   11.1284  -18.6921   30.1239 O   0  0  0  0  0  0  0  0  0  0  0  0
   12.4629  -20.4899   30.1319 O   0  0  0  0  0  0  0  0  0  0  0  0
  2  1  1  1
  2 13  1  0
  2  3  1  0
  4  5  2  0
  4  3  1  0
  6  5  1  0
  7 12  2  0
  7  6  1  0
  8  7  1  0
  9 10  1  0
  9  8  2  0
 10 11  2  0
 11 12  1  0
 12  4  1  0
 13 15  1  0
 14 13  2  0
 15 16  1  0
 16 17  1  1
 16 27  1  0
 18 17  1  0
 19 18  2  0
 20 21  1  0
 20 19  1  0
 21 26  2  0
 22 23  2  0
 22 21  1  0
 23 24  1  0
 24 25  2  0
 26 25  1  0
 26 18  1  0
 27 28  2  0
 27 35  1  0
 29 30  1  0
 30 32  1  0
 31 30  2  0
 32 33  1  0
 34 33  1  6
 34 36  1  0
 35 34  1  0
 36 37  2  0
 36 38  1  0
M  END
$$$$
