ELP.pdb
     RDKit          3D

 25 25  0  0  1  0  0  0  0  0999 V2000
   21.4500  -20.7493  -18.3027 N   0  0  0  0  0  0  0  0  0  0  0  0
   21.5944  -19.9049  -17.1652 C   0  0  1  0  0  0  0  0  0  0  0  0
   20.4539  -19.9977  -16.1985 C   0  0  0  0  0  0  0  0  0  0  0  0
   19.1604  -19.4781  -16.7315 C   0  0  0  0  0  0  0  0  0  0  0  0
   18.1898  -20.5054  -17.0345 C   0  0  0  0  0  0  0  0  0  0  0  0
   17.0928  -20.3206  -17.5524 O   0  0  0  0  0  0  0  0  0  0  0  0
   22.8883  -20.1572  -16.4480 C   0  0  0  0  0  0  0  0  0  0  0  0
   23.2887  -21.3657  -16.3537 O   0  0  0  0  0  0  0  0  0  0  0  0
   18.5117  -21.8398  -16.7161 O   0  0  0  0  0  0  0  0  0  0  0  0
   27.6267  -17.9174  -13.8068 C   0  0  0  0  0  0  0  0  0  0  0  0
   27.3147  -18.4827  -15.1751 C   0  0  1  0  0  0  0  0  0  0  0  0
   27.8660  -19.8516  -15.2963 C   0  0  0  0  0  0  0  0  0  0  0  0
   25.8812  -18.2936  -15.5616 C   0  0  0  0  0  0  0  0  0  0  0  0
   24.9669  -19.4319  -15.2682 C   0  0  2  0  0  0  0  0  0  0  0  0
   23.6722  -19.1415  -15.8775 N   0  0  0  0  0  0  0  0  0  0  0  0
   24.7595  -19.6547  -13.8159 C   0  0  0  0  0  0  0  0  0  0  0  0
   24.2028  -18.7150  -13.1707 O   0  0  0  0  0  0  0  0  0  0  0  0
   25.1281  -20.8145  -13.1089 N   0  0  0  0  0  0  0  0  0  0  0  0
   25.7721  -22.0270  -13.5272 C   0  0  0  0  0  0  0  0  0  0  0  0
   26.6481  -22.3365  -12.3065 C   0  0  0  0  0  0  0  0  0  0  0  0
   25.5241  -22.2764  -11.2554 C   0  0  0  0  0  0  0  0  0  0  0  0
   24.8856  -20.9702  -11.6613 C   0  0  1  0  0  0  0  0  0  0  0  0
   25.5450  -19.8523  -10.9723 C   0  0  0  0  0  0  0  0  0  0  0  0
   25.2455  -19.5539   -9.6582 O   0  0  0  0  0  0  0  0  0  0  0  0
   26.3934  -19.1510  -11.5736 O   0  0  0  0  0  0  0  0  0  0  0  0
  2  1  1  6
  3  2  1  0
  4  3  1  0
  5  6  2  0
  5  4  1  0
  7  2  1  0
  7  8  2  0
  9  5  1  0
 11 12  1  1
 11 10  1  0
 13 11  1  0
 14 13  1  1
 15 14  1  0
 15  7  1  0
 16 14  1  0
 17 16  2  0
 18 16  1  0
 18 19  1  0
 20 19  1  0
 21 20  1  0
 22 21  1  0
 22 18  1  0
 22 23  1  1
 24 23  1  0
 25 23  2  0
M  END
$$$$
