ELP.pdb
     RDKit          3D

 25 25  0  0  1  0  0  0  0  0999 V2000
   24.0858  -20.8019  -19.1385 N   0  0  0  0  0  0  0  0  0  0  0  0
   23.4873  -20.3916  -17.9132 C   0  0  1  0  0  0  0  0  0  0  0  0
   22.3526  -21.2661  -17.4755 C   0  0  0  0  0  0  0  0  0  0  0  0
   21.0021  -20.7055  -17.7736 C   0  0  0  0  0  0  0  0  0  0  0  0
   20.7215  -19.4528  -17.1094 C   0  0  0  0  0  0  0  0  0  0  0  0
   20.3880  -18.4099  -17.6636 O   0  0  0  0  0  0  0  0  0  0  0  0
   24.4993  -20.2847  -16.8102 C   0  0  0  0  0  0  0  0  0  0  0  0
   25.3898  -21.1960  -16.7316 O   0  0  0  0  0  0  0  0  0  0  0  0
   20.8346  -19.4039  -15.7057 O   0  0  0  0  0  0  0  0  0  0  0  0
   26.7763  -15.5750  -15.1398 C   0  0  0  0  0  0  0  0  0  0  0  0
   26.6281  -17.0423  -15.4778 C   0  0  1  0  0  0  0  0  0  0  0  0
   27.9503  -17.6241  -15.8032 C   0  0  0  0  0  0  0  0  0  0  0  0
   25.7911  -17.7799  -14.4801 C   0  0  0  0  0  0  0  0  0  0  0  0
   25.5030  -19.2072  -14.7928 C   0  0  2  0  0  0  0  0  0  0  0  0
   24.5146  -19.2449  -15.8667 N   0  0  0  0  0  0  0  0  0  0  0  0
   24.9625  -19.9609  -13.6345 C   0  0  0  0  0  0  0  0  0  0  0  0
   23.7493  -19.7459  -13.3329 O   0  0  0  0  0  0  0  0  0  0  0  0
   25.6839  -20.8849  -12.8556 N   0  0  0  0  0  0  0  0  0  0  0  0
   27.0126  -21.4127  -12.9817 C   0  0  0  0  0  0  0  0  0  0  0  0
   27.4344  -21.5149  -11.5103 C   0  0  0  0  0  0  0  0  0  0  0  0
   26.2231  -22.3360  -11.0300 C   0  0  0  0  0  0  0  0  0  0  0  0
   25.1168  -21.5155  -11.6475 C   0  0  1  0  0  0  0  0  0  0  0  0
   24.7128  -20.4429  -10.7280 C   0  0  0  0  0  0  0  0  0  0  0  0
   23.8808  -20.7027   -9.6576 O   0  0  0  0  0  0  0  0  0  0  0  0
   25.1214  -19.2704  -10.9057 O   0  0  0  0  0  0  0  0  0  0  0  0
  2  1  1  6
  3  2  1  0
  4  3  1  0
  5  6  2  0
  5  4  1  0
  7  2  1  0
  7  8  2  0
  9  5  1  0
 11 12  1  1
 11 10  1  0
 13 11  1  0
 14 13  1  1
 15 14  1  0
 15  7  1  0
 16 14  1  0
 17 16  2  0
 18 16  1  0
 18 19  1  0
 20 19  1  0
 21 20  1  0
 22 21  1  0
 22 18  1  0
 22 23  1  1
 24 23  1  0
 25 23  2  0
M  END
$$$$
