ELP.pdb
     RDKit          3D

 25 25  0  0  1  0  0  0  0  0999 V2000
   18.8473  -12.3187  -16.9320 N   0  0  0  0  0  0  0  0  0  0  0  0
   19.4697  -11.1044  -17.3392 C   0  0  1  0  0  0  0  0  0  0  0  0
   18.8989  -10.5288  -18.5989 C   0  0  0  0  0  0  0  0  0  0  0  0
   19.0250  -11.4219  -19.7878 C   0  0  0  0  0  0  0  0  0  0  0  0
   18.4636  -10.8740  -21.0018 C   0  0  0  0  0  0  0  0  0  0  0  0
   17.9509   -9.7647  -21.1141 O   0  0  0  0  0  0  0  0  0  0  0  0
   19.4369  -10.0722  -16.2502 C   0  0  0  0  0  0  0  0  0  0  0  0
   18.4125  -10.0451  -15.4889 O   0  0  0  0  0  0  0  0  0  0  0  0
   18.4982  -11.6652  -22.1673 O   0  0  0  0  0  0  0  0  0  0  0  0
   22.7563   -9.7092  -12.3067 C   0  0  0  0  0  0  0  0  0  0  0  0
   21.4459   -9.4216  -13.0060 C   0  0  1  0  0  0  0  0  0  0  0  0
   20.3682   -9.2355  -12.0077 C   0  0  0  0  0  0  0  0  0  0  0  0
   21.5775   -8.3710  -14.0637 C   0  0  0  0  0  0  0  0  0  0  0  0
   20.3911   -8.1710  -14.9412 C   0  0  2  0  0  0  0  0  0  0  0  0
   20.4645   -9.1410  -16.0301 N   0  0  0  0  0  0  0  0  0  0  0  0
   20.3241   -6.8112  -15.5315 C   0  0  0  0  0  0  0  0  0  0  0  0
   21.3428   -6.4224  -16.1797 O   0  0  0  0  0  0  0  0  0  0  0  0
   19.2302   -5.9317  -15.4288 N   0  0  0  0  0  0  0  0  0  0  0  0
   17.9449   -6.0704  -14.8055 C   0  0  0  0  0  0  0  0  0  0  0  0
   17.7228   -4.6539  -14.2600 C   0  0  0  0  0  0  0  0  0  0  0  0
   17.9611   -3.9083  -15.5865 C   0  0  0  0  0  0  0  0  0  0  0  0
   19.2484   -4.5742  -16.0082 C   0  0  1  0  0  0  0  0  0  0  0  0
   20.3965   -3.8569  -15.4367 C   0  0  0  0  0  0  0  0  0  0  0  0
   20.8033   -2.6435  -15.9541 O   0  0  0  0  0  0  0  0  0  0  0  0
   21.0252   -4.3416  -14.4655 O   0  0  0  0  0  0  0  0  0  0  0  0
  2  1  1  1
  3  2  1  0
  4  3  1  0
  5  6  2  0
  5  4  1  0
  7  2  1  0
  7  8  2  0
  9  5  1  0
 11 12  1  1
 11 10  1  0
 13 11  1  0
 14 13  1  1
 15 14  1  0
 15  7  1  0
 16 14  1  0
 17 16  2  0
 18 16  1  0
 18 19  1  0
 20 19  1  0
 21 20  1  0
 22 21  1  0
 22 18  1  0
 22 23  1  1
 24 23  1  0
 25 23  2  0
M  END
$$$$
