ELP.pdb
     RDKit          3D

 25 25  0  0  1  0  0  0  0  0999 V2000
   20.2520  -20.5783  -12.2823 N   0  0  0  0  0  0  0  0  0  0  0  0
   20.9926  -20.7665  -13.4840 C   0  0  1  0  0  0  0  0  0  0  0  0
   20.3072  -20.2302  -14.7032 C   0  0  0  0  0  0  0  0  0  0  0  0
   19.6107  -21.2696  -15.5166 C   0  0  0  0  0  0  0  0  0  0  0  0
   18.8384  -22.2112  -14.7380 C   0  0  0  0  0  0  0  0  0  0  0  0
   17.8493  -21.9389  -14.0646 O   0  0  0  0  0  0  0  0  0  0  0  0
   22.3725  -20.1855  -13.3816 C   0  0  0  0  0  0  0  0  0  0  0  0
   22.4763  -18.9586  -13.0445 O   0  0  0  0  0  0  0  0  0  0  0  0
   19.2389  -23.5622  -14.7391 O   0  0  0  0  0  0  0  0  0  0  0  0
   27.1267  -19.4439  -11.5797 C   0  0  0  0  0  0  0  0  0  0  0  0
   27.0424  -20.8067  -12.2315 C   0  0  1  0  0  0  0  0  0  0  0  0
   27.8832  -21.7757  -11.4921 C   0  0  0  0  0  0  0  0  0  0  0  0
   25.6332  -21.2178  -12.5234 C   0  0  0  0  0  0  0  0  0  0  0  0
   24.8656  -20.3267  -13.4369 C   0  0  2  0  0  0  0  0  0  0  0  0
   23.5445  -20.9148  -13.6387 N   0  0  0  0  0  0  0  0  0  0  0  0
   25.5085  -20.1574  -14.7636 C   0  0  0  0  0  0  0  0  0  0  0  0
   25.5315  -21.1769  -15.5180 O   0  0  0  0  0  0  0  0  0  0  0  0
   26.0864  -18.9669  -15.2426 N   0  0  0  0  0  0  0  0  0  0  0  0
   26.3561  -17.7093  -14.6059 C   0  0  0  0  0  0  0  0  0  0  0  0
   27.6879  -17.3220  -15.2614 C   0  0  0  0  0  0  0  0  0  0  0  0
   27.2207  -17.4654  -16.7220 C   0  0  0  0  0  0  0  0  0  0  0  0
   26.5638  -18.8215  -16.6318 C   0  0  1  0  0  0  0  0  0  0  0  0
   27.5547  -19.8779  -16.8795 C   0  0  0  0  0  0  0  0  0  0  0  0
   28.1091  -20.5889  -15.8342 O   0  0  0  0  0  0  0  0  0  0  0  0
   27.9113  -20.1482  -18.0512 O   0  0  0  0  0  0  0  0  0  0  0  0
  2  1  1  1
  3  2  1  0
  4  3  1  0
  5  6  2  0
  5  4  1  0
  7  2  1  0
  7  8  2  0
  9  5  1  0
 11 12  1  1
 11 10  1  0
 13 11  1  0
 14 13  1  1
 15 14  1  0
 15  7  1  0
 16 14  1  0
 17 16  2  0
 18 16  1  0
 18 19  1  0
 20 19  1  0
 21 20  1  0
 22 21  1  0
 22 18  1  0
 22 23  1  1
 24 23  1  0
 25 23  2  0
M  END
$$$$
