ELP.pdb
     RDKit          3D

 25 25  0  0  1  0  0  0  0  0999 V2000
   15.5613  -10.8061  -13.0312 N   0  0  0  0  0  0  0  0  0  0  0  0
   16.3379   -9.6148  -12.9573 C   0  0  1  0  0  0  0  0  0  0  0  0
   16.8792   -9.1665  -14.2801 C   0  0  0  0  0  0  0  0  0  0  0  0
   17.9286  -10.0652  -14.8444 C   0  0  0  0  0  0  0  0  0  0  0  0
   17.4447  -11.3719  -15.2284 C   0  0  0  0  0  0  0  0  0  0  0  0
   17.7963  -12.4377  -14.7321 O   0  0  0  0  0  0  0  0  0  0  0  0
   15.5737   -8.4935  -12.3164 C   0  0  0  0  0  0  0  0  0  0  0  0
   14.3767   -8.2898  -12.7105 O   0  0  0  0  0  0  0  0  0  0  0  0
   16.4865  -11.4504  -16.2587 O   0  0  0  0  0  0  0  0  0  0  0  0
   14.9040   -7.3767   -6.9186 C   0  0  0  0  0  0  0  0  0  0  0  0
   14.5349   -7.3494   -8.3857 C   0  0  1  0  0  0  0  0  0  0  0  0
   13.1293   -6.9128   -8.5472 C   0  0  0  0  0  0  0  0  0  0  0  0
   15.5608   -6.6522   -9.2232 C   0  0  0  0  0  0  0  0  0  0  0  0
   15.2988   -6.6188  -10.6888 C   0  0  2  0  0  0  0  0  0  0  0  0
   16.1042   -7.6623  -11.3167 N   0  0  0  0  0  0  0  0  0  0  0  0
   15.6481   -5.3197  -11.3149 C   0  0  0  0  0  0  0  0  0  0  0  0
   16.8603   -4.9556  -11.2297 O   0  0  0  0  0  0  0  0  0  0  0  0
   14.7487   -4.4719  -11.9880 N   0  0  0  0  0  0  0  0  0  0  0  0
   13.3277   -4.5401  -12.1778 C   0  0  0  0  0  0  0  0  0  0  0  0
   12.9433   -3.0574  -12.0918 C   0  0  0  0  0  0  0  0  0  0  0  0
   13.9316   -2.5506  -13.1588 C   0  0  0  0  0  0  0  0  0  0  0  0
   15.1840   -3.2383  -12.6718 C   0  0  1  0  0  0  0  0  0  0  0  0
   15.8693   -2.3944  -11.6832 C   0  0  0  0  0  0  0  0  0  0  0  0
   16.5968   -1.2893  -12.0772 O   0  0  0  0  0  0  0  0  0  0  0  0
   15.8015   -2.6695  -10.4613 O   0  0  0  0  0  0  0  0  0  0  0  0
  2  1  1  6
  3  2  1  0
  4  3  1  0
  5  6  2  0
  5  4  1  0
  7  2  1  0
  7  8  2  0
  9  5  1  0
 11 12  1  1
 11 10  1  0
 13 11  1  0
 14 13  1  1
 15 14  1  0
 15  7  1  0
 16 14  1  0
 17 16  2  0
 18 16  1  0
 18 19  1  0
 20 19  1  0
 21 20  1  0
 22 21  1  0
 22 18  1  0
 22 23  1  1
 24 23  1  0
 25 23  2  0
M  END
$$$$
