ELP.pdb
     RDKit          3D

 25 25  0  0  1  0  0  0  0  0999 V2000
   15.9252  -24.2051   -3.3066 N   0  0  0  0  0  0  0  0  0  0  0  0
   15.0116  -24.1717   -2.2148 C   0  0  1  0  0  0  0  0  0  0  0  0
   14.4679  -25.5174   -1.8441 C   0  0  0  0  0  0  0  0  0  0  0  0
   12.9826  -25.5562   -1.7043 C   0  0  0  0  0  0  0  0  0  0  0  0
   12.5048  -25.2464   -0.3758 C   0  0  0  0  0  0  0  0  0  0  0  0
   11.9260  -24.2153   -0.0477 O   0  0  0  0  0  0  0  0  0  0  0  0
   15.6157  -23.5188   -1.0061 C   0  0  0  0  0  0  0  0  0  0  0  0
   16.7312  -23.9720   -0.5820 O   0  0  0  0  0  0  0  0  0  0  0  0
   12.7113  -26.1966    0.6441 O   0  0  0  0  0  0  0  0  0  0  0  0
   18.0241  -19.3873    1.4071 C   0  0  0  0  0  0  0  0  0  0  0  0
   16.5306  -19.5593    1.5770 C   0  0  1  0  0  0  0  0  0  0  0  0
   15.8970  -18.2494    1.8517 C   0  0  0  0  0  0  0  0  0  0  0  0
   15.9211  -20.3920    0.4930 C   0  0  0  0  0  0  0  0  0  0  0  0
   15.6714  -21.8219    0.8258 C   0  0  2  0  0  0  0  0  0  0  0  0
   15.0203  -22.4469   -0.3219 N   0  0  0  0  0  0  0  0  0  0  0  0
   14.7985  -22.0013    2.0122 C   0  0  0  0  0  0  0  0  0  0  0  0
   13.6172  -21.5477    1.9223 O   0  0  0  0  0  0  0  0  0  0  0  0
   15.1762  -22.6289    3.2140 N   0  0  0  0  0  0  0  0  0  0  0  0
   16.4034  -23.2484    3.6264 C   0  0  0  0  0  0  0  0  0  0  0  0
   16.4597  -22.8443    5.1052 C   0  0  0  0  0  0  0  0  0  0  0  0
   15.0613  -23.3629    5.4894 C   0  0  0  0  0  0  0  0  0  0  0  0
   14.2611  -22.7501    4.3658 C   0  0  1  0  0  0  0  0  0  0  0  0
   13.8256  -21.3969    4.7381 C   0  0  0  0  0  0  0  0  0  0  0  0
   12.7760  -21.2060    5.6142 O   0  0  0  0  0  0  0  0  0  0  0  0
   14.4058  -20.3923    4.2612 O   0  0  0  0  0  0  0  0  0  0  0  0
  2  1  1  6
  3  2  1  0
  4  3  1  0
  5  6  2  0
  5  4  1  0
  7  2  1  0
  7  8  2  0
  9  5  1  0
 11 12  1  6
 11 10  1  0
 13 11  1  0
 14 13  1  6
 15 14  1  0
 15  7  1  0
 16 14  1  0
 17 16  2  0
 18 16  1  0
 18 19  1  0
 20 19  1  0
 21 20  1  0
 22 21  1  0
 22 18  1  0
 22 23  1  1
 24 23  1  0
 25 23  2  0
M  END
$$$$
