ELP.pdb
     RDKit          3D

 25 25  0  0  1  0  0  0  0  0999 V2000
   20.4637  -20.9502  -11.8986 N   0  0  0  0  0  0  0  0  0  0  0  0
   21.0799  -20.9541  -13.1825 C   0  0  1  0  0  0  0  0  0  0  0  0
   20.2839  -20.2435  -14.2338 C   0  0  0  0  0  0  0  0  0  0  0  0
   19.4406  -21.1454  -15.0721 C   0  0  0  0  0  0  0  0  0  0  0  0
   18.2333  -21.6010  -14.4208 C   0  0  0  0  0  0  0  0  0  0  0  0
   17.1655  -20.9970  -14.3932 O   0  0  0  0  0  0  0  0  0  0  0  0
   22.4699  -20.3907  -13.1322 C   0  0  0  0  0  0  0  0  0  0  0  0
   22.5962  -19.1431  -12.8931 O   0  0  0  0  0  0  0  0  0  0  0  0
   18.2642  -22.8428  -13.7554 O   0  0  0  0  0  0  0  0  0  0  0  0
   25.9360  -21.7199   -9.6071 C   0  0  0  0  0  0  0  0  0  0  0  0
   25.2004  -20.9384  -10.6735 C   0  0  1  0  0  0  0  0  0  0  0  0
   25.1909  -19.4978  -10.3310 C   0  0  0  0  0  0  0  0  0  0  0  0
   25.6387  -21.3021  -12.0575 C   0  0  0  0  0  0  0  0  0  0  0  0
   24.9599  -20.5830  -13.1710 C   0  0  2  0  0  0  0  0  0  0  0  0
   23.6280  -21.1580  -13.3361 N   0  0  0  0  0  0  0  0  0  0  0  0
   25.6801  -20.6955  -14.4635 C   0  0  0  0  0  0  0  0  0  0  0  0
   25.5358  -21.7823  -15.1016 O   0  0  0  0  0  0  0  0  0  0  0  0
   26.4999  -19.7007  -15.0284 N   0  0  0  0  0  0  0  0  0  0  0  0
   26.8261  -18.3706  -14.5990 C   0  0  0  0  0  0  0  0  0  0  0  0
   28.2965  -18.2713  -15.0249 C   0  0  0  0  0  0  0  0  0  0  0  0
   28.0878  -18.6747  -16.4965 C   0  0  0  0  0  0  0  0  0  0  0  0
   27.2384  -19.9053  -16.2899 C   0  0  1  0  0  0  0  0  0  0  0  0
   28.0964  -21.0864  -16.1221 C   0  0  0  0  0  0  0  0  0  0  0  0
   28.7027  -21.6824  -17.2096 O   0  0  0  0  0  0  0  0  0  0  0  0
   28.2894  -21.5707  -14.9813 O   0  0  0  0  0  0  0  0  0  0  0  0
  2  1  1  1
  3  2  1  0
  4  3  1  0
  5  6  2  0
  5  4  1  0
  7  2  1  0
  7  8  2  0
  9  5  1  0
 11 12  1  1
 11 10  1  0
 13 11  1  0
 14 13  1  1
 15 14  1  0
 15  7  1  0
 16 14  1  0
 17 16  2  0
 18 16  1  0
 18 19  1  0
 20 19  1  0
 21 20  1  0
 22 21  1  0
 22 18  1  0
 22 23  1  1
 24 23  1  0
 25 23  2  0
M  END
$$$$
