ELP.pdb
     RDKit          3D

 25 25  0  0  1  0  0  0  0  0999 V2000
   20.3465  -12.1000  -19.4404 N   0  0  0  0  0  0  0  0  0  0  0  0
   19.6994  -11.7983  -18.2083 C   0  0  1  0  0  0  0  0  0  0  0  0
   19.1478  -13.0021  -17.5080 C   0  0  0  0  0  0  0  0  0  0  0  0
   19.9469  -14.2455  -17.7141 C   0  0  0  0  0  0  0  0  0  0  0  0
   19.3721  -15.4256  -17.1089 C   0  0  0  0  0  0  0  0  0  0  0  0
   18.8149  -16.3377  -17.7117 O   0  0  0  0  0  0  0  0  0  0  0  0
   20.6020  -11.0408  -17.2789 C   0  0  0  0  0  0  0  0  0  0  0  0
   20.1167  -10.6571  -16.1622 O   0  0  0  0  0  0  0  0  0  0  0  0
   19.4479  -15.5592  -15.7081 O   0  0  0  0  0  0  0  0  0  0  0  0
   25.4301  -10.5817  -14.7215 C   0  0  0  0  0  0  0  0  0  0  0  0
   25.2334   -9.7891  -15.9951 C   0  0  1  0  0  0  0  0  0  0  0  0
   26.5460   -9.4663  -16.5997 C   0  0  0  0  0  0  0  0  0  0  0  0
   24.2040  -10.3959  -16.8962 C   0  0  0  0  0  0  0  0  0  0  0  0
   22.7879  -10.0322  -16.6131 C   0  0  2  0  0  0  0  0  0  0  0  0
   21.9398  -10.7324  -17.5734 N   0  0  0  0  0  0  0  0  0  0  0  0
   22.5240   -8.5768  -16.7320 C   0  0  0  0  0  0  0  0  0  0  0  0
   22.6679   -8.0655  -17.8839 O   0  0  0  0  0  0  0  0  0  0  0  0
   22.1304   -7.7316  -15.6777 N   0  0  0  0  0  0  0  0  0  0  0  0
   21.8257   -7.9965  -14.3005 C   0  0  0  0  0  0  0  0  0  0  0  0
   22.4022   -6.7475  -13.6213 C   0  0  0  0  0  0  0  0  0  0  0  0
   21.6585   -5.7111  -14.4843 C   0  0  0  0  0  0  0  0  0  0  0  0
   21.9607   -6.2756  -15.8512 C   0  0  1  0  0  0  0  0  0  0  0  0
   23.2310   -5.7313  -16.3506 C   0  0  0  0  0  0  0  0  0  0  0  0
   23.2950   -4.4627  -16.8910 O   0  0  0  0  0  0  0  0  0  0  0  0
   24.2795   -6.4173  -16.2918 O   0  0  0  0  0  0  0  0  0  0  0  0
  2  1  1  6
  3  2  1  0
  4  3  1  0
  5  6  2  0
  5  4  1  0
  7  2  1  0
  7  8  2  0
  9  5  1  0
 11 12  1  6
 11 10  1  0
 13 11  1  0
 14 13  1  6
 15 14  1  0
 15  7  1  0
 16 14  1  0
 17 16  2  0
 18 16  1  0
 18 19  1  0
 20 19  1  0
 21 20  1  0
 22 21  1  0
 22 18  1  0
 22 23  1  1
 24 23  1  0
 25 23  2  0
M  END
$$$$
