ELP.pdb
     RDKit          3D

 25 25  0  0  1  0  0  0  0  0999 V2000
   16.1634  -12.0281  -13.7008 N   0  0  0  0  0  0  0  0  0  0  0  0
   16.8542  -10.8142  -13.4231 C   0  0  1  0  0  0  0  0  0  0  0  0
   17.4390  -10.1632  -14.6389 C   0  0  0  0  0  0  0  0  0  0  0  0
   18.5521  -10.9343  -15.2663 C   0  0  0  0  0  0  0  0  0  0  0  0
   18.1151  -12.0100  -16.1271 C   0  0  0  0  0  0  0  0  0  0  0  0
   16.9504  -12.3518  -16.3075 O   0  0  0  0  0  0  0  0  0  0  0  0
   15.9825   -9.8344  -12.6935 C   0  0  0  0  0  0  0  0  0  0  0  0
   14.7330   -9.8428  -12.9547 O   0  0  0  0  0  0  0  0  0  0  0  0
   19.0947  -12.7411  -16.8283 O   0  0  0  0  0  0  0  0  0  0  0  0
   13.4312   -7.6393   -8.7533 C   0  0  0  0  0  0  0  0  0  0  0  0
   14.8640   -7.1582   -8.8218 C   0  0  1  0  0  0  0  0  0  0  0  0
   15.3504   -6.8181   -7.4652 C   0  0  0  0  0  0  0  0  0  0  0  0
   15.7324   -8.0553   -9.6471 C   0  0  0  0  0  0  0  0  0  0  0  0
   15.5869   -7.9321  -11.1240 C   0  0  2  0  0  0  0  0  0  0  0  0
   16.4671   -8.9150  -11.7493 N   0  0  0  0  0  0  0  0  0  0  0  0
   15.9504   -6.5877  -11.6363 C   0  0  0  0  0  0  0  0  0  0  0  0
   17.1003   -6.1525  -11.3239 O   0  0  0  0  0  0  0  0  0  0  0  0
   15.1275   -5.7696  -12.4327 N   0  0  0  0  0  0  0  0  0  0  0  0
   13.7762   -5.9265  -12.8900 C   0  0  0  0  0  0  0  0  0  0  0  0
   13.2671   -4.4810  -12.8190 C   0  0  0  0  0  0  0  0  0  0  0  0
   14.3931   -3.8496  -13.6590 C   0  0  0  0  0  0  0  0  0  0  0  0
   15.5837   -4.4736  -12.9721 C   0  0  1  0  0  0  0  0  0  0  0  0
   16.0054   -3.6385  -11.8390 C   0  0  0  0  0  0  0  0  0  0  0  0
   15.6279   -3.9516  -10.5486 O   0  0  0  0  0  0  0  0  0  0  0  0
   16.7179   -2.6243  -12.0315 O   0  0  0  0  0  0  0  0  0  0  0  0
  2  1  1  6
  3  2  1  0
  4  3  1  0
  5  6  2  0
  5  4  1  0
  7  2  1  0
  7  8  2  0
  9  5  1  0
 11 12  1  1
 11 10  1  0
 13 11  1  0
 14 13  1  1
 15 14  1  0
 15  7  1  0
 16 14  1  0
 17 16  2  0
 18 16  1  0
 18 19  1  0
 20 19  1  0
 21 20  1  0
 22 21  1  0
 22 18  1  0
 22 23  1  1
 24 23  1  0
 25 23  2  0
M  END
$$$$
