ELP.pdb
     RDKit          3D

 25 25  0  0  1  0  0  0  0  0999 V2000
   31.8333   -7.6116  -16.5602 N   0  0  0  0  0  0  0  0  0  0  0  0
   32.3915   -8.9212  -16.5976 C   0  0  1  0  0  0  0  0  0  0  0  0
   32.2640   -9.5915  -17.9312 C   0  0  0  0  0  0  0  0  0  0  0  0
   30.8553   -9.8541  -18.3481 C   0  0  0  0  0  0  0  0  0  0  0  0
   30.7300  -10.5095  -19.6303 C   0  0  0  0  0  0  0  0  0  0  0  0
   31.5819  -10.5189  -20.5135 O   0  0  0  0  0  0  0  0  0  0  0  0
   33.8284   -8.9241  -16.1645 C   0  0  0  0  0  0  0  0  0  0  0  0
   34.4590   -7.8145  -16.1930 O   0  0  0  0  0  0  0  0  0  0  0  0
   29.5353  -11.2026  -19.9095 O   0  0  0  0  0  0  0  0  0  0  0  0
   37.2781  -11.7032  -12.0709 C   0  0  0  0  0  0  0  0  0  0  0  0
   37.3087  -10.8929  -13.3482 C   0  0  1  0  0  0  0  0  0  0  0  0
   38.5226  -11.2228  -14.1294 C   0  0  0  0  0  0  0  0  0  0  0  0
   36.0035  -10.9245  -14.0800 C   0  0  0  0  0  0  0  0  0  0  0  0
   35.8834  -10.0077  -15.2474 C   0  0  2  0  0  0  0  0  0  0  0  0
   34.5094  -10.0751  -15.7366 N   0  0  0  0  0  0  0  0  0  0  0  0
   36.7941  -10.3622  -16.3641 C   0  0  0  0  0  0  0  0  0  0  0  0
   36.6630  -11.5234  -16.8574 O   0  0  0  0  0  0  0  0  0  0  0  0
   37.7791   -9.5186  -16.9109 N   0  0  0  0  0  0  0  0  0  0  0  0
   38.1651   -8.1712  -16.6022 C   0  0  0  0  0  0  0  0  0  0  0  0
   39.6846   -8.2428  -16.8007 C   0  0  0  0  0  0  0  0  0  0  0  0
   39.6550   -8.8253  -18.2261 C   0  0  0  0  0  0  0  0  0  0  0  0
   38.6706   -9.9483  -18.0061 C   0  0  1  0  0  0  0  0  0  0  0  0
   39.3777  -11.1573  -17.5619 C   0  0  0  0  0  0  0  0  0  0  0  0
   39.9822  -12.0001  -18.4730 O   0  0  0  0  0  0  0  0  0  0  0  0
   39.4411  -11.4405  -16.3416 O   0  0  0  0  0  0  0  0  0  0  0  0
  2  1  1  6
  3  2  1  0
  4  3  1  0
  5  6  2  0
  5  4  1  0
  7  2  1  0
  7  8  2  0
  9  5  1  0
 11 12  1  6
 11 10  1  0
 13 11  1  0
 14 13  1  1
 15 14  1  0
 15  7  1  0
 16 14  1  0
 17 16  2  0
 18 16  1  0
 18 19  1  0
 20 19  1  0
 21 20  1  0
 22 21  1  0
 22 18  1  0
 22 23  1  1
 24 23  1  0
 25 23  2  0
M  END
$$$$
