ELP.pdb
     RDKit          3D

 25 25  0  0  1  0  0  0  0  0999 V2000
   15.6827  -13.6575  -17.3974 N   0  0  0  0  0  0  0  0  0  0  0  0
   16.4247  -13.1167  -16.3089 C   0  0  1  0  0  0  0  0  0  0  0  0
   17.4860  -14.0369  -15.7883 C   0  0  0  0  0  0  0  0  0  0  0  0
   16.9588  -15.3041  -15.2023 C   0  0  0  0  0  0  0  0  0  0  0  0
   17.9475  -16.0846  -14.4935 C   0  0  0  0  0  0  0  0  0  0  0  0
   19.1475  -15.8347  -14.4365 O   0  0  0  0  0  0  0  0  0  0  0  0
   17.0315  -11.7890  -16.6568 C   0  0  0  0  0  0  0  0  0  0  0  0
   17.4972  -11.6400  -17.8360 O   0  0  0  0  0  0  0  0  0  0  0  0
   17.5170  -17.2345  -13.8020 O   0  0  0  0  0  0  0  0  0  0  0  0
   14.2894   -7.3414  -16.5043 C   0  0  0  0  0  0  0  0  0  0  0  0
   15.4058   -8.2657  -16.9383 C   0  0  1  0  0  0  0  0  0  0  0  0
   15.8603   -7.9074  -18.3012 C   0  0  0  0  0  0  0  0  0  0  0  0
   16.4636   -8.4204  -15.8908 C   0  0  0  0  0  0  0  0  0  0  0  0
   17.5520   -9.3900  -16.1956 C   0  0  2  0  0  0  0  0  0  0  0  0
   17.1155  -10.7129  -15.7586 N   0  0  0  0  0  0  0  0  0  0  0  0
   18.8282   -9.0696  -15.5096 C   0  0  0  0  0  0  0  0  0  0  0  0
   18.8175   -9.1103  -14.2418 O   0  0  0  0  0  0  0  0  0  0  0  0
   20.0342   -8.7292  -16.1503 N   0  0  0  0  0  0  0  0  0  0  0  0
   20.3712   -8.5721  -17.5365 C   0  0  0  0  0  0  0  0  0  0  0  0
   21.3532   -7.3952  -17.4738 C   0  0  0  0  0  0  0  0  0  0  0  0
   22.2989   -8.0027  -16.4208 C   0  0  0  0  0  0  0  0  0  0  0  0
   21.2743   -8.4419  -15.4030 C   0  0  1  0  0  0  0  0  0  0  0  0
   20.9915   -7.3442  -14.4680 C   0  0  0  0  0  0  0  0  0  0  0  0
   21.8507   -7.0624  -13.4250 O   0  0  0  0  0  0  0  0  0  0  0  0
   19.9592   -6.6453  -14.6068 O   0  0  0  0  0  0  0  0  0  0  0  0
  2  1  1  6
  3  2  1  0
  4  3  1  0
  5  6  2  0
  5  4  1  0
  7  2  1  0
  7  8  2  0
  9  5  1  0
 11 12  1  6
 11 10  1  0
 13 11  1  0
 14 13  1  1
 15 14  1  0
 15  7  1  0
 16 14  1  0
 17 16  2  0
 18 16  1  0
 18 19  1  0
 20 19  1  0
 21 20  1  0
 22 21  1  0
 22 18  1  0
 22 23  1  1
 24 23  1  0
 25 23  2  0
M  END
$$$$
