ELP.pdb
     RDKit          3D

 25 25  0  0  1  0  0  0  0  0999 V2000
   15.4712  -26.3664   -2.4919 N   0  0  0  0  0  0  0  0  0  0  0  0
   15.6993  -26.3676   -1.0863 C   0  0  1  0  0  0  0  0  0  0  0  0
   14.5418  -26.8866   -0.2895 C   0  0  0  0  0  0  0  0  0  0  0  0
   13.2996  -26.0695   -0.4175 C   0  0  0  0  0  0  0  0  0  0  0  0
   12.1563  -26.8039   -0.9100 C   0  0  0  0  0  0  0  0  0  0  0  0
   12.1681  -27.9689   -1.2954 O   0  0  0  0  0  0  0  0  0  0  0  0
   16.9428  -27.1270   -0.7270 C   0  0  0  0  0  0  0  0  0  0  0  0
   17.2817  -28.1009   -1.4795 O   0  0  0  0  0  0  0  0  0  0  0  0
   10.9123  -26.1438   -0.9595 O   0  0  0  0  0  0  0  0  0  0  0  0
   21.7323  -24.9451    0.9958 C   0  0  0  0  0  0  0  0  0  0  0  0
   20.7420  -25.8619    0.3117 C   0  0  1  0  0  0  0  0  0  0  0  0
   21.4050  -26.5902   -0.7941 C   0  0  0  0  0  0  0  0  0  0  0  0
   19.9511  -26.6807    1.2832 C   0  0  0  0  0  0  0  0  0  0  0  0
   18.9408  -27.6028    0.6943 C   0  0  2  0  0  0  0  0  0  0  0  0
   17.7436  -26.8259    0.3865 N   0  0  0  0  0  0  0  0  0  0  0  0
   18.5576  -28.7085    1.6068 C   0  0  0  0  0  0  0  0  0  0  0  0
   18.0042  -28.3776    2.6992 O   0  0  0  0  0  0  0  0  0  0  0  0
   18.7582  -30.0786    1.3554 N   0  0  0  0  0  0  0  0  0  0  0  0
   19.3163  -30.7744    0.2310 C   0  0  0  0  0  0  0  0  0  0  0  0
   20.0597  -31.9210    0.9282 C   0  0  0  0  0  0  0  0  0  0  0  0
   18.8665  -32.4363    1.7545 C   0  0  0  0  0  0  0  0  0  0  0  0
   18.3879  -31.1248    2.3286 C   0  0  1  0  0  0  0  0  0  0  0  0
   19.0929  -30.8390    3.5858 C   0  0  0  0  0  0  0  0  0  0  0  0
   18.8189  -31.5586    4.7315 O   0  0  0  0  0  0  0  0  0  0  0  0
   19.9576  -29.9316    3.6337 O   0  0  0  0  0  0  0  0  0  0  0  0
  2  1  1  6
  3  2  1  0
  4  3  1  0
  5  6  2  0
  5  4  1  0
  7  2  1  0
  7  8  2  0
  9  5  1  0
 11 12  1  6
 11 10  1  0
 13 11  1  0
 14 13  1  1
 15 14  1  0
 15  7  1  0
 16 14  1  0
 17 16  2  0
 18 16  1  0
 18 19  1  0
 20 19  1  0
 21 20  1  0
 22 21  1  0
 22 18  1  0
 22 23  1  1
 24 23  1  0
 25 23  2  0
M  END
$$$$
