ELP.pdb
     RDKit          3D

 25 25  0  0  1  0  0  0  0  0999 V2000
   28.5619  -21.2581  -15.8039 N   0  0  0  0  0  0  0  0  0  0  0  0
   27.5034  -20.3276  -15.5999 C   0  0  1  0  0  0  0  0  0  0  0  0
   26.9693  -19.7365  -16.8685 C   0  0  0  0  0  0  0  0  0  0  0  0
   27.9715  -18.9444  -17.6401 C   0  0  0  0  0  0  0  0  0  0  0  0
   27.4246  -18.2534  -18.7858 C   0  0  0  0  0  0  0  0  0  0  0  0
   27.6740  -18.5092  -19.9597 O   0  0  0  0  0  0  0  0  0  0  0  0
   26.3793  -20.9309  -14.8095 C   0  0  0  0  0  0  0  0  0  0  0  0
   25.9645  -22.0875  -15.1556 O   0  0  0  0  0  0  0  0  0  0  0  0
   26.5261  -17.1924  -18.5565 O   0  0  0  0  0  0  0  0  0  0  0  0
   25.8260  -20.2681   -9.3620 C   0  0  0  0  0  0  0  0  0  0  0  0
   25.8560  -20.8583  -10.7548 C   0  0  1  0  0  0  0  0  0  0  0  0
   26.1163  -22.3142  -10.6834 C   0  0  0  0  0  0  0  0  0  0  0  0
   24.6946  -20.4185  -11.5902 C   0  0  0  0  0  0  0  0  0  0  0  0
   24.6666  -20.9217  -12.9916 C   0  0  2  0  0  0  0  0  0  0  0  0
   25.7639  -20.2925  -13.7207 N   0  0  0  0  0  0  0  0  0  0  0  0
   23.3989  -20.6118  -13.6978 C   0  0  0  0  0  0  0  0  0  0  0  0
   23.0525  -19.3920  -13.7346 O   0  0  0  0  0  0  0  0  0  0  0  0
   22.5627  -21.5559  -14.3226 N   0  0  0  0  0  0  0  0  0  0  0  0
   22.7297  -22.9566  -14.5870 C   0  0  0  0  0  0  0  0  0  0  0  0
   21.3024  -23.4743  -14.3671 C   0  0  0  0  0  0  0  0  0  0  0  0
   20.6028  -22.4938  -15.3269 C   0  0  0  0  0  0  0  0  0  0  0  0
   21.2307  -21.2054  -14.8535 C   0  0  1  0  0  0  0  0  0  0  0  0
   20.4428  -20.6371  -13.7510 C   0  0  0  0  0  0  0  0  0  0  0  0
   19.2796  -19.9363  -13.9988 O   0  0  0  0  0  0  0  0  0  0  0  0
   20.8199  -20.7827  -12.5636 O   0  0  0  0  0  0  0  0  0  0  0  0
  2  1  1  6
  3  2  1  0
  4  3  1  0
  5  6  2  0
  5  4  1  0
  7  2  1  0
  7  8  2  0
  9  5  1  0
 11 12  1  1
 11 10  1  0
 13 11  1  0
 14 13  1  1
 15 14  1  0
 15  7  1  0
 16 14  1  0
 17 16  2  0
 18 16  1  0
 18 19  1  0
 20 19  1  0
 21 20  1  0
 22 21  1  0
 22 18  1  0
 22 23  1  1
 24 23  1  0
 25 23  2  0
M  END
$$$$
