NVH.pdb
     RDKit          3D

 26 26  0  0  1  0  0  0  0  0999 V2000
   29.0559  -18.3373  -18.1220 N   0  0  0  0  0  0  0  0  0  0  0  0
   28.5793  -18.3163  -16.7793 C   0  0  0  0  0  0  0  0  0  0  0  0
   29.1696  -17.5503  -15.9405 O   0  0  0  0  0  0  0  0  0  0  0  0
   27.4398  -19.1409  -16.3389 C   0  0  0  0  0  0  0  0  0  0  0  0
   27.9724  -20.1119  -15.3042 C   0  0  2  0  0  0  0  0  0  0  0  0
   28.7396  -21.0982  -16.0513 N   0  0  0  0  0  0  0  0  0  0  0  0
   26.8811  -20.7425  -14.5268 C   0  0  0  0  0  0  0  0  0  0  0  0
   26.1147  -21.5769  -15.0696 O   0  0  0  0  0  0  0  0  0  0  0  0
   25.8913  -19.4771  -10.5336 C   0  0  0  0  0  0  0  0  0  0  0  0
   25.7765  -20.9416  -10.9082 C   0  0  1  0  0  0  0  0  0  0  0  0
   24.5095  -21.4359  -10.2355 C   0  0  0  0  0  0  0  0  0  0  0  0
   25.5480  -20.9986  -12.4024 C   0  0  2  0  0  0  0  0  0  0  0  0
   26.6466  -20.4508  -13.1584 N   0  0  0  0  0  0  0  0  0  0  0  0
   24.2409  -20.4530  -12.8056 C   0  0  0  0  0  0  0  0  0  0  0  0
   23.9495  -19.2327  -12.8251 O   0  0  0  0  0  0  0  0  0  0  0  0
   23.1565  -21.3169  -13.2243 N   0  0  0  0  0  0  0  0  0  0  0  0
   21.8800  -20.7665  -13.5975 C   0  0  1  0  0  0  0  0  0  0  0  0
   21.4369  -21.5434  -14.8415 C   0  0  0  0  0  0  0  0  0  0  0  0
   20.1179  -21.0932  -15.3246 C   0  0  0  0  0  0  0  0  0  0  0  0
   19.3864  -20.0685  -14.7773 C   0  0  0  0  0  0  0  0  0  0  0  0
   18.2129  -19.9235  -15.4649 N   0  0  0  0  0  0  0  0  0  0  0  0
   18.2483  -20.8684  -16.4284 C   0  0  0  0  0  0  0  0  0  0  0  0
   19.4029  -21.5773  -16.3432 N   0  0  0  0  0  0  0  0  0  0  0  0
   20.8542  -20.8589  -12.5334 C   0  0  0  0  0  0  0  0  0  0  0  0
   20.8188  -21.9320  -11.6729 O   0  0  0  0  0  0  0  0  0  0  0  0
   19.9775  -19.9664  -12.3741 O   0  0  0  0  0  0  0  0  0  0  0  0
  2  3  2  0
  2  1  1  0
  4  2  1  0
  5  4  1  0
  5  7  1  0
  5  6  1  6
  7 13  1  0
  7  8  2  0
 10 11  1  1
 10  9  1  0
 12 10  1  0
 12 13  1  6
 14 12  1  0
 14 15  2  0
 16 14  1  0
 17 16  1  0
 17 18  1  6
 19 18  1  0
 20 19  2  0
 21 20  1  0
 22 21  1  0
 22 23  2  0
 23 19  1  0
 24 17  1  0
 25 24  1  0
 26 24  2  0
M  END
$$$$
