NVH.pdb
     RDKit          3D

 26 26  0  0  1  0  0  0  0  0999 V2000
   16.1853  -11.6437  -18.0885 N   0  0  0  0  0  0  0  0  0  0  0  0
   15.9017  -10.4635  -17.3422 C   0  0  0  0  0  0  0  0  0  0  0  0
   14.9302   -9.7239  -17.7272 O   0  0  0  0  0  0  0  0  0  0  0  0
   16.6861  -10.0793  -16.1550 C   0  0  0  0  0  0  0  0  0  0  0  0
   17.7008  -11.1805  -15.9219 C   0  0  2  0  0  0  0  0  0  0  0  0
   16.9755  -12.2437  -15.2415 N   0  0  0  0  0  0  0  0  0  0  0  0
   18.8543  -10.7073  -15.1229 C   0  0  0  0  0  0  0  0  0  0  0  0
   18.7375  -10.5250  -13.8853 O   0  0  0  0  0  0  0  0  0  0  0  0
   22.8337   -9.9804  -16.7971 C   0  0  0  0  0  0  0  0  0  0  0  0
   22.5683  -10.6450  -15.4606 C   0  0  1  0  0  0  0  0  0  0  0  0
   23.6921  -10.1889  -14.5488 C   0  0  0  0  0  0  0  0  0  0  0  0
   21.2821  -10.0579  -14.9232 C   0  0  2  0  0  0  0  0  0  0  0  0
   20.1258  -10.4425  -15.6936 N   0  0  0  0  0  0  0  0  0  0  0  0
   21.3650   -8.6058  -14.6923 C   0  0  0  0  0  0  0  0  0  0  0  0
   22.3177   -8.0253  -14.1181 O   0  0  0  0  0  0  0  0  0  0  0  0
   20.3143   -7.7090  -15.1271 N   0  0  0  0  0  0  0  0  0  0  0  0
   20.4850   -6.2821  -15.0459 C   0  0  1  0  0  0  0  0  0  0  0  0
   21.6772   -5.9512  -15.9495 C   0  0  0  0  0  0  0  0  0  0  0  0
   21.9089   -4.4969  -16.0361 C   0  0  0  0  0  0  0  0  0  0  0  0
   21.5767   -3.5872  -15.0631 C   0  0  0  0  0  0  0  0  0  0  0  0
   21.9249   -2.3293  -15.4721 N   0  0  0  0  0  0  0  0  0  0  0  0
   22.4690   -2.4934  -16.6967 C   0  0  0  0  0  0  0  0  0  0  0  0
   22.4592   -3.8073  -17.0384 N   0  0  0  0  0  0  0  0  0  0  0  0
   19.2894   -5.5117  -15.4586 C   0  0  0  0  0  0  0  0  0  0  0  0
   18.1154   -6.1476  -15.7913 O   0  0  0  0  0  0  0  0  0  0  0  0
   19.2981   -4.2523  -15.5231 O   0  0  0  0  0  0  0  0  0  0  0  0
  2  3  2  0
  2  1  1  0
  4  2  1  0
  5  4  1  0
  5  7  1  0
  5  6  1  1
  7 13  1  0
  7  8  2  0
 10 11  1  1
 10  9  1  0
 12 10  1  0
 12 13  1  6
 14 12  1  0
 14 15  2  0
 16 14  1  0
 17 16  1  0
 17 18  1  6
 19 18  1  0
 20 19  2  0
 21 20  1  0
 22 21  1  0
 22 23  2  0
 23 19  1  0
 24 17  1  0
 25 24  1  0
 26 24  2  0
M  END
$$$$
