NVH.pdb
     RDKit          3D

 26 26  0  0  1  0  0  0  0  0999 V2000
   15.0935  -12.3764  -15.1991 N   0  0  0  0  0  0  0  0  0  0  0  0
   16.5055  -12.5675  -15.1931 C   0  0  0  0  0  0  0  0  0  0  0  0
   16.9760  -13.5765  -14.5612 O   0  0  0  0  0  0  0  0  0  0  0  0
   17.4241  -11.6472  -15.8871 C   0  0  0  0  0  0  0  0  0  0  0  0
   16.5821  -10.5095  -16.4288 C   0  0  2  0  0  0  0  0  0  0  0  0
   15.8886  -11.0531  -17.5878 N   0  0  0  0  0  0  0  0  0  0  0  0
   17.4087   -9.3343  -16.7877 C   0  0  0  0  0  0  0  0  0  0  0  0
   17.9376   -9.2531  -17.9243 O   0  0  0  0  0  0  0  0  0  0  0  0
   16.4030   -5.7621  -15.5470 C   0  0  0  0  0  0  0  0  0  0  0  0
   17.4071   -5.9342  -16.6697 C   0  0  1  0  0  0  0  0  0  0  0  0
   18.2169   -4.6512  -16.6920 C   0  0  0  0  0  0  0  0  0  0  0  0
   18.3403   -7.0519  -16.2599 C   0  0  2  0  0  0  0  0  0  0  0  0
   17.6419   -8.2585  -15.8928 N   0  0  0  0  0  0  0  0  0  0  0  0
   19.3346   -6.6327  -15.2577 C   0  0  0  0  0  0  0  0  0  0  0  0
   19.0996   -6.4854  -14.0340 O   0  0  0  0  0  0  0  0  0  0  0  0
   20.7066   -6.3496  -15.6250 N   0  0  0  0  0  0  0  0  0  0  0  0
   21.6817   -6.0117  -14.6216 C   0  0  1  0  0  0  0  0  0  0  0  0
   23.0213   -6.5394  -15.1455 C   0  0  0  0  0  0  0  0  0  0  0  0
   23.0233   -8.0106  -15.2535 C   0  0  0  0  0  0  0  0  0  0  0  0
   21.9817   -8.8283  -14.8914 C   0  0  0  0  0  0  0  0  0  0  0  0
   22.3223  -10.1336  -15.1172 N   0  0  0  0  0  0  0  0  0  0  0  0
   23.5753  -10.0907  -15.6182 C   0  0  0  0  0  0  0  0  0  0  0  0
   23.9999   -8.8038  -15.7007 N   0  0  0  0  0  0  0  0  0  0  0  0
   21.7693   -4.5610  -14.3367 C   0  0  0  0  0  0  0  0  0  0  0  0
   22.2915   -4.1012  -13.1497 O   0  0  0  0  0  0  0  0  0  0  0  0
   21.3713   -3.6949  -15.1624 O   0  0  0  0  0  0  0  0  0  0  0  0
  2  3  2  0
  2  1  1  0
  4  2  1  0
  5  4  1  0
  5  7  1  0
  5  6  1  6
  7 13  1  0
  7  8  2  0
 10 11  1  1
 10  9  1  0
 12 10  1  0
 12 13  1  1
 14 12  1  0
 14 15  2  0
 16 14  1  0
 17 16  1  0
 17 18  1  6
 19 18  1  0
 20 19  2  0
 21 20  1  0
 22 21  1  0
 22 23  2  0
 23 19  1  0
 24 17  1  0
 25 24  1  0
 26 24  2  0
M  END
$$$$
