NVH.pdb
     RDKit          3D

 26 26  0  0  1  0  0  0  0  0999 V2000
   15.4664  -11.7190  -18.2182 N   0  0  0  0  0  0  0  0  0  0  0  0
   15.8335  -12.7235  -17.2766 C   0  0  0  0  0  0  0  0  0  0  0  0
   15.6823  -13.9498  -17.6114 O   0  0  0  0  0  0  0  0  0  0  0  0
   16.3765  -12.3910  -15.9473 C   0  0  0  0  0  0  0  0  0  0  0  0
   17.8749  -12.2331  -16.1102 C   0  0  2  0  0  0  0  0  0  0  0  0
   18.4041  -13.5867  -16.1964 N   0  0  0  0  0  0  0  0  0  0  0  0
   18.4757  -11.4818  -14.9843 C   0  0  0  0  0  0  0  0  0  0  0  0
   18.6147  -12.0254  -13.8603 O   0  0  0  0  0  0  0  0  0  0  0  0
   20.3059   -7.6651  -15.5022 C   0  0  0  0  0  0  0  0  0  0  0  0
   20.6508   -8.5687  -14.3349 C   0  0  1  0  0  0  0  0  0  0  0  0
   20.9297   -7.6389  -13.1687 C   0  0  0  0  0  0  0  0  0  0  0  0
   19.4019   -9.3536  -14.0000 C   0  0  2  0  0  0  0  0  0  0  0  0
   18.9208  -10.1404  -15.1081 N   0  0  0  0  0  0  0  0  0  0  0  0
   18.3523   -8.5274  -13.3799 C   0  0  0  0  0  0  0  0  0  0  0  0
   17.6292   -7.7075  -13.9956 O   0  0  0  0  0  0  0  0  0  0  0  0
   18.0677   -8.6039  -11.9619 N   0  0  0  0  0  0  0  0  0  0  0  0
   17.0662   -7.7590  -11.3662 C   0  0  1  0  0  0  0  0  0  0  0  0
   16.9540   -8.2087   -9.9059 C   0  0  0  0  0  0  0  0  0  0  0  0
   15.8653   -7.5061   -9.2009 C   0  0  0  0  0  0  0  0  0  0  0  0
   14.9192   -6.7142   -9.8031 C   0  0  0  0  0  0  0  0  0  0  0  0
   14.0675   -6.2152   -8.8564 N   0  0  0  0  0  0  0  0  0  0  0  0
   14.5104   -6.7154   -7.6832 C   0  0  0  0  0  0  0  0  0  0  0  0
   15.6000   -7.4978   -7.8923 N   0  0  0  0  0  0  0  0  0  0  0  0
   17.3795   -6.3136  -11.4432 C   0  0  0  0  0  0  0  0  0  0  0  0
   16.4304   -5.4021  -11.8452 O   0  0  0  0  0  0  0  0  0  0  0  0
   18.5195   -5.8626  -11.1474 O   0  0  0  0  0  0  0  0  0  0  0  0
  2  3  2  0
  2  1  1  0
  4  2  1  0
  5  4  1  0
  5  7  1  0
  5  6  1  1
  7 13  1  0
  7  8  2  0
 10 11  1  1
 10  9  1  0
 12 10  1  0
 12 13  1  6
 14 12  1  0
 14 15  2  0
 16 14  1  0
 17 16  1  0
 17 18  1  1
 19 18  1  0
 20 19  2  0
 21 20  1  0
 22 21  1  0
 22 23  2  0
 23 19  1  0
 24 17  1  0
 25 24  1  0
 26 24  2  0
M  END
$$$$
