NVH.pdb
     RDKit          3D

 26 26  0  0  1  0  0  0  0  0999 V2000
   18.4037  -14.7113  -21.3667 N   0  0  0  0  0  0  0  0  0  0  0  0
   19.4723  -14.0916  -20.6565 C   0  0  0  0  0  0  0  0  0  0  0  0
   20.6484  -14.1558  -21.1578 O   0  0  0  0  0  0  0  0  0  0  0  0
   19.2603  -13.3875  -19.3791 C   0  0  0  0  0  0  0  0  0  0  0  0
   20.2603  -13.9551  -18.3918 C   0  0  2  0  0  0  0  0  0  0  0  0
   19.7328  -15.2556  -18.0042 N   0  0  0  0  0  0  0  0  0  0  0  0
   20.4429  -13.0678  -17.2204 C   0  0  0  0  0  0  0  0  0  0  0  0
   19.5150  -12.9173  -16.3869 O   0  0  0  0  0  0  0  0  0  0  0  0
   24.1877  -11.0742  -16.3016 C   0  0  0  0  0  0  0  0  0  0  0  0
   23.1730  -11.4853  -15.2530 C   0  0  1  0  0  0  0  0  0  0  0  0
   23.2295  -10.4070  -14.1870 C   0  0  0  0  0  0  0  0  0  0  0  0
   21.8097  -11.4084  -15.9036 C   0  0  2  0  0  0  0  0  0  0  0  0
   21.6465  -12.3576  -16.9763 N   0  0  0  0  0  0  0  0  0  0  0  0
   21.4303  -10.0371  -16.2836 C   0  0  0  0  0  0  0  0  0  0  0  0
   21.8633   -9.4274  -17.2912 O   0  0  0  0  0  0  0  0  0  0  0  0
   20.4953   -9.2637  -15.4929 N   0  0  0  0  0  0  0  0  0  0  0  0
   20.1400   -7.9229  -15.8775 C   0  0  1  0  0  0  0  0  0  0  0  0
   18.6085   -7.8788  -15.8750 C   0  0  0  0  0  0  0  0  0  0  0  0
   18.1011   -6.5298  -16.1891 C   0  0  0  0  0  0  0  0  0  0  0  0
   18.4643   -5.7873  -17.2853 C   0  0  0  0  0  0  0  0  0  0  0  0
   17.8112   -4.5857  -17.2631 N   0  0  0  0  0  0  0  0  0  0  0  0
   17.0536   -4.6154  -16.1460 C   0  0  0  0  0  0  0  0  0  0  0  0
   17.2295   -5.7937  -15.4952 N   0  0  0  0  0  0  0  0  0  0  0  0
   20.6923   -6.8780  -14.9851 C   0  0  0  0  0  0  0  0  0  0  0  0
   21.0060   -5.6275  -15.4657 O   0  0  0  0  0  0  0  0  0  0  0  0
   20.8974   -7.0897  -13.7589 O   0  0  0  0  0  0  0  0  0  0  0  0
  2  3  2  0
  2  1  1  0
  4  2  1  0
  5  4  1  0
  5  7  1  0
  5  6  1  1
  7 13  1  0
  7  8  2  0
 10 11  1  1
 10  9  1  0
 12 10  1  0
 12 13  1  6
 14 12  1  0
 14 15  2  0
 16 14  1  0
 17 16  1  0
 17 18  1  1
 19 18  1  0
 20 19  2  0
 21 20  1  0
 22 21  1  0
 22 23  2  0
 23 19  1  0
 24 17  1  0
 25 24  1  0
 26 24  2  0
M  END
$$$$
