NVH.pdb
     RDKit          3D

 26 26  0  0  1  0  0  0  0  0999 V2000
   18.9982  -15.1345  -17.1997 N   0  0  0  0  0  0  0  0  0  0  0  0
   18.8592  -13.9004  -16.5011 C   0  0  0  0  0  0  0  0  0  0  0  0
   17.6797  -13.4345  -16.3263 O   0  0  0  0  0  0  0  0  0  0  0  0
   20.0219  -13.1587  -15.9810 C   0  0  0  0  0  0  0  0  0  0  0  0
   19.8289  -11.7069  -16.3710 C   0  0  2  0  0  0  0  0  0  0  0  0
   19.9904  -11.6653  -17.8173 N   0  0  0  0  0  0  0  0  0  0  0  0
   20.7966  -10.8190  -15.6869 C   0  0  0  0  0  0  0  0  0  0  0  0
   21.7083  -11.3044  -14.9718 O   0  0  0  0  0  0  0  0  0  0  0  0
   23.0701  -10.2960  -16.2674 C   0  0  0  0  0  0  0  0  0  0  0  0
   23.1622   -8.9446  -15.5867 C   0  0  1  0  0  0  0  0  0  0  0  0
   23.6685   -7.9871  -16.6492 C   0  0  0  0  0  0  0  0  0  0  0  0
   21.7503   -8.5289  -15.2378 C   0  0  2  0  0  0  0  0  0  0  0  0
   20.7531   -9.4055  -15.7997 N   0  0  0  0  0  0  0  0  0  0  0  0
   21.4862   -7.1056  -15.5086 C   0  0  0  0  0  0  0  0  0  0  0  0
   21.2375   -6.6263  -16.6412 O   0  0  0  0  0  0  0  0  0  0  0  0
   21.4945   -6.1190  -14.4483 N   0  0  0  0  0  0  0  0  0  0  0  0
   21.1761   -4.7423  -14.7223 C   0  0  1  0  0  0  0  0  0  0  0  0
   19.9407   -4.4219  -13.8747 C   0  0  0  0  0  0  0  0  0  0  0  0
   19.4545   -3.0503  -14.1159 C   0  0  0  0  0  0  0  0  0  0  0  0
   20.1620   -1.9051  -13.8463 C   0  0  0  0  0  0  0  0  0  0  0  0
   19.4127   -0.8118  -14.1842 N   0  0  0  0  0  0  0  0  0  0  0  0
   18.2520   -1.3116  -14.6592 C   0  0  0  0  0  0  0  0  0  0  0  0
   18.2775   -2.6683  -14.6177 N   0  0  0  0  0  0  0  0  0  0  0  0
   22.2769   -3.8007  -14.4146 C   0  0  0  0  0  0  0  0  0  0  0  0
   22.4337   -2.6347  -15.1281 O   0  0  0  0  0  0  0  0  0  0  0  0
   23.1097   -4.0272  -13.4950 O   0  0  0  0  0  0  0  0  0  0  0  0
  2  3  2  0
  2  1  1  0
  4  2  1  0
  5  4  1  0
  5  7  1  0
  5  6  1  6
  7 13  1  0
  7  8  2  0
 10 11  1  6
 10  9  1  0
 12 10  1  0
 12 13  1  6
 14 12  1  0
 14 15  2  0
 16 14  1  0
 17 16  1  0
 17 18  1  1
 19 18  1  0
 20 19  2  0
 21 20  1  0
 22 21  1  0
 22 23  2  0
 23 19  1  0
 24 17  1  0
 25 24  1  0
 26 24  2  0
M  END
$$$$
