NVH.pdb
     RDKit          3D

 26 26  0  0  1  0  0  0  0  0999 V2000
   31.7689   -8.6073  -17.8280 N   0  0  0  0  0  0  0  0  0  0  0  0
   30.9362   -8.2265  -18.9197 C   0  0  0  0  0  0  0  0  0  0  0  0
   31.3202   -7.2580  -19.6635 O   0  0  0  0  0  0  0  0  0  0  0  0
   29.6635   -8.9106  -19.2107 C   0  0  0  0  0  0  0  0  0  0  0  0
   29.4626   -9.9484  -18.1247 C   0  0  2  0  0  0  0  0  0  0  0  0
   30.2763  -11.0897  -18.5185 N   0  0  0  0  0  0  0  0  0  0  0  0
   28.0370  -10.3194  -17.9735 C   0  0  0  0  0  0  0  0  0  0  0  0
   27.4995  -11.1179  -18.7808 O   0  0  0  0  0  0  0  0  0  0  0  0
   26.3786  -12.3049  -15.9133 C   0  0  0  0  0  0  0  0  0  0  0  0
   25.5218  -11.0769  -15.6762 C   0  0  1  0  0  0  0  0  0  0  0  0
   26.0472  -10.4548  -14.3959 C   0  0  0  0  0  0  0  0  0  0  0  0
   25.8141  -10.1105  -16.8026 C   0  0  2  0  0  0  0  0  0  0  0  0
   27.2181   -9.8102  -16.9329 N   0  0  0  0  0  0  0  0  0  0  0  0
   24.9675   -8.9062  -16.7614 C   0  0  0  0  0  0  0  0  0  0  0  0
   25.3072   -7.8091  -16.2562 O   0  0  0  0  0  0  0  0  0  0  0  0
   23.6321   -8.9001  -17.3219 N   0  0  0  0  0  0  0  0  0  0  0  0
   22.8082   -7.7223  -17.2462 C   0  0  1  0  0  0  0  0  0  0  0  0
   21.7280   -7.8976  -18.3184 C   0  0  0  0  0  0  0  0  0  0  0  0
   20.8441   -6.7195  -18.4000 C   0  0  0  0  0  0  0  0  0  0  0  0
   21.0308   -5.6517  -19.2425 C   0  0  0  0  0  0  0  0  0  0  0  0
   20.0318   -4.7368  -19.0530 N   0  0  0  0  0  0  0  0  0  0  0  0
   19.2453   -5.2659  -18.0916 C   0  0  0  0  0  0  0  0  0  0  0  0
   19.7378   -6.4675  -17.6960 N   0  0  0  0  0  0  0  0  0  0  0  0
   22.1920   -7.5072  -15.9168 C   0  0  0  0  0  0  0  0  0  0  0  0
   21.8881   -6.2412  -15.4718 O   0  0  0  0  0  0  0  0  0  0  0  0
   21.9240   -8.4670  -15.1438 O   0  0  0  0  0  0  0  0  0  0  0  0
  2  3  2  0
  2  1  1  0
  4  2  1  0
  5  4  1  0
  5  7  1  0
  5  6  1  6
  7 13  1  0
  7  8  2  0
 10 11  1  1
 10  9  1  0
 12 10  1  0
 12 13  1  1
 14 12  1  0
 14 15  2  0
 16 14  1  0
 17 16  1  0
 17 18  1  6
 19 18  1  0
 20 19  2  0
 21 20  1  0
 22 21  1  0
 22 23  2  0
 23 19  1  0
 24 17  1  0
 25 24  1  0
 26 24  2  0
M  END
$$$$
