NVH.pdb
     RDKit          3D

 26 26  0  0  1  0  0  0  0  0999 V2000
   24.8824  -15.2624  -21.9672 N   0  0  0  0  0  0  0  0  0  0  0  0
   23.8920  -14.2379  -21.9736 C   0  0  0  0  0  0  0  0  0  0  0  0
   23.3369  -13.9411  -23.0883 O   0  0  0  0  0  0  0  0  0  0  0  0
   23.4955  -13.5232  -20.7471 C   0  0  0  0  0  0  0  0  0  0  0  0
   24.4030  -14.0151  -19.6375 C   0  0  2  0  0  0  0  0  0  0  0  0
   23.9136  -15.3416  -19.2905 N   0  0  0  0  0  0  0  0  0  0  0  0
   24.3895  -13.1044  -18.4698 C   0  0  0  0  0  0  0  0  0  0  0  0
   23.4830  -13.1945  -17.6047 O   0  0  0  0  0  0  0  0  0  0  0  0
   26.5371   -9.8404  -15.5144 C   0  0  0  0  0  0  0  0  0  0  0  0
   26.7254  -10.7711  -16.6962 C   0  0  1  0  0  0  0  0  0  0  0  0
   27.3853  -12.0160  -16.1330 C   0  0  0  0  0  0  0  0  0  0  0  0
   25.3448  -11.1658  -17.1717 C   0  0  2  0  0  0  0  0  0  0  0  0
   25.3761  -12.1059  -18.2643 N   0  0  0  0  0  0  0  0  0  0  0  0
   24.4730  -10.0077  -17.4314 C   0  0  0  0  0  0  0  0  0  0  0  0
   24.6393   -9.1801  -18.3597 O   0  0  0  0  0  0  0  0  0  0  0  0
   23.3175   -9.7293  -16.6038 N   0  0  0  0  0  0  0  0  0  0  0  0
   22.4770   -8.5922  -16.8729 C   0  0  1  0  0  0  0  0  0  0  0  0
   21.0378   -9.1157  -16.8280 C   0  0  0  0  0  0  0  0  0  0  0  0
   20.0575   -8.0360  -17.0494 C   0  0  0  0  0  0  0  0  0  0  0  0
   20.0529   -6.8297  -16.3940 C   0  0  0  0  0  0  0  0  0  0  0  0
   19.0051   -6.0702  -16.8368 N   0  0  0  0  0  0  0  0  0  0  0  0
   18.3834   -6.8307  -17.7629 C   0  0  0  0  0  0  0  0  0  0  0  0
   19.0213   -8.0222  -17.8916 N   0  0  0  0  0  0  0  0  0  0  0  0
   22.6551   -7.4763  -15.9157 C   0  0  0  0  0  0  0  0  0  0  0  0
   22.8900   -7.7165  -14.5814 O   0  0  0  0  0  0  0  0  0  0  0  0
   22.5980   -6.2704  -16.2804 O   0  0  0  0  0  0  0  0  0  0  0  0
  2  3  2  0
  2  1  1  0
  4  2  1  0
  5  4  1  0
  5  7  1  0
  5  6  1  1
  7 13  1  0
  7  8  2  0
 10 11  1  1
 10  9  1  0
 12 10  1  0
 12 13  1  6
 14 12  1  0
 14 15  2  0
 16 14  1  0
 17 16  1  0
 17 18  1  1
 19 18  1  0
 20 19  2  0
 21 20  1  0
 22 21  1  0
 22 23  2  0
 23 19  1  0
 24 17  1  0
 25 24  1  0
 26 24  2  0
M  END
$$$$
