NVH.pdb
     RDKit          3D

 26 26  0  0  1  0  0  0  0  0999 V2000
   18.5160  -16.7900  -14.6532 N   0  0  0  0  0  0  0  0  0  0  0  0
   19.7939  -16.1598  -14.6363 C   0  0  0  0  0  0  0  0  0  0  0  0
   20.6714  -16.5949  -13.8120 O   0  0  0  0  0  0  0  0  0  0  0  0
   20.1263  -15.0372  -15.5317 C   0  0  0  0  0  0  0  0  0  0  0  0
   18.8894  -14.7530  -16.3600 C   0  0  2  0  0  0  0  0  0  0  0  0
   18.8666  -15.7777  -17.3939 N   0  0  0  0  0  0  0  0  0  0  0  0
   18.9156  -13.3909  -16.9405 C   0  0  0  0  0  0  0  0  0  0  0  0
   19.7011  -13.1168  -17.8818 O   0  0  0  0  0  0  0  0  0  0  0  0
   16.3126  -11.6151  -18.6002 C   0  0  0  0  0  0  0  0  0  0  0  0
   16.7243  -10.5917  -17.5604 C   0  0  1  0  0  0  0  0  0  0  0  0
   15.7302  -10.7431  -16.4242 C   0  0  0  0  0  0  0  0  0  0  0  0
   18.0789  -11.0147  -17.0367 C   0  0  2  0  0  0  0  0  0  0  0  0
   18.0742  -12.3451  -16.4812 N   0  0  0  0  0  0  0  0  0  0  0  0
   18.6860  -10.0168  -16.1398 C   0  0  0  0  0  0  0  0  0  0  0  0
   18.6193  -10.0452  -14.8872 O   0  0  0  0  0  0  0  0  0  0  0  0
   19.4319   -8.8883  -16.6573 N   0  0  0  0  0  0  0  0  0  0  0  0
   19.9898   -7.9049  -15.7666 C   0  0  1  0  0  0  0  0  0  0  0  0
   20.8512   -6.9886  -16.6418 C   0  0  0  0  0  0  0  0  0  0  0  0
   21.5949   -6.0038  -15.8336 C   0  0  0  0  0  0  0  0  0  0  0  0
   21.6781   -6.0114  -14.4633 C   0  0  0  0  0  0  0  0  0  0  0  0
   22.4387   -4.9550  -14.0433 N   0  0  0  0  0  0  0  0  0  0  0  0
   22.8109   -4.3159  -15.1728 C   0  0  0  0  0  0  0  0  0  0  0  0
   22.2993   -4.9517  -16.2577 N   0  0  0  0  0  0  0  0  0  0  0  0
   18.9732   -7.1176  -15.0318 C   0  0  0  0  0  0  0  0  0  0  0  0
   19.0829   -6.9058  -13.6767 O   0  0  0  0  0  0  0  0  0  0  0  0
   17.9731   -6.6144  -15.6122 O   0  0  0  0  0  0  0  0  0  0  0  0
  2  3  2  0
  2  1  1  0
  4  2  1  0
  5  4  1  0
  5  7  1  0
  5  6  1  6
  7 13  1  0
  7  8  2  0
 10 11  1  1
 10  9  1  0
 12 10  1  0
 12 13  1  1
 14 12  1  0
 14 15  2  0
 16 14  1  0
 17 16  1  0
 17 18  1  6
 19 18  1  0
 20 19  2  0
 21 20  1  0
 22 21  1  0
 22 23  2  0
 23 19  1  0
 24 17  1  0
 25 24  1  0
 26 24  2  0
M  END
$$$$
