NVH.pdb
     RDKit          3D

 26 26  0  0  1  0  0  0  0  0999 V2000
   16.9747  -12.8480  -18.8463 N   0  0  0  0  0  0  0  0  0  0  0  0
   16.3635  -11.6946  -18.2749 C   0  0  0  0  0  0  0  0  0  0  0  0
   15.3750  -11.1657  -18.8929 O   0  0  0  0  0  0  0  0  0  0  0  0
   16.8329  -11.1049  -17.0083 C   0  0  0  0  0  0  0  0  0  0  0  0
   18.0479  -11.9007  -16.5753 C   0  0  2  0  0  0  0  0  0  0  0  0
   17.5252  -13.1339  -16.0048 N   0  0  0  0  0  0  0  0  0  0  0  0
   18.8763  -11.1551  -15.6001 C   0  0  0  0  0  0  0  0  0  0  0  0
   18.4297  -10.8953  -14.4550 O   0  0  0  0  0  0  0  0  0  0  0  0
   23.0988  -10.6154  -16.0522 C   0  0  0  0  0  0  0  0  0  0  0  0
   22.3581  -10.6544  -14.7301 C   0  0  1  0  0  0  0  0  0  0  0  0
   23.1530   -9.7657  -13.7917 C   0  0  0  0  0  0  0  0  0  0  0  0
   21.0175   -9.9911  -14.9553 C   0  0  2  0  0  0  0  0  0  0  0  0
   20.1894  -10.7060  -15.8943 N   0  0  0  0  0  0  0  0  0  0  0  0
   21.1306   -8.5551  -15.2621 C   0  0  0  0  0  0  0  0  0  0  0  0
   21.5281   -8.0857  -16.3557 O   0  0  0  0  0  0  0  0  0  0  0  0
   20.7782   -7.5429  -14.2880 N   0  0  0  0  0  0  0  0  0  0  0  0
   20.9410   -6.1448  -14.5887 C   0  0  1  0  0  0  0  0  0  0  0  0
   19.5891   -5.4911  -14.2844 C   0  0  0  0  0  0  0  0  0  0  0  0
   19.6104   -4.0416  -14.5570 C   0  0  0  0  0  0  0  0  0  0  0  0
   20.6557   -3.3640  -15.1340 C   0  0  0  0  0  0  0  0  0  0  0  0
   20.3438   -2.0359  -15.2324 N   0  0  0  0  0  0  0  0  0  0  0  0
   19.1036   -1.9241  -14.7109 C   0  0  0  0  0  0  0  0  0  0  0  0
   18.6593   -3.1399  -14.3015 N   0  0  0  0  0  0  0  0  0  0  0  0
   22.0217   -5.4886  -13.8176 C   0  0  0  0  0  0  0  0  0  0  0  0
   22.3292   -5.8950  -12.5395 O   0  0  0  0  0  0  0  0  0  0  0  0
   22.6981   -4.5376  -14.2957 O   0  0  0  0  0  0  0  0  0  0  0  0
  2  3  2  0
  2  1  1  0
  4  2  1  0
  5  4  1  0
  5  7  1  0
  5  6  1  1
  7 13  1  0
  7  8  2  0
 10 11  1  1
 10  9  1  0
 12 10  1  0
 12 13  1  6
 14 12  1  0
 14 15  2  0
 16 14  1  0
 17 16  1  0
 17 18  1  1
 19 18  1  0
 20 19  2  0
 21 20  1  0
 22 21  1  0
 22 23  2  0
 23 19  1  0
 24 17  1  0
 25 24  1  0
 26 24  2  0
M  END
$$$$
