NVH.pdb
     RDKit          3D

 26 26  0  0  1  0  0  0  0  0999 V2000
   19.5189  -13.7704  -17.8573 N   0  0  0  0  0  0  0  0  0  0  0  0
   19.2332  -13.9589  -16.4741 C   0  0  0  0  0  0  0  0  0  0  0  0
   18.4795  -14.9384  -16.1407 O   0  0  0  0  0  0  0  0  0  0  0  0
   19.7770  -13.0685  -15.4330 C   0  0  0  0  0  0  0  0  0  0  0  0
   20.6014  -12.0130  -16.1423 C   0  0  2  0  0  0  0  0  0  0  0  0
   21.9206  -12.6020  -16.3221 N   0  0  0  0  0  0  0  0  0  0  0  0
   20.6664  -10.7521  -15.3683 C   0  0  0  0  0  0  0  0  0  0  0  0
   21.3085  -10.7014  -14.2898 O   0  0  0  0  0  0  0  0  0  0  0  0
   19.6318   -7.0523  -17.0959 C   0  0  0  0  0  0  0  0  0  0  0  0
   20.5856   -7.1646  -15.9229 C   0  0  1  0  0  0  0  0  0  0  0  0
   20.3969   -5.8902  -15.1212 C   0  0  0  0  0  0  0  0  0  0  0  0
   20.1002   -8.3139  -15.0676 C   0  0  2  0  0  0  0  0  0  0  0  0
   20.0266   -9.5587  -15.7913 N   0  0  0  0  0  0  0  0  0  0  0  0
   18.8642   -8.0006  -14.3308 C   0  0  0  0  0  0  0  0  0  0  0  0
   17.7035   -8.2244  -14.7516 O   0  0  0  0  0  0  0  0  0  0  0  0
   18.8996   -7.3890  -13.0185 N   0  0  0  0  0  0  0  0  0  0  0  0
   17.6821   -7.0106  -12.3505 C   0  0  1  0  0  0  0  0  0  0  0  0
   17.7395   -7.6721  -10.9697 C   0  0  0  0  0  0  0  0  0  0  0  0
   16.5114   -7.4197  -10.1925 C   0  0  0  0  0  0  0  0  0  0  0  0
   15.2662   -7.2127  -10.7324 C   0  0  0  0  0  0  0  0  0  0  0  0
   14.3597   -7.0038   -9.7298 N   0  0  0  0  0  0  0  0  0  0  0  0
   15.0716   -7.0885   -8.5858 C   0  0  0  0  0  0  0  0  0  0  0  0
   16.3757   -7.3406   -8.8665 N   0  0  0  0  0  0  0  0  0  0  0  0
   17.5014   -5.5466  -12.2192 C   0  0  0  0  0  0  0  0  0  0  0  0
   16.2469   -4.9818  -12.2381 O   0  0  0  0  0  0  0  0  0  0  0  0
   18.4813   -4.7638  -12.0872 O   0  0  0  0  0  0  0  0  0  0  0  0
  2  3  2  0
  2  1  1  0
  4  2  1  0
  5  4  1  0
  5  7  1  0
  5  6  1  1
  7 13  1  0
  7  8  2  0
 10 11  1  1
 10  9  1  0
 12 10  1  0
 12 13  1  6
 14 12  1  0
 14 15  2  0
 16 14  1  0
 17 16  1  0
 17 18  1  1
 19 18  1  0
 20 19  2  0
 21 20  1  0
 22 21  1  0
 22 23  2  0
 23 19  1  0
 24 17  1  0
 25 24  1  0
 26 24  2  0
M  END
$$$$
