NVH.pdb
     RDKit          3D

 26 26  0  0  1  0  0  0  0  0999 V2000
   20.3543  -17.5753  -18.6126 N   0  0  0  0  0  0  0  0  0  0  0  0
   19.3084  -16.6450  -18.3464 C   0  0  0  0  0  0  0  0  0  0  0  0
   18.3285  -16.5859  -19.1681 O   0  0  0  0  0  0  0  0  0  0  0  0
   19.3253  -15.7632  -17.1654 C   0  0  0  0  0  0  0  0  0  0  0  0
   20.6029  -16.0652  -16.4082 C   0  0  2  0  0  0  0  0  0  0  0  0
   20.2858  -17.1882  -15.5376 N   0  0  0  0  0  0  0  0  0  0  0  0
   21.0773  -14.8930  -15.6378 C   0  0  0  0  0  0  0  0  0  0  0  0
   20.4423  -14.4968  -14.6288 O   0  0  0  0  0  0  0  0  0  0  0  0
   24.9404  -13.1997  -16.2308 C   0  0  0  0  0  0  0  0  0  0  0  0
   24.1875  -13.0900  -14.9196 C   0  0  1  0  0  0  0  0  0  0  0  0
   24.5873  -11.7496  -14.3315 C   0  0  0  0  0  0  0  0  0  0  0  0
   22.7158  -13.0144  -15.2604 C   0  0  2  0  0  0  0  0  0  0  0  0
   22.2482  -14.1705  -15.9838 N   0  0  0  0  0  0  0  0  0  0  0  0
   22.3378  -11.7422  -15.8988 C   0  0  0  0  0  0  0  0  0  0  0  0
   22.5986  -11.4317  -17.0862 O   0  0  0  0  0  0  0  0  0  0  0  0
   21.6107  -10.7193  -15.1761 N   0  0  0  0  0  0  0  0  0  0  0  0
   21.2557   -9.4792  -15.8148 C   0  0  1  0  0  0  0  0  0  0  0  0
   19.7716   -9.2586  -15.5047 C   0  0  0  0  0  0  0  0  0  0  0  0
   18.9051  -10.0719  -16.3786 C   0  0  0  0  0  0  0  0  0  0  0  0
   19.3519  -10.9293  -17.3533 C   0  0  0  0  0  0  0  0  0  0  0  0
   18.2836  -11.5147  -17.9752 N   0  0  0  0  0  0  0  0  0  0  0  0
   17.1942  -11.0021  -17.3645 C   0  0  0  0  0  0  0  0  0  0  0  0
   17.5710  -10.1275  -16.3969 N   0  0  0  0  0  0  0  0  0  0  0  0
   22.0598   -8.3210  -15.3619 C   0  0  0  0  0  0  0  0  0  0  0  0
   22.9404   -8.4358  -14.3109 O   0  0  0  0  0  0  0  0  0  0  0  0
   21.9705   -7.1911  -15.9149 O   0  0  0  0  0  0  0  0  0  0  0  0
  2  3  2  0
  2  1  1  0
  4  2  1  0
  5  4  1  0
  5  7  1  0
  5  6  1  1
  7 13  1  0
  7  8  2  0
 10 11  1  6
 10  9  1  0
 12 10  1  0
 12 13  1  6
 14 12  1  0
 14 15  2  0
 16 14  1  0
 17 16  1  0
 17 18  1  1
 19 18  1  0
 20 19  2  0
 21 20  1  0
 22 21  1  0
 22 23  2  0
 23 19  1  0
 24 17  1  0
 25 24  1  0
 26 24  2  0
M  END
$$$$
