NVH.pdb
     RDKit          3D

 26 26  0  0  1  0  0  0  0  0999 V2000
   13.9851  -13.6697    8.6270 N   0  0  0  0  0  0  0  0  0  0  0  0
   14.3319  -14.9995    8.2507 C   0  0  0  0  0  0  0  0  0  0  0  0
   13.4160  -15.8934    8.2772 O   0  0  0  0  0  0  0  0  0  0  0  0
   15.6981  -15.3660    7.8363 C   0  0  0  0  0  0  0  0  0  0  0  0
   15.9849  -14.6159    6.5510 C   0  0  2  0  0  0  0  0  0  0  0  0
   15.4311  -15.4390    5.4855 N   0  0  0  0  0  0  0  0  0  0  0  0
   17.4346  -14.3797    6.3623 C   0  0  0  0  0  0  0  0  0  0  0  0
   18.1509  -15.2445    5.7990 O   0  0  0  0  0  0  0  0  0  0  0  0
   19.4504  -10.7637    7.7024 C   0  0  0  0  0  0  0  0  0  0  0  0
   19.7856  -11.4604    6.3984 C   0  0  1  0  0  0  0  0  0  0  0  0
   21.2879  -11.3220    6.2373 C   0  0  0  0  0  0  0  0  0  0  0  0
   19.4841  -12.9299    6.5927 C   0  0  2  0  0  0  0  0  0  0  0  0
   18.0807  -13.1922    6.7925 N   0  0  0  0  0  0  0  0  0  0  0  0
   20.3403  -13.5630    7.6101 C   0  0  0  0  0  0  0  0  0  0  0  0
   21.5948  -13.5682    7.5876 O   0  0  0  0  0  0  0  0  0  0  0  0
   19.7759  -14.2511    8.7527 N   0  0  0  0  0  0  0  0  0  0  0  0
   20.6187  -14.9881    9.6572 C   0  0  1  0  0  0  0  0  0  0  0  0
   20.1439  -14.6188   11.0663 C   0  0  0  0  0  0  0  0  0  0  0  0
   20.6554  -13.3005   11.4863 C   0  0  0  0  0  0  0  0  0  0  0  0
   21.4732  -12.4963   10.7320 C   0  0  0  0  0  0  0  0  0  0  0  0
   21.7603  -11.3531   11.4259 N   0  0  0  0  0  0  0  0  0  0  0  0
   21.1071  -11.4789   12.6007 C   0  0  0  0  0  0  0  0  0  0  0  0
   20.4375  -12.6593   12.6371 N   0  0  0  0  0  0  0  0  0  0  0  0
   20.5705  -16.4550    9.4595 C   0  0  0  0  0  0  0  0  0  0  0  0
   19.8200  -17.0106    8.4490 O   0  0  0  0  0  0  0  0  0  0  0  0
   21.2087  -17.2486   10.2033 O   0  0  0  0  0  0  0  0  0  0  0  0
  2  3  2  0
  2  1  1  0
  4  2  1  0
  5  4  1  0
  5  7  1  0
  5  6  1  6
  7 13  1  0
  7  8  2  0
 10 11  1  1
 10  9  1  0
 12 10  1  0
 12 13  1  1
 14 12  1  0
 14 15  2  0
 16 14  1  0
 17 16  1  0
 17 18  1  1
 19 18  1  0
 20 19  2  0
 21 20  1  0
 22 21  1  0
 22 23  2  0
 23 19  1  0
 24 17  1  0
 25 24  1  0
 26 24  2  0
M  END
$$$$
