NVH.pdb
     RDKit          3D

 26 26  0  0  1  0  0  0  0  0999 V2000
   15.7333  -16.7459  -15.0429 N   0  0  0  0  0  0  0  0  0  0  0  0
   15.5642  -15.4667  -15.6473 C   0  0  0  0  0  0  0  0  0  0  0  0
   14.4074  -15.1619  -16.1031 O   0  0  0  0  0  0  0  0  0  0  0  0
   16.6708  -14.4995  -15.7579 C   0  0  0  0  0  0  0  0  0  0  0  0
   16.5263  -13.8163  -17.1030 C   0  0  2  0  0  0  0  0  0  0  0  0
   17.0024  -14.7801  -18.0848 N   0  0  0  0  0  0  0  0  0  0  0  0
   17.2922  -12.5504  -17.1634 C   0  0  0  0  0  0  0  0  0  0  0  0
   18.5369  -12.5686  -17.3334 O   0  0  0  0  0  0  0  0  0  0  0  0
   15.3609   -8.6820  -17.1048 C   0  0  0  0  0  0  0  0  0  0  0  0
   16.5656   -8.9995  -17.9684 C   0  0  1  0  0  0  0  0  0  0  0  0
   17.3814   -7.7210  -18.0152 C   0  0  0  0  0  0  0  0  0  0  0  0
   17.3830  -10.0316  -17.2237 C   0  0  2  0  0  0  0  0  0  0  0  0
   16.6798  -11.2767  -17.0396 N   0  0  0  0  0  0  0  0  0  0  0  0
   17.9701   -9.5106  -15.9777 C   0  0  0  0  0  0  0  0  0  0  0  0
   17.5013   -9.7032  -14.8299 O   0  0  0  0  0  0  0  0  0  0  0  0
   19.1759   -8.7084  -15.9866 N   0  0  0  0  0  0  0  0  0  0  0  0
   19.8003   -8.3056  -14.7539 C   0  0  1  0  0  0  0  0  0  0  0  0
   20.6008   -9.5206  -14.2739 C   0  0  0  0  0  0  0  0  0  0  0  0
   21.3030   -9.2449  -13.0062 C   0  0  0  0  0  0  0  0  0  0  0  0
   21.2088   -8.0765  -12.2916 C   0  0  0  0  0  0  0  0  0  0  0  0
   21.9931   -8.1570  -11.1739 N   0  0  0  0  0  0  0  0  0  0  0  0
   22.5564   -9.3829  -11.2245 C   0  0  0  0  0  0  0  0  0  0  0  0
   22.1380  -10.0421  -12.3352 N   0  0  0  0  0  0  0  0  0  0  0  0
   20.6804   -7.1221  -14.8875 C   0  0  0  0  0  0  0  0  0  0  0  0
   20.9852   -6.3378  -13.7989 O   0  0  0  0  0  0  0  0  0  0  0  0
   21.1814   -6.7862  -15.9951 O   0  0  0  0  0  0  0  0  0  0  0  0
  2  3  2  0
  2  1  1  0
  4  2  1  0
  5  4  1  0
  5  7  1  0
  5  6  1  6
  7 13  1  0
  7  8  2  0
 10 11  1  1
 10  9  1  0
 12 10  1  0
 12 13  1  1
 14 12  1  0
 14 15  2  0
 16 14  1  0
 17 16  1  0
 17 18  1  6
 19 18  1  0
 20 19  2  0
 21 20  1  0
 22 21  1  0
 22 23  2  0
 23 19  1  0
 24 17  1  0
 25 24  1  0
 26 24  2  0
M  END
$$$$
