NVH.pdb
     RDKit          3D

 26 26  0  0  1  0  0  0  0  0999 V2000
   23.0334  -16.4295  -16.6885 N   0  0  0  0  0  0  0  0  0  0  0  0
   21.8246  -17.0988  -17.0368 C   0  0  0  0  0  0  0  0  0  0  0  0
   20.9589  -16.4605  -17.7309 O   0  0  0  0  0  0  0  0  0  0  0  0
   21.5509  -18.4874  -16.6253 C   0  0  0  0  0  0  0  0  0  0  0  0
   22.6781  -18.9038  -15.7019 C   0  0  2  0  0  0  0  0  0  0  0  0
   23.7414  -19.3829  -16.5734 N   0  0  0  0  0  0  0  0  0  0  0  0
   22.2476  -19.9452  -14.7411 C   0  0  0  0  0  0  0  0  0  0  0  0
   22.0868  -21.1320  -15.1206 O   0  0  0  0  0  0  0  0  0  0  0  0
   21.3258  -19.2021  -10.4992 C   0  0  0  0  0  0  0  0  0  0  0  0
   22.1538  -20.3632  -11.0137 C   0  0  1  0  0  0  0  0  0  0  0  0
   21.8019  -21.5403  -10.1233 C   0  0  0  0  0  0  0  0  0  0  0  0
   21.6518  -20.6812  -12.4046 C   0  0  2  0  0  0  0  0  0  0  0  0
   22.0017  -19.6704  -13.3712 N   0  0  0  0  0  0  0  0  0  0  0  0
   20.2231  -21.0373  -12.4331 C   0  0  0  0  0  0  0  0  0  0  0  0
   19.2803  -20.2312  -12.2439 O   0  0  0  0  0  0  0  0  0  0  0  0
   19.7860  -22.3937  -12.6911 N   0  0  0  0  0  0  0  0  0  0  0  0
   18.3879  -22.7344  -12.6594 C   0  0  1  0  0  0  0  0  0  0  0  0
   18.3004  -24.1879  -13.1358 C   0  0  0  0  0  0  0  0  0  0  0  0
   16.9022  -24.6136  -13.3347 C   0  0  0  0  0  0  0  0  0  0  0  0
   15.8037  -23.8032  -13.1880 C   0  0  0  0  0  0  0  0  0  0  0  0
   14.6667  -24.5202  -13.4409 N   0  0  0  0  0  0  0  0  0  0  0  0
   15.0932  -25.7655  -13.7411 C   0  0  0  0  0  0  0  0  0  0  0  0
   16.4481  -25.8218  -13.6767 N   0  0  0  0  0  0  0  0  0  0  0  0
   17.7658  -22.5861  -11.3236 C   0  0  0  0  0  0  0  0  0  0  0  0
   18.4295  -22.9787  -10.1841 O   0  0  0  0  0  0  0  0  0  0  0  0
   16.6117  -22.0995  -11.1767 O   0  0  0  0  0  0  0  0  0  0  0  0
  2  3  2  0
  2  1  1  0
  4  2  1  0
  5  4  1  0
  5  7  1  0
  5  6  1  6
  7 13  1  0
  7  8  2  0
 10 11  1  1
 10  9  1  0
 12 10  1  0
 12 13  1  6
 14 12  1  0
 14 15  2  0
 16 14  1  0
 17 16  1  0
 17 18  1  1
 19 18  1  0
 20 19  2  0
 21 20  1  0
 22 21  1  0
 22 23  2  0
 23 19  1  0
 24 17  1  0
 25 24  1  0
 26 24  2  0
M  END
$$$$
