NVH.pdb
     RDKit          3D

 26 26  0  0  1  0  0  0  0  0999 V2000
   17.2513  -17.1945  -17.0666 N   0  0  0  0  0  0  0  0  0  0  0  0
   17.9406  -15.9952  -17.4086 C   0  0  0  0  0  0  0  0  0  0  0  0
   17.5685  -15.3624  -18.4573 O   0  0  0  0  0  0  0  0  0  0  0  0
   19.0537  -15.4720  -16.5963 C   0  0  0  0  0  0  0  0  0  0  0  0
   19.6489  -14.3076  -17.3623 C   0  0  2  0  0  0  0  0  0  0  0  0
   20.6253  -14.8937  -18.2693 N   0  0  0  0  0  0  0  0  0  0  0  0
   20.2704  -13.3130  -16.4582 C   0  0  0  0  0  0  0  0  0  0  0  0
   19.6136  -12.8222  -15.5064 O   0  0  0  0  0  0  0  0  0  0  0  0
   24.2072  -11.6294  -17.1867 C   0  0  0  0  0  0  0  0  0  0  0  0
   23.6990  -11.8672  -15.7784 C   0  0  1  0  0  0  0  0  0  0  0  0
   24.1758  -10.6770  -14.9671 C   0  0  0  0  0  0  0  0  0  0  0  0
   22.1890  -11.8003  -15.8366 C   0  0  2  0  0  0  0  0  0  0  0  0
   21.6101  -12.8712  -16.6088 N   0  0  0  0  0  0  0  0  0  0  0  0
   21.6868  -10.4715  -16.2252 C   0  0  0  0  0  0  0  0  0  0  0  0
   21.6361  -10.0415  -17.4029 O   0  0  0  0  0  0  0  0  0  0  0  0
   21.1967   -9.5296  -15.2402 N   0  0  0  0  0  0  0  0  0  0  0  0
   20.8085   -8.1982  -15.6253 C   0  0  1  0  0  0  0  0  0  0  0  0
   19.2764   -8.1904  -15.6177 C   0  0  0  0  0  0  0  0  0  0  0  0
   18.7358   -6.8704  -15.9937 C   0  0  0  0  0  0  0  0  0  0  0  0
   18.7186   -5.7653  -15.1794 C   0  0  0  0  0  0  0  0  0  0  0  0
   18.1417   -4.7162  -15.8407 N   0  0  0  0  0  0  0  0  0  0  0  0
   17.8149   -5.2016  -17.0573 C   0  0  0  0  0  0  0  0  0  0  0  0
   18.1751   -6.5072  -17.1499 N   0  0  0  0  0  0  0  0  0  0  0  0
   21.3388   -7.1393  -14.7361 C   0  0  0  0  0  0  0  0  0  0  0  0
   21.6020   -5.8765  -15.2148 O   0  0  0  0  0  0  0  0  0  0  0  0
   21.5704   -7.3498  -13.5144 O   0  0  0  0  0  0  0  0  0  0  0  0
  2  3  2  0
  2  1  1  0
  4  2  1  0
  5  4  1  0
  5  7  1  0
  5  6  1  6
  7 13  1  0
  7  8  2  0
 10 11  1  1
 10  9  1  0
 12 10  1  0
 12 13  1  6
 14 12  1  0
 14 15  2  0
 16 14  1  0
 17 16  1  0
 17 18  1  1
 19 18  1  0
 20 19  2  0
 21 20  1  0
 22 21  1  0
 22 23  2  0
 23 19  1  0
 24 17  1  0
 25 24  1  0
 26 24  2  0
M  END
$$$$
