VRG.pdb
     RDKit          3D

 23 22  0  0  1  0  0  0  0  0999 V2000
   10.3948  -14.6290   29.9556 C   0  0  0  0  0  0  0  0  0  0  0  0
   10.5232  -14.9405   28.4999 C   0  0  2  0  0  0  0  0  0  0  0  0
   10.2094  -13.6638   27.7285 C   0  0  0  0  0  0  0  0  0  0  0  0
    9.5753  -16.0237   28.0422 C   0  0  2  0  0  0  0  0  0  0  0  0
    9.7880  -17.1795   28.8931 N   0  0  0  0  0  0  0  0  0  0  0  0
    9.9060  -16.3632   26.6159 C   0  0  0  0  0  0  0  0  0  0  0  0
   10.8994  -17.0624   26.3050 O   0  0  0  0  0  0  0  0  0  0  0  0
    6.6751  -13.3312   19.1429 N   0  0  0  0  0  0  0  0  0  0  0  0
    7.9808  -13.1191   19.6589 C   0  0  0  0  0  0  0  0  0  0  0  0
    8.5888  -12.0288   19.3034 N   0  0  0  0  0  0  0  0  0  0  0  0
    8.6076  -14.0529   20.5289 N   0  0  0  0  0  0  0  0  0  0  0  0
    7.8725  -15.2391   20.8750 C   0  0  0  0  0  0  0  0  0  0  0  0
    8.6229  -16.1332   21.8261 C   0  0  0  0  0  0  0  0  0  0  0  0
    8.3522  -15.6802   23.2592 C   0  0  0  0  0  0  0  0  0  0  0  0
    9.4402  -16.1549   24.1981 C   0  0  2  0  0  0  0  0  0  0  0  0
    9.0833  -15.8903   25.5589 N   0  0  0  0  0  0  0  0  0  0  0  0
   10.7184  -15.4626   23.8122 C   0  0  0  0  0  0  0  0  0  0  0  0
   10.9246  -14.2583   24.1097 O   0  0  0  0  0  0  0  0  0  0  0  0
    9.5628  -11.8129   19.5870 N   0  0  0  0  0  0  0  0  0  0  0  0
   11.7408  -16.1384   23.0987 C   0  0  0  0  0  0  0  0  0  0  0  0
   12.9748  -15.4969   22.6927 C   0  0  0  0  0  0  0  0  0  0  0  0
   13.8509  -16.3803   21.9235 O   0  0  0  0  0  0  0  0  0  0  0  0
   15.0709  -15.9993   21.3868 O   0  0  0  0  0  0  0  0  0  0  0  0
  2  1  1  1
  2  4  1  0
  3  2  1  0
  4  6  1  0
  4  5  1  1
  6 16  1  0
  6  7  2  0
  9  8  1  0
 10  9  2  0
 11  9  1  0
 12 11  1  0
 13 12  1  0
 14 13  1  0
 15 14  1  6
 16 15  1  0
 17 15  1  0
 18 17  2  0
 19 17  1  0
 20 19  1  0
 21 22  1  0
 21 20  1  0
 23 21  2  0
M  END
$$$$
