VRG.pdb
     RDKit          3D

 23 22  0  0  1  0  0  0  0  0999 V2000
    7.6249  -12.5567   18.4528 C   0  0  0  0  0  0  0  0  0  0  0  0
    7.9278  -13.3254   19.6978 C   0  0  2  0  0  0  0  0  0  0  0  0
    8.9370  -12.5148   20.5028 C   0  0  0  0  0  0  0  0  0  0  0  0
    8.5172  -14.6883   19.4214 C   0  0  2  0  0  0  0  0  0  0  0  0
    7.6486  -15.3558   18.4701 N   0  0  0  0  0  0  0  0  0  0  0  0
    8.5535  -15.4536   20.7145 C   0  0  0  0  0  0  0  0  0  0  0  0
    7.5142  -15.7389   21.3554 O   0  0  0  0  0  0  0  0  0  0  0  0
    9.1711  -21.8755   18.4241 N   0  0  0  0  0  0  0  0  0  0  0  0
    8.0257  -21.0367   18.4004 C   0  0  0  0  0  0  0  0  0  0  0  0
    7.1720  -21.2260   17.4412 N   0  0  0  0  0  0  0  0  0  0  0  0
    7.8104  -20.0281   19.3793 N   0  0  0  0  0  0  0  0  0  0  0  0
    8.9055  -19.7013   20.2518 C   0  0  0  0  0  0  0  0  0  0  0  0
    8.5884  -18.5619   21.1837 C   0  0  0  0  0  0  0  0  0  0  0  0
    9.8432  -18.1964   21.9738 C   0  0  0  0  0  0  0  0  0  0  0  0
    9.8181  -16.7444   22.3999 C   0  0  2  0  0  0  0  0  0  0  0  0
    9.7941  -15.8833   21.2566 N   0  0  0  0  0  0  0  0  0  0  0  0
   11.0256  -16.4944   23.2610 C   0  0  0  0  0  0  0  0  0  0  0  0
   11.1865  -17.0988   24.3518 O   0  0  0  0  0  0  0  0  0  0  0  0
    6.3043  -20.6660   17.3452 N   0  0  0  0  0  0  0  0  0  0  0  0
   12.0295  -15.5687   22.8784 C   0  0  0  0  0  0  0  0  0  0  0  0
   13.1870  -15.2771   23.6996 C   0  0  0  0  0  0  0  0  0  0  0  0
   14.3419  -16.1142   23.3757 O   0  0  0  0  0  0  0  0  0  0  0  0
   15.5988  -15.9669   23.9414 O   0  0  0  0  0  0  0  0  0  0  0  0
  2  1  1  6
  2  4  1  0
  3  2  1  0
  4  6  1  0
  4  5  1  6
  6 16  1  0
  6  7  2  0
  9  8  1  0
 10  9  2  0
 11  9  1  0
 12 11  1  0
 13 12  1  0
 14 13  1  0
 15 14  1  6
 16 15  1  0
 17 15  1  0
 18 17  2  0
 19 17  1  0
 20 19  1  0
 21 22  1  0
 21 20  1  0
 23 21  2  0
M  END
$$$$
