VRG.pdb
     RDKit          3D

 23 22  0  0  1  0  0  0  0  0999 V2000
    7.9721  -12.1731   20.5103 C   0  0  0  0  0  0  0  0  0  0  0  0
    8.5445  -13.3789   19.8387 C   0  0  2  0  0  0  0  0  0  0  0  0
    8.8310  -13.0037   18.3893 C   0  0  0  0  0  0  0  0  0  0  0  0
    7.6068  -14.5629   19.8522 C   0  0  2  0  0  0  0  0  0  0  0  0
    6.4024  -14.1753   19.1421 N   0  0  0  0  0  0  0  0  0  0  0  0
    7.2821  -14.8867   21.2836 C   0  0  0  0  0  0  0  0  0  0  0  0
    6.4326  -14.2409   21.9421 O   0  0  0  0  0  0  0  0  0  0  0  0
    8.7653  -19.5858   26.8022 N   0  0  0  0  0  0  0  0  0  0  0  0
    7.4813  -20.0489   27.1932 C   0  0  0  0  0  0  0  0  0  0  0  0
    7.3631  -20.5236   28.3954 N   0  0  0  0  0  0  0  0  0  0  0  0
    6.3638  -20.0007   26.3152 N   0  0  0  0  0  0  0  0  0  0  0  0
    6.5940  -19.5581   24.9668 C   0  0  0  0  0  0  0  0  0  0  0  0
    6.9279  -18.0923   24.8834 C   0  0  0  0  0  0  0  0  0  0  0  0
    7.2218  -17.7270   23.4299 C   0  0  0  0  0  0  0  0  0  0  0  0
    7.6209  -16.2728   23.3010 C   0  0  2  0  0  0  0  0  0  0  0  0
    7.9440  -15.9567   21.9427 N   0  0  0  0  0  0  0  0  0  0  0  0
    8.7846  -16.0293   24.2221 C   0  0  0  0  0  0  0  0  0  0  0  0
    8.6575  -16.1096   25.4705 O   0  0  0  0  0  0  0  0  0  0  0  0
    6.4460  -20.7709   28.8121 N   0  0  0  0  0  0  0  0  0  0  0  0
   10.0698  -15.7000   23.7211 C   0  0  0  0  0  0  0  0  0  0  0  0
   11.2081  -15.4423   24.5795 C   0  0  0  0  0  0  0  0  0  0  0  0
   11.9284  -16.6595   24.9528 O   0  0  0  0  0  0  0  0  0  0  0  0
   13.0823  -16.6820   25.7206 O   0  0  0  0  0  0  0  0  0  0  0  0
  2  1  1  1
  2  4  1  0
  3  2  1  0
  4  6  1  0
  4  5  1  6
  6 16  1  0
  6  7  2  0
  9  8  1  0
 10  9  2  0
 11  9  1  0
 12 11  1  0
 13 12  1  0
 14 13  1  0
 15 14  1  6
 16 15  1  0
 17 15  1  0
 18 17  2  0
 19 17  1  0
 20 19  1  0
 21 22  1  0
 21 20  1  0
 23 21  2  0
M  END
$$$$
