VRG.pdb
     RDKit          3D

 23 22  0  0  1  0  0  0  0  0999 V2000
    8.4655  -13.2831   27.2306 C   0  0  0  0  0  0  0  0  0  0  0  0
    7.7460  -12.4679   26.2057 C   0  0  2  0  0  0  0  0  0  0  0  0
    7.1854  -11.2376   26.9097 C   0  0  0  0  0  0  0  0  0  0  0  0
    6.6035  -13.2118   25.5556 C   0  0  2  0  0  0  0  0  0  0  0  0
    5.7124  -13.6543   26.6115 N   0  0  0  0  0  0  0  0  0  0  0  0
    7.1713  -14.3973   24.8267 C   0  0  0  0  0  0  0  0  0  0  0  0
    6.9706  -15.5763   25.2033 O   0  0  0  0  0  0  0  0  0  0  0  0
    8.4974  -14.9556   17.3107 N   0  0  0  0  0  0  0  0  0  0  0  0
    7.6569  -13.9152   17.7874 C   0  0  0  0  0  0  0  0  0  0  0  0
    7.9242  -12.7085   17.3910 N   0  0  0  0  0  0  0  0  0  0  0  0
    6.5654  -14.1701   18.6624 N   0  0  0  0  0  0  0  0  0  0  0  0
    6.8456  -14.8523   19.8966 C   0  0  0  0  0  0  0  0  0  0  0  0
    7.6611  -14.0203   20.8504 C   0  0  0  0  0  0  0  0  0  0  0  0
    8.7458  -14.8941   21.4767 C   0  0  0  0  0  0  0  0  0  0  0  0
    8.3564  -15.3344   22.8714 C   0  0  2  0  0  0  0  0  0  0  0  0
    7.9680  -14.2088   23.6660 N   0  0  0  0  0  0  0  0  0  0  0  0
    9.5284  -16.0620   23.4706 C   0  0  0  0  0  0  0  0  0  0  0  0
    9.9395  -17.1479   22.9876 O   0  0  0  0  0  0  0  0  0  0  0  0
    7.3187  -11.8976   17.6179 N   0  0  0  0  0  0  0  0  0  0  0  0
   10.2160  -15.5541   24.6021 C   0  0  0  0  0  0  0  0  0  0  0  0
   11.2920  -16.2697   25.2573 C   0  0  0  0  0  0  0  0  0  0  0  0
   12.5470  -16.2247   24.5073 O   0  0  0  0  0  0  0  0  0  0  0  0
   13.7346  -16.7988   24.9333 O   0  0  0  0  0  0  0  0  0  0  0  0
  2  1  1  1
  2  4  1  0
  3  2  1  0
  4  6  1  0
  4  5  1  1
  6 16  1  0
  6  7  2  0
  9  8  1  0
 10  9  2  0
 11  9  1  0
 12 11  1  0
 13 12  1  0
 14 13  1  0
 15 14  1  6
 16 15  1  0
 17 15  1  0
 18 17  2  0
 19 17  1  0
 20 19  1  0
 21 22  1  0
 21 20  1  0
 23 21  2  0
M  END
$$$$
