VRG.pdb
     RDKit          3D

 23 22  0  0  1  0  0  0  0  0999 V2000
    9.9086  -12.5776   19.8017 C   0  0  0  0  0  0  0  0  0  0  0  0
    9.3368  -13.7894   19.1405 C   0  0  2  0  0  0  0  0  0  0  0  0
    9.0326  -13.4212   17.6929 C   0  0  0  0  0  0  0  0  0  0  0  0
    8.0619  -14.2710   19.7918 C   0  0  2  0  0  0  0  0  0  0  0  0
    7.0568  -13.2424   19.5996 N   0  0  0  0  0  0  0  0  0  0  0  0
    8.3297  -14.4653   21.2579 C   0  0  0  0  0  0  0  0  0  0  0  0
    7.6853  -13.8566   22.1448 O   0  0  0  0  0  0  0  0  0  0  0  0
    6.1933  -20.8203   24.5644 N   0  0  0  0  0  0  0  0  0  0  0  0
    6.0444  -20.5559   23.1773 C   0  0  0  0  0  0  0  0  0  0  0  0
    5.4603  -21.4661   22.4597 N   0  0  0  0  0  0  0  0  0  0  0  0
    6.5106  -19.3496   22.5862 N   0  0  0  0  0  0  0  0  0  0  0  0
    7.2832  -18.4590   23.4092 C   0  0  0  0  0  0  0  0  0  0  0  0
    7.6176  -17.1658   22.7144 C   0  0  0  0  0  0  0  0  0  0  0  0
    8.3152  -16.2322   23.7013 C   0  0  0  0  0  0  0  0  0  0  0  0
    9.5454  -15.6032   23.0837 C   0  0  2  0  0  0  0  0  0  0  0  0
    9.3427  -15.3639   21.6869 N   0  0  0  0  0  0  0  0  0  0  0  0
   10.7084  -16.5249   23.3284 C   0  0  0  0  0  0  0  0  0  0  0  0
   10.5826  -17.5647   24.0244 O   0  0  0  0  0  0  0  0  0  0  0  0
    5.3437  -21.3801   21.4327 N   0  0  0  0  0  0  0  0  0  0  0  0
   11.9912  -16.2595   22.7853 C   0  0  0  0  0  0  0  0  0  0  0  0
   13.0040  -15.5005   23.4905 C   0  0  0  0  0  0  0  0  0  0  0  0
   14.1829  -15.2224   22.6704 O   0  0  0  0  0  0  0  0  0  0  0  0
   15.3046  -14.5415   23.1173 O   0  0  0  0  0  0  0  0  0  0  0  0
  2  1  1  1
  2  4  1  0
  3  2  1  0
  4  6  1  0
  4  5  1  1
  6 16  1  0
  6  7  2  0
  9  8  1  0
 10  9  2  0
 11  9  1  0
 12 11  1  0
 13 12  1  0
 14 13  1  0
 15 14  1  6
 16 15  1  0
 17 15  1  0
 18 17  2  0
 19 17  1  0
 20 19  1  0
 21 22  1  0
 21 20  1  0
 23 21  2  0
M  END
$$$$
