VRG.pdb
     RDKit          3D

 23 22  0  0  1  0  0  0  0  0999 V2000
    5.6764  -12.4373   26.4172 C   0  0  0  0  0  0  0  0  0  0  0  0
    7.1358  -12.1991   26.6319 C   0  0  2  0  0  0  0  0  0  0  0  0
    7.4013  -10.7200   26.3767 C   0  0  0  0  0  0  0  0  0  0  0  0
    8.0091  -13.0110   25.7048 C   0  0  2  0  0  0  0  0  0  0  0  0
    7.5403  -12.7830   24.3508 N   0  0  0  0  0  0  0  0  0  0  0  0
    7.8560  -14.4614   26.0681 C   0  0  0  0  0  0  0  0  0  0  0  0
    7.8756  -14.8618   27.2562 O   0  0  0  0  0  0  0  0  0  0  0  0
    4.1675  -21.4054   22.7234 N   0  0  0  0  0  0  0  0  0  0  0  0
    5.0930  -21.9921   23.6263 C   0  0  0  0  0  0  0  0  0  0  0  0
    4.9408  -23.2527   23.8953 N   0  0  0  0  0  0  0  0  0  0  0  0
    6.1465  -21.2424   24.2179 N   0  0  0  0  0  0  0  0  0  0  0  0
    6.1692  -19.8242   23.9827 C   0  0  0  0  0  0  0  0  0  0  0  0
    7.4133  -19.1647   24.5158 C   0  0  0  0  0  0  0  0  0  0  0  0
    7.3767  -17.6762   24.1761 C   0  0  0  0  0  0  0  0  0  0  0  0
    7.7401  -16.8313   25.3780 C   0  0  2  0  0  0  0  0  0  0  0  0
    7.6813  -15.4386   25.0521 N   0  0  0  0  0  0  0  0  0  0  0  0
    9.1144  -17.2401   25.8320 C   0  0  0  0  0  0  0  0  0  0  0  0
   10.1136  -17.1219   25.0778 O   0  0  0  0  0  0  0  0  0  0  0  0
    5.5807  -23.7721   24.5251 N   0  0  0  0  0  0  0  0  0  0  0  0
    9.3386  -17.7744   27.1264 C   0  0  0  0  0  0  0  0  0  0  0  0
   10.6553  -18.1307   27.6148 C   0  0  0  0  0  0  0  0  0  0  0  0
   10.9317  -19.5637   27.5169 O   0  0  0  0  0  0  0  0  0  0  0  0
   12.0933  -20.1697   27.9697 O   0  0  0  0  0  0  0  0  0  0  0  0
  2  1  1  6
  2  4  1  0
  3  2  1  0
  4  6  1  0
  4  5  1  6
  6 16  1  0
  6  7  2  0
  9  8  1  0
 10  9  2  0
 11  9  1  0
 12 11  1  0
 13 12  1  0
 14 13  1  0
 15 14  1  6
 16 15  1  0
 17 15  1  0
 18 17  2  0
 19 17  1  0
 20 19  1  0
 21 22  1  0
 21 20  1  0
 23 21  2  0
M  END
$$$$
