VRG.pdb
     RDKit          3D

 23 22  0  0  1  0  0  0  0  0999 V2000
    7.3189  -15.4225   16.7552 C   0  0  0  0  0  0  0  0  0  0  0  0
    8.0109  -15.1853   18.0580 C   0  0  2  0  0  0  0  0  0  0  0  0
    7.7414  -16.3940   18.9469 C   0  0  0  0  0  0  0  0  0  0  0  0
    7.5208  -13.9466   18.7699 C   0  0  2  0  0  0  0  0  0  0  0  0
    7.8025  -12.8097   17.9137 N   0  0  0  0  0  0  0  0  0  0  0  0
    8.2760  -13.8202   20.0633 C   0  0  0  0  0  0  0  0  0  0  0  0
    9.4744  -13.4541   20.1081 O   0  0  0  0  0  0  0  0  0  0  0  0
    7.6726  -15.1655   28.0089 N   0  0  0  0  0  0  0  0  0  0  0  0
    8.3625  -13.9274   28.0931 C   0  0  0  0  0  0  0  0  0  0  0  0
    9.3570  -13.8582   28.9242 N   0  0  0  0  0  0  0  0  0  0  0  0
    7.9905  -12.8029   27.3062 N   0  0  0  0  0  0  0  0  0  0  0  0
    7.3156  -13.0540   26.0617 C   0  0  0  0  0  0  0  0  0  0  0  0
    8.2557  -13.4742   24.9633 C   0  0  0  0  0  0  0  0  0  0  0  0
    7.4838  -13.5603   23.6483 C   0  0  0  0  0  0  0  0  0  0  0  0
    8.3726  -14.0428   22.5224 C   0  0  2  0  0  0  0  0  0  0  0  0
    7.6374  -14.1190   21.2964 N   0  0  0  0  0  0  0  0  0  0  0  0
    8.9360  -15.3797   22.9186 C   0  0  0  0  0  0  0  0  0  0  0  0
    8.1852  -16.3580   23.1649 O   0  0  0  0  0  0  0  0  0  0  0  0
    9.9093  -12.9918   29.0657 N   0  0  0  0  0  0  0  0  0  0  0  0
   10.3339  -15.5910   23.0304 C   0  0  0  0  0  0  0  0  0  0  0  0
   10.9137  -16.8828   23.3371 C   0  0  0  0  0  0  0  0  0  0  0  0
   11.2147  -17.0500   24.7588 O   0  0  0  0  0  0  0  0  0  0  0  0
   11.8215  -18.1708   25.3040 O   0  0  0  0  0  0  0  0  0  0  0  0
  2  1  1  6
  2  4  1  0
  3  2  1  0
  4  6  1  0
  4  5  1  6
  6 16  1  0
  6  7  2  0
  9  8  1  0
 10  9  2  0
 11  9  1  0
 12 11  1  0
 13 12  1  0
 14 13  1  0
 15 14  1  1
 16 15  1  0
 17 15  1  0
 18 17  2  0
 19 17  1  0
 20 19  1  0
 21 22  1  0
 21 20  1  0
 23 21  2  0
M  END
$$$$
