VRG.pdb
     RDKit          3D

 23 22  0  0  1  0  0  0  0  0999 V2000
    7.6592  -12.2160   18.4373 C   0  0  0  0  0  0  0  0  0  0  0  0
    7.9869  -13.1613   19.5471 C   0  0  2  0  0  0  0  0  0  0  0  0
    8.9840  -12.4630   20.4647 C   0  0  0  0  0  0  0  0  0  0  0  0
    8.6034  -14.4515   19.0608 C   0  0  2  0  0  0  0  0  0  0  0  0
    7.7361  -14.9894   18.0296 N   0  0  0  0  0  0  0  0  0  0  0  0
    8.6773  -15.4022   20.2226 C   0  0  0  0  0  0  0  0  0  0  0  0
    7.6623  -15.7492   20.8720 O   0  0  0  0  0  0  0  0  0  0  0  0
    7.3769  -22.4900   20.2735 N   0  0  0  0  0  0  0  0  0  0  0  0
    7.1747  -21.5981   19.1874 C   0  0  0  0  0  0  0  0  0  0  0  0
    6.4028  -22.0013   18.2250 N   0  0  0  0  0  0  0  0  0  0  0  0
    7.7856  -20.3148   19.1430 N   0  0  0  0  0  0  0  0  0  0  0  0
    8.6054  -19.9277   20.2589 C   0  0  0  0  0  0  0  0  0  0  0  0
    9.2035  -18.5558   20.0946 C   0  0  0  0  0  0  0  0  0  0  0  0
   10.1326  -18.2695   21.2724 C   0  0  0  0  0  0  0  0  0  0  0  0
    9.9963  -16.8371   21.7416 C   0  0  2  0  0  0  0  0  0  0  0  0
    9.9271  -15.9446   20.6245 N   0  0  0  0  0  0  0  0  0  0  0  0
   11.1697  -16.5280   22.6302 C   0  0  0  0  0  0  0  0  0  0  0  0
   11.3382  -17.1285   23.7222 O   0  0  0  0  0  0  0  0  0  0  0  0
    6.2035  -21.4230   17.3874 N   0  0  0  0  0  0  0  0  0  0  0  0
   12.1317  -15.5491   22.2735 C   0  0  0  0  0  0  0  0  0  0  0  0
   13.2345  -15.1767   23.1361 C   0  0  0  0  0  0  0  0  0  0  0  0
   14.4194  -16.0117   22.9400 O   0  0  0  0  0  0  0  0  0  0  0  0
   15.6653  -15.7432   23.4852 O   0  0  0  0  0  0  0  0  0  0  0  0
  2  1  1  6
  2  4  1  0
  3  2  1  0
  4  6  1  0
  4  5  1  6
  6 16  1  0
  6  7  2  0
  9  8  1  0
 10  9  2  0
 11  9  1  0
 12 11  1  0
 13 12  1  0
 14 13  1  0
 15 14  1  6
 16 15  1  0
 17 15  1  0
 18 17  2  0
 19 17  1  0
 20 19  1  0
 21 22  1  0
 21 20  1  0
 23 21  2  0
M  END
$$$$
