VRG.pdb
     RDKit          3D

 23 22  0  0  1  0  0  0  0  0999 V2000
    7.9999  -12.3313   20.9003 C   0  0  0  0  0  0  0  0  0  0  0  0
    8.4604  -13.4256   19.9930 C   0  0  2  0  0  0  0  0  0  0  0  0
    8.3891  -12.8974   18.5649 C   0  0  0  0  0  0  0  0  0  0  0  0
    7.6085  -14.6692   20.0885 C   0  0  2  0  0  0  0  0  0  0  0  0
    6.2745  -14.3214   19.6361 N   0  0  0  0  0  0  0  0  0  0  0  0
    7.5707  -15.1015   21.5275 C   0  0  0  0  0  0  0  0  0  0  0  0
    6.8258  -14.5532   22.3741 O   0  0  0  0  0  0  0  0  0  0  0  0
    2.6939  -18.6668   21.1373 N   0  0  0  0  0  0  0  0  0  0  0  0
    3.7092  -19.4485   21.7490 C   0  0  0  0  0  0  0  0  0  0  0  0
    3.3317  -20.5060   22.4001 N   0  0  0  0  0  0  0  0  0  0  0  0
    5.0847  -19.0995   21.6601 N   0  0  0  0  0  0  0  0  0  0  0  0
    5.4779  -17.8073   22.1532 C   0  0  0  0  0  0  0  0  0  0  0  0
    6.1128  -17.8723   23.5169 C   0  0  0  0  0  0  0  0  0  0  0  0
    7.6265  -17.9996   23.3596 C   0  0  0  0  0  0  0  0  0  0  0  0
    8.2894  -16.6395   23.3231 C   0  0  2  0  0  0  0  0  0  0  0  0
    8.3966  -16.1665   21.9762 N   0  0  0  0  0  0  0  0  0  0  0  0
    9.6370  -16.7642   23.9791 C   0  0  0  0  0  0  0  0  0  0  0  0
   10.1209  -17.8881   24.2689 O   0  0  0  0  0  0  0  0  0  0  0  0
    4.0040  -21.1675   22.8316 N   0  0  0  0  0  0  0  0  0  0  0  0
   10.4148  -15.6218   24.2969 C   0  0  0  0  0  0  0  0  0  0  0  0
   11.7646  -15.7070   24.8165 C   0  0  0  0  0  0  0  0  0  0  0  0
   12.6221  -16.5971   24.0343 O   0  0  0  0  0  0  0  0  0  0  0  0
   12.7714  -16.5300   22.6577 O   0  0  0  0  0  0  0  0  0  0  0  0
  2  1  1  1
  2  4  1  0
  3  2  1  0
  4  6  1  0
  4  5  1  1
  6 16  1  0
  6  7  2  0
  9  8  1  0
 10  9  2  0
 11  9  1  0
 12 11  1  0
 13 12  1  0
 14 13  1  0
 15 14  1  6
 16 15  1  0
 17 15  1  0
 18 17  2  0
 19 17  1  0
 20 19  1  0
 21 22  1  0
 21 20  1  0
 23 21  2  0
M  END
$$$$
