VRG.pdb
     RDKit          3D

 23 22  0  0  1  0  0  0  0  0999 V2000
    8.4281  -12.5587   18.4101 C   0  0  0  0  0  0  0  0  0  0  0  0
    8.3086  -13.1034   19.7963 C   0  0  2  0  0  0  0  0  0  0  0  0
    9.7164  -13.2048   20.3719 C   0  0  0  0  0  0  0  0  0  0  0  0
    7.6720  -14.4724   19.8397 C   0  0  2  0  0  0  0  0  0  0  0  0
    6.3891  -14.3798   19.1684 N   0  0  0  0  0  0  0  0  0  0  0  0
    7.4759  -14.8520   21.2808 C   0  0  0  0  0  0  0  0  0  0  0  0
    6.7489  -14.1879   22.0572 O   0  0  0  0  0  0  0  0  0  0  0  0
    4.6733  -19.9878   20.0613 N   0  0  0  0  0  0  0  0  0  0  0  0
    3.6212  -19.2989   20.7206 C   0  0  0  0  0  0  0  0  0  0  0  0
    2.5057  -19.1597   20.0718 N   0  0  0  0  0  0  0  0  0  0  0  0
    3.7695  -18.7786   22.0356 N   0  0  0  0  0  0  0  0  0  0  0  0
    5.0782  -18.8295   22.6290 C   0  0  0  0  0  0  0  0  0  0  0  0
    5.7914  -17.5043   22.5821 C   0  0  0  0  0  0  0  0  0  0  0  0
    7.1318  -17.6306   23.3030 C   0  0  0  0  0  0  0  0  0  0  0  0
    7.9381  -16.3551   23.1868 C   0  0  2  0  0  0  0  0  0  0  0  0
    8.1235  -15.9988   21.8128 N   0  0  0  0  0  0  0  0  0  0  0  0
    9.2506  -16.5723   23.8884 C   0  0  0  0  0  0  0  0  0  0  0  0
   10.2378  -17.0686   23.2882 O   0  0  0  0  0  0  0  0  0  0  0  0
    1.6752  -18.6913   20.4800 N   0  0  0  0  0  0  0  0  0  0  0  0
    9.4276  -16.2268   25.2524 C   0  0  0  0  0  0  0  0  0  0  0  0
   10.6713  -16.4398   25.9644 C   0  0  0  0  0  0  0  0  0  0  0  0
   10.8127  -17.8050   26.4702 O   0  0  0  0  0  0  0  0  0  0  0  0
   11.8542  -18.2372   27.2764 O   0  0  0  0  0  0  0  0  0  0  0  0
  2  1  1  6
  2  4  1  0
  3  2  1  0
  4  6  1  0
  4  5  1  6
  6 16  1  0
  6  7  2  0
  9  8  1  0
 10  9  2  0
 11  9  1  0
 12 11  1  0
 13 12  1  0
 14 13  1  0
 15 14  1  6
 16 15  1  0
 17 15  1  0
 18 17  2  0
 19 17  1  0
 20 19  1  0
 21 22  1  0
 21 20  1  0
 23 21  2  0
M  END
$$$$
