VRG.pdb
     RDKit          3D

 23 22  0  0  1  0  0  0  0  0999 V2000
    9.6225  -18.5138   27.3128 C   0  0  0  0  0  0  0  0  0  0  0  0
    8.2006  -18.0554   27.3343 C   0  0  2  0  0  0  0  0  0  0  0  0
    7.5775  -18.5548   28.6328 C   0  0  0  0  0  0  0  0  0  0  0  0
    7.3908  -18.5892   26.1765 C   0  0  2  0  0  0  0  0  0  0  0  0
    7.4861  -20.0366   26.2063 N   0  0  0  0  0  0  0  0  0  0  0  0
    7.9872  -18.0574   24.9035 C   0  0  0  0  0  0  0  0  0  0  0  0
    8.8816  -18.6703   24.2736 O   0  0  0  0  0  0  0  0  0  0  0  0
    8.9776  -14.9682   18.6808 N   0  0  0  0  0  0  0  0  0  0  0  0
    8.3021  -13.7193   18.6810 C   0  0  0  0  0  0  0  0  0  0  0  0
    8.8277  -12.7609   17.9811 N   0  0  0  0  0  0  0  0  0  0  0  0
    7.1001  -13.5133   19.4122 N   0  0  0  0  0  0  0  0  0  0  0  0
    7.1956  -13.4402   20.8450 C   0  0  0  0  0  0  0  0  0  0  0  0
    8.0747  -14.5156   21.4262 C   0  0  0  0  0  0  0  0  0  0  0  0
    7.3736  -15.1396   22.6310 C   0  0  0  0  0  0  0  0  0  0  0  0
    8.2105  -16.2438   23.2399 C   0  0  2  0  0  0  0  0  0  0  0  0
    7.5434  -16.8186   24.3686 N   0  0  0  0  0  0  0  0  0  0  0  0
    9.5432  -15.6587   23.6185 C   0  0  0  0  0  0  0  0  0  0  0  0
    9.6496  -14.8303   24.5587 O   0  0  0  0  0  0  0  0  0  0  0  0
    8.4134  -11.8113   17.9318 N   0  0  0  0  0  0  0  0  0  0  0  0
   10.7315  -16.0165   22.9321 C   0  0  0  0  0  0  0  0  0  0  0  0
   12.0390  -15.5177   23.3071 C   0  0  0  0  0  0  0  0  0  0  0  0
   13.0945  -15.9327   22.3833 O   0  0  0  0  0  0  0  0  0  0  0  0
   14.4134  -15.5134   22.4622 O   0  0  0  0  0  0  0  0  0  0  0  0
  2  1  1  6
  2  4  1  0
  3  2  1  0
  4  6  1  0
  4  5  1  6
  6 16  1  0
  6  7  2  0
  9  8  1  0
 10  9  2  0
 11  9  1  0
 12 11  1  0
 13 12  1  0
 14 13  1  0
 15 14  1  1
 16 15  1  0
 17 15  1  0
 18 17  2  0
 19 17  1  0
 20 19  1  0
 21 22  1  0
 21 20  1  0
 23 21  2  0
M  END
$$$$
