VRG.pdb
     RDKit          3D

 23 22  0  0  1  0  0  0  0  0999 V2000
   10.5554  -14.5332   29.9375 C   0  0  0  0  0  0  0  0  0  0  0  0
   10.5402  -14.8998   28.4891 C   0  0  2  0  0  0  0  0  0  0  0  0
   10.4989  -13.6033   27.6885 C   0  0  0  0  0  0  0  0  0  0  0  0
    9.3450  -15.7398   28.1053 C   0  0  2  0  0  0  0  0  0  0  0  0
    9.3206  -16.8935   28.9848 N   0  0  0  0  0  0  0  0  0  0  0  0
    9.5208  -16.1800   26.6790 C   0  0  0  0  0  0  0  0  0  0  0  0
   10.2995  -17.1073   26.3534 O   0  0  0  0  0  0  0  0  0  0  0  0
    6.5656  -12.7931   18.9876 N   0  0  0  0  0  0  0  0  0  0  0  0
    7.6599  -13.6498   18.6967 C   0  0  0  0  0  0  0  0  0  0  0  0
    8.2433  -13.4968   17.5474 N   0  0  0  0  0  0  0  0  0  0  0  0
    8.1081  -14.6377   19.6160 N   0  0  0  0  0  0  0  0  0  0  0  0
    7.9488  -14.3644   21.0185 C   0  0  0  0  0  0  0  0  0  0  0  0
    8.3734  -15.5173   21.8889 C   0  0  0  0  0  0  0  0  0  0  0  0
    8.0925  -15.1725   23.3499 C   0  0  0  0  0  0  0  0  0  0  0  0
    9.1038  -15.8219   24.2698 C   0  0  2  0  0  0  0  0  0  0  0  0
    8.7929  -15.5426   25.6390 N   0  0  0  0  0  0  0  0  0  0  0  0
   10.4671  -15.3112   23.8923 C   0  0  0  0  0  0  0  0  0  0  0  0
   10.8532  -14.1646   24.2354 O   0  0  0  0  0  0  0  0  0  0  0  0
    9.0227  -14.1031   17.2299 N   0  0  0  0  0  0  0  0  0  0  0  0
   11.3705  -16.1001   23.1357 C   0  0  0  0  0  0  0  0  0  0  0  0
   12.6967  -15.6465   22.7689 C   0  0  0  0  0  0  0  0  0  0  0  0
   13.4373  -16.6291   21.9779 O   0  0  0  0  0  0  0  0  0  0  0  0
   14.2142  -16.3192   20.8725 O   0  0  0  0  0  0  0  0  0  0  0  0
  2  1  1  1
  2  4  1  0
  3  2  1  0
  4  6  1  0
  4  5  1  1
  6 16  1  0
  6  7  2  0
  9  8  1  0
 10  9  2  0
 11  9  1  0
 12 11  1  0
 13 12  1  0
 14 13  1  0
 15 14  1  6
 16 15  1  0
 17 15  1  0
 18 17  2  0
 19 17  1  0
 20 19  1  0
 21 22  1  0
 21 20  1  0
 23 21  2  0
M  END
$$$$
