VRG.pdb
     RDKit          3D

 23 22  0  0  1  0  0  0  0  0999 V2000
   11.5296  -14.7815   27.8171 C   0  0  0  0  0  0  0  0  0  0  0  0
   10.0748  -14.4728   27.9623 C   0  0  2  0  0  0  0  0  0  0  0  0
    9.8796  -13.8144   29.3232 C   0  0  0  0  0  0  0  0  0  0  0  0
    9.2007  -15.7027   27.8938 C   0  0  2  0  0  0  0  0  0  0  0  0
    9.8579  -16.7494   28.6537 N   0  0  0  0  0  0  0  0  0  0  0  0
    9.0773  -16.1095   26.4521 C   0  0  0  0  0  0  0  0  0  0  0  0
    9.6445  -17.1282   25.9908 O   0  0  0  0  0  0  0  0  0  0  0  0
    8.3619  -12.4685   19.0615 N   0  0  0  0  0  0  0  0  0  0  0  0
    8.2151  -13.8482   18.7597 C   0  0  0  0  0  0  0  0  0  0  0  0
    8.5631  -14.2352   17.5707 N   0  0  0  0  0  0  0  0  0  0  0  0
    7.7095  -14.7773   19.7100 N   0  0  0  0  0  0  0  0  0  0  0  0
    7.8202  -14.4343   21.1018 C   0  0  0  0  0  0  0  0  0  0  0  0
    7.0577  -15.3752   21.9965 C   0  0  0  0  0  0  0  0  0  0  0  0
    7.1872  -14.9060   23.4440 C   0  0  0  0  0  0  0  0  0  0  0  0
    8.3181  -15.6204   24.1520 C   0  0  2  0  0  0  0  0  0  0  0  0
    8.2972  -15.3330   25.5542 N   0  0  0  0  0  0  0  0  0  0  0  0
    9.6094  -15.1882   23.5135 C   0  0  0  0  0  0  0  0  0  0  0  0
    9.9829  -13.9878   23.5426 O   0  0  0  0  0  0  0  0  0  0  0  0
    8.5392  -15.2293   17.2760 N   0  0  0  0  0  0  0  0  0  0  0  0
   10.4565  -16.1150   22.8542 C   0  0  0  0  0  0  0  0  0  0  0  0
   11.6606  -15.7206   22.1515 C   0  0  0  0  0  0  0  0  0  0  0  0
   12.3921  -16.8566   21.5910 O   0  0  0  0  0  0  0  0  0  0  0  0
   13.5643  -16.7486   20.8589 O   0  0  0  0  0  0  0  0  0  0  0  0
  2  1  1  1
  2  4  1  0
  3  2  1  0
  4  6  1  0
  4  5  1  1
  6 16  1  0
  6  7  2  0
  9  8  1  0
 10  9  2  0
 11  9  1  0
 12 11  1  0
 13 12  1  0
 14 13  1  0
 15 14  1  6
 16 15  1  0
 17 15  1  0
 18 17  2  0
 19 17  1  0
 20 19  1  0
 21 22  1  0
 21 20  1  0
 23 21  2  0
M  END
$$$$
