AIG.pdb
     RDKit          3D

 18 17  0  0  1  0  0  0  0  0999 V2000
   17.3780   -9.8385  -18.0098 C   0  0  0  0  0  0  0  0  0  0  0  0
   18.4760  -10.8715  -17.7669 C   0  0  2  0  0  0  0  0  0  0  0  0
   17.9217  -12.1806  -17.5311 N   0  0  0  0  0  0  0  0  0  0  0  0
   19.1998  -10.4363  -16.5524 C   0  0  0  0  0  0  0  0  0  0  0  0
   18.6948  -10.6920  -15.4331 O   0  0  0  0  0  0  0  0  0  0  0  0
   23.7010  -12.0072  -15.1480 C   0  0  0  0  0  0  0  0  0  0  0  0
   22.3257  -11.4117  -15.1121 C   0  0  0  0  0  0  0  0  0  0  0  0
   22.4734   -9.9037  -15.2897 C   0  0  2  0  0  0  0  0  0  0  0  0
   23.2709   -9.4340  -14.1045 C   0  0  0  0  0  0  0  0  0  0  0  0
   21.1114   -9.2498  -15.3803 C   0  0  2  0  0  0  0  0  0  0  0  0
   20.4464   -9.7393  -16.6153 N   0  0  0  0  0  0  0  0  0  0  0  0
   21.1512   -7.7719  -15.4076 C   0  0  0  0  0  0  0  0  0  0  0  0
   21.8083   -7.1684  -16.3418 O   0  0  0  0  0  0  0  0  0  0  0  0
   20.5257   -6.8987  -14.4949 N   0  0  0  0  0  0  0  0  0  0  0  0
   20.5314   -5.4586  -14.6318 C   0  0  0  0  0  0  0  0  0  0  0  0
   21.7434   -4.8304  -14.1281 C   0  0  0  0  0  0  0  0  0  0  0  0
   22.7256   -5.5913  -13.5307 O   0  0  0  0  0  0  0  0  0  0  0  0
   21.9090   -3.5979  -14.2301 O   0  0  0  0  0  0  0  0  0  0  0  0
  2  1  1  1
  2  3  1  0
  4  5  2  0
  4  2  1  0
  6  7  1  0
  7  8  1  0
  8 10  1  0
  8  9  1  1
 10 12  1  0
 10 11  1  6
 11  4  1  0
 12 14  1  0
 13 12  2  0
 14 15  1  0
 15 16  1  0
 16 18  2  0
 16 17  1  0
M  END
$$$$
