AIG.pdb
     RDKit          3D

 18 17  0  0  1  0  0  0  0  0999 V2000
   22.4264  -18.1035  -14.7920 C   0  0  0  0  0  0  0  0  0  0  0  0
   23.3963  -18.7947  -15.7476 C   0  0  2  0  0  0  0  0  0  0  0  0
   22.6937  -19.5774  -16.7327 N   0  0  0  0  0  0  0  0  0  0  0  0
   24.2235  -19.7015  -14.9221 C   0  0  0  0  0  0  0  0  0  0  0  0
   23.7485  -20.8178  -14.6032 O   0  0  0  0  0  0  0  0  0  0  0  0
   28.2252  -19.3419  -16.2612 C   0  0  0  0  0  0  0  0  0  0  0  0
   28.1092  -20.5485  -15.3793 C   0  0  0  0  0  0  0  0  0  0  0  0
   27.8002  -20.0579  -13.9681 C   0  0  2  0  0  0  0  0  0  0  0  0
   28.7223  -20.8268  -13.0627 C   0  0  0  0  0  0  0  0  0  0  0  0
   26.3381  -20.2773  -13.6443 C   0  0  2  0  0  0  0  0  0  0  0  0
   25.5363  -19.3473  -14.4806 N   0  0  0  0  0  0  0  0  0  0  0  0
   25.9955  -20.0636  -12.2218 C   0  0  0  0  0  0  0  0  0  0  0  0
   25.9554  -18.8623  -11.7486 O   0  0  0  0  0  0  0  0  0  0  0  0
   25.6891  -21.0606  -11.2736 N   0  0  0  0  0  0  0  0  0  0  0  0
   25.4720  -20.7905   -9.8692 C   0  0  0  0  0  0  0  0  0  0  0  0
   24.0718  -20.8386   -9.4764 C   0  0  0  0  0  0  0  0  0  0  0  0
   23.7231  -20.8642   -8.1428 O   0  0  0  0  0  0  0  0  0  0  0  0
   23.1707  -20.8572  -10.3393 O   0  0  0  0  0  0  0  0  0  0  0  0
  2  1  1  1
  2  3  1  0
  4  5  2  0
  4  2  1  0
  6  7  1  0
  7  8  1  0
  8 10  1  0
  8  9  1  1
 10 12  1  0
 10 11  1  6
 11  4  1  0
 12 14  1  0
 13 12  2  0
 14 15  1  0
 15 16  1  0
 16 18  2  0
 16 17  1  0
M  END
$$$$
