AIG.pdb
     RDKit          3D

 18 17  0  0  1  0  0  0  0  0999 V2000
   20.5060  -13.0629  -16.4809 C   0  0  0  0  0  0  0  0  0  0  0  0
   19.1407  -13.7448  -16.4298 C   0  0  2  0  0  0  0  0  0  0  0  0
   18.9100  -14.5456  -17.6054 N   0  0  0  0  0  0  0  0  0  0  0  0
   18.1330  -12.6628  -16.3866 C   0  0  0  0  0  0  0  0  0  0  0  0
   17.9260  -11.9982  -17.4301 O   0  0  0  0  0  0  0  0  0  0  0  0
   14.8195  -14.3226  -14.4303 C   0  0  0  0  0  0  0  0  0  0  0  0
   14.4540  -13.0473  -15.1282 C   0  0  0  0  0  0  0  0  0  0  0  0
   15.1499  -11.9058  -14.3932 C   0  0  2  0  0  0  0  0  0  0  0  0
   14.0786  -10.8844  -14.1277 C   0  0  0  0  0  0  0  0  0  0  0  0
   16.2895  -11.3615  -15.2274 C   0  0  2  0  0  0  0  0  0  0  0  0
   17.3943  -12.3543  -15.2022 N   0  0  0  0  0  0  0  0  0  0  0  0
   16.8052  -10.0545  -14.7665 C   0  0  0  0  0  0  0  0  0  0  0  0
   17.4220   -9.9752  -13.6342 O   0  0  0  0  0  0  0  0  0  0  0  0
   16.7035   -8.8248  -15.4478 N   0  0  0  0  0  0  0  0  0  0  0  0
   17.0117   -7.5468  -14.8442 C   0  0  0  0  0  0  0  0  0  0  0  0
   18.3793   -7.1077  -15.0761 C   0  0  0  0  0  0  0  0  0  0  0  0
   19.2750   -7.9318  -15.7237 O   0  0  0  0  0  0  0  0  0  0  0  0
   18.7584   -5.9824  -14.6930 O   0  0  0  0  0  0  0  0  0  0  0  0
  2  1  1  6
  2  3  1  0
  4  5  2  0
  4  2  1  0
  6  7  1  0
  7  8  1  0
  8 10  1  0
  8  9  1  6
 10 12  1  0
 10 11  1  1
 11  4  1  0
 12 14  1  0
 13 12  2  0
 14 15  1  0
 15 16  1  0
 16 18  2  0
 16 17  1  0
M  END
$$$$
