AIG.pdb
     RDKit          3D

 18 17  0  0  1  0  0  0  0  0999 V2000
   23.1405  -19.9545  -12.7730 C   0  0  0  0  0  0  0  0  0  0  0  0
   24.5786  -20.0307  -12.2657 C   0  0  2  0  0  0  0  0  0  0  0  0
   25.4373  -20.6863  -13.2194 N   0  0  0  0  0  0  0  0  0  0  0  0
   24.5436  -20.8364  -11.0255 C   0  0  0  0  0  0  0  0  0  0  0  0
   24.7108  -22.0763  -11.1147 O   0  0  0  0  0  0  0  0  0  0  0  0
   27.3637  -19.2702   -7.1419 C   0  0  0  0  0  0  0  0  0  0  0  0
   26.6528  -20.2749   -7.9977 C   0  0  0  0  0  0  0  0  0  0  0  0
   25.2194  -20.3815   -7.4863 C   0  0  2  0  0  0  0  0  0  0  0  0
   25.3100  -21.1295   -6.1849 C   0  0  0  0  0  0  0  0  0  0  0  0
   24.3479  -21.0797   -8.5080 C   0  0  2  0  0  0  0  0  0  0  0  0
   24.3270  -20.2498   -9.7400 N   0  0  0  0  0  0  0  0  0  0  0  0
   22.9581  -21.3116   -8.0593 C   0  0  0  0  0  0  0  0  0  0  0  0
   22.0929  -20.3559   -8.1425 O   0  0  0  0  0  0  0  0  0  0  0  0
   22.4364  -22.5087   -7.5288 N   0  0  0  0  0  0  0  0  0  0  0  0
   21.1412  -22.6050   -6.8918 C   0  0  0  0  0  0  0  0  0  0  0  0
   20.0743  -23.0016   -7.7981 C   0  0  0  0  0  0  0  0  0  0  0  0
   20.3087  -23.0889   -9.1539 O   0  0  0  0  0  0  0  0  0  0  0  0
   18.9361  -23.2673   -7.3611 O   0  0  0  0  0  0  0  0  0  0  0  0
  2  1  1  6
  2  3  1  0
  4  5  2  0
  4  2  1  0
  6  7  1  0
  7  8  1  0
  8 10  1  0
  8  9  1  1
 10 12  1  0
 10 11  1  6
 11  4  1  0
 12 14  1  0
 13 12  2  0
 14 15  1  0
 15 16  1  0
 16 18  2  0
 16 17  1  0
M  END
$$$$
