AIG.pdb
     RDKit          3D

 18 17  0  0  1  0  0  0  0  0999 V2000
   20.9734  -11.6192  -19.0907 C   0  0  0  0  0  0  0  0  0  0  0  0
   22.1848  -12.4946  -18.7780 C   0  0  2  0  0  0  0  0  0  0  0  0
   21.8105  -13.8797  -18.6438 N   0  0  0  0  0  0  0  0  0  0  0  0
   22.7222  -12.0201  -17.4840 C   0  0  0  0  0  0  0  0  0  0  0  0
   22.1555  -12.3943  -16.4294 O   0  0  0  0  0  0  0  0  0  0  0  0
   27.9570  -11.9443  -16.4756 C   0  0  0  0  0  0  0  0  0  0  0  0
   26.4768  -12.0745  -16.2768 C   0  0  0  0  0  0  0  0  0  0  0  0
   25.9003  -10.6651  -16.1832 C   0  0  2  0  0  0  0  0  0  0  0  0
   26.5448  -10.0450  -14.9743 C   0  0  0  0  0  0  0  0  0  0  0  0
   24.3911  -10.7208  -16.0832 C   0  0  2  0  0  0  0  0  0  0  0  0
   23.8576  -11.1556  -17.3998 N   0  0  0  0  0  0  0  0  0  0  0  0
   23.7624   -9.4357  -15.7089 C   0  0  0  0  0  0  0  0  0  0  0  0
   23.9570   -8.9504  -14.5277 O   0  0  0  0  0  0  0  0  0  0  0  0
   22.9387   -8.6352  -16.5259 N   0  0  0  0  0  0  0  0  0  0  0  0
   22.4371   -7.3373  -16.1303 C   0  0  0  0  0  0  0  0  0  0  0  0
   21.1384   -7.3893  -15.4763 C   0  0  0  0  0  0  0  0  0  0  0  0
   20.5054   -6.2266  -15.0914 O   0  0  0  0  0  0  0  0  0  0  0  0
   20.5820   -8.4842  -15.2558 O   0  0  0  0  0  0  0  0  0  0  0  0
  2  1  1  1
  2  3  1  0
  4  5  2  0
  4  2  1  0
  6  7  1  0
  7  8  1  0
  8 10  1  0
  8  9  1  1
 10 12  1  0
 10 11  1  6
 11  4  1  0
 12 14  1  0
 13 12  2  0
 14 15  1  0
 15 16  1  0
 16 18  2  0
 16 17  1  0
M  END
$$$$
