AIG.pdb
     RDKit          3D

 18 17  0  0  1  0  0  0  0  0999 V2000
   16.5901   -9.8651  -16.3683 C   0  0  0  0  0  0  0  0  0  0  0  0
   17.6838  -10.9060  -16.5965 C   0  0  2  0  0  0  0  0  0  0  0  0
   17.1709  -12.2453  -16.4557 N   0  0  0  0  0  0  0  0  0  0  0  0
   18.7058  -10.6763  -15.5520 C   0  0  0  0  0  0  0  0  0  0  0  0
   18.4966  -11.1320  -14.4023 O   0  0  0  0  0  0  0  0  0  0  0  0
   23.5983  -12.1476  -16.0296 C   0  0  0  0  0  0  0  0  0  0  0  0
   22.3060  -11.7613  -15.3753 C   0  0  0  0  0  0  0  0  0  0  0  0
   22.2692  -10.2382  -15.2951 C   0  0  2  0  0  0  0  0  0  0  0  0
   23.4281   -9.8522  -14.4181 C   0  0  0  0  0  0  0  0  0  0  0  0
   20.9363   -9.7733  -14.7490 C   0  0  2  0  0  0  0  0  0  0  0  0
   19.9138   -9.9570  -15.8110 N   0  0  0  0  0  0  0  0  0  0  0  0
   20.9235   -8.3623  -14.3065 C   0  0  0  0  0  0  0  0  0  0  0  0
   21.3963   -8.0537  -13.1446 O   0  0  0  0  0  0  0  0  0  0  0  0
   20.4372   -7.2586  -15.0358 N   0  0  0  0  0  0  0  0  0  0  0  0
   20.5448   -5.8890  -14.5828 C   0  0  0  0  0  0  0  0  0  0  0  0
   21.8093   -5.2583  -14.9300 C   0  0  0  0  0  0  0  0  0  0  0  0
   22.0471   -3.9429  -14.5928 O   0  0  0  0  0  0  0  0  0  0  0  0
   22.6926   -5.8982  -15.5359 O   0  0  0  0  0  0  0  0  0  0  0  0
  2  1  1  1
  2  3  1  0
  4  5  2  0
  4  2  1  0
  6  7  1  0
  7  8  1  0
  8 10  1  0
  8  9  1  1
 10 12  1  0
 10 11  1  6
 11  4  1  0
 12 14  1  0
 13 12  2  0
 14 15  1  0
 15 16  1  0
 16 18  2  0
 16 17  1  0
M  END
$$$$
