AIG.pdb
     RDKit          3D

 18 17  0  0  1  0  0  0  0  0999 V2000
   20.9598  -13.1914  -18.7568 C   0  0  0  0  0  0  0  0  0  0  0  0
   21.8239  -14.2853  -18.1337 C   0  0  2  0  0  0  0  0  0  0  0  0
   21.0234  -15.4012  -17.6971 N   0  0  0  0  0  0  0  0  0  0  0  0
   22.4797  -13.6804  -16.9537 C   0  0  0  0  0  0  0  0  0  0  0  0
   21.8345  -13.6167  -15.8799 O   0  0  0  0  0  0  0  0  0  0  0  0
   27.3029  -15.1099  -15.6828 C   0  0  0  0  0  0  0  0  0  0  0  0
   25.8899  -14.6374  -15.5171 C   0  0  0  0  0  0  0  0  0  0  0  0
   25.8829  -13.1267  -15.7296 C   0  0  2  0  0  0  0  0  0  0  0  0
   26.6693  -12.5542  -14.5829 C   0  0  0  0  0  0  0  0  0  0  0  0
   24.4610  -12.6109  -15.7850 C   0  0  2  0  0  0  0  0  0  0  0  0
   23.8146  -13.1709  -16.9997 N   0  0  0  0  0  0  0  0  0  0  0  0
   24.3540  -11.1364  -15.8182 C   0  0  0  0  0  0  0  0  0  0  0  0
   24.8741  -10.4808  -16.8023 O   0  0  0  0  0  0  0  0  0  0  0  0
   23.7191  -10.3194  -14.8610 N   0  0  0  0  0  0  0  0  0  0  0  0
   23.5996   -8.8833  -14.9866 C   0  0  0  0  0  0  0  0  0  0  0  0
   22.2522   -8.4366  -15.3061 C   0  0  0  0  0  0  0  0  0  0  0  0
   21.9338   -7.0960  -15.2611 O   0  0  0  0  0  0  0  0  0  0  0  0
   21.3695   -9.2592  -15.6241 O   0  0  0  0  0  0  0  0  0  0  0  0
  2  1  1  1
  2  3  1  0
  4  5  2  0
  4  2  1  0
  6  7  1  0
  7  8  1  0
  8 10  1  0
  8  9  1  1
 10 12  1  0
 10 11  1  6
 11  4  1  0
 12 14  1  0
 13 12  2  0
 14 15  1  0
 15 16  1  0
 16 18  2  0
 16 17  1  0
M  END
$$$$
