AIG.pdb
     RDKit          3D

 18 17  0  0  1  0  0  0  0  0999 V2000
   17.8489  -13.5872  -17.2138 C   0  0  0  0  0  0  0  0  0  0  0  0
   17.5017  -13.5380  -15.7277 C   0  0  2  0  0  0  0  0  0  0  0  0
   16.2780  -14.2471  -15.4511 N   0  0  0  0  0  0  0  0  0  0  0  0
   17.3107  -12.1108  -15.3887 C   0  0  0  0  0  0  0  0  0  0  0  0
   16.4320  -11.4632  -16.0067 O   0  0  0  0  0  0  0  0  0  0  0  0
   16.1246  -10.3523  -10.7913 C   0  0  0  0  0  0  0  0  0  0  0  0
   16.3013  -10.4811  -12.2744 C   0  0  0  0  0  0  0  0  0  0  0  0
   17.6350   -9.8348  -12.6359 C   0  0  2  0  0  0  0  0  0  0  0  0
   17.5099   -8.3939  -12.2242 C   0  0  0  0  0  0  0  0  0  0  0  0
   17.9168  -10.0033  -14.1134 C   0  0  2  0  0  0  0  0  0  0  0  0
   18.0904  -11.4531  -14.3871 N   0  0  0  0  0  0  0  0  0  0  0  0
   19.1145   -9.2766  -14.5869 C   0  0  0  0  0  0  0  0  0  0  0  0
   20.2711   -9.5569  -14.0844 O   0  0  0  0  0  0  0  0  0  0  0  0
   19.1495   -8.2678  -15.5707 N   0  0  0  0  0  0  0  0  0  0  0  0
   20.3566   -7.5751  -15.9650 C   0  0  0  0  0  0  0  0  0  0  0  0
   20.7116   -6.4745  -15.0820 C   0  0  0  0  0  0  0  0  0  0  0  0
   21.8987   -5.7959  -15.2574 O   0  0  0  0  0  0  0  0  0  0  0  0
   19.9480   -6.1315  -14.1567 O   0  0  0  0  0  0  0  0  0  0  0  0
  2  1  1  6
  2  3  1  0
  4  5  2  0
  4  2  1  0
  6  7  1  0
  7  8  1  0
  8 10  1  0
  8  9  1  6
 10 12  1  0
 10 11  1  1
 11  4  1  0
 12 14  1  0
 13 12  2  0
 14 15  1  0
 15 16  1  0
 16 18  2  0
 16 17  1  0
M  END
$$$$
