AIG.pdb
     RDKit          3D

 18 17  0  0  1  0  0  0  0  0999 V2000
   26.5220  -19.2962  -15.8797 C   0  0  0  0  0  0  0  0  0  0  0  0
   27.4932  -20.3252  -15.3055 C   0  0  2  0  0  0  0  0  0  0  0  0
   27.7630  -21.3774  -16.2524 N   0  0  0  0  0  0  0  0  0  0  0  0
   26.8305  -20.9113  -14.1200 C   0  0  0  0  0  0  0  0  0  0  0  0
   26.0878  -21.9088  -14.2838 O   0  0  0  0  0  0  0  0  0  0  0  0
   29.3985  -20.9928   -9.4907 C   0  0  0  0  0  0  0  0  0  0  0  0
   28.4695  -21.5107  -10.5472 C   0  0  0  0  0  0  0  0  0  0  0  0
   27.1515  -20.7545  -10.4106 C   0  0  2  0  0  0  0  0  0  0  0  0
   26.5125  -21.2809   -9.1552 C   0  0  0  0  0  0  0  0  0  0  0  0
   26.2954  -20.9652  -11.6408 C   0  0  2  0  0  0  0  0  0  0  0  0
   27.0092  -20.3800  -12.8048 N   0  0  0  0  0  0  0  0  0  0  0  0
   24.9477  -20.3633  -11.5495 C   0  0  0  0  0  0  0  0  0  0  0  0
   24.8169  -19.0795  -11.6088 O   0  0  0  0  0  0  0  0  0  0  0  0
   23.7283  -21.0546  -11.4015 N   0  0  0  0  0  0  0  0  0  0  0  0
   22.4425  -20.3989  -11.3045 C   0  0  0  0  0  0  0  0  0  0  0  0
   21.6317  -20.5259  -12.5059 C   0  0  0  0  0  0  0  0  0  0  0  0
   20.3843  -19.9422  -12.5692 O   0  0  0  0  0  0  0  0  0  0  0  0
   22.0537  -21.1632  -13.4921 O   0  0  0  0  0  0  0  0  0  0  0  0
  2  1  1  6
  2  3  1  0
  4  5  2  0
  4  2  1  0
  6  7  1  0
  7  8  1  0
  8 10  1  0
  8  9  1  1
 10 12  1  0
 10 11  1  6
 11  4  1  0
 12 14  1  0
 13 12  2  0
 14 15  1  0
 15 16  1  0
 16 18  2  0
 16 17  1  0
M  END
$$$$
