AIG.pdb
     RDKit          3D

 18 17  0  0  1  0  0  0  0  0999 V2000
   20.2415  -12.0797  -18.8886 C   0  0  0  0  0  0  0  0  0  0  0  0
   19.6741  -13.2975  -18.1629 C   0  0  2  0  0  0  0  0  0  0  0  0
   19.5002  -14.4100  -19.0621 N   0  0  0  0  0  0  0  0  0  0  0  0
   18.3490  -12.8956  -17.6424 C   0  0  0  0  0  0  0  0  0  0  0  0
   17.4424  -12.6231  -18.4652 O   0  0  0  0  0  0  0  0  0  0  0  0
   16.3678  -15.8893  -14.8252 C   0  0  0  0  0  0  0  0  0  0  0  0
   15.8178  -14.7050  -15.5616 C   0  0  0  0  0  0  0  0  0  0  0  0
   16.2339  -13.4536  -14.7946 C   0  0  2  0  0  0  0  0  0  0  0  0
   15.0121  -13.0237  -14.0305 C   0  0  0  0  0  0  0  0  0  0  0  0
   16.7338  -12.3931  -15.7518 C   0  0  2  0  0  0  0  0  0  0  0  0
   18.0729  -12.8093  -16.2424 N   0  0  0  0  0  0  0  0  0  0  0  0
   16.8363  -11.0427  -15.1578 C   0  0  0  0  0  0  0  0  0  0  0  0
   15.7855  -10.4862  -14.6531 O   0  0  0  0  0  0  0  0  0  0  0  0
   17.9995  -10.2516  -15.0682 N   0  0  0  0  0  0  0  0  0  0  0  0
   18.0181   -8.9146  -14.5162 C   0  0  0  0  0  0  0  0  0  0  0  0
   17.5371   -7.8970  -15.4383 C   0  0  0  0  0  0  0  0  0  0  0  0
   17.5269   -6.5694  -15.0667 O   0  0  0  0  0  0  0  0  0  0  0  0
   17.1286   -8.2119  -16.5744 O   0  0  0  0  0  0  0  0  0  0  0  0
  2  1  1  6
  2  3  1  0
  4  5  2  0
  4  2  1  0
  6  7  1  0
  7  8  1  0
  8 10  1  0
  8  9  1  6
 10 12  1  0
 10 11  1  1
 11  4  1  0
 12 14  1  0
 13 12  2  0
 14 15  1  0
 15 16  1  0
 16 18  2  0
 16 17  1  0
M  END
$$$$
