AIG.pdb
     RDKit          3D

 18 17  0  0  1  0  0  0  0  0999 V2000
   21.5967  -21.4093  -14.7395 C   0  0  0  0  0  0  0  0  0  0  0  0
   21.5443  -21.2193  -13.2253 C   0  0  2  0  0  0  0  0  0  0  0  0
   20.4530  -20.3597  -12.8419 N   0  0  0  0  0  0  0  0  0  0  0  0
   22.8172  -20.5719  -12.8397 C   0  0  0  0  0  0  0  0  0  0  0  0
   22.9540  -19.3451  -13.0626 O   0  0  0  0  0  0  0  0  0  0  0  0
   25.0059  -20.4692   -8.0517 C   0  0  0  0  0  0  0  0  0  0  0  0
   24.3990  -20.4781   -9.4224 C   0  0  0  0  0  0  0  0  0  0  0  0
   25.4459  -21.0309  -10.3846 C   0  0  2  0  0  0  0  0  0  0  0  0
   26.7650  -20.5023   -9.8928 C   0  0  0  0  0  0  0  0  0  0  0  0
   25.1322  -20.6054  -11.8028 C   0  0  2  0  0  0  0  0  0  0  0  0
   23.8866  -21.2955  -12.2262 N   0  0  0  0  0  0  0  0  0  0  0  0
   26.2046  -20.9068  -12.7754 C   0  0  0  0  0  0  0  0  0  0  0  0
   26.5177  -22.1361  -13.0194 O   0  0  0  0  0  0  0  0  0  0  0  0
   26.9616  -19.9695  -13.5069 N   0  0  0  0  0  0  0  0  0  0  0  0
   28.0526  -20.3316  -14.3851 C   0  0  0  0  0  0  0  0  0  0  0  0
   27.6592  -20.4604  -15.7801 C   0  0  0  0  0  0  0  0  0  0  0  0
   28.6160  -20.5177  -16.7710 O   0  0  0  0  0  0  0  0  0  0  0  0
   26.4538  -20.5206  -16.0967 O   0  0  0  0  0  0  0  0  0  0  0  0
  2  1  1  6
  2  3  1  0
  4  5  2  0
  4  2  1  0
  6  7  1  0
  7  8  1  0
  8 10  1  0
  8  9  1  1
 10 12  1  0
 10 11  1  6
 11  4  1  0
 12 14  1  0
 13 12  2  0
 14 15  1  0
 15 16  1  0
 16 18  2  0
 16 17  1  0
M  END
$$$$
