AIG.pdb
     RDKit          3D

 18 17  0  0  1  0  0  0  0  0999 V2000
   29.6817   -9.8035  -17.5694 C   0  0  0  0  0  0  0  0  0  0  0  0
   29.3084  -11.2839  -17.5408 C   0  0  2  0  0  0  0  0  0  0  0  0
   29.7081  -11.9492  -18.7550 N   0  0  0  0  0  0  0  0  0  0  0  0
   27.8345  -11.3426  -17.4299 C   0  0  0  0  0  0  0  0  0  0  0  0
   27.1527  -11.2379  -18.4776 O   0  0  0  0  0  0  0  0  0  0  0  0
   26.2123  -15.0826  -14.9351 C   0  0  0  0  0  0  0  0  0  0  0  0
   25.7949  -14.1008  -15.9882 C   0  0  0  0  0  0  0  0  0  0  0  0
   25.3391  -12.8305  -15.2770 C   0  0  2  0  0  0  0  0  0  0  0  0
   23.8585  -12.9927  -15.0704 C   0  0  0  0  0  0  0  0  0  0  0  0
   25.6889  -11.6117  -16.1035 C   0  0  2  0  0  0  0  0  0  0  0  0
   27.1694  -11.5134  -16.1760 N   0  0  0  0  0  0  0  0  0  0  0  0
   25.1471  -10.3436  -15.5694 C   0  0  0  0  0  0  0  0  0  0  0  0
   25.5824   -9.8886  -14.4415 O   0  0  0  0  0  0  0  0  0  0  0  0
   24.1676   -9.5294  -16.1731 N   0  0  0  0  0  0  0  0  0  0  0  0
   23.6278   -8.3364  -15.5582 C   0  0  0  0  0  0  0  0  0  0  0  0
   22.3153   -8.5316  -14.9614 C   0  0  0  0  0  0  0  0  0  0  0  0
   21.7475   -7.5413  -14.1884 O   0  0  0  0  0  0  0  0  0  0  0  0
   21.6881   -9.5952  -15.1410 O   0  0  0  0  0  0  0  0  0  0  0  0
  2  1  1  6
  2  3  1  0
  4  5  2  0
  4  2  1  0
  6  7  1  0
  7  8  1  0
  8 10  1  0
  8  9  1  6
 10 12  1  0
 10 11  1  1
 11  4  1  0
 12 14  1  0
 13 12  2  0
 14 15  1  0
 15 16  1  0
 16 18  2  0
 16 17  1  0
M  END
$$$$
