AIG.pdb
     RDKit          3D

 18 17  0  0  1  0  0  0  0  0999 V2000
   30.5897  -29.5628  -21.7511 C   0  0  0  0  0  0  0  0  0  0  0  0
   29.6652  -30.7432  -21.4623 C   0  0  2  0  0  0  0  0  0  0  0  0
   28.7737  -30.9937  -22.5665 N   0  0  0  0  0  0  0  0  0  0  0  0
   28.8616  -30.3666  -20.2789 C   0  0  0  0  0  0  0  0  0  0  0  0
   27.8190  -29.6920  -20.4558 O   0  0  0  0  0  0  0  0  0  0  0  0
   29.2612  -33.7458  -17.4084 C   0  0  0  0  0  0  0  0  0  0  0  0
   28.0667  -32.8509  -17.2695 C   0  0  0  0  0  0  0  0  0  0  0  0
   28.5594  -31.5050  -16.7468 C   0  0  2  0  0  0  0  0  0  0  0  0
   27.7774  -31.2502  -15.4879 C   0  0  0  0  0  0  0  0  0  0  0  0
   28.3586  -30.4299  -17.7932 C   0  0  2  0  0  0  0  0  0  0  0  0
   29.2339  -30.7449  -18.9515 N   0  0  0  0  0  0  0  0  0  0  0  0
   28.6595  -29.0618  -17.3195 C   0  0  0  0  0  0  0  0  0  0  0  0
   29.8861  -28.7139  -17.1118 O   0  0  0  0  0  0  0  0  0  0  0  0
   27.7247  -28.0400  -17.0573 N   0  0  0  0  0  0  0  0  0  0  0  0
   28.0902  -26.7206  -16.5903 C   0  0  0  0  0  0  0  0  0  0  0  0
   28.4724  -25.8097  -17.6586 C   0  0  0  0  0  0  0  0  0  0  0  0
   28.8538  -24.5170  -17.3683 O   0  0  0  0  0  0  0  0  0  0  0  0
   28.4599  -26.1857  -18.8482 O   0  0  0  0  0  0  0  0  0  0  0  0
  2  1  1  6
  2  3  1  0
  4  5  2  0
  4  2  1  0
  6  7  1  0
  7  8  1  0
  8 10  1  0
  8  9  1  1
 10 12  1  0
 10 11  1  6
 11  4  1  0
 12 14  1  0
 13 12  2  0
 14 15  1  0
 15 16  1  0
 16 18  2  0
 16 17  1  0
M  END
$$$$
