AIG.pdb
     RDKit          3D

 18 17  0  0  1  0  0  0  0  0999 V2000
   25.9273  -19.1197  -16.7085 C   0  0  0  0  0  0  0  0  0  0  0  0
   27.2088  -19.7514  -16.1698 C   0  0  2  0  0  0  0  0  0  0  0  0
   27.7990  -20.6446  -17.1345 N   0  0  0  0  0  0  0  0  0  0  0  0
   26.8211  -20.5320  -14.9746 C   0  0  0  0  0  0  0  0  0  0  0  0
   26.3411  -21.6789  -15.1409 O   0  0  0  0  0  0  0  0  0  0  0  0
   30.1162  -20.9319  -11.0635 C   0  0  0  0  0  0  0  0  0  0  0  0
   29.0153  -21.2895  -12.0161 C   0  0  0  0  0  0  0  0  0  0  0  0
   27.7152  -20.7306  -11.4461 C   0  0  2  0  0  0  0  0  0  0  0  0
   27.4476  -21.5248  -10.1975 C   0  0  0  0  0  0  0  0  0  0  0  0
   26.6030  -20.8439  -12.4665 C   0  0  2  0  0  0  0  0  0  0  0  0
   26.9757  -20.0234  -13.6475 N   0  0  0  0  0  0  0  0  0  0  0  0
   25.2812  -20.4034  -11.9711 C   0  0  0  0  0  0  0  0  0  0  0  0
   25.0854  -19.1560  -11.6983 O   0  0  0  0  0  0  0  0  0  0  0  0
   24.1525  -21.2190  -11.7527 N   0  0  0  0  0  0  0  0  0  0  0  0
   22.8736  -20.7132  -11.3044 C   0  0  0  0  0  0  0  0  0  0  0  0
   21.7958  -20.9270  -12.2582 C   0  0  0  0  0  0  0  0  0  0  0  0
   20.5196  -20.4876  -11.9771 O   0  0  0  0  0  0  0  0  0  0  0  0
   22.0120  -21.5094  -13.3403 O   0  0  0  0  0  0  0  0  0  0  0  0
  2  1  1  6
  2  3  1  0
  4  5  2  0
  4  2  1  0
  6  7  1  0
  7  8  1  0
  8 10  1  0
  8  9  1  1
 10 12  1  0
 10 11  1  6
 11  4  1  0
 12 14  1  0
 13 12  2  0
 14 15  1  0
 15 16  1  0
 16 18  2  0
 16 17  1  0
M  END
$$$$
