PNY.pdb
     RDKit          3D

 28 29  0  0  1  0  0  0  0  0999 V2000
    9.7396  -18.8844   16.1611 N   0  0  0  0  0  0  0  0  0  0  0  0
   10.6899  -19.5119   15.2753 C   0  0  0  0  0  0  0  0  0  0  0  0
   10.6661  -20.9550   15.7261 C   0  0  0  0  0  0  0  0  0  0  0  0
    9.2157  -21.1521   16.1292 C   0  0  0  0  0  0  0  0  0  0  0  0
    8.5999  -19.7598   16.0889 C   0  0  1  0  0  0  0  0  0  0  0  0
    7.7601  -19.5565   17.3466 C   0  0  0  0  0  0  0  0  0  0  0  0
    7.0741  -18.5338   17.4684 O   0  0  0  0  0  0  0  0  0  0  0  0
    5.6446  -21.0369   21.9713 N   0  0  0  0  0  0  0  0  0  0  0  0
    4.9069  -20.5766   20.8526 C   0  0  0  0  0  0  0  0  0  0  0  0
    3.7083  -20.2440   21.1010 O   0  0  0  0  0  0  0  0  0  0  0  0
    5.5830  -20.5346   19.5769 C   0  0  0  0  0  0  0  0  0  0  0  0
    7.0748  -20.6551   19.5418 C   0  0  2  0  0  0  0  0  0  0  0  0
    7.7750  -20.5286   18.3454 N   0  0  0  0  0  0  0  0  0  0  0  0
    7.4706  -21.7202   20.4686 C   0  0  0  0  0  0  0  0  0  0  0  0
    7.4923  -22.9426   20.0555 O   0  0  0  0  0  0  0  0  0  0  0  0
   15.5720  -21.5190   22.6517 O   0  0  0  0  0  0  0  0  0  0  0  0
   14.2135  -21.3051   22.3611 C   0  0  0  0  0  0  0  0  0  0  0  0
   13.5362  -20.2279   22.8842 C   0  0  0  0  0  0  0  0  0  0  0  0
   12.2005  -20.0076   22.6054 C   0  0  0  0  0  0  0  0  0  0  0  0
   11.5389  -20.9024   21.7767 C   0  0  0  0  0  0  0  0  0  0  0  0
   10.1128  -20.7294   21.4350 C   0  0  0  0  0  0  0  0  0  0  0  0
    9.2595  -21.6349   22.2735 C   0  0  2  0  0  0  0  0  0  0  0  0
    7.8514  -21.5623   21.8231 N   0  0  0  0  0  0  0  0  0  0  0  0
    9.3498  -21.4202   23.7222 C   0  0  0  0  0  0  0  0  0  0  0  0
   10.4042  -21.9887   24.4322 O   0  0  0  0  0  0  0  0  0  0  0  0
   12.1847  -22.0075   21.2247 C   0  0  0  0  0  0  0  0  0  0  0  0
   13.5154  -22.1645   21.5452 C   0  0  0  0  0  0  0  0  0  0  0  0
    8.5302  -20.7471   24.3835 O   0  0  0  0  0  0  0  0  0  0  0  0
  2  1  1  0
  3  2  1  0
  4  3  1  0
  4  5  1  0
  5  1  1  0
  5  6  1  1
  6  7  2  0
  8  9  1  0
  9 11  1  0
 10  9  2  0
 12 11  1  6
 13  6  1  0
 13 12  1  0
 14 12  1  0
 14 15  2  0
 16 17  1  0
 17 18  2  0
 18 19  1  0
 20 19  2  0
 20 21  1  0
 22 21  1  6
 22 23  1  0
 22 24  1  0
 23 14  1  0
 24 25  1  0
 26 20  1  0
 27 17  1  0
 27 26  2  0
 28 24  2  0
M  END
$$$$
