PNY.pdb
     RDKit          3D

 28 29  0  0  1  0  0  0  0  0999 V2000
    8.6380  -14.7557   19.3104 N   0  0  0  0  0  0  0  0  0  0  0  0
    8.6698  -13.9907   18.0876 C   0  0  0  0  0  0  0  0  0  0  0  0
    7.4395  -13.1195   18.2052 C   0  0  0  0  0  0  0  0  0  0  0  0
    7.3726  -12.8405   19.6961 C   0  0  0  0  0  0  0  0  0  0  0  0
    8.4233  -13.7509   20.3177 C   0  0  1  0  0  0  0  0  0  0  0  0
    7.8237  -14.4266   21.5474 C   0  0  0  0  0  0  0  0  0  0  0  0
    7.4484  -13.7382   22.5048 O   0  0  0  0  0  0  0  0  0  0  0  0
    6.7423  -20.2235   23.4165 N   0  0  0  0  0  0  0  0  0  0  0  0
    6.2338  -18.9150   23.2246 C   0  0  0  0  0  0  0  0  0  0  0  0
    5.2649  -18.6002   23.9803 O   0  0  0  0  0  0  0  0  0  0  0  0
    6.8595  -18.0961   22.2126 C   0  0  0  0  0  0  0  0  0  0  0  0
    7.2679  -16.6983   22.5602 C   0  0  2  0  0  0  0  0  0  0  0  0
    7.7047  -15.8150   21.5771 N   0  0  0  0  0  0  0  0  0  0  0  0
    7.9960  -16.7365   23.8325 C   0  0  0  0  0  0  0  0  0  0  0  0
    9.2831  -16.8288   23.8223 O   0  0  0  0  0  0  0  0  0  0  0  0
    6.8861  -10.4426   25.7621 O   0  0  0  0  0  0  0  0  0  0  0  0
    7.0697  -11.7742   26.1730 C   0  0  0  0  0  0  0  0  0  0  0  0
    8.3213  -12.2577   26.4772 C   0  0  0  0  0  0  0  0  0  0  0  0
    8.5138  -13.5650   26.8821 C   0  0  0  0  0  0  0  0  0  0  0  0
    7.4094  -14.3993   26.9798 C   0  0  0  0  0  0  0  0  0  0  0  0
    7.5398  -15.8068   27.4069 C   0  0  0  0  0  0  0  0  0  0  0  0
    8.2541  -16.6083   26.3587 C   0  0  2  0  0  0  0  0  0  0  0  0
    7.4321  -16.6796   25.1299 N   0  0  0  0  0  0  0  0  0  0  0  0
    8.6791  -17.9497   26.7743 C   0  0  0  0  0  0  0  0  0  0  0  0
    9.7024  -18.0827   27.7093 O   0  0  0  0  0  0  0  0  0  0  0  0
    6.1231  -13.9528   26.6815 C   0  0  0  0  0  0  0  0  0  0  0  0
    6.0058  -12.6386   26.2846 C   0  0  0  0  0  0  0  0  0  0  0  0
    8.1778  -19.0095   26.3408 O   0  0  0  0  0  0  0  0  0  0  0  0
  2  1  1  0
  3  2  1  0
  4  3  1  0
  4  5  1  0
  5  1  1  0
  5  6  1  1
  6  7  2  0
  8  9  1  0
  9 11  1  0
 10  9  2  0
 12 11  1  6
 13  6  1  0
 13 12  1  0
 14 12  1  0
 14 15  2  0
 16 17  1  0
 17 18  2  0
 18 19  1  0
 20 19  2  0
 20 21  1  0
 22 21  1  1
 22 23  1  0
 22 24  1  0
 23 14  1  0
 24 25  1  0
 26 20  1  0
 27 17  1  0
 27 26  2  0
 28 24  2  0
M  END
$$$$
