PNY.pdb
     RDKit          3D

 28 29  0  0  1  0  0  0  0  0999 V2000
    9.3113  -14.6273   18.6537 N   0  0  0  0  0  0  0  0  0  0  0  0
    9.0516  -13.8184   17.4877 C   0  0  0  0  0  0  0  0  0  0  0  0
    7.6162  -13.3883   17.6910 C   0  0  0  0  0  0  0  0  0  0  0  0
    7.5266  -13.2360   19.1989 C   0  0  0  0  0  0  0  0  0  0  0  0
    8.8342  -13.8047   19.7336 C   0  0  1  0  0  0  0  0  0  0  0  0
    8.5275  -14.7085   20.9241 C   0  0  0  0  0  0  0  0  0  0  0  0
    7.8892  -14.2621   21.8857 O   0  0  0  0  0  0  0  0  0  0  0  0
    8.7299  -19.2668   18.9897 N   0  0  0  0  0  0  0  0  0  0  0  0
    7.9594  -18.7023   20.0363 C   0  0  0  0  0  0  0  0  0  0  0  0
    6.7546  -18.4437   19.7356 O   0  0  0  0  0  0  0  0  0  0  0  0
    8.6125  -18.4874   21.3066 C   0  0  0  0  0  0  0  0  0  0  0  0
    8.7922  -17.0862   21.8025 C   0  0  2  0  0  0  0  0  0  0  0  0
    8.9705  -16.0299   20.9136 N   0  0  0  0  0  0  0  0  0  0  0  0
    9.6286  -17.1296   23.0061 C   0  0  0  0  0  0  0  0  0  0  0  0
    9.7870  -18.2501   23.6264 O   0  0  0  0  0  0  0  0  0  0  0  0
    6.2910  -11.0193   27.9952 O   0  0  0  0  0  0  0  0  0  0  0  0
    6.8849  -11.8480   27.0277 C   0  0  0  0  0  0  0  0  0  0  0  0
    8.2520  -11.9068   26.8852 C   0  0  0  0  0  0  0  0  0  0  0  0
    8.8470  -12.7179   25.9374 C   0  0  0  0  0  0  0  0  0  0  0  0
    8.0341  -13.4861   25.1162 C   0  0  0  0  0  0  0  0  0  0  0  0
    8.6003  -14.3760   24.0828 C   0  0  0  0  0  0  0  0  0  0  0  0
    9.7207  -15.1948   24.6532 C   0  0  2  0  0  0  0  0  0  0  0  0
   10.3167  -16.0418   23.5957 N   0  0  0  0  0  0  0  0  0  0  0  0
    9.3741  -16.0029   25.8277 C   0  0  0  0  0  0  0  0  0  0  0  0
    9.9794  -15.7248   27.0506 O   0  0  0  0  0  0  0  0  0  0  0  0
    6.6447  -13.4582   25.2247 C   0  0  0  0  0  0  0  0  0  0  0  0
    6.1207  -12.6275   26.1910 C   0  0  0  0  0  0  0  0  0  0  0  0
    8.5543  -16.9463   25.8123 O   0  0  0  0  0  0  0  0  0  0  0  0
  2  1  1  0
  3  2  1  0
  4  3  1  0
  4  5  1  0
  5  1  1  0
  5  6  1  1
  6  7  2  0
  8  9  1  0
  9 11  1  0
 10  9  2  0
 12 11  1  6
 13  6  1  0
 13 12  1  0
 14 12  1  0
 14 15  2  0
 16 17  1  0
 17 18  2  0
 18 19  1  0
 20 19  2  0
 20 21  1  0
 22 21  1  6
 22 23  1  0
 22 24  1  0
 23 14  1  0
 24 25  1  0
 26 20  1  0
 27 17  1  0
 27 26  2  0
 28 24  2  0
M  END
$$$$
