PNY.pdb
     RDKit          3D

 28 29  0  0  1  0  0  0  0  0999 V2000
    8.8139  -14.7491   18.0262 N   0  0  0  0  0  0  0  0  0  0  0  0
    8.1784  -13.9541   17.0036 C   0  0  0  0  0  0  0  0  0  0  0  0
    7.0495  -13.2837   17.7535 C   0  0  0  0  0  0  0  0  0  0  0  0
    7.6523  -13.0601   19.1289 C   0  0  0  0  0  0  0  0  0  0  0  0
    8.9735  -13.8173   19.1109 C   0  0  1  0  0  0  0  0  0  0  0  0
    9.1038  -14.6105   20.4078 C   0  0  0  0  0  0  0  0  0  0  0  0
    9.1663  -14.0129   21.4897 O   0  0  0  0  0  0  0  0  0  0  0  0
    8.5627  -20.3517   22.0142 N   0  0  0  0  0  0  0  0  0  0  0  0
    9.6046  -19.3917   22.0346 C   0  0  0  0  0  0  0  0  0  0  0  0
   10.4340  -19.5209   22.9855 O   0  0  0  0  0  0  0  0  0  0  0  0
    9.6125  -18.3911   20.9929 C   0  0  0  0  0  0  0  0  0  0  0  0
    9.2909  -16.9724   21.3468 C   0  0  2  0  0  0  0  0  0  0  0  0
    9.1501  -16.0026   20.3582 N   0  0  0  0  0  0  0  0  0  0  0  0
   10.0346  -16.6230   22.5613 C   0  0  0  0  0  0  0  0  0  0  0  0
   11.1141  -15.9229   22.4627 O   0  0  0  0  0  0  0  0  0  0  0  0
    6.3968  -11.2800   28.0636 O   0  0  0  0  0  0  0  0  0  0  0  0
    6.8553  -12.2294   27.1341 C   0  0  0  0  0  0  0  0  0  0  0  0
    8.1792  -12.2783   26.7628 C   0  0  0  0  0  0  0  0  0  0  0  0
    8.6412  -13.2073   25.8498 C   0  0  0  0  0  0  0  0  0  0  0  0
    7.7374  -14.1065   25.3022 C   0  0  0  0  0  0  0  0  0  0  0  0
    8.1603  -15.1268   24.3221 C   0  0  0  0  0  0  0  0  0  0  0  0
    9.2523  -15.9820   24.8942 C   0  0  2  0  0  0  0  0  0  0  0  0
    9.6948  -16.9752   23.8899 N   0  0  0  0  0  0  0  0  0  0  0  0
    8.9340  -16.6405   26.1661 C   0  0  0  0  0  0  0  0  0  0  0  0
    9.4125  -16.0964   27.3552 O   0  0  0  0  0  0  0  0  0  0  0  0
    6.3873  -14.0937   25.6487 C   0  0  0  0  0  0  0  0  0  0  0  0
    5.9974  -13.1409   26.5643 C   0  0  0  0  0  0  0  0  0  0  0  0
    8.2470  -17.6801   26.2646 O   0  0  0  0  0  0  0  0  0  0  0  0
  2  1  1  0
  3  2  1  0
  4  3  1  0
  4  5  1  0
  5  1  1  0
  5  6  1  1
  6  7  2  0
  8  9  1  0
  9 11  1  0
 10  9  2  0
 12 11  1  6
 13  6  1  0
 13 12  1  0
 14 12  1  0
 14 15  2  0
 16 17  1  0
 17 18  2  0
 18 19  1  0
 20 19  2  0
 20 21  1  0
 22 21  1  6
 22 23  1  0
 22 24  1  0
 23 14  1  0
 24 25  1  0
 26 20  1  0
 27 17  1  0
 27 26  2  0
 28 24  2  0
M  END
$$$$
