PNY.pdb
     RDKit          3D

 28 29  0  0  1  0  0  0  0  0999 V2000
    8.7255  -14.5755   17.6942 N   0  0  0  0  0  0  0  0  0  0  0  0
    8.1714  -13.7636   16.6382 C   0  0  0  0  0  0  0  0  0  0  0  0
    6.9459  -13.1605   17.2870 C   0  0  0  0  0  0  0  0  0  0  0  0
    7.3927  -12.9698   18.7254 C   0  0  0  0  0  0  0  0  0  0  0  0
    8.7358  -13.6811   18.8214 C   0  0  1  0  0  0  0  0  0  0  0  0
    8.7592  -14.5187   20.0966 C   0  0  0  0  0  0  0  0  0  0  0  0
    8.5197  -13.9844   21.1868 O   0  0  0  0  0  0  0  0  0  0  0  0
    9.7050  -19.2133   18.3518 N   0  0  0  0  0  0  0  0  0  0  0  0
    8.8524  -18.8661   19.4289 C   0  0  0  0  0  0  0  0  0  0  0  0
    7.6217  -19.1064   19.2375 O   0  0  0  0  0  0  0  0  0  0  0  0
    9.4615  -18.2894   20.6049 C   0  0  0  0  0  0  0  0  0  0  0  0
    9.1215  -16.8810   20.9819 C   0  0  2  0  0  0  0  0  0  0  0  0
    9.0499  -15.8795   20.0177 N   0  0  0  0  0  0  0  0  0  0  0  0
    9.7837  -16.5743   22.2537 C   0  0  0  0  0  0  0  0  0  0  0  0
   11.0392  -16.2763   22.2575 O   0  0  0  0  0  0  0  0  0  0  0  0
   11.1055  -14.5266   30.7863 O   0  0  0  0  0  0  0  0  0  0  0  0
   10.5936  -14.7245   29.4924 C   0  0  0  0  0  0  0  0  0  0  0  0
   10.5713  -15.9758   28.9209 C   0  0  0  0  0  0  0  0  0  0  0  0
   10.0705  -16.1823   27.6494 C   0  0  0  0  0  0  0  0  0  0  0  0
    9.5815  -15.0925   26.9433 C   0  0  0  0  0  0  0  0  0  0  0  0
    9.0306  -15.2387   25.5811 C   0  0  0  0  0  0  0  0  0  0  0  0
    9.9066  -16.1337   24.7549 C   0  0  2  0  0  0  0  0  0  0  0  0
    9.1843  -16.5628   23.5363 N   0  0  0  0  0  0  0  0  0  0  0  0
   10.4638  -17.2934   25.4602 C   0  0  0  0  0  0  0  0  0  0  0  0
   11.6381  -17.1467   26.1941 O   0  0  0  0  0  0  0  0  0  0  0  0
    9.5843  -13.8070   27.4822 C   0  0  0  0  0  0  0  0  0  0  0  0
   10.0981  -13.6754   28.7538 C   0  0  0  0  0  0  0  0  0  0  0  0
    9.9494  -18.4325   25.4518 O   0  0  0  0  0  0  0  0  0  0  0  0
  2  1  1  0
  3  2  1  0
  4  3  1  0
  4  5  1  0
  5  1  1  0
  5  6  1  1
  6  7  2  0
  8  9  1  0
  9 11  1  0
 10  9  2  0
 12 11  1  6
 13  6  1  0
 13 12  1  0
 14 12  1  0
 14 15  2  0
 16 17  1  0
 17 18  2  0
 18 19  1  0
 20 19  2  0
 20 21  1  0
 22 21  1  1
 22 23  1  0
 22 24  1  0
 23 14  1  0
 24 25  1  0
 26 20  1  0
 27 17  1  0
 27 26  2  0
 28 24  2  0
M  END
$$$$
