PNY.pdb
     RDKit          3D

 28 29  0  0  1  0  0  0  0  0999 V2000
    8.5520  -15.0796   18.8503 N   0  0  0  0  0  0  0  0  0  0  0  0
    8.6250  -14.2968   17.6407 C   0  0  0  0  0  0  0  0  0  0  0  0
    7.7196  -13.1246   17.9448 C   0  0  0  0  0  0  0  0  0  0  0  0
    7.9453  -12.9086   19.4306 C   0  0  0  0  0  0  0  0  0  0  0  0
    8.7737  -14.1033   19.8839 C   0  0  1  0  0  0  0  0  0  0  0  0
    8.1879  -14.6430   21.1854 C   0  0  0  0  0  0  0  0  0  0  0  0
    8.1852  -13.9327   22.1988 O   0  0  0  0  0  0  0  0  0  0  0  0
    6.3816  -19.8735   23.7032 N   0  0  0  0  0  0  0  0  0  0  0  0
    5.8480  -18.7691   22.9938 C   0  0  0  0  0  0  0  0  0  0  0  0
    4.6487  -18.4746   23.2836 O   0  0  0  0  0  0  0  0  0  0  0  0
    6.7073  -18.1095   22.0383 C   0  0  0  0  0  0  0  0  0  0  0  0
    6.9937  -16.6497   22.2063 C   0  0  2  0  0  0  0  0  0  0  0  0
    7.6607  -15.9328   21.2170 N   0  0  0  0  0  0  0  0  0  0  0  0
    7.3654  -16.4135   23.6050 C   0  0  0  0  0  0  0  0  0  0  0  0
    6.4652  -16.0181   24.4407 O   0  0  0  0  0  0  0  0  0  0  0  0
    6.3296  -10.4869   26.6159 O   0  0  0  0  0  0  0  0  0  0  0  0
    6.6907  -11.8436   26.5475 C   0  0  0  0  0  0  0  0  0  0  0  0
    8.0110  -12.2296   26.5754 C   0  0  0  0  0  0  0  0  0  0  0  0
    8.3778  -13.5604   26.5087 C   0  0  0  0  0  0  0  0  0  0  0  0
    7.3803  -14.5200   26.4114 C   0  0  0  0  0  0  0  0  0  0  0  0
    7.6983  -15.9601   26.3373 C   0  0  0  0  0  0  0  0  0  0  0  0
    8.9667  -16.1776   25.5659 C   0  0  2  0  0  0  0  0  0  0  0  0
    8.6507  -16.5763   24.1759 N   0  0  0  0  0  0  0  0  0  0  0  0
    9.9163  -17.1190   26.1699 C   0  0  0  0  0  0  0  0  0  0  0  0
   10.4823  -18.1178   25.3818 O   0  0  0  0  0  0  0  0  0  0  0  0
    6.0301  -14.1752   26.3796 C   0  0  0  0  0  0  0  0  0  0  0  0
    5.7379  -12.8306   26.4502 C   0  0  0  0  0  0  0  0  0  0  0  0
   10.2646  -17.0903   27.3699 O   0  0  0  0  0  0  0  0  0  0  0  0
  2  1  1  0
  3  2  1  0
  4  3  1  0
  4  5  1  0
  5  1  1  0
  5  6  1  1
  6  7  2  0
  8  9  1  0
  9 11  1  0
 10  9  2  0
 12 11  1  6
 13  6  1  0
 13 12  1  0
 14 12  1  0
 14 15  2  0
 16 17  1  0
 17 18  2  0
 18 19  1  0
 20 19  2  0
 20 21  1  0
 22 21  1  1
 22 23  1  0
 22 24  1  0
 23 14  1  0
 24 25  1  0
 26 20  1  0
 27 17  1  0
 27 26  2  0
 28 24  2  0
M  END
$$$$
