PNY.pdb
     RDKit          3D

 28 29  0  0  1  0  0  0  0  0999 V2000
    9.2084  -13.7150   19.6363 N   0  0  0  0  0  0  0  0  0  0  0  0
    8.8098  -13.0042   18.4458 C   0  0  0  0  0  0  0  0  0  0  0  0
    7.4391  -13.5743   18.1582 C   0  0  0  0  0  0  0  0  0  0  0  0
    6.8848  -13.8220   19.5498 C   0  0  0  0  0  0  0  0  0  0  0  0
    8.0584  -13.5882   20.4917 C   0  0  1  0  0  0  0  0  0  0  0  0
    8.0985  -14.7170   21.5176 C   0  0  0  0  0  0  0  0  0  0  0  0
    7.1128  -14.9305   22.2348 O   0  0  0  0  0  0  0  0  0  0  0  0
   10.0743  -19.8373   22.7277 N   0  0  0  0  0  0  0  0  0  0  0  0
   10.8726  -18.6858   22.9387 C   0  0  0  0  0  0  0  0  0  0  0  0
   11.7257  -18.7886   23.8718 O   0  0  0  0  0  0  0  0  0  0  0  0
   10.6366  -17.5432   22.0872 C   0  0  0  0  0  0  0  0  0  0  0  0
    9.5833  -16.5531   22.4766 C   0  0  2  0  0  0  0  0  0  0  0  0
    9.2478  -15.4969   21.6343 N   0  0  0  0  0  0  0  0  0  0  0  0
    9.7174  -16.2815   23.9113 C   0  0  0  0  0  0  0  0  0  0  0  0
   10.5700  -15.3992   24.3112 O   0  0  0  0  0  0  0  0  0  0  0  0
    6.1671  -10.9395   25.8844 O   0  0  0  0  0  0  0  0  0  0  0  0
    6.5514  -12.2664   26.1439 C   0  0  0  0  0  0  0  0  0  0  0  0
    5.8451  -13.3256   25.6223 C   0  0  0  0  0  0  0  0  0  0  0  0
    6.2137  -14.6342   25.8707 C   0  0  0  0  0  0  0  0  0  0  0  0
    7.3249  -14.8713   26.6672 C   0  0  0  0  0  0  0  0  0  0  0  0
    7.7772  -16.2431   26.9737 C   0  0  0  0  0  0  0  0  0  0  0  0
    9.1304  -16.4944   26.3760 C   0  0  2  0  0  0  0  0  0  0  0  0
    8.9898  -16.8966   24.9586 N   0  0  0  0  0  0  0  0  0  0  0  0
    9.9709  -17.4521   27.1036 C   0  0  0  0  0  0  0  0  0  0  0  0
   10.4754  -18.5640   26.4340 O   0  0  0  0  0  0  0  0  0  0  0  0
    8.0702  -13.8295   27.2169 C   0  0  0  0  0  0  0  0  0  0  0  0
    7.6454  -12.5512   26.9274 C   0  0  0  0  0  0  0  0  0  0  0  0
   10.2763  -17.3411   28.3105 O   0  0  0  0  0  0  0  0  0  0  0  0
  2  1  1  0
  3  2  1  0
  4  3  1  0
  4  5  1  0
  5  1  1  0
  5  6  1  1
  6  7  2  0
  8  9  1  0
  9 11  1  0
 10  9  2  0
 12 11  1  6
 13  6  1  0
 13 12  1  0
 14 12  1  0
 14 15  2  0
 16 17  1  0
 17 18  2  0
 18 19  1  0
 20 19  2  0
 20 21  1  0
 22 21  1  1
 22 23  1  0
 22 24  1  0
 23 14  1  0
 24 25  1  0
 26 20  1  0
 27 17  1  0
 27 26  2  0
 28 24  2  0
M  END
$$$$
