PNY.pdb
     RDKit          3D

 28 29  0  0  1  0  0  0  0  0999 V2000
    9.2278  -14.4443   17.9388 N   0  0  0  0  0  0  0  0  0  0  0  0
    8.5868  -13.7523   16.8471 C   0  0  0  0  0  0  0  0  0  0  0  0
    7.1677  -13.5867   17.3423 C   0  0  0  0  0  0  0  0  0  0  0  0
    7.3593  -13.3840   18.8347 C   0  0  0  0  0  0  0  0  0  0  0  0
    8.8323  -13.6752   19.0888 C   0  0  1  0  0  0  0  0  0  0  0  0
    8.9524  -14.5641   20.3232 C   0  0  0  0  0  0  0  0  0  0  0  0
    8.4492  -14.2001   21.3936 O   0  0  0  0  0  0  0  0  0  0  0  0
   12.2307  -19.7567   21.6498 N   0  0  0  0  0  0  0  0  0  0  0  0
   11.1069  -18.9091   21.8124 C   0  0  0  0  0  0  0  0  0  0  0  0
   10.3193  -19.2373   22.7510 O   0  0  0  0  0  0  0  0  0  0  0  0
   10.9809  -17.7857   20.9134 C   0  0  0  0  0  0  0  0  0  0  0  0
    9.9089  -16.7713   21.1651 C   0  0  2  0  0  0  0  0  0  0  0  0
    9.6286  -15.7793   20.2297 N   0  0  0  0  0  0  0  0  0  0  0  0
    9.9563  -16.3963   22.5819 C   0  0  0  0  0  0  0  0  0  0  0  0
   10.9901  -15.7723   23.0369 O   0  0  0  0  0  0  0  0  0  0  0  0
    6.1554  -11.2150   28.3678 O   0  0  0  0  0  0  0  0  0  0  0  0
    6.4906  -12.1080   27.3354 C   0  0  0  0  0  0  0  0  0  0  0  0
    5.8477  -13.3175   27.2056 C   0  0  0  0  0  0  0  0  0  0  0  0
    6.1689  -14.2033   26.1946 C   0  0  0  0  0  0  0  0  0  0  0  0
    7.1658  -13.8519   25.2956 C   0  0  0  0  0  0  0  0  0  0  0  0
    7.5604  -14.7481   24.1904 C   0  0  0  0  0  0  0  0  0  0  0  0
    8.6394  -15.6893   24.6388 C   0  0  2  0  0  0  0  0  0  0  0  0
    8.9584  -16.6454   23.5549 N   0  0  0  0  0  0  0  0  0  0  0  0
    8.3709  -16.4016   25.8932 C   0  0  0  0  0  0  0  0  0  0  0  0
    7.9685  -17.7340   25.8491 O   0  0  0  0  0  0  0  0  0  0  0  0
    7.8438  -12.6376   25.3887 C   0  0  0  0  0  0  0  0  0  0  0  0
    7.4716  -11.8040   26.4206 C   0  0  0  0  0  0  0  0  0  0  0  0
    8.4798  -15.8886   27.0277 O   0  0  0  0  0  0  0  0  0  0  0  0
  2  1  1  0
  3  2  1  0
  4  3  1  0
  4  5  1  0
  5  1  1  0
  5  6  1  1
  6  7  2  0
  8  9  1  0
  9 11  1  0
 10  9  2  0
 12 11  1  6
 13  6  1  0
 13 12  1  0
 14 12  1  0
 14 15  2  0
 16 17  1  0
 17 18  2  0
 18 19  1  0
 20 19  2  0
 20 21  1  0
 22 21  1  6
 22 23  1  0
 22 24  1  0
 23 14  1  0
 24 25  1  0
 26 20  1  0
 27 17  1  0
 27 26  2  0
 28 24  2  0
M  END
$$$$
