PNY.pdb
     RDKit          3D

 28 29  0  0  1  0  0  0  0  0999 V2000
    9.1746  -13.6779   19.9074 N   0  0  0  0  0  0  0  0  0  0  0  0
    9.4375  -12.9151   18.7114 C   0  0  0  0  0  0  0  0  0  0  0  0
    8.8593  -13.7900   17.6220 C   0  0  0  0  0  0  0  0  0  0  0  0
    7.6576  -14.4183   18.3047 C   0  0  0  0  0  0  0  0  0  0  0  0
    7.7857  -14.0285   19.7713 C   0  0  1  0  0  0  0  0  0  0  0  0
    7.5162  -15.2587   20.6329 C   0  0  0  0  0  0  0  0  0  0  0  0
    6.5286  -15.9672   20.4001 O   0  0  0  0  0  0  0  0  0  0  0  0
    9.6507  -19.7883   21.7780 N   0  0  0  0  0  0  0  0  0  0  0  0
   10.4539  -18.7449   21.2548 C   0  0  0  0  0  0  0  0  0  0  0  0
   11.6875  -19.0202   21.1475 O   0  0  0  0  0  0  0  0  0  0  0  0
    9.7975  -17.5065   20.9056 C   0  0  0  0  0  0  0  0  0  0  0  0
    9.1112  -16.7208   21.9795 C   0  0  2  0  0  0  0  0  0  0  0  0
    8.3886  -15.5710   21.6740 N   0  0  0  0  0  0  0  0  0  0  0  0
    9.9808  -16.7013   23.1600 C   0  0  0  0  0  0  0  0  0  0  0  0
   10.4093  -17.8162   23.6486 O   0  0  0  0  0  0  0  0  0  0  0  0
    5.5736  -11.6384   28.4917 O   0  0  0  0  0  0  0  0  0  0  0  0
    6.2740  -12.2965   27.4661 C   0  0  0  0  0  0  0  0  0  0  0  0
    5.7771  -13.4419   26.8882 C   0  0  0  0  0  0  0  0  0  0  0  0
    6.4571  -14.0975   25.8792 C   0  0  0  0  0  0  0  0  0  0  0  0
    7.6690  -13.5770   25.4483 C   0  0  0  0  0  0  0  0  0  0  0  0
    8.4493  -14.2237   24.3743 C   0  0  0  0  0  0  0  0  0  0  0  0
    9.6483  -14.9219   24.9455 C   0  0  2  0  0  0  0  0  0  0  0  0
   10.4294  -15.5549   23.8592 N   0  0  0  0  0  0  0  0  0  0  0  0
    9.3636  -15.8915   26.0093 C   0  0  0  0  0  0  0  0  0  0  0  0
    9.6607  -15.5633   27.3296 O   0  0  0  0  0  0  0  0  0  0  0  0
    8.2107  -12.4196   26.0049 C   0  0  0  0  0  0  0  0  0  0  0  0
    7.4788  -11.8189   27.0058 C   0  0  0  0  0  0  0  0  0  0  0  0
    8.8608  -17.0189   25.8139 O   0  0  0  0  0  0  0  0  0  0  0  0
  2  1  1  0
  3  2  1  0
  4  3  1  0
  4  5  1  0
  5  1  1  0
  5  6  1  1
  6  7  2  0
  8  9  1  0
  9 11  1  0
 10  9  2  0
 12 11  1  6
 13  6  1  0
 13 12  1  0
 14 12  1  0
 14 15  2  0
 16 17  1  0
 17 18  2  0
 18 19  1  0
 20 19  2  0
 20 21  1  0
 22 21  1  6
 22 23  1  0
 22 24  1  0
 23 14  1  0
 24 25  1  0
 26 20  1  0
 27 17  1  0
 27 26  2  0
 28 24  2  0
M  END
$$$$
