PNY.pdb
     RDKit          3D

 28 29  0  0  1  0  0  0  0  0999 V2000
    7.5739  -15.0151   18.3895 N   0  0  0  0  0  0  0  0  0  0  0  0
    7.7016  -14.1420   17.2482 C   0  0  0  0  0  0  0  0  0  0  0  0
    7.6280  -12.7654   17.8694 C   0  0  0  0  0  0  0  0  0  0  0  0
    8.3217  -12.9671   19.2047 C   0  0  0  0  0  0  0  0  0  0  0  0
    8.5244  -14.4718   19.3232 C   0  0  1  0  0  0  0  0  0  0  0  0
    8.1222  -14.9136   20.7272 C   0  0  0  0  0  0  0  0  0  0  0  0
    8.0222  -14.0735   21.6304 O   0  0  0  0  0  0  0  0  0  0  0  0
    5.2049  -19.1181   23.6434 N   0  0  0  0  0  0  0  0  0  0  0  0
    6.5694  -19.0050   23.2787 C   0  0  0  0  0  0  0  0  0  0  0  0
    7.3864  -19.5438   24.0856 O   0  0  0  0  0  0  0  0  0  0  0  0
    6.8784  -18.3053   22.0534 C   0  0  0  0  0  0  0  0  0  0  0  0
    7.5139  -16.9520   22.1309 C   0  0  2  0  0  0  0  0  0  0  0  0
    7.8705  -16.2617   20.9759 N   0  0  0  0  0  0  0  0  0  0  0  0
    8.4513  -16.9497   23.2585 C   0  0  0  0  0  0  0  0  0  0  0  0
    9.6016  -17.5194   23.1262 O   0  0  0  0  0  0  0  0  0  0  0  0
    5.3928  -11.4217   26.8314 O   0  0  0  0  0  0  0  0  0  0  0  0
    6.4853  -12.2570   26.5411 C   0  0  0  0  0  0  0  0  0  0  0  0
    7.3277  -12.6964   27.5362 C   0  0  0  0  0  0  0  0  0  0  0  0
    8.4050  -13.5178   27.2625 C   0  0  0  0  0  0  0  0  0  0  0  0
    8.6309  -13.9009   25.9481 C   0  0  0  0  0  0  0  0  0  0  0  0
    9.7615  -14.7775   25.5824 C   0  0  0  0  0  0  0  0  0  0  0  0
    9.3185  -16.2101   25.5314 C   0  0  2  0  0  0  0  0  0  0  0  0
    8.2381  -16.3696   24.5323 N   0  0  0  0  0  0  0  0  0  0  0  0
    8.9212  -16.7914   26.8187 C   0  0  0  0  0  0  0  0  0  0  0  0
    7.6512  -17.3461   26.9545 O   0  0  0  0  0  0  0  0  0  0  0  0
    7.8040  -13.4798   24.9080 C   0  0  0  0  0  0  0  0  0  0  0  0
    6.7497  -12.6630   25.2539 C   0  0  0  0  0  0  0  0  0  0  0  0
    9.6570  -16.8274   27.8285 O   0  0  0  0  0  0  0  0  0  0  0  0
  2  1  1  0
  3  2  1  0
  4  3  1  0
  4  5  1  0
  5  1  1  0
  5  6  1  1
  6  7  2  0
  8  9  1  0
  9 11  1  0
 10  9  2  0
 12 11  1  6
 13  6  1  0
 13 12  1  0
 14 12  1  0
 14 15  2  0
 16 17  1  0
 17 18  2  0
 18 19  1  0
 20 19  2  0
 20 21  1  0
 22 21  1  1
 22 23  1  0
 22 24  1  0
 23 14  1  0
 24 25  1  0
 26 20  1  0
 27 17  1  0
 27 26  2  0
 28 24  2  0
M  END
$$$$
