PNY.pdb
     RDKit          3D

 28 29  0  0  1  0  0  0  0  0999 V2000
    9.1647  -14.4288   18.6801 N   0  0  0  0  0  0  0  0  0  0  0  0
    8.6446  -13.7638   17.5102 C   0  0  0  0  0  0  0  0  0  0  0  0
    7.2474  -13.3754   17.9386 C   0  0  0  0  0  0  0  0  0  0  0  0
    7.4281  -13.0633   19.4134 C   0  0  0  0  0  0  0  0  0  0  0  0
    8.8447  -13.5142   19.7438 C   0  0  1  0  0  0  0  0  0  0  0  0
    8.8196  -14.2948   21.0546 C   0  0  0  0  0  0  0  0  0  0  0  0
    8.4326  -13.7415   22.0917 O   0  0  0  0  0  0  0  0  0  0  0  0
    9.0353  -19.4642   22.7405 N   0  0  0  0  0  0  0  0  0  0  0  0
   10.3003  -18.8262   22.7597 C   0  0  0  0  0  0  0  0  0  0  0  0
   11.1741  -19.3901   23.4860 O   0  0  0  0  0  0  0  0  0  0  0  0
   10.4578  -17.6291   21.9670 C   0  0  0  0  0  0  0  0  0  0  0  0
    9.4500  -16.5304   22.1034 C   0  0  2  0  0  0  0  0  0  0  0  0
    9.2332  -15.6257   21.0679 N   0  0  0  0  0  0  0  0  0  0  0  0
    9.5176  -16.0139   23.4740 C   0  0  0  0  0  0  0  0  0  0  0  0
    9.1869  -14.7881   23.7052 O   0  0  0  0  0  0  0  0  0  0  0  0
    6.3210  -10.8664   26.5546 O   0  0  0  0  0  0  0  0  0  0  0  0
    6.7636  -12.1966   26.4533 C   0  0  0  0  0  0  0  0  0  0  0  0
    7.8861  -12.6249   27.1238 C   0  0  0  0  0  0  0  0  0  0  0  0
    8.3305  -13.9303   27.0316 C   0  0  0  0  0  0  0  0  0  0  0  0
    7.6181  -14.8200   26.2402 C   0  0  0  0  0  0  0  0  0  0  0  0
    8.0339  -16.2295   26.0960 C   0  0  0  0  0  0  0  0  0  0  0  0
    9.5278  -16.3277   25.9972 C   0  0  2  0  0  0  0  0  0  0  0  0
    9.9182  -16.7305   24.6275 N   0  0  0  0  0  0  0  0  0  0  0  0
   10.1680  -17.1948   26.9927 C   0  0  0  0  0  0  0  0  0  0  0  0
   10.3350  -16.7315   28.2952 O   0  0  0  0  0  0  0  0  0  0  0  0
    6.4758  -14.4303   25.5429 C   0  0  0  0  0  0  0  0  0  0  0  0
    6.0908  -13.1147   25.6812 C   0  0  0  0  0  0  0  0  0  0  0  0
   10.5850  -18.3484   26.7527 O   0  0  0  0  0  0  0  0  0  0  0  0
  2  1  1  0
  3  2  1  0
  4  3  1  0
  4  5  1  0
  5  1  1  0
  5  6  1  1
  6  7  2  0
  8  9  1  0
  9 11  1  0
 10  9  2  0
 12 11  1  6
 13  6  1  0
 13 12  1  0
 14 12  1  0
 14 15  2  0
 16 17  1  0
 17 18  2  0
 18 19  1  0
 20 19  2  0
 20 21  1  0
 22 21  1  6
 22 23  1  0
 22 24  1  0
 23 14  1  0
 24 25  1  0
 26 20  1  0
 27 17  1  0
 27 26  2  0
 28 24  2  0
M  END
$$$$
