PNY.pdb
     RDKit          3D

 28 29  0  0  1  0  0  0  0  0999 V2000
    8.7796  -19.6842   17.8442 N   0  0  0  0  0  0  0  0  0  0  0  0
    8.6768  -20.2667   16.5283 C   0  0  0  0  0  0  0  0  0  0  0  0
    7.2110  -20.0945   16.1991 C   0  0  0  0  0  0  0  0  0  0  0  0
    6.8752  -18.7720   16.8648 C   0  0  0  0  0  0  0  0  0  0  0  0
    8.1027  -18.4232   17.6959 C   0  0  1  0  0  0  0  0  0  0  0  0
    7.6469  -17.9596   19.0764 C   0  0  0  0  0  0  0  0  0  0  0  0
    7.0831  -16.8652   19.2016 O   0  0  0  0  0  0  0  0  0  0  0  0
    7.4402  -20.2866   24.7408 N   0  0  0  0  0  0  0  0  0  0  0  0
    6.6978  -19.6979   23.6873 C   0  0  0  0  0  0  0  0  0  0  0  0
    5.6589  -19.0673   24.0509 O   0  0  0  0  0  0  0  0  0  0  0  0
    7.1922  -19.8729   22.3415 C   0  0  0  0  0  0  0  0  0  0  0  0
    7.5132  -18.6612   21.5228 C   0  0  2  0  0  0  0  0  0  0  0  0
    7.8709  -18.7773   20.1826 N   0  0  0  0  0  0  0  0  0  0  0  0
    8.2667  -17.7260   22.3641 C   0  0  0  0  0  0  0  0  0  0  0  0
    9.4907  -17.9964   22.6710 O   0  0  0  0  0  0  0  0  0  0  0  0
    8.1686  -12.6719   18.2461 O   0  0  0  0  0  0  0  0  0  0  0  0
    8.1509  -13.0600   19.5969 C   0  0  0  0  0  0  0  0  0  0  0  0
    6.9706  -13.3732   20.2307 C   0  0  0  0  0  0  0  0  0  0  0  0
    6.9412  -13.7559   21.5584 C   0  0  0  0  0  0  0  0  0  0  0  0
    8.1381  -13.8216   22.2572 C   0  0  0  0  0  0  0  0  0  0  0  0
    8.1825  -14.2237   23.6774 C   0  0  0  0  0  0  0  0  0  0  0  0
    8.6066  -15.6574   23.8029 C   0  0  2  0  0  0  0  0  0  0  0  0
    7.7931  -16.5056   22.9032 N   0  0  0  0  0  0  0  0  0  0  0  0
    8.6004  -16.1976   25.1671 C   0  0  0  0  0  0  0  0  0  0  0  0
    9.4636  -15.6598   26.1184 O   0  0  0  0  0  0  0  0  0  0  0  0
    9.3573  -13.5131   21.6561 C   0  0  0  0  0  0  0  0  0  0  0  0
    9.3114  -13.1396   20.3307 C   0  0  0  0  0  0  0  0  0  0  0  0
    7.8587  -17.1282   25.5492 O   0  0  0  0  0  0  0  0  0  0  0  0
  2  1  1  0
  3  2  1  0
  4  3  1  0
  4  5  1  0
  5  1  1  0
  5  6  1  1
  6  7  2  0
  8  9  1  0
  9 11  1  0
 10  9  2  0
 12 11  1  1
 13  6  1  0
 13 12  1  0
 14 12  1  0
 14 15  2  0
 16 17  1  0
 17 18  2  0
 18 19  1  0
 20 19  2  0
 20 21  1  0
 22 21  1  1
 22 23  1  0
 22 24  1  0
 23 14  1  0
 24 25  1  0
 26 20  1  0
 27 17  1  0
 27 26  2  0
 28 24  2  0
M  END
$$$$
