PNY.pdb
     RDKit          3D

 28 29  0  0  1  0  0  0  0  0999 V2000
    9.3613  -13.3253   17.9769 N   0  0  0  0  0  0  0  0  0  0  0  0
    8.2973  -12.8915   17.1044 C   0  0  0  0  0  0  0  0  0  0  0  0
    8.4744  -13.7789   15.8930 C   0  0  0  0  0  0  0  0  0  0  0  0
    8.9562  -15.0822   16.5048 C   0  0  0  0  0  0  0  0  0  0  0  0
    9.2261  -14.7578   17.9680 C   0  0  1  0  0  0  0  0  0  0  0  0
   10.5665  -15.3673   18.3682 C   0  0  0  0  0  0  0  0  0  0  0  0
   10.6621  -16.5909   18.5262 O   0  0  0  0  0  0  0  0  0  0  0  0
   14.2548  -15.4777   16.3848 N   0  0  0  0  0  0  0  0  0  0  0  0
   14.3760  -14.1877   16.9582 C   0  0  0  0  0  0  0  0  0  0  0  0
   14.6899  -13.2667   16.1445 O   0  0  0  0  0  0  0  0  0  0  0  0
   14.1332  -14.0607   18.3764 C   0  0  0  0  0  0  0  0  0  0  0  0
   12.9705  -14.7842   18.9815 C   0  0  2  0  0  0  0  0  0  0  0  0
   11.6704  -14.5361   18.5504 N   0  0  0  0  0  0  0  0  0  0  0  0
   13.2113  -14.9152   20.4219 C   0  0  0  0  0  0  0  0  0  0  0  0
   12.5959  -14.1298   21.2402 O   0  0  0  0  0  0  0  0  0  0  0  0
   12.0635  -19.0895   27.8173 O   0  0  0  0  0  0  0  0  0  0  0  0
   12.1711  -18.5085   26.5420 C   0  0  0  0  0  0  0  0  0  0  0  0
   11.8101  -17.1987   26.3252 C   0  0  0  0  0  0  0  0  0  0  0  0
   11.9116  -16.6170   25.0757 C   0  0  0  0  0  0  0  0  0  0  0  0
   12.3906  -17.3838   24.0232 C   0  0  0  0  0  0  0  0  0  0  0  0
   12.5269  -16.8282   22.6619 C   0  0  0  0  0  0  0  0  0  0  0  0
   13.9043  -16.2688   22.4597 C   0  0  2  0  0  0  0  0  0  0  0  0
   14.0752  -15.8429   21.0526 N   0  0  0  0  0  0  0  0  0  0  0  0
   15.0059  -17.1465   22.8710 C   0  0  0  0  0  0  0  0  0  0  0  0
   15.4959  -17.0634   24.1718 O   0  0  0  0  0  0  0  0  0  0  0  0
   12.7679  -18.7145   24.1963 C   0  0  0  0  0  0  0  0  0  0  0  0
   12.6403  -19.2285   25.4682 C   0  0  0  0  0  0  0  0  0  0  0  0
   15.5510  -17.9852   22.1216 O   0  0  0  0  0  0  0  0  0  0  0  0
  2  1  1  0
  3  2  1  0
  4  3  1  0
  4  5  1  0
  5  1  1  0
  5  6  1  6
  6  7  2  0
  8  9  1  0
  9 11  1  0
 10  9  2  0
 12 11  1  1
 13  6  1  0
 13 12  1  0
 14 12  1  0
 14 15  2  0
 16 17  1  0
 17 18  2  0
 18 19  1  0
 20 19  2  0
 20 21  1  0
 22 21  1  6
 22 23  1  0
 22 24  1  0
 23 14  1  0
 24 25  1  0
 26 20  1  0
 27 17  1  0
 27 26  2  0
 28 24  2  0
M  END
$$$$
