IYH.pdb
     RDKit          3D

 31 32  0  0  1  0  0  0  0  0999 V2000
   21.8727  -19.0626  -19.2008 C   0  0  0  0  0  0  0  0  0  0  0  0
   23.1978  -19.4231  -18.5432 C   0  0  0  0  0  0  0  0  0  0  0  0
   23.6138  -20.8408  -18.8771 C   0  0  2  0  0  0  0  0  0  0  0  0
   22.5471  -21.7623  -18.3498 C   0  0  0  0  0  0  0  0  0  0  0  0
   24.9601  -21.0749  -18.2383 C   0  0  2  0  0  0  0  0  0  0  0  0
   25.8619  -20.0668  -18.7502 N   0  0  0  0  0  0  0  0  0  0  0  0
   25.5180  -22.4060  -18.5552 C   0  0  0  0  0  0  0  0  0  0  0  0
   25.7891  -22.7328  -19.7563 O   0  0  0  0  0  0  0  0  0  0  0  0
   29.4662  -30.2331  -16.8883 O   0  0  0  0  0  0  0  0  0  0  0  0
   28.9600  -28.9416  -16.8653 C   0  0  0  0  0  0  0  0  0  0  0  0
   29.4531  -27.9425  -17.6779 C   0  0  0  0  0  0  0  0  0  0  0  0
   28.9691  -26.6670  -17.6699 C   0  0  0  0  0  0  0  0  0  0  0  0
   27.9411  -26.3126  -16.8291 C   0  0  0  0  0  0  0  0  0  0  0  0
   27.3625  -24.9643  -16.7571 C   0  0  0  0  0  0  0  0  0  0  0  0
   26.2881  -24.6789  -17.7271 C   0  0  2  0  0  0  0  0  0  0  0  0
   25.7500  -23.3198  -17.5085 N   0  0  0  0  0  0  0  0  0  0  0  0
   25.1634  -25.5715  -17.8529 C   0  0  0  0  0  0  0  0  0  0  0  0
   24.2460  -25.5128  -16.9520 O   0  0  0  0  0  0  0  0  0  0  0  0
   27.4395  -27.3261  -16.0034 C   0  0  0  0  0  0  0  0  0  0  0  0
   27.9351  -28.6121  -16.0186 C   0  0  0  0  0  0  0  0  0  0  0  0
   24.8999  -26.5372  -18.8583 N   0  0  0  0  0  0  0  0  0  0  0  0
   23.7659  -27.4581  -18.7718 C   0  0  1  0  0  0  0  0  0  0  0  0
   22.8880  -27.3148  -19.9954 C   0  0  0  0  0  0  0  0  0  0  0  0
   21.9618  -26.1733  -19.9586 C   0  0  0  0  0  0  0  0  0  0  0  0
   21.6257  -25.4636  -18.8279 C   0  0  0  0  0  0  0  0  0  0  0  0
   20.7342  -24.5048  -19.1821 N   0  0  0  0  0  0  0  0  0  0  0  0
   20.5086  -24.6017  -20.5033 C   0  0  0  0  0  0  0  0  0  0  0  0
   21.2555  -25.6120  -20.9583 N   0  0  0  0  0  0  0  0  0  0  0  0
   24.2526  -28.8421  -18.6844 C   0  0  0  0  0  0  0  0  0  0  0  0
   23.3582  -29.8986  -18.4903 O   0  0  0  0  0  0  0  0  0  0  0  0
   25.4685  -29.1056  -18.7787 O   0  0  0  0  0  0  0  0  0  0  0  0
  2  3  1  0
  2  1  1  0
  3  4  1  1
  5  3  1  0
  5  6  1  6
  7  5  1  0
  7  8  2  0
  9 10  1  0
 10 11  2  0
 10 20  1  0
 11 12  1  0
 12 13  2  0
 13 14  1  0
 15 14  1  1
 15 16  1  0
 16  7  1  0
 17 15  1  0
 18 17  2  0
 19 13  1  0
 20 19  2  0
 21 17  1  0
 22 21  1  0
 22 29  1  0
 22 23  1  6
 24 23  1  0
 24 25  2  0
 26 25  1  0
 27 26  1  0
 28 27  2  0
 28 24  1  0
 29 31  2  0
 29 30  1  0
M  END
$$$$
