IYH.pdb
     RDKit          3D

 31 32  0  0  1  0  0  0  0  0999 V2000
   25.4047  -15.2356  -19.0842 C   0  0  0  0  0  0  0  0  0  0  0  0
   25.3420  -13.9711  -18.2384 C   0  0  0  0  0  0  0  0  0  0  0  0
   26.0502  -12.8162  -18.9161 C   0  0  2  0  0  0  0  0  0  0  0  0
   27.4970  -13.2003  -19.0719 C   0  0  0  0  0  0  0  0  0  0  0  0
   25.8563  -11.5992  -18.0462 C   0  0  2  0  0  0  0  0  0  0  0  0
   26.3089  -11.9428  -16.7163 N   0  0  0  0  0  0  0  0  0  0  0  0
   24.4429  -11.1760  -17.9645 C   0  0  0  0  0  0  0  0  0  0  0  0
   23.7769  -10.9120  -19.0179 O   0  0  0  0  0  0  0  0  0  0  0  0
   16.1451  -10.8283  -14.9763 O   0  0  0  0  0  0  0  0  0  0  0  0
   17.4941  -11.0600  -15.2023 C   0  0  0  0  0  0  0  0  0  0  0  0
   17.9798  -11.4394  -16.4359 C   0  0  0  0  0  0  0  0  0  0  0  0
   19.3022  -11.6719  -16.6779 C   0  0  0  0  0  0  0  0  0  0  0  0
   20.2331  -11.5344  -15.6760 C   0  0  0  0  0  0  0  0  0  0  0  0
   21.6731  -11.7654  -15.8512 C   0  0  0  0  0  0  0  0  0  0  0  0
   22.4166  -10.6794  -16.5179 C   0  0  2  0  0  0  0  0  0  0  0  0
   23.8316  -11.0658  -16.7001 N   0  0  0  0  0  0  0  0  0  0  0  0
   22.4021   -9.3448  -15.9735 C   0  0  0  0  0  0  0  0  0  0  0  0
   23.2361   -9.0706  -15.0324 O   0  0  0  0  0  0  0  0  0  0  0  0
   19.7412  -11.1492  -14.4229 C   0  0  0  0  0  0  0  0  0  0  0  0
   18.4031  -10.9166  -14.1879 C   0  0  0  0  0  0  0  0  0  0  0  0
   21.5824   -8.2443  -16.3336 N   0  0  0  0  0  0  0  0  0  0  0  0
   21.6726   -6.9531  -15.6507 C   0  0  1  0  0  0  0  0  0  0  0  0
   21.6874   -5.8308  -16.6650 C   0  0  0  0  0  0  0  0  0  0  0  0
   21.7408   -4.4795  -16.0876 C   0  0  0  0  0  0  0  0  0  0  0  0
   22.6057   -4.0771  -15.0951 C   0  0  0  0  0  0  0  0  0  0  0  0
   22.3435   -2.7775  -14.8095 N   0  0  0  0  0  0  0  0  0  0  0  0
   21.3380   -2.3636  -15.5992 C   0  0  0  0  0  0  0  0  0  0  0  0
   20.9846   -3.4003  -16.3645 N   0  0  0  0  0  0  0  0  0  0  0  0
   20.5204   -6.7810  -14.7547 C   0  0  0  0  0  0  0  0  0  0  0  0
   20.6472   -6.0570  -13.5657 O   0  0  0  0  0  0  0  0  0  0  0  0
   19.4087   -7.2754  -15.0309 O   0  0  0  0  0  0  0  0  0  0  0  0
  2  3  1  0
  2  1  1  0
  3  4  1  1
  5  3  1  0
  5  6  1  1
  7  5  1  0
  7  8  2  0
  9 10  1  0
 10 11  2  0
 10 20  1  0
 11 12  1  0
 12 13  2  0
 13 14  1  0
 15 14  1  1
 15 16  1  0
 16  7  1  0
 17 15  1  0
 18 17  2  0
 19 13  1  0
 20 19  2  0
 21 17  1  0
 22 21  1  0
 22 29  1  0
 22 23  1  6
 24 23  1  0
 24 25  2  0
 26 25  1  0
 27 26  1  0
 28 27  2  0
 28 24  1  0
 29 31  2  0
 29 30  1  0
M  END
$$$$
