IYH.pdb
     RDKit          3D

 31 32  0  0  1  0  0  0  0  0999 V2000
   20.3800  -14.3705  -17.2521 C   0  0  0  0  0  0  0  0  0  0  0  0
   20.9931  -13.1201  -17.8677 C   0  0  0  0  0  0  0  0  0  0  0  0
   20.8219  -11.9170  -16.9635 C   0  0  2  0  0  0  0  0  0  0  0  0
   19.3507  -11.7649  -16.6850 C   0  0  0  0  0  0  0  0  0  0  0  0
   21.4091  -10.7285  -17.6832 C   0  0  2  0  0  0  0  0  0  0  0  0
   22.8169  -10.9951  -17.8795 N   0  0  0  0  0  0  0  0  0  0  0  0
   21.2733   -9.4730  -16.9159 C   0  0  0  0  0  0  0  0  0  0  0  0
   21.9643   -9.2703  -15.8650 O   0  0  0  0  0  0  0  0  0  0  0  0
   26.4515   -6.0117  -17.2614 O   0  0  0  0  0  0  0  0  0  0  0  0
   25.0653   -6.0403  -17.3061 C   0  0  0  0  0  0  0  0  0  0  0  0
   24.3733   -6.5555  -18.3819 C   0  0  0  0  0  0  0  0  0  0  0  0
   23.0110   -6.5924  -18.4446 C   0  0  0  0  0  0  0  0  0  0  0  0
   22.2481   -6.1046  -17.4105 C   0  0  0  0  0  0  0  0  0  0  0  0
   20.7792   -6.1056  -17.3979 C   0  0  0  0  0  0  0  0  0  0  0  0
   20.1487   -7.2122  -16.6532 C   0  0  2  0  0  0  0  0  0  0  0  0
   20.3648   -8.4922  -17.3599 N   0  0  0  0  0  0  0  0  0  0  0  0
   18.7539   -7.1488  -16.2955 C   0  0  0  0  0  0  0  0  0  0  0  0
   17.8860   -7.2459  -17.2410 O   0  0  0  0  0  0  0  0  0  0  0  0
   22.9495   -5.5811  -16.3175 C   0  0  0  0  0  0  0  0  0  0  0  0
   24.3263   -5.5481  -16.2632 C   0  0  0  0  0  0  0  0  0  0  0  0
   18.1689   -6.9956  -15.0121 N   0  0  0  0  0  0  0  0  0  0  0  0
   16.7188   -6.9522  -14.8202 C   0  0  1  0  0  0  0  0  0  0  0  0
   16.3022   -7.9763  -13.7876 C   0  0  0  0  0  0  0  0  0  0  0  0
   16.3991   -9.3744  -14.2329 C   0  0  0  0  0  0  0  0  0  0  0  0
   15.9508   -9.8518  -15.4437 C   0  0  0  0  0  0  0  0  0  0  0  0
   16.1916  -11.1858  -15.4857 N   0  0  0  0  0  0  0  0  0  0  0  0
   16.7777  -11.5480  -14.3319 C   0  0  0  0  0  0  0  0  0  0  0  0
   16.8965  -10.4457  -13.5862 N   0  0  0  0  0  0  0  0  0  0  0  0
   16.3155   -5.6141  -14.3653 C   0  0  0  0  0  0  0  0  0  0  0  0
   14.9634   -5.2908  -14.2199 O   0  0  0  0  0  0  0  0  0  0  0  0
   17.1650   -4.7391  -14.1015 O   0  0  0  0  0  0  0  0  0  0  0  0
  2  3  1  0
  2  1  1  0
  3  4  1  6
  5  3  1  0
  5  6  1  1
  7  5  1  0
  7  8  2  0
  9 10  1  0
 10 11  2  0
 10 20  1  0
 11 12  1  0
 12 13  2  0
 13 14  1  0
 15 14  1  6
 15 16  1  0
 16  7  1  0
 17 15  1  0
 18 17  2  0
 19 13  1  0
 20 19  2  0
 21 17  1  0
 22 21  1  0
 22 29  1  0
 22 23  1  1
 24 23  1  0
 24 25  2  0
 26 25  1  0
 27 26  1  0
 28 27  2  0
 28 24  1  0
 29 31  2  0
 29 30  1  0
M  END
$$$$
