IYH.pdb
     RDKit          3D

 31 32  0  0  1  0  0  0  0  0999 V2000
   19.4286  -14.0291  -17.1917 C   0  0  0  0  0  0  0  0  0  0  0  0
   20.8473  -13.4878  -17.3041 C   0  0  0  0  0  0  0  0  0  0  0  0
   21.0301  -12.2369  -16.4696 C   0  0  2  0  0  0  0  0  0  0  0  0
   20.0660  -11.2028  -16.9856 C   0  0  0  0  0  0  0  0  0  0  0  0
   22.4719  -11.8147  -16.6051 C   0  0  2  0  0  0  0  0  0  0  0  0
   23.2894  -12.9232  -16.1644 N   0  0  0  0  0  0  0  0  0  0  0  0
   22.8003  -10.6340  -15.7795 C   0  0  0  0  0  0  0  0  0  0  0  0
   22.7652  -10.6947  -14.5075 O   0  0  0  0  0  0  0  0  0  0  0  0
   26.0526   -2.7890  -18.0205 O   0  0  0  0  0  0  0  0  0  0  0  0
   25.7554   -4.0244  -17.4638 C   0  0  0  0  0  0  0  0  0  0  0  0
   25.9874   -5.2084  -18.1314 C   0  0  0  0  0  0  0  0  0  0  0  0
   25.7019   -6.4326  -17.6011 C   0  0  0  0  0  0  0  0  0  0  0  0
   25.1560   -6.5422  -16.3444 C   0  0  0  0  0  0  0  0  0  0  0  0
   24.8187   -7.8187  -15.7006 C   0  0  0  0  0  0  0  0  0  0  0  0
   23.3847   -8.1653  -15.6844 C   0  0  2  0  0  0  0  0  0  0  0  0
   23.1561   -9.4289  -16.4164 N   0  0  0  0  0  0  0  0  0  0  0  0
   22.4004   -7.2180  -16.1442 C   0  0  0  0  0  0  0  0  0  0  0  0
   22.0353   -7.2813  -17.3768 O   0  0  0  0  0  0  0  0  0  0  0  0
   24.9199   -5.3406  -15.6654 C   0  0  0  0  0  0  0  0  0  0  0  0
   25.2116   -4.1083  -16.2095 C   0  0  0  0  0  0  0  0  0  0  0  0
   21.7435   -6.1917  -15.4176 N   0  0  0  0  0  0  0  0  0  0  0  0
   20.7873   -5.2826  -16.0507 C   0  0  1  0  0  0  0  0  0  0  0  0
   19.5856   -6.0574  -16.5449 C   0  0  0  0  0  0  0  0  0  0  0  0
   18.5517   -5.2401  -17.1972 C   0  0  0  0  0  0  0  0  0  0  0  0
   18.7966   -4.1654  -18.0220 C   0  0  0  0  0  0  0  0  0  0  0  0
   17.6029   -3.6537  -18.4125 N   0  0  0  0  0  0  0  0  0  0  0  0
   16.6239   -4.3833  -17.8510 C   0  0  0  0  0  0  0  0  0  0  0  0
   17.2107   -5.3362  -17.1210 N   0  0  0  0  0  0  0  0  0  0  0  0
   20.3455   -4.2696  -15.0819 C   0  0  0  0  0  0  0  0  0  0  0  0
   20.4094   -4.5242  -13.7090 O   0  0  0  0  0  0  0  0  0  0  0  0
   19.9035   -3.1655  -15.4593 O   0  0  0  0  0  0  0  0  0  0  0  0
  2  3  1  0
  2  1  1  0
  3  4  1  6
  5  3  1  0
  5  6  1  1
  7  5  1  0
  7  8  2  0
  9 10  1  0
 10 11  2  0
 10 20  1  0
 11 12  1  0
 12 13  2  0
 13 14  1  0
 15 14  1  6
 15 16  1  0
 16  7  1  0
 17 15  1  0
 18 17  2  0
 19 13  1  0
 20 19  2  0
 21 17  1  0
 22 21  1  0
 22 29  1  0
 22 23  1  1
 24 23  1  0
 24 25  2  0
 26 25  1  0
 27 26  1  0
 28 27  2  0
 28 24  1  0
 29 31  2  0
 29 30  1  0
M  END
$$$$
