IYH.pdb
     RDKit          3D

 31 32  0  0  1  0  0  0  0  0999 V2000
   27.7741  -22.1973  -20.9826 C   0  0  0  0  0  0  0  0  0  0  0  0
   28.1868  -21.7798  -19.5778 C   0  0  0  0  0  0  0  0  0  0  0  0
   27.1028  -22.0914  -18.5668 C   0  0  2  0  0  0  0  0  0  0  0  0
   25.8523  -21.3804  -19.0094 C   0  0  0  0  0  0  0  0  0  0  0  0
   27.5981  -21.6249  -17.2206 C   0  0  2  0  0  0  0  0  0  0  0  0
   28.8415  -22.3143  -16.9556 N   0  0  0  0  0  0  0  0  0  0  0  0
   26.6518  -21.9303  -16.1276 C   0  0  0  0  0  0  0  0  0  0  0  0
   25.9739  -23.0089  -16.1312 O   0  0  0  0  0  0  0  0  0  0  0  0
   22.7906  -20.8312   -8.1161 O   0  0  0  0  0  0  0  0  0  0  0  0
   23.5774  -20.7395   -9.2550 C   0  0  0  0  0  0  0  0  0  0  0  0
   23.1516  -20.0893  -10.3941 C   0  0  0  0  0  0  0  0  0  0  0  0
   23.9102  -19.9885  -11.5236 C   0  0  0  0  0  0  0  0  0  0  0  0
   25.1658  -20.5454  -11.5768 C   0  0  0  0  0  0  0  0  0  0  0  0
   26.0460  -20.4832  -12.7512 C   0  0  0  0  0  0  0  0  0  0  0  0
   25.5777  -21.2228  -13.9388 C   0  0  2  0  0  0  0  0  0  0  0  0
   26.5037  -21.0103  -15.0710 N   0  0  0  0  0  0  0  0  0  0  0  0
   24.2388  -21.0301  -14.4366 C   0  0  0  0  0  0  0  0  0  0  0  0
   24.0084  -19.9857  -15.1525 O   0  0  0  0  0  0  0  0  0  0  0  0
   25.5993  -21.2058  -10.4208 C   0  0  0  0  0  0  0  0  0  0  0  0
   24.8256  -21.3026   -9.2843 C   0  0  0  0  0  0  0  0  0  0  0  0
   23.0944  -21.8490  -14.2561 N   0  0  0  0  0  0  0  0  0  0  0  0
   21.7754  -21.4606  -14.7571 C   0  0  1  0  0  0  0  0  0  0  0  0
   21.2587  -22.5067  -15.7201 C   0  0  0  0  0  0  0  0  0  0  0  0
   19.9185  -22.2367  -16.2617 C   0  0  0  0  0  0  0  0  0  0  0  0
   18.7469  -22.3000  -15.5416 C   0  0  0  0  0  0  0  0  0  0  0  0
   17.7211  -22.0109  -16.3803 N   0  0  0  0  0  0  0  0  0  0  0  0
   18.2263  -21.7701  -17.6021 C   0  0  0  0  0  0  0  0  0  0  0  0
   19.5523  -21.9099  -17.5156 N   0  0  0  0  0  0  0  0  0  0  0  0
   20.8348  -21.3282  -13.6356 C   0  0  0  0  0  0  0  0  0  0  0  0
   19.8421  -20.3443  -13.6535 O   0  0  0  0  0  0  0  0  0  0  0  0
   20.9006  -22.0847  -12.6456 O   0  0  0  0  0  0  0  0  0  0  0  0
  2  3  1  0
  2  1  1  0
  3  4  1  6
  5  3  1  0
  5  6  1  1
  7  5  1  0
  7  8  2  0
  9 10  1  0
 10 11  2  0
 10 20  1  0
 11 12  1  0
 12 13  2  0
 13 14  1  0
 15 14  1  1
 15 16  1  0
 16  7  1  0
 17 15  1  0
 18 17  2  0
 19 13  1  0
 20 19  2  0
 21 17  1  0
 22 21  1  0
 22 29  1  0
 22 23  1  6
 24 23  1  0
 24 25  2  0
 26 25  1  0
 27 26  1  0
 28 27  2  0
 28 24  1  0
 29 31  2  0
 29 30  1  0
M  END
$$$$
