IYH.pdb
     RDKit          3D

 31 32  0  0  1  0  0  0  0  0999 V2000
   25.7747  -23.4047  -20.5057 C   0  0  0  0  0  0  0  0  0  0  0  0
   26.2005  -22.5258  -19.3376 C   0  0  0  0  0  0  0  0  0  0  0  0
   25.3112  -22.7406  -18.1304 C   0  0  2  0  0  0  0  0  0  0  0  0
   23.8853  -22.5731  -18.5821 C   0  0  0  0  0  0  0  0  0  0  0  0
   25.7192  -21.7297  -17.0878 C   0  0  2  0  0  0  0  0  0  0  0  0
   27.0992  -21.9950  -16.7462 N   0  0  0  0  0  0  0  0  0  0  0  0
   24.9068  -21.8204  -15.8568 C   0  0  0  0  0  0  0  0  0  0  0  0
   25.1835  -22.6729  -14.9515 O   0  0  0  0  0  0  0  0  0  0  0  0
   20.0671  -18.8459   -9.0918 O   0  0  0  0  0  0  0  0  0  0  0  0
   20.8011  -19.0182  -10.2563 C   0  0  0  0  0  0  0  0  0  0  0  0
   20.2912  -18.7126  -11.5005 C   0  0  0  0  0  0  0  0  0  0  0  0
   20.9970  -18.8751  -12.6568 C   0  0  0  0  0  0  0  0  0  0  0  0
   22.2815  -19.3636  -12.6312 C   0  0  0  0  0  0  0  0  0  0  0  0
   23.1092  -19.5693  -13.8273 C   0  0  0  0  0  0  0  0  0  0  0  0
   22.9995  -20.8987  -14.4577 C   0  0  2  0  0  0  0  0  0  0  0  0
   23.8131  -20.9482  -15.6906 N   0  0  0  0  0  0  0  0  0  0  0  0
   21.7064  -21.4515  -14.7734 C   0  0  0  0  0  0  0  0  0  0  0  0
   21.2796  -21.3298  -15.9815 O   0  0  0  0  0  0  0  0  0  0  0  0
   22.8004  -19.6744  -11.3684 C   0  0  0  0  0  0  0  0  0  0  0  0
   22.0796  -19.5069  -10.2057 C   0  0  0  0  0  0  0  0  0  0  0  0
   20.8003  -22.1399  -13.9261 N   0  0  0  0  0  0  0  0  0  0  0  0
   19.4904  -22.5930  -14.3954 C   0  0  1  0  0  0  0  0  0  0  0  0
   19.4150  -24.1030  -14.3416 C   0  0  0  0  0  0  0  0  0  0  0  0
   19.9045  -24.7874  -15.5476 C   0  0  0  0  0  0  0  0  0  0  0  0
   20.2989  -24.1604  -16.7079 C   0  0  0  0  0  0  0  0  0  0  0  0
   20.6630  -25.1151  -17.5997 N   0  0  0  0  0  0  0  0  0  0  0  0
   20.5044  -26.3182  -17.0224 C   0  0  0  0  0  0  0  0  0  0  0  0
   20.0465  -26.1053  -15.7852 N   0  0  0  0  0  0  0  0  0  0  0  0
   18.4328  -22.0248  -13.5478 C   0  0  0  0  0  0  0  0  0  0  0  0
   17.0858  -22.2513  -13.8451 O   0  0  0  0  0  0  0  0  0  0  0  0
   18.7098  -21.3292  -12.5497 O   0  0  0  0  0  0  0  0  0  0  0  0
  2  3  1  0
  2  1  1  0
  3  4  1  6
  5  3  1  0
  5  6  1  1
  7  5  1  0
  7  8  2  0
  9 10  1  0
 10 11  2  0
 10 20  1  0
 11 12  1  0
 12 13  2  0
 13 14  1  0
 15 14  1  6
 15 16  1  0
 16  7  1  0
 17 15  1  0
 18 17  2  0
 19 13  1  0
 20 19  2  0
 21 17  1  0
 22 21  1  0
 22 29  1  0
 22 23  1  1
 24 23  1  0
 24 25  2  0
 26 25  1  0
 27 26  1  0
 28 27  2  0
 28 24  1  0
 29 31  2  0
 29 30  1  0
M  END
$$$$
