IYH.pdb
     RDKit          3D

 31 32  0  0  1  0  0  0  0  0999 V2000
   28.6349  -17.0050  -17.9397 C   0  0  0  0  0  0  0  0  0  0  0  0
   28.8628  -18.1520  -16.9647 C   0  0  0  0  0  0  0  0  0  0  0  0
   27.5627  -18.8440  -16.6106 C   0  0  2  0  0  0  0  0  0  0  0  0
   26.6414  -17.8068  -16.0271 C   0  0  0  0  0  0  0  0  0  0  0  0
   27.8936  -19.9489  -15.6385 C   0  0  2  0  0  0  0  0  0  0  0  0
   28.8680  -20.8068  -16.2756 N   0  0  0  0  0  0  0  0  0  0  0  0
   26.7151  -20.7651  -15.2801 C   0  0  0  0  0  0  0  0  0  0  0  0
   26.4183  -21.8122  -15.9424 O   0  0  0  0  0  0  0  0  0  0  0  0
   26.6553  -19.9687   -7.6047 O   0  0  0  0  0  0  0  0  0  0  0  0
   26.3448  -20.5056   -8.8455 C   0  0  0  0  0  0  0  0  0  0  0  0
   27.3065  -20.7563   -9.8014 C   0  0  0  0  0  0  0  0  0  0  0  0
   27.0212  -21.2836  -11.0269 C   0  0  0  0  0  0  0  0  0  0  0  0
   25.7278  -21.5964  -11.3716 C   0  0  0  0  0  0  0  0  0  0  0  0
   25.3348  -22.1657  -12.6674 C   0  0  0  0  0  0  0  0  0  0  0  0
   24.8138  -21.2020  -13.6556 C   0  0  2  0  0  0  0  0  0  0  0  0
   25.9143  -20.3724  -14.1897 N   0  0  0  0  0  0  0  0  0  0  0  0
   23.7346  -20.3122  -13.3074 C   0  0  0  0  0  0  0  0  0  0  0  0
   24.0391  -19.1392  -12.8740 O   0  0  0  0  0  0  0  0  0  0  0  0
   24.7502  -21.3423  -10.4019 C   0  0  0  0  0  0  0  0  0  0  0  0
   25.0483  -20.8092   -9.1663 C   0  0  0  0  0  0  0  0  0  0  0  0
   22.3357  -20.5377  -13.3771 N   0  0  0  0  0  0  0  0  0  0  0  0
   21.4300  -19.5977  -14.0386 C   0  0  1  0  0  0  0  0  0  0  0  0
   21.9816  -19.2139  -15.3940 C   0  0  0  0  0  0  0  0  0  0  0  0
   21.1028  -18.3476  -16.1937 C   0  0  0  0  0  0  0  0  0  0  0  0
   19.8849  -17.8578  -15.7792 C   0  0  0  0  0  0  0  0  0  0  0  0
   19.3612  -17.1208  -16.7901 N   0  0  0  0  0  0  0  0  0  0  0  0
   20.2230  -17.1410  -17.8210 C   0  0  0  0  0  0  0  0  0  0  0  0
   21.2685  -17.8845  -17.4473 N   0  0  0  0  0  0  0  0  0  0  0  0
   20.1080  -20.2162  -14.2113 C   0  0  0  0  0  0  0  0  0  0  0  0
   18.9780  -19.4254  -14.4386 O   0  0  0  0  0  0  0  0  0  0  0  0
   19.9629  -21.4543  -14.1575 O   0  0  0  0  0  0  0  0  0  0  0  0
  2  3  1  0
  2  1  1  0
  3  4  1  1
  5  3  1  0
  5  6  1  6
  7  5  1  0
  7  8  2  0
  9 10  1  0
 10 11  2  0
 10 20  1  0
 11 12  1  0
 12 13  2  0
 13 14  1  0
 15 14  1  1
 15 16  1  0
 16  7  1  0
 17 15  1  0
 18 17  2  0
 19 13  1  0
 20 19  2  0
 21 17  1  0
 22 21  1  0
 22 29  1  0
 22 23  1  6
 24 23  1  0
 24 25  2  0
 26 25  1  0
 27 26  1  0
 28 27  2  0
 28 24  1  0
 29 31  2  0
 29 30  1  0
M  END
$$$$
