IYH.pdb
     RDKit          3D

 31 32  0  0  1  0  0  0  0  0999 V2000
   25.6516  -20.6358  -19.7713 C   0  0  0  0  0  0  0  0  0  0  0  0
   26.8108  -20.7150  -18.7873 C   0  0  0  0  0  0  0  0  0  0  0  0
   26.3430  -21.1545  -17.4153 C   0  0  2  0  0  0  0  0  0  0  0  0
   25.2839  -20.1846  -16.9652 C   0  0  0  0  0  0  0  0  0  0  0  0
   27.5512  -21.1651  -16.5122 C   0  0  2  0  0  0  0  0  0  0  0  0
   28.4743  -22.1465  -17.0378 N   0  0  0  0  0  0  0  0  0  0  0  0
   27.2194  -21.5334  -15.1201 C   0  0  0  0  0  0  0  0  0  0  0  0
   26.8295  -22.7110  -14.8300 O   0  0  0  0  0  0  0  0  0  0  0  0
   26.9530  -20.3477   -6.2356 O   0  0  0  0  0  0  0  0  0  0  0  0
   27.1817  -20.2669   -7.6015 C   0  0  0  0  0  0  0  0  0  0  0  0
   26.2745  -19.6944   -8.4678 C   0  0  0  0  0  0  0  0  0  0  0  0
   26.4811  -19.6056   -9.8135 C   0  0  0  0  0  0  0  0  0  0  0  0
   27.6336  -20.0962  -10.3797 C   0  0  0  0  0  0  0  0  0  0  0  0
   27.9341  -20.0417  -11.8165 C   0  0  0  0  0  0  0  0  0  0  0  0
   27.0468  -20.8395  -12.6842 C   0  0  2  0  0  0  0  0  0  0  0  0
   27.3389  -20.5625  -14.1064 N   0  0  0  0  0  0  0  0  0  0  0  0
   25.6164  -20.7766  -12.5190 C   0  0  0  0  0  0  0  0  0  0  0  0
   25.1593  -20.2752  -11.4252 O   0  0  0  0  0  0  0  0  0  0  0  0
   28.5556  -20.6779   -9.5011 C   0  0  0  0  0  0  0  0  0  0  0  0
   28.3380  -20.7630   -8.1427 C   0  0  0  0  0  0  0  0  0  0  0  0
   24.5966  -21.1932  -13.4130 N   0  0  0  0  0  0  0  0  0  0  0  0
   23.1764  -21.0212  -13.1050 C   0  0  1  0  0  0  0  0  0  0  0  0
   22.8524  -19.5507  -12.9599 C   0  0  0  0  0  0  0  0  0  0  0  0
   21.4357  -19.2551  -12.6990 C   0  0  0  0  0  0  0  0  0  0  0  0
   20.4384  -20.1975  -12.5885 C   0  0  0  0  0  0  0  0  0  0  0  0
   19.2678  -19.5482  -12.3706 N   0  0  0  0  0  0  0  0  0  0  0  0
   19.5135  -18.2273  -12.3432 C   0  0  0  0  0  0  0  0  0  0  0  0
   20.8248  -18.0653  -12.5426 N   0  0  0  0  0  0  0  0  0  0  0  0
   22.3590  -21.5931  -14.1842 C   0  0  0  0  0  0  0  0  0  0  0  0
   22.9620  -22.2556  -15.2572 O   0  0  0  0  0  0  0  0  0  0  0  0
   21.1148  -21.4998  -14.1699 O   0  0  0  0  0  0  0  0  0  0  0  0
  2  3  1  0
  2  1  1  0
  3  4  1  1
  5  3  1  0
  5  6  1  6
  7  5  1  0
  7  8  2  0
  9 10  1  0
 10 11  2  0
 10 20  1  0
 11 12  1  0
 12 13  2  0
 13 14  1  0
 15 14  1  1
 15 16  1  0
 16  7  1  0
 17 15  1  0
 18 17  2  0
 19 13  1  0
 20 19  2  0
 21 17  1  0
 22 21  1  0
 22 29  1  0
 22 23  1  6
 24 23  1  0
 24 25  2  0
 26 25  1  0
 27 26  1  0
 28 27  2  0
 28 24  1  0
 29 31  2  0
 29 30  1  0
M  END
$$$$
