IYH.pdb
     RDKit          3D

 31 32  0  0  1  0  0  0  0  0999 V2000
   23.5847  -10.8641  -20.9812 C   0  0  0  0  0  0  0  0  0  0  0  0
   23.2102  -11.1712  -19.5376 C   0  0  0  0  0  0  0  0  0  0  0  0
   22.0915  -10.2724  -19.0529 C   0  0  2  0  0  0  0  0  0  0  0  0
   22.5688   -8.8501  -19.1720 C   0  0  0  0  0  0  0  0  0  0  0  0
   21.7812  -10.6704  -17.6313 C   0  0  2  0  0  0  0  0  0  0  0  0
   21.4764  -12.0841  -17.6357 N   0  0  0  0  0  0  0  0  0  0  0  0
   20.6208   -9.9434  -17.0760 C   0  0  0  0  0  0  0  0  0  0  0  0
   19.5066   -9.9202  -17.6932 O   0  0  0  0  0  0  0  0  0  0  0  0
   15.6611  -13.4550  -14.7948 O   0  0  0  0  0  0  0  0  0  0  0  0
   16.5327  -12.3940  -14.5973 C   0  0  0  0  0  0  0  0  0  0  0  0
   17.7702  -12.5564  -14.0110 C   0  0  0  0  0  0  0  0  0  0  0  0
   18.6410  -11.5259  -13.8081 C   0  0  0  0  0  0  0  0  0  0  0  0
   18.3141  -10.2465  -14.1896 C   0  0  0  0  0  0  0  0  0  0  0  0
   19.1914   -9.0825  -14.0077 C   0  0  0  0  0  0  0  0  0  0  0  0
   19.6806   -8.4525  -15.2489 C   0  0  2  0  0  0  0  0  0  0  0  0
   20.7576   -9.2694  -15.8465 N   0  0  0  0  0  0  0  0  0  0  0  0
   20.1321   -7.0837  -15.2429 C   0  0  0  0  0  0  0  0  0  0  0  0
   21.3673   -6.8597  -14.9588 O   0  0  0  0  0  0  0  0  0  0  0  0
   17.0578  -10.0802  -14.7851 C   0  0  0  0  0  0  0  0  0  0  0  0
   16.1846  -11.1275  -14.9858 C   0  0  0  0  0  0  0  0  0  0  0  0
   19.3975   -5.9015  -15.5178 N   0  0  0  0  0  0  0  0  0  0  0  0
   20.0094   -4.5739  -15.4496 C   0  0  1  0  0  0  0  0  0  0  0  0
   21.1808   -4.4941  -16.4035 C   0  0  0  0  0  0  0  0  0  0  0  0
   21.7958   -3.1629  -16.5135 C   0  0  0  0  0  0  0  0  0  0  0  0
   23.0232   -2.8136  -15.9973 C   0  0  0  0  0  0  0  0  0  0  0  0
   23.2404   -1.5044  -16.2768 N   0  0  0  0  0  0  0  0  0  0  0  0
   22.1792   -1.0327  -16.9530 C   0  0  0  0  0  0  0  0  0  0  0  0
   21.3161   -2.0437  -17.0885 N   0  0  0  0  0  0  0  0  0  0  0  0
   19.0198   -3.5492  -15.8111 C   0  0  0  0  0  0  0  0  0  0  0  0
   19.3268   -2.1910  -15.6893 O   0  0  0  0  0  0  0  0  0  0  0  0
   17.8880   -3.8649  -16.2308 O   0  0  0  0  0  0  0  0  0  0  0  0
  2  3  1  0
  2  1  1  0
  3  4  1  1
  5  3  1  0
  5  6  1  6
  7  5  1  0
  7  8  2  0
  9 10  1  0
 10 11  2  0
 10 20  1  0
 11 12  1  0
 12 13  2  0
 13 14  1  0
 15 14  1  1
 15 16  1  0
 16  7  1  0
 17 15  1  0
 18 17  2  0
 19 13  1  0
 20 19  2  0
 21 17  1  0
 22 21  1  0
 22 29  1  0
 22 23  1  6
 24 23  1  0
 24 25  2  0
 26 25  1  0
 27 26  1  0
 28 27  2  0
 28 24  1  0
 29 31  2  0
 29 30  1  0
M  END
$$$$
