IYH.pdb
     RDKit          3D

 31 32  0  0  1  0  0  0  0  0999 V2000
   26.3265  -21.9953  -20.4912 C   0  0  0  0  0  0  0  0  0  0  0  0
   26.9720  -22.3021  -19.1468 C   0  0  0  0  0  0  0  0  0  0  0  0
   25.9391  -22.3789  -18.0415 C   0  0  2  0  0  0  0  0  0  0  0  0
   25.1918  -21.0726  -18.0279 C   0  0  0  0  0  0  0  0  0  0  0  0
   26.6792  -22.6453  -16.7544 C   0  0  2  0  0  0  0  0  0  0  0  0
   27.3070  -23.9422  -16.8781 N   0  0  0  0  0  0  0  0  0  0  0  0
   25.7861  -22.6683  -15.5774 C   0  0  0  0  0  0  0  0  0  0  0  0
   24.9938  -23.6454  -15.3760 O   0  0  0  0  0  0  0  0  0  0  0  0
   22.6454  -20.0321   -7.6151 O   0  0  0  0  0  0  0  0  0  0  0  0
   23.3648  -20.2209   -8.7862 C   0  0  0  0  0  0  0  0  0  0  0  0
   22.9218  -19.7552  -10.0062 C   0  0  0  0  0  0  0  0  0  0  0  0
   23.6146  -19.9308  -11.1683 C   0  0  0  0  0  0  0  0  0  0  0  0
   24.8166  -20.5975  -11.1741 C   0  0  0  0  0  0  0  0  0  0  0  0
   25.6245  -20.8302  -12.3786 C   0  0  0  0  0  0  0  0  0  0  0  0
   24.9276  -21.4978  -13.4946 C   0  0  2  0  0  0  0  0  0  0  0  0
   25.8180  -21.5906  -14.6706 N   0  0  0  0  0  0  0  0  0  0  0  0
   23.6541  -21.0062  -13.9573 C   0  0  0  0  0  0  0  0  0  0  0  0
   23.6562  -20.0523  -14.8214 O   0  0  0  0  0  0  0  0  0  0  0  0
   25.2675  -21.0710   -9.9359 C   0  0  0  0  0  0  0  0  0  0  0  0
   24.5605  -20.8888   -8.7669 C   0  0  0  0  0  0  0  0  0  0  0  0
   22.3498  -21.4324  -13.5970 N   0  0  0  0  0  0  0  0  0  0  0  0
   21.1484  -20.8184  -14.1636 C   0  0  1  0  0  0  0  0  0  0  0  0
   21.1592  -20.9534  -15.6703 C   0  0  0  0  0  0  0  0  0  0  0  0
   19.9656  -20.4217  -16.3448 C   0  0  0  0  0  0  0  0  0  0  0  0
   19.3419  -19.2354  -16.0306 C   0  0  0  0  0  0  0  0  0  0  0  0
   18.2693  -19.0941  -16.8483 N   0  0  0  0  0  0  0  0  0  0  0  0
   18.2115  -20.1623  -17.6616 C   0  0  0  0  0  0  0  0  0  0  0  0
   19.2405  -20.9545  -17.3467 N   0  0  0  0  0  0  0  0  0  0  0  0
   19.9500  -21.4786  -13.6268 C   0  0  0  0  0  0  0  0  0  0  0  0
   18.6745  -21.0030  -13.9444 O   0  0  0  0  0  0  0  0  0  0  0  0
   20.0417  -22.4722  -12.8777 O   0  0  0  0  0  0  0  0  0  0  0  0
  2  3  1  0
  2  1  1  0
  3  4  1  1
  5  3  1  0
  5  6  1  6
  7  5  1  0
  7  8  2  0
  9 10  1  0
 10 11  2  0
 10 20  1  0
 11 12  1  0
 12 13  2  0
 13 14  1  0
 15 14  1  1
 15 16  1  0
 16  7  1  0
 17 15  1  0
 18 17  2  0
 19 13  1  0
 20 19  2  0
 21 17  1  0
 22 21  1  0
 22 29  1  0
 22 23  1  6
 24 23  1  0
 24 25  2  0
 26 25  1  0
 27 26  1  0
 28 27  2  0
 28 24  1  0
 29 31  2  0
 29 30  1  0
M  END
$$$$
