IYH.pdb
     RDKit          3D

 31 32  0  0  1  0  0  0  0  0999 V2000
   28.0432  -15.7564  -19.6564 C   0  0  0  0  0  0  0  0  0  0  0  0
   27.2879  -14.5442  -19.1290 C   0  0  0  0  0  0  0  0  0  0  0  0
   25.9598  -14.9420  -18.5190 C   0  0  2  0  0  0  0  0  0  0  0  0
   25.2351  -15.7936  -19.5264 C   0  0  0  0  0  0  0  0  0  0  0  0
   25.2208  -13.6698  -18.1858 C   0  0  2  0  0  0  0  0  0  0  0  0
   25.9885  -12.9769  -17.1748 N   0  0  0  0  0  0  0  0  0  0  0  0
   23.8652  -13.9204  -17.6538 C   0  0  0  0  0  0  0  0  0  0  0  0
   23.0364  -14.6484  -18.2910 O   0  0  0  0  0  0  0  0  0  0  0  0
   23.4910  -19.7630  -15.1174 O   0  0  0  0  0  0  0  0  0  0  0  0
   23.1655  -18.4203  -14.9920 C   0  0  0  0  0  0  0  0  0  0  0  0
   21.9196  -17.9303  -15.3223 C   0  0  0  0  0  0  0  0  0  0  0  0
   21.5804  -16.6139  -15.2061 C   0  0  0  0  0  0  0  0  0  0  0  0
   22.4903  -15.6939  -14.7423 C   0  0  0  0  0  0  0  0  0  0  0  0
   22.2076  -14.2607  -14.5876 C   0  0  0  0  0  0  0  0  0  0  0  0
   22.1424  -13.4848  -15.8408 C   0  0  2  0  0  0  0  0  0  0  0  0
   23.4928  -13.3422  -16.4243 N   0  0  0  0  0  0  0  0  0  0  0  0
   21.5259  -12.1821  -15.8604 C   0  0  0  0  0  0  0  0  0  0  0  0
   21.2426  -11.6342  -14.7307 O   0  0  0  0  0  0  0  0  0  0  0  0
   23.7558  -16.1901  -14.4067 C   0  0  0  0  0  0  0  0  0  0  0  0
   24.0892  -17.5220  -14.5274 C   0  0  0  0  0  0  0  0  0  0  0  0
   21.1754  -11.3786  -16.9759 N   0  0  0  0  0  0  0  0  0  0  0  0
   20.6077  -10.0388  -16.8197 C   0  0  1  0  0  0  0  0  0  0  0  0
   21.5429   -9.1719  -16.0058 C   0  0  0  0  0  0  0  0  0  0  0  0
   21.1484   -8.9906  -14.6009 C   0  0  0  0  0  0  0  0  0  0  0  0
   20.0122   -9.5123  -14.0248 C   0  0  0  0  0  0  0  0  0  0  0  0
   19.9773   -9.1157  -12.7283 N   0  0  0  0  0  0  0  0  0  0  0  0
   21.0626   -8.3613  -12.4856 C   0  0  0  0  0  0  0  0  0  0  0  0
   21.7596   -8.2944  -13.6236 N   0  0  0  0  0  0  0  0  0  0  0  0
   20.4050   -9.4258  -18.1399 C   0  0  0  0  0  0  0  0  0  0  0  0
   19.8151   -8.1636  -18.2540 O   0  0  0  0  0  0  0  0  0  0  0  0
   20.7506  -10.0142  -19.1845 O   0  0  0  0  0  0  0  0  0  0  0  0
  2  3  1  0
  2  1  1  0
  3  4  1  6
  5  3  1  0
  5  6  1  1
  7  5  1  0
  7  8  2  0
  9 10  1  0
 10 11  2  0
 10 20  1  0
 11 12  1  0
 12 13  2  0
 13 14  1  0
 15 14  1  1
 15 16  1  0
 16  7  1  0
 17 15  1  0
 18 17  2  0
 19 13  1  0
 20 19  2  0
 21 17  1  0
 22 21  1  0
 22 29  1  0
 22 23  1  1
 24 23  1  0
 24 25  2  0
 26 25  1  0
 27 26  1  0
 28 27  2  0
 28 24  1  0
 29 31  2  0
 29 30  1  0
M  END
$$$$
