IYH.pdb
     RDKit          3D

 31 32  0  0  1  0  0  0  0  0999 V2000
   26.0736  -16.1092  -14.5363 C   0  0  0  0  0  0  0  0  0  0  0  0
   26.1462  -15.0814  -15.6573 C   0  0  0  0  0  0  0  0  0  0  0  0
   24.8059  -14.4128  -15.8828 C   0  0  2  0  0  0  0  0  0  0  0  0
   23.8069  -15.4941  -16.1957 C   0  0  0  0  0  0  0  0  0  0  0  0
   24.9803  -13.4297  -17.0135 C   0  0  2  0  0  0  0  0  0  0  0  0
   26.3653  -13.0137  -17.0139 N   0  0  0  0  0  0  0  0  0  0  0  0
   24.1315  -12.2297  -16.8618 C   0  0  0  0  0  0  0  0  0  0  0  0
   22.8748  -12.2874  -17.0626 O   0  0  0  0  0  0  0  0  0  0  0  0
   22.3173   -3.8797  -14.2049 O   0  0  0  0  0  0  0  0  0  0  0  0
   22.8394   -5.1479  -14.4135 C   0  0  0  0  0  0  0  0  0  0  0  0
   22.3039   -6.2718  -13.8205 C   0  0  0  0  0  0  0  0  0  0  0  0
   22.8029   -7.5269  -14.0131 C   0  0  0  0  0  0  0  0  0  0  0  0
   23.8904   -7.7314  -14.8286 C   0  0  0  0  0  0  0  0  0  0  0  0
   24.4896   -9.0471  -15.0890 C   0  0  0  0  0  0  0  0  0  0  0  0
   23.9576   -9.7694  -16.2603 C   0  0  2  0  0  0  0  0  0  0  0  0
   24.7287  -11.0093  -16.4896 N   0  0  0  0  0  0  0  0  0  0  0  0
   23.8283   -9.1022  -17.5314 C   0  0  0  0  0  0  0  0  0  0  0  0
   24.8866   -8.9724  -18.2523 O   0  0  0  0  0  0  0  0  0  0  0  0
   24.4351   -6.5910  -15.4313 C   0  0  0  0  0  0  0  0  0  0  0  0
   23.9240   -5.3269  -15.2307 C   0  0  0  0  0  0  0  0  0  0  0  0
   22.6686   -8.5510  -18.1349 N   0  0  0  0  0  0  0  0  0  0  0  0
   22.7311   -7.7857  -19.3807 C   0  0  1  0  0  0  0  0  0  0  0  0
   21.9608   -8.5023  -20.4678 C   0  0  0  0  0  0  0  0  0  0  0  0
   22.0160   -7.8581  -21.7885 C   0  0  0  0  0  0  0  0  0  0  0  0
   23.0696   -7.1074  -22.2589 C   0  0  0  0  0  0  0  0  0  0  0  0
   22.7487   -6.6623  -23.4992 N   0  0  0  0  0  0  0  0  0  0  0  0
   21.5232   -7.1176  -23.8100 C   0  0  0  0  0  0  0  0  0  0  0  0
   21.0935   -7.8370  -22.7693 N   0  0  0  0  0  0  0  0  0  0  0  0
   22.1514   -6.4508  -19.1759 C   0  0  0  0  0  0  0  0  0  0  0  0
   21.5448   -6.1186  -17.9611 O   0  0  0  0  0  0  0  0  0  0  0  0
   22.1847   -5.5879  -20.0764 O   0  0  0  0  0  0  0  0  0  0  0  0
  2  3  1  0
  2  1  1  0
  3  4  1  6
  5  3  1  0
  5  6  1  1
  7  5  1  0
  7  8  2  0
  9 10  1  0
 10 11  2  0
 10 20  1  0
 11 12  1  0
 12 13  2  0
 13 14  1  0
 15 14  1  1
 15 16  1  0
 16  7  1  0
 17 15  1  0
 18 17  2  0
 19 13  1  0
 20 19  2  0
 21 17  1  0
 22 21  1  0
 22 29  1  0
 22 23  1  6
 24 23  1  0
 24 25  2  0
 26 25  1  0
 27 26  1  0
 28 27  2  0
 28 24  1  0
 29 31  2  0
 29 30  1  0
M  END
$$$$
