IYH.pdb
     RDKit          3D

 31 32  0  0  1  0  0  0  0  0999 V2000
   21.7380  -11.1258  -18.7402 C   0  0  0  0  0  0  0  0  0  0  0  0
   22.4615  -12.4648  -18.6975 C   0  0  0  0  0  0  0  0  0  0  0  0
   21.4857  -13.6179  -18.5848 C   0  0  2  0  0  0  0  0  0  0  0  0
   20.7528  -13.4656  -17.2792 C   0  0  0  0  0  0  0  0  0  0  0  0
   22.2880  -14.8929  -18.6625 C   0  0  2  0  0  0  0  0  0  0  0  0
   23.0285  -14.8620  -19.9043 N   0  0  0  0  0  0  0  0  0  0  0  0
   21.4390  -16.1023  -18.6541 C   0  0  0  0  0  0  0  0  0  0  0  0
   20.6285  -16.3395  -19.6080 O   0  0  0  0  0  0  0  0  0  0  0  0
   24.1086  -20.9393  -22.0905 O   0  0  0  0  0  0  0  0  0  0  0  0
   23.4409  -20.5696  -20.9321 C   0  0  0  0  0  0  0  0  0  0  0  0
   22.0897  -20.7849  -20.7599 C   0  0  0  0  0  0  0  0  0  0  0  0
   21.4154  -20.4286  -19.6286 C   0  0  0  0  0  0  0  0  0  0  0  0
   22.0709  -19.8232  -18.5831 C   0  0  0  0  0  0  0  0  0  0  0  0
   21.4215  -19.4079  -17.3326 C   0  0  0  0  0  0  0  0  0  0  0  0
   20.6353  -18.1616  -17.4058 C   0  0  2  0  0  0  0  0  0  0  0  0
   21.5337  -16.9998  -17.5724 N   0  0  0  0  0  0  0  0  0  0  0  0
   19.6939  -17.8314  -16.3655 C   0  0  0  0  0  0  0  0  0  0  0  0
   20.1627  -17.5088  -15.2111 O   0  0  0  0  0  0  0  0  0  0  0  0
   23.4429  -19.6039  -18.7567 C   0  0  0  0  0  0  0  0  0  0  0  0
   24.1156  -19.9674  -19.9034 C   0  0  0  0  0  0  0  0  0  0  0  0
   18.2766  -17.8008  -16.4228 N   0  0  0  0  0  0  0  0  0  0  0  0
   17.4605  -17.4422  -15.2623 C   0  0  1  0  0  0  0  0  0  0  0  0
   17.0148  -16.0004  -15.3683 C   0  0  0  0  0  0  0  0  0  0  0  0
   16.0864  -15.5638  -14.3148 C   0  0  0  0  0  0  0  0  0  0  0  0
   15.6234  -16.3575  -13.2899 C   0  0  0  0  0  0  0  0  0  0  0  0
   14.7740  -15.6173  -12.5349 N   0  0  0  0  0  0  0  0  0  0  0  0
   14.6983  -14.3849  -13.0653 C   0  0  0  0  0  0  0  0  0  0  0  0
   15.4948  -14.3671  -14.1380 N   0  0  0  0  0  0  0  0  0  0  0  0
   16.2771  -18.3113  -15.1968 C   0  0  0  0  0  0  0  0  0  0  0  0
   15.4687  -18.3259  -14.0565 O   0  0  0  0  0  0  0  0  0  0  0  0
   15.9685  -19.0541  -16.1507 O   0  0  0  0  0  0  0  0  0  0  0  0
  2  3  1  0
  2  1  1  0
  3  4  1  1
  5  3  1  0
  5  6  1  6
  7  5  1  0
  7  8  2  0
  9 10  1  0
 10 11  2  0
 10 20  1  0
 11 12  1  0
 12 13  2  0
 13 14  1  0
 15 14  1  1
 15 16  1  0
 16  7  1  0
 17 15  1  0
 18 17  2  0
 19 13  1  0
 20 19  2  0
 21 17  1  0
 22 21  1  0
 22 29  1  0
 22 23  1  6
 24 23  1  0
 24 25  2  0
 26 25  1  0
 27 26  1  0
 28 27  2  0
 28 24  1  0
 29 31  2  0
 29 30  1  0
M  END
$$$$
