DNW.pdb
     RDKit          3D

 31 32  0  0  1  0  0  0  0  0999 V2000
   25.0817  -23.7191  -17.4285 N   0  0  0  0  0  0  0  0  0  0  0  0
   24.6898  -22.5830  -16.6288 C   0  0  1  0  0  0  0  0  0  0  0  0
   23.2963  -22.6948  -16.0577 C   0  0  0  0  0  0  0  0  0  0  0  0
   22.2373  -22.6699  -17.0873 C   0  0  0  0  0  0  0  0  0  0  0  0
   21.6157  -23.7416  -17.3050 O   0  0  0  0  0  0  0  0  0  0  0  0
   25.7286  -22.3407  -15.5977 C   0  0  0  0  0  0  0  0  0  0  0  0
   26.5427  -23.2714  -15.2830 O   0  0  0  0  0  0  0  0  0  0  0  0
   21.9011  -21.5538  -17.8094 O   0  0  0  0  0  0  0  0  0  0  0  0
   29.7981  -19.7450  -12.9182 N   0  0  0  0  0  0  0  0  0  0  0  0
   28.5052  -19.1930  -13.0862 C   0  0  0  0  0  0  0  0  0  0  0  0
   28.1762  -18.3633  -12.1637 O   0  0  0  0  0  0  0  0  0  0  0  0
   27.5689  -19.4869  -14.1839 C   0  0  0  0  0  0  0  0  0  0  0  0
   26.9152  -20.8167  -13.9833 C   0  0  2  0  0  0  0  0  0  0  0  0
   25.8400  -21.0765  -14.9402 N   0  0  0  0  0  0  0  0  0  0  0  0
   26.3507  -20.9881  -12.6268 C   0  0  0  0  0  0  0  0  0  0  0  0
   25.1519  -20.6580  -12.3851 O   0  0  0  0  0  0  0  0  0  0  0  0
   27.0814  -21.5179  -11.5278 N   0  0  0  0  0  0  0  0  0  0  0  0
   26.5064  -21.5553  -10.1652 C   0  0  1  0  0  0  0  0  0  0  0  0
   27.5689  -21.8064   -9.1580 C   0  0  0  0  0  0  0  0  0  0  0  0
   27.5380  -20.8598   -8.0405 C   0  0  0  0  0  0  0  0  0  0  0  0
   26.4751  -19.9653   -7.8190 C   0  0  0  0  0  0  0  0  0  0  0  0
   26.7185  -19.2745   -6.7094 N   0  0  0  0  0  0  0  0  0  0  0  0
   27.8805  -19.6320   -6.1497 C   0  0  0  0  0  0  0  0  0  0  0  0
   28.5462  -19.1982   -5.0198 C   0  0  0  0  0  0  0  0  0  0  0  0
   29.7631  -19.7537   -4.6909 C   0  0  0  0  0  0  0  0  0  0  0  0
   30.2712  -20.7325   -5.5160 C   0  0  0  0  0  0  0  0  0  0  0  0
   29.6004  -21.1689   -6.6531 C   0  0  0  0  0  0  0  0  0  0  0  0
   28.3893  -20.6218   -6.9850 C   0  0  0  0  0  0  0  0  0  0  0  0
   25.7302  -20.3391   -9.9329 C   0  0  0  0  0  0  0  0  0  0  0  0
   26.0984  -19.2553  -10.4368 O   0  0  0  0  0  0  0  0  0  0  0  0
   24.5649  -20.2948   -9.1616 O   0  0  0  0  0  0  0  0  0  0  0  0
  2  1  1  1
  2  3  1  0
  3  4  1  0
  4  5  2  0
  4  8  1  0
  6  2  1  0
  7  6  2  0
  9 10  1  0
 10 11  2  0
 12 10  1  0
 13 12  1  1
 13 14  1  0
 14  6  1  0
 15 13  1  0
 15 17  1  0
 16 15  2  0
 18 19  1  1
 18 29  1  0
 18 17  1  0
 20 19  1  0
 20 21  2  0
 22 21  1  0
 23 28  2  0
 23 22  1  0
 24 23  1  0
 25 26  1  0
 25 24  2  0
 26 27  2  0
 27 28  1  0
 28 20  1  0
 29 31  1  0
 30 29  2  0
M  END
$$$$
