DNW.pdb
     RDKit          3D

 31 32  0  0  1  0  0  0  0  0999 V2000
   27.5971  -22.4314  -15.6607 N   0  0  0  0  0  0  0  0  0  0  0  0
   28.4408  -21.2601  -15.6397 C   0  0  1  0  0  0  0  0  0  0  0  0
   28.9946  -20.8870  -16.9942 C   0  0  0  0  0  0  0  0  0  0  0  0
   29.6518  -22.0128  -17.6889 C   0  0  0  0  0  0  0  0  0  0  0  0
   29.5760  -23.1482  -17.1527 O   0  0  0  0  0  0  0  0  0  0  0  0
   27.7072  -20.1519  -14.9804 C   0  0  0  0  0  0  0  0  0  0  0  0
   27.9072  -18.9472  -15.3502 O   0  0  0  0  0  0  0  0  0  0  0  0
   30.3321  -21.8864  -18.8728 O   0  0  0  0  0  0  0  0  0  0  0  0
   22.6416  -19.2086  -14.2695 N   0  0  0  0  0  0  0  0  0  0  0  0
   23.2698  -20.0282  -15.2381 C   0  0  0  0  0  0  0  0  0  0  0  0
   22.4992  -20.3592  -16.2099 O   0  0  0  0  0  0  0  0  0  0  0  0
   24.6654  -20.4968  -15.2092 C   0  0  0  0  0  0  0  0  0  0  0  0
   25.3882  -19.9412  -14.0240 C   0  0  2  0  0  0  0  0  0  0  0  0
   26.7725  -20.4036  -13.9289 N   0  0  0  0  0  0  0  0  0  0  0  0
   24.7272  -20.2578  -12.7391 C   0  0  0  0  0  0  0  0  0  0  0  0
   23.5124  -19.9520  -12.5510 O   0  0  0  0  0  0  0  0  0  0  0  0
   25.3783  -20.9067  -11.6540 N   0  0  0  0  0  0  0  0  0  0  0  0
   24.7207  -21.0551  -10.3371 C   0  0  1  0  0  0  0  0  0  0  0  0
   25.3839  -20.1948   -9.3238 C   0  0  0  0  0  0  0  0  0  0  0  0
   26.7565  -20.6104   -9.0255 C   0  0  0  0  0  0  0  0  0  0  0  0
   27.4943  -21.4782   -9.8510 C   0  0  0  0  0  0  0  0  0  0  0  0
   28.7120  -21.6275   -9.3386 N   0  0  0  0  0  0  0  0  0  0  0  0
   28.8643  -20.9206   -8.2125 C   0  0  0  0  0  0  0  0  0  0  0  0
   29.9238  -20.7710   -7.3389 C   0  0  0  0  0  0  0  0  0  0  0  0
   29.7823  -19.9693   -6.2277 C   0  0  0  0  0  0  0  0  0  0  0  0
   28.5715  -19.3424   -6.0326 C   0  0  0  0  0  0  0  0  0  0  0  0
   27.5055  -19.4932   -6.9125 C   0  0  0  0  0  0  0  0  0  0  0  0
   27.6400  -20.2876   -8.0202 C   0  0  0  0  0  0  0  0  0  0  0  0
   23.2858  -20.8198  -10.4822 C   0  0  0  0  0  0  0  0  0  0  0  0
   22.5596  -20.7336   -9.4677 O   0  0  0  0  0  0  0  0  0  0  0  0
   22.6407  -20.6790  -11.7147 O   0  0  0  0  0  0  0  0  0  0  0  0
  2  1  1  6
  2  3  1  0
  3  4  1  0
  4  5  2  0
  4  8  1  0
  6  2  1  0
  7  6  2  0
  9 10  1  0
 10 11  2  0
 12 10  1  0
 13 12  1  6
 13 14  1  0
 14  6  1  0
 15 13  1  0
 15 17  1  0
 16 15  2  0
 18 19  1  1
 18 29  1  0
 18 17  1  0
 20 19  1  0
 20 21  2  0
 22 21  1  0
 23 28  2  0
 23 22  1  0
 24 23  1  0
 25 26  1  0
 25 24  2  0
 26 27  2  0
 27 28  1  0
 28 20  1  0
 29 31  1  0
 30 29  2  0
M  END
$$$$
