DNW.pdb
     RDKit          3D

 31 32  0  0  1  0  0  0  0  0999 V2000
   28.3434  -18.6407  -14.9608 N   0  0  0  0  0  0  0  0  0  0  0  0
   27.1680  -17.9529  -15.4398 C   0  0  1  0  0  0  0  0  0  0  0  0
   27.4107  -17.1303  -16.6827 C   0  0  0  0  0  0  0  0  0  0  0  0
   28.1954  -17.8418  -17.7124 C   0  0  0  0  0  0  0  0  0  0  0  0
   28.4656  -17.2165  -18.7698 O   0  0  0  0  0  0  0  0  0  0  0  0
   26.0661  -18.9345  -15.5920 C   0  0  0  0  0  0  0  0  0  0  0  0
   25.2526  -18.8321  -16.5697 O   0  0  0  0  0  0  0  0  0  0  0  0
   28.6385  -19.1324  -17.5774 O   0  0  0  0  0  0  0  0  0  0  0  0
   26.3622  -24.1503  -14.5271 N   0  0  0  0  0  0  0  0  0  0  0  0
   26.3586  -22.8465  -15.0790 C   0  0  0  0  0  0  0  0  0  0  0  0
   27.5046  -22.2694  -15.0433 O   0  0  0  0  0  0  0  0  0  0  0  0
   25.1983  -22.1499  -15.6593 C   0  0  0  0  0  0  0  0  0  0  0  0
   24.8097  -20.9748  -14.8203 C   0  0  2  0  0  0  0  0  0  0  0  0
   25.8911  -20.0033  -14.6593 N   0  0  0  0  0  0  0  0  0  0  0  0
   24.3508  -21.3538  -13.4661 C   0  0  0  0  0  0  0  0  0  0  0  0
   23.5130  -22.2913  -13.3123 O   0  0  0  0  0  0  0  0  0  0  0  0
   24.7976  -20.7200  -12.2739 N   0  0  0  0  0  0  0  0  0  0  0  0
   24.0070  -20.7810  -11.0249 C   0  0  1  0  0  0  0  0  0  0  0  0
   24.7438  -20.1327   -9.9098 C   0  0  0  0  0  0  0  0  0  0  0  0
   26.0802  -20.6944   -9.6995 C   0  0  0  0  0  0  0  0  0  0  0  0
   26.6811  -21.6042  -10.5884 C   0  0  0  0  0  0  0  0  0  0  0  0
   27.9022  -21.8926  -10.1484 N   0  0  0  0  0  0  0  0  0  0  0  0
   28.1846  -21.2425   -9.0131 C   0  0  0  0  0  0  0  0  0  0  0  0
   29.2980  -21.2298   -8.1956 C   0  0  0  0  0  0  0  0  0  0  0  0
   29.2975  -20.4553   -7.0564 C   0  0  0  0  0  0  0  0  0  0  0  0
   28.1693  -19.7163   -6.7773 C   0  0  0  0  0  0  0  0  0  0  0  0
   27.0490  -19.7294   -7.6008 C   0  0  0  0  0  0  0  0  0  0  0  0
   27.0434  -20.4960   -8.7360 C   0  0  0  0  0  0  0  0  0  0  0  0
   22.6744  -20.2325  -11.2671 C   0  0  0  0  0  0  0  0  0  0  0  0
   22.5004  -19.3860  -12.1711 O   0  0  0  0  0  0  0  0  0  0  0  0
   21.5385  -20.5960  -10.5374 O   0  0  0  0  0  0  0  0  0  0  0  0
  2  1  1  6
  2  3  1  0
  3  4  1  0
  4  5  2  0
  4  8  1  0
  6  2  1  0
  7  6  2  0
  9 10  1  0
 10 11  2  0
 12 10  1  0
 13 12  1  1
 13 14  1  0
 14  6  1  0
 15 13  1  0
 15 17  1  0
 16 15  2  0
 18 19  1  1
 18 29  1  0
 18 17  1  0
 20 19  1  0
 20 21  2  0
 22 21  1  0
 23 28  2  0
 23 22  1  0
 24 23  1  0
 25 26  1  0
 25 24  2  0
 26 27  2  0
 27 28  1  0
 28 20  1  0
 29 31  1  0
 30 29  2  0
M  END
$$$$
