DNW.pdb
     RDKit          3D

 31 32  0  0  1  0  0  0  0  0999 V2000
   20.6127  -18.6887  -13.7655 N   0  0  0  0  0  0  0  0  0  0  0  0
   20.0532  -19.8122  -13.0523 C   0  0  1  0  0  0  0  0  0  0  0  0
   18.9115  -20.4837  -13.7776 C   0  0  0  0  0  0  0  0  0  0  0  0
   17.7671  -19.5842  -14.0290 C   0  0  0  0  0  0  0  0  0  0  0  0
   17.0144  -19.3187  -13.0568 O   0  0  0  0  0  0  0  0  0  0  0  0
   21.1487  -20.7454  -12.6915 C   0  0  0  0  0  0  0  0  0  0  0  0
   20.8845  -21.8265  -12.0673 O   0  0  0  0  0  0  0  0  0  0  0  0
   17.4857  -19.0307  -15.2516 O   0  0  0  0  0  0  0  0  0  0  0  0
   25.1716  -24.2964  -13.2159 N   0  0  0  0  0  0  0  0  0  0  0  0
   25.2833  -22.9323  -13.5781 C   0  0  0  0  0  0  0  0  0  0  0  0
   26.4905  -22.4960  -13.5738 O   0  0  0  0  0  0  0  0  0  0  0  0
   24.1743  -22.0339  -13.9402 C   0  0  0  0  0  0  0  0  0  0  0  0
   23.5769  -21.4084  -12.7205 C   0  0  2  0  0  0  0  0  0  0  0  0
   22.5077  -20.4592  -13.0288 N   0  0  0  0  0  0  0  0  0  0  0  0
   24.5704  -20.6990  -11.8852 C   0  0  0  0  0  0  0  0  0  0  0  0
   25.0450  -19.5859  -12.2600 O   0  0  0  0  0  0  0  0  0  0  0  0
   25.0531  -21.1914  -10.6414 N   0  0  0  0  0  0  0  0  0  0  0  0
   26.1453  -20.5092   -9.9131 C   0  0  1  0  0  0  0  0  0  0  0  0
   26.1769  -20.9457   -8.4935 C   0  0  0  0  0  0  0  0  0  0  0  0
   26.9609  -20.0547   -7.6348 C   0  0  0  0  0  0  0  0  0  0  0  0
   27.1870  -18.6991   -7.9351 C   0  0  0  0  0  0  0  0  0  0  0  0
   27.8905  -18.1516   -6.9487 N   0  0  0  0  0  0  0  0  0  0  0  0
   28.1665  -19.0400   -5.9864 C   0  0  0  0  0  0  0  0  0  0  0  0
   28.8633  -18.9440   -4.7977 C   0  0  0  0  0  0  0  0  0  0  0  0
   28.9998  -20.0562   -3.9965 C   0  0  0  0  0  0  0  0  0  0  0  0
   28.4271  -21.2341   -4.4224 C   0  0  0  0  0  0  0  0  0  0  0  0
   27.7255  -21.3301   -5.6191 C   0  0  0  0  0  0  0  0  0  0  0  0
   27.5846  -20.2275   -6.4197 C   0  0  0  0  0  0  0  0  0  0  0  0
   27.4027  -20.7029  -10.6320 C   0  0  0  0  0  0  0  0  0  0  0  0
   27.7369  -21.8465  -11.0122 O   0  0  0  0  0  0  0  0  0  0  0  0
   28.2922  -19.6684  -10.9374 O   0  0  0  0  0  0  0  0  0  0  0  0
  2  1  1  6
  2  3  1  0
  3  4  1  0
  4  5  2  0
  4  8  1  0
  6  2  1  0
  7  6  2  0
  9 10  1  0
 10 11  2  0
 12 10  1  0
 13 12  1  6
 13 14  1  0
 14  6  1  0
 15 13  1  0
 15 17  1  0
 16 15  2  0
 18 19  1  1
 18 29  1  0
 18 17  1  0
 20 19  1  0
 20 21  2  0
 22 21  1  0
 23 28  2  0
 23 22  1  0
 24 23  1  0
 25 26  1  0
 25 24  2  0
 26 27  2  0
 27 28  1  0
 28 20  1  0
 29 31  1  0
 30 29  2  0
M  END
$$$$
