DNW.pdb
     RDKit          3D

 31 32  0  0  1  0  0  0  0  0999 V2000
   30.5638  -23.2576  -17.4200 N   0  0  0  0  0  0  0  0  0  0  0  0
   29.1852  -22.8383  -17.5078 C   0  0  1  0  0  0  0  0  0  0  0  0
   28.2149  -23.9796  -17.6987 C   0  0  0  0  0  0  0  0  0  0  0  0
   28.1677  -24.4826  -19.0869 C   0  0  0  0  0  0  0  0  0  0  0  0
   28.4693  -25.6889  -19.2766 O   0  0  0  0  0  0  0  0  0  0  0  0
   28.8667  -21.9876  -16.3348 C   0  0  0  0  0  0  0  0  0  0  0  0
   29.5801  -22.0648  -15.2797 O   0  0  0  0  0  0  0  0  0  0  0  0
   27.8170  -23.7126  -20.1659 O   0  0  0  0  0  0  0  0  0  0  0  0
   27.3772  -17.1087  -13.7216 N   0  0  0  0  0  0  0  0  0  0  0  0
   26.6709  -17.9541  -14.6110 C   0  0  0  0  0  0  0  0  0  0  0  0
   25.4058  -17.9846  -14.3964 O   0  0  0  0  0  0  0  0  0  0  0  0
   27.2547  -18.7517  -15.7024 C   0  0  0  0  0  0  0  0  0  0  0  0
   27.5326  -20.1494  -15.2495 C   0  0  2  0  0  0  0  0  0  0  0  0
   27.7674  -21.0745  -16.3577 N   0  0  0  0  0  0  0  0  0  0  0  0
   26.4474  -20.7185  -14.4210 C   0  0  0  0  0  0  0  0  0  0  0  0
   25.3651  -21.1008  -14.9569 O   0  0  0  0  0  0  0  0  0  0  0  0
   26.5300  -20.8763  -13.0100 N   0  0  0  0  0  0  0  0  0  0  0  0
   25.4574  -21.5492  -12.2450 C   0  0  1  0  0  0  0  0  0  0  0  0
   26.0113  -22.1905  -11.0249 C   0  0  0  0  0  0  0  0  0  0  0  0
   26.4450  -21.2240  -10.0131 C   0  0  0  0  0  0  0  0  0  0  0  0
   25.6457  -20.1492   -9.5832 C   0  0  0  0  0  0  0  0  0  0  0  0
   26.2952  -19.4834   -8.6331 N   0  0  0  0  0  0  0  0  0  0  0  0
   27.4915  -20.0268   -8.3786 C   0  0  0  0  0  0  0  0  0  0  0  0
   28.5045  -19.6884   -7.5026 C   0  0  0  0  0  0  0  0  0  0  0  0
   29.6568  -20.4425   -7.4698 C   0  0  0  0  0  0  0  0  0  0  0  0
   29.7505  -21.5176   -8.3256 C   0  0  0  0  0  0  0  0  0  0  0  0
   28.7303  -21.8580   -9.2070 C   0  0  0  0  0  0  0  0  0  0  0  0
   27.5812  -21.1132   -9.2435 C   0  0  0  0  0  0  0  0  0  0  0  0
   24.3754  -20.6007  -11.9897 C   0  0  0  0  0  0  0  0  0  0  0  0
   23.2237  -21.0176  -11.7368 O   0  0  0  0  0  0  0  0  0  0  0  0
   24.5371  -19.2121  -12.0078 O   0  0  0  0  0  0  0  0  0  0  0  0
  2  1  1  1
  2  3  1  0
  3  4  1  0
  4  5  2  0
  4  8  1  0
  6  2  1  0
  7  6  2  0
  9 10  1  0
 10 11  2  0
 12 10  1  0
 13 12  1  6
 13 14  1  0
 14  6  1  0
 15 13  1  0
 15 17  1  0
 16 15  2  0
 18 19  1  1
 18 29  1  0
 18 17  1  0
 20 19  1  0
 20 21  2  0
 22 21  1  0
 23 28  2  0
 23 22  1  0
 24 23  1  0
 25 26  1  0
 25 24  2  0
 26 27  2  0
 27 28  1  0
 28 20  1  0
 29 31  1  0
 30 29  2  0
M  END
$$$$
