DNW.pdb
     RDKit          3D

 31 32  0  0  1  0  0  0  0  0999 V2000
   27.4354  -19.3822  -18.8296 N   0  0  0  0  0  0  0  0  0  0  0  0
   27.5384  -19.7796  -17.4456 C   0  0  1  0  0  0  0  0  0  0  0  0
   27.6292  -18.6173  -16.4857 C   0  0  0  0  0  0  0  0  0  0  0  0
   28.4397  -17.4945  -17.0001 C   0  0  0  0  0  0  0  0  0  0  0  0
   27.8425  -16.6000  -17.6523 O   0  0  0  0  0  0  0  0  0  0  0  0
   26.4306  -20.7149  -17.1311 C   0  0  0  0  0  0  0  0  0  0  0  0
   25.3044  -20.5880  -17.7173 O   0  0  0  0  0  0  0  0  0  0  0  0
   29.7922  -17.3782  -16.8064 O   0  0  0  0  0  0  0  0  0  0  0  0
   25.2330  -26.5020  -15.7145 N   0  0  0  0  0  0  0  0  0  0  0  0
   25.0751  -25.2016  -16.2517 C   0  0  0  0  0  0  0  0  0  0  0  0
   23.8794  -24.9487  -16.6441 O   0  0  0  0  0  0  0  0  0  0  0  0
   26.1269  -24.1792  -16.3807 C   0  0  0  0  0  0  0  0  0  0  0  0
   25.5955  -22.8239  -16.0395 C   0  0  2  0  0  0  0  0  0  0  0  0
   26.5956  -21.7655  -16.1762 N   0  0  0  0  0  0  0  0  0  0  0  0
   25.0502  -22.7420  -14.6669 C   0  0  0  0  0  0  0  0  0  0  0  0
   24.1180  -23.5175  -14.3003 O   0  0  0  0  0  0  0  0  0  0  0  0
   25.5121  -21.8212  -13.6864 N   0  0  0  0  0  0  0  0  0  0  0  0
   24.6057  -21.2769  -12.6516 C   0  0  1  0  0  0  0  0  0  0  0  0
   25.2068  -20.0794  -12.0102 C   0  0  0  0  0  0  0  0  0  0  0  0
   26.1613  -20.4125  -10.9501 C   0  0  0  0  0  0  0  0  0  0  0  0
   25.7817  -20.6283   -9.6129 C   0  0  0  0  0  0  0  0  0  0  0  0
   26.8603  -20.9536   -8.9068 N   0  0  0  0  0  0  0  0  0  0  0  0
   27.9610  -20.9760   -9.6679 C   0  0  0  0  0  0  0  0  0  0  0  0
   29.2867  -21.2430   -9.3865 C   0  0  0  0  0  0  0  0  0  0  0  0
   30.2239  -21.1745  -10.3937 C   0  0  0  0  0  0  0  0  0  0  0  0
   29.7917  -20.8370  -11.6572 C   0  0  0  0  0  0  0  0  0  0  0  0
   28.4570  -20.5686  -11.9399 C   0  0  0  0  0  0  0  0  0  0  0  0
   27.5197  -20.6365  -10.9433 C   0  0  0  0  0  0  0  0  0  0  0  0
   23.2849  -21.0501  -13.2344 C   0  0  0  0  0  0  0  0  0  0  0  0
   22.2646  -21.4984  -12.6668 O   0  0  0  0  0  0  0  0  0  0  0  0
   23.0687  -20.3442  -14.4217 O   0  0  0  0  0  0  0  0  0  0  0  0
  2  1  1  6
  2  3  1  0
  3  4  1  0
  4  5  2  0
  4  8  1  0
  6  2  1  0
  7  6  2  0
  9 10  1  0
 10 11  2  0
 12 10  1  0
 13 12  1  1
 13 14  1  0
 14  6  1  0
 15 13  1  0
 15 17  1  0
 16 15  2  0
 18 19  1  6
 18 29  1  0
 18 17  1  0
 20 19  1  0
 20 21  2  0
 22 21  1  0
 23 28  2  0
 23 22  1  0
 24 23  1  0
 25 26  1  0
 25 24  2  0
 26 27  2  0
 27 28  1  0
 28 20  1  0
 29 31  1  0
 30 29  2  0
M  END
$$$$
