DNW.pdb
     RDKit          3D

 31 32  0  0  1  0  0  0  0  0999 V2000
   22.1751   -1.5413  -20.1441 N   0  0  0  0  0  0  0  0  0  0  0  0
   22.9016   -2.7871  -20.0804 C   0  0  1  0  0  0  0  0  0  0  0  0
   24.3179   -2.6905  -20.5956 C   0  0  0  0  0  0  0  0  0  0  0  0
   24.3982   -2.3128  -22.0215 C   0  0  0  0  0  0  0  0  0  0  0  0
   23.3205   -2.0400  -22.6101 O   0  0  0  0  0  0  0  0  0  0  0  0
   22.8150   -3.3231  -18.6998 C   0  0  0  0  0  0  0  0  0  0  0  0
   23.1496   -2.5905  -17.7101 O   0  0  0  0  0  0  0  0  0  0  0  0
   25.5714   -2.2453  -22.7281 O   0  0  0  0  0  0  0  0  0  0  0  0
   19.1905   -6.0204  -18.3976 N   0  0  0  0  0  0  0  0  0  0  0  0
   20.0083   -6.1842  -17.2535 C   0  0  0  0  0  0  0  0  0  0  0  0
   20.0160   -7.3827  -16.7939 O   0  0  0  0  0  0  0  0  0  0  0  0
   20.8053   -5.1353  -16.5956 C   0  0  0  0  0  0  0  0  0  0  0  0
   22.2189   -5.1578  -17.0825 C   0  0  2  0  0  0  0  0  0  0  0  0
   22.3621   -4.6552  -18.4486 N   0  0  0  0  0  0  0  0  0  0  0  0
   22.8264   -6.5059  -17.0416 C   0  0  0  0  0  0  0  0  0  0  0  0
   22.8524   -7.2290  -18.0813 O   0  0  0  0  0  0  0  0  0  0  0  0
   23.4083   -7.0755  -15.8756 N   0  0  0  0  0  0  0  0  0  0  0  0
   23.9196   -8.4638  -15.8681 C   0  0  1  0  0  0  0  0  0  0  0  0
   25.1386   -8.5654  -15.0253 C   0  0  0  0  0  0  0  0  0  0  0  0
   25.8156   -9.8588  -15.1460 C   0  0  0  0  0  0  0  0  0  0  0  0
   25.4345  -10.9980  -14.4139 C   0  0  0  0  0  0  0  0  0  0  0  0
   26.2062  -12.0189  -14.7744 N   0  0  0  0  0  0  0  0  0  0  0  0
   27.0965  -11.6601  -15.7070 C   0  0  0  0  0  0  0  0  0  0  0  0
   28.0912  -12.3557  -16.3664 C   0  0  0  0  0  0  0  0  0  0  0  0
   28.8808  -11.7048  -17.2886 C   0  0  0  0  0  0  0  0  0  0  0  0
   28.6409  -10.3678  -17.5163 C   0  0  0  0  0  0  0  0  0  0  0  0
   27.6392   -9.6682  -16.8524 C   0  0  0  0  0  0  0  0  0  0  0  0
   26.8494  -10.3097  -15.9354 C   0  0  0  0  0  0  0  0  0  0  0  0
   22.8434   -9.3750  -15.4847 C   0  0  0  0  0  0  0  0  0  0  0  0
   22.0204   -9.0374  -14.6056 O   0  0  0  0  0  0  0  0  0  0  0  0
   22.6583  -10.6415  -16.0472 O   0  0  0  0  0  0  0  0  0  0  0  0
  2  1  1  1
  2  3  1  0
  3  4  1  0
  4  5  2  0
  4  8  1  0
  6  2  1  0
  7  6  2  0
  9 10  1  0
 10 11  2  0
 12 10  1  0
 13 12  1  6
 13 14  1  0
 14  6  1  0
 15 13  1  0
 15 17  1  0
 16 15  2  0
 18 19  1  1
 18 29  1  0
 18 17  1  0
 20 19  1  0
 20 21  2  0
 22 21  1  0
 23 28  2  0
 23 22  1  0
 24 23  1  0
 25 26  1  0
 25 24  2  0
 26 27  2  0
 27 28  1  0
 28 20  1  0
 29 31  1  0
 30 29  2  0
M  END
$$$$
