DNW.pdb
     RDKit          3D

 31 32  0  0  1  0  0  0  0  0999 V2000
   23.1993  -20.7634  -15.7910 N   0  0  0  0  0  0  0  0  0  0  0  0
   23.6545  -19.4896  -15.2867 C   0  0  1  0  0  0  0  0  0  0  0  0
   23.1877  -18.3106  -16.1068 C   0  0  0  0  0  0  0  0  0  0  0  0
   23.8606  -18.2054  -17.4177 C   0  0  0  0  0  0  0  0  0  0  0  0
   24.5860  -19.1687  -17.7755 O   0  0  0  0  0  0  0  0  0  0  0  0
   23.2942  -19.3852  -13.8514 C   0  0  0  0  0  0  0  0  0  0  0  0
   22.9687  -18.2547  -13.3573 O   0  0  0  0  0  0  0  0  0  0  0  0
   23.7376  -17.1259  -18.2541 O   0  0  0  0  0  0  0  0  0  0  0  0
   19.8106  -21.1589  -12.8482 N   0  0  0  0  0  0  0  0  0  0  0  0
   20.5536  -20.6352  -11.7628 C   0  0  0  0  0  0  0  0  0  0  0  0
   20.0628  -19.5526  -11.2781 O   0  0  0  0  0  0  0  0  0  0  0  0
   21.7774  -21.2152  -11.1850 C   0  0  0  0  0  0  0  0  0  0  0  0
   22.9801  -20.4180  -11.5774 C   0  0  2  0  0  0  0  0  0  0  0  0
   23.3041  -20.5324  -12.9990 N   0  0  0  0  0  0  0  0  0  0  0  0
   24.1943  -20.7851  -10.8164 C   0  0  0  0  0  0  0  0  0  0  0  0
   24.9872  -21.6671  -11.2612 O   0  0  0  0  0  0  0  0  0  0  0  0
   24.5547  -20.1984   -9.5720 N   0  0  0  0  0  0  0  0  0  0  0  0
   25.7394  -20.6602   -8.8157 C   0  0  1  0  0  0  0  0  0  0  0  0
   26.7600  -19.5837   -8.7382 C   0  0  0  0  0  0  0  0  0  0  0  0
   27.9576  -19.9787   -7.9928 C   0  0  0  0  0  0  0  0  0  0  0  0
   28.9543  -20.8162   -8.5258 C   0  0  0  0  0  0  0  0  0  0  0  0
   29.9266  -20.9521   -7.6292 N   0  0  0  0  0  0  0  0  0  0  0  0
   29.6672  -20.2641   -6.5109 C   0  0  0  0  0  0  0  0  0  0  0  0
   30.3601  -20.1110   -5.3258 C   0  0  0  0  0  0  0  0  0  0  0  0
   29.8275  -19.3336   -4.3210 C   0  0  0  0  0  0  0  0  0  0  0  0
   28.6081  -18.7338   -4.5450 C   0  0  0  0  0  0  0  0  0  0  0  0
   27.9112  -18.8880   -5.7384 C   0  0  0  0  0  0  0  0  0  0  0  0
   28.4359  -19.6584   -6.7422 C   0  0  0  0  0  0  0  0  0  0  0  0
   25.3137  -21.1825   -7.5190 C   0  0  0  0  0  0  0  0  0  0  0  0
   26.1413  -21.7430   -6.7673 O   0  0  0  0  0  0  0  0  0  0  0  0
   24.0033  -21.0997   -7.0385 O   0  0  0  0  0  0  0  0  0  0  0  0
  2  1  1  6
  2  3  1  0
  3  4  1  0
  4  5  2  0
  4  8  1  0
  6  2  1  0
  7  6  2  0
  9 10  1  0
 10 11  2  0
 12 10  1  0
 13 12  1  1
 13 14  1  0
 14  6  1  0
 15 13  1  0
 15 17  1  0
 16 15  2  0
 18 19  1  1
 18 29  1  0
 18 17  1  0
 20 19  1  0
 20 21  2  0
 22 21  1  0
 23 28  2  0
 23 22  1  0
 24 23  1  0
 25 26  1  0
 25 24  2  0
 26 27  2  0
 27 28  1  0
 28 20  1  0
 29 31  1  0
 30 29  2  0
M  END
$$$$
