DNW.pdb
     RDKit          3D

 31 32  0  0  1  0  0  0  0  0999 V2000
   26.9031  -36.5922  -10.1751 N   0  0  0  0  0  0  0  0  0  0  0  0
   26.0351  -37.3241   -9.2835 C   0  0  1  0  0  0  0  0  0  0  0  0
   26.1194  -38.8227   -9.4494 C   0  0  0  0  0  0  0  0  0  0  0  0
   25.4818  -39.3118  -10.6890 C   0  0  0  0  0  0  0  0  0  0  0  0
   24.9294  -38.4598  -11.4314 O   0  0  0  0  0  0  0  0  0  0  0  0
   26.2854  -36.8730   -7.8925 C   0  0  0  0  0  0  0  0  0  0  0  0
   25.5526  -37.3051   -6.9415 O   0  0  0  0  0  0  0  0  0  0  0  0
   25.4605  -40.6296  -11.0674 O   0  0  0  0  0  0  0  0  0  0  0  0
   28.1275  -34.9677   -3.4779 N   0  0  0  0  0  0  0  0  0  0  0  0
   29.1574  -35.0125   -4.4483 C   0  0  0  0  0  0  0  0  0  0  0  0
   30.3302  -34.8201   -3.9632 O   0  0  0  0  0  0  0  0  0  0  0  0
   28.9848  -35.2531   -5.8907 C   0  0  0  0  0  0  0  0  0  0  0  0
   27.5433  -35.4681   -6.2250 C   0  0  2  0  0  0  0  0  0  0  0  0
   27.3381  -35.9553   -7.5887 N   0  0  0  0  0  0  0  0  0  0  0  0
   26.7210  -34.2493   -6.0626 C   0  0  0  0  0  0  0  0  0  0  0  0
   26.6058  -33.7005   -4.9268 O   0  0  0  0  0  0  0  0  0  0  0  0
   26.0210  -33.6202   -7.1289 N   0  0  0  0  0  0  0  0  0  0  0  0
   25.2806  -32.3556   -6.9256 C   0  0  1  0  0  0  0  0  0  0  0  0
   25.2533  -31.5605   -8.1801 C   0  0  0  0  0  0  0  0  0  0  0  0
   24.3588  -32.1196   -9.1965 C   0  0  0  0  0  0  0  0  0  0  0  0
   22.9628  -31.9482   -9.1710 C   0  0  0  0  0  0  0  0  0  0  0  0
   22.4382  -32.5314  -10.2446 N   0  0  0  0  0  0  0  0  0  0  0  0
   23.3799  -33.0956  -11.0102 C   0  0  0  0  0  0  0  0  0  0  0  0
   23.3206  -33.8077  -12.1923 C   0  0  0  0  0  0  0  0  0  0  0  0
   24.4814  -34.2898  -12.7559 C   0  0  0  0  0  0  0  0  0  0  0  0
   25.6692  -34.0374  -12.1059 C   0  0  0  0  0  0  0  0  0  0  0  0
   25.7283  -33.3202  -10.9162 C   0  0  0  0  0  0  0  0  0  0  0  0
   24.5779  -32.8366  -10.3512 C   0  0  0  0  0  0  0  0  0  0  0  0
   23.9618  -32.6498   -6.3690 C   0  0  0  0  0  0  0  0  0  0  0  0
   23.2644  -31.7286   -5.8904 O   0  0  0  0  0  0  0  0  0  0  0  0
   23.4013  -33.9301   -6.3298 O   0  0  0  0  0  0  0  0  0  0  0  0
  2  1  1  6
  2  3  1  0
  3  4  1  0
  4  5  2  0
  4  8  1  0
  6  2  1  0
  7  6  2  0
  9 10  1  0
 10 11  2  0
 12 10  1  0
 13 12  1  6
 13 14  1  0
 14  6  1  0
 15 13  1  0
 15 17  1  0
 16 15  2  0
 18 19  1  6
 18 29  1  0
 18 17  1  0
 20 19  1  0
 20 21  2  0
 22 21  1  0
 23 28  2  0
 23 22  1  0
 24 23  1  0
 25 26  1  0
 25 24  2  0
 26 27  2  0
 27 28  1  0
 28 20  1  0
 29 31  1  0
 30 29  2  0
M  END
$$$$
