DNW.pdb
     RDKit          3D

 31 32  0  0  1  0  0  0  0  0999 V2000
   14.8607  -21.4752    0.7316 N   0  0  0  0  0  0  0  0  0  0  0  0
   14.0524  -22.2953    1.6024 C   0  0  1  0  0  0  0  0  0  0  0  0
   14.1447  -23.7725    1.3027 C   0  0  0  0  0  0  0  0  0  0  0  0
   14.6765  -24.0651   -0.0441 C   0  0  0  0  0  0  0  0  0  0  0  0
   14.2500  -23.3669   -0.9996 O   0  0  0  0  0  0  0  0  0  0  0  0
   14.3746  -21.9614    3.0115 C   0  0  0  0  0  0  0  0  0  0  0  0
   13.8801  -22.6573    3.9598 O   0  0  0  0  0  0  0  0  0  0  0  0
   15.5988  -25.0459   -0.3038 O   0  0  0  0  0  0  0  0  0  0  0  0
   17.5684  -21.7320    7.5797 N   0  0  0  0  0  0  0  0  0  0  0  0
   16.4020  -21.3462    6.8760 C   0  0  0  0  0  0  0  0  0  0  0  0
   15.6188  -20.5886    7.5543 O   0  0  0  0  0  0  0  0  0  0  0  0
   16.0487  -21.7305    5.4991 C   0  0  0  0  0  0  0  0  0  0  0  0
   15.5568  -20.5483    4.7269 C   0  0  2  0  0  0  0  0  0  0  0  0
   15.2340  -20.8666    3.3363 N   0  0  0  0  0  0  0  0  0  0  0  0
   16.5175  -19.4236    4.7114 C   0  0  0  0  0  0  0  0  0  0  0  0
   17.3762  -19.3270    3.7852 O   0  0  0  0  0  0  0  0  0  0  0  0
   16.5516  -18.3996    5.6977 N   0  0  0  0  0  0  0  0  0  0  0  0
   17.3060  -17.1454    5.4818 C   0  0  1  0  0  0  0  0  0  0  0  0
   16.6889  -16.3473    4.3916 C   0  0  0  0  0  0  0  0  0  0  0  0
   17.5609  -15.2800    3.8951 C   0  0  0  0  0  0  0  0  0  0  0  0
   18.0180  -15.2156    2.5663 C   0  0  0  0  0  0  0  0  0  0  0  0
   18.7486  -14.1150    2.4157 N   0  0  0  0  0  0  0  0  0  0  0  0
   18.8275  -13.4147    3.5536 C   0  0  0  0  0  0  0  0  0  0  0  0
   19.4682  -12.2363    3.8833 C   0  0  0  0  0  0  0  0  0  0  0  0
   19.3818  -11.7510    5.1696 C   0  0  0  0  0  0  0  0  0  0  0  0
   18.6493  -12.4733    6.0854 C   0  0  0  0  0  0  0  0  0  0  0  0
   18.0043  -13.6593    5.7528 C   0  0  0  0  0  0  0  0  0  0  0  0
   18.0848  -14.1467    4.4751 C   0  0  0  0  0  0  0  0  0  0  0  0
   17.4366  -16.4334    6.7512 C   0  0  0  0  0  0  0  0  0  0  0  0
   18.5538  -16.0080    7.1187 O   0  0  0  0  0  0  0  0  0  0  0  0
   16.3677  -16.1831    7.6170 O   0  0  0  0  0  0  0  0  0  0  0  0
  2  1  1  6
  2  3  1  0
  3  4  1  0
  4  5  2  0
  4  8  1  0
  6  2  1  0
  7  6  2  0
  9 10  1  0
 10 11  2  0
 12 10  1  0
 13 12  1  6
 13 14  1  0
 14  6  1  0
 15 13  1  0
 15 17  1  0
 16 15  2  0
 18 19  1  6
 18 29  1  0
 18 17  1  0
 20 19  1  0
 20 21  2  0
 22 21  1  0
 23 28  2  0
 23 22  1  0
 24 23  1  0
 25 26  1  0
 25 24  2  0
 26 27  2  0
 27 28  1  0
 28 20  1  0
 29 31  1  0
 30 29  2  0
M  END
$$$$
