DNW.pdb
     RDKit          3D

 31 32  0  0  1  0  0  0  0  0999 V2000
   22.1384  -23.9674  -14.7352 N   0  0  0  0  0  0  0  0  0  0  0  0
   20.9352  -23.3943  -15.2902 C   0  0  1  0  0  0  0  0  0  0  0  0
   20.6461  -23.8413  -16.7034 C   0  0  0  0  0  0  0  0  0  0  0  0
   21.6950  -23.4509  -17.6676 C   0  0  0  0  0  0  0  0  0  0  0  0
   22.1771  -22.2938  -17.5622 O   0  0  0  0  0  0  0  0  0  0  0  0
   19.8103  -23.6416  -14.3551 C   0  0  0  0  0  0  0  0  0  0  0  0
   18.6351  -23.8394  -14.8110 O   0  0  0  0  0  0  0  0  0  0  0  0
   22.1642  -24.2734  -18.6592 O   0  0  0  0  0  0  0  0  0  0  0  0
   18.2051  -25.9899   -9.0053 N   0  0  0  0  0  0  0  0  0  0  0  0
   18.2568  -24.8451   -9.8368 C   0  0  0  0  0  0  0  0  0  0  0  0
   17.1847  -24.1398   -9.8086 O   0  0  0  0  0  0  0  0  0  0  0  0
   19.3911  -24.4321  -10.6801 C   0  0  0  0  0  0  0  0  0  0  0  0
   18.9178  -23.9866  -12.0267 C   0  0  2  0  0  0  0  0  0  0  0  0
   20.0130  -23.6628  -12.9404 N   0  0  0  0  0  0  0  0  0  0  0  0
   18.0270  -22.8071  -11.9689 C   0  0  0  0  0  0  0  0  0  0  0  0
   16.8102  -22.9384  -11.6421 O   0  0  0  0  0  0  0  0  0  0  0  0
   18.4501  -21.4818  -12.2639 N   0  0  0  0  0  0  0  0  0  0  0  0
   17.5676  -20.3189  -12.0241 C   0  0  1  0  0  0  0  0  0  0  0  0
   18.3653  -19.0688  -11.9370 C   0  0  0  0  0  0  0  0  0  0  0  0
   19.2485  -18.8682  -13.0884 C   0  0  0  0  0  0  0  0  0  0  0  0
   18.8926  -18.0897  -14.2047 C   0  0  0  0  0  0  0  0  0  0  0  0
   19.9147  -18.0643  -15.0547 N   0  0  0  0  0  0  0  0  0  0  0  0
   20.9536  -18.7749  -14.5997 C   0  0  0  0  0  0  0  0  0  0  0  0
   22.2031  -19.0438  -15.1234 C   0  0  0  0  0  0  0  0  0  0  0  0
   23.0806  -19.8379  -14.4185 C   0  0  0  0  0  0  0  0  0  0  0  0
   22.6673  -20.3375  -13.2033 C   0  0  0  0  0  0  0  0  0  0  0  0
   21.4094  -20.0662  -12.6765 C   0  0  0  0  0  0  0  0  0  0  0  0
   20.5326  -19.2760  -13.3716 C   0  0  0  0  0  0  0  0  0  0  0  0
   16.5138  -20.2929  -13.0362 C   0  0  0  0  0  0  0  0  0  0  0  0
   16.7054  -20.8212  -14.1534 O   0  0  0  0  0  0  0  0  0  0  0  0
   15.2625  -19.7001  -12.8420 O   0  0  0  0  0  0  0  0  0  0  0  0
  2  1  1  1
  2  3  1  0
  3  4  1  0
  4  5  2  0
  4  8  1  0
  6  2  1  0
  7  6  2  0
  9 10  1  0
 10 11  2  0
 12 10  1  0
 13 12  1  1
 13 14  1  0
 14  6  1  0
 15 13  1  0
 15 17  1  0
 16 15  2  0
 18 19  1  6
 18 29  1  0
 18 17  1  0
 20 19  1  0
 20 21  2  0
 22 21  1  0
 23 28  2  0
 23 22  1  0
 24 23  1  0
 25 26  1  0
 25 24  2  0
 26 27  2  0
 27 28  1  0
 28 20  1  0
 29 31  1  0
 30 29  2  0
M  END
$$$$
