ARV.pdb
     RDKit          3D

 24 23  0  0  1  0  0  0  0  0999 V2000
    8.5193  -12.2422   19.3141 C   0  0  0  0  0  0  0  0  0  0  0  0
    8.6612  -13.7219   19.0979 C   0  0  2  0  0  0  0  0  0  0  0  0
    8.2134  -14.0461   17.7802 N   0  0  0  0  0  0  0  0  0  0  0  0
    7.8175  -14.3943   20.1434 C   0  0  0  0  0  0  0  0  0  0  0  0
    6.6181  -14.6507   19.9704 O   0  0  0  0  0  0  0  0  0  0  0  0
   12.4855  -20.4122   22.9772 N   0  0  0  0  0  0  0  0  0  0  0  0
   11.8462  -19.3942   23.7696 C   0  0  0  0  0  0  0  0  0  0  0  0
   12.4702  -18.8327   24.7640 N   0  0  0  0  0  0  0  0  0  0  0  0
   10.5212  -18.9669   23.4993 N   0  0  0  0  0  0  0  0  0  0  0  0
   10.2097  -18.3269   22.2405 C   0  0  0  0  0  0  0  0  0  0  0  0
    9.7321  -16.9078   22.4389 C   0  0  0  0  0  0  0  0  0  0  0  0
    8.2143  -16.8488   22.4440 C   0  0  0  0  0  0  0  0  0  0  0  0
    7.7440  -15.3904   22.4563 C   0  0  2  0  0  0  0  0  0  0  0  0
    8.4286  -14.7400   21.3616 N   0  0  0  0  0  0  0  0  0  0  0  0
    8.1110  -14.7242   23.7168 C   0  0  0  0  0  0  0  0  0  0  0  0
    9.2916  -14.2301   23.8135 O   0  0  0  0  0  0  0  0  0  0  0  0
   11.9524  -18.1248   25.3231 C   0  0  0  0  0  0  0  0  0  0  0  0
    6.8711  -11.9334   27.4822 C   0  0  2  0  0  0  0  0  0  0  0  0
    6.5204  -12.7934   26.3359 C   0  0  0  0  0  0  0  0  0  0  0  0
    6.2094  -11.9205   25.1269 C   0  0  1  0  0  0  0  0  0  0  0  0
    7.5536  -13.7816   25.9111 N   0  0  0  0  0  0  0  0  0  0  0  0
    7.2221  -14.6061   24.8203 C   0  0  0  0  0  0  0  0  0  0  0  0
    7.9775  -14.6147   27.0664 O   0  0  0  0  0  0  0  0  0  0  0  0
    8.8303  -14.0764   28.0086 O   0  0  0  0  0  0  0  0  0  0  0  0
  2  1  1  1
  2  3  1  0
  4  5  2  0
  4  2  1  0
  6  7  1  0
  7  9  1  0
  8  7  2  0
  9 10  1  0
 10 11  1  0
 11 12  1  0
 13 12  1  1
 13 14  1  0
 14  4  1  0
 15 21  1  0
 15 13  1  0
 16 15  2  0
 18 20  1  0
 18 17  1  1
 19 18  1  0
 20 22  1  0
 20 21  1  1
 22 23  1  0
 24 22  2  0
M  END
$$$$
