ARV.pdb
     RDKit          3D

 24 23  0  0  1  0  0  0  0  0999 V2000
    6.7843  -19.3669   27.9671 C   0  0  0  0  0  0  0  0  0  0  0  0
    6.5941  -19.6929   26.5132 C   0  0  2  0  0  0  0  0  0  0  0  0
    6.8048  -21.0926   26.3172 N   0  0  0  0  0  0  0  0  0  0  0  0
    7.5995  -18.8763   25.7520 C   0  0  0  0  0  0  0  0  0  0  0  0
    8.8208  -19.0546   25.8558 O   0  0  0  0  0  0  0  0  0  0  0  0
    7.1181  -12.4272   20.6412 N   0  0  0  0  0  0  0  0  0  0  0  0
    8.0161  -13.1749   19.8000 C   0  0  0  0  0  0  0  0  0  0  0  0
    8.8475  -12.5666   19.0049 N   0  0  0  0  0  0  0  0  0  0  0  0
    8.0292  -14.5930   19.8051 N   0  0  0  0  0  0  0  0  0  0  0  0
    7.2130  -15.3210   20.7511 C   0  0  0  0  0  0  0  0  0  0  0  0
    7.9947  -15.7015   21.9862 C   0  0  0  0  0  0  0  0  0  0  0  0
    7.1354  -16.5215   22.9330 C   0  0  0  0  0  0  0  0  0  0  0  0
    7.9665  -16.9780   24.1368 C   0  0  2  0  0  0  0  0  0  0  0  0
    7.1188  -17.8735   24.8917 N   0  0  0  0  0  0  0  0  0  0  0  0
    8.3396  -15.8367   24.9886 C   0  0  0  0  0  0  0  0  0  0  0  0
    7.4071  -15.0418   25.3703 O   0  0  0  0  0  0  0  0  0  0  0  0
    9.4837  -13.1536   18.4282 C   0  0  0  0  0  0  0  0  0  0  0  0
    7.7013  -14.3848   27.3230 C   0  0  2  0  0  0  0  0  0  0  0  0
    9.1685  -14.3424   27.4722 C   0  0  0  0  0  0  0  0  0  0  0  0
    9.6136  -15.4633   28.4026 C   0  0  2  0  0  0  0  0  0  0  0  0
    9.9639  -14.4703   26.2170 N   0  0  0  0  0  0  0  0  0  0  0  0
    9.6758  -15.5805   25.4021 C   0  0  0  0  0  0  0  0  0  0  0  0
   11.4181  -14.4271   26.5202 O   0  0  0  0  0  0  0  0  0  0  0  0
   11.9539  -13.2908   27.0915 O   0  0  0  0  0  0  0  0  0  0  0  0
  2  1  1  1
  2  3  1  0
  4  5  2  0
  4  2  1  0
  6  7  1  0
  7  9  1  0
  8  7  2  0
  9 10  1  0
 10 11  1  0
 11 12  1  0
 13 12  1  6
 13 14  1  0
 14  4  1  0
 15 21  1  0
 15 13  1  0
 16 15  2  0
 18 20  1  0
 18 17  1  1
 19 18  1  0
 20 22  1  0
 20 21  1  6
 22 23  1  0
 24 22  2  0
M  END
$$$$
