ARV.pdb
     RDKit          3D

 24 23  0  0  1  0  0  0  0  0999 V2000
    8.1017  -12.1316   19.3010 C   0  0  0  0  0  0  0  0  0  0  0  0
    8.5105  -13.5429   18.9886 C   0  0  2  0  0  0  0  0  0  0  0  0
    8.0581  -13.8801   17.6757 N   0  0  0  0  0  0  0  0  0  0  0  0
    7.8717  -14.4183   20.0292 C   0  0  0  0  0  0  0  0  0  0  0  0
    7.0842  -15.3304   19.7427 O   0  0  0  0  0  0  0  0  0  0  0  0
   12.4897  -20.3696   22.2342 N   0  0  0  0  0  0  0  0  0  0  0  0
   11.5036  -20.4557   23.2798 C   0  0  0  0  0  0  0  0  0  0  0  0
   11.4380  -21.5022   24.0505 N   0  0  0  0  0  0  0  0  0  0  0  0
   10.5721  -19.4111   23.5087 N   0  0  0  0  0  0  0  0  0  0  0  0
   10.5024  -18.2908   22.5970 C   0  0  0  0  0  0  0  0  0  0  0  0
    9.4225  -17.3130   22.9958 C   0  0  0  0  0  0  0  0  0  0  0  0
    9.3269  -16.1798   21.9887 C   0  0  0  0  0  0  0  0  0  0  0  0
    8.2185  -15.2039   22.3976 C   0  0  2  0  0  0  0  0  0  0  0  0
    8.1908  -14.1798   21.3776 N   0  0  0  0  0  0  0  0  0  0  0  0
    8.5130  -14.5796   23.6980 C   0  0  0  0  0  0  0  0  0  0  0  0
    9.6833  -14.0834   23.8748 O   0  0  0  0  0  0  0  0  0  0  0  0
   10.7092  -21.5126   24.7925 C   0  0  0  0  0  0  0  0  0  0  0  0
    7.0786  -12.0947   27.6357 C   0  0  2  0  0  0  0  0  0  0  0  0
    6.7379  -12.9662   26.4950 C   0  0  0  0  0  0  0  0  0  0  0  0
    6.1595  -12.1197   25.3684 C   0  0  1  0  0  0  0  0  0  0  0  0
    7.8573  -13.7638   25.9159 N   0  0  0  0  0  0  0  0  0  0  0  0
    7.5654  -14.5040   24.7555 C   0  0  0  0  0  0  0  0  0  0  0  0
    8.4471  -14.6532   26.9501 O   0  0  0  0  0  0  0  0  0  0  0  0
    9.1389  -14.0937   28.0051 O   0  0  0  0  0  0  0  0  0  0  0  0
  2  1  1  1
  2  3  1  0
  4  5  2  0
  4  2  1  0
  6  7  1  0
  7  9  1  0
  8  7  2  0
  9 10  1  0
 10 11  1  0
 11 12  1  0
 13 12  1  6
 13 14  1  0
 14  4  1  0
 15 21  1  0
 15 13  1  0
 16 15  2  0
 18 20  1  0
 18 17  1  1
 19 18  1  0
 20 22  1  0
 20 21  1  1
 22 23  1  0
 24 22  2  0
M  END
$$$$
