ARV.pdb
     RDKit          3D

 24 23  0  0  1  0  0  0  0  0999 V2000
    8.0105  -12.1495   19.7456 C   0  0  0  0  0  0  0  0  0  0  0  0
    8.2946  -13.5785   19.3802 C   0  0  2  0  0  0  0  0  0  0  0  0
    7.5820  -13.9053   18.1855 N   0  0  0  0  0  0  0  0  0  0  0  0
    7.8369  -14.4198   20.5378 C   0  0  0  0  0  0  0  0  0  0  0  0
    6.6597  -14.7780   20.6788 O   0  0  0  0  0  0  0  0  0  0  0  0
   11.9281  -18.2948   18.8192 N   0  0  0  0  0  0  0  0  0  0  0  0
   10.8818  -19.2829   18.8659 C   0  0  0  0  0  0  0  0  0  0  0  0
   10.5894  -19.9951   17.8167 N   0  0  0  0  0  0  0  0  0  0  0  0
   10.1347  -19.5167   20.0484 N   0  0  0  0  0  0  0  0  0  0  0  0
   10.3489  -18.6898   21.2153 C   0  0  0  0  0  0  0  0  0  0  0  0
    9.3426  -17.5663   21.2956 C   0  0  0  0  0  0  0  0  0  0  0  0
    9.5040  -16.7940   22.5936 C   0  0  0  0  0  0  0  0  0  0  0  0
    8.5062  -15.6319   22.6425 C   0  0  2  0  0  0  0  0  0  0  0  0
    8.7954  -14.8076   21.4906 N   0  0  0  0  0  0  0  0  0  0  0  0
    8.6835  -14.8301   23.8644 C   0  0  0  0  0  0  0  0  0  0  0  0
    9.7434  -14.1132   23.9639 O   0  0  0  0  0  0  0  0  0  0  0  0
    9.8789  -20.7471   17.9243 C   0  0  0  0  0  0  0  0  0  0  0  0
    7.0862  -12.1729   27.5615 C   0  0  2  0  0  0  0  0  0  0  0  0
    6.8433  -13.0629   26.4101 C   0  0  0  0  0  0  0  0  0  0  0  0
    6.5459  -12.2212   25.1758 C   0  0  1  0  0  0  0  0  0  0  0  0
    7.9508  -13.9951   26.0507 N   0  0  0  0  0  0  0  0  0  0  0  0
    7.7399  -14.8164   24.9280 C   0  0  0  0  0  0  0  0  0  0  0  0
    8.3279  -14.8259   27.2237 O   0  0  0  0  0  0  0  0  0  0  0  0
    9.0667  -14.2585   28.2420 O   0  0  0  0  0  0  0  0  0  0  0  0
  2  1  1  1
  2  3  1  0
  4  5  2  0
  4  2  1  0
  6  7  1  0
  7  9  1  0
  8  7  2  0
  9 10  1  0
 10 11  1  0
 11 12  1  0
 13 12  1  1
 13 14  1  0
 14  4  1  0
 15 21  1  0
 15 13  1  0
 16 15  2  0
 18 20  1  0
 18 17  1  1
 19 18  1  0
 20 22  1  0
 20 21  1  1
 22 23  1  0
 24 22  2  0
M  END
$$$$
