ARV.pdb
     RDKit          3D

 24 23  0  0  1  0  0  0  0  0999 V2000
    7.2157  -12.9979   18.6790 C   0  0  0  0  0  0  0  0  0  0  0  0
    8.3633  -13.1607   19.6346 C   0  0  2  0  0  0  0  0  0  0  0  0
    9.2512  -14.1609   19.1317 N   0  0  0  0  0  0  0  0  0  0  0  0
    7.7721  -13.5674   20.9546 C   0  0  0  0  0  0  0  0  0  0  0  0
    6.9747  -12.8531   21.5776 O   0  0  0  0  0  0  0  0  0  0  0  0
   11.0829  -19.0997   19.9733 N   0  0  0  0  0  0  0  0  0  0  0  0
   11.8249  -19.0800   21.2071 C   0  0  0  0  0  0  0  0  0  0  0  0
   13.0944  -19.3656   21.2268 N   0  0  0  0  0  0  0  0  0  0  0  0
   11.2057  -18.7510   22.4398 N   0  0  0  0  0  0  0  0  0  0  0  0
    9.7773  -18.5332   22.4968 C   0  0  0  0  0  0  0  0  0  0  0  0
    9.4383  -17.0620   22.5440 C   0  0  0  0  0  0  0  0  0  0  0  0
    7.9388  -16.8616   22.6809 C   0  0  0  0  0  0  0  0  0  0  0  0
    7.6082  -15.3656   22.7114 C   0  0  2  0  0  0  0  0  0  0  0  0
    8.1490  -14.8113   21.4906 N   0  0  0  0  0  0  0  0  0  0  0  0
    8.2439  -14.7041   23.8628 C   0  0  0  0  0  0  0  0  0  0  0  0
    9.4871  -14.3992   23.7694 O   0  0  0  0  0  0  0  0  0  0  0  0
   13.5862  -19.3236   22.1423 C   0  0  0  0  0  0  0  0  0  0  0  0
    7.3903  -11.4029   25.7815 C   0  0  2  0  0  0  0  0  0  0  0  0
    7.5586  -12.5477   26.6970 C   0  0  0  0  0  0  0  0  0  0  0  0
    6.1950  -12.9796   27.2207 C   0  0  2  0  0  0  0  0  0  0  0  0
    8.2147  -13.7592   26.1257 N   0  0  0  0  0  0  0  0  0  0  0  0
    7.5459  -14.3919   25.0617 C   0  0  0  0  0  0  0  0  0  0  0  0
    8.5053  -14.7443   27.1998 O   0  0  0  0  0  0  0  0  0  0  0  0
    9.3836  -14.4026   28.2080 O   0  0  0  0  0  0  0  0  0  0  0  0
  2  1  1  6
  2  3  1  0
  4  5  2  0
  4  2  1  0
  6  7  1  0
  7  9  1  0
  8  7  2  0
  9 10  1  0
 10 11  1  0
 11 12  1  0
 13 12  1  1
 13 14  1  0
 14  4  1  0
 15 21  1  0
 15 13  1  0
 16 15  2  0
 18 20  1  0
 18 17  1  1
 19 18  1  0
 20 22  1  0
 20 21  1  1
 22 23  1  0
 24 22  2  0
M  END
$$$$
