ARV.pdb
     RDKit          3D

 24 23  0  0  1  0  0  0  0  0999 V2000
    7.4307  -12.7193   18.7139 C   0  0  0  0  0  0  0  0  0  0  0  0
    8.4841  -13.3505   19.5791 C   0  0  2  0  0  0  0  0  0  0  0  0
    8.9982  -14.5087   18.9186 N   0  0  0  0  0  0  0  0  0  0  0  0
    7.8186  -13.7107   20.8769 C   0  0  0  0  0  0  0  0  0  0  0  0
    7.2608  -12.8713   21.5970 O   0  0  0  0  0  0  0  0  0  0  0  0
   10.3244  -18.8078   24.9094 N   0  0  0  0  0  0  0  0  0  0  0  0
   10.9926  -19.2690   23.7203 C   0  0  0  0  0  0  0  0  0  0  0  0
   12.2518  -19.5963   23.7470 N   0  0  0  0  0  0  0  0  0  0  0  0
   10.3094  -19.3837   22.4829 N   0  0  0  0  0  0  0  0  0  0  0  0
    8.9235  -18.9836   22.3814 C   0  0  0  0  0  0  0  0  0  0  0  0
    8.7627  -17.4880   22.5189 C   0  0  0  0  0  0  0  0  0  0  0  0
    7.3019  -17.0920   22.3908 C   0  0  0  0  0  0  0  0  0  0  0  0
    7.1627  -15.5670   22.4489 C   0  0  2  0  0  0  0  0  0  0  0  0
    7.8383  -15.0587   21.2761 N   0  0  0  0  0  0  0  0  0  0  0  0
    7.8106  -15.0195   23.6522 C   0  0  0  0  0  0  0  0  0  0  0  0
    9.0750  -14.8039   23.6083 O   0  0  0  0  0  0  0  0  0  0  0  0
   12.6989  -19.8752   22.8503 C   0  0  0  0  0  0  0  0  0  0  0  0
    7.4057  -11.9836   27.4483 C   0  0  2  0  0  0  0  0  0  0  0  0
    6.7872  -12.8710   26.4449 C   0  0  0  0  0  0  0  0  0  0  0  0
    6.2149  -12.0293   25.3115 C   0  0  1  0  0  0  0  0  0  0  0  0
    7.6806  -13.8927   25.8265 N   0  0  0  0  0  0  0  0  0  0  0  0
    7.1020  -14.7225   24.8487 C   0  0  0  0  0  0  0  0  0  0  0  0
    8.3241  -14.7212   26.8790 O   0  0  0  0  0  0  0  0  0  0  0  0
    9.2606  -14.1440   27.7124 O   0  0  0  0  0  0  0  0  0  0  0  0
  2  1  1  6
  2  3  1  0
  4  5  2  0
  4  2  1  0
  6  7  1  0
  7  9  1  0
  8  7  2  0
  9 10  1  0
 10 11  1  0
 11 12  1  0
 13 12  1  1
 13 14  1  0
 14  4  1  0
 15 21  1  0
 15 13  1  0
 16 15  2  0
 18 20  1  0
 18 17  1  1
 19 18  1  0
 20 22  1  0
 20 21  1  1
 22 23  1  0
 24 22  2  0
M  END
$$$$
