ARV.pdb
     RDKit          3D

 24 23  0  0  1  0  0  0  0  0999 V2000
    7.4001  -12.8914   18.9545 C   0  0  0  0  0  0  0  0  0  0  0  0
    8.4650  -13.5374   19.7943 C   0  0  2  0  0  0  0  0  0  0  0  0
    8.8957  -14.7415   19.1568 N   0  0  0  0  0  0  0  0  0  0  0  0
    7.8470  -13.8186   21.1346 C   0  0  0  0  0  0  0  0  0  0  0  0
    7.3768  -12.9263   21.8536 O   0  0  0  0  0  0  0  0  0  0  0  0
    8.9916  -19.3873   26.5584 N   0  0  0  0  0  0  0  0  0  0  0  0
    7.6133  -19.7866   26.6773 C   0  0  0  0  0  0  0  0  0  0  0  0
    7.1588  -20.2935   27.7863 N   0  0  0  0  0  0  0  0  0  0  0  0
    6.7041  -19.6441   25.5982 N   0  0  0  0  0  0  0  0  0  0  0  0
    7.1607  -19.1152   24.3321 C   0  0  0  0  0  0  0  0  0  0  0  0
    6.9456  -17.6230   24.2403 C   0  0  0  0  0  0  0  0  0  0  0  0
    7.4309  -17.0928   22.9021 C   0  0  0  0  0  0  0  0  0  0  0  0
    7.2407  -15.5737   22.8372 C   0  0  2  0  0  0  0  0  0  0  0  0
    7.8085  -15.1529   21.5760 N   0  0  0  0  0  0  0  0  0  0  0  0
    7.9554  -14.9011   23.9346 C   0  0  0  0  0  0  0  0  0  0  0  0
    9.2384  -14.8946   23.9009 O   0  0  0  0  0  0  0  0  0  0  0  0
    6.1775  -20.6382   27.7950 C   0  0  0  0  0  0  0  0  0  0  0  0
    7.1520  -11.2335   25.3984 C   0  0  2  0  0  0  0  0  0  0  0  0
    7.4158  -12.2506   26.4341 C   0  0  0  0  0  0  0  0  0  0  0  0
    6.1111  -12.6073   27.1348 C   0  0  2  0  0  0  0  0  0  0  0  0
    8.0269  -13.5278   25.9651 N   0  0  0  0  0  0  0  0  0  0  0  0
    7.2913  -14.2649   25.0190 C   0  0  0  0  0  0  0  0  0  0  0  0
    8.3724  -14.3914   27.1241 O   0  0  0  0  0  0  0  0  0  0  0  0
    9.3213  -13.9586   28.0279 O   0  0  0  0  0  0  0  0  0  0  0  0
  2  1  1  6
  2  3  1  0
  4  5  2  0
  4  2  1  0
  6  7  1  0
  7  9  1  0
  8  7  2  0
  9 10  1  0
 10 11  1  0
 11 12  1  0
 13 12  1  1
 13 14  1  0
 14  4  1  0
 15 21  1  0
 15 13  1  0
 16 15  2  0
 18 20  1  0
 18 17  1  1
 19 18  1  0
 20 22  1  0
 20 21  1  1
 22 23  1  0
 24 22  2  0
M  END
$$$$
