ARV.pdb
     RDKit          3D

 24 23  0  0  1  0  0  0  0  0999 V2000
   12.3655  -19.6183   24.5913 C   0  0  0  0  0  0  0  0  0  0  0  0
   12.4720  -18.8128   23.3279 C   0  0  2  0  0  0  0  0  0  0  0  0
   13.8489  -18.6945   22.9644 N   0  0  0  0  0  0  0  0  0  0  0  0
   11.8655  -17.4695   23.6194 C   0  0  0  0  0  0  0  0  0  0  0  0
   12.4296  -16.6207   24.3233 O   0  0  0  0  0  0  0  0  0  0  0  0
    8.1235  -12.0703   20.0197 N   0  0  0  0  0  0  0  0  0  0  0  0
    8.1572  -13.3352   19.3329 C   0  0  0  0  0  0  0  0  0  0  0  0
    8.6791  -13.4358   18.1450 N   0  0  0  0  0  0  0  0  0  0  0  0
    7.6270  -14.5123   19.9199 N   0  0  0  0  0  0  0  0  0  0  0  0
    7.0106  -14.4549   21.2268 C   0  0  0  0  0  0  0  0  0  0  0  0
    8.0334  -14.5732   22.3321 C   0  0  0  0  0  0  0  0  0  0  0  0
    8.8564  -15.8392   22.1675 C   0  0  0  0  0  0  0  0  0  0  0  0
    9.8763  -15.9558   23.3053 C   0  0  2  0  0  0  0  0  0  0  0  0
   10.6070  -17.1797   23.0637 N   0  0  0  0  0  0  0  0  0  0  0  0
    9.2060  -16.0460   24.6129 C   0  0  0  0  0  0  0  0  0  0  0  0
    8.5269  -17.1047   24.8680 O   0  0  0  0  0  0  0  0  0  0  0  0
    8.6517  -14.3663   17.6811 C   0  0  0  0  0  0  0  0  0  0  0  0
   10.3738  -13.9540   28.1896 C   0  0  2  0  0  0  0  0  0  0  0  0
    8.9462  -14.1651   27.8828 C   0  0  0  0  0  0  0  0  0  0  0  0
    8.3290  -12.8502   27.4240 C   0  0  2  0  0  0  0  0  0  0  0  0
    8.6389  -15.1839   26.8376 N   0  0  0  0  0  0  0  0  0  0  0  0
    9.2784  -15.0204   25.5951 C   0  0  0  0  0  0  0  0  0  0  0  0
    7.1701  -15.2961   26.6416 O   0  0  0  0  0  0  0  0  0  0  0  0
    6.4039  -15.8989   27.6184 O   0  0  0  0  0  0  0  0  0  0  0  0
  2  1  1  1
  2  3  1  0
  4  5  2  0
  4  2  1  0
  6  7  1  0
  7  9  1  0
  8  7  2  0
  9 10  1  0
 10 11  1  0
 11 12  1  0
 13 12  1  6
 13 14  1  0
 14  4  1  0
 15 21  1  0
 15 13  1  0
 16 15  2  0
 18 20  1  0
 18 17  1  1
 19 18  1  0
 20 22  1  0
 20 21  1  1
 22 23  1  0
 24 22  2  0
M  END
$$$$
