ARV.pdb
     RDKit          3D

 24 23  0  0  1  0  0  0  0  0999 V2000
    7.4825  -12.8844   18.8457 C   0  0  0  0  0  0  0  0  0  0  0  0
    8.5063  -13.4797   19.7699 C   0  0  2  0  0  0  0  0  0  0  0  0
    9.0506  -14.6558   19.1680 N   0  0  0  0  0  0  0  0  0  0  0  0
    7.7947  -13.8010   21.0535 C   0  0  0  0  0  0  0  0  0  0  0  0
    7.2520  -12.9335   21.7515 O   0  0  0  0  0  0  0  0  0  0  0  0
    9.1413  -20.1982   26.0322 N   0  0  0  0  0  0  0  0  0  0  0  0
    7.7355  -20.2325   26.3412 C   0  0  0  0  0  0  0  0  0  0  0  0
    7.3089  -20.7634   27.4501 N   0  0  0  0  0  0  0  0  0  0  0  0
    6.7681  -19.6930   25.4556 N   0  0  0  0  0  0  0  0  0  0  0  0
    7.1782  -19.1484   24.1803 C   0  0  0  0  0  0  0  0  0  0  0  0
    6.9772  -17.6525   24.1216 C   0  0  0  0  0  0  0  0  0  0  0  0
    7.4495  -17.1001   22.7877 C   0  0  0  0  0  0  0  0  0  0  0  0
    7.2003  -15.5894   22.7254 C   0  0  2  0  0  0  0  0  0  0  0  0
    7.7519  -15.1447   21.4652 N   0  0  0  0  0  0  0  0  0  0  0  0
    7.8879  -14.8915   23.8243 C   0  0  0  0  0  0  0  0  0  0  0  0
    9.1706  -14.8545   23.8030 O   0  0  0  0  0  0  0  0  0  0  0  0
    6.2900  -20.7100   27.6521 C   0  0  0  0  0  0  0  0  0  0  0  0
    7.1089  -11.3146   25.7091 C   0  0  2  0  0  0  0  0  0  0  0  0
    7.3164  -12.4779   26.5926 C   0  0  0  0  0  0  0  0  0  0  0  0
    5.9816  -12.9000   27.1928 C   0  0  2  0  0  0  0  0  0  0  0  0
    7.9174  -13.6881   25.9610 N   0  0  0  0  0  0  0  0  0  0  0  0
    7.1981  -14.2632   24.8972 C   0  0  0  0  0  0  0  0  0  0  0  0
    8.2091  -14.7180   26.9918 O   0  0  0  0  0  0  0  0  0  0  0  0
    9.1695  -14.4605   27.9488 O   0  0  0  0  0  0  0  0  0  0  0  0
  2  1  1  6
  2  3  1  0
  4  5  2  0
  4  2  1  0
  6  7  1  0
  7  9  1  0
  8  7  2  0
  9 10  1  0
 10 11  1  0
 11 12  1  0
 13 12  1  1
 13 14  1  0
 14  4  1  0
 15 21  1  0
 15 13  1  0
 16 15  2  0
 18 20  1  0
 18 17  1  1
 19 18  1  0
 20 22  1  0
 20 21  1  1
 22 23  1  0
 24 22  2  0
M  END
$$$$
