SNN.pdb
     RDKit          3D

 23 22  0  0  1  0  0  0  0  0999 V2000
   14.0739  -10.0974  -14.9135 O   0  0  0  0  0  0  0  0  0  0  0  0
   15.3853  -10.0398  -14.3980 C   0  0  0  0  0  0  0  0  0  0  0  0
   16.2107  -10.9574  -15.2440 C   0  0  2  0  0  0  0  0  0  0  0  0
   16.2646  -12.3128  -14.7821 N   0  0  0  0  0  0  0  0  0  0  0  0
   17.6092  -10.4210  -15.4446 C   0  0  0  0  0  0  0  0  0  0  0  0
   18.4460  -10.4119  -14.5127 O   0  0  0  0  0  0  0  0  0  0  0  0
   18.9924  -11.2159  -20.2083 N   0  0  0  0  0  0  0  0  0  0  0  0
   19.6951  -10.8908  -18.9920 C   0  0  0  0  0  0  0  0  0  0  0  0
   20.2696  -11.8266  -18.3975 O   0  0  0  0  0  0  0  0  0  0  0  0
   19.7478   -9.5162  -18.4587 C   0  0  0  0  0  0  0  0  0  0  0  0
   19.2629   -9.3886  -17.0341 C   0  0  2  0  0  0  0  0  0  0  0  0
   17.9987   -9.9159  -16.7075 N   0  0  0  0  0  0  0  0  0  0  0  0
   19.6252   -8.1039  -16.3987 C   0  0  0  0  0  0  0  0  0  0  0  0
   18.7373   -7.1859  -16.3077 O   0  0  0  0  0  0  0  0  0  0  0  0
   21.2817   -4.8953  -12.3288 N   0  0  0  0  0  0  0  0  0  0  0  0
   22.1867   -5.4370  -13.2958 C   0  0  0  0  0  0  0  0  0  0  0  0
   23.2003   -4.7254  -13.5251 O   0  0  0  0  0  0  0  0  0  0  0  0
   21.9428   -6.7298  -13.9630 C   0  0  0  0  0  0  0  0  0  0  0  0
   21.1085   -6.5016  -15.2032 C   0  0  2  0  0  0  0  0  0  0  0  0
   20.8854   -7.8013  -15.8783 N   0  0  0  0  0  0  0  0  0  0  0  0
   21.8059   -5.6864  -16.2241 C   0  0  0  0  0  0  0  0  0  0  0  0
   22.3283   -6.2775  -17.3987 O   0  0  0  0  0  0  0  0  0  0  0  0
   21.9753   -4.4677  -16.1264 O   0  0  0  0  0  0  0  0  0  0  0  0
  2  1  1  0
  3  4  1  1
  3  2  1  0
  5  3  1  0
  6  5  2  0
  7  8  1  0
  8  9  2  0
 10  8  1  0
 11 10  1  6
 11 12  1  0
 11 13  1  0
 12  5  1  0
 13 20  1  0
 14 13  2  0
 16 15  1  0
 17 16  2  0
 18 16  1  0
 19 18  1  1
 20 19  1  0
 21 19  1  0
 21 22  1  0
 23 21  2  0
M  END
$$$$
