SNN.pdb
     RDKit          3D

 23 22  0  0  1  0  0  0  0  0999 V2000
   27.9808  -18.3846  -16.2952 O   0  0  0  0  0  0  0  0  0  0  0  0
   26.9259  -18.9092  -15.5202 C   0  0  0  0  0  0  0  0  0  0  0  0
   27.4455  -20.1674  -14.8989 C   0  0  2  0  0  0  0  0  0  0  0  0
   28.0912  -21.0644  -15.8108 N   0  0  0  0  0  0  0  0  0  0  0  0
   26.3663  -20.8952  -14.1311 C   0  0  0  0  0  0  0  0  0  0  0  0
   25.9308  -22.0067  -14.5098 O   0  0  0  0  0  0  0  0  0  0  0  0
   26.6251  -21.8947  -10.4380 N   0  0  0  0  0  0  0  0  0  0  0  0
   25.6855  -20.9078   -9.9668 C   0  0  0  0  0  0  0  0  0  0  0  0
   25.8624  -20.4549   -8.8167 O   0  0  0  0  0  0  0  0  0  0  0  0
   24.5588  -20.4375  -10.7951 C   0  0  0  0  0  0  0  0  0  0  0  0
   24.6880  -20.7762  -12.2612 C   0  0  2  0  0  0  0  0  0  0  0  0
   25.8264  -20.3228  -12.9552 N   0  0  0  0  0  0  0  0  0  0  0  0
   23.4058  -20.7264  -12.9951 C   0  0  0  0  0  0  0  0  0  0  0  0
   23.1108  -19.6700  -13.6557 O   0  0  0  0  0  0  0  0  0  0  0  0
   19.4351  -23.4482  -16.4414 N   0  0  0  0  0  0  0  0  0  0  0  0
   19.5974  -22.8765  -15.1397 C   0  0  0  0  0  0  0  0  0  0  0  0
   18.5815  -22.2778  -14.6971 O   0  0  0  0  0  0  0  0  0  0  0  0
   20.8590  -22.9886  -14.3837 C   0  0  0  0  0  0  0  0  0  0  0  0
   21.2531  -21.6239  -13.8657 C   0  0  2  0  0  0  0  0  0  0  0  0
   22.4670  -21.7600  -13.0274 N   0  0  0  0  0  0  0  0  0  0  0  0
   20.2483  -21.0458  -12.9440 C   0  0  0  0  0  0  0  0  0  0  0  0
   19.2754  -20.1284  -13.4064 O   0  0  0  0  0  0  0  0  0  0  0  0
   20.1891  -21.3161  -11.7411 O   0  0  0  0  0  0  0  0  0  0  0  0
  2  1  1  0
  3  4  1  6
  3  2  1  0
  5  3  1  0
  6  5  2  0
  7  8  1  0
  8  9  2  0
 10  8  1  0
 11 10  1  1
 11 12  1  0
 11 13  1  0
 12  5  1  0
 13 20  1  0
 14 13  2  0
 16 15  1  0
 17 16  2  0
 18 16  1  0
 19 18  1  1
 20 19  1  0
 21 19  1  0
 21 22  1  0
 23 21  2  0
M  END
$$$$
