SNN.pdb
     RDKit          3D

 23 22  0  0  1  0  0  0  0  0999 V2000
   12.9599  -11.7020  -10.9255 O   0  0  0  0  0  0  0  0  0  0  0  0
   13.2670  -10.3302  -11.0372 C   0  0  0  0  0  0  0  0  0  0  0  0
   14.7254  -10.1989  -10.7290 C   0  0  2  0  0  0  0  0  0  0  0  0
   15.1478  -10.8648   -9.5326 N   0  0  0  0  0  0  0  0  0  0  0  0
   15.1592   -8.7516  -10.6988 C   0  0  0  0  0  0  0  0  0  0  0  0
   14.9629   -7.9897  -11.6733 O   0  0  0  0  0  0  0  0  0  0  0  0
   13.6627   -6.5862   -6.9038 N   0  0  0  0  0  0  0  0  0  0  0  0
   14.4075   -5.9719   -7.9747 C   0  0  0  0  0  0  0  0  0  0  0  0
   13.7703   -5.2575   -8.7762 O   0  0  0  0  0  0  0  0  0  0  0  0
   15.8619   -6.1641   -8.1309 C   0  0  0  0  0  0  0  0  0  0  0  0
   16.2544   -6.9064   -9.3863 C   0  0  2  0  0  0  0  0  0  0  0  0
   15.8009   -8.2293   -9.5511 N   0  0  0  0  0  0  0  0  0  0  0  0
   17.6340   -6.6220   -9.8349 C   0  0  0  0  0  0  0  0  0  0  0  0
   18.6109   -7.1865   -9.2297 O   0  0  0  0  0  0  0  0  0  0  0  0
   21.7386   -5.8241  -12.7577 N   0  0  0  0  0  0  0  0  0  0  0  0
   21.0728   -7.0628  -12.4931 C   0  0  0  0  0  0  0  0  0  0  0  0
   21.6756   -8.0852  -12.9147 O   0  0  0  0  0  0  0  0  0  0  0  0
   19.7836   -7.1253  -11.7790 C   0  0  0  0  0  0  0  0  0  0  0  0
   19.3620   -5.7271  -11.3874 C   0  0  2  0  0  0  0  0  0  0  0  0
   17.9678   -5.7676  -10.8881 N   0  0  0  0  0  0  0  0  0  0  0  0
   19.2991   -4.8005  -12.5410 C   0  0  0  0  0  0  0  0  0  0  0  0
   20.4493   -4.1051  -12.9829 O   0  0  0  0  0  0  0  0  0  0  0  0
   18.2682   -4.5759  -13.1816 O   0  0  0  0  0  0  0  0  0  0  0  0
  2  1  1  0
  3  4  1  1
  3  2  1  0
  5  3  1  0
  6  5  2  0
  7  8  1  0
  8  9  2  0
 10  8  1  0
 11 10  1  1
 11 12  1  0
 11 13  1  0
 12  5  1  0
 13 20  1  0
 14 13  2  0
 16 15  1  0
 17 16  2  0
 18 16  1  0
 19 18  1  6
 20 19  1  0
 21 19  1  0
 21 22  1  0
 23 21  2  0
M  END
$$$$
