SNN.pdb
     RDKit          3D

 23 22  0  0  1  0  0  0  0  0999 V2000
   15.5823   -9.9558  -17.2091 O   0  0  0  0  0  0  0  0  0  0  0  0
   16.7159   -9.3348  -16.6451 C   0  0  0  0  0  0  0  0  0  0  0  0
   17.7853  -10.3800  -16.5915 C   0  0  2  0  0  0  0  0  0  0  0  0
   17.4389  -11.5550  -15.8481 N   0  0  0  0  0  0  0  0  0  0  0  0
   19.0922   -9.8128  -16.0871 C   0  0  0  0  0  0  0  0  0  0  0  0
   19.2722   -9.5653  -14.8726 O   0  0  0  0  0  0  0  0  0  0  0  0
   23.1699  -10.7806  -15.3945 N   0  0  0  0  0  0  0  0  0  0  0  0
   23.4538  -10.3518  -16.7415 C   0  0  0  0  0  0  0  0  0  0  0  0
   24.4561  -10.8462  -17.2983 O   0  0  0  0  0  0  0  0  0  0  0  0
   22.6056   -9.3743  -17.4498 C   0  0  0  0  0  0  0  0  0  0  0  0
   21.3794   -8.9484  -16.6778 C   0  0  2  0  0  0  0  0  0  0  0  0
   20.1466   -9.5515  -16.9936 N   0  0  0  0  0  0  0  0  0  0  0  0
   21.3462   -7.5028  -16.3706 C   0  0  0  0  0  0  0  0  0  0  0  0
   21.0929   -6.6749  -17.3139 O   0  0  0  0  0  0  0  0  0  0  0  0
   20.8543   -2.8863  -14.2408 N   0  0  0  0  0  0  0  0  0  0  0  0
   19.7446   -3.7753  -14.4019 C   0  0  0  0  0  0  0  0  0  0  0  0
   18.6145   -3.2386  -14.2567 O   0  0  0  0  0  0  0  0  0  0  0  0
   19.9225   -5.2054  -14.7165 C   0  0  0  0  0  0  0  0  0  0  0  0
   21.3951   -5.4970  -14.8970 C   0  0  2  0  0  0  0  0  0  0  0  0
   21.5746   -6.9525  -15.1075 N   0  0  0  0  0  0  0  0  0  0  0  0
   22.1915   -5.2134  -13.6810 C   0  0  0  0  0  0  0  0  0  0  0  0
   22.7649   -3.9382  -13.4644 O   0  0  0  0  0  0  0  0  0  0  0  0
   22.4048   -6.0454  -12.7945 O   0  0  0  0  0  0  0  0  0  0  0  0
  2  1  1  0
  3  4  1  1
  3  2  1  0
  5  3  1  0
  6  5  2  0
  7  8  1  0
  8  9  2  0
 10  8  1  0
 11 10  1  6
 11 12  1  0
 11 13  1  0
 12  5  1  0
 13 20  1  0
 14 13  2  0
 16 15  1  0
 17 16  2  0
 18 16  1  0
 19 18  1  1
 20 19  1  0
 21 19  1  0
 21 22  1  0
 23 21  2  0
M  END
$$$$
