SNN.pdb
     RDKit          3D

 23 22  0  0  1  0  0  0  0  0999 V2000
   14.3110  -11.0366  -15.3904 O   0  0  0  0  0  0  0  0  0  0  0  0
   15.5792  -10.5650  -14.9931 C   0  0  0  0  0  0  0  0  0  0  0  0
   16.5582  -11.6392  -15.3491 C   0  0  2  0  0  0  0  0  0  0  0  0
   16.3835  -12.8701  -14.6365 N   0  0  0  0  0  0  0  0  0  0  0  0
   17.9846  -11.1586  -15.2138 C   0  0  0  0  0  0  0  0  0  0  0  0
   18.5165  -10.9971  -14.0914 O   0  0  0  0  0  0  0  0  0  0  0  0
   22.9012   -9.9124  -16.1899 N   0  0  0  0  0  0  0  0  0  0  0  0
   22.4292  -10.7148  -17.2909 C   0  0  0  0  0  0  0  0  0  0  0  0
   23.2771  -11.0935  -18.1255 O   0  0  0  0  0  0  0  0  0  0  0  0
   21.0092  -11.0864  -17.4399 C   0  0  0  0  0  0  0  0  0  0  0  0
   20.1014  -10.4846  -16.3936 C   0  0  2  0  0  0  0  0  0  0  0  0
   18.7506  -10.8822  -16.3707 N   0  0  0  0  0  0  0  0  0  0  0  0
   20.3724   -9.0562  -16.1260 C   0  0  0  0  0  0  0  0  0  0  0  0
   19.6652   -8.1696  -16.7203 O   0  0  0  0  0  0  0  0  0  0  0  0
   21.7883   -4.5036  -14.2565 N   0  0  0  0  0  0  0  0  0  0  0  0
   22.0748   -5.5022  -13.2724 C   0  0  0  0  0  0  0  0  0  0  0  0
   22.4673   -5.0516  -12.1637 O   0  0  0  0  0  0  0  0  0  0  0  0
   21.9160   -6.9431  -13.5454 C   0  0  0  0  0  0  0  0  0  0  0  0
   21.4508   -7.1323  -14.9716 C   0  0  2  0  0  0  0  0  0  0  0  0
   21.3599   -8.5827  -15.2592 N   0  0  0  0  0  0  0  0  0  0  0  0
   22.4278   -6.6337  -15.9667 C   0  0  0  0  0  0  0  0  0  0  0  0
   22.8806   -7.4594  -17.0228 O   0  0  0  0  0  0  0  0  0  0  0  0
   22.9024   -5.4945  -15.9469 O   0  0  0  0  0  0  0  0  0  0  0  0
  2  1  1  0
  3  4  1  1
  3  2  1  0
  5  3  1  0
  6  5  2  0
  7  8  1  0
  8  9  2  0
 10  8  1  0
 11 10  1  6
 11 12  1  0
 11 13  1  0
 12  5  1  0
 13 20  1  0
 14 13  2  0
 16 15  1  0
 17 16  2  0
 18 16  1  0
 19 18  1  1
 20 19  1  0
 21 19  1  0
 21 22  1  0
 23 21  2  0
M  END
$$$$
