SNN.pdb
     RDKit          3D

 23 22  0  0  1  0  0  0  0  0999 V2000
   14.6691  -13.5715  -13.2331 O   0  0  0  0  0  0  0  0  0  0  0  0
   15.0623  -12.3742  -13.8660 C   0  0  0  0  0  0  0  0  0  0  0  0
   16.0570  -11.7244  -12.9564 C   0  0  2  0  0  0  0  0  0  0  0  0
   16.7289  -12.6215  -12.0636 N   0  0  0  0  0  0  0  0  0  0  0  0
   15.4387  -10.5849  -12.1796 C   0  0  0  0  0  0  0  0  0  0  0  0
   15.1359   -9.5037  -12.7345 O   0  0  0  0  0  0  0  0  0  0  0  0
   12.9494   -7.8015   -8.6536 N   0  0  0  0  0  0  0  0  0  0  0  0
   12.6950   -9.1962   -8.3913 C   0  0  0  0  0  0  0  0  0  0  0  0
   11.7373   -9.4696   -7.6382 O   0  0  0  0  0  0  0  0  0  0  0  0
   13.5175  -10.2692   -8.9817 C   0  0  0  0  0  0  0  0  0  0  0  0
   14.5530   -9.7811   -9.9668 C   0  0  2  0  0  0  0  0  0  0  0  0
   15.1879  -10.7271  -10.7945 N   0  0  0  0  0  0  0  0  0  0  0  0
   15.4014   -8.6904   -9.4416 C   0  0  0  0  0  0  0  0  0  0  0  0
   16.4709   -8.9897   -8.8043 O   0  0  0  0  0  0  0  0  0  0  0  0
   18.1028   -4.4980   -8.6054 N   0  0  0  0  0  0  0  0  0  0  0  0
   18.3730   -5.4850   -9.6057 C   0  0  0  0  0  0  0  0  0  0  0  0
   19.5003   -5.3805  -10.1577 O   0  0  0  0  0  0  0  0  0  0  0  0
   17.4012   -6.5392   -9.9524 C   0  0  0  0  0  0  0  0  0  0  0  0
   16.1312   -6.3271   -9.1597 C   0  0  2  0  0  0  0  0  0  0  0  0
   15.1260   -7.3287   -9.5853 N   0  0  0  0  0  0  0  0  0  0  0  0
   15.4821   -5.0278   -9.4491 C   0  0  0  0  0  0  0  0  0  0  0  0
   15.7065   -3.8996   -8.6251 O   0  0  0  0  0  0  0  0  0  0  0  0
   14.7216   -4.8415  -10.4032 O   0  0  0  0  0  0  0  0  0  0  0  0
  2  1  1  0
  3  4  1  1
  3  2  1  0
  5  3  1  0
  6  5  2  0
  7  8  1  0
  8  9  2  0
 10  8  1  0
 11 10  1  1
 11 12  1  0
 11 13  1  0
 12  5  1  0
 13 20  1  0
 14 13  2  0
 16 15  1  0
 17 16  2  0
 18 16  1  0
 19 18  1  6
 20 19  1  0
 21 19  1  0
 21 22  1  0
 23 21  2  0
M  END
$$$$
