SNN.pdb
     RDKit          3D

 23 22  0  0  1  0  0  0  0  0999 V2000
   13.1856  -11.6803  -14.5303 O   0  0  0  0  0  0  0  0  0  0  0  0
   14.5353  -11.2724  -14.5078 C   0  0  0  0  0  0  0  0  0  0  0  0
   15.2389  -12.0884  -15.5461 C   0  0  2  0  0  0  0  0  0  0  0  0
   15.1734  -13.5051  -15.3415 N   0  0  0  0  0  0  0  0  0  0  0  0
   16.6765  -11.6539  -15.7147 C   0  0  0  0  0  0  0  0  0  0  0  0
   17.5493  -11.9366  -14.8621 O   0  0  0  0  0  0  0  0  0  0  0  0
   19.8489  -12.8946  -19.5497 N   0  0  0  0  0  0  0  0  0  0  0  0
   18.6858  -12.1304  -19.1728 C   0  0  0  0  0  0  0  0  0  0  0  0
   17.5750  -12.6897  -19.2841 O   0  0  0  0  0  0  0  0  0  0  0  0
   18.7840  -10.7465  -18.6709 C   0  0  0  0  0  0  0  0  0  0  0  0
   18.3815  -10.5854  -17.2242 C   0  0  2  0  0  0  0  0  0  0  0  0
   17.0621  -10.9121  -16.8561 N   0  0  0  0  0  0  0  0  0  0  0  0
   18.9712   -9.3954  -16.5750 C   0  0  0  0  0  0  0  0  0  0  0  0
   18.3347   -8.2853  -16.6214 O   0  0  0  0  0  0  0  0  0  0  0  0
   21.5951   -6.0400  -13.7313 N   0  0  0  0  0  0  0  0  0  0  0  0
   21.9567   -7.3569  -13.3040 C   0  0  0  0  0  0  0  0  0  0  0  0
   22.7203   -7.3947  -12.3031 O   0  0  0  0  0  0  0  0  0  0  0  0
   21.4651   -8.5678  -13.9880 C   0  0  0  0  0  0  0  0  0  0  0  0
   20.6170   -8.1622  -15.1723 C   0  0  2  0  0  0  0  0  0  0  0  0
   20.1941   -9.3811  -15.9005 N   0  0  0  0  0  0  0  0  0  0  0  0
   21.3731   -7.3888  -16.1839 C   0  0  0  0  0  0  0  0  0  0  0  0
   21.4506   -5.9776  -16.1163 O   0  0  0  0  0  0  0  0  0  0  0  0
   21.9734   -7.9055  -17.1305 O   0  0  0  0  0  0  0  0  0  0  0  0
  2  1  1  0
  3  4  1  1
  3  2  1  0
  5  3  1  0
  6  5  2  0
  7  8  1  0
  8  9  2  0
 10  8  1  0
 11 10  1  6
 11 12  1  0
 11 13  1  0
 12  5  1  0
 13 20  1  0
 14 13  2  0
 16 15  1  0
 17 16  2  0
 18 16  1  0
 19 18  1  1
 20 19  1  0
 21 19  1  0
 21 22  1  0
 23 21  2  0
M  END
$$$$
