SNN.pdb
     RDKit          3D

 23 22  0  0  1  0  0  0  0  0999 V2000
   22.3129  -12.0106  -19.4590 O   0  0  0  0  0  0  0  0  0  0  0  0
   22.0674  -10.6643  -19.1188 C   0  0  0  0  0  0  0  0  0  0  0  0
   20.9174  -10.6751  -18.1615 C   0  0  2  0  0  0  0  0  0  0  0  0
   19.6608  -11.0521  -18.7378 N   0  0  0  0  0  0  0  0  0  0  0  0
   20.7824   -9.3542  -17.4397 C   0  0  0  0  0  0  0  0  0  0  0  0
   20.2069   -8.3757  -17.9689 O   0  0  0  0  0  0  0  0  0  0  0  0
   21.0864   -5.6158  -13.8230 N   0  0  0  0  0  0  0  0  0  0  0  0
   21.2374   -6.8759  -13.1390 C   0  0  0  0  0  0  0  0  0  0  0  0
   21.2004   -6.8557  -11.8910 O   0  0  0  0  0  0  0  0  0  0  0  0
   21.4244   -8.1464  -13.8653 C   0  0  0  0  0  0  0  0  0  0  0  0
   21.2873   -8.0255  -15.3644 C   0  0  2  0  0  0  0  0  0  0  0  0
   21.3108   -9.2033  -16.1359 N   0  0  0  0  0  0  0  0  0  0  0  0
   21.9883   -6.8533  -15.9300 C   0  0  0  0  0  0  0  0  0  0  0  0
   23.0069   -7.0442  -16.6820 O   0  0  0  0  0  0  0  0  0  0  0  0
   23.0606   -2.4648  -18.2326 N   0  0  0  0  0  0  0  0  0  0  0  0
   22.4389   -3.6173  -18.8096 C   0  0  0  0  0  0  0  0  0  0  0  0
   22.3323   -3.5855  -20.0642 O   0  0  0  0  0  0  0  0  0  0  0  0
   21.9667   -4.7490  -17.9897 C   0  0  0  0  0  0  0  0  0  0  0  0
   22.2233   -4.4488  -16.5302 C   0  0  2  0  0  0  0  0  0  0  0  0
   21.6238   -5.5238  -15.7058 N   0  0  0  0  0  0  0  0  0  0  0  0
   21.5374   -3.2211  -16.0658 C   0  0  0  0  0  0  0  0  0  0  0  0
   20.5849   -3.2676  -15.0205 O   0  0  0  0  0  0  0  0  0  0  0  0
   21.7428   -2.1015  -16.5431 O   0  0  0  0  0  0  0  0  0  0  0  0
  2  1  1  0
  3  4  1  6
  3  2  1  0
  5  3  1  0
  6  5  2  0
  7  8  1  0
  8  9  2  0
 10  8  1  0
 11 10  1  1
 11 12  1  0
 11 13  1  0
 12  5  1  0
 13 20  1  0
 14 13  2  0
 16 15  1  0
 17 16  2  0
 18 16  1  0
 19 18  1  6
 20 19  1  0
 21 19  1  0
 21 22  1  0
 23 21  2  0
M  END
$$$$
