SNN.pdb
     RDKit          3D

 23 22  0  0  1  0  0  0  0  0999 V2000
   15.7060  -11.5284  -16.7602 O   0  0  0  0  0  0  0  0  0  0  0  0
   16.5498  -11.1643  -15.6906 C   0  0  0  0  0  0  0  0  0  0  0  0
   17.9513  -11.2813  -16.2015 C   0  0  2  0  0  0  0  0  0  0  0  0
   18.4055  -12.6252  -16.4046 N   0  0  0  0  0  0  0  0  0  0  0  0
   18.9271  -10.5301  -15.3254 C   0  0  0  0  0  0  0  0  0  0  0  0
   19.1833  -10.9077  -14.1591 O   0  0  0  0  0  0  0  0  0  0  0  0
   22.3398  -10.7019  -15.8587 N   0  0  0  0  0  0  0  0  0  0  0  0
   22.6599   -9.3445  -16.2247 C   0  0  0  0  0  0  0  0  0  0  0  0
   23.7096   -9.1616  -16.8758 O   0  0  0  0  0  0  0  0  0  0  0  0
   21.7945   -8.2073  -15.8581 C   0  0  0  0  0  0  0  0  0  0  0  0
   20.5318   -8.6030  -15.1302 C   0  0  2  0  0  0  0  0  0  0  0  0
   19.5755   -9.3736  -15.8192 N   0  0  0  0  0  0  0  0  0  0  0  0
   20.0083   -7.5477  -14.2371 C   0  0  0  0  0  0  0  0  0  0  0  0
   19.2989   -6.6073  -14.7389 O   0  0  0  0  0  0  0  0  0  0  0  0
   18.4089   -4.5721  -10.4052 N   0  0  0  0  0  0  0  0  0  0  0  0
   18.9074   -5.7765   -9.8147 C   0  0  0  0  0  0  0  0  0  0  0  0
   18.7855   -5.8388   -8.5626 O   0  0  0  0  0  0  0  0  0  0  0  0
   19.5118   -6.8548  -10.6196 C   0  0  0  0  0  0  0  0  0  0  0  0
   19.6083   -6.4074  -12.0606 C   0  0  2  0  0  0  0  0  0  0  0  0
   20.2296   -7.4895  -12.8593 N   0  0  0  0  0  0  0  0  0  0  0  0
   20.5240   -5.2585  -12.2467 C   0  0  0  0  0  0  0  0  0  0  0  0
   21.9279   -5.4343  -12.2367 O   0  0  0  0  0  0  0  0  0  0  0  0
   20.1387   -4.0987  -12.4198 O   0  0  0  0  0  0  0  0  0  0  0  0
  2  1  1  0
  3  4  1  1
  3  2  1  0
  5  3  1  0
  6  5  2  0
  7  8  1  0
  8  9  2  0
 10  8  1  0
 11 10  1  6
 11 12  1  0
 11 13  1  0
 12  5  1  0
 13 20  1  0
 14 13  2  0
 16 15  1  0
 17 16  2  0
 18 16  1  0
 19 18  1  1
 20 19  1  0
 21 19  1  0
 21 22  1  0
 23 21  2  0
M  END
$$$$
