SNN.pdb
     RDKit          3D

 23 22  0  0  1  0  0  0  0  0999 V2000
   16.0868  -12.6804  -10.6862 O   0  0  0  0  0  0  0  0  0  0  0  0
   16.3561  -11.3185  -10.9340 C   0  0  0  0  0  0  0  0  0  0  0  0
   15.1331  -10.5648  -10.5153 C   0  0  2  0  0  0  0  0  0  0  0  0
   13.9386  -10.9189  -11.2233 N   0  0  0  0  0  0  0  0  0  0  0  0
   15.3515   -9.0708  -10.5799 C   0  0  0  0  0  0  0  0  0  0  0  0
   15.2404   -8.4396  -11.6560 O   0  0  0  0  0  0  0  0  0  0  0  0
   16.0593   -4.1037   -9.3104 N   0  0  0  0  0  0  0  0  0  0  0  0
   15.4479   -4.7685   -8.1866 C   0  0  0  0  0  0  0  0  0  0  0  0
   15.0125   -4.0473   -7.2649 O   0  0  0  0  0  0  0  0  0  0  0  0
   15.3288   -6.2372   -8.1125 C   0  0  0  0  0  0  0  0  0  0  0  0
   15.8833   -6.9622   -9.3157 C   0  0  2  0  0  0  0  0  0  0  0  0
   15.6878   -8.3537   -9.4075 N   0  0  0  0  0  0  0  0  0  0  0  0
   17.1966   -6.4505   -9.7614 C   0  0  0  0  0  0  0  0  0  0  0  0
   18.2139   -6.6089   -9.0002 O   0  0  0  0  0  0  0  0  0  0  0  0
   21.8004   -5.8697  -11.7545 N   0  0  0  0  0  0  0  0  0  0  0  0
   20.7934   -6.7626  -12.2407 C   0  0  0  0  0  0  0  0  0  0  0  0
   21.1056   -7.3880  -13.2885 O   0  0  0  0  0  0  0  0  0  0  0  0
   19.4966   -6.9314  -11.5583 C   0  0  0  0  0  0  0  0  0  0  0  0
   18.8132   -5.5873  -11.4463 C   0  0  2  0  0  0  0  0  0  0  0  0
   17.4248   -5.7921  -10.9719 N   0  0  0  0  0  0  0  0  0  0  0  0
   18.6454   -4.9159  -12.7557 C   0  0  0  0  0  0  0  0  0  0  0  0
   19.5930   -3.9733  -13.2198 O   0  0  0  0  0  0  0  0  0  0  0  0
   17.6946   -5.1256  -13.5142 O   0  0  0  0  0  0  0  0  0  0  0  0
  2  1  1  0
  3  4  1  6
  3  2  1  0
  5  3  1  0
  6  5  2  0
  7  8  1  0
  8  9  2  0
 10  8  1  0
 11 10  1  1
 11 12  1  0
 11 13  1  0
 12  5  1  0
 13 20  1  0
 14 13  2  0
 16 15  1  0
 17 16  2  0
 18 16  1  0
 19 18  1  6
 20 19  1  0
 21 19  1  0
 21 22  1  0
 23 21  2  0
M  END
$$$$
