SNN.pdb
     RDKit          3D

 23 22  0  0  1  0  0  0  0  0999 V2000
   16.3603  -12.6804  -11.2952 O   0  0  0  0  0  0  0  0  0  0  0  0
   16.4128  -11.2927  -11.5407 C   0  0  0  0  0  0  0  0  0  0  0  0
   15.3253  -10.6782  -10.7169 C   0  0  2  0  0  0  0  0  0  0  0  0
   13.9976  -11.0681  -11.0892 N   0  0  0  0  0  0  0  0  0  0  0  0
   15.4348   -9.1712  -10.6867 C   0  0  0  0  0  0  0  0  0  0  0  0
   15.1778   -8.4765  -11.6967 O   0  0  0  0  0  0  0  0  0  0  0  0
   13.2781   -6.6767   -9.0678 N   0  0  0  0  0  0  0  0  0  0  0  0
   14.1652   -6.3232   -7.9876 C   0  0  0  0  0  0  0  0  0  0  0  0
   13.6421   -5.9112   -6.9314 O   0  0  0  0  0  0  0  0  0  0  0  0
   15.6312   -6.4403   -8.1049 C   0  0  0  0  0  0  0  0  0  0  0  0
   16.0954   -7.1378   -9.3615 C   0  0  2  0  0  0  0  0  0  0  0  0
   15.8335   -8.5147   -9.4985 N   0  0  0  0  0  0  0  0  0  0  0  0
   17.4080   -6.6650   -9.8501 C   0  0  0  0  0  0  0  0  0  0  0  0
   18.4666   -7.0185   -9.2225 O   0  0  0  0  0  0  0  0  0  0  0  0
   21.4012   -5.4112  -12.7314 N   0  0  0  0  0  0  0  0  0  0  0  0
   20.8465   -6.7210  -12.5748 C   0  0  0  0  0  0  0  0  0  0  0  0
   21.5731   -7.6555  -13.0052 O   0  0  0  0  0  0  0  0  0  0  0  0
   19.5278   -6.9469  -11.9537 C   0  0  0  0  0  0  0  0  0  0  0  0
   18.9589   -5.6232  -11.4953 C   0  0  2  0  0  0  0  0  0  0  0  0
   17.5934   -5.8446  -10.9651 N   0  0  0  0  0  0  0  0  0  0  0  0
   18.7568   -4.6671  -12.6082 C   0  0  0  0  0  0  0  0  0  0  0  0
   19.7130   -3.6634  -12.8915 O   0  0  0  0  0  0  0  0  0  0  0  0
   17.7684   -4.6780  -13.3473 O   0  0  0  0  0  0  0  0  0  0  0  0
  2  1  1  0
  3  4  1  6
  3  2  1  0
  5  3  1  0
  6  5  2  0
  7  8  1  0
  8  9  2  0
 10  8  1  0
 11 10  1  1
 11 12  1  0
 11 13  1  0
 12  5  1  0
 13 20  1  0
 14 13  2  0
 16 15  1  0
 17 16  2  0
 18 16  1  0
 19 18  1  6
 20 19  1  0
 21 19  1  0
 21 22  1  0
 23 21  2  0
M  END
$$$$
