SNN.pdb
     RDKit          3D

 23 22  0  0  1  0  0  0  0  0999 V2000
   14.4117  -11.4098  -14.5442 O   0  0  0  0  0  0  0  0  0  0  0  0
   15.8175  -11.4320  -14.4349 C   0  0  0  0  0  0  0  0  0  0  0  0
   16.3315  -10.4211  -15.4111 C   0  0  2  0  0  0  0  0  0  0  0  0
   16.3121  -10.8452  -16.7798 N   0  0  0  0  0  0  0  0  0  0  0  0
   17.7139   -9.9390  -15.0363 C   0  0  0  0  0  0  0  0  0  0  0  0
   17.9899   -9.5913  -13.8651 O   0  0  0  0  0  0  0  0  0  0  0  0
   20.0229  -12.3520  -15.5655 N   0  0  0  0  0  0  0  0  0  0  0  0
   21.0611  -11.7318  -16.3506 C   0  0  0  0  0  0  0  0  0  0  0  0
   21.8868  -12.4878  -16.9036 O   0  0  0  0  0  0  0  0  0  0  0  0
   21.1577  -10.2682  -16.5091 C   0  0  0  0  0  0  0  0  0  0  0  0
   20.0700   -9.4980  -15.7988 C   0  0  2  0  0  0  0  0  0  0  0  0
   18.7309   -9.8747  -16.0178 N   0  0  0  0  0  0  0  0  0  0  0  0
   20.3391   -8.0477  -15.7014 C   0  0  0  0  0  0  0  0  0  0  0  0
   19.9692   -7.2834  -16.6598 O   0  0  0  0  0  0  0  0  0  0  0  0
   21.2377   -3.2366  -14.2686 N   0  0  0  0  0  0  0  0  0  0  0  0
   19.9563   -3.8443  -14.4590 C   0  0  0  0  0  0  0  0  0  0  0  0
   18.9863   -3.0409  -14.4533 O   0  0  0  0  0  0  0  0  0  0  0  0
   19.7964   -5.2983  -14.6494 C   0  0  0  0  0  0  0  0  0  0  0  0
   21.1572   -5.9570  -14.6258 C   0  0  2  0  0  0  0  0  0  0  0  0
   20.9793   -7.4278  -14.6260 N   0  0  0  0  0  0  0  0  0  0  0  0
   21.9044   -5.6901  -13.3753 C   0  0  0  0  0  0  0  0  0  0  0  0
   22.4614   -4.4158  -13.1151 O   0  0  0  0  0  0  0  0  0  0  0  0
   22.0884   -6.5360  -12.4955 O   0  0  0  0  0  0  0  0  0  0  0  0
  2  1  1  0
  3  4  1  6
  3  2  1  0
  5  3  1  0
  6  5  2  0
  7  8  1  0
  8  9  2  0
 10  8  1  0
 11 10  1  6
 11 12  1  0
 11 13  1  0
 12  5  1  0
 13 20  1  0
 14 13  2  0
 16 15  1  0
 17 16  2  0
 18 16  1  0
 19 18  1  1
 20 19  1  0
 21 19  1  0
 21 22  1  0
 23 21  2  0
M  END
$$$$
