SNN.pdb
     RDKit          3D

 23 22  0  0  1  0  0  0  0  0999 V2000
   13.9851   -5.2899   -7.2939 O   0  0  0  0  0  0  0  0  0  0  0  0
   15.1293   -5.8025   -7.9394 C   0  0  0  0  0  0  0  0  0  0  0  0
   14.7115   -7.0903   -8.5767 C   0  0  2  0  0  0  0  0  0  0  0  0
   14.3197   -8.1158   -7.6558 N   0  0  0  0  0  0  0  0  0  0  0  0
   15.7716   -7.6145   -9.5176 C   0  0  0  0  0  0  0  0  0  0  0  0
   16.8956   -7.9763   -9.1000 O   0  0  0  0  0  0  0  0  0  0  0  0
   16.4442  -11.2966  -11.7150 N   0  0  0  0  0  0  0  0  0  0  0  0
   15.5135  -10.4254  -12.3887 C   0  0  0  0  0  0  0  0  0  0  0  0
   14.3339  -10.8214  -12.4922 O   0  0  0  0  0  0  0  0  0  0  0  0
   15.9181   -9.1163  -12.9356 C   0  0  0  0  0  0  0  0  0  0  0  0
   16.4073   -8.1377  -11.8944 C   0  0  2  0  0  0  0  0  0  0  0  0
   15.5039   -7.7069  -10.9038 N   0  0  0  0  0  0  0  0  0  0  0  0
   17.3334   -7.1176  -12.4302 C   0  0  0  0  0  0  0  0  0  0  0  0
   16.8554   -6.0061  -12.8491 O   0  0  0  0  0  0  0  0  0  0  0  0
   21.2635   -4.3923  -14.2704 N   0  0  0  0  0  0  0  0  0  0  0  0
   21.8227   -5.3986  -13.4206 C   0  0  0  0  0  0  0  0  0  0  0  0
   23.0728   -5.3344  -13.2805 O   0  0  0  0  0  0  0  0  0  0  0  0
   20.9903   -6.4236  -12.7630 C   0  0  0  0  0  0  0  0  0  0  0  0
   19.5390   -6.1902  -13.1174 C   0  0  2  0  0  0  0  0  0  0  0  0
   18.7188   -7.2698  -12.5204 N   0  0  0  0  0  0  0  0  0  0  0  0
   19.2753   -6.3061  -14.5701 C   0  0  0  0  0  0  0  0  0  0  0  0
   19.2106   -7.5704  -15.2020 O   0  0  0  0  0  0  0  0  0  0  0  0
   19.0972   -5.3357  -15.3118 O   0  0  0  0  0  0  0  0  0  0  0  0
  2  1  1  0
  3  4  1  1
  3  2  1  0
  5  3  1  0
  6  5  2  0
  7  8  1  0
  8  9  2  0
 10  8  1  0
 11 10  1  6
 11 12  1  0
 11 13  1  0
 12  5  1  0
 13 20  1  0
 14 13  2  0
 16 15  1  0
 17 16  2  0
 18 16  1  0
 19 18  1  6
 20 19  1  0
 21 19  1  0
 21 22  1  0
 23 21  2  0
M  END
$$$$
