KQG.pdb
     RDKit          3D

 23 22  0  0  1  0  0  0  0  0999 V2000
    9.0133  -16.2609   19.6764 N   0  0  0  0  0  0  0  0  0  0  0  0
    8.2707  -16.5681   20.8772 C   0  0  1  0  0  0  0  0  0  0  0  0
    8.4186  -18.0498   21.1312 C   0  0  0  0  0  0  0  0  0  0  0  0
    7.1346  -18.7100   20.6775 C   0  0  0  0  0  0  0  0  0  0  0  0
    7.1024  -20.1744   20.9852 C   0  0  0  0  0  0  0  0  0  0  0  0
    5.9239  -20.8834   20.3493 C   0  0  0  0  0  0  0  0  0  0  0  0
    6.1260  -22.3134   20.6087 N   0  0  0  0  0  0  0  0  0  0  0  0
    8.7882  -15.7451   21.9877 C   0  0  0  0  0  0  0  0  0  0  0  0
    9.9484  -15.2839   21.8892 O   0  0  0  0  0  0  0  0  0  0  0  0
    5.2138  -12.7007   26.2929 N   0  0  0  0  0  0  0  0  0  0  0  0
    6.5513  -12.3145   26.6346 C   0  0  0  0  0  0  0  0  0  0  0  0
    6.6302  -11.4282   27.5239 O   0  0  0  0  0  0  0  0  0  0  0  0
    7.7291  -12.9203   25.9915 C   0  0  0  0  0  0  0  0  0  0  0  0
    7.5153  -13.8778   24.9002 C   0  0  0  0  0  0  0  0  0  0  0  0
    8.6136  -14.5899   24.2348 C   0  0  2  0  0  0  0  0  0  0  0  0
    8.0388  -15.4544   23.1516 N   0  0  0  0  0  0  0  0  0  0  0  0
    9.5489  -15.3820   25.0099 C   0  0  0  0  0  0  0  0  0  0  0  0
   10.3241  -14.7736   25.8642 O   0  0  0  0  0  0  0  0  0  0  0  0
    9.7471  -16.7737   24.9894 N   0  0  0  0  0  0  0  0  0  0  0  0
   10.6523  -17.4359   25.8855 C   0  0  0  0  0  0  0  0  0  0  0  0
   10.1806  -17.7194   27.2240 C   0  0  0  0  0  0  0  0  0  0  0  0
    9.0254  -17.4851   27.6028 O   0  0  0  0  0  0  0  0  0  0  0  0
   11.0764  -18.2850   28.1294 O   0  0  0  0  0  0  0  0  0  0  0  0
  2  1  1  6
  2  8  1  0
  3  2  1  0
  4  3  1  0
  5  4  1  0
  6  7  1  0
  6  5  1  0
  8  9  2  0
 11 12  2  0
 11 10  1  0
 13 11  1  0
 14 13  1  0
 15 14  1  1
 16  8  1  0
 16 15  1  0
 17 19  1  0
 17 15  1  0
 18 17  2  0
 20 19  1  0
 21 23  1  0
 21 20  1  0
 22 21  2  0
M  END
$$$$
