KQG.pdb
     RDKit          3D

 23 22  0  0  1  0  0  0  0  0999 V2000
   13.3457  -17.8313   17.1950 N   0  0  0  0  0  0  0  0  0  0  0  0
   13.3580  -18.3582   18.5404 C   0  0  1  0  0  0  0  0  0  0  0  0
   14.4555  -19.3938   18.6083 C   0  0  0  0  0  0  0  0  0  0  0  0
   15.1851  -19.3574   17.2829 C   0  0  0  0  0  0  0  0  0  0  0  0
   16.3152  -20.3368   17.2227 C   0  0  0  0  0  0  0  0  0  0  0  0
   17.0596  -20.2960   15.9036 C   0  0  0  0  0  0  0  0  0  0  0  0
   18.1142  -21.3113   16.0043 N   0  0  0  0  0  0  0  0  0  0  0  0
   13.5625  -17.2478   19.4909 C   0  0  0  0  0  0  0  0  0  0  0  0
   14.0804  -16.1915   19.0614 O   0  0  0  0  0  0  0  0  0  0  0  0
   10.9354  -15.3364   25.1691 N   0  0  0  0  0  0  0  0  0  0  0  0
   11.0965  -16.7016   24.7629 C   0  0  0  0  0  0  0  0  0  0  0  0
   10.6919  -17.5490   25.6001 O   0  0  0  0  0  0  0  0  0  0  0  0
   11.6849  -17.0672   23.4637 C   0  0  0  0  0  0  0  0  0  0  0  0
   12.1835  -15.9948   22.5949 C   0  0  0  0  0  0  0  0  0  0  0  0
   13.3825  -16.1354   21.7592 C   0  0  2  0  0  0  0  0  0  0  0  0
   13.2028  -17.3207   20.8570 N   0  0  0  0  0  0  0  0  0  0  0  0
   14.6956  -16.2151   22.3695 C   0  0  0  0  0  0  0  0  0  0  0  0
   15.2199  -17.3922   22.5710 O   0  0  0  0  0  0  0  0  0  0  0  0
   15.5352  -15.1665   22.7842 N   0  0  0  0  0  0  0  0  0  0  0  0
   16.7365  -15.3935   23.5366 C   0  0  0  0  0  0  0  0  0  0  0  0
   17.9503  -15.6596   22.7946 C   0  0  0  0  0  0  0  0  0  0  0  0
   18.0214  -16.4926   21.8814 O   0  0  0  0  0  0  0  0  0  0  0  0
   19.0951  -14.9386   23.1289 O   0  0  0  0  0  0  0  0  0  0  0  0
  2  1  1  6
  2  8  1  0
  3  2  1  0
  4  3  1  0
  5  4  1  0
  6  7  1  0
  6  5  1  0
  8  9  2  0
 11 12  2  0
 11 10  1  0
 13 11  1  0
 14 13  1  0
 15 14  1  1
 16  8  1  0
 16 15  1  0
 17 19  1  0
 17 15  1  0
 18 17  2  0
 20 19  1  0
 21 23  1  0
 21 20  1  0
 22 21  2  0
M  END
$$$$
