KQG.pdb
     RDKit          3D

 23 22  0  0  1  0  0  0  0  0999 V2000
    7.4975  -15.9932   20.9744 N   0  0  0  0  0  0  0  0  0  0  0  0
    8.4142  -14.8786   21.0466 C   0  0  1  0  0  0  0  0  0  0  0  0
    7.7651  -13.7151   20.3347 C   0  0  0  0  0  0  0  0  0  0  0  0
    7.4206  -14.1837   18.9376 C   0  0  0  0  0  0  0  0  0  0  0  0
    8.2805  -13.5477   17.8905 C   0  0  0  0  0  0  0  0  0  0  0  0
    7.8787  -13.9378   16.4826 C   0  0  0  0  0  0  0  0  0  0  0  0
    8.7966  -13.2225   15.5887 N   0  0  0  0  0  0  0  0  0  0  0  0
    8.7084  -14.5876   22.4632 C   0  0  0  0  0  0  0  0  0  0  0  0
    9.5708  -13.7164   22.7198 O   0  0  0  0  0  0  0  0  0  0  0  0
    6.1900  -11.5704   25.9308 N   0  0  0  0  0  0  0  0  0  0  0  0
    6.4636  -12.4229   27.0503 C   0  0  0  0  0  0  0  0  0  0  0  0
    6.3069  -11.8794   28.1740 O   0  0  0  0  0  0  0  0  0  0  0  0
    6.8877  -13.8229   26.8824 C   0  0  0  0  0  0  0  0  0  0  0  0
    7.0158  -14.3567   25.5215 C   0  0  0  0  0  0  0  0  0  0  0  0
    8.2957  -14.7983   24.9533 C   0  0  2  0  0  0  0  0  0  0  0  0
    8.0652  -15.2432   23.5391 N   0  0  0  0  0  0  0  0  0  0  0  0
    9.0891  -15.8057   25.6304 C   0  0  0  0  0  0  0  0  0  0  0  0
    9.4200  -15.6064   26.8761 O   0  0  0  0  0  0  0  0  0  0  0  0
    9.5671  -17.0290   25.1287 N   0  0  0  0  0  0  0  0  0  0  0  0
   10.2192  -18.0003   25.9606 C   0  0  0  0  0  0  0  0  0  0  0  0
   11.6625  -17.9419   26.0517 C   0  0  0  0  0  0  0  0  0  0  0  0
   12.3462  -17.0791   25.4852 O   0  0  0  0  0  0  0  0  0  0  0  0
   12.3114  -18.9087   26.8175 O   0  0  0  0  0  0  0  0  0  0  0  0
  2  1  1  1
  2  8  1  0
  3  2  1  0
  4  3  1  0
  5  4  1  0
  6  7  1  0
  6  5  1  0
  8  9  2  0
 11 12  2  0
 11 10  1  0
 13 11  1  0
 14 13  1  0
 15 14  1  1
 16  8  1  0
 16 15  1  0
 17 19  1  0
 17 15  1  0
 18 17  2  0
 20 19  1  0
 21 23  1  0
 21 20  1  0
 22 21  2  0
M  END
$$$$
