KQG.pdb
     RDKit          3D

 23 22  0  0  1  0  0  0  0  0999 V2000
    7.8832  -19.2356   21.1279 N   0  0  0  0  0  0  0  0  0  0  0  0
    7.2949  -17.9440   20.8571 C   0  0  1  0  0  0  0  0  0  0  0  0
    5.9281  -18.1877   20.2620 C   0  0  0  0  0  0  0  0  0  0  0  0
    6.0948  -19.2258   19.1735 C   0  0  0  0  0  0  0  0  0  0  0  0
    4.8182  -19.5003   18.4419 C   0  0  0  0  0  0  0  0  0  0  0  0
    5.0017  -20.4474   17.2734 C   0  0  0  0  0  0  0  0  0  0  0  0
    3.6717  -20.6126   16.6758 N   0  0  0  0  0  0  0  0  0  0  0  0
    7.2404  -17.1670   22.1107 C   0  0  0  0  0  0  0  0  0  0  0  0
    6.7499  -16.0153   22.0700 O   0  0  0  0  0  0  0  0  0  0  0  0
    8.1483  -18.6352   28.0711 N   0  0  0  0  0  0  0  0  0  0  0  0
    7.6260  -19.4589   27.0205 C   0  0  0  0  0  0  0  0  0  0  0  0
    7.7595  -20.6956   27.2083 O   0  0  0  0  0  0  0  0  0  0  0  0
    6.9820  -18.8883   25.8258 C   0  0  0  0  0  0  0  0  0  0  0  0
    7.0085  -17.4324   25.6446 C   0  0  0  0  0  0  0  0  0  0  0  0
    7.7495  -16.7751   24.5606 C   0  0  2  0  0  0  0  0  0  0  0  0
    7.7137  -17.6597   23.3493 N   0  0  0  0  0  0  0  0  0  0  0  0
    9.1150  -16.3336   24.7693 C   0  0  0  0  0  0  0  0  0  0  0  0
    9.3663  -15.5325   25.7673 O   0  0  0  0  0  0  0  0  0  0  0  0
   10.2660  -16.6644   24.0329 N   0  0  0  0  0  0  0  0  0  0  0  0
   11.5252  -16.0052   24.2348 C   0  0  0  0  0  0  0  0  0  0  0  0
   12.6422  -16.4327   23.4198 C   0  0  0  0  0  0  0  0  0  0  0  0
   12.5563  -17.3153   22.5559 O   0  0  0  0  0  0  0  0  0  0  0  0
   13.8756  -15.8162   23.6217 O   0  0  0  0  0  0  0  0  0  0  0  0
  2  1  1  1
  2  8  1  0
  3  2  1  0
  4  3  1  0
  5  4  1  0
  6  7  1  0
  6  5  1  0
  8  9  2  0
 11 12  2  0
 11 10  1  0
 13 11  1  0
 14 13  1  0
 15 14  1  1
 16  8  1  0
 16 15  1  0
 17 19  1  0
 17 15  1  0
 18 17  2  0
 20 19  1  0
 21 23  1  0
 21 20  1  0
 22 21  2  0
M  END
$$$$
