KQG.pdb
     RDKit          3D

 23 22  0  0  1  0  0  0  0  0999 V2000
    3.6212  -20.6990   21.7311 N   0  0  0  0  0  0  0  0  0  0  0  0
    4.6576  -21.5164   22.3187 C   0  0  1  0  0  0  0  0  0  0  0  0
    5.3071  -22.2941   21.1983 C   0  0  0  0  0  0  0  0  0  0  0  0
    4.2095  -23.0630   20.4951 C   0  0  0  0  0  0  0  0  0  0  0  0
    4.7296  -23.9151   19.3799 C   0  0  0  0  0  0  0  0  0  0  0  0
    3.6258  -24.5899   18.5911 C   0  0  0  0  0  0  0  0  0  0  0  0
    4.2944  -25.3322   17.5163 N   0  0  0  0  0  0  0  0  0  0  0  0
    5.6101  -20.6457   23.0348 C   0  0  0  0  0  0  0  0  0  0  0  0
    5.7494  -19.4677   22.6330 O   0  0  0  0  0  0  0  0  0  0  0  0
    6.6640  -20.4649   29.1492 N   0  0  0  0  0  0  0  0  0  0  0  0
    7.4511  -19.3812   28.6381 C   0  0  0  0  0  0  0  0  0  0  0  0
    7.9097  -18.6064   29.5167 O   0  0  0  0  0  0  0  0  0  0  0  0
    7.6989  -19.2056   27.1975 C   0  0  0  0  0  0  0  0  0  0  0  0
    7.0127  -20.0976   26.2557 C   0  0  0  0  0  0  0  0  0  0  0  0
    7.3325  -20.1465   24.8235 C   0  0  2  0  0  0  0  0  0  0  0  0
    6.3689  -21.0772   24.1478 N   0  0  0  0  0  0  0  0  0  0  0  0
    8.6751  -20.4732   24.3834 C   0  0  0  0  0  0  0  0  0  0  0  0
    9.1449  -21.6619   24.6424 O   0  0  0  0  0  0  0  0  0  0  0  0
    9.5855  -19.6701   23.6743 N   0  0  0  0  0  0  0  0  0  0  0  0
   10.7846  -19.1541   24.2716 C   0  0  0  0  0  0  0  0  0  0  0  0
   11.7488  -20.1112   24.7703 C   0  0  0  0  0  0  0  0  0  0  0  0
   11.5826  -20.7687   25.8061 O   0  0  0  0  0  0  0  0  0  0  0  0
   12.9232  -20.2989   24.0437 O   0  0  0  0  0  0  0  0  0  0  0  0
  2  1  1  6
  2  8  1  0
  3  2  1  0
  4  3  1  0
  5  4  1  0
  6  7  1  0
  6  5  1  0
  8  9  2  0
 11 12  2  0
 11 10  1  0
 13 11  1  0
 14 13  1  0
 15 14  1  1
 16  8  1  0
 16 15  1  0
 17 19  1  0
 17 15  1  0
 18 17  2  0
 20 19  1  0
 21 23  1  0
 21 20  1  0
 22 21  2  0
M  END
$$$$
