KQG.pdb
     RDKit          3D

 23 22  0  0  1  0  0  0  0  0999 V2000
    4.7443  -17.3328   21.5897 N   0  0  0  0  0  0  0  0  0  0  0  0
    6.0765  -16.8995   21.9436 C   0  0  1  0  0  0  0  0  0  0  0  0
    6.1831  -15.4354   21.5876 C   0  0  0  0  0  0  0  0  0  0  0  0
    7.2939  -15.3046   20.5681 C   0  0  0  0  0  0  0  0  0  0  0  0
    7.5507  -13.8825   20.1783 C   0  0  0  0  0  0  0  0  0  0  0  0
    8.5221  -13.7554   19.0225 C   0  0  0  0  0  0  0  0  0  0  0  0
    8.5638  -12.3277   18.6862 N   0  0  0  0  0  0  0  0  0  0  0  0
    6.3005  -17.1546   23.3799 C   0  0  0  0  0  0  0  0  0  0  0  0
    5.4422  -16.7419   24.1932 O   0  0  0  0  0  0  0  0  0  0  0  0
    6.2157  -22.2000   26.1034 N   0  0  0  0  0  0  0  0  0  0  0  0
    6.8402  -21.4568   27.1582 C   0  0  0  0  0  0  0  0  0  0  0  0
    6.9681  -22.0873   28.2393 O   0  0  0  0  0  0  0  0  0  0  0  0
    7.2955  -20.0688   26.9740 C   0  0  0  0  0  0  0  0  0  0  0  0
    7.1759  -19.4642   25.6423 C   0  0  0  0  0  0  0  0  0  0  0  0
    7.5916  -18.0867   25.3495 C   0  0  2  0  0  0  0  0  0  0  0  0
    7.4333  -17.8398   23.8781 N   0  0  0  0  0  0  0  0  0  0  0  0
    8.9001  -17.6138   25.7585 C   0  0  0  0  0  0  0  0  0  0  0  0
    9.7107  -17.1537   24.8463 O   0  0  0  0  0  0  0  0  0  0  0  0
    9.4486  -17.5605   27.0519 N   0  0  0  0  0  0  0  0  0  0  0  0
   10.8143  -17.1903   27.2945 C   0  0  0  0  0  0  0  0  0  0  0  0
   11.2551  -17.1253   28.6715 C   0  0  0  0  0  0  0  0  0  0  0  0
   10.5026  -17.3111   29.6369 O   0  0  0  0  0  0  0  0  0  0  0  0
   12.5964  -16.8386   28.9182 O   0  0  0  0  0  0  0  0  0  0  0  0
  2  1  1  1
  2  8  1  0
  3  2  1  0
  4  3  1  0
  5  4  1  0
  6  7  1  0
  6  5  1  0
  8  9  2  0
 11 12  2  0
 11 10  1  0
 13 11  1  0
 14 13  1  0
 15 14  1  6
 16  8  1  0
 16 15  1  0
 17 19  1  0
 17 15  1  0
 18 17  2  0
 20 19  1  0
 21 23  1  0
 21 20  1  0
 22 21  2  0
M  END
$$$$
