KQG.pdb
     RDKit          3D

 23 22  0  0  1  0  0  0  0  0999 V2000
    7.2981  -15.4951   20.4891 N   0  0  0  0  0  0  0  0  0  0  0  0
    8.4056  -14.5687   20.5446 C   0  0  1  0  0  0  0  0  0  0  0  0
    7.9881  -13.3228   19.7995 C   0  0  0  0  0  0  0  0  0  0  0  0
    7.4155  -13.7686   18.4715 C   0  0  0  0  0  0  0  0  0  0  0  0
    8.4746  -14.0084   17.4413 C   0  0  0  0  0  0  0  0  0  0  0  0
    7.9057  -14.4006   16.0929 C   0  0  0  0  0  0  0  0  0  0  0  0
    9.0618  -14.6260   15.2178 N   0  0  0  0  0  0  0  0  0  0  0  0
    8.7410  -14.3026   21.9569 C   0  0  0  0  0  0  0  0  0  0  0  0
    9.7133  -13.5518   22.2010 O   0  0  0  0  0  0  0  0  0  0  0  0
    5.5679  -11.7925   26.0434 N   0  0  0  0  0  0  0  0  0  0  0  0
    6.4207  -12.4714   26.9743 C   0  0  0  0  0  0  0  0  0  0  0  0
    6.3676  -12.0310   28.1516 O   0  0  0  0  0  0  0  0  0  0  0  0
    7.2803  -13.5967   26.5711 C   0  0  0  0  0  0  0  0  0  0  0  0
    7.2341  -14.0471   25.1752 C   0  0  0  0  0  0  0  0  0  0  0  0
    8.4136  -14.5456   24.4567 C   0  0  2  0  0  0  0  0  0  0  0  0
    8.0196  -14.8531   23.0420 N   0  0  0  0  0  0  0  0  0  0  0  0
    9.1697  -15.6673   24.9792 C   0  0  0  0  0  0  0  0  0  0  0  0
    9.5805  -15.6211   26.2162 O   0  0  0  0  0  0  0  0  0  0  0  0
    9.5329  -16.8595   24.3286 N   0  0  0  0  0  0  0  0  0  0  0  0
   10.1935  -17.9375   25.0087 C   0  0  0  0  0  0  0  0  0  0  0  0
   11.6376  -17.9931   24.9298 C   0  0  0  0  0  0  0  0  0  0  0  0
   12.3297  -17.0789   24.4630 O   0  0  0  0  0  0  0  0  0  0  0  0
   12.2771  -19.1365   25.4049 O   0  0  0  0  0  0  0  0  0  0  0  0
  2  1  1  1
  2  8  1  0
  3  2  1  0
  4  3  1  0
  5  4  1  0
  6  7  1  0
  6  5  1  0
  8  9  2  0
 11 12  2  0
 11 10  1  0
 13 11  1  0
 14 13  1  0
 15 14  1  1
 16  8  1  0
 16 15  1  0
 17 19  1  0
 17 15  1  0
 18 17  2  0
 20 19  1  0
 21 23  1  0
 21 20  1  0
 22 21  2  0
M  END
$$$$
