KQG.pdb
     RDKit          3D

 23 22  0  0  1  0  0  0  0  0999 V2000
    9.9888  -15.5085   19.7396 N   0  0  0  0  0  0  0  0  0  0  0  0
    8.8184  -15.7923   20.5381 C   0  0  1  0  0  0  0  0  0  0  0  0
    8.5347  -17.2705   20.4115 C   0  0  0  0  0  0  0  0  0  0  0  0
    8.3091  -17.5567   18.9427 C   0  0  0  0  0  0  0  0  0  0  0  0
    7.1475  -18.4709   18.7078 C   0  0  0  0  0  0  0  0  0  0  0  0
    6.9233  -18.7721   17.2399 C   0  0  0  0  0  0  0  0  0  0  0  0
    5.7231  -19.6143   17.1800 N   0  0  0  0  0  0  0  0  0  0  0  0
    9.0738  -15.3783   21.9315 C   0  0  0  0  0  0  0  0  0  0  0  0
   10.2224  -15.5552   22.3984 O   0  0  0  0  0  0  0  0  0  0  0  0
    5.3792  -11.5486   25.4949 N   0  0  0  0  0  0  0  0  0  0  0  0
    6.4184  -11.9427   26.4002 C   0  0  0  0  0  0  0  0  0  0  0  0
    6.3725  -11.3840   27.5264 O   0  0  0  0  0  0  0  0  0  0  0  0
    7.4472  -12.9284   26.0291 C   0  0  0  0  0  0  0  0  0  0  0  0
    7.4760  -13.4233   24.6479 C   0  0  0  0  0  0  0  0  0  0  0  0
    8.3798  -14.4902   24.1997 C   0  0  2  0  0  0  0  0  0  0  0  0
    8.0872  -14.7941   22.7598 N   0  0  0  0  0  0  0  0  0  0  0  0
    8.4549  -15.7412   24.9292 C   0  0  0  0  0  0  0  0  0  0  0  0
    7.4655  -16.5847   24.8255 O   0  0  0  0  0  0  0  0  0  0  0  0
    9.4870  -16.2116   25.7599 N   0  0  0  0  0  0  0  0  0  0  0  0
    9.4232  -17.4837   26.4221 C   0  0  0  0  0  0  0  0  0  0  0  0
   10.5851  -17.9045   27.1756 C   0  0  0  0  0  0  0  0  0  0  0  0
   11.6391  -17.2566   27.2201 O   0  0  0  0  0  0  0  0  0  0  0  0
   10.5085  -19.1011   27.8859 O   0  0  0  0  0  0  0  0  0  0  0  0
  2  1  1  6
  2  8  1  0
  3  2  1  0
  4  3  1  0
  5  4  1  0
  6  7  1  0
  6  5  1  0
  8  9  2  0
 11 12  2  0
 11 10  1  0
 13 11  1  0
 14 13  1  0
 15 14  1  1
 16  8  1  0
 16 15  1  0
 17 19  1  0
 17 15  1  0
 18 17  2  0
 20 19  1  0
 21 23  1  0
 21 20  1  0
 22 21  2  0
M  END
$$$$
