KQG.pdb
     RDKit          3D

 23 22  0  0  1  0  0  0  0  0999 V2000
    7.0160  -18.1368   21.1755 N   0  0  0  0  0  0  0  0  0  0  0  0
    7.9744  -17.4730   20.3219 C   0  0  1  0  0  0  0  0  0  0  0  0
    7.2148  -16.9133   19.1423 C   0  0  0  0  0  0  0  0  0  0  0  0
    6.8086  -18.0864   18.2767 C   0  0  0  0  0  0  0  0  0  0  0  0
    7.0493  -17.8359   16.8208 C   0  0  0  0  0  0  0  0  0  0  0  0
    6.5636  -18.9696   15.9406 C   0  0  0  0  0  0  0  0  0  0  0  0
    6.7640  -18.5207   14.5581 N   0  0  0  0  0  0  0  0  0  0  0  0
    8.6701  -16.4290   21.0991 C   0  0  0  0  0  0  0  0  0  0  0  0
    9.5633  -15.7638   20.5262 O   0  0  0  0  0  0  0  0  0  0  0  0
    6.6033  -12.0808   25.1073 N   0  0  0  0  0  0  0  0  0  0  0  0
    6.4104  -13.4662   25.4211 C   0  0  0  0  0  0  0  0  0  0  0  0
    5.5107  -13.6909   26.2712 O   0  0  0  0  0  0  0  0  0  0  0  0
    7.2057  -14.5303   24.7863 C   0  0  0  0  0  0  0  0  0  0  0  0
    8.2214  -14.1496   23.7979 C   0  0  0  0  0  0  0  0  0  0  0  0
    9.1601  -15.1107   23.2055 C   0  0  2  0  0  0  0  0  0  0  0  0
    8.3768  -16.1461   22.4537 N   0  0  0  0  0  0  0  0  0  0  0  0
   10.1389  -15.7856   24.0359 C   0  0  0  0  0  0  0  0  0  0  0  0
    9.7253  -16.6944   24.8749 O   0  0  0  0  0  0  0  0  0  0  0  0
   11.5336  -15.6108   24.0659 N   0  0  0  0  0  0  0  0  0  0  0  0
   12.4306  -16.6476   24.4916 C   0  0  0  0  0  0  0  0  0  0  0  0
   13.8453  -16.3425   24.5088 C   0  0  0  0  0  0  0  0  0  0  0  0
   14.7054  -17.1244   24.9351 O   0  0  0  0  0  0  0  0  0  0  0  0
   14.2555  -15.1039   24.0191 O   0  0  0  0  0  0  0  0  0  0  0  0
  2  1  1  1
  2  8  1  0
  3  2  1  0
  4  3  1  0
  5  4  1  0
  6  7  1  0
  6  5  1  0
  8  9  2  0
 11 12  2  0
 11 10  1  0
 13 11  1  0
 14 13  1  0
 15 14  1  1
 16  8  1  0
 16 15  1  0
 17 19  1  0
 17 15  1  0
 18 17  2  0
 20 19  1  0
 21 23  1  0
 21 20  1  0
 22 21  2  0
M  END
$$$$
