KQG.pdb
     RDKit          3D

 23 22  0  0  1  0  0  0  0  0999 V2000
    7.5492  -15.7719   20.7689 N   0  0  0  0  0  0  0  0  0  0  0  0
    8.3154  -14.5482   20.8236 C   0  0  1  0  0  0  0  0  0  0  0  0
    7.4641  -13.4565   20.2192 C   0  0  0  0  0  0  0  0  0  0  0  0
    7.2325  -13.8233   18.7694 C   0  0  0  0  0  0  0  0  0  0  0  0
    7.9409  -12.9036   17.8245 C   0  0  0  0  0  0  0  0  0  0  0  0
    8.2607  -13.5576   16.4957 C   0  0  0  0  0  0  0  0  0  0  0  0
    6.9734  -13.9877   15.9380 N   0  0  0  0  0  0  0  0  0  0  0  0
    8.6842  -14.2729   22.2259 C   0  0  0  0  0  0  0  0  0  0  0  0
    9.3531  -13.2422   22.4685 O   0  0  0  0  0  0  0  0  0  0  0  0
    6.8922  -13.0013   27.9030 N   0  0  0  0  0  0  0  0  0  0  0  0
    6.3968  -12.6296   26.6102 C   0  0  0  0  0  0  0  0  0  0  0  0
    5.7177  -11.5707   26.5934 O   0  0  0  0  0  0  0  0  0  0  0  0
    6.6739  -13.4304   25.4061 C   0  0  0  0  0  0  0  0  0  0  0  0
    7.5511  -14.6002   25.5306 C   0  0  0  0  0  0  0  0  0  0  0  0
    8.7492  -14.7926   24.7039 C   0  0  2  0  0  0  0  0  0  0  0  0
    8.3194  -15.1142   23.3029 N   0  0  0  0  0  0  0  0  0  0  0  0
    9.7698  -15.7424   25.1030 C   0  0  0  0  0  0  0  0  0  0  0  0
   10.2007  -15.7154   26.3336 O   0  0  0  0  0  0  0  0  0  0  0  0
   10.3849  -16.7445   24.3322 N   0  0  0  0  0  0  0  0  0  0  0  0
   11.3469  -17.6572   24.8820 C   0  0  0  0  0  0  0  0  0  0  0  0
   12.7120  -17.5532   24.4126 C   0  0  0  0  0  0  0  0  0  0  0  0
   13.6250  -18.2919   24.8045 O   0  0  0  0  0  0  0  0  0  0  0  0
   13.0089  -16.5695   23.4711 O   0  0  0  0  0  0  0  0  0  0  0  0
  2  1  1  1
  2  8  1  0
  3  2  1  0
  4  3  1  0
  5  4  1  0
  6  7  1  0
  6  5  1  0
  8  9  2  0
 11 12  2  0
 11 10  1  0
 13 11  1  0
 14 13  1  0
 15 14  1  1
 16  8  1  0
 16 15  1  0
 17 19  1  0
 17 15  1  0
 18 17  2  0
 20 19  1  0
 21 23  1  0
 21 20  1  0
 22 21  2  0
M  END
$$$$
