KQG.pdb
     RDKit          3D

 23 22  0  0  1  0  0  0  0  0999 V2000
    7.8712  -15.7737   21.0482 N   0  0  0  0  0  0  0  0  0  0  0  0
    8.6233  -14.5432   21.1368 C   0  0  1  0  0  0  0  0  0  0  0  0
    7.8760  -13.5003   20.3395 C   0  0  0  0  0  0  0  0  0  0  0  0
    7.4951  -14.1365   19.0203 C   0  0  0  0  0  0  0  0  0  0  0  0
    8.1984  -13.5104   17.8568 C   0  0  0  0  0  0  0  0  0  0  0  0
    7.8498  -14.1663   16.5362 C   0  0  0  0  0  0  0  0  0  0  0  0
    8.5088  -13.3624   15.5005 N   0  0  0  0  0  0  0  0  0  0  0  0
    8.7762  -14.1731   22.5573 C   0  0  0  0  0  0  0  0  0  0  0  0
    8.7731  -12.9562   22.8535 O   0  0  0  0  0  0  0  0  0  0  0  0
    6.3138  -10.7362   26.3661 N   0  0  0  0  0  0  0  0  0  0  0  0
    6.2476  -12.1441   26.1050 C   0  0  0  0  0  0  0  0  0  0  0  0
    5.5571  -12.7983   26.9283 O   0  0  0  0  0  0  0  0  0  0  0  0
    6.9338  -12.7601   24.9571 C   0  0  0  0  0  0  0  0  0  0  0  0
    7.1793  -14.2066   24.9828 C   0  0  0  0  0  0  0  0  0  0  0  0
    8.5273  -14.7884   25.0015 C   0  0  2  0  0  0  0  0  0  0  0  0
    8.9254  -15.1235   23.5943 N   0  0  0  0  0  0  0  0  0  0  0  0
    8.8214  -15.9286   25.8480 C   0  0  0  0  0  0  0  0  0  0  0  0
    8.8729  -15.7508   27.1390 O   0  0  0  0  0  0  0  0  0  0  0  0
    9.0571  -17.2626   25.4719 N   0  0  0  0  0  0  0  0  0  0  0  0
   10.3251  -17.7077   24.9670 C   0  0  0  0  0  0  0  0  0  0  0  0
   11.3770  -17.9593   25.9288 C   0  0  0  0  0  0  0  0  0  0  0  0
   11.2488  -17.7646   27.1447 O   0  0  0  0  0  0  0  0  0  0  0  0
   12.5948  -18.4457   25.4571 O   0  0  0  0  0  0  0  0  0  0  0  0
  2  1  1  1
  2  8  1  0
  3  2  1  0
  4  3  1  0
  5  4  1  0
  6  7  1  0
  6  5  1  0
  8  9  2  0
 11 12  2  0
 11 10  1  0
 13 11  1  0
 14 13  1  0
 15 14  1  6
 16  8  1  0
 16 15  1  0
 17 19  1  0
 17 15  1  0
 18 17  2  0
 20 19  1  0
 21 23  1  0
 21 20  1  0
 22 21  2  0
M  END
$$$$
