KQG.pdb
     RDKit          3D

 23 22  0  0  1  0  0  0  0  0999 V2000
    8.2033  -16.5881   15.9337 N   0  0  0  0  0  0  0  0  0  0  0  0
    9.0817  -15.4411   15.9564 C   0  0  1  0  0  0  0  0  0  0  0  0
    8.3826  -14.3240   15.2181 C   0  0  0  0  0  0  0  0  0  0  0  0
    8.4573  -14.6502   13.7422 C   0  0  0  0  0  0  0  0  0  0  0  0
    7.3033  -15.4835   13.2794 C   0  0  0  0  0  0  0  0  0  0  0  0
    7.4001  -15.8612   11.8152 C   0  0  0  0  0  0  0  0  0  0  0  0
    6.2206  -16.6873   11.5333 N   0  0  0  0  0  0  0  0  0  0  0  0
    9.3859  -15.0948   17.3584 C   0  0  0  0  0  0  0  0  0  0  0  0
   10.1937  -14.1622   17.5737 O   0  0  0  0  0  0  0  0  0  0  0  0
    7.3123  -11.4394   20.6549 N   0  0  0  0  0  0  0  0  0  0  0  0
    7.1882  -12.7574   21.2048 C   0  0  0  0  0  0  0  0  0  0  0  0
    7.2573  -12.8105   22.4598 O   0  0  0  0  0  0  0  0  0  0  0  0
    6.9902  -13.9439   20.3559 C   0  0  0  0  0  0  0  0  0  0  0  0
    7.8475  -15.1140   20.5781 C   0  0  0  0  0  0  0  0  0  0  0  0
    9.1146  -15.3233   19.8662 C   0  0  2  0  0  0  0  0  0  0  0  0
    8.8108  -15.7633   18.4643 N   0  0  0  0  0  0  0  0  0  0  0  0
   10.1274  -16.2031   20.4167 C   0  0  0  0  0  0  0  0  0  0  0  0
   10.2067  -17.4237   19.9643 O   0  0  0  0  0  0  0  0  0  0  0  0
   11.0916  -15.9231   21.4008 N   0  0  0  0  0  0  0  0  0  0  0  0
   12.0108  -16.9150   21.8825 C   0  0  0  0  0  0  0  0  0  0  0  0
   13.2049  -17.1559   21.1009 C   0  0  0  0  0  0  0  0  0  0  0  0
   13.3937  -16.6692   19.9783 O   0  0  0  0  0  0  0  0  0  0  0  0
   14.1898  -17.9788   21.6442 O   0  0  0  0  0  0  0  0  0  0  0  0
  2  1  1  1
  2  8  1  0
  3  2  1  0
  4  3  1  0
  5  4  1  0
  6  7  1  0
  6  5  1  0
  8  9  2  0
 11 12  2  0
 11 10  1  0
 13 11  1  0
 14 13  1  0
 15 14  1  1
 16  8  1  0
 16 15  1  0
 17 19  1  0
 17 15  1  0
 18 17  2  0
 20 19  1  0
 21 23  1  0
 21 20  1  0
 22 21  2  0
M  END
$$$$
