KTT.pdb
     RDKit          3D

 24 23  0  0  1  0  0  0  0  0999 V2000
   18.3072   -9.2642  -16.0199 N   0  0  0  0  0  0  0  0  0  0  0  0
   19.1440  -10.1812  -15.2210 C   0  0  1  0  0  0  0  0  0  0  0  0
   18.9182  -11.5637  -15.6910 C   0  0  0  0  0  0  0  0  0  0  0  0
   17.5668  -12.1123  -15.4963 C   0  0  0  0  0  0  0  0  0  0  0  0
   17.1670  -13.4427  -15.9822 C   0  0  0  0  0  0  0  0  0  0  0  0
   15.8090  -13.9687  -15.7298 C   0  0  0  0  0  0  0  0  0  0  0  0
   15.6154  -15.2653  -16.4274 N   0  0  0  0  0  0  0  0  0  0  0  0
   20.5662   -9.7357  -15.5747 C   0  0  0  0  0  0  0  0  0  0  0  0
   21.5286  -10.3467  -15.0825 O   0  0  0  0  0  0  0  0  0  0  0  0
   21.9166   -9.5058  -19.0648 C   0  0  0  0  0  0  0  0  0  0  0  0
   22.0248   -8.1818  -18.3951 C   0  0  1  0  0  0  0  0  0  0  0  0
   20.9003   -7.3674  -18.6805 O   0  0  0  0  0  0  0  0  0  0  0  0
   22.1197   -8.2282  -16.8836 C   0  0  2  0  0  0  0  0  0  0  0  0
   20.7781   -8.6417  -16.4512 N   0  0  0  0  0  0  0  0  0  0  0  0
   22.5006   -6.9620  -16.2549 C   0  0  0  0  0  0  0  0  0  0  0  0
   23.6752   -6.4754  -16.4356 O   0  0  0  0  0  0  0  0  0  0  0  0
   20.9944   -3.5059  -16.3970 C   0  0  0  0  0  0  0  0  0  0  0  0
   21.0963   -3.9123  -14.9448 C   0  0  1  0  0  0  0  0  0  0  0  0
   19.8833   -4.4479  -14.5359 O   0  0  0  0  0  0  0  0  0  0  0  0
   22.1806   -4.9714  -14.7491 C   0  0  2  0  0  0  0  0  0  0  0  0
   21.6637   -6.1784  -15.4285 N   0  0  0  0  0  0  0  0  0  0  0  0
   22.2782   -5.2502  -13.3152 C   0  0  0  0  0  0  0  0  0  0  0  0
   21.9528   -6.3687  -12.8343 O   0  0  0  0  0  0  0  0  0  0  0  0
   22.7336   -4.3013  -12.4048 O   0  0  0  0  0  0  0  0  0  0  0  0
  2  1  1  6
  2  8  1  0
  3  2  1  0
  4  3  1  0
  5  6  1  0
  5  4  1  0
  7  6  1  0
  8 14  1  0
  8  9  2  0
 11 12  1  0
 11 10  1  1
 13 11  1  0
 13 14  1  1
 15 13  1  0
 15 16  2  0
 18 17  1  6
 18 20  1  0
 18 19  1  0
 20 21  1  6
 21 15  1  0
 22 20  1  0
 23 22  2  0
 24 22  1  0
M  END
$$$$
