KTT.pdb
     RDKit          3D

 24 23  0  0  1  0  0  0  0  0999 V2000
   26.6639  -21.9955  -11.0738 N   0  0  0  0  0  0  0  0  0  0  0  0
   25.6534  -20.9960  -11.4725 C   0  0  1  0  0  0  0  0  0  0  0  0
   25.3096  -20.1707  -10.2961 C   0  0  0  0  0  0  0  0  0  0  0  0
   24.1259  -20.5837   -9.5258 C   0  0  0  0  0  0  0  0  0  0  0  0
   22.8168  -20.8388  -10.1482 C   0  0  0  0  0  0  0  0  0  0  0  0
   21.6081  -21.0417   -9.3221 C   0  0  0  0  0  0  0  0  0  0  0  0
   20.4265  -21.3003  -10.1839 N   0  0  0  0  0  0  0  0  0  0  0  0
   26.4051  -20.1480  -12.5030 C   0  0  0  0  0  0  0  0  0  0  0  0
   27.3889  -19.4855  -12.1352 O   0  0  0  0  0  0  0  0  0  0  0  0
   28.3028  -21.0394  -15.2008 C   0  0  0  0  0  0  0  0  0  0  0  0
   27.2890  -20.1400  -15.8145 C   0  0  1  0  0  0  0  0  0  0  0  0
   26.2655  -20.8809  -16.4569 O   0  0  0  0  0  0  0  0  0  0  0  0
   26.5761  -19.2158  -14.8484 C   0  0  2  0  0  0  0  0  0  0  0  0
   25.9822  -20.1213  -13.8559 N   0  0  0  0  0  0  0  0  0  0  0  0
   25.5498  -18.3673  -15.4571 C   0  0  0  0  0  0  0  0  0  0  0  0
   24.3060  -18.6575  -15.3250 O   0  0  0  0  0  0  0  0  0  0  0  0
   25.3931  -14.2759  -15.6690 C   0  0  0  0  0  0  0  0  0  0  0  0
   25.2662  -15.0069  -16.9858 C   0  0  1  0  0  0  0  0  0  0  0  0
   26.5234  -15.1326  -17.5595 O   0  0  0  0  0  0  0  0  0  0  0  0
   24.6892  -16.4070  -16.7795 C   0  0  2  0  0  0  0  0  0  0  0  0
   25.8010  -17.1994  -16.2124 N   0  0  0  0  0  0  0  0  0  0  0  0
   24.3552  -16.9504  -18.0973 C   0  0  0  0  0  0  0  0  0  0  0  0
   24.9851  -17.9237  -18.5914 O   0  0  0  0  0  0  0  0  0  0  0  0
   23.3281  -16.4264  -18.8766 O   0  0  0  0  0  0  0  0  0  0  0  0
  2  1  1  1
  2  8  1  0
  3  2  1  0
  4  3  1  0
  5  6  1  0
  5  4  1  0
  7  6  1  0
  8 14  1  0
  8  9  2  0
 11 12  1  0
 11 10  1  1
 13 11  1  0
 13 14  1  1
 15 13  1  0
 15 16  2  0
 18 17  1  1
 18 20  1  0
 18 19  1  0
 20 21  1  6
 21 15  1  0
 22 20  1  0
 23 22  2  0
 24 22  1  0
M  END
$$$$
