KTT.pdb
     RDKit          3D

 24 23  0  0  1  0  0  0  0  0999 V2000
   26.1856  -22.0532  -11.6115 N   0  0  0  0  0  0  0  0  0  0  0  0
   25.2379  -21.1579  -12.3040 C   0  0  1  0  0  0  0  0  0  0  0  0
   24.5934  -20.2813  -11.3043 C   0  0  0  0  0  0  0  0  0  0  0  0
   23.3452  -20.7763  -10.7026 C   0  0  0  0  0  0  0  0  0  0  0  0
   22.0515  -20.7411  -11.4035 C   0  0  0  0  0  0  0  0  0  0  0  0
   20.7991  -21.1050  -10.7082 C   0  0  0  0  0  0  0  0  0  0  0  0
   19.7467  -21.4714  -11.6899 N   0  0  0  0  0  0  0  0  0  0  0  0
   26.1550  -20.3302  -13.2095 C   0  0  0  0  0  0  0  0  0  0  0  0
   27.2088  -19.8704  -12.7405 O   0  0  0  0  0  0  0  0  0  0  0  0
   27.8929  -21.4398  -16.0265 C   0  0  0  0  0  0  0  0  0  0  0  0
   27.0877  -20.2930  -16.5264 C   0  0  1  0  0  0  0  0  0  0  0  0
   25.8952  -20.7356  -17.1519 O   0  0  0  0  0  0  0  0  0  0  0  0
   26.6477  -19.3024  -15.4678 C   0  0  2  0  0  0  0  0  0  0  0  0
   25.8040  -20.0939  -14.5626 N   0  0  0  0  0  0  0  0  0  0  0  0
   25.9144  -18.1435  -15.9807 C   0  0  0  0  0  0  0  0  0  0  0  0
   24.6404  -18.0672  -15.8390 O   0  0  0  0  0  0  0  0  0  0  0  0
   26.3903  -14.3663  -15.3111 C   0  0  0  0  0  0  0  0  0  0  0  0
   26.4565  -14.6608  -16.7921 C   0  0  1  0  0  0  0  0  0  0  0  0
   27.7797  -14.8654  -17.1567 O   0  0  0  0  0  0  0  0  0  0  0  0
   25.6626  -15.9212  -17.1340 C   0  0  2  0  0  0  0  0  0  0  0  0
   26.4957  -17.0418  -16.6484 N   0  0  0  0  0  0  0  0  0  0  0  0
   25.5701  -16.0080  -18.5926 C   0  0  0  0  0  0  0  0  0  0  0  0
   26.1549  -16.9173  -19.2403 O   0  0  0  0  0  0  0  0  0  0  0  0
   24.8350  -15.0964  -19.3443 O   0  0  0  0  0  0  0  0  0  0  0  0
  2  1  1  1
  2  8  1  0
  3  2  1  0
  4  3  1  0
  5  6  1  0
  5  4  1  0
  7  6  1  0
  8 14  1  0
  8  9  2  0
 11 12  1  0
 11 10  1  1
 13 11  1  0
 13 14  1  1
 15 13  1  0
 15 16  2  0
 18 17  1  1
 18 20  1  0
 18 19  1  0
 20 21  1  6
 21 15  1  0
 22 20  1  0
 23 22  2  0
 24 22  1  0
M  END
$$$$
