KTT.pdb
     RDKit          3D

 24 23  0  0  1  0  0  0  0  0999 V2000
   19.5008  -13.0130  -17.1952 N   0  0  0  0  0  0  0  0  0  0  0  0
   20.0555  -11.8023  -17.8322 C   0  0  1  0  0  0  0  0  0  0  0  0
   19.0627  -11.2693  -18.7879 C   0  0  0  0  0  0  0  0  0  0  0  0
   18.9261  -11.9886  -20.0643 C   0  0  0  0  0  0  0  0  0  0  0  0
   18.8518  -13.4560  -20.1505 C   0  0  0  0  0  0  0  0  0  0  0  0
   18.6639  -14.1334  -21.4506 C   0  0  0  0  0  0  0  0  0  0  0  0
   18.6416  -15.6074  -21.2707 N   0  0  0  0  0  0  0  0  0  0  0  0
   20.2112  -10.8399  -16.6508 C   0  0  0  0  0  0  0  0  0  0  0  0
   19.3845  -10.8838  -15.7254 O   0  0  0  0  0  0  0  0  0  0  0  0
   22.7715  -10.8486  -14.2976 C   0  0  0  0  0  0  0  0  0  0  0  0
   22.8030   -9.4764  -14.8714 C   0  0  1  0  0  0  0  0  0  0  0  0
   23.7696   -9.3721  -15.9030 O   0  0  0  0  0  0  0  0  0  0  0  0
   21.5013   -9.0026  -15.4850 C   0  0  2  0  0  0  0  0  0  0  0  0
   21.2840   -9.9137  -16.6165 N   0  0  0  0  0  0  0  0  0  0  0  0
   21.5075   -7.6090  -15.9341 C   0  0  0  0  0  0  0  0  0  0  0  0
   22.2211   -7.2551  -16.9413 O   0  0  0  0  0  0  0  0  0  0  0  0
   19.0827   -5.4077  -17.5461 C   0  0  0  0  0  0  0  0  0  0  0  0
   19.4779   -4.7629  -16.2375 C   0  0  1  0  0  0  0  0  0  0  0  0
   18.6037   -5.1783  -15.2431 O   0  0  0  0  0  0  0  0  0  0  0  0
   20.8946   -5.1705  -15.8340 C   0  0  2  0  0  0  0  0  0  0  0  0
   20.7681   -6.5593  -15.3434 N   0  0  0  0  0  0  0  0  0  0  0  0
   21.3029   -4.3174  -14.7164 C   0  0  0  0  0  0  0  0  0  0  0  0
   21.3978   -4.7647  -13.5421 O   0  0  0  0  0  0  0  0  0  0  0  0
   21.6084   -2.9702  -14.8853 O   0  0  0  0  0  0  0  0  0  0  0  0
  2  1  1  1
  2  8  1  0
  3  2  1  0
  4  3  1  0
  5  6  1  0
  5  4  1  0
  7  6  1  0
  8 14  1  0
  8  9  2  0
 11 12  1  0
 11 10  1  6
 13 11  1  0
 13 14  1  6
 15 13  1  0
 15 16  2  0
 18 17  1  6
 18 20  1  0
 18 19  1  0
 20 21  1  1
 21 15  1  0
 22 20  1  0
 23 22  2  0
 24 22  1  0
M  END
$$$$
