KTT.pdb
     RDKit          3D

 24 23  0  0  1  0  0  0  0  0999 V2000
   16.0279  -12.4141  -15.1932 N   0  0  0  0  0  0  0  0  0  0  0  0
   17.4599  -12.0555  -15.2092 C   0  0  1  0  0  0  0  0  0  0  0  0
   18.0796  -12.6227  -16.4246 C   0  0  0  0  0  0  0  0  0  0  0  0
   18.2707  -14.0815  -16.4461 C   0  0  0  0  0  0  0  0  0  0  0  0
   18.7985  -14.8010  -17.6166 C   0  0  0  0  0  0  0  0  0  0  0  0
   18.8233  -16.2783  -17.6542 C   0  0  0  0  0  0  0  0  0  0  0  0
   19.2442  -16.7575  -18.9954 N   0  0  0  0  0  0  0  0  0  0  0  0
   17.4244  -10.5272  -15.3063 C   0  0  0  0  0  0  0  0  0  0  0  0
   16.5057   -9.9854  -15.9422 O   0  0  0  0  0  0  0  0  0  0  0  0
   15.9412   -8.2483  -15.1008 C   0  0  0  0  0  0  0  0  0  0  0  0
   17.0991   -7.8464  -14.2576 C   0  0  1  0  0  0  0  0  0  0  0  0
   16.9984   -8.3902  -12.9525 O   0  0  0  0  0  0  0  0  0  0  0  0
   18.4559   -8.2795  -14.7745 C   0  0  2  0  0  0  0  0  0  0  0  0
   18.4266   -9.7450  -14.6789 N   0  0  0  0  0  0  0  0  0  0  0  0
   19.5956   -7.7335  -14.0352 C   0  0  0  0  0  0  0  0  0  0  0  0
   19.7890   -8.0589  -12.8081 O   0  0  0  0  0  0  0  0  0  0  0  0
   23.1829   -8.2635  -14.4128 C   0  0  0  0  0  0  0  0  0  0  0  0
   22.9405   -6.7752  -14.5167 C   0  0  1  0  0  0  0  0  0  0  0  0
   22.7540   -6.4364  -15.8493 O   0  0  0  0  0  0  0  0  0  0  0  0
   21.6896   -6.3702  -13.7375 C   0  0  2  0  0  0  0  0  0  0  0  0
   20.5562   -6.8405  -14.5619 N   0  0  0  0  0  0  0  0  0  0  0  0
   21.6513   -4.9076  -13.6845 C   0  0  0  0  0  0  0  0  0  0  0  0
   20.8384   -4.2408  -14.3793 O   0  0  0  0  0  0  0  0  0  0  0  0
   22.5057   -4.1727  -12.8680 O   0  0  0  0  0  0  0  0  0  0  0  0
  2  1  1  6
  2  8  1  0
  3  2  1  0
  4  3  1  0
  5  6  1  0
  5  4  1  0
  7  6  1  0
  8 14  1  0
  8  9  2  0
 11 12  1  0
 11 10  1  6
 13 11  1  0
 13 14  1  1
 15 13  1  0
 15 16  2  0
 18 17  1  6
 18 20  1  0
 18 19  1  0
 20 21  1  6
 21 15  1  0
 22 20  1  0
 23 22  2  0
 24 22  1  0
M  END
$$$$
