KTT.pdb
     RDKit          3D

 24 23  0  0  1  0  0  0  0  0999 V2000
   40.7372   -7.9361  -15.8378 N   0  0  0  0  0  0  0  0  0  0  0  0
   40.4083   -9.3543  -15.5930 C   0  0  1  0  0  0  0  0  0  0  0  0
   40.5783   -9.6411  -14.1535 C   0  0  0  0  0  0  0  0  0  0  0  0
   41.8444   -9.2082  -13.5414 C   0  0  0  0  0  0  0  0  0  0  0  0
   42.0879   -9.2558  -12.0907 C   0  0  0  0  0  0  0  0  0  0  0  0
   43.3095   -8.6657  -11.5043 C   0  0  0  0  0  0  0  0  0  0  0  0
   43.2653   -8.7444  -10.0220 N   0  0  0  0  0  0  0  0  0  0  0  0
   38.9249   -9.4267  -15.9677 C   0  0  0  0  0  0  0  0  0  0  0  0
   38.3245  -10.5065  -15.8434 O   0  0  0  0  0  0  0  0  0  0  0  0
   36.1477   -7.6256  -14.4674 C   0  0  0  0  0  0  0  0  0  0  0  0
   36.1954   -7.2606  -15.9088 C   0  0  1  0  0  0  0  0  0  0  0  0
   36.9381   -6.0708  -16.1140 O   0  0  0  0  0  0  0  0  0  0  0  0
   36.8275   -8.2958  -16.8168 C   0  0  2  0  0  0  0  0  0  0  0  0
   38.2495   -8.2769  -16.4491 N   0  0  0  0  0  0  0  0  0  0  0  0
   36.6579   -8.0398  -18.2484 C   0  0  0  0  0  0  0  0  0  0  0  0
   37.3912   -7.1696  -18.8433 O   0  0  0  0  0  0  0  0  0  0  0  0
   37.1967  -10.0986  -21.2066 C   0  0  0  0  0  0  0  0  0  0  0  0
   35.7663   -9.6164  -21.2839 C   0  0  1  0  0  0  0  0  0  0  0  0
   34.9324  -10.5737  -20.7239 O   0  0  0  0  0  0  0  0  0  0  0  0
   35.5880   -8.3106  -20.5098 C   0  0  2  0  0  0  0  0  0  0  0  0
   35.7227   -8.6879  -19.0868 N   0  0  0  0  0  0  0  0  0  0  0  0
   34.2209   -7.8395  -20.7391 C   0  0  0  0  0  0  0  0  0  0  0  0
   33.3370   -7.9104  -19.8435 O   0  0  0  0  0  0  0  0  0  0  0  0
   33.8203   -7.2888  -21.9527 O   0  0  0  0  0  0  0  0  0  0  0  0
  2  1  1  1
  2  8  1  0
  3  2  1  0
  4  3  1  0
  5  6  1  0
  5  4  1  0
  7  6  1  0
  8 14  1  0
  8  9  2  0
 11 12  1  0
 11 10  1  1
 13 11  1  0
 13 14  1  6
 15 13  1  0
 15 16  2  0
 18 17  1  1
 18 20  1  0
 18 19  1  0
 20 21  1  1
 21 15  1  0
 22 20  1  0
 23 22  2  0
 24 22  1  0
M  END
$$$$
