KTT.pdb
     RDKit          3D

 24 23  0  0  1  0  0  0  0  0999 V2000
   25.6845  -21.0660   -8.6736 N   0  0  0  0  0  0  0  0  0  0  0  0
   24.5976  -21.0538   -9.6726 C   0  0  1  0  0  0  0  0  0  0  0  0
   23.5199  -20.1640   -9.1932 C   0  0  0  0  0  0  0  0  0  0  0  0
   22.1762  -20.7547   -9.0897 C   0  0  0  0  0  0  0  0  0  0  0  0
   21.7796  -21.6504   -7.9913 C   0  0  0  0  0  0  0  0  0  0  0  0
   20.4555  -22.3070   -7.9851 C   0  0  0  0  0  0  0  0  0  0  0  0
   20.3520  -23.2584   -6.8495 N   0  0  0  0  0  0  0  0  0  0  0  0
   25.2746  -20.4383  -10.9009 C   0  0  0  0  0  0  0  0  0  0  0  0
   26.4167  -19.9647  -10.7851 O   0  0  0  0  0  0  0  0  0  0  0  0
   27.3848  -20.8181  -12.2985 C   0  0  0  0  0  0  0  0  0  0  0  0
   26.4955  -20.8292  -13.4910 C   0  0  1  0  0  0  0  0  0  0  0  0
   26.0161  -22.1351  -13.7632 O   0  0  0  0  0  0  0  0  0  0  0  0
   25.2610  -19.9574  -13.3844 C   0  0  2  0  0  0  0  0  0  0  0  0
   24.6055  -20.4107  -12.1505 N   0  0  0  0  0  0  0  0  0  0  0  0
   24.3454  -20.0505  -14.5232 C   0  0  0  0  0  0  0  0  0  0  0  0
   23.3849  -20.9027  -14.5155 O   0  0  0  0  0  0  0  0  0  0  0  0
   21.9832  -17.4627  -16.0592 C   0  0  0  0  0  0  0  0  0  0  0  0
   22.9690  -17.9689  -17.0871 C   0  0  1  0  0  0  0  0  0  0  0  0
   24.0923  -17.1543  -17.0803 O   0  0  0  0  0  0  0  0  0  0  0  0
   23.4081  -19.3970  -16.7652 C   0  0  2  0  0  0  0  0  0  0  0  0
   24.4125  -19.2553  -15.6897 N   0  0  0  0  0  0  0  0  0  0  0  0
   24.0713  -19.9381  -17.9531 C   0  0  0  0  0  0  0  0  0  0  0  0
   25.3158  -20.1337  -17.9855 O   0  0  0  0  0  0  0  0  0  0  0  0
   23.3694  -20.2660  -19.1092 O   0  0  0  0  0  0  0  0  0  0  0  0
  2  1  1  1
  2  8  1  0
  3  2  1  0
  4  3  1  0
  5  6  1  0
  5  4  1  0
  7  6  1  0
  8 14  1  0
  8  9  2  0
 11 12  1  0
 11 10  1  1
 13 11  1  0
 13 14  1  1
 15 13  1  0
 15 16  2  0
 18 17  1  1
 18 20  1  0
 18 19  1  0
 20 21  1  1
 21 15  1  0
 22 20  1  0
 23 22  2  0
 24 22  1  0
M  END
$$$$
