KTT.pdb
     RDKit          3D

 24 23  0  0  1  0  0  0  0  0999 V2000
   25.0973  -21.5198  -12.2467 N   0  0  0  0  0  0  0  0  0  0  0  0
   25.7044  -20.2032  -12.5248 C   0  0  1  0  0  0  0  0  0  0  0  0
   27.1695  -20.3659  -12.6253 C   0  0  0  0  0  0  0  0  0  0  0  0
   27.8486  -20.9474  -11.4566 C   0  0  0  0  0  0  0  0  0  0  0  0
   29.3095  -21.1086  -11.3797 C   0  0  0  0  0  0  0  0  0  0  0  0
   29.9586  -21.5824  -10.1393 C   0  0  0  0  0  0  0  0  0  0  0  0
   31.4095  -21.8058  -10.3641 N   0  0  0  0  0  0  0  0  0  0  0  0
   25.1239  -19.8463  -13.8966 C   0  0  0  0  0  0  0  0  0  0  0  0
   24.5427  -20.7264  -14.5519 O   0  0  0  0  0  0  0  0  0  0  0  0
   22.7705  -19.7387  -15.0967 C   0  0  0  0  0  0  0  0  0  0  0  0
   23.1499  -18.3464  -15.4583 C   0  0  1  0  0  0  0  0  0  0  0  0
   22.7667  -17.4297  -14.4473 O   0  0  0  0  0  0  0  0  0  0  0  0
   24.6316  -18.1161  -15.6751 C   0  0  2  0  0  0  0  0  0  0  0  0
   25.2494  -18.5302  -14.4084 N   0  0  0  0  0  0  0  0  0  0  0  0
   24.9952  -16.7364  -16.0036 C   0  0  0  0  0  0  0  0  0  0  0  0
   25.0188  -15.8361  -15.0882 O   0  0  0  0  0  0  0  0  0  0  0  0
   28.0976  -15.2218  -16.9353 C   0  0  0  0  0  0  0  0  0  0  0  0
   27.1270  -14.8740  -18.0404 C   0  0  1  0  0  0  0  0  0  0  0  0
   27.2133  -15.8324  -19.0402 O   0  0  0  0  0  0  0  0  0  0  0  0
   25.6908  -14.8512  -17.5183 C   0  0  2  0  0  0  0  0  0  0  0  0
   25.3434  -16.2702  -17.2916 N   0  0  0  0  0  0  0  0  0  0  0  0
   24.8364  -14.3277  -18.5858 C   0  0  0  0  0  0  0  0  0  0  0  0
   23.9371  -15.0311  -19.1194 O   0  0  0  0  0  0  0  0  0  0  0  0
   24.9672  -13.0298  -19.0706 O   0  0  0  0  0  0  0  0  0  0  0  0
  2  1  1  6
  2  8  1  0
  3  2  1  0
  4  3  1  0
  5  6  1  0
  5  4  1  0
  7  6  1  0
  8 14  1  0
  8  9  2  0
 11 12  1  0
 11 10  1  1
 13 11  1  0
 13 14  1  1
 15 13  1  0
 15 16  2  0
 18 17  1  1
 18 20  1  0
 18 19  1  0
 20 21  1  6
 21 15  1  0
 22 20  1  0
 23 22  2  0
 24 22  1  0
M  END
$$$$
