KTT.pdb
     RDKit          3D

 24 23  0  0  1  0  0  0  0  0999 V2000
   25.5943  -22.1941  -11.3753 N   0  0  0  0  0  0  0  0  0  0  0  0
   24.6718  -21.3361  -12.1447 C   0  0  1  0  0  0  0  0  0  0  0  0
   23.9136  -20.4869  -11.2028 C   0  0  0  0  0  0  0  0  0  0  0  0
   22.4466  -20.5821  -11.2659 C   0  0  0  0  0  0  0  0  0  0  0  0
   21.7335  -21.8642  -11.3835 C   0  0  0  0  0  0  0  0  0  0  0  0
   20.2571  -21.9205  -11.3418 C   0  0  0  0  0  0  0  0  0  0  0  0
   19.6845  -21.5330  -12.6561 N   0  0  0  0  0  0  0  0  0  0  0  0
   25.6266  -20.4716  -12.9738 C   0  0  0  0  0  0  0  0  0  0  0  0
   26.8197  -20.3998  -12.6374 O   0  0  0  0  0  0  0  0  0  0  0  0
   27.7373  -20.8759  -14.4796 C   0  0  0  0  0  0  0  0  0  0  0  0
   26.9882  -20.1412  -15.5342 C   0  0  1  0  0  0  0  0  0  0  0  0
   26.1765  -21.0195  -16.2953 O   0  0  0  0  0  0  0  0  0  0  0  0
   26.0544  -19.0603  -15.0291 C   0  0  2  0  0  0  0  0  0  0  0  0
   25.1529  -19.7649  -14.1079 N   0  0  0  0  0  0  0  0  0  0  0  0
   25.2943  -18.3706  -16.0734 C   0  0  0  0  0  0  0  0  0  0  0  0
   24.0864  -18.7196  -16.3344 O   0  0  0  0  0  0  0  0  0  0  0  0
   24.6746  -14.5435  -16.5715 C   0  0  0  0  0  0  0  0  0  0  0  0
   25.2652  -15.1750  -17.8113 C   0  0  1  0  0  0  0  0  0  0  0  0
   26.6464  -15.0471  -17.7733 O   0  0  0  0  0  0  0  0  0  0  0  0
   24.9213  -16.6624  -17.8831 C   0  0  2  0  0  0  0  0  0  0  0  0
   25.7784  -17.3030  -16.8629 N   0  0  0  0  0  0  0  0  0  0  0  0
   25.3249  -17.1503  -19.2031 C   0  0  0  0  0  0  0  0  0  0  0  0
   26.2765  -17.9641  -19.3459 O   0  0  0  0  0  0  0  0  0  0  0  0
   24.6844  -16.7459  -20.3706 O   0  0  0  0  0  0  0  0  0  0  0  0
  2  1  1  1
  2  8  1  0
  3  2  1  0
  4  3  1  0
  5  6  1  0
  5  4  1  0
  7  6  1  0
  8 14  1  0
  8  9  2  0
 11 12  1  0
 11 10  1  1
 13 11  1  0
 13 14  1  1
 15 13  1  0
 15 16  2  0
 18 17  1  1
 18 20  1  0
 18 19  1  0
 20 21  1  1
 21 15  1  0
 22 20  1  0
 23 22  2  0
 24 22  1  0
M  END
$$$$
