KTT.pdb
     RDKit          3D

 24 23  0  0  1  0  0  0  0  0999 V2000
   15.7422  -12.4274  -16.7921 N   0  0  0  0  0  0  0  0  0  0  0  0
   15.6137  -10.9672  -16.6171 C   0  0  1  0  0  0  0  0  0  0  0  0
   15.1080  -10.6932  -15.2561 C   0  0  0  0  0  0  0  0  0  0  0  0
   13.8112  -11.2922  -14.9031 C   0  0  0  0  0  0  0  0  0  0  0  0
   13.2024  -11.1516  -13.5706 C   0  0  0  0  0  0  0  0  0  0  0  0
   11.9801  -11.9001  -13.2094 C   0  0  0  0  0  0  0  0  0  0  0  0
   11.6764  -11.7344  -11.7653 N   0  0  0  0  0  0  0  0  0  0  0  0
   17.0614  -10.4831  -16.7429 C   0  0  0  0  0  0  0  0  0  0  0  0
   17.9796  -11.3189  -16.7244 O   0  0  0  0  0  0  0  0  0  0  0  0
   18.2336   -8.2363  -19.5220 C   0  0  0  0  0  0  0  0  0  0  0  0
   18.6004   -7.6241  -18.2167 C   0  0  1  0  0  0  0  0  0  0  0  0
   17.6431   -6.6594  -17.8137 O   0  0  0  0  0  0  0  0  0  0  0  0
   18.7132   -8.5932  -17.0575 C   0  0  2  0  0  0  0  0  0  0  0  0
   17.3466   -9.1010  -16.8785 N   0  0  0  0  0  0  0  0  0  0  0  0
   19.2158   -8.0051  -15.8144 C   0  0  0  0  0  0  0  0  0  0  0  0
   18.3979   -7.5595  -14.9304 O   0  0  0  0  0  0  0  0  0  0  0  0
   21.3130   -9.4501  -13.0371 C   0  0  0  0  0  0  0  0  0  0  0  0
   21.9990   -8.2187  -13.5826 C   0  0  1  0  0  0  0  0  0  0  0  0
   22.8901   -8.5970  -14.5767 O   0  0  0  0  0  0  0  0  0  0  0  0
   20.9831   -7.2515  -14.1894 C   0  0  2  0  0  0  0  0  0  0  0  0
   20.5798   -7.8730  -15.4687 N   0  0  0  0  0  0  0  0  0  0  0  0
   21.6801   -5.9973  -14.4805 C   0  0  0  0  0  0  0  0  0  0  0  0
   21.9219   -5.6330  -15.6625 O   0  0  0  0  0  0  0  0  0  0  0  0
   22.1137   -5.1393  -13.4743 O   0  0  0  0  0  0  0  0  0  0  0  0
  2  1  1  1
  2  8  1  0
  3  2  1  0
  4  3  1  0
  5  6  1  0
  5  4  1  0
  7  6  1  0
  8 14  1  0
  8  9  2  0
 11 12  1  0
 11 10  1  6
 13 11  1  0
 13 14  1  1
 15 13  1  0
 15 16  2  0
 18 17  1  6
 18 20  1  0
 18 19  1  0
 20 21  1  6
 21 15  1  0
 22 20  1  0
 23 22  2  0
 24 22  1  0
M  END
$$$$
