KTT.pdb
     RDKit          3D

 24 23  0  0  1  0  0  0  0  0999 V2000
   13.1336   -8.9063   -8.5645 N   0  0  0  0  0  0  0  0  0  0  0  0
   14.2519   -9.3890   -9.3987 C   0  0  1  0  0  0  0  0  0  0  0  0
   13.7059  -10.2124  -10.4973 C   0  0  0  0  0  0  0  0  0  0  0  0
   13.2353  -11.5596  -10.1386 C   0  0  0  0  0  0  0  0  0  0  0  0
   13.7411  -12.7811  -10.7854 C   0  0  0  0  0  0  0  0  0  0  0  0
   13.2130  -14.1116  -10.4174 C   0  0  0  0  0  0  0  0  0  0  0  0
   13.8548  -15.1708  -11.2368 N   0  0  0  0  0  0  0  0  0  0  0  0
   14.8384   -8.0908   -9.9615 C   0  0  0  0  0  0  0  0  0  0  0  0
   14.0837   -7.1244  -10.1577 O   0  0  0  0  0  0  0  0  0  0  0  0
   15.2248   -5.4497   -9.2222 C   0  0  0  0  0  0  0  0  0  0  0  0
   16.6420   -5.8039   -9.5038 C   0  0  1  0  0  0  0  0  0  0  0  0
   17.2424   -6.4468   -8.3923 O   0  0  0  0  0  0  0  0  0  0  0  0
   16.8534   -6.7391  -10.6770 C   0  0  2  0  0  0  0  0  0  0  0  0
   16.2225   -7.9962  -10.2534 N   0  0  0  0  0  0  0  0  0  0  0  0
   18.2546   -6.9580  -11.0408 C   0  0  0  0  0  0  0  0  0  0  0  0
   19.0753   -7.4588  -10.1896 O   0  0  0  0  0  0  0  0  0  0  0  0
   19.7454   -9.3351  -13.3276 C   0  0  0  0  0  0  0  0  0  0  0  0
   20.1796   -7.9581  -13.7745 C   0  0  1  0  0  0  0  0  0  0  0  0
   19.2635   -7.4683  -14.6945 O   0  0  0  0  0  0  0  0  0  0  0  0
   20.2364   -6.9927  -12.5910 C   0  0  2  0  0  0  0  0  0  0  0  0
   18.8255   -6.6615  -12.2993 N   0  0  0  0  0  0  0  0  0  0  0  0
   20.9168   -5.7765  -13.0398 C   0  0  0  0  0  0  0  0  0  0  0  0
   20.2907   -4.6998  -13.2317 O   0  0  0  0  0  0  0  0  0  0  0  0
   22.2872   -5.7391  -13.2793 O   0  0  0  0  0  0  0  0  0  0  0  0
  2  1  1  1
  2  8  1  0
  3  2  1  0
  4  3  1  0
  5  6  1  0
  5  4  1  0
  7  6  1  0
  8 14  1  0
  8  9  2  0
 11 12  1  0
 11 10  1  1
 13 11  1  0
 13 14  1  1
 15 13  1  0
 15 16  2  0
 18 17  1  1
 18 20  1  0
 18 19  1  0
 20 21  1  6
 21 15  1  0
 22 20  1  0
 23 22  2  0
 24 22  1  0
M  END
$$$$
