EAK.pdb
     RDKit          3D

 24 23  0  0  1  0  0  0  0  0999 V2000
   25.9293  -33.2965   -8.8298 N   0  0  0  0  0  0  0  0  0  0  0  0
   24.5842  -33.6304   -9.2495 C   0  0  1  0  0  0  0  0  0  0  0  0
   23.6976  -33.8801   -8.0499 C   0  0  0  0  0  0  0  0  0  0  0  0
   23.9810  -35.2398   -7.4356 C   0  0  0  0  0  0  0  0  0  0  0  0
   23.1178  -36.2437   -8.0900 C   0  0  0  0  0  0  0  0  0  0  0  0
   23.1174  -37.4527   -7.7370 O   0  0  0  0  0  0  0  0  0  0  0  0
   24.0805  -32.5636  -10.1169 C   0  0  0  0  0  0  0  0  0  0  0  0
   24.1288  -31.3664   -9.7440 O   0  0  0  0  0  0  0  0  0  0  0  0
   22.2652  -35.8885   -9.1299 O   0  0  0  0  0  0  0  0  0  0  0  0
   23.1692  -32.0945  -13.7336 C   0  0  0  0  0  0  0  0  0  0  0  0
   23.0675  -31.7541  -12.2651 C   0  0  2  0  0  0  0  0  0  0  0  0
   23.5149  -32.8174  -11.4144 N   0  0  0  0  0  0  0  0  0  0  0  0
   21.6727  -31.3242  -11.9386 C   0  0  0  0  0  0  0  0  0  0  0  0
   20.8621  -32.2327  -11.6350 O   0  0  0  0  0  0  0  0  0  0  0  0
   21.2553  -29.9927  -11.9590 N   0  0  0  0  0  0  0  0  0  0  0  0
   19.8866  -29.5371  -11.6507 C   0  0  1  0  0  0  0  0  0  0  0  0
   19.9813  -28.1354  -11.2567 C   0  0  0  0  0  0  0  0  0  0  0  0
   18.8505  -27.3472  -10.7760 C   0  0  0  0  0  0  0  0  0  0  0  0
   18.9921  -25.9709  -10.3008 C   0  0  0  0  0  0  0  0  0  0  0  0
   17.8020  -25.2229   -9.8194 C   0  0  0  0  0  0  0  0  0  0  0  0
   18.0554  -23.8727   -9.3799 N   0  0  0  0  0  0  0  0  0  0  0  0
   19.0422  -29.7704  -12.8673 C   0  0  0  0  0  0  0  0  0  0  0  0
   17.6779  -29.9103  -12.8781 O   0  0  0  0  0  0  0  0  0  0  0  0
   19.6052  -29.8500  -14.0130 O   0  0  0  0  0  0  0  0  0  0  0  0
  2  1  1  1
  2  3  1  0
  3  4  1  0
  4  5  1  0
  5  6  2  0
  5  9  1  0
  7  2  1  0
  8  7  2  0
 11 10  1  6
 11 13  1  0
 11 12  1  0
 12  7  1  0
 13 15  1  0
 14 13  2  0
 15 16  1  0
 16 17  1  6
 16 22  1  0
 17 18  1  0
 18 19  1  0
 19 20  1  0
 21 20  1  0
 22 24  2  0
 22 23  1  0
M  END
$$$$
