EAK.pdb
     RDKit          3D

 24 23  0  0  1  0  0  0  0  0999 V2000
   19.7364  -12.1482  -16.1767 N   0  0  0  0  0  0  0  0  0  0  0  0
   18.5749  -11.3163  -16.4124 C   0  0  1  0  0  0  0  0  0  0  0  0
   17.3382  -11.9435  -15.8085 C   0  0  0  0  0  0  0  0  0  0  0  0
   17.0314  -13.2810  -16.4594 C   0  0  0  0  0  0  0  0  0  0  0  0
   16.5442  -13.0381  -17.8323 C   0  0  0  0  0  0  0  0  0  0  0  0
   15.3471  -12.7263  -18.0684 O   0  0  0  0  0  0  0  0  0  0  0  0
   18.8419   -9.9729  -15.8948 C   0  0  0  0  0  0  0  0  0  0  0  0
   17.9787   -9.0684  -16.0015 O   0  0  0  0  0  0  0  0  0  0  0  0
   17.3969  -13.1455  -18.9260 O   0  0  0  0  0  0  0  0  0  0  0  0
   21.5784   -8.2055  -13.9193 C   0  0  0  0  0  0  0  0  0  0  0  0
   20.3118   -8.3007  -14.7373 C   0  0  2  0  0  0  0  0  0  0  0  0
   20.0774   -9.6187  -15.2498 N   0  0  0  0  0  0  0  0  0  0  0  0
   20.3295   -7.2722  -15.8230 C   0  0  0  0  0  0  0  0  0  0  0  0
   21.0951   -7.4925  -16.7924 O   0  0  0  0  0  0  0  0  0  0  0  0
   19.5503   -6.1147  -15.7963 N   0  0  0  0  0  0  0  0  0  0  0  0
   19.5422   -5.0835  -16.8511 C   0  0  1  0  0  0  0  0  0  0  0  0
   18.2050   -5.0798  -17.4349 C   0  0  0  0  0  0  0  0  0  0  0  0
   17.7394   -6.0632  -18.4081 C   0  0  0  0  0  0  0  0  0  0  0  0
   16.3799   -6.0572  -18.9484 C   0  0  0  0  0  0  0  0  0  0  0  0
   15.9386   -7.1386  -19.8669 C   0  0  0  0  0  0  0  0  0  0  0  0
   14.5694   -7.0523  -20.3123 N   0  0  0  0  0  0  0  0  0  0  0  0
   19.9333   -3.7811  -16.2202 C   0  0  0  0  0  0  0  0  0  0  0  0
   20.0429   -3.5468  -14.8733 O   0  0  0  0  0  0  0  0  0  0  0  0
   20.1974   -2.7783  -16.9689 O   0  0  0  0  0  0  0  0  0  0  0  0
  2  1  1  1
  2  3  1  0
  3  4  1  0
  4  5  1  0
  5  6  2  0
  5  9  1  0
  7  2  1  0
  8  7  2  0
 11 10  1  6
 11 13  1  0
 11 12  1  0
 12  7  1  0
 13 15  1  0
 14 13  2  0
 15 16  1  0
 16 17  1  1
 16 22  1  0
 17 18  1  0
 18 19  1  0
 19 20  1  0
 21 20  1  0
 22 24  2  0
 22 23  1  0
M  END
$$$$
