EAK.pdb
     RDKit          3D

 24 23  0  0  1  0  0  0  0  0999 V2000
   15.1559  -11.5524  -10.8272 N   0  0  0  0  0  0  0  0  0  0  0  0
   15.3487  -10.3434  -11.6006 C   0  0  1  0  0  0  0  0  0  0  0  0
   14.1068  -10.0179  -12.4000 C   0  0  0  0  0  0  0  0  0  0  0  0
   13.8766  -11.0466  -13.4935 C   0  0  0  0  0  0  0  0  0  0  0  0
   13.1071  -10.4139  -14.5837 C   0  0  0  0  0  0  0  0  0  0  0  0
   13.6691   -9.9332  -15.6031 O   0  0  0  0  0  0  0  0  0  0  0  0
   15.7432   -9.2611  -10.6966 C   0  0  0  0  0  0  0  0  0  0  0  0
   15.0494   -8.9940   -9.6857 O   0  0  0  0  0  0  0  0  0  0  0  0
   11.7202  -10.3242  -14.5251 O   0  0  0  0  0  0  0  0  0  0  0  0
   18.6143   -6.7783  -10.3449 C   0  0  0  0  0  0  0  0  0  0  0  0
   17.2628   -7.3776  -10.0336 C   0  0  2  0  0  0  0  0  0  0  0  0
   16.9187   -8.4603  -10.9078 N   0  0  0  0  0  0  0  0  0  0  0  0
   16.2198   -6.3056  -10.0318 C   0  0  0  0  0  0  0  0  0  0  0  0
   15.6425   -6.0824  -11.1233 O   0  0  0  0  0  0  0  0  0  0  0  0
   15.8777   -5.5697   -8.8965 N   0  0  0  0  0  0  0  0  0  0  0  0
   14.8569   -4.5054   -8.8619 C   0  0  1  0  0  0  0  0  0  0  0  0
   14.1520   -4.6303   -7.5905 C   0  0  0  0  0  0  0  0  0  0  0  0
   13.1238   -3.6994   -7.1354 C   0  0  0  0  0  0  0  0  0  0  0  0
   12.5080   -3.7882   -5.8113 C   0  0  0  0  0  0  0  0  0  0  0  0
   11.3450   -2.9282   -5.4715 C   0  0  0  0  0  0  0  0  0  0  0  0
   10.7260   -3.1991   -4.1972 N   0  0  0  0  0  0  0  0  0  0  0  0
   15.5586   -3.1929   -9.0411 C   0  0  0  0  0  0  0  0  0  0  0  0
   14.9705   -2.0206   -9.4419 O   0  0  0  0  0  0  0  0  0  0  0  0
   16.8141   -3.1184   -8.8081 O   0  0  0  0  0  0  0  0  0  0  0  0
  2  1  1  1
  2  3  1  0
  3  4  1  0
  4  5  1  0
  5  6  2  0
  5  9  1  0
  7  2  1  0
  8  7  2  0
 11 10  1  6
 11 13  1  0
 11 12  1  0
 12  7  1  0
 13 15  1  0
 14 13  2  0
 15 16  1  0
 16 17  1  1
 16 22  1  0
 17 18  1  0
 18 19  1  0
 19 20  1  0
 21 20  1  0
 22 24  2  0
 22 23  1  0
M  END
$$$$
