EAK.pdb
     RDKit          3D

 24 23  0  0  1  0  0  0  0  0999 V2000
   17.9747  -12.3601  -16.2043 N   0  0  0  0  0  0  0  0  0  0  0  0
   18.9105  -11.4963  -16.8936 C   0  0  1  0  0  0  0  0  0  0  0  0
   18.4853  -11.2875  -18.3300 C   0  0  0  0  0  0  0  0  0  0  0  0
   18.6003  -12.5761  -19.1256 C   0  0  0  0  0  0  0  0  0  0  0  0
   18.0986  -12.3337  -20.4934 C   0  0  0  0  0  0  0  0  0  0  0  0
   18.8303  -12.4849  -21.5073 O   0  0  0  0  0  0  0  0  0  0  0  0
   19.0333  -10.2416  -16.1487 C   0  0  0  0  0  0  0  0  0  0  0  0
   18.0123   -9.5701  -15.8637 O   0  0  0  0  0  0  0  0  0  0  0  0
   16.7875  -11.9257  -20.7152 O   0  0  0  0  0  0  0  0  0  0  0  0
   21.7042   -8.3130  -14.2708 C   0  0  0  0  0  0  0  0  0  0  0  0
   20.3993   -8.4672  -15.0165 C   0  0  2  0  0  0  0  0  0  0  0  0
   20.2986   -9.7173  -15.7106 N   0  0  0  0  0  0  0  0  0  0  0  0
   20.1954   -7.3008  -15.9302 C   0  0  0  0  0  0  0  0  0  0  0  0
   20.6993   -7.3905  -17.0758 O   0  0  0  0  0  0  0  0  0  0  0  0
   19.4878   -6.1546  -15.5653 N   0  0  0  0  0  0  0  0  0  0  0  0
   19.2865   -4.9799  -16.4345 C   0  0  1  0  0  0  0  0  0  0  0  0
   17.9898   -4.4083  -16.0871 C   0  0  0  0  0  0  0  0  0  0  0  0
   16.7115   -5.0340  -16.4118 C   0  0  0  0  0  0  0  0  0  0  0  0
   15.4256   -4.4365  -16.0519 C   0  0  0  0  0  0  0  0  0  0  0  0
   14.1593   -5.1442  -16.3735 C   0  0  0  0  0  0  0  0  0  0  0  0
   12.9555   -4.5045  -15.9020 N   0  0  0  0  0  0  0  0  0  0  0  0
   20.4396   -4.0470  -16.2167 C   0  0  0  0  0  0  0  0  0  0  0  0
   20.7689   -2.9832  -17.0172 O   0  0  0  0  0  0  0  0  0  0  0  0
   21.2048   -4.2241  -15.2072 O   0  0  0  0  0  0  0  0  0  0  0  0
  2  1  1  1
  2  3  1  0
  3  4  1  0
  4  5  1  0
  5  6  2  0
  5  9  1  0
  7  2  1  0
  8  7  2  0
 11 10  1  6
 11 13  1  0
 11 12  1  0
 12  7  1  0
 13 15  1  0
 14 13  2  0
 15 16  1  0
 16 17  1  1
 16 22  1  0
 17 18  1  0
 18 19  1  0
 19 20  1  0
 21 20  1  0
 22 24  2  0
 22 23  1  0
M  END
$$$$
