EAK.pdb
     RDKit          3D

 24 23  0  0  1  0  0  0  0  0999 V2000
   22.8655  -12.6480  -16.2785 N   0  0  0  0  0  0  0  0  0  0  0  0
   22.3148  -11.4113  -16.7925 C   0  0  1  0  0  0  0  0  0  0  0  0
   21.5299  -11.6632  -18.0606 C   0  0  0  0  0  0  0  0  0  0  0  0
   22.4479  -12.0793  -19.1968 C   0  0  0  0  0  0  0  0  0  0  0  0
   21.6340  -12.2828  -20.4122 C   0  0  0  0  0  0  0  0  0  0  0  0
   21.0321  -13.3662  -20.6365 O   0  0  0  0  0  0  0  0  0  0  0  0
   21.5128  -10.7782  -15.7436 C   0  0  0  0  0  0  0  0  0  0  0  0
   20.5511  -11.3927  -15.2220 O   0  0  0  0  0  0  0  0  0  0  0  0
   21.5002  -11.2768  -21.3633 O   0  0  0  0  0  0  0  0  0  0  0  0
   21.5317   -7.6072  -13.6574 C   0  0  0  0  0  0  0  0  0  0  0  0
   20.8914   -8.7934  -14.3398 C   0  0  2  0  0  0  0  0  0  0  0  0
   21.7726   -9.4488  -15.2610 N   0  0  0  0  0  0  0  0  0  0  0  0
   19.6109   -8.3754  -14.9899 C   0  0  0  0  0  0  0  0  0  0  0  0
   19.6880   -7.9790  -16.1779 O   0  0  0  0  0  0  0  0  0  0  0  0
   18.3749   -8.4098  -14.3430 N   0  0  0  0  0  0  0  0  0  0  0  0
   17.1017   -7.9650  -14.9408 C   0  0  1  0  0  0  0  0  0  0  0  0
   16.0299   -8.6301  -14.2076 C   0  0  0  0  0  0  0  0  0  0  0  0
   14.6121   -8.4707  -14.5166 C   0  0  0  0  0  0  0  0  0  0  0  0
   13.5603   -9.1813  -13.7893 C   0  0  0  0  0  0  0  0  0  0  0  0
   12.1315   -8.9234  -14.1051 C   0  0  0  0  0  0  0  0  0  0  0  0
   11.1828   -9.7528  -13.4032 N   0  0  0  0  0  0  0  0  0  0  0  0
   17.0563   -6.4688  -14.8588 C   0  0  0  0  0  0  0  0  0  0  0  0
   16.5285   -5.6323  -15.8088 O   0  0  0  0  0  0  0  0  0  0  0  0
   17.5396   -5.8843  -13.8289 O   0  0  0  0  0  0  0  0  0  0  0  0
  2  1  1  1
  2  3  1  0
  3  4  1  0
  4  5  1  0
  5  6  2  0
  5  9  1  0
  7  2  1  0
  8  7  2  0
 11 10  1  6
 11 13  1  0
 11 12  1  0
 12  7  1  0
 13 15  1  0
 14 13  2  0
 15 16  1  0
 16 17  1  1
 16 22  1  0
 17 18  1  0
 18 19  1  0
 19 20  1  0
 21 20  1  0
 22 24  2  0
 22 23  1  0
M  END
$$$$
