EAK.pdb
     RDKit          3D

 24 23  0  0  1  0  0  0  0  0999 V2000
   22.8758  -27.6891  -15.8255 N   0  0  0  0  0  0  0  0  0  0  0  0
   21.7900  -26.9137  -16.3883 C   0  0  1  0  0  0  0  0  0  0  0  0
   20.6861  -27.8218  -16.8824 C   0  0  0  0  0  0  0  0  0  0  0  0
   19.5418  -27.0174  -17.4742 C   0  0  0  0  0  0  0  0  0  0  0  0
   19.7902  -26.8333  -18.9183 C   0  0  0  0  0  0  0  0  0  0  0  0
   20.2012  -27.7738  -19.6482 O   0  0  0  0  0  0  0  0  0  0  0  0
   21.3283  -25.9498  -15.3874 C   0  0  0  0  0  0  0  0  0  0  0  0
   20.9788  -26.3379  -14.2463 O   0  0  0  0  0  0  0  0  0  0  0  0
   19.5779  -25.6033  -19.5321 O   0  0  0  0  0  0  0  0  0  0  0  0
   21.2276  -22.1686  -15.0056 C   0  0  0  0  0  0  0  0  0  0  0  0
   20.9317  -23.5967  -14.6114 C   0  0  2  0  0  0  0  0  0  0  0  0
   21.2496  -24.5373  -15.6453 N   0  0  0  0  0  0  0  0  0  0  0  0
   19.5098  -23.7159  -14.1631 C   0  0  0  0  0  0  0  0  0  0  0  0
   18.6769  -24.0780  -15.0289 O   0  0  0  0  0  0  0  0  0  0  0  0
   19.0912  -23.4475  -12.8592 N   0  0  0  0  0  0  0  0  0  0  0  0
   17.6963  -23.5423  -12.3889 C   0  0  1  0  0  0  0  0  0  0  0  0
   17.7311  -23.4782  -10.9317 C   0  0  0  0  0  0  0  0  0  0  0  0
   18.1656  -24.5805  -10.0790 C   0  0  0  0  0  0  0  0  0  0  0  0
   18.3226  -24.4445   -8.6309 C   0  0  0  0  0  0  0  0  0  0  0  0
   18.7382  -25.6137   -7.8136 C   0  0  0  0  0  0  0  0  0  0  0  0
   19.0055  -25.3341   -6.4240 N   0  0  0  0  0  0  0  0  0  0  0  0
   16.9219  -22.4288  -13.0276 C   0  0  0  0  0  0  0  0  0  0  0  0
   17.4612  -21.3770  -13.7232 O   0  0  0  0  0  0  0  0  0  0  0  0
   15.6459  -22.4245  -12.9401 O   0  0  0  0  0  0  0  0  0  0  0  0
  2  1  1  1
  2  3  1  0
  3  4  1  0
  4  5  1  0
  5  6  2  0
  5  9  1  0
  7  2  1  0
  8  7  2  0
 11 10  1  6
 11 13  1  0
 11 12  1  0
 12  7  1  0
 13 15  1  0
 14 13  2  0
 15 16  1  0
 16 17  1  1
 16 22  1  0
 17 18  1  0
 18 19  1  0
 19 20  1  0
 21 20  1  0
 22 24  2  0
 22 23  1  0
M  END
$$$$
