EAK.pdb
     RDKit          3D

 24 23  0  0  1  0  0  0  0  0999 V2000
   15.2053  -21.9807   -0.7667 N   0  0  0  0  0  0  0  0  0  0  0  0
   14.9147  -21.0872    0.3352 C   0  0  1  0  0  0  0  0  0  0  0  0
   13.5929  -21.4448    0.9776 C   0  0  0  0  0  0  0  0  0  0  0  0
   13.3106  -22.9319    0.8533 C   0  0  0  0  0  0  0  0  0  0  0  0
   12.4803  -23.1569   -0.3472 C   0  0  0  0  0  0  0  0  0  0  0  0
   12.3511  -22.2793   -1.2412 O   0  0  0  0  0  0  0  0  0  0  0  0
   16.0334  -21.1207    1.2794 C   0  0  0  0  0  0  0  0  0  0  0  0
   16.5630  -22.2129    1.5975 O   0  0  0  0  0  0  0  0  0  0  0  0
   11.8038  -24.3573   -0.5373 O   0  0  0  0  0  0  0  0  0  0  0  0
   18.2422  -18.6222    3.1196 C   0  0  0  0  0  0  0  0  0  0  0  0
   17.6901  -19.9884    2.7860 C   0  0  2  0  0  0  0  0  0  0  0  0
   16.5781  -19.9346    1.8831 N   0  0  0  0  0  0  0  0  0  0  0  0
   17.3547  -20.7223    4.0452 C   0  0  0  0  0  0  0  0  0  0  0  0
   16.1722  -20.6250    4.4535 O   0  0  0  0  0  0  0  0  0  0  0  0
   18.2800  -21.4860    4.7581 N   0  0  0  0  0  0  0  0  0  0  0  0
   18.0035  -22.1559    6.0429 C   0  0  1  0  0  0  0  0  0  0  0  0
   18.7279  -23.4223    6.0293 C   0  0  0  0  0  0  0  0  0  0  0  0
   18.6654  -24.4070    7.1051 C   0  0  0  0  0  0  0  0  0  0  0  0
   19.4833  -25.6200    7.1143 C   0  0  0  0  0  0  0  0  0  0  0  0
   19.3154  -26.6235    8.1971 C   0  0  0  0  0  0  0  0  0  0  0  0
   20.1936  -27.7655    8.1245 N   0  0  0  0  0  0  0  0  0  0  0  0
   18.4239  -21.2274    7.1423 C   0  0  0  0  0  0  0  0  0  0  0  0
   19.4029  -20.2713    7.0500 O   0  0  0  0  0  0  0  0  0  0  0  0
   17.8420  -21.3006    8.2789 O   0  0  0  0  0  0  0  0  0  0  0  0
  2  1  1  6
  2  3  1  0
  3  4  1  0
  4  5  1  0
  5  6  2  0
  5  9  1  0
  7  2  1  0
  8  7  2  0
 11 10  1  1
 11 13  1  0
 11 12  1  0
 12  7  1  0
 13 15  1  0
 14 13  2  0
 15 16  1  0
 16 17  1  6
 16 22  1  0
 17 18  1  0
 18 19  1  0
 19 20  1  0
 21 20  1  0
 22 24  2  0
 22 23  1  0
M  END
$$$$
