EAK.pdb
     RDKit          3D

 24 23  0  0  1  0  0  0  0  0999 V2000
   20.8130  -34.3599   -5.0001 N   0  0  0  0  0  0  0  0  0  0  0  0
   21.4626  -33.7255   -3.8721 C   0  0  1  0  0  0  0  0  0  0  0  0
   20.7303  -34.0425   -2.5873 C   0  0  0  0  0  0  0  0  0  0  0  0
   19.5404  -33.1183   -2.3953 C   0  0  0  0  0  0  0  0  0  0  0  0
   20.0063  -31.8762   -1.7462 C   0  0  0  0  0  0  0  0  0  0  0  0
   20.7398  -31.0465   -2.3459 O   0  0  0  0  0  0  0  0  0  0  0  0
   22.8676  -34.1369   -3.8423 C   0  0  0  0  0  0  0  0  0  0  0  0
   23.1805  -35.3400   -4.0136 O   0  0  0  0  0  0  0  0  0  0  0  0
   19.6492  -31.5733   -0.4365 O   0  0  0  0  0  0  0  0  0  0  0  0
   26.2868  -32.4796   -3.5661 C   0  0  0  0  0  0  0  0  0  0  0  0
   25.3142  -33.6353   -3.5987 C   0  0  2  0  0  0  0  0  0  0  0  0
   23.9452  -33.2108   -3.6205 N   0  0  0  0  0  0  0  0  0  0  0  0
   25.5940  -34.5671   -2.4627 C   0  0  0  0  0  0  0  0  0  0  0  0
   24.9032  -34.4123   -1.4267 O   0  0  0  0  0  0  0  0  0  0  0  0
   26.5641  -35.5690   -2.5131 N   0  0  0  0  0  0  0  0  0  0  0  0
   26.8554  -36.5116   -1.4164 C   0  0  1  0  0  0  0  0  0  0  0  0
   27.8578  -37.4484   -1.9129 C   0  0  0  0  0  0  0  0  0  0  0  0
   28.4192  -38.5362   -1.1176 C   0  0  0  0  0  0  0  0  0  0  0  0
   29.4594  -39.4308   -1.6257 C   0  0  0  0  0  0  0  0  0  0  0  0
   30.0107  -40.5019   -0.7559 C   0  0  0  0  0  0  0  0  0  0  0  0
   31.0460  -41.3110   -1.3509 N   0  0  0  0  0  0  0  0  0  0  0  0
   27.3065  -35.7101   -0.2326 C   0  0  0  0  0  0  0  0  0  0  0  0
   27.0105  -35.9849    1.0780 O   0  0  0  0  0  0  0  0  0  0  0  0
   28.0333  -34.6744   -0.4193 O   0  0  0  0  0  0  0  0  0  0  0  0
  2  1  1  6
  2  3  1  0
  3  4  1  0
  4  5  1  0
  5  6  2  0
  5  9  1  0
  7  2  1  0
  8  7  2  0
 11 10  1  1
 11 13  1  0
 11 12  1  0
 12  7  1  0
 13 15  1  0
 14 13  2  0
 15 16  1  0
 16 17  1  6
 16 22  1  0
 17 18  1  0
 18 19  1  0
 19 20  1  0
 21 20  1  0
 22 24  2  0
 22 23  1  0
M  END
$$$$
