EAK.pdb
     RDKit          3D

 24 23  0  0  1  0  0  0  0  0999 V2000
   16.0005  -10.3595  -13.3444 N   0  0  0  0  0  0  0  0  0  0  0  0
   16.0200   -8.9615  -13.7214 C   0  0  1  0  0  0  0  0  0  0  0  0
   14.7558   -8.5917  -14.4647 C   0  0  0  0  0  0  0  0  0  0  0  0
   14.7647   -9.1605  -15.8729 C   0  0  0  0  0  0  0  0  0  0  0  0
   14.0695  -10.4634  -15.8612 C   0  0  0  0  0  0  0  0  0  0  0  0
   14.3929  -11.3975  -16.6417 O   0  0  0  0  0  0  0  0  0  0  0  0
   16.2318   -8.1504  -12.5208 C   0  0  0  0  0  0  0  0  0  0  0  0
   15.5099   -8.3156  -11.5077 O   0  0  0  0  0  0  0  0  0  0  0  0
   13.0221  -10.7103  -14.9798 O   0  0  0  0  0  0  0  0  0  0  0  0
   18.7450   -5.5789  -11.2702 C   0  0  0  0  0  0  0  0  0  0  0  0
   17.4689   -6.3869  -11.2338 C   0  0  2  0  0  0  0  0  0  0  0  0
   17.2533   -7.1421  -12.4330 N   0  0  0  0  0  0  0  0  0  0  0  0
   16.3111   -5.4944  -10.9179 C   0  0  0  0  0  0  0  0  0  0  0  0
   15.6702   -5.0391  -11.8959 O   0  0  0  0  0  0  0  0  0  0  0  0
   15.9315   -5.1614   -9.6169 N   0  0  0  0  0  0  0  0  0  0  0  0
   14.8835   -4.1820   -9.2728 C   0  0  1  0  0  0  0  0  0  0  0  0
   14.4518   -4.4786   -7.9109 C   0  0  0  0  0  0  0  0  0  0  0  0
   13.4600   -3.6932   -7.1826 C   0  0  0  0  0  0  0  0  0  0  0  0
   13.0556   -4.0068   -5.8121 C   0  0  0  0  0  0  0  0  0  0  0  0
   11.9431   -3.2567   -5.1736 C   0  0  0  0  0  0  0  0  0  0  0  0
   11.5975   -3.6794   -3.8385 N   0  0  0  0  0  0  0  0  0  0  0  0
   15.4664   -2.8110   -9.4402 C   0  0  0  0  0  0  0  0  0  0  0  0
   14.7661   -1.6807   -9.7763 O   0  0  0  0  0  0  0  0  0  0  0  0
   16.7210   -2.6390   -9.2608 O   0  0  0  0  0  0  0  0  0  0  0  0
  2  1  1  1
  2  3  1  0
  3  4  1  0
  4  5  1  0
  5  6  2  0
  5  9  1  0
  7  2  1  0
  8  7  2  0
 11 10  1  6
 11 13  1  0
 11 12  1  0
 12  7  1  0
 13 15  1  0
 14 13  2  0
 15 16  1  0
 16 17  1  1
 16 22  1  0
 17 18  1  0
 18 19  1  0
 19 20  1  0
 21 20  1  0
 22 24  2  0
 22 23  1  0
M  END
$$$$
