EAK.pdb
     RDKit          3D

 24 23  0  0  1  0  0  0  0  0999 V2000
   20.1290  -13.4404  -16.8094 N   0  0  0  0  0  0  0  0  0  0  0  0
   20.9646  -12.3909  -17.3545 C   0  0  1  0  0  0  0  0  0  0  0  0
   20.2455  -11.6600  -18.4664 C   0  0  0  0  0  0  0  0  0  0  0  0
   19.9799  -12.5827  -19.6432 C   0  0  0  0  0  0  0  0  0  0  0  0
   19.2804  -11.8180  -20.6953 C   0  0  0  0  0  0  0  0  0  0  0  0
   18.2749  -12.2798  -21.2969 O   0  0  0  0  0  0  0  0  0  0  0  0
   21.3802  -11.5036  -16.2664 C   0  0  0  0  0  0  0  0  0  0  0  0
   20.5362  -11.0638  -15.4485 O   0  0  0  0  0  0  0  0  0  0  0  0
   19.7096  -10.5476  -21.0648 O   0  0  0  0  0  0  0  0  0  0  0  0
   24.5972  -10.0407  -14.8574 C   0  0  0  0  0  0  0  0  0  0  0  0
   23.1078  -10.1039  -15.1034 C   0  0  2  0  0  0  0  0  0  0  0  0
   22.7451  -11.0935  -16.0748 N   0  0  0  0  0  0  0  0  0  0  0  0
   22.5950   -8.7469  -15.4674 C   0  0  0  0  0  0  0  0  0  0  0  0
   22.6197   -8.4456  -16.6852 O   0  0  0  0  0  0  0  0  0  0  0  0
   22.1062   -7.8346  -14.5312 N   0  0  0  0  0  0  0  0  0  0  0  0
   21.6963   -6.4519  -14.8410 C   0  0  1  0  0  0  0  0  0  0  0  0
   20.2726   -6.4890  -15.1582 C   0  0  0  0  0  0  0  0  0  0  0  0
   19.4728   -5.3031  -15.4494 C   0  0  0  0  0  0  0  0  0  0  0  0
   18.0747   -5.3778  -15.8736 C   0  0  0  0  0  0  0  0  0  0  0  0
   17.3320   -4.1367  -16.2137 C   0  0  0  0  0  0  0  0  0  0  0  0
   16.0471   -4.3355  -16.8383 N   0  0  0  0  0  0  0  0  0  0  0  0
   22.0323   -5.5989  -13.6549 C   0  0  0  0  0  0  0  0  0  0  0  0
   22.3019   -4.2546  -13.6882 O   0  0  0  0  0  0  0  0  0  0  0  0
   22.0798   -6.1334  -12.4939 O   0  0  0  0  0  0  0  0  0  0  0  0
  2  1  1  1
  2  3  1  0
  3  4  1  0
  4  5  1  0
  5  6  2  0
  5  9  1  0
  7  2  1  0
  8  7  2  0
 11 10  1  6
 11 13  1  0
 11 12  1  0
 12  7  1  0
 13 15  1  0
 14 13  2  0
 15 16  1  0
 16 17  1  1
 16 22  1  0
 17 18  1  0
 18 19  1  0
 19 20  1  0
 21 20  1  0
 22 24  2  0
 22 23  1  0
M  END
$$$$
