EAK.pdb
     RDKit          3D

 24 23  0  0  1  0  0  0  0  0999 V2000
   28.2222  -22.0087  -15.5548 N   0  0  0  0  0  0  0  0  0  0  0  0
   27.8784  -20.9545  -14.6235 C   0  0  1  0  0  0  0  0  0  0  0  0
   27.7207  -19.6351  -15.3459 C   0  0  0  0  0  0  0  0  0  0  0  0
   26.4673  -19.6290  -16.2035 C   0  0  0  0  0  0  0  0  0  0  0  0
   26.3722  -18.3265  -16.8930 C   0  0  0  0  0  0  0  0  0  0  0  0
   25.3228  -17.6309  -16.8601 O   0  0  0  0  0  0  0  0  0  0  0  0
   26.6751  -21.3472  -13.8873 C   0  0  0  0  0  0  0  0  0  0  0  0
   25.7787  -22.0217  -14.4498 O   0  0  0  0  0  0  0  0  0  0  0  0
   27.4477  -17.8142  -17.6110 O   0  0  0  0  0  0  0  0  0  0  0  0
   25.3024  -21.0490  -10.3455 C   0  0  0  0  0  0  0  0  0  0  0  0
   25.2419  -21.3358  -11.8276 C   0  0  2  0  0  0  0  0  0  0  0  0
   26.4541  -20.9926  -12.5114 N   0  0  0  0  0  0  0  0  0  0  0  0
   24.0497  -20.6608  -12.4276 C   0  0  0  0  0  0  0  0  0  0  0  0
   24.1972  -19.4634  -12.7726 O   0  0  0  0  0  0  0  0  0  0  0  0
   22.8202  -21.2950  -12.6109 N   0  0  0  0  0  0  0  0  0  0  0  0
   21.6023  -20.6348  -13.1178 C   0  0  1  0  0  0  0  0  0  0  0  0
   20.9446  -21.5805  -14.0133 C   0  0  0  0  0  0  0  0  0  0  0  0
   19.6934  -21.3036  -14.7124 C   0  0  0  0  0  0  0  0  0  0  0  0
   19.0440  -22.2806  -15.5864 C   0  0  0  0  0  0  0  0  0  0  0  0
   17.8362  -21.8985  -16.3631 C   0  0  0  0  0  0  0  0  0  0  0  0
   17.3803  -22.8767  -17.3200 N   0  0  0  0  0  0  0  0  0  0  0  0
   20.7706  -20.2394  -11.9348 C   0  0  0  0  0  0  0  0  0  0  0  0
   19.8142  -19.2564  -11.9232 O   0  0  0  0  0  0  0  0  0  0  0  0
   20.9361  -20.8489  -10.8227 O   0  0  0  0  0  0  0  0  0  0  0  0
  2  1  1  6
  2  3  1  0
  3  4  1  0
  4  5  1  0
  5  6  2  0
  5  9  1  0
  7  2  1  0
  8  7  2  0
 11 10  1  1
 11 13  1  0
 11 12  1  0
 12  7  1  0
 13 15  1  0
 14 13  2  0
 15 16  1  0
 16 17  1  6
 16 22  1  0
 17 18  1  0
 18 19  1  0
 19 20  1  0
 21 20  1  0
 22 24  2  0
 22 23  1  0
M  END
$$$$
