EAK.pdb
     RDKit          3D

 24 23  0  0  1  0  0  0  0  0999 V2000
   28.0802  -33.7600   -3.9097 N   0  0  0  0  0  0  0  0  0  0  0  0
   27.1799  -34.5964   -3.1437 C   0  0  1  0  0  0  0  0  0  0  0  0
   27.6932  -36.0178   -3.0840 C   0  0  0  0  0  0  0  0  0  0  0  0
   29.0419  -36.0820   -2.3887 C   0  0  0  0  0  0  0  0  0  0  0  0
   29.5225  -37.4782   -2.4168 C   0  0  0  0  0  0  0  0  0  0  0  0
   29.7716  -38.0748   -3.4976 O   0  0  0  0  0  0  0  0  0  0  0  0
   26.9946  -34.0024   -1.8182 C   0  0  0  0  0  0  0  0  0  0  0  0
   27.9228  -33.3530   -1.2783 O   0  0  0  0  0  0  0  0  0  0  0  0
   29.7200  -38.1932   -1.2401 O   0  0  0  0  0  0  0  0  0  0  0  0
   24.1014  -33.3010    0.5248 C   0  0  0  0  0  0  0  0  0  0  0  0
   25.5620  -33.4268    0.1599 C   0  0  2  0  0  0  0  0  0  0  0  0
   25.7697  -34.1245   -1.0750 N   0  0  0  0  0  0  0  0  0  0  0  0
   26.3162  -34.0516    1.2903 C   0  0  0  0  0  0  0  0  0  0  0  0
   26.5362  -35.2840    1.2048 O   0  0  0  0  0  0  0  0  0  0  0  0
   26.7685  -33.3358    2.3996 N   0  0  0  0  0  0  0  0  0  0  0  0
   27.5842  -33.9036    3.4896 C   0  0  1  0  0  0  0  0  0  0  0  0
   28.2681  -32.7890    4.1369 C   0  0  0  0  0  0  0  0  0  0  0  0
   29.3984  -32.9462    5.0472 C   0  0  0  0  0  0  0  0  0  0  0  0
   29.9862  -31.8233    5.7778 C   0  0  0  0  0  0  0  0  0  0  0  0
   31.1460  -32.0466    6.6795 C   0  0  0  0  0  0  0  0  0  0  0  0
   31.6912  -30.8601    7.2922 N   0  0  0  0  0  0  0  0  0  0  0  0
   26.6664  -34.6638    4.3991 C   0  0  0  0  0  0  0  0  0  0  0  0
   27.0180  -35.7431    5.1688 O   0  0  0  0  0  0  0  0  0  0  0  0
   25.4426  -34.3046    4.4945 O   0  0  0  0  0  0  0  0  0  0  0  0
  2  1  1  6
  2  3  1  0
  3  4  1  0
  4  5  1  0
  5  6  2  0
  5  9  1  0
  7  2  1  0
  8  7  2  0
 11 10  1  1
 11 13  1  0
 11 12  1  0
 12  7  1  0
 13 15  1  0
 14 13  2  0
 15 16  1  0
 16 17  1  1
 16 22  1  0
 17 18  1  0
 18 19  1  0
 19 20  1  0
 21 20  1  0
 22 24  2  0
 22 23  1  0
M  END
$$$$
