HRE.pdb
     RDKit          3D

 31 31  0  0  1  0  0  0  0  0999 V2000
   22.0853  -15.7980  -18.1897 N   0  0  0  0  0  0  0  0  0  0  0  0
   21.9590  -15.9303  -16.7574 C   0  0  1  0  0  0  0  0  0  0  0  0
   20.7632  -15.1510  -16.2862 C   0  0  0  0  0  0  0  0  0  0  0  0
   21.0425  -13.7102  -16.5053 C   0  0  0  0  0  0  0  0  0  0  0  0
   20.4000  -12.7855  -17.3013 C   0  0  0  0  0  0  0  0  0  0  0  0
   21.0167  -11.5839  -17.1792 N   0  0  0  0  0  0  0  0  0  0  0  0
   22.0293  -11.7603  -16.3183 C   0  0  0  0  0  0  0  0  0  0  0  0
   22.0456  -13.0443  -15.9107 N   0  0  0  0  0  0  0  0  0  0  0  0
   21.8963  -17.3617  -16.3946 C   0  0  0  0  0  0  0  0  0  0  0  0
   21.0845  -18.0832  -17.0267 O   0  0  0  0  0  0  0  0  0  0  0  0
   23.5076  -24.2593  -13.5850 N   0  0  0  0  0  0  0  0  0  0  0  0
   24.6411  -24.1735  -14.4419 C   0  0  0  0  0  0  0  0  0  0  0  0
   24.9089  -25.1016  -15.2826 N   0  0  0  0  0  0  0  0  0  0  0  0
   25.5278  -23.0469  -14.3997 N   0  0  0  0  0  0  0  0  0  0  0  0
   25.1447  -21.8899  -13.6128 C   0  0  0  0  0  0  0  0  0  0  0  0
   23.8595  -21.3410  -14.1402 C   0  0  0  0  0  0  0  0  0  0  0  0
   23.8529  -19.9382  -14.5835 C   0  0  0  0  0  0  0  0  0  0  0  0
   22.5642  -19.3520  -15.0439 C   0  0  2  0  0  0  0  0  0  0  0  0
   22.6816  -17.9578  -15.3957 N   0  0  0  0  0  0  0  0  0  0  0  0
   21.3749  -19.6031  -14.2220 C   0  0  0  0  0  0  0  0  0  0  0  0
   21.1317  -18.8253  -13.2641 O   0  0  0  0  0  0  0  0  0  0  0  0
   25.7357  -25.1572  -15.8930 N   0  0  0  0  0  0  0  0  0  0  0  0
   20.4739  -20.6752  -14.4495 C   0  0  2  0  0  0  0  0  0  0  0  0
   19.1943  -20.8254  -13.7559 C   0  0  0  0  0  0  0  0  0  0  0  0
   18.2674  -19.6813  -14.1552 C   0  0  0  0  0  0  0  0  0  0  0  0
   18.1344  -18.6201  -13.1144 C   0  0  0  0  0  0  0  0  0  0  0  0
   16.7611  -18.1252  -12.8981 O   0  0  0  0  0  0  0  0  0  0  0  0
   15.8820  -18.1169  -13.7658 C   0  0  0  0  0  0  0  0  0  0  0  0
   18.6014  -22.1281  -14.1194 O   0  0  0  0  0  0  0  0  0  0  0  0
   19.0019  -22.8445  -15.0761 O   0  0  0  0  0  0  0  0  0  0  0  0
   16.4297  -17.6363  -11.6408 O   0  0  0  0  0  0  0  0  0  0  0  0
  2  1  1  6
  2  3  1  0
  3  4  1  0
  4  8  1  0
  4  5  2  0
  5  6  1  0
  7  6  1  0
  8  7  2  0
  9  2  1  0
  9 19  1  0
 10  9  2  0
 12 14  1  0
 12 11  1  0
 13 12  2  0
 15 16  1  0
 15 14  1  0
 18 17  1  1
 17 16  1  0
 18 19  1  0
 20 18  1  0
 21 20  2  0
 22 20  1  0
 23 22  1  0
 23 28  1  0
 23 24  1  6
 25 24  1  0
 26 25  1  0
 27 26  2  0
 28 31  1  0
 29 28  2  0
 30 26  1  0
M  END
$$$$
