HRE.pdb
     RDKit          3D

 31 31  0  0  1  0  0  0  0  0999 V2000
   16.0921  -21.0119    0.9010 N   0  0  0  0  0  0  0  0  0  0  0  0
   15.7225  -21.0458    2.2963 C   0  0  1  0  0  0  0  0  0  0  0  0
   15.9506  -22.4281    2.8411 C   0  0  0  0  0  0  0  0  0  0  0  0
   14.9889  -23.3437    2.1788 C   0  0  0  0  0  0  0  0  0  0  0  0
   15.1852  -24.2832    1.1886 C   0  0  0  0  0  0  0  0  0  0  0  0
   14.0036  -24.8823    0.8990 N   0  0  0  0  0  0  0  0  0  0  0  0
   13.0853  -24.3221    1.6993 C   0  0  0  0  0  0  0  0  0  0  0  0
   13.6795  -23.3927    2.4726 N   0  0  0  0  0  0  0  0  0  0  0  0
   16.4678  -20.0035    3.0329 C   0  0  0  0  0  0  0  0  0  0  0  0
   17.6352  -19.7455    2.6463 O   0  0  0  0  0  0  0  0  0  0  0  0
   18.6088  -13.5564    3.3446 N   0  0  0  0  0  0  0  0  0  0  0  0
   18.2503  -12.9609    4.5869 C   0  0  0  0  0  0  0  0  0  0  0  0
   18.9938  -12.0752    5.1370 N   0  0  0  0  0  0  0  0  0  0  0  0
   17.0446  -13.3268    5.2722 N   0  0  0  0  0  0  0  0  0  0  0  0
   16.2052  -14.3612    4.6978 C   0  0  0  0  0  0  0  0  0  0  0  0
   16.7592  -15.7004    5.0593 C   0  0  0  0  0  0  0  0  0  0  0  0
   16.0783  -16.8852    4.5142 C   0  0  0  0  0  0  0  0  0  0  0  0
   16.6810  -18.2224    4.7690 C   0  0  2  0  0  0  0  0  0  0  0  0
   15.9544  -19.2912    4.1280 N   0  0  0  0  0  0  0  0  0  0  0  0
   17.0218  -18.5574    6.1564 C   0  0  0  0  0  0  0  0  0  0  0  0
   16.1423  -19.0931    6.8782 O   0  0  0  0  0  0  0  0  0  0  0  0
   18.8366  -11.6207    6.0469 N   0  0  0  0  0  0  0  0  0  0  0  0
   18.2954  -18.3165    6.7333 C   0  0  2  0  0  0  0  0  0  0  0  0
   18.6573  -18.7001    8.0982 C   0  0  0  0  0  0  0  0  0  0  0  0
   20.1756  -18.8031    8.2069 C   0  0  0  0  0  0  0  0  0  0  0  0
   20.8729  -17.4837    8.1965 C   0  0  0  0  0  0  0  0  0  0  0  0
   22.3430  -17.5529    8.3042 O   0  0  0  0  0  0  0  0  0  0  0  0
   23.0903  -16.5714    8.2406 C   0  0  0  0  0  0  0  0  0  0  0  0
   18.1349  -17.6861    9.0362 O   0  0  0  0  0  0  0  0  0  0  0  0
   17.7234  -16.5467    8.6878 O   0  0  0  0  0  0  0  0  0  0  0  0
   22.9301  -18.7983    8.4890 O   0  0  0  0  0  0  0  0  0  0  0  0
  2  1  1  6
  2  3  1  0
  3  4  1  0
  4  8  1  0
  4  5  2  0
  5  6  1  0
  7  6  1  0
  8  7  2  0
  9  2  1  0
  9 19  1  0
 10  9  2  0
 12 14  1  0
 12 11  1  0
 13 12  2  0
 15 16  1  0
 15 14  1  0
 18 17  1  1
 17 16  1  0
 18 19  1  0
 20 18  1  0
 21 20  2  0
 22 20  1  0
 23 22  1  0
 23 28  1  0
 23 24  1  6
 25 24  1  0
 26 25  1  0
 27 26  2  0
 28 31  1  0
 29 28  2  0
 30 26  1  0
M  END
$$$$
