HRE.pdb
     RDKit          3D

 31 31  0  0  1  0  0  0  0  0999 V2000
   28.3160  -20.8033  -11.0756 N   0  0  0  0  0  0  0  0  0  0  0  0
   26.9651  -20.9961  -10.6040 C   0  0  1  0  0  0  0  0  0  0  0  0
   26.6587  -19.9845   -9.5352 C   0  0  0  0  0  0  0  0  0  0  0  0
   27.6205  -20.1897   -8.4240 C   0  0  0  0  0  0  0  0  0  0  0  0
   28.6721  -21.0735   -8.3029 C   0  0  0  0  0  0  0  0  0  0  0  0
   29.2713  -20.8945   -7.0997 N   0  0  0  0  0  0  0  0  0  0  0  0
   28.6004  -19.9119   -6.4816 C   0  0  0  0  0  0  0  0  0  0  0  0
   27.6032  -19.4856   -7.2807 N   0  0  0  0  0  0  0  0  0  0  0  0
   26.0273  -20.9344  -11.7448 C   0  0  0  0  0  0  0  0  0  0  0  0
   26.1394  -19.9623  -12.5331 O   0  0  0  0  0  0  0  0  0  0  0  0
   24.0951  -26.7896  -17.4561 N   0  0  0  0  0  0  0  0  0  0  0  0
   25.0802  -26.1252  -16.6721 C   0  0  0  0  0  0  0  0  0  0  0  0
   26.2947  -26.5304  -16.6502 N   0  0  0  0  0  0  0  0  0  0  0  0
   24.7542  -24.9772  -15.8763 N   0  0  0  0  0  0  0  0  0  0  0  0
   23.4039  -24.4503  -15.9367 C   0  0  0  0  0  0  0  0  0  0  0  0
   23.3299  -23.1954  -15.1299 C   0  0  0  0  0  0  0  0  0  0  0  0
   24.2160  -23.0882  -13.9604 C   0  0  0  0  0  0  0  0  0  0  0  0
   24.1791  -21.8320  -13.1626 C   0  0  2  0  0  0  0  0  0  0  0  0
   25.0287  -21.8876  -11.9980 N   0  0  0  0  0  0  0  0  0  0  0  0
   22.8609  -21.2722  -12.8430 C   0  0  0  0  0  0  0  0  0  0  0  0
   22.2914  -21.6431  -11.7848 O   0  0  0  0  0  0  0  0  0  0  0  0
   27.0642  -26.1339  -16.0935 N   0  0  0  0  0  0  0  0  0  0  0  0
   22.1893  -20.3263  -13.6598 C   0  0  2  0  0  0  0  0  0  0  0  0
   20.8987  -19.7265  -13.3195 C   0  0  0  0  0  0  0  0  0  0  0  0
   20.5656  -18.6376  -14.3348 C   0  0  0  0  0  0  0  0  0  0  0  0
   19.2270  -18.0102  -14.1306 C   0  0  0  0  0  0  0  0  0  0  0  0
   18.8150  -17.0602  -15.1819 O   0  0  0  0  0  0  0  0  0  0  0  0
   17.9033  -17.2705  -15.9884 C   0  0  0  0  0  0  0  0  0  0  0  0
   19.8635  -20.7797  -13.3257 O   0  0  0  0  0  0  0  0  0  0  0  0
   18.9127  -20.8408  -12.5004 O   0  0  0  0  0  0  0  0  0  0  0  0
   19.4916  -15.8506  -15.2758 O   0  0  0  0  0  0  0  0  0  0  0  0
  2  1  1  6
  2  3  1  0
  3  4  1  0
  4  8  1  0
  4  5  2  0
  5  6  1  0
  7  6  1  0
  8  7  2  0
  9  2  1  0
  9 19  1  0
 10  9  2  0
 12 14  1  0
 12 11  1  0
 13 12  2  0
 15 16  1  0
 15 14  1  0
 18 17  1  1
 17 16  1  0
 18 19  1  0
 20 18  1  0
 21 20  2  0
 22 20  1  0
 23 22  1  0
 23 28  1  0
 23 24  1  6
 25 24  1  0
 26 25  1  0
 27 26  2  0
 28 31  1  0
 29 28  2  0
 30 26  1  0
M  END
$$$$
