HRE.pdb
     RDKit          3D

 31 31  0  0  1  0  0  0  0  0999 V2000
   15.1412   -6.6473   -8.6034 N   0  0  0  0  0  0  0  0  0  0  0  0
   15.4123   -7.7223   -9.5284 C   0  0  1  0  0  0  0  0  0  0  0  0
   14.1213   -8.2022  -10.1304 C   0  0  0  0  0  0  0  0  0  0  0  0
   13.4148   -9.0130   -9.1080 C   0  0  0  0  0  0  0  0  0  0  0  0
   13.6264  -10.3109   -8.6930 C   0  0  0  0  0  0  0  0  0  0  0  0
   12.7266  -10.6250   -7.7283 N   0  0  0  0  0  0  0  0  0  0  0  0
   11.9660   -9.5359   -7.5466 C   0  0  0  0  0  0  0  0  0  0  0  0
   12.3810   -8.5618   -8.3794 N   0  0  0  0  0  0  0  0  0  0  0  0
   16.3903   -7.2716  -10.5407 C   0  0  0  0  0  0  0  0  0  0  0  0
   16.2206   -6.1314  -11.0408 O   0  0  0  0  0  0  0  0  0  0  0  0
   22.4377   -5.2324  -13.6218 N   0  0  0  0  0  0  0  0  0  0  0  0
   22.8543   -6.2946  -14.4731 C   0  0  0  0  0  0  0  0  0  0  0  0
   23.2597   -6.0682  -15.6665 N   0  0  0  0  0  0  0  0  0  0  0  0
   22.8374   -7.6589  -14.0308 N   0  0  0  0  0  0  0  0  0  0  0  0
   22.1008   -7.9899  -12.8256 C   0  0  0  0  0  0  0  0  0  0  0  0
   20.6596   -7.6500  -13.0219 C   0  0  0  0  0  0  0  0  0  0  0  0
   19.7271   -7.9998  -11.9391 C   0  0  0  0  0  0  0  0  0  0  0  0
   18.2873   -7.6650  -12.1150 C   0  0  2  0  0  0  0  0  0  0  0  0
   17.4870   -8.0336  -10.9727 N   0  0  0  0  0  0  0  0  0  0  0  0
   17.6485   -8.0659  -13.3737 C   0  0  0  0  0  0  0  0  0  0  0  0
   17.3426   -9.2753  -13.5334 O   0  0  0  0  0  0  0  0  0  0  0  0
   23.5801   -6.7684  -16.3493 N   0  0  0  0  0  0  0  0  0  0  0  0
   17.3481   -7.1625  -14.4256 C   0  0  2  0  0  0  0  0  0  0  0  0
   16.6668   -7.5486  -15.6616 C   0  0  0  0  0  0  0  0  0  0  0  0
   15.6907   -6.4474  -16.0642 C   0  0  0  0  0  0  0  0  0  0  0  0
   14.9858   -6.7066  -17.3539 C   0  0  0  0  0  0  0  0  0  0  0  0
   14.0589   -5.6422  -17.7845 O   0  0  0  0  0  0  0  0  0  0  0  0
   14.4166   -4.5725  -18.2879 C   0  0  0  0  0  0  0  0  0  0  0  0
   17.6755   -7.7635  -16.7187 O   0  0  0  0  0  0  0  0  0  0  0  0
   18.7665   -7.1365  -16.7923 O   0  0  0  0  0  0  0  0  0  0  0  0
   12.6959   -5.8505  -17.6156 O   0  0  0  0  0  0  0  0  0  0  0  0
  2  1  1  1
  2  3  1  0
  3  4  1  0
  4  8  1  0
  4  5  2  0
  5  6  1  0
  7  6  1  0
  8  7  2  0
  9  2  1  0
  9 19  1  0
 10  9  2  0
 12 14  1  0
 12 11  1  0
 13 12  2  0
 15 16  1  0
 15 14  1  0
 18 17  1  1
 17 16  1  0
 18 19  1  0
 20 18  1  0
 21 20  2  0
 22 20  1  0
 23 22  1  0
 23 28  1  0
 23 24  1  1
 25 24  1  0
 26 25  1  0
 27 26  2  0
 28 31  1  0
 29 28  2  0
 30 26  1  0
M  END
$$$$
