HRE.pdb
     RDKit          3D

 31 31  0  0  1  0  0  0  0  0999 V2000
   26.3905  -11.9954  -19.3410 N   0  0  0  0  0  0  0  0  0  0  0  0
   26.2056  -11.5795  -17.9708 C   0  0  1  0  0  0  0  0  0  0  0  0
   27.3563  -10.7075  -17.5527 C   0  0  0  0  0  0  0  0  0  0  0  0
   28.5849  -11.5397  -17.5589 C   0  0  0  0  0  0  0  0  0  0  0  0
   29.8120  -11.3186  -18.1478 C   0  0  0  0  0  0  0  0  0  0  0  0
   30.6319  -12.3653  -17.8810 N   0  0  0  0  0  0  0  0  0  0  0  0
   29.9230  -13.2253  -17.1357 C   0  0  0  0  0  0  0  0  0  0  0  0
   28.6865  -12.7275  -16.9407 N   0  0  0  0  0  0  0  0  0  0  0  0
   24.8935  -10.9144  -17.8264 C   0  0  0  0  0  0  0  0  0  0  0  0
   24.4753  -10.2432  -18.8029 O   0  0  0  0  0  0  0  0  0  0  0  0
   17.1690  -13.9069  -15.9495 N   0  0  0  0  0  0  0  0  0  0  0  0
   17.9842  -13.7137  -17.1005 C   0  0  0  0  0  0  0  0  0  0  0  0
   17.7672  -14.3615  -18.1835 N   0  0  0  0  0  0  0  0  0  0  0  0
   19.0796  -12.7877  -17.0949 N   0  0  0  0  0  0  0  0  0  0  0  0
   19.2736  -11.9475  -15.9283 C   0  0  0  0  0  0  0  0  0  0  0  0
   20.3253  -10.9293  -16.2258 C   0  0  0  0  0  0  0  0  0  0  0  0
   21.7204  -11.3928  -16.2837 C   0  0  0  0  0  0  0  0  0  0  0  0
   22.7798  -10.3970  -16.6032 C   0  0  2  0  0  0  0  0  0  0  0  0
   24.0943  -10.9871  -16.6750 N   0  0  0  0  0  0  0  0  0  0  0  0
   22.7897   -9.1489  -15.8317 C   0  0  0  0  0  0  0  0  0  0  0  0
   23.3258   -9.1502  -14.6941 O   0  0  0  0  0  0  0  0  0  0  0  0
   18.2856  -14.2702  -19.0679 N   0  0  0  0  0  0  0  0  0  0  0  0
   22.2319   -7.9310  -16.2993 C   0  0  2  0  0  0  0  0  0  0  0  0
   22.3113   -6.6652  -15.5696 C   0  0  0  0  0  0  0  0  0  0  0  0
   21.9068   -5.5229  -16.4965 C   0  0  0  0  0  0  0  0  0  0  0  0
   21.8739   -4.1876  -15.8309 C   0  0  0  0  0  0  0  0  0  0  0  0
   21.5039   -3.0606  -16.7087 O   0  0  0  0  0  0  0  0  0  0  0  0
   21.2550   -3.1722  -17.9134 C   0  0  0  0  0  0  0  0  0  0  0  0
   21.4138   -6.7293  -14.3985 O   0  0  0  0  0  0  0  0  0  0  0  0
   20.2913   -7.3027  -14.3991 O   0  0  0  0  0  0  0  0  0  0  0  0
   21.4289   -1.7907  -16.1506 O   0  0  0  0  0  0  0  0  0  0  0  0
  2  1  1  6
  2  3  1  0
  3  4  1  0
  4  8  1  0
  4  5  2  0
  5  6  1  0
  7  6  1  0
  8  7  2  0
  9  2  1  0
  9 19  1  0
 10  9  2  0
 12 14  1  0
 12 11  1  0
 13 12  2  0
 15 16  1  0
 15 14  1  0
 18 17  1  1
 17 16  1  0
 18 19  1  0
 20 18  1  0
 21 20  2  0
 22 20  1  0
 23 22  1  0
 23 28  1  0
 23 24  1  6
 25 24  1  0
 26 25  1  0
 27 26  2  0
 28 31  1  0
 29 28  2  0
 30 26  1  0
M  END
$$$$
