HRE.pdb
     RDKit          3D

 31 31  0  0  1  0  0  0  0  0999 V2000
   16.6201  -14.0019    5.8889 N   0  0  0  0  0  0  0  0  0  0  0  0
   17.4848  -14.9840    5.2787 C   0  0  1  0  0  0  0  0  0  0  0  0
   18.8381  -14.9337    5.9311 C   0  0  0  0  0  0  0  0  0  0  0  0
   19.4625  -13.6325    5.5864 C   0  0  0  0  0  0  0  0  0  0  0  0
   19.8680  -12.5926    6.3961 C   0  0  0  0  0  0  0  0  0  0  0  0
   20.3858  -11.6024    5.6279 N   0  0  0  0  0  0  0  0  0  0  0  0
   20.3031  -12.0222    4.3573 C   0  0  0  0  0  0  0  0  0  0  0  0
   19.7456  -13.2483    4.3313 N   0  0  0  0  0  0  0  0  0  0  0  0
   16.8539  -16.3183    5.3572 C   0  0  0  0  0  0  0  0  0  0  0  0
   16.4779  -16.7141    6.4890 O   0  0  0  0  0  0  0  0  0  0  0  0
   14.2629  -22.1303   -0.5373 N   0  0  0  0  0  0  0  0  0  0  0  0
   13.6423  -21.3103    0.4471 C   0  0  0  0  0  0  0  0  0  0  0  0
   12.4037  -20.9963    0.3639 N   0  0  0  0  0  0  0  0  0  0  0  0
   14.3765  -20.8032    1.5702 N   0  0  0  0  0  0  0  0  0  0  0  0
   15.6380  -21.4303    1.9163 C   0  0  0  0  0  0  0  0  0  0  0  0
   16.2058  -20.7580    3.1233 C   0  0  0  0  0  0  0  0  0  0  0  0
   16.1327  -19.2897    3.1786 C   0  0  0  0  0  0  0  0  0  0  0  0
   16.7436  -18.5985    4.3470 C   0  0  2  0  0  0  0  0  0  0  0  0
   16.6516  -17.1617    4.2538 N   0  0  0  0  0  0  0  0  0  0  0  0
   18.0839  -19.0278    4.7621 C   0  0  0  0  0  0  0  0  0  0  0  0
   19.0749  -18.6276    4.0992 O   0  0  0  0  0  0  0  0  0  0  0  0
   11.8761  -20.4007    1.0168 N   0  0  0  0  0  0  0  0  0  0  0  0
   18.3298  -19.8684    5.8783 C   0  0  2  0  0  0  0  0  0  0  0  0
   19.6673  -20.2565    6.3272 C   0  0  0  0  0  0  0  0  0  0  0  0
   20.0441  -19.4358    7.5569 C   0  0  0  0  0  0  0  0  0  0  0  0
   21.3997  -19.7463    8.0982 C   0  0  0  0  0  0  0  0  0  0  0  0
   21.8256  -18.9081    9.2356 O   0  0  0  0  0  0  0  0  0  0  0  0
   21.0921  -18.5935   10.1784 C   0  0  0  0  0  0  0  0  0  0  0  0
   19.6678  -21.6992    6.6428 O   0  0  0  0  0  0  0  0  0  0  0  0
   18.6265  -22.3750    6.8617 O   0  0  0  0  0  0  0  0  0  0  0  0
   23.1334  -18.4401    9.2530 O   0  0  0  0  0  0  0  0  0  0  0  0
  2  1  1  1
  2  3  1  0
  3  4  1  0
  4  8  1  0
  4  5  2  0
  5  6  1  0
  7  6  1  0
  8  7  2  0
  9  2  1  0
  9 19  1  0
 10  9  2  0
 12 14  1  0
 12 11  1  0
 13 12  2  0
 15 16  1  0
 15 14  1  0
 18 17  1  6
 17 16  1  0
 18 19  1  0
 20 18  1  0
 21 20  2  0
 22 20  1  0
 23 22  1  0
 23 28  1  0
 23 24  1  6
 25 24  1  0
 26 25  1  0
 27 26  2  0
 28 31  1  0
 29 28  2  0
 30 26  1  0
M  END
$$$$
