HRE.pdb
     RDKit          3D

 31 31  0  0  1  0  0  0  0  0999 V2000
   27.0771  -24.1519  -16.7292 N   0  0  0  0  0  0  0  0  0  0  0  0
   27.2926  -22.7559  -16.4298 C   0  0  1  0  0  0  0  0  0  0  0  0
   26.7791  -21.9154  -17.5653 C   0  0  0  0  0  0  0  0  0  0  0  0
   27.7286  -22.0494  -18.6977 C   0  0  0  0  0  0  0  0  0  0  0  0
   27.6812  -22.8580  -19.8137 C   0  0  0  0  0  0  0  0  0  0  0  0
   28.7798  -22.6336  -20.5763 N   0  0  0  0  0  0  0  0  0  0  0  0
   29.5002  -21.6974  -19.9419 C   0  0  0  0  0  0  0  0  0  0  0  0
   28.8660  -21.3441  -18.8071 N   0  0  0  0  0  0  0  0  0  0  0  0
   26.6647  -22.4233  -15.1338 C   0  0  0  0  0  0  0  0  0  0  0  0
   25.5239  -22.8981  -14.9055 O   0  0  0  0  0  0  0  0  0  0  0  0
   31.2828  -22.4460   -8.5436 N   0  0  0  0  0  0  0  0  0  0  0  0
   31.4650  -22.1005   -9.9125 C   0  0  0  0  0  0  0  0  0  0  0  0
   32.4484  -22.5647  -10.5886 N   0  0  0  0  0  0  0  0  0  0  0  0
   30.5570  -21.2206  -10.5898 N   0  0  0  0  0  0  0  0  0  0  0  0
   29.2134  -21.0694  -10.0640 C   0  0  0  0  0  0  0  0  0  0  0  0
   28.2372  -21.6417  -11.0390 C   0  0  0  0  0  0  0  0  0  0  0  0
   27.5127  -20.6988  -11.9054 C   0  0  0  0  0  0  0  0  0  0  0  0
   26.5860  -21.2542  -12.9295 C   0  0  2  0  0  0  0  0  0  0  0  0
   27.2608  -21.6166  -14.1521 N   0  0  0  0  0  0  0  0  0  0  0  0
   25.3485  -20.5120  -13.1955 C   0  0  0  0  0  0  0  0  0  0  0  0
   25.3933  -19.5319  -13.9823 O   0  0  0  0  0  0  0  0  0  0  0  0
   32.6627  -22.3669  -11.5756 N   0  0  0  0  0  0  0  0  0  0  0  0
   24.0948  -20.8408  -12.6182 C   0  0  1  0  0  0  0  0  0  0  0  0
   22.8292  -20.2200  -13.0104 C   0  0  0  0  0  0  0  0  0  0  0  0
   22.6101  -20.4241  -14.5064 C   0  0  0  0  0  0  0  0  0  0  0  0
   21.3557  -19.8026  -15.0236 C   0  0  0  0  0  0  0  0  0  0  0  0
   21.1208  -19.9792  -16.4697 O   0  0  0  0  0  0  0  0  0  0  0  0
   21.9854  -20.3421  -17.2738 C   0  0  0  0  0  0  0  0  0  0  0  0
   21.7328  -20.8336  -12.2342 O   0  0  0  0  0  0  0  0  0  0  0  0
   21.7826  -21.9891  -11.7330 O   0  0  0  0  0  0  0  0  0  0  0  0
   19.8484  -19.7224  -16.9644 O   0  0  0  0  0  0  0  0  0  0  0  0
  2  1  1  6
  2  3  1  0
  3  4  1  0
  4  8  1  0
  4  5  2  0
  5  6  1  0
  7  6  1  0
  8  7  2  0
  9  2  1  0
  9 19  1  0
 10  9  2  0
 12 14  1  0
 12 11  1  0
 13 12  2  0
 15 16  1  0
 15 14  1  0
 18 17  1  1
 17 16  1  0
 18 19  1  0
 20 18  1  0
 21 20  2  0
 22 20  1  0
 23 22  1  0
 23 28  1  0
 23 24  1  1
 25 24  1  0
 26 25  1  0
 27 26  2  0
 28 31  1  0
 29 28  2  0
 30 26  1  0
M  END
$$$$
