HRE.pdb
     RDKit          3D

 31 31  0  0  1  0  0  0  0  0999 V2000
   19.6204  -27.5398  -12.7413 N   0  0  0  0  0  0  0  0  0  0  0  0
   18.8683  -26.6803  -11.8580 C   0  0  1  0  0  0  0  0  0  0  0  0
   19.3606  -26.8570  -10.4488 C   0  0  0  0  0  0  0  0  0  0  0  0
   19.0273  -28.2376  -10.0190 C   0  0  0  0  0  0  0  0  0  0  0  0
   19.8329  -29.3465   -9.8682 C   0  0  0  0  0  0  0  0  0  0  0  0
   19.0794  -30.3944   -9.4522 N   0  0  0  0  0  0  0  0  0  0  0  0
   17.8218  -29.9418   -9.3459 C   0  0  0  0  0  0  0  0  0  0  0  0
   17.7894  -28.6392   -9.6880 N   0  0  0  0  0  0  0  0  0  0  0  0
   18.9570  -25.2828  -12.3308 C   0  0  0  0  0  0  0  0  0  0  0  0
   18.4245  -24.3962  -11.6169 O   0  0  0  0  0  0  0  0  0  0  0  0
   26.0343  -24.3240  -15.0386 N   0  0  0  0  0  0  0  0  0  0  0  0
   25.1769  -25.0053  -15.9482 C   0  0  0  0  0  0  0  0  0  0  0  0
   25.5248  -26.1158  -16.4825 N   0  0  0  0  0  0  0  0  0  0  0  0
   23.8912  -24.4778  -16.3029 N   0  0  0  0  0  0  0  0  0  0  0  0
   23.2661  -23.5149  -15.4160 C   0  0  0  0  0  0  0  0  0  0  0  0
   21.8787  -23.9682  -15.0983 C   0  0  0  0  0  0  0  0  0  0  0  0
   21.0492  -23.0809  -14.2682 C   0  0  0  0  0  0  0  0  0  0  0  0
   19.6620  -23.5138  -13.9450 C   0  0  2  0  0  0  0  0  0  0  0  0
   19.5942  -24.8902  -13.5181 N   0  0  0  0  0  0  0  0  0  0  0  0
   18.6107  -23.1981  -14.9186 C   0  0  0  0  0  0  0  0  0  0  0  0
   18.3351  -24.0494  -15.8023 O   0  0  0  0  0  0  0  0  0  0  0  0
   24.9944  -26.6536  -17.1816 N   0  0  0  0  0  0  0  0  0  0  0  0
   17.8775  -21.9834  -14.9181 C   0  0  2  0  0  0  0  0  0  0  0  0
   16.8609  -21.6448  -15.9145 C   0  0  0  0  0  0  0  0  0  0  0  0
   16.0070  -20.4934  -15.3921 C   0  0  0  0  0  0  0  0  0  0  0  0
   14.9388  -20.9171  -14.4399 C   0  0  0  0  0  0  0  0  0  0  0  0
   14.4619  -19.8615  -13.5256 O   0  0  0  0  0  0  0  0  0  0  0  0
   14.5032  -18.6533  -13.7792 C   0  0  0  0  0  0  0  0  0  0  0  0
   17.5314  -21.2668  -17.1749 O   0  0  0  0  0  0  0  0  0  0  0  0
   18.6931  -20.7819  -17.2394 O   0  0  0  0  0  0  0  0  0  0  0  0
   13.9319  -20.2446  -12.3000 O   0  0  0  0  0  0  0  0  0  0  0  0
  2  1  1  6
  2  3  1  0
  3  4  1  0
  4  8  1  0
  4  5  2  0
  5  6  1  0
  7  6  1  0
  8  7  2  0
  9  2  1  0
  9 19  1  0
 10  9  2  0
 12 14  1  0
 12 11  1  0
 13 12  2  0
 15 16  1  0
 15 14  1  0
 18 17  1  6
 17 16  1  0
 18 19  1  0
 20 18  1  0
 21 20  2  0
 22 20  1  0
 23 22  1  0
 23 28  1  0
 23 24  1  1
 25 24  1  0
 26 25  1  0
 27 26  2  0
 28 31  1  0
 29 28  2  0
 30 26  1  0
M  END
$$$$
