HRE.pdb
     RDKit          3D

 31 31  0  0  1  0  0  0  0  0999 V2000
   19.9529  -24.6249  -12.5670 N   0  0  0  0  0  0  0  0  0  0  0  0
   19.4628  -23.7830  -13.6327 C   0  0  1  0  0  0  0  0  0  0  0  0
   17.9683  -23.6605  -13.5268 C   0  0  0  0  0  0  0  0  0  0  0  0
   17.3826  -25.0023  -13.7684 C   0  0  0  0  0  0  0  0  0  0  0  0
   16.7660  -25.8785  -12.9003 C   0  0  0  0  0  0  0  0  0  0  0  0
   16.3903  -26.9911  -13.5786 N   0  0  0  0  0  0  0  0  0  0  0  0
   16.7687  -26.8078  -14.8518 C   0  0  0  0  0  0  0  0  0  0  0  0
   17.3680  -25.6069  -14.9673 N   0  0  0  0  0  0  0  0  0  0  0  0
   20.1545  -22.4775  -13.5921 C   0  0  0  0  0  0  0  0  0  0  0  0
   20.5770  -22.0816  -12.4769 O   0  0  0  0  0  0  0  0  0  0  0  0
   23.8433  -24.5805  -13.9023 N   0  0  0  0  0  0  0  0  0  0  0  0
   24.9994  -24.2020  -14.6417 C   0  0  0  0  0  0  0  0  0  0  0  0
   25.6238  -25.0461  -15.3747 N   0  0  0  0  0  0  0  0  0  0  0  0
   25.5114  -22.8629  -14.5968 N   0  0  0  0  0  0  0  0  0  0  0  0
   24.7476  -21.8499  -13.8933 C   0  0  0  0  0  0  0  0  0  0  0  0
   23.4343  -21.6604  -14.5792 C   0  0  0  0  0  0  0  0  0  0  0  0
   22.4878  -20.7069  -13.9796 C   0  0  0  0  0  0  0  0  0  0  0  0
   21.1888  -20.4771  -14.6695 C   0  0  2  0  0  0  0  0  0  0  0  0
   20.3657  -21.6611  -14.7141 N   0  0  0  0  0  0  0  0  0  0  0  0
   21.2240  -19.7948  -15.9680 C   0  0  0  0  0  0  0  0  0  0  0  0
   21.5360  -20.4608  -16.9882 O   0  0  0  0  0  0  0  0  0  0  0  0
   26.4380  -24.8546  -15.9743 N   0  0  0  0  0  0  0  0  0  0  0  0
   20.9188  -18.4202  -16.1425 C   0  0  2  0  0  0  0  0  0  0  0  0
   20.9303  -17.7412  -17.4386 C   0  0  0  0  0  0  0  0  0  0  0  0
   20.1910  -16.4121  -17.3177 C   0  0  0  0  0  0  0  0  0  0  0  0
   20.2994  -15.5481  -18.5297 C   0  0  0  0  0  0  0  0  0  0  0  0
   19.6686  -14.2196  -18.4087 O   0  0  0  0  0  0  0  0  0  0  0  0
   19.0840  -13.8186  -17.3971 C   0  0  0  0  0  0  0  0  0  0  0  0
   22.3308  -17.5230  -17.8537 O   0  0  0  0  0  0  0  0  0  0  0  0
   23.3000  -17.4369  -17.0524 O   0  0  0  0  0  0  0  0  0  0  0  0
   19.7327  -13.3605  -19.4985 O   0  0  0  0  0  0  0  0  0  0  0  0
  2  1  1  1
  2  3  1  0
  3  4  1  0
  4  8  1  0
  4  5  2  0
  5  6  1  0
  7  6  1  0
  8  7  2  0
  9  2  1  0
  9 19  1  0
 10  9  2  0
 12 14  1  0
 12 11  1  0
 13 12  2  0
 15 16  1  0
 15 14  1  0
 18 17  1  6
 17 16  1  0
 18 19  1  0
 20 18  1  0
 21 20  2  0
 22 20  1  0
 23 22  1  0
 23 28  1  0
 23 24  1  1
 25 24  1  0
 26 25  1  0
 27 26  2  0
 28 31  1  0
 29 28  2  0
 30 26  1  0
M  END
$$$$
