HRE.pdb
     RDKit          3D

 31 31  0  0  1  0  0  0  0  0999 V2000
   22.2755  -21.3812  -15.4183 N   0  0  0  0  0  0  0  0  0  0  0  0
   22.9069  -20.4468  -14.5166 C   0  0  1  0  0  0  0  0  0  0  0  0
   23.0090  -19.1019  -15.1803 C   0  0  0  0  0  0  0  0  0  0  0  0
   23.7509  -19.2768  -16.4534 C   0  0  0  0  0  0  0  0  0  0  0  0
   23.2894  -19.4348  -17.7431 C   0  0  0  0  0  0  0  0  0  0  0  0
   24.3454  -19.5602  -18.5846 N   0  0  0  0  0  0  0  0  0  0  0  0
   25.4487  -19.4809  -17.8269 C   0  0  0  0  0  0  0  0  0  0  0  0
   25.0906  -19.3097  -16.5396 N   0  0  0  0  0  0  0  0  0  0  0  0
   22.1618  -20.4072  -13.2407 C   0  0  0  0  0  0  0  0  0  0  0  0
   22.4200  -19.4656  -12.4497 O   0  0  0  0  0  0  0  0  0  0  0  0
   18.5786  -15.6685  -13.3708 N   0  0  0  0  0  0  0  0  0  0  0  0
   17.8297  -16.6006  -14.1434 C   0  0  0  0  0  0  0  0  0  0  0  0
   17.5628  -16.3779  -15.3757 N   0  0  0  0  0  0  0  0  0  0  0  0
   17.3444  -17.8249  -13.5751 N   0  0  0  0  0  0  0  0  0  0  0  0
   17.9159  -18.2848  -12.3235 C   0  0  0  0  0  0  0  0  0  0  0  0
   18.7330  -19.5092  -12.5771 C   0  0  0  0  0  0  0  0  0  0  0  0
   19.7456  -19.8684  -11.5721 C   0  0  0  0  0  0  0  0  0  0  0  0
   20.3920  -21.2058  -11.6717 C   0  0  2  0  0  0  0  0  0  0  0  0
   21.1923  -21.3493  -12.8634 N   0  0  0  0  0  0  0  0  0  0  0  0
   19.5476  -22.3839  -11.4433 C   0  0  0  0  0  0  0  0  0  0  0  0
   19.2920  -23.1375  -12.4171 O   0  0  0  0  0  0  0  0  0  0  0  0
   17.0275  -16.9884  -16.0081 N   0  0  0  0  0  0  0  0  0  0  0  0
   19.0041  -22.7285  -10.1788 C   0  0  2  0  0  0  0  0  0  0  0  0
   18.1976  -23.9252   -9.9374 C   0  0  0  0  0  0  0  0  0  0  0  0
   17.7581  -23.9506   -8.4766 C   0  0  0  0  0  0  0  0  0  0  0  0
   18.8769  -24.1665   -7.5129 C   0  0  0  0  0  0  0  0  0  0  0  0
   18.4820  -24.1873   -6.0912 O   0  0  0  0  0  0  0  0  0  0  0  0
   19.2630  -24.3958   -5.1572 C   0  0  0  0  0  0  0  0  0  0  0  0
   17.0247  -23.9025  -10.8345 O   0  0  0  0  0  0  0  0  0  0  0  0
   16.3520  -22.8681  -11.0921 O   0  0  0  0  0  0  0  0  0  0  0  0
   17.1484  -23.9586   -5.7767 O   0  0  0  0  0  0  0  0  0  0  0  0
  2  1  1  6
  2  3  1  0
  3  4  1  0
  4  8  1  0
  4  5  2  0
  5  6  1  0
  7  6  1  0
  8  7  2  0
  9  2  1  0
  9 19  1  0
 10  9  2  0
 12 14  1  0
 12 11  1  0
 13 12  2  0
 15 16  1  0
 15 14  1  0
 18 17  1  6
 17 16  1  0
 18 19  1  0
 20 18  1  0
 21 20  2  0
 22 20  1  0
 23 22  1  0
 23 28  1  0
 23 24  1  1
 25 24  1  0
 26 25  1  0
 27 26  2  0
 28 31  1  0
 29 28  2  0
 30 26  1  0
M  END
$$$$
