HRE.pdb
     RDKit          3D

 31 31  0  0  1  0  0  0  0  0999 V2000
   25.5044  -20.4828  -17.0801 N   0  0  0  0  0  0  0  0  0  0  0  0
   24.4576  -19.6149  -16.5946 C   0  0  1  0  0  0  0  0  0  0  0  0
   24.3672  -18.3992  -17.4740 C   0  0  0  0  0  0  0  0  0  0  0  0
   25.6164  -17.6173  -17.3010 C   0  0  0  0  0  0  0  0  0  0  0  0
   26.7655  -17.5872  -18.0627 C   0  0  0  0  0  0  0  0  0  0  0  0
   27.6459  -16.7156  -17.5111 N   0  0  0  0  0  0  0  0  0  0  0  0
   27.0509  -16.2109  -16.4207 C   0  0  0  0  0  0  0  0  0  0  0  0
   25.8251  -16.7549  -16.2931 N   0  0  0  0  0  0  0  0  0  0  0  0
   23.1873  -20.3661  -16.5137 C   0  0  0  0  0  0  0  0  0  0  0  0
   22.8857  -21.0983  -17.4894 O   0  0  0  0  0  0  0  0  0  0  0  0
   21.4043  -27.5343  -16.6874 N   0  0  0  0  0  0  0  0  0  0  0  0
   21.6512  -26.3672  -17.4643 C   0  0  0  0  0  0  0  0  0  0  0  0
   22.1755  -26.4450  -18.6300 N   0  0  0  0  0  0  0  0  0  0  0  0
   21.3235  -25.0592  -16.9752 N   0  0  0  0  0  0  0  0  0  0  0  0
   20.5419  -24.9479  -15.7582 C   0  0  0  0  0  0  0  0  0  0  0  0
   20.2576  -23.5068  -15.4872 C   0  0  0  0  0  0  0  0  0  0  0  0
   21.3864  -22.5666  -15.5669 C   0  0  0  0  0  0  0  0  0  0  0  0
   21.1139  -21.1199  -15.3456 C   0  0  2  0  0  0  0  0  0  0  0  0
   22.3061  -20.3112  -15.4226 N   0  0  0  0  0  0  0  0  0  0  0  0
   20.2888  -20.7564  -14.1879 C   0  0  0  0  0  0  0  0  0  0  0  0
   20.8111  -20.7886  -13.0443 O   0  0  0  0  0  0  0  0  0  0  0  0
   22.3867  -25.6604  -19.2617 N   0  0  0  0  0  0  0  0  0  0  0  0
   18.9293  -20.3621  -14.2840 C   0  0  2  0  0  0  0  0  0  0  0  0
   18.1034  -19.9973  -13.1325 C   0  0  0  0  0  0  0  0  0  0  0  0
   17.4418  -18.6477  -13.3942 C   0  0  0  0  0  0  0  0  0  0  0  0
   18.3973  -17.5016  -13.4209 C   0  0  0  0  0  0  0  0  0  0  0  0
   17.7821  -16.1801  -13.6507 O   0  0  0  0  0  0  0  0  0  0  0  0
   16.5680  -15.9931  -13.7797 C   0  0  0  0  0  0  0  0  0  0  0  0
   17.0845  -21.0454  -12.9215 O   0  0  0  0  0  0  0  0  0  0  0  0
   16.8656  -21.9903  -13.7264 O   0  0  0  0  0  0  0  0  0  0  0  0
   18.6162  -15.0719  -13.7279 O   0  0  0  0  0  0  0  0  0  0  0  0
  2  1  1  6
  2  3  1  0
  3  4  1  0
  4  8  1  0
  4  5  2  0
  5  6  1  0
  7  6  1  0
  8  7  2  0
  9  2  1  0
  9 19  1  0
 10  9  2  0
 12 14  1  0
 12 11  1  0
 13 12  2  0
 15 16  1  0
 15 14  1  0
 18 17  1  1
 17 16  1  0
 18 19  1  0
 20 18  1  0
 21 20  2  0
 22 20  1  0
 23 22  1  0
 23 28  1  0
 23 24  1  1
 25 24  1  0
 26 25  1  0
 27 26  2  0
 28 31  1  0
 29 28  2  0
 30 26  1  0
M  END
$$$$
