HRE.pdb
     RDKit          3D

 31 31  0  0  1  0  0  0  0  0999 V2000
   20.1333   -8.8089  -11.8420 N   0  0  0  0  0  0  0  0  0  0  0  0
   19.5615   -7.7044  -12.5754 C   0  0  1  0  0  0  0  0  0  0  0  0
   19.2270   -8.1501  -13.9715 C   0  0  0  0  0  0  0  0  0  0  0  0
   20.4922   -8.5422  -14.6404 C   0  0  0  0  0  0  0  0  0  0  0  0
   20.9277   -9.7753  -15.0780 C   0  0  0  0  0  0  0  0  0  0  0  0
   22.1589   -9.6450  -15.6313 N   0  0  0  0  0  0  0  0  0  0  0  0
   22.4836   -8.3474  -15.5386 C   0  0  0  0  0  0  0  0  0  0  0  0
   21.4775   -7.6807  -14.9403 N   0  0  0  0  0  0  0  0  0  0  0  0
   18.3931   -7.1733  -11.8422 C   0  0  0  0  0  0  0  0  0  0  0  0
   17.6051   -8.0068  -11.3290 O   0  0  0  0  0  0  0  0  0  0  0  0
   18.2643   -0.0574   -7.3690 N   0  0  0  0  0  0  0  0  0  0  0  0
   17.0603   -0.8003   -7.5271 C   0  0  0  0  0  0  0  0  0  0  0  0
   15.9449   -0.3592   -7.0787 N   0  0  0  0  0  0  0  0  0  0  0  0
   17.0464   -2.0703   -8.1937 N   0  0  0  0  0  0  0  0  0  0  0  0
   18.3124   -2.6802   -8.5538 C   0  0  0  0  0  0  0  0  0  0  0  0
   18.0548   -4.0031   -9.1976 C   0  0  0  0  0  0  0  0  0  0  0  0
   17.1225   -4.0332  -10.3353 C   0  0  0  0  0  0  0  0  0  0  0  0
   16.9157   -5.3273  -11.0413 C   0  0  2  0  0  0  0  0  0  0  0  0
   18.1138   -5.8067  -11.6863 N   0  0  0  0  0  0  0  0  0  0  0  0
   15.7472   -5.4383  -11.9220 C   0  0  0  0  0  0  0  0  0  0  0  0
   15.8719   -5.1098  -13.1295 O   0  0  0  0  0  0  0  0  0  0  0  0
   15.0292   -0.8241   -7.1459 N   0  0  0  0  0  0  0  0  0  0  0  0
   14.4783   -5.9032  -11.4899 C   0  0  2  0  0  0  0  0  0  0  0  0
   13.3166   -6.0365  -12.3695 C   0  0  0  0  0  0  0  0  0  0  0  0
   12.2560   -6.8878  -11.6780 C   0  0  0  0  0  0  0  0  0  0  0  0
   10.9995   -7.0463  -12.4675 C   0  0  0  0  0  0  0  0  0  0  0  0
    9.9615   -7.8789  -11.8297 O   0  0  0  0  0  0  0  0  0  0  0  0
   10.0863   -8.4183  -10.7255 C   0  0  0  0  0  0  0  0  0  0  0  0
   12.7885   -4.6915  -12.6743 O   0  0  0  0  0  0  0  0  0  0  0  0
   12.2910   -4.3626  -13.7848 O   0  0  0  0  0  0  0  0  0  0  0  0
    8.7654   -8.0722  -12.5094 O   0  0  0  0  0  0  0  0  0  0  0  0
  2  1  1  1
  2  3  1  0
  3  4  1  0
  4  8  1  0
  4  5  2  0
  5  6  1  0
  7  6  1  0
  8  7  2  0
  9  2  1  0
  9 19  1  0
 10  9  2  0
 12 14  1  0
 12 11  1  0
 13 12  2  0
 15 16  1  0
 15 14  1  0
 18 17  1  6
 17 16  1  0
 18 19  1  0
 20 18  1  0
 21 20  2  0
 22 20  1  0
 23 22  1  0
 23 28  1  0
 23 24  1  1
 25 24  1  0
 26 25  1  0
 27 26  2  0
 28 31  1  0
 29 28  2  0
 30 26  1  0
M  END
$$$$
