HRE.pdb
     RDKit          3D

 31 31  0  0  1  0  0  0  0  0999 V2000
   24.9025  -14.9241  -18.0354 N   0  0  0  0  0  0  0  0  0  0  0  0
   25.0313  -15.3486  -16.6613 C   0  0  1  0  0  0  0  0  0  0  0  0
   24.5865  -14.2385  -15.7507 C   0  0  0  0  0  0  0  0  0  0  0  0
   25.5660  -13.1303  -15.8705 C   0  0  0  0  0  0  0  0  0  0  0  0
   25.3861  -11.8134  -16.2378 C   0  0  0  0  0  0  0  0  0  0  0  0
   26.5802  -11.1716  -16.2032 N   0  0  0  0  0  0  0  0  0  0  0  0
   27.4900  -12.0785  -15.8192 C   0  0  0  0  0  0  0  0  0  0  0  0
   26.8783  -13.2618  -15.6180 N   0  0  0  0  0  0  0  0  0  0  0  0
   24.2764  -16.6026  -16.4562 C   0  0  0  0  0  0  0  0  0  0  0  0
   23.0833  -16.6299  -16.8495 O   0  0  0  0  0  0  0  0  0  0  0  0
   26.4775  -22.1198  -11.8316 N   0  0  0  0  0  0  0  0  0  0  0  0
   25.7747  -22.8092  -12.8599 C   0  0  0  0  0  0  0  0  0  0  0  0
   24.8832  -23.6853  -12.5816 N   0  0  0  0  0  0  0  0  0  0  0  0
   26.0352  -22.5519  -14.2468 N   0  0  0  0  0  0  0  0  0  0  0  0
   26.8466  -21.4023  -14.6000 C   0  0  0  0  0  0  0  0  0  0  0  0
   25.9905  -20.1783  -14.6002 C   0  0  0  0  0  0  0  0  0  0  0  0
   24.8237  -20.1674  -15.4963 C   0  0  0  0  0  0  0  0  0  0  0  0
   24.0098  -18.9235  -15.5763 C   0  0  2  0  0  0  0  0  0  0  0  0
   24.8073  -17.7539  -15.8540 N   0  0  0  0  0  0  0  0  0  0  0  0
   23.0452  -18.6759  -14.4986 C   0  0  0  0  0  0  0  0  0  0  0  0
   23.3686  -17.8892  -13.5723 O   0  0  0  0  0  0  0  0  0  0  0  0
   24.3093  -24.2122  -13.2541 N   0  0  0  0  0  0  0  0  0  0  0  0
   21.7584  -19.2708  -14.4430 C   0  0  2  0  0  0  0  0  0  0  0  0
   20.7828  -19.0049  -13.3854 C   0  0  0  0  0  0  0  0  0  0  0  0
   20.1153  -17.6573  -13.6427 C   0  0  0  0  0  0  0  0  0  0  0  0
   19.1832  -17.6575  -14.8082 C   0  0  0  0  0  0  0  0  0  0  0  0
   18.4700  -16.3863  -15.0384 O   0  0  0  0  0  0  0  0  0  0  0  0
   18.5792  -15.3892  -14.3176 C   0  0  0  0  0  0  0  0  0  0  0  0
   19.7805  -20.0894  -13.3734 O   0  0  0  0  0  0  0  0  0  0  0  0
   19.7263  -21.0111  -14.2315 O   0  0  0  0  0  0  0  0  0  0  0  0
   17.6202  -16.2992  -16.1338 O   0  0  0  0  0  0  0  0  0  0  0  0
  2  1  1  6
  2  3  1  0
  3  4  1  0
  4  8  1  0
  4  5  2  0
  5  6  1  0
  7  6  1  0
  8  7  2  0
  9  2  1  0
  9 19  1  0
 10  9  2  0
 12 14  1  0
 12 11  1  0
 13 12  2  0
 15 16  1  0
 15 14  1  0
 18 17  1  1
 17 16  1  0
 18 19  1  0
 20 18  1  0
 21 20  2  0
 22 20  1  0
 23 22  1  0
 23 28  1  0
 23 24  1  6
 25 24  1  0
 26 25  1  0
 27 26  2  0
 28 31  1  0
 29 28  2  0
 30 26  1  0
M  END
$$$$
