SGP.pdb
     RDKit          3D

 18 18  0  0  1  0  0  0  0  0999 V2000
   25.8741  -16.8723  -18.8644 O   0  0  0  0  0  0  0  0  0  0  0  0
   26.4796  -18.0871  -18.6155 C   0  0  0  0  0  0  0  0  0  0  0  0
   27.8470  -17.7862  -18.0046 C   0  0  2  0  0  0  0  0  0  0  0  0
   28.9058  -18.3327  -18.8235 N   0  0  0  0  0  0  0  0  0  0  0  0
   27.8742  -18.4591  -16.6896 C   0  0  0  0  0  0  0  0  0  0  0  0
   28.6750  -19.4058  -16.5147 O   0  0  0  0  0  0  0  0  0  0  0  0
   27.0015  -18.0229  -15.6630 N   0  0  0  0  0  0  0  0  0  0  0  0
   27.1111  -18.7007  -14.3767 C   0  0  0  0  0  0  0  0  0  0  0  0
   26.1481  -19.8263  -14.3060 C   0  0  0  0  0  0  0  0  0  0  0  0
   25.6409  -20.2713  -15.3560 O   0  0  0  0  0  0  0  0  0  0  0  0
   25.8357  -20.3592  -13.0495 N   0  0  0  0  0  0  0  0  0  0  0  0
   26.3782  -19.9154  -11.7835 C   0  0  0  0  0  0  0  0  0  0  0  0
   26.7513  -21.2618  -11.1552 C   0  0  0  0  0  0  0  0  0  0  0  0
   25.5974  -22.1239  -11.5664 C   0  0  0  0  0  0  0  0  0  0  0  0
   24.9285  -21.4402  -12.7394 C   0  0  1  0  0  0  0  0  0  0  0  0
   23.6020  -20.9147  -12.3194 C   0  0  0  0  0  0  0  0  0  0  0  0
   22.5705  -21.6178  -12.2490 O   0  0  0  0  0  0  0  0  0  0  0  0
   23.5418  -19.5591  -11.9934 O   0  0  0  0  0  0  0  0  0  0  0  0
  1  2  1  0
  3  4  1  6
  3  2  1  0
  5  3  1  0
  6  5  2  0
  7  5  1  0
  8  7  1  0
  9  8  1  0
  9 11  1  0
 10  9  2  0
 11 12  1  0
 13 12  1  0
 14 13  1  0
 15 16  1  1
 15 11  1  0
 15 14  1  0
 16 18  1  0
 17 16  2  0
M  END
$$$$
