SGP.pdb
     RDKit          3D

 18 18  0  0  1  0  0  0  0  0999 V2000
   27.9776  -19.5047  -17.6299 O   0  0  0  0  0  0  0  0  0  0  0  0
   26.9398  -19.2146  -18.4919 C   0  0  0  0  0  0  0  0  0  0  0  0
   26.1699  -18.0437  -17.8838 C   0  0  2  0  0  0  0  0  0  0  0  0
   27.0640  -16.9543  -17.5616 N   0  0  0  0  0  0  0  0  0  0  0  0
   25.5681  -18.5450  -16.6311 C   0  0  0  0  0  0  0  0  0  0  0  0
   24.6356  -19.3776  -16.7028 O   0  0  0  0  0  0  0  0  0  0  0  0
   26.0545  -18.0773  -15.3859 N   0  0  0  0  0  0  0  0  0  0  0  0
   25.4069  -18.6022  -14.1896 C   0  0  0  0  0  0  0  0  0  0  0  0
   25.9594  -19.9360  -13.8501 C   0  0  0  0  0  0  0  0  0  0  0  0
   26.8235  -20.4520  -14.5884 O   0  0  0  0  0  0  0  0  0  0  0  0
   25.4886  -20.5801  -12.6996 N   0  0  0  0  0  0  0  0  0  0  0  0
   24.5206  -20.0452  -11.7666 C   0  0  0  0  0  0  0  0  0  0  0  0
   25.2224  -20.3439  -10.4380 C   0  0  0  0  0  0  0  0  0  0  0  0
   25.8046  -21.6999  -10.6954 C   0  0  0  0  0  0  0  0  0  0  0  0
   25.8503  -21.8856  -12.1968 C   0  0  1  0  0  0  0  0  0  0  0  0
   24.8477  -22.9063  -12.6032 C   0  0  0  0  0  0  0  0  0  0  0  0
   23.6707  -22.6306  -12.9226 O   0  0  0  0  0  0  0  0  0  0  0  0
   25.2782  -24.2337  -12.6175 O   0  0  0  0  0  0  0  0  0  0  0  0
  1  2  1  0
  3  4  1  1
  3  2  1  0
  5  3  1  0
  6  5  2  0
  7  5  1  0
  8  7  1  0
  9  8  1  0
  9 11  1  0
 10  9  2  0
 11 12  1  0
 13 12  1  0
 14 13  1  0
 15 16  1  1
 15 11  1  0
 15 14  1  0
 16 18  1  0
 17 16  2  0
M  END
$$$$
