SGP.pdb
     RDKit          3D

 18 18  0  0  1  0  0  0  0  0999 V2000
   19.8866  -17.5200  -16.9059 O   0  0  0  0  0  0  0  0  0  0  0  0
   20.4033  -16.4992  -17.6775 C   0  0  0  0  0  0  0  0  0  0  0  0
   20.1015  -15.1921  -16.9468 C   0  0  2  0  0  0  0  0  0  0  0  0
   18.9382  -14.5458  -17.5117 N   0  0  0  0  0  0  0  0  0  0  0  0
   21.2736  -14.3170  -17.1548 C   0  0  0  0  0  0  0  0  0  0  0  0
   21.4567  -13.8159  -18.2876 O   0  0  0  0  0  0  0  0  0  0  0  0
   22.1581  -14.0654  -16.0776 N   0  0  0  0  0  0  0  0  0  0  0  0
   23.2793  -13.1722  -16.3443 C   0  0  0  0  0  0  0  0  0  0  0  0
   23.2235  -11.9953  -15.4436 C   0  0  0  0  0  0  0  0  0  0  0  0
   22.3375  -11.9308  -14.5668 O   0  0  0  0  0  0  0  0  0  0  0  0
   24.1771  -10.9834  -15.6080 N   0  0  0  0  0  0  0  0  0  0  0  0
   25.1995  -10.9425  -16.6312 C   0  0  0  0  0  0  0  0  0  0  0  0
   26.4248  -10.5855  -15.7839 C   0  0  0  0  0  0  0  0  0  0  0  0
   25.8537   -9.5909  -14.8203 C   0  0  0  0  0  0  0  0  0  0  0  0
   24.3527   -9.7863  -14.8183 C   0  0  1  0  0  0  0  0  0  0  0  0
   23.6980   -8.6207  -15.4702 C   0  0  0  0  0  0  0  0  0  0  0  0
   23.5730   -8.5011  -16.7085 O   0  0  0  0  0  0  0  0  0  0  0  0
   23.2080   -7.6253  -14.6236 O   0  0  0  0  0  0  0  0  0  0  0  0
  1  2  1  0
  3  4  1  6
  3  2  1  0
  5  3  1  0
  6  5  2  0
  7  5  1  0
  8  7  1  0
  9  8  1  0
  9 11  1  0
 10  9  2  0
 11 12  1  0
 13 12  1  0
 14 13  1  0
 15 16  1  6
 15 11  1  0
 15 14  1  0
 16 18  1  0
 17 16  2  0
M  END
$$$$
