SGP.pdb
     RDKit          3D

 18 18  0  0  1  0  0  0  0  0999 V2000
   17.9122  -19.8401  -13.4910 O   0  0  0  0  0  0  0  0  0  0  0  0
   18.7949  -20.6979  -12.8670 C   0  0  0  0  0  0  0  0  0  0  0  0
   19.8022  -21.1466  -13.9241 C   0  0  2  0  0  0  0  0  0  0  0  0
   19.5197  -22.4952  -14.3617 N   0  0  0  0  0  0  0  0  0  0  0  0
   21.1275  -21.1316  -13.2712 C   0  0  0  0  0  0  0  0  0  0  0  0
   21.2459  -21.6521  -12.1384 O   0  0  0  0  0  0  0  0  0  0  0  0
   22.2269  -20.5339  -13.9345 N   0  0  0  0  0  0  0  0  0  0  0  0
   23.4985  -20.5267  -13.2211 C   0  0  0  0  0  0  0  0  0  0  0  0
   24.5249  -19.8020  -14.0089 C   0  0  0  0  0  0  0  0  0  0  0  0
   24.1756  -18.8915  -14.7879 O   0  0  0  0  0  0  0  0  0  0  0  0
   25.8675  -20.1669  -13.8515 N   0  0  0  0  0  0  0  0  0  0  0  0
   26.3690  -21.1770  -12.9449 C   0  0  0  0  0  0  0  0  0  0  0  0
   27.5356  -20.4188  -12.3038 C   0  0  0  0  0  0  0  0  0  0  0  0
   28.1008  -19.6757  -13.4753 C   0  0  0  0  0  0  0  0  0  0  0  0
   27.0228  -19.6348  -14.5370 C   0  0  1  0  0  0  0  0  0  0  0  0
   27.4121  -20.5085  -15.6759 C   0  0  0  0  0  0  0  0  0  0  0  0
   27.1037  -21.7175  -15.7568 O   0  0  0  0  0  0  0  0  0  0  0  0
   28.1619  -19.9138  -16.6916 O   0  0  0  0  0  0  0  0  0  0  0  0
  1  2  1  0
  3  4  1  1
  3  2  1  0
  5  3  1  0
  6  5  2  0
  7  5  1  0
  8  7  1  0
  9  8  1  0
  9 11  1  0
 10  9  2  0
 11 12  1  0
 13 12  1  0
 14 13  1  0
 15 16  1  6
 15 11  1  0
 15 14  1  0
 16 18  1  0
 17 16  2  0
M  END
$$$$
