SGP.pdb
     RDKit          3D

 18 18  0  0  1  0  0  0  0  0999 V2000
   28.1141  -27.0279  -17.8369 O   0  0  0  0  0  0  0  0  0  0  0  0
   27.6238  -25.7470  -17.9889 C   0  0  0  0  0  0  0  0  0  0  0  0
   27.4041  -25.1848  -16.5856 C   0  0  2  0  0  0  0  0  0  0  0  0
   26.2344  -25.7749  -15.9743 N   0  0  0  0  0  0  0  0  0  0  0  0
   27.1694  -23.7352  -16.7484 C   0  0  0  0  0  0  0  0  0  0  0  0
   26.0816  -23.3531  -17.2372 O   0  0  0  0  0  0  0  0  0  0  0  0
   28.1710  -22.8160  -16.3516 N   0  0  0  0  0  0  0  0  0  0  0  0
   27.8771  -21.4011  -16.5457 C   0  0  0  0  0  0  0  0  0  0  0  0
   26.9839  -20.9098  -15.4686 C   0  0  0  0  0  0  0  0  0  0  0  0
   26.5966  -21.6973  -14.5811 O   0  0  0  0  0  0  0  0  0  0  0  0
   26.6000  -19.5634  -15.4823 N   0  0  0  0  0  0  0  0  0  0  0  0
   27.0097  -18.5766  -16.4581 C   0  0  0  0  0  0  0  0  0  0  0  0
   27.4063  -17.4214  -15.5336 C   0  0  0  0  0  0  0  0  0  0  0  0
   26.3416  -17.4890  -14.4820 C   0  0  0  0  0  0  0  0  0  0  0  0
   25.7338  -18.8733  -14.5544 C   0  0  1  0  0  0  0  0  0  0  0  0
   24.3492  -18.7819  -15.0898 C   0  0  0  0  0  0  0  0  0  0  0  0
   23.3588  -18.4654  -14.3953 O   0  0  0  0  0  0  0  0  0  0  0  0
   24.1829  -19.0716  -16.4448 O   0  0  0  0  0  0  0  0  0  0  0  0
  1  2  1  0
  3  4  1  6
  3  2  1  0
  5  3  1  0
  6  5  2  0
  7  5  1  0
  8  7  1  0
  9  8  1  0
  9 11  1  0
 10  9  2  0
 11 12  1  0
 13 12  1  0
 14 13  1  0
 15 16  1  6
 15 11  1  0
 15 14  1  0
 16 18  1  0
 17 16  2  0
M  END
$$$$
