SGP.pdb
     RDKit          3D

 18 18  0  0  1  0  0  0  0  0999 V2000
   14.1244   -7.7921  -16.9435 O   0  0  0  0  0  0  0  0  0  0  0  0
   15.3852   -8.0856  -17.4218 C   0  0  0  0  0  0  0  0  0  0  0  0
   15.5301   -9.6060  -17.3918 C   0  0  2  0  0  0  0  0  0  0  0  0
   14.4628  -10.2077  -16.6243 N   0  0  0  0  0  0  0  0  0  0  0  0
   16.8132   -9.8901  -16.7167 C   0  0  0  0  0  0  0  0  0  0  0  0
   16.8019  -10.5682  -15.6641 O   0  0  0  0  0  0  0  0  0  0  0  0
   18.0189   -9.3938  -17.2696 N   0  0  0  0  0  0  0  0  0  0  0  0
   19.2586   -9.8290  -16.6374 C   0  0  0  0  0  0  0  0  0  0  0  0
   19.5949   -8.9388  -15.5000 C   0  0  0  0  0  0  0  0  0  0  0  0
   18.7027   -8.2367  -14.9813 O   0  0  0  0  0  0  0  0  0  0  0  0
   20.9170   -8.9146  -15.0397 N   0  0  0  0  0  0  0  0  0  0  0  0
   22.0157   -9.6847  -15.5815 C   0  0  0  0  0  0  0  0  0  0  0  0
   22.6284  -10.2383  -14.2912 C   0  0  0  0  0  0  0  0  0  0  0  0
   22.5149   -9.0642  -13.3679 C   0  0  0  0  0  0  0  0  0  0  0  0
   21.4691   -8.1393  -13.9527 C   0  0  1  0  0  0  0  0  0  0  0  0
   22.1245   -6.9050  -14.4616 C   0  0  0  0  0  0  0  0  0  0  0  0
   22.4632   -5.9497  -13.7294 O   0  0  0  0  0  0  0  0  0  0  0  0
   22.3592   -6.8435  -15.8360 O   0  0  0  0  0  0  0  0  0  0  0  0
  1  2  1  0
  3  4  1  1
  3  2  1  0
  5  3  1  0
  6  5  2  0
  7  5  1  0
  8  7  1  0
  9  8  1  0
  9 11  1  0
 10  9  2  0
 11 12  1  0
 13 12  1  0
 14 13  1  0
 15 16  1  6
 15 11  1  0
 15 14  1  0
 16 18  1  0
 17 16  2  0
M  END
$$$$
