SGP.pdb
     RDKit          3D

 18 18  0  0  1  0  0  0  0  0999 V2000
   18.1974  -13.5625    3.2313 O   0  0  0  0  0  0  0  0  0  0  0  0
   18.0027  -14.6306    4.0831 C   0  0  0  0  0  0  0  0  0  0  0  0
   16.5888  -15.1503    3.8298 C   0  0  2  0  0  0  0  0  0  0  0  0
   15.6029  -14.2186    4.3299 N   0  0  0  0  0  0  0  0  0  0  0  0
   16.4669  -16.4146    4.5845 C   0  0  0  0  0  0  0  0  0  0  0  0
   16.5092  -16.3749    5.8354 O   0  0  0  0  0  0  0  0  0  0  0  0
   16.3063  -17.6346    3.8833 N   0  0  0  0  0  0  0  0  0  0  0  0
   16.2426  -18.8496    4.6868 C   0  0  0  0  0  0  0  0  0  0  0  0
   17.0885  -19.9084    4.0844 C   0  0  0  0  0  0  0  0  0  0  0  0
   17.8365  -19.6291    3.1250 O   0  0  0  0  0  0  0  0  0  0  0  0
   17.0199  -21.2012    4.6174 N   0  0  0  0  0  0  0  0  0  0  0  0
   16.2625  -21.5957    5.7856 C   0  0  0  0  0  0  0  0  0  0  0  0
   17.3161  -22.4188    6.5334 C   0  0  0  0  0  0  0  0  0  0  0  0
   17.9874  -23.1512    5.4123 C   0  0  0  0  0  0  0  0  0  0  0  0
   17.6691  -22.3996    4.1377 C   0  0  1  0  0  0  0  0  0  0  0  0
   16.7408  -23.2069    3.3020 C   0  0  0  0  0  0  0  0  0  0  0  0
   15.4985  -23.0663    3.3156 O   0  0  0  0  0  0  0  0  0  0  0  0
   17.3220  -24.1642    2.4692 O   0  0  0  0  0  0  0  0  0  0  0  0
  1  2  1  0
  3  4  1  1
  3  2  1  0
  5  3  1  0
  6  5  2  0
  7  5  1  0
  8  7  1  0
  9  8  1  0
  9 11  1  0
 10  9  2  0
 11 12  1  0
 13 12  1  0
 14 13  1  0
 15 16  1  6
 15 11  1  0
 15 14  1  0
 16 18  1  0
 17 16  2  0
M  END
$$$$
