SGP.pdb
     RDKit          3D

 18 18  0  0  1  0  0  0  0  0999 V2000
   17.0186  -13.7165  -16.8740 O   0  0  0  0  0  0  0  0  0  0  0  0
   17.0714  -12.3381  -16.8330 C   0  0  0  0  0  0  0  0  0  0  0  0
   17.8654  -11.9598  -15.5840 C   0  0  2  0  0  0  0  0  0  0  0  0
   17.1293  -12.2983  -14.3866 N   0  0  0  0  0  0  0  0  0  0  0  0
   18.0418  -10.4936  -15.6294 C   0  0  0  0  0  0  0  0  0  0  0  0
   17.1272   -9.7637  -15.1836 O   0  0  0  0  0  0  0  0  0  0  0  0
   19.2315   -9.9491  -16.1714 N   0  0  0  0  0  0  0  0  0  0  0  0
   19.3392   -8.4951  -16.1885 C   0  0  0  0  0  0  0  0  0  0  0  0
   20.5821   -8.0643  -15.5038 C   0  0  0  0  0  0  0  0  0  0  0  0
   21.3364   -8.9205  -14.9980 O   0  0  0  0  0  0  0  0  0  0  0  0
   20.8723   -6.6958  -15.4463 N   0  0  0  0  0  0  0  0  0  0  0  0
   20.0437   -5.6324  -15.9719 C   0  0  0  0  0  0  0  0  0  0  0  0
   21.0945   -4.8077  -16.7217 C   0  0  0  0  0  0  0  0  0  0  0  0
   22.2624   -4.8730  -15.7860 C   0  0  0  0  0  0  0  0  0  0  0  0
   22.0292   -6.0527  -14.8669 C   0  0  1  0  0  0  0  0  0  0  0  0
   21.7317   -5.5635  -13.4942 C   0  0  0  0  0  0  0  0  0  0  0  0
   20.5798   -5.2896  -13.0924 O   0  0  0  0  0  0  0  0  0  0  0  0
   22.8208   -5.4137  -12.6346 O   0  0  0  0  0  0  0  0  0  0  0  0
  1  2  1  0
  3  4  1  1
  3  2  1  0
  5  3  1  0
  6  5  2  0
  7  5  1  0
  8  7  1  0
  9  8  1  0
  9 11  1  0
 10  9  2  0
 11 12  1  0
 13 12  1  0
 14 13  1  0
 15 16  1  1
 15 11  1  0
 15 14  1  0
 16 18  1  0
 17 16  2  0
M  END
$$$$
