SGP.pdb
     RDKit          3D

 18 18  0  0  1  0  0  0  0  0999 V2000
   19.3857  -21.2402  -13.4169 O   0  0  0  0  0  0  0  0  0  0  0  0
   19.9164  -21.4530  -14.6728 C   0  0  0  0  0  0  0  0  0  0  0  0
   20.9817  -20.3806  -14.8937 C   0  0  2  0  0  0  0  0  0  0  0  0
   21.3631  -20.3161  -16.2867 N   0  0  0  0  0  0  0  0  0  0  0  0
   22.1592  -20.7922  -14.1019 C   0  0  0  0  0  0  0  0  0  0  0  0
   22.7778  -21.8278  -14.4378 O   0  0  0  0  0  0  0  0  0  0  0  0
   22.5601  -20.0134  -12.9890 N   0  0  0  0  0  0  0  0  0  0  0  0
   23.7886  -20.4163  -12.3148 C   0  0  0  0  0  0  0  0  0  0  0  0
   24.9694  -19.8940  -13.0442 C   0  0  0  0  0  0  0  0  0  0  0  0
   24.8352  -18.9301  -13.8258 O   0  0  0  0  0  0  0  0  0  0  0  0
   26.2104  -20.5059  -12.8300 N   0  0  0  0  0  0  0  0  0  0  0  0
   26.4590  -21.6315  -11.9554 C   0  0  0  0  0  0  0  0  0  0  0  0
   27.6969  -21.1306  -11.2048 C   0  0  0  0  0  0  0  0  0  0  0  0
   28.4650  -20.4508  -12.2966 C   0  0  0  0  0  0  0  0  0  0  0  0
   27.4865  -20.1640  -13.4152 C   0  0  1  0  0  0  0  0  0  0  0  0
   27.7883  -21.0410  -14.5779 C   0  0  0  0  0  0  0  0  0  0  0  0
   27.2801  -22.1717  -14.7415 O   0  0  0  0  0  0  0  0  0  0  0  0
   28.6918  -20.5434  -15.5179 O   0  0  0  0  0  0  0  0  0  0  0  0
  1  2  1  0
  3  4  1  6
  3  2  1  0
  5  3  1  0
  6  5  2  0
  7  5  1  0
  8  7  1  0
  9  8  1  0
  9 11  1  0
 10  9  2  0
 11 12  1  0
 13 12  1  0
 14 13  1  0
 15 16  1  6
 15 11  1  0
 15 14  1  0
 16 18  1  0
 17 16  2  0
M  END
$$$$
