SGP.pdb
     RDKit          3D

 18 18  0  0  1  0  0  0  0  0999 V2000
   19.6916  -22.1231  -15.2968 O   0  0  0  0  0  0  0  0  0  0  0  0
   20.9439  -21.8972  -14.7629 C   0  0  0  0  0  0  0  0  0  0  0  0
   20.7945  -21.9405  -13.2432 C   0  0  2  0  0  0  0  0  0  0  0  0
   19.6575  -21.1557  -12.8173 N   0  0  0  0  0  0  0  0  0  0  0  0
   22.0207  -21.3337  -12.6855 C   0  0  0  0  0  0  0  0  0  0  0  0
   21.9715  -20.1546  -12.2668 O   0  0  0  0  0  0  0  0  0  0  0  0
   23.2159  -22.0919  -12.6364 N   0  0  0  0  0  0  0  0  0  0  0  0
   24.4226  -21.3881  -12.2188 C   0  0  0  0  0  0  0  0  0  0  0  0
   24.9603  -20.5809  -13.3407 C   0  0  0  0  0  0  0  0  0  0  0  0
   24.1827  -19.8953  -14.0357 O   0  0  0  0  0  0  0  0  0  0  0  0
   26.3383  -20.6145  -13.5865 N   0  0  0  0  0  0  0  0  0  0  0  0
   27.3116  -21.3864  -12.8444 C   0  0  0  0  0  0  0  0  0  0  0  0
   28.3884  -20.3223  -12.6102 C   0  0  0  0  0  0  0  0  0  0  0  0
   28.3926  -19.5950  -13.9198 C   0  0  0  0  0  0  0  0  0  0  0  0
   27.0802  -19.9083  -14.6056 C   0  0  1  0  0  0  0  0  0  0  0  0
   27.3295  -20.7836  -15.7819 C   0  0  0  0  0  0  0  0  0  0  0  0
   27.2095  -22.0279  -15.7558 O   0  0  0  0  0  0  0  0  0  0  0  0
   27.7168  -20.1482  -16.9626 O   0  0  0  0  0  0  0  0  0  0  0  0
  1  2  1  0
  3  4  1  6
  3  2  1  0
  5  3  1  0
  6  5  2  0
  7  5  1  0
  8  7  1  0
  9  8  1  0
  9 11  1  0
 10  9  2  0
 11 12  1  0
 13 12  1  0
 14 13  1  0
 15 16  1  6
 15 11  1  0
 15 14  1  0
 16 18  1  0
 17 16  2  0
M  END
$$$$
