SGP.pdb
     RDKit          3D

 18 18  0  0  1  0  0  0  0  0999 V2000
   17.3041  -12.4398  -15.6580 O   0  0  0  0  0  0  0  0  0  0  0  0
   16.3508  -11.6595  -16.2799 C   0  0  0  0  0  0  0  0  0  0  0  0
   16.3342  -10.3148  -15.5553 C   0  0  2  0  0  0  0  0  0  0  0  0
   15.2185   -9.5082  -15.9968 N   0  0  0  0  0  0  0  0  0  0  0  0
   17.5881   -9.6259  -15.9243 C   0  0  0  0  0  0  0  0  0  0  0  0
   17.6604   -9.0664  -17.0423 O   0  0  0  0  0  0  0  0  0  0  0  0
   18.6727   -9.6130  -15.0137 N   0  0  0  0  0  0  0  0  0  0  0  0
   19.9081   -8.9899  -15.4737 C   0  0  0  0  0  0  0  0  0  0  0  0
   20.1938   -7.7697  -14.6808 C   0  0  0  0  0  0  0  0  0  0  0  0
   19.4436   -7.4605  -13.7324 O   0  0  0  0  0  0  0  0  0  0  0  0
   21.3082   -6.9955  -15.0258 N   0  0  0  0  0  0  0  0  0  0  0  0
   22.1623   -7.2066  -16.1745 C   0  0  0  0  0  0  0  0  0  0  0  0
   23.5418   -7.1031  -15.5165 C   0  0  0  0  0  0  0  0  0  0  0  0
   23.3360   -5.9821  -14.5445 C   0  0  0  0  0  0  0  0  0  0  0  0
   21.8433   -5.8446  -14.3351 C   0  0  1  0  0  0  0  0  0  0  0  0
   21.3667   -4.5823  -14.9608 C   0  0  0  0  0  0  0  0  0  0  0  0
   20.9743   -4.5029  -16.1453 O   0  0  0  0  0  0  0  0  0  0  0  0
   21.3713   -3.4442  -14.1531 O   0  0  0  0  0  0  0  0  0  0  0  0
  1  2  1  0
  3  4  1  6
  3  2  1  0
  5  3  1  0
  6  5  2  0
  7  5  1  0
  8  7  1  0
  9  8  1  0
  9 11  1  0
 10  9  2  0
 11 12  1  0
 13 12  1  0
 14 13  1  0
 15 16  1  6
 15 11  1  0
 15 14  1  0
 16 18  1  0
 17 16  2  0
M  END
$$$$
