SGP.pdb
     RDKit          3D

 18 18  0  0  1  0  0  0  0  0999 V2000
   14.7002  -10.6783  -17.4807 O   0  0  0  0  0  0  0  0  0  0  0  0
   15.6001  -11.0799  -16.5146 C   0  0  0  0  0  0  0  0  0  0  0  0
   16.9249  -11.3509  -17.2252 C   0  0  2  0  0  0  0  0  0  0  0  0
   17.0785  -12.7614  -17.5030 N   0  0  0  0  0  0  0  0  0  0  0  0
   17.9922  -10.9361  -16.2915 C   0  0  0  0  0  0  0  0  0  0  0  0
   18.6147  -11.8195  -15.6588 O   0  0  0  0  0  0  0  0  0  0  0  0
   18.2863   -9.5599  -16.1329 N   0  0  0  0  0  0  0  0  0  0  0  0
   19.4098   -9.2248  -15.2661 C   0  0  0  0  0  0  0  0  0  0  0  0
   19.5836   -7.7536  -15.1965 C   0  0  0  0  0  0  0  0  0  0  0  0
   18.7907   -7.0091  -15.8088 O   0  0  0  0  0  0  0  0  0  0  0  0
   20.6433   -7.2420  -14.4378 N   0  0  0  0  0  0  0  0  0  0  0  0
   21.5916   -8.0236  -13.6738 C   0  0  0  0  0  0  0  0  0  0  0  0
   21.5836   -7.2520  -12.3505 C   0  0  0  0  0  0  0  0  0  0  0  0
   21.5220   -5.8316  -12.8225 C   0  0  0  0  0  0  0  0  0  0  0  0
   21.0204   -5.8598  -14.2502 C   0  0  1  0  0  0  0  0  0  0  0  0
   22.1235   -5.4816  -15.1733 C   0  0  0  0  0  0  0  0  0  0  0  0
   22.9246   -6.3048  -15.6673 O   0  0  0  0  0  0  0  0  0  0  0  0
   22.2416   -4.1261  -15.4834 O   0  0  0  0  0  0  0  0  0  0  0  0
  1  2  1  0
  3  4  1  1
  3  2  1  0
  5  3  1  0
  6  5  2  0
  7  5  1  0
  8  7  1  0
  9  8  1  0
  9 11  1  0
 10  9  2  0
 11 12  1  0
 13 12  1  0
 14 13  1  0
 15 16  1  6
 15 11  1  0
 15 14  1  0
 16 18  1  0
 17 16  2  0
M  END
$$$$
