SGP.pdb
     RDKit          3D

 18 18  0  0  1  0  0  0  0  0999 V2000
   13.5218   -9.4683  -16.0400 O   0  0  0  0  0  0  0  0  0  0  0  0
   14.5280   -9.9205  -15.2108 C   0  0  0  0  0  0  0  0  0  0  0  0
   14.9855  -11.2701  -15.7607 C   0  0  2  0  0  0  0  0  0  0  0  0
   14.3085  -12.3548  -15.0860 N   0  0  0  0  0  0  0  0  0  0  0  0
   16.4320  -11.3686  -15.4761 C   0  0  0  0  0  0  0  0  0  0  0  0
   16.8050  -12.0232  -14.4759 O   0  0  0  0  0  0  0  0  0  0  0  0
   17.3584  -10.7259  -16.3331 N   0  0  0  0  0  0  0  0  0  0  0  0
   18.7711  -10.8834  -16.0082 C   0  0  0  0  0  0  0  0  0  0  0  0
   19.2368   -9.7461  -15.1781 C   0  0  0  0  0  0  0  0  0  0  0  0
   18.4008   -9.0165  -14.6064 O   0  0  0  0  0  0  0  0  0  0  0  0
   20.6144   -9.5253  -15.0613 N   0  0  0  0  0  0  0  0  0  0  0  0
   21.6557  -10.3678  -15.6088 C   0  0  0  0  0  0  0  0  0  0  0  0
   22.5814  -10.4883  -14.3942 C   0  0  0  0  0  0  0  0  0  0  0  0
   22.5315   -9.1015  -13.8302 C   0  0  0  0  0  0  0  0  0  0  0  0
   21.2901   -8.4397  -14.3886 C   0  0  1  0  0  0  0  0  0  0  0  0
   21.6827   -7.3798  -15.3553 C   0  0  0  0  0  0  0  0  0  0  0  0
   21.8176   -7.5786  -16.5824 O   0  0  0  0  0  0  0  0  0  0  0  0
   21.9048   -6.1061  -14.8299 O   0  0  0  0  0  0  0  0  0  0  0  0
  1  2  1  0
  3  4  1  1
  3  2  1  0
  5  3  1  0
  6  5  2  0
  7  5  1  0
  8  7  1  0
  9  8  1  0
  9 11  1  0
 10  9  2  0
 11 12  1  0
 13 12  1  0
 14 13  1  0
 15 16  1  6
 15 11  1  0
 15 14  1  0
 16 18  1  0
 17 16  2  0
M  END
$$$$
