SGP.pdb
     RDKit          3D

 18 18  0  0  1  0  0  0  0  0999 V2000
   23.9568    4.6294   -7.7653 O   0  0  0  0  0  0  0  0  0  0  0  0
   24.2860    3.4618   -7.1075 C   0  0  0  0  0  0  0  0  0  0  0  0
   25.5724    3.7358   -6.3306 C   0  0  2  0  0  0  0  0  0  0  0  0
   26.6949    3.8763   -7.2308 N   0  0  0  0  0  0  0  0  0  0  0  0
   25.8019    2.5550   -5.4727 C   0  0  0  0  0  0  0  0  0  0  0  0
   26.4960    1.6131   -5.9190 O   0  0  0  0  0  0  0  0  0  0  0  0
   25.2369    2.5135   -4.1747 N   0  0  0  0  0  0  0  0  0  0  0  0
   25.5536    1.3476   -3.3584 C   0  0  0  0  0  0  0  0  0  0  0  0
   24.8815    1.4462   -2.0401 C   0  0  0  0  0  0  0  0  0  0  0  0
   24.0553    2.3591   -1.8355 O   0  0  0  0  0  0  0  0  0  0  0  0
   25.1992    0.5014   -1.0568 N   0  0  0  0  0  0  0  0  0  0  0  0
   26.0882   -0.6279   -1.2244 C   0  0  0  0  0  0  0  0  0  0  0  0
   25.2384   -1.7430   -0.6071 C   0  0  0  0  0  0  0  0  0  0  0  0
   24.6241   -1.0471    0.5686 C   0  0  0  0  0  0  0  0  0  0  0  0
   24.7269    0.4403    0.3074 C   0  0  1  0  0  0  0  0  0  0  0  0
   25.7181    1.0421    1.2387 C   0  0  0  0  0  0  0  0  0  0  0  0
   26.9280    1.1895    0.9601 O   0  0  0  0  0  0  0  0  0  0  0  0
   25.2369    1.4536    2.4824 O   0  0  0  0  0  0  0  0  0  0  0  0
  1  2  1  0
  3  4  1  6
  3  2  1  0
  5  3  1  0
  6  5  2  0
  7  5  1  0
  8  7  1  0
  9  8  1  0
  9 11  1  0
 10  9  2  0
 11 12  1  0
 13 12  1  0
 14 13  1  0
 15 16  1  1
 15 11  1  0
 15 14  1  0
 16 18  1  0
 17 16  2  0
M  END
$$$$
