SGP.pdb
     RDKit          3D

 18 18  0  0  1  0  0  0  0  0999 V2000
   24.6362  -13.9774  -16.1930 O   0  0  0  0  0  0  0  0  0  0  0  0
   23.5169  -13.6699  -15.4466 C   0  0  0  0  0  0  0  0  0  0  0  0
   22.4781  -13.1051  -16.4138 C   0  0  2  0  0  0  0  0  0  0  0  0
   22.4843  -13.8396  -17.6590 N   0  0  0  0  0  0  0  0  0  0  0  0
   22.8782  -11.7097  -16.6884 C   0  0  0  0  0  0  0  0  0  0  0  0
   23.6007  -11.4759  -17.6841 O   0  0  0  0  0  0  0  0  0  0  0  0
   22.4400  -10.6744  -15.8271 N   0  0  0  0  0  0  0  0  0  0  0  0
   22.8106   -9.3132  -16.1958 C   0  0  0  0  0  0  0  0  0  0  0  0
   22.2759   -8.3491  -15.2040 C   0  0  0  0  0  0  0  0  0  0  0  0
   21.7074   -8.7723  -14.1765 O   0  0  0  0  0  0  0  0  0  0  0  0
   22.4278   -6.9800  -15.4552 N   0  0  0  0  0  0  0  0  0  0  0  0
   23.0875   -6.3988  -16.6044 C   0  0  0  0  0  0  0  0  0  0  0  0
   23.9732   -5.3552  -15.9166 C   0  0  0  0  0  0  0  0  0  0  0  0
   23.0629   -4.8362  -14.8460 C   0  0  0  0  0  0  0  0  0  0  0  0
   21.9746   -5.8696  -14.6495 C   0  0  1  0  0  0  0  0  0  0  0  0
   20.6835   -5.3364  -15.1604 C   0  0  0  0  0  0  0  0  0  0  0  0
   20.3083   -5.4535  -16.3473 O   0  0  0  0  0  0  0  0  0  0  0  0
   19.8717   -4.6753  -14.2376 O   0  0  0  0  0  0  0  0  0  0  0  0
  1  2  1  0
  3  4  1  6
  3  2  1  0
  5  3  1  0
  6  5  2  0
  7  5  1  0
  8  7  1  0
  9  8  1  0
  9 11  1  0
 10  9  2  0
 11 12  1  0
 13 12  1  0
 14 13  1  0
 15 16  1  6
 15 11  1  0
 15 14  1  0
 16 18  1  0
 17 16  2  0
M  END
$$$$
