SGP.pdb
     RDKit          3D

 18 18  0  0  1  0  0  0  0  0999 V2000
   15.8314  -13.5082  -15.6400 O   0  0  0  0  0  0  0  0  0  0  0  0
   16.9675  -12.7479  -15.8285 C   0  0  0  0  0  0  0  0  0  0  0  0
   16.5512  -11.2843  -15.6941 C   0  0  2  0  0  0  0  0  0  0  0  0
   15.9148  -10.8189  -16.9059 N   0  0  0  0  0  0  0  0  0  0  0  0
   17.7949  -10.5133  -15.4897 C   0  0  0  0  0  0  0  0  0  0  0  0
   18.3602  -10.5683  -14.3737 O   0  0  0  0  0  0  0  0  0  0  0  0
   18.3172   -9.7348  -16.5512 N   0  0  0  0  0  0  0  0  0  0  0  0
   19.5973   -9.0778  -16.3148 C   0  0  0  0  0  0  0  0  0  0  0  0
   19.4112   -7.8872  -15.4505 C   0  0  0  0  0  0  0  0  0  0  0  0
   18.2895   -7.6532  -14.9556 O   0  0  0  0  0  0  0  0  0  0  0  0
   20.5123   -7.0549  -15.2152 N   0  0  0  0  0  0  0  0  0  0  0  0
   21.8481   -7.2517  -15.7352 C   0  0  0  0  0  0  0  0  0  0  0  0
   22.6748   -7.0341  -14.4640 C   0  0  0  0  0  0  0  0  0  0  0  0
   21.9501   -5.8940  -13.8168 C   0  0  0  0  0  0  0  0  0  0  0  0
   20.5645   -5.8469  -14.4241 C   0  0  1  0  0  0  0  0  0  0  0  0
   20.4397   -4.6423  -15.2875 C   0  0  0  0  0  0  0  0  0  0  0  0
   20.1808   -3.5006  -14.8483 O   0  0  0  0  0  0  0  0  0  0  0  0
   20.6281   -4.8331  -16.6570 O   0  0  0  0  0  0  0  0  0  0  0  0
  1  2  1  0
  3  4  1  6
  3  2  1  0
  5  3  1  0
  6  5  2  0
  7  5  1  0
  8  7  1  0
  9  8  1  0
  9 11  1  0
 10  9  2  0
 11 12  1  0
 13 12  1  0
 14 13  1  0
 15 16  1  6
 15 11  1  0
 15 14  1  0
 16 18  1  0
 17 16  2  0
M  END
$$$$
