CWR.pdb
     RDKit          3D

 32 33  0  0  1  0  0  0  0  0999 V2000
    4.8175  -18.9910   21.8071 N   0  0  0  0  0  0  0  0  0  0  0  0
    5.9325  -19.1857   22.6762 C   0  0  1  0  0  0  0  0  0  0  0  0
    6.6933  -20.4596   22.3831 C   0  0  0  0  0  0  0  0  0  0  0  0
    7.6935  -20.3471   20.8946 S   0  0  0  0  0  0  0  0  0  0  0  0
    6.8135  -17.9969   22.6325 C   0  0  0  0  0  0  0  0  0  0  0  0
    6.9242  -17.2882   21.6082 O   0  0  0  0  0  0  0  0  0  0  0  0
    7.5614  -17.6387   23.7818 N   0  0  0  0  0  0  0  0  0  0  0  0
    8.5404  -16.6262   23.8652 C   0  0  1  0  0  0  0  0  0  0  0  0
    8.6915  -15.9163   25.1961 C   0  0  0  0  0  0  0  0  0  0  0  0
    7.4620  -15.1681   25.5486 C   0  0  0  0  0  0  0  0  0  0  0  0
    6.2245  -15.6246   25.8829 C   0  0  0  0  0  0  0  0  0  0  0  0
    5.4054  -14.5774   26.1325 N   0  0  0  0  0  0  0  0  0  0  0  0
    6.0629  -13.4244   25.9750 C   0  0  0  0  0  0  0  0  0  0  0  0
    5.7177  -12.0996   26.1043 C   0  0  0  0  0  0  0  0  0  0  0  0
    6.6771  -11.1416   25.8644 C   0  0  0  0  0  0  0  0  0  0  0  0
    7.9570  -11.4868   25.5028 C   0  0  0  0  0  0  0  0  0  0  0  0
    8.3236  -12.8294   25.3669 C   0  0  0  0  0  0  0  0  0  0  0  0
    7.3446  -13.7697   25.6120 C   0  0  0  0  0  0  0  0  0  0  0  0
    9.8517  -16.8832   23.3019 C   0  0  0  0  0  0  0  0  0  0  0  0
   10.4007  -17.9916   23.6266 O   0  0  0  0  0  0  0  0  0  0  0  0
    8.3568  -14.2264   17.9954 N   0  0  0  0  0  0  0  0  0  0  0  0
    9.2075  -13.1824   18.4297 C   0  0  0  0  0  0  0  0  0  0  0  0
    8.7295  -11.9749   18.5737 N   0  0  0  0  0  0  0  0  0  0  0  0
   10.5847  -13.3697   18.7265 N   0  0  0  0  0  0  0  0  0  0  0  0
   11.2795  -14.6099   18.4270 C   0  0  0  0  0  0  0  0  0  0  0  0
   10.9942  -15.5990   19.5617 C   0  0  0  0  0  0  0  0  0  0  0  0
   12.0727  -15.5486   20.5985 C   0  0  0  0  0  0  0  0  0  0  0  0
   11.7949  -16.4655   21.7349 C   0  0  2  0  0  0  0  0  0  0  0  0
   10.5744  -16.0496   22.4450 N   0  0  0  0  0  0  0  0  0  0  0  0
   12.9240  -16.5394   22.6565 C   0  0  0  0  0  0  0  0  0  0  0  0
   12.8745  -16.2494   23.9954 O   0  0  0  0  0  0  0  0  0  0  0  0
   14.0628  -16.8980   22.2034 O   0  0  0  0  0  0  0  0  0  0  0  0
  2  3  1  0
  2  1  1  6
  3  4  1  0
  5  2  1  0
  6  5  2  0
  7  5  1  0
  8  7  1  0
  9 10  1  0
  8  9  1  1
 10 11  2  0
 11 12  1  0
 13 14  2  0
 13 12  1  0
 15 14  1  0
 16 15  2  0
 17 16  1  0
 17 18  2  0
 18 10  1  0
 18 13  1  0
 19  8  1  0
 19 29  1  0
 20 19  2  0
 22 21  1  0
 23 22  2  0
 24 22  1  0
 25 26  1  0
 25 24  1  0
 26 27  1  0
 28 27  1  6
 28 29  1  0
 28 30  1  0
 30 32  2  0
 30 31  1  0
M  END
$$$$
