CWR.pdb
     RDKit          3D

 32 33  0  0  1  0  0  0  0  0999 V2000
    6.3705  -16.0788   20.2572 N   0  0  0  0  0  0  0  0  0  0  0  0
    6.6233  -16.9182   21.3832 C   0  0  1  0  0  0  0  0  0  0  0  0
    6.7340  -18.3811   21.0154 C   0  0  0  0  0  0  0  0  0  0  0  0
    7.9782  -19.2494   21.9780 S   0  0  0  0  0  0  0  0  0  0  0  0
    7.8252  -16.4399   22.1029 C   0  0  0  0  0  0  0  0  0  0  0  0
    8.7658  -15.8614   21.5160 O   0  0  0  0  0  0  0  0  0  0  0  0
    7.9264  -16.6374   23.5027 N   0  0  0  0  0  0  0  0  0  0  0  0
    9.0459  -16.3524   24.3127 C   0  0  1  0  0  0  0  0  0  0  0  0
    8.7763  -15.9254   25.7420 C   0  0  0  0  0  0  0  0  0  0  0  0
    7.5708  -15.0682   25.8285 C   0  0  0  0  0  0  0  0  0  0  0  0
    6.2529  -15.4070   25.8234 C   0  0  0  0  0  0  0  0  0  0  0  0
    5.4958  -14.2910   25.9280 N   0  0  0  0  0  0  0  0  0  0  0  0
    6.2733  -13.2066   26.0046 C   0  0  0  0  0  0  0  0  0  0  0  0
    6.0282  -11.8589   26.1249 C   0  0  0  0  0  0  0  0  0  0  0  0
    7.0998  -10.9963   26.1837 C   0  0  0  0  0  0  0  0  0  0  0  0
    8.3928  -11.4577   26.1248 C   0  0  0  0  0  0  0  0  0  0  0  0
    8.6586  -12.8251   26.0023 C   0  0  0  0  0  0  0  0  0  0  0  0
    7.5684  -13.6683   25.9449 C   0  0  0  0  0  0  0  0  0  0  0  0
   10.1714  -17.2664   24.2844 C   0  0  0  0  0  0  0  0  0  0  0  0
   10.0124  -18.3801   24.8923 O   0  0  0  0  0  0  0  0  0  0  0  0
   12.5838  -14.9827   18.4147 N   0  0  0  0  0  0  0  0  0  0  0  0
   13.9069  -14.9936   18.9164 C   0  0  0  0  0  0  0  0  0  0  0  0
   14.7102  -13.9991   18.6464 N   0  0  0  0  0  0  0  0  0  0  0  0
   14.4302  -16.0456   19.7159 N   0  0  0  0  0  0  0  0  0  0  0  0
   13.6182  -17.1732   20.1399 C   0  0  0  0  0  0  0  0  0  0  0  0
   13.1875  -16.9286   21.5898 C   0  0  0  0  0  0  0  0  0  0  0  0
   13.0800  -18.2191   22.3405 C   0  0  0  0  0  0  0  0  0  0  0  0
   12.5144  -18.0254   23.7013 C   0  0  2  0  0  0  0  0  0  0  0  0
   11.4058  -17.0577   23.6646 N   0  0  0  0  0  0  0  0  0  0  0  0
   13.5348  -17.5998   24.6538 C   0  0  0  0  0  0  0  0  0  0  0  0
   14.6313  -18.3356   25.0222 O   0  0  0  0  0  0  0  0  0  0  0  0
   13.4188  -16.4541   25.2057 O   0  0  0  0  0  0  0  0  0  0  0  0
  2  3  1  0
  2  1  1  6
  3  4  1  0
  5  2  1  0
  6  5  2  0
  7  5  1  0
  8  7  1  0
  9 10  1  0
  8  9  1  1
 10 11  2  0
 11 12  1  0
 13 14  2  0
 13 12  1  0
 15 14  1  0
 16 15  2  0
 17 16  1  0
 17 18  2  0
 18 10  1  0
 18 13  1  0
 19  8  1  0
 19 29  1  0
 20 19  2  0
 22 21  1  0
 23 22  2  0
 24 22  1  0
 25 26  1  0
 25 24  1  0
 26 27  1  0
 28 27  1  6
 28 29  1  0
 28 30  1  0
 30 32  2  0
 30 31  1  0
M  END
$$$$
