CWR.pdb
     RDKit          3D

 32 33  0  0  1  0  0  0  0  0999 V2000
    9.1148  -13.4232   17.9931 N   0  0  0  0  0  0  0  0  0  0  0  0
    8.4240  -14.4911   18.6402 C   0  0  1  0  0  0  0  0  0  0  0  0
    8.7270  -15.8430   18.0335 C   0  0  0  0  0  0  0  0  0  0  0  0
    9.4645  -15.7238   16.3993 S   0  0  0  0  0  0  0  0  0  0  0  0
    8.7103  -14.4637   20.0923 C   0  0  0  0  0  0  0  0  0  0  0  0
    9.8520  -14.2208   20.5408 O   0  0  0  0  0  0  0  0  0  0  0  0
    7.6657  -14.7192   21.0156 N   0  0  0  0  0  0  0  0  0  0  0  0
    7.8082  -14.9758   22.3956 C   0  0  1  0  0  0  0  0  0  0  0  0
    6.5390  -15.0509   23.2211 C   0  0  0  0  0  0  0  0  0  0  0  0
    6.8400  -15.0373   24.6719 C   0  0  0  0  0  0  0  0  0  0  0  0
    7.0975  -16.0676   25.5227 C   0  0  0  0  0  0  0  0  0  0  0  0
    7.3241  -15.5852   26.7659 N   0  0  0  0  0  0  0  0  0  0  0  0
    7.2263  -14.2522   26.7729 C   0  0  0  0  0  0  0  0  0  0  0  0
    7.3643  -13.2868   27.7424 C   0  0  0  0  0  0  0  0  0  0  0  0
    7.1965  -11.9670   27.3875 C   0  0  0  0  0  0  0  0  0  0  0  0
    6.8975  -11.6068   26.0956 C   0  0  0  0  0  0  0  0  0  0  0  0
    6.7537  -12.5765   25.0985 C   0  0  0  0  0  0  0  0  0  0  0  0
    6.9260  -13.8911   25.4793 C   0  0  0  0  0  0  0  0  0  0  0  0
    8.7209  -16.0220   22.8144 C   0  0  0  0  0  0  0  0  0  0  0  0
    8.5987  -17.1501   22.2249 O   0  0  0  0  0  0  0  0  0  0  0  0
   14.3066  -14.4783   19.0610 N   0  0  0  0  0  0  0  0  0  0  0  0
   14.9541  -14.9192   20.2394 C   0  0  0  0  0  0  0  0  0  0  0  0
   16.1539  -14.4850   20.5204 N   0  0  0  0  0  0  0  0  0  0  0  0
   14.3660  -15.8284   21.1600 N   0  0  0  0  0  0  0  0  0  0  0  0
   12.9954  -16.2905   21.0235 C   0  0  0  0  0  0  0  0  0  0  0  0
   12.2701  -16.0201   22.3458 C   0  0  0  0  0  0  0  0  0  0  0  0
   11.5091  -17.2283   22.7947 C   0  0  0  0  0  0  0  0  0  0  0  0
   10.7288  -16.9658   24.0323 C   0  0  2  0  0  0  0  0  0  0  0  0
    9.7155  -15.9258   23.7907 N   0  0  0  0  0  0  0  0  0  0  0  0
   11.5941  -16.5895   25.1455 C   0  0  0  0  0  0  0  0  0  0  0  0
   12.5469  -17.3935   25.7157 O   0  0  0  0  0  0  0  0  0  0  0  0
   11.4719  -15.4227   25.6499 O   0  0  0  0  0  0  0  0  0  0  0  0
  2  3  1  0
  2  1  1  6
  3  4  1  0
  5  2  1  0
  6  5  2  0
  7  5  1  0
  8  7  1  0
  9 10  1  0
  8  9  1  6
 10 11  2  0
 11 12  1  0
 13 14  2  0
 13 12  1  0
 15 14  1  0
 16 15  2  0
 17 16  1  0
 17 18  2  0
 18 10  1  0
 18 13  1  0
 19  8  1  0
 19 29  1  0
 20 19  2  0
 22 21  1  0
 23 22  2  0
 24 22  1  0
 25 26  1  0
 25 24  1  0
 26 27  1  0
 28 27  1  6
 28 29  1  0
 28 30  1  0
 30 32  2  0
 30 31  1  0
M  END
$$$$
