CWR.pdb
     RDKit          3D

 32 33  0  0  1  0  0  0  0  0999 V2000
    7.7210  -13.1164   17.4494 N   0  0  0  0  0  0  0  0  0  0  0  0
    7.6623  -14.4291   18.0059 C   0  0  1  0  0  0  0  0  0  0  0  0
    8.2431  -15.4842   17.0909 C   0  0  0  0  0  0  0  0  0  0  0  0
    9.6754  -14.9011   16.1759 S   0  0  0  0  0  0  0  0  0  0  0  0
    8.3117  -14.4372   19.3361 C   0  0  0  0  0  0  0  0  0  0  0  0
    9.2593  -13.6717   19.6184 O   0  0  0  0  0  0  0  0  0  0  0  0
    7.8547  -15.3367   20.3315 N   0  0  0  0  0  0  0  0  0  0  0  0
    8.3243  -15.4305   21.6586 C   0  0  1  0  0  0  0  0  0  0  0  0
    7.2847  -15.5671   22.7535 C   0  0  0  0  0  0  0  0  0  0  0  0
    7.0381  -14.2695   23.4251 C   0  0  0  0  0  0  0  0  0  0  0  0
    6.3846  -13.1625   22.9788 C   0  0  0  0  0  0  0  0  0  0  0  0
    6.3990  -12.2083   23.9374 N   0  0  0  0  0  0  0  0  0  0  0  0
    7.0469  -12.6470   25.0210 C   0  0  0  0  0  0  0  0  0  0  0  0
    7.3405  -12.1002   26.2481 C   0  0  0  0  0  0  0  0  0  0  0  0
    8.0411  -12.8599   27.1581 C   0  0  0  0  0  0  0  0  0  0  0  0
    8.4451  -14.1391   26.8605 C   0  0  0  0  0  0  0  0  0  0  0  0
    8.1545  -14.7092   25.6172 C   0  0  0  0  0  0  0  0  0  0  0  0
    7.4523  -13.9279   24.7232 C   0  0  0  0  0  0  0  0  0  0  0  0
    9.4399  -16.3141   21.9371 C   0  0  0  0  0  0  0  0  0  0  0  0
    9.2455  -17.5588   21.7177 O   0  0  0  0  0  0  0  0  0  0  0  0
    9.9721  -14.9444   28.6020 N   0  0  0  0  0  0  0  0  0  0  0  0
   10.6205  -16.1779   28.8475 C   0  0  0  0  0  0  0  0  0  0  0  0
   10.1679  -16.9733   29.7801 N   0  0  0  0  0  0  0  0  0  0  0  0
   11.7628  -16.6170   28.1248 N   0  0  0  0  0  0  0  0  0  0  0  0
   12.3516  -15.8301   27.0548 C   0  0  0  0  0  0  0  0  0  0  0  0
   12.2818  -16.6555   25.7658 C   0  0  0  0  0  0  0  0  0  0  0  0
   11.4861  -15.9428   24.7172 C   0  0  0  0  0  0  0  0  0  0  0  0
   11.4362  -16.7060   23.4427 C   0  0  2  0  0  0  0  0  0  0  0  0
   10.6995  -15.9485   22.4180 N   0  0  0  0  0  0  0  0  0  0  0  0
   10.8440  -18.0269   23.6282 C   0  0  0  0  0  0  0  0  0  0  0  0
    9.5176  -18.2738   23.8707 O   0  0  0  0  0  0  0  0  0  0  0  0
   11.6021  -19.0527   23.5673 O   0  0  0  0  0  0  0  0  0  0  0  0
  2  3  1  0
  2  1  1  6
  3  4  1  0
  5  2  1  0
  6  5  2  0
  7  5  1  0
  8  7  1  0
  9 10  1  0
  8  9  1  1
 10 11  2  0
 11 12  1  0
 13 14  2  0
 13 12  1  0
 15 14  1  0
 16 15  2  0
 17 16  1  0
 17 18  2  0
 18 10  1  0
 18 13  1  0
 19  8  1  0
 19 29  1  0
 20 19  2  0
 22 21  1  0
 23 22  2  0
 24 22  1  0
 25 26  1  0
 25 24  1  0
 26 27  1  0
 28 27  1  1
 28 29  1  0
 28 30  1  0
 30 32  2  0
 30 31  1  0
M  END
$$$$
