CWR.pdb
     RDKit          3D

 32 33  0  0  1  0  0  0  0  0999 V2000
    6.2854  -15.0869   20.0249 N   0  0  0  0  0  0  0  0  0  0  0  0
    6.5351  -16.1780   20.9100 C   0  0  1  0  0  0  0  0  0  0  0  0
    6.6701  -17.5018   20.1909 C   0  0  0  0  0  0  0  0  0  0  0  0
    7.0334  -18.8652   21.3035 S   0  0  0  0  0  0  0  0  0  0  0  0
    7.7213  -15.8826   21.7449 C   0  0  0  0  0  0  0  0  0  0  0  0
    8.7057  -15.2511   21.3023 O   0  0  0  0  0  0  0  0  0  0  0  0
    7.7557  -16.3237   23.0914 N   0  0  0  0  0  0  0  0  0  0  0  0
    8.7932  -16.1028   24.0216 C   0  0  1  0  0  0  0  0  0  0  0  0
    8.4002  -15.9722   25.4798 C   0  0  0  0  0  0  0  0  0  0  0  0
    7.2827  -15.0145   25.6515 C   0  0  0  0  0  0  0  0  0  0  0  0
    5.9426  -15.2372   25.7300 C   0  0  0  0  0  0  0  0  0  0  0  0
    5.2947  -14.0609   25.8924 N   0  0  0  0  0  0  0  0  0  0  0  0
    6.1678  -13.0495   25.9262 C   0  0  0  0  0  0  0  0  0  0  0  0
    6.0502  -11.6872   26.0725 C   0  0  0  0  0  0  0  0  0  0  0  0
    7.1950  -10.9221   26.0676 C   0  0  0  0  0  0  0  0  0  0  0  0
    8.4359  -11.4936   25.9207 C   0  0  0  0  0  0  0  0  0  0  0  0
    8.5722  -12.8772   25.7708 C   0  0  0  0  0  0  0  0  0  0  0  0
    7.4107  -13.6214   25.7784 C   0  0  0  0  0  0  0  0  0  0  0  0
    9.9999  -16.9000   23.9148 C   0  0  0  0  0  0  0  0  0  0  0  0
    9.9153  -18.1124   24.3126 O   0  0  0  0  0  0  0  0  0  0  0  0
   17.3604  -18.7184   22.7627 N   0  0  0  0  0  0  0  0  0  0  0  0
   17.4941  -18.4218   21.3857 C   0  0  0  0  0  0  0  0  0  0  0  0
   18.6817  -18.3935   20.8415 N   0  0  0  0  0  0  0  0  0  0  0  0
   16.3892  -18.1454   20.5355 N   0  0  0  0  0  0  0  0  0  0  0  0
   15.3939  -17.1386   20.8620 C   0  0  0  0  0  0  0  0  0  0  0  0
   14.5003  -17.6986   21.9735 C   0  0  0  0  0  0  0  0  0  0  0  0
   13.3043  -16.8246   22.1891 C   0  0  0  0  0  0  0  0  0  0  0  0
   12.3812  -17.3872   23.2092 C   0  0  2  0  0  0  0  0  0  0  0  0
   11.2398  -16.4830   23.4245 N   0  0  0  0  0  0  0  0  0  0  0  0
   13.0679  -17.6545   24.4688 C   0  0  0  0  0  0  0  0  0  0  0  0
   13.8216  -18.7671   24.7400 O   0  0  0  0  0  0  0  0  0  0  0  0
   12.9725  -16.7997   25.4126 O   0  0  0  0  0  0  0  0  0  0  0  0
  2  3  1  0
  2  1  1  6
  3  4  1  0
  5  2  1  0
  6  5  2  0
  7  5  1  0
  8  7  1  0
  9 10  1  0
  8  9  1  1
 10 11  2  0
 11 12  1  0
 13 14  2  0
 13 12  1  0
 15 14  1  0
 16 15  2  0
 17 16  1  0
 17 18  2  0
 18 10  1  0
 18 13  1  0
 19  8  1  0
 19 29  1  0
 20 19  2  0
 22 21  1  0
 23 22  2  0
 24 22  1  0
 25 26  1  0
 25 24  1  0
 26 27  1  0
 28 27  1  6
 28 29  1  0
 28 30  1  0
 30 32  2  0
 30 31  1  0
M  END
$$$$
