CWR.pdb
     RDKit          3D

 32 33  0  0  1  0  0  0  0  0999 V2000
    6.0617  -15.8100   19.8238 N   0  0  0  0  0  0  0  0  0  0  0  0
    6.0846  -16.4960   21.0749 C   0  0  1  0  0  0  0  0  0  0  0  0
    5.8334  -17.9812   20.9378 C   0  0  0  0  0  0  0  0  0  0  0  0
    7.2141  -18.8554   20.1907 S   0  0  0  0  0  0  0  0  0  0  0  0
    7.3587  -16.2164   21.7747 C   0  0  0  0  0  0  0  0  0  0  0  0
    8.3735  -15.8057   21.1703 O   0  0  0  0  0  0  0  0  0  0  0  0
    7.4453  -16.4160   23.1752 N   0  0  0  0  0  0  0  0  0  0  0  0
    8.5892  -16.2338   23.9807 C   0  0  1  0  0  0  0  0  0  0  0  0
    8.3649  -16.0205   25.4646 C   0  0  0  0  0  0  0  0  0  0  0  0
    7.3580  -14.9612   25.7090 C   0  0  0  0  0  0  0  0  0  0  0  0
    6.0052  -15.0489   25.8261 C   0  0  0  0  0  0  0  0  0  0  0  0
    5.4875  -13.8200   26.0528 N   0  0  0  0  0  0  0  0  0  0  0  0
    6.4609  -12.9050   26.0923 C   0  0  0  0  0  0  0  0  0  0  0  0
    6.4891  -11.5446   26.2910 C   0  0  0  0  0  0  0  0  0  0  0  0
    7.7060  -10.9006   26.2736 C   0  0  0  0  0  0  0  0  0  0  0  0
    8.8762  -11.5895   26.0634 C   0  0  0  0  0  0  0  0  0  0  0  0
    8.8642  -12.9728   25.8596 C   0  0  0  0  0  0  0  0  0  0  0  0
    7.6330  -13.5944   25.8810 C   0  0  0  0  0  0  0  0  0  0  0  0
    9.7220  -17.1177   23.7843 C   0  0  0  0  0  0  0  0  0  0  0  0
    9.4786  -18.3718   23.8404 O   0  0  0  0  0  0  0  0  0  0  0  0
   15.4749  -20.0284   18.7021 N   0  0  0  0  0  0  0  0  0  0  0  0
   16.3646  -19.3204   19.5444 C   0  0  0  0  0  0  0  0  0  0  0  0
   17.6068  -19.7118   19.6494 N   0  0  0  0  0  0  0  0  0  0  0  0
   15.9817  -18.1811   20.3029 N   0  0  0  0  0  0  0  0  0  0  0  0
   14.6251  -17.6615   20.2883 C   0  0  0  0  0  0  0  0  0  0  0  0
   13.9109  -18.1656   21.5467 C   0  0  0  0  0  0  0  0  0  0  0  0
   12.8615  -17.1950   21.9907 C   0  0  0  0  0  0  0  0  0  0  0  0
   12.1103  -17.6908   23.1736 C   0  0  2  0  0  0  0  0  0  0  0  0
   11.0457  -16.7432   23.5412 N   0  0  0  0  0  0  0  0  0  0  0  0
   12.9935  -17.9353   24.3094 C   0  0  0  0  0  0  0  0  0  0  0  0
   12.9291  -17.2892   25.5168 O   0  0  0  0  0  0  0  0  0  0  0  0
   13.9114  -18.8155   24.1940 O   0  0  0  0  0  0  0  0  0  0  0  0
  2  3  1  0
  2  1  1  6
  3  4  1  0
  5  2  1  0
  6  5  2  0
  7  5  1  0
  8  7  1  0
  9 10  1  0
  8  9  1  1
 10 11  2  0
 11 12  1  0
 13 14  2  0
 13 12  1  0
 15 14  1  0
 16 15  2  0
 17 16  1  0
 17 18  2  0
 18 10  1  0
 18 13  1  0
 19  8  1  0
 19 29  1  0
 20 19  2  0
 22 21  1  0
 23 22  2  0
 24 22  1  0
 25 26  1  0
 25 24  1  0
 26 27  1  0
 28 27  1  6
 28 29  1  0
 28 30  1  0
 30 32  2  0
 30 31  1  0
M  END
$$$$
