CWR.pdb
     RDKit          3D

 32 33  0  0  1  0  0  0  0  0999 V2000
    6.2563  -15.4953   20.7108 N   0  0  0  0  0  0  0  0  0  0  0  0
    6.4191  -16.4732   21.7372 C   0  0  1  0  0  0  0  0  0  0  0  0
    6.4451  -17.8886   21.2046 C   0  0  0  0  0  0  0  0  0  0  0  0
    6.4145  -19.1245   22.5085 S   0  0  0  0  0  0  0  0  0  0  0  0
    7.6272  -16.1639   22.5348 C   0  0  0  0  0  0  0  0  0  0  0  0
    8.6365  -15.6240   22.0313 O   0  0  0  0  0  0  0  0  0  0  0  0
    7.6544  -16.4845   23.9151 N   0  0  0  0  0  0  0  0  0  0  0  0
    8.7278  -16.2725   24.8059 C   0  0  1  0  0  0  0  0  0  0  0  0
    8.3919  -15.7180   26.1761 C   0  0  0  0  0  0  0  0  0  0  0  0
    7.3418  -14.6760   26.0915 C   0  0  0  0  0  0  0  0  0  0  0  0
    5.9864  -14.7965   26.0910 C   0  0  0  0  0  0  0  0  0  0  0  0
    5.4208  -13.5711   26.0015 N   0  0  0  0  0  0  0  0  0  0  0  0
    6.3643  -12.6262   25.9424 C   0  0  0  0  0  0  0  0  0  0  0  0
    6.3414  -11.2542   25.8515 C   0  0  0  0  0  0  0  0  0  0  0  0
    7.5389  -10.5754   25.8183 C   0  0  0  0  0  0  0  0  0  0  0  0
    8.7396  -11.2412   25.8741 C   0  0  0  0  0  0  0  0  0  0  0  0
    8.7796  -12.6359   25.9664 C   0  0  0  0  0  0  0  0  0  0  0  0
    7.5670  -13.2926   25.9975 C   0  0  0  0  0  0  0  0  0  0  0  0
    9.7340  -17.3086   24.9361 C   0  0  0  0  0  0  0  0  0  0  0  0
    9.3126  -18.4694   25.2681 O   0  0  0  0  0  0  0  0  0  0  0  0
   15.9304  -19.3543   20.3394 N   0  0  0  0  0  0  0  0  0  0  0  0
   15.1394  -18.2800   19.8677 C   0  0  0  0  0  0  0  0  0  0  0  0
   15.1294  -17.9940   18.5928 N   0  0  0  0  0  0  0  0  0  0  0  0
   14.3346  -17.4718   20.7156 N   0  0  0  0  0  0  0  0  0  0  0  0
   14.5254  -17.4306   22.1553 C   0  0  0  0  0  0  0  0  0  0  0  0
   13.2230  -17.8892   22.8194 C   0  0  0  0  0  0  0  0  0  0  0  0
   13.3729  -17.9456   24.3076 C   0  0  0  0  0  0  0  0  0  0  0  0
   12.0845  -18.2460   24.9852 C   0  0  2  0  0  0  0  0  0  0  0  0
   11.1100  -17.1711   24.7372 N   0  0  0  0  0  0  0  0  0  0  0  0
   12.2647  -18.4537   26.4184 C   0  0  0  0  0  0  0  0  0  0  0  0
   12.9417  -19.5005   26.9886 O   0  0  0  0  0  0  0  0  0  0  0  0
   11.7577  -17.6073   27.2292 O   0  0  0  0  0  0  0  0  0  0  0  0
  2  3  1  0
  2  1  1  6
  3  4  1  0
  5  2  1  0
  6  5  2  0
  7  5  1  0
  8  7  1  0
  9 10  1  0
  8  9  1  1
 10 11  2  0
 11 12  1  0
 13 14  2  0
 13 12  1  0
 15 14  1  0
 16 15  2  0
 17 16  1  0
 17 18  2  0
 18 10  1  0
 18 13  1  0
 19  8  1  0
 19 29  1  0
 20 19  2  0
 22 21  1  0
 23 22  2  0
 24 22  1  0
 25 26  1  0
 25 24  1  0
 26 27  1  0
 28 27  1  1
 28 29  1  0
 28 30  1  0
 30 32  2  0
 30 31  1  0
M  END
$$$$
