CWR.pdb
     RDKit          3D

 32 33  0  0  1  0  0  0  0  0999 V2000
    6.6680  -17.1539   21.7297 N   0  0  0  0  0  0  0  0  0  0  0  0
    7.4923  -16.1506   21.1377 C   0  0  1  0  0  0  0  0  0  0  0  0
    6.7293  -14.8934   20.7843 C   0  0  0  0  0  0  0  0  0  0  0  0
    7.6845  -13.7614   19.7671 S   0  0  0  0  0  0  0  0  0  0  0  0
    8.6439  -15.8642   22.0227 C   0  0  0  0  0  0  0  0  0  0  0  0
    9.6804  -15.3029   21.6051 O   0  0  0  0  0  0  0  0  0  0  0  0
    8.5832  -16.2326   23.3900 N   0  0  0  0  0  0  0  0  0  0  0  0
    9.5897  -16.0352   24.3587 C   0  0  1  0  0  0  0  0  0  0  0  0
    9.1439  -15.8777   25.7990 C   0  0  0  0  0  0  0  0  0  0  0  0
    7.8420  -15.1754   25.8847 C   0  0  0  0  0  0  0  0  0  0  0  0
    6.5765  -15.6564   25.7472 C   0  0  0  0  0  0  0  0  0  0  0  0
    5.6871  -14.6505   25.9110 N   0  0  0  0  0  0  0  0  0  0  0  0
    6.3241  -13.5015   26.1568 C   0  0  0  0  0  0  0  0  0  0  0  0
    5.9136  -12.2114   26.3978 C   0  0  0  0  0  0  0  0  0  0  0  0
    6.8695  -11.2467   26.6247 C   0  0  0  0  0  0  0  0  0  0  0  0
    8.2093  -11.5515   26.6138 C   0  0  0  0  0  0  0  0  0  0  0  0
    8.6427  -12.8585   26.3701 C   0  0  0  0  0  0  0  0  0  0  0  0
    7.6661  -13.8063   26.1452 C   0  0  0  0  0  0  0  0  0  0  0  0
   10.7736  -16.8711   24.3069 C   0  0  0  0  0  0  0  0  0  0  0  0
   10.8565  -17.7917   25.1906 O   0  0  0  0  0  0  0  0  0  0  0  0
   16.4351  -14.6776   19.7467 N   0  0  0  0  0  0  0  0  0  0  0  0
   15.1887  -14.3983   19.1378 C   0  0  0  0  0  0  0  0  0  0  0  0
   15.0632  -13.3476   18.3714 N   0  0  0  0  0  0  0  0  0  0  0  0
   14.0351  -15.2098   19.3124 N   0  0  0  0  0  0  0  0  0  0  0  0
   14.1015  -16.5310   19.9129 C   0  0  0  0  0  0  0  0  0  0  0  0
   13.6515  -16.4114   21.3726 C   0  0  0  0  0  0  0  0  0  0  0  0
   13.5735  -17.7588   22.0200 C   0  0  0  0  0  0  0  0  0  0  0  0
   12.9836  -17.6877   23.3825 C   0  0  2  0  0  0  0  0  0  0  0  0
   11.8283  -16.7757   23.3958 N   0  0  0  0  0  0  0  0  0  0  0  0
   13.9706  -17.2791   24.3767 C   0  0  0  0  0  0  0  0  0  0  0  0
   15.0877  -17.9935   24.7246 O   0  0  0  0  0  0  0  0  0  0  0  0
   13.8018  -16.1713   24.9890 O   0  0  0  0  0  0  0  0  0  0  0  0
  2  3  1  0
  2  1  1  1
  3  4  1  0
  5  2  1  0
  6  5  2  0
  7  5  1  0
  8  7  1  0
  9 10  1  0
  8  9  1  1
 10 11  2  0
 11 12  1  0
 13 14  2  0
 13 12  1  0
 15 14  1  0
 16 15  2  0
 17 16  1  0
 17 18  2  0
 18 10  1  0
 18 13  1  0
 19  8  1  0
 19 29  1  0
 20 19  2  0
 22 21  1  0
 23 22  2  0
 24 22  1  0
 25 26  1  0
 25 24  1  0
 26 27  1  0
 28 27  1  6
 28 29  1  0
 28 30  1  0
 30 32  2  0
 30 31  1  0
M  END
$$$$
