CWR.pdb
     RDKit          3D

 32 33  0  0  1  0  0  0  0  0999 V2000
    6.9379  -19.0782   20.1747 N   0  0  0  0  0  0  0  0  0  0  0  0
    8.2886  -18.7265   19.8776 C   0  0  1  0  0  0  0  0  0  0  0  0
    8.5030  -18.3886   18.4190 C   0  0  0  0  0  0  0  0  0  0  0  0
    7.4644  -17.0342   17.8576 S   0  0  0  0  0  0  0  0  0  0  0  0
    8.7253  -17.6263   20.7666 C   0  0  0  0  0  0  0  0  0  0  0  0
    9.9216  -17.2714   20.8475 O   0  0  0  0  0  0  0  0  0  0  0  0
    7.7669  -16.9443   21.5572 N   0  0  0  0  0  0  0  0  0  0  0  0
    8.0167  -15.8776   22.4461 C   0  0  1  0  0  0  0  0  0  0  0  0
    6.8384  -15.0039   22.8286 C   0  0  0  0  0  0  0  0  0  0  0  0
    7.2893  -13.7242   23.4242 C   0  0  0  0  0  0  0  0  0  0  0  0
    7.9903  -12.6985   22.8689 C   0  0  0  0  0  0  0  0  0  0  0  0
    8.1747  -11.7234   23.7880 N   0  0  0  0  0  0  0  0  0  0  0  0
    7.6131  -12.0677   24.9510 C   0  0  0  0  0  0  0  0  0  0  0  0
    7.5039  -11.4591   26.1792 C   0  0  0  0  0  0  0  0  0  0  0  0
    6.8306  -12.1172   27.1839 C   0  0  0  0  0  0  0  0  0  0  0  0
    6.2741  -13.3566   26.9785 C   0  0  0  0  0  0  0  0  0  0  0  0
    6.3766  -13.9888   25.7354 C   0  0  0  0  0  0  0  0  0  0  0  0
    7.0562  -13.3093   24.7459 C   0  0  0  0  0  0  0  0  0  0  0  0
    8.8331  -16.1298   23.6178 C   0  0  0  0  0  0  0  0  0  0  0  0
    8.2273  -16.6039   24.6393 O   0  0  0  0  0  0  0  0  0  0  0  0
   10.4809  -20.4677   28.8336 N   0  0  0  0  0  0  0  0  0  0  0  0
   11.0487  -21.2035   27.7667 C   0  0  0  0  0  0  0  0  0  0  0  0
   10.5847  -22.3908   27.4795 N   0  0  0  0  0  0  0  0  0  0  0  0
   12.1197  -20.7197   26.9674 N   0  0  0  0  0  0  0  0  0  0  0  0
   11.8999  -20.0955   25.6741 C   0  0  0  0  0  0  0  0  0  0  0  0
   11.1630  -18.7722   25.9056 C   0  0  0  0  0  0  0  0  0  0  0  0
   10.8988  -18.0735   24.6085 C   0  0  0  0  0  0  0  0  0  0  0  0
   11.0584  -16.6005   24.7278 C   0  0  2  0  0  0  0  0  0  0  0  0
   10.2067  -15.9096   23.7461 N   0  0  0  0  0  0  0  0  0  0  0  0
   12.4517  -16.1949   24.5729 C   0  0  0  0  0  0  0  0  0  0  0  0
   13.2347  -16.4515   23.4773 O   0  0  0  0  0  0  0  0  0  0  0  0
   13.0116  -15.5500   25.5222 O   0  0  0  0  0  0  0  0  0  0  0  0
  2  3  1  0
  2  1  1  6
  3  4  1  0
  5  2  1  0
  6  5  2  0
  7  5  1  0
  8  7  1  0
  9 10  1  0
  8  9  1  1
 10 11  2  0
 11 12  1  0
 13 14  2  0
 13 12  1  0
 15 14  1  0
 16 15  2  0
 17 16  1  0
 17 18  2  0
 18 10  1  0
 18 13  1  0
 19  8  1  0
 19 29  1  0
 20 19  2  0
 22 21  1  0
 23 22  2  0
 24 22  1  0
 25 26  1  0
 25 24  1  0
 26 27  1  0
 28 27  1  6
 28 29  1  0
 28 30  1  0
 30 32  2  0
 30 31  1  0
M  END
$$$$
