CWR.pdb
     RDKit          3D

 32 33  0  0  1  0  0  0  0  0999 V2000
    8.1348  -12.9762   18.4242 N   0  0  0  0  0  0  0  0  0  0  0  0
    7.3522  -13.9582   19.1021 C   0  0  1  0  0  0  0  0  0  0  0  0
    7.2160  -15.2461   18.3209 C   0  0  0  0  0  0  0  0  0  0  0  0
    8.7579  -16.1625   18.2138 S   0  0  0  0  0  0  0  0  0  0  0  0
    7.9064  -14.1918   20.4548 C   0  0  0  0  0  0  0  0  0  0  0  0
    9.1066  -13.9728   20.7289 O   0  0  0  0  0  0  0  0  0  0  0  0
    7.0603  -14.6793   21.4821 N   0  0  0  0  0  0  0  0  0  0  0  0
    7.4208  -14.9172   22.8252 C   0  0  1  0  0  0  0  0  0  0  0  0
    6.2955  -15.0368   23.8339 C   0  0  0  0  0  0  0  0  0  0  0  0
    6.7826  -14.7994   25.2130 C   0  0  0  0  0  0  0  0  0  0  0  0
    7.2196  -15.6824   26.1516 C   0  0  0  0  0  0  0  0  0  0  0  0
    7.5738  -15.0153   27.2738 N   0  0  0  0  0  0  0  0  0  0  0  0
    7.3864  -13.7018   27.1131 C   0  0  0  0  0  0  0  0  0  0  0  0
    7.5837  -12.6011   27.9135 C   0  0  0  0  0  0  0  0  0  0  0  0
    7.2806  -11.3562   27.4094 C   0  0  0  0  0  0  0  0  0  0  0  0
    6.7906  -11.2010   26.1351 C   0  0  0  0  0  0  0  0  0  0  0  0
    6.5842  -12.3102   25.3089 C   0  0  0  0  0  0  0  0  0  0  0  0
    6.8949  -13.5460   25.8372 C   0  0  0  0  0  0  0  0  0  0  0  0
    8.4295  -15.9212   23.1037 C   0  0  0  0  0  0  0  0  0  0  0  0
    8.1658  -17.1116   22.7181 O   0  0  0  0  0  0  0  0  0  0  0  0
   15.1975  -18.6976   23.3880 N   0  0  0  0  0  0  0  0  0  0  0  0
   15.2208  -18.4766   21.9906 C   0  0  0  0  0  0  0  0  0  0  0  0
   15.9330  -19.2581   21.2230 N   0  0  0  0  0  0  0  0  0  0  0  0
   14.4997  -17.4307   21.3533 N   0  0  0  0  0  0  0  0  0  0  0  0
   13.7028  -16.4728   22.1003 C   0  0  0  0  0  0  0  0  0  0  0  0
   12.8478  -17.2501   23.1065 C   0  0  0  0  0  0  0  0  0  0  0  0
   12.0032  -16.3204   23.9208 C   0  0  0  0  0  0  0  0  0  0  0  0
   10.6044  -16.8069   24.0475 C   0  0  2  0  0  0  0  0  0  0  0  0
    9.6540  -15.7240   23.7465 N   0  0  0  0  0  0  0  0  0  0  0  0
   10.3449  -17.3633   25.3714 C   0  0  0  0  0  0  0  0  0  0  0  0
   10.4259  -18.6910   25.7029 O   0  0  0  0  0  0  0  0  0  0  0  0
   10.0105  -16.5705   26.3150 O   0  0  0  0  0  0  0  0  0  0  0  0
  2  3  1  0
  2  1  1  6
  3  4  1  0
  5  2  1  0
  6  5  2  0
  7  5  1  0
  8  7  1  0
  9 10  1  0
  8  9  1  1
 10 11  2  0
 11 12  1  0
 13 14  2  0
 13 12  1  0
 15 14  1  0
 16 15  2  0
 17 16  1  0
 17 18  2  0
 18 10  1  0
 18 13  1  0
 19  8  1  0
 19 29  1  0
 20 19  2  0
 22 21  1  0
 23 22  2  0
 24 22  1  0
 25 26  1  0
 25 24  1  0
 26 27  1  0
 28 27  1  1
 28 29  1  0
 28 30  1  0
 30 32  2  0
 30 31  1  0
M  END
$$$$
