CWR.pdb
     RDKit          3D

 32 33  0  0  1  0  0  0  0  0999 V2000
    7.1549  -13.6249   20.2495 N   0  0  0  0  0  0  0  0  0  0  0  0
    7.1630  -14.7960   21.0648 C   0  0  1  0  0  0  0  0  0  0  0  0
    7.1918  -16.0757   20.2590 C   0  0  0  0  0  0  0  0  0  0  0  0
    5.5844  -16.5102   19.5838 S   0  0  0  0  0  0  0  0  0  0  0  0
    8.2858  -14.7270   22.0270 C   0  0  0  0  0  0  0  0  0  0  0  0
    9.2519  -13.9492   21.8674 O   0  0  0  0  0  0  0  0  0  0  0  0
    8.2786  -15.5640   23.1708 N   0  0  0  0  0  0  0  0  0  0  0  0
    9.3366  -15.7445   24.0865 C   0  0  1  0  0  0  0  0  0  0  0  0
    9.0323  -15.5077   25.5525 C   0  0  0  0  0  0  0  0  0  0  0  0
    7.7539  -14.7786   25.7249 C   0  0  0  0  0  0  0  0  0  0  0  0
    6.4718  -15.2273   25.6441 C   0  0  0  0  0  0  0  0  0  0  0  0
    5.6167  -14.2060   25.8796 N   0  0  0  0  0  0  0  0  0  0  0  0
    6.2931  -13.0783   26.1184 C   0  0  0  0  0  0  0  0  0  0  0  0
    5.9269  -11.7857   26.4121 C   0  0  0  0  0  0  0  0  0  0  0  0
    6.9163  -10.8488   26.6104 C   0  0  0  0  0  0  0  0  0  0  0  0
    8.2459  -11.1835   26.5201 C   0  0  0  0  0  0  0  0  0  0  0  0
    8.6344  -12.4933   26.2221 C   0  0  0  0  0  0  0  0  0  0  0  0
    7.6249  -13.4128   26.0273 C   0  0  0  0  0  0  0  0  0  0  0  0
   10.1775  -16.9181   23.9499 C   0  0  0  0  0  0  0  0  0  0  0  0
    9.6532  -18.0336   24.2903 O   0  0  0  0  0  0  0  0  0  0  0  0
   16.7133  -14.5572   20.2491 N   0  0  0  0  0  0  0  0  0  0  0  0
   15.4756  -14.7885   19.6035 C   0  0  0  0  0  0  0  0  0  0  0  0
   15.0938  -14.0007   18.6336 N   0  0  0  0  0  0  0  0  0  0  0  0
   14.5992  -15.8513   19.9532 N   0  0  0  0  0  0  0  0  0  0  0  0
   14.8496  -16.7188   21.0913 C   0  0  0  0  0  0  0  0  0  0  0  0
   13.5386  -16.8699   21.8697 C   0  0  0  0  0  0  0  0  0  0  0  0
   13.6795  -17.8828   22.9627 C   0  0  0  0  0  0  0  0  0  0  0  0
   12.4006  -18.0992   23.6886 C   0  0  2  0  0  0  0  0  0  0  0  0
   11.4950  -16.9565   23.4869 N   0  0  0  0  0  0  0  0  0  0  0  0
   12.6216  -18.3330   25.1120 C   0  0  0  0  0  0  0  0  0  0  0  0
   12.2432  -17.4871   26.1223 O   0  0  0  0  0  0  0  0  0  0  0  0
   13.2164  -19.4040   25.4724 O   0  0  0  0  0  0  0  0  0  0  0  0
  2  3  1  0
  2  1  1  6
  3  4  1  0
  5  2  1  0
  6  5  2  0
  7  5  1  0
  8  7  1  0
  9 10  1  0
  8  9  1  1
 10 11  2  0
 11 12  1  0
 13 14  2  0
 13 12  1  0
 15 14  1  0
 16 15  2  0
 17 16  1  0
 17 18  2  0
 18 10  1  0
 18 13  1  0
 19  8  1  0
 19 29  1  0
 20 19  2  0
 22 21  1  0
 23 22  2  0
 24 22  1  0
 25 26  1  0
 25 24  1  0
 26 27  1  0
 28 27  1  6
 28 29  1  0
 28 30  1  0
 30 32  2  0
 30 31  1  0
M  END
$$$$
