CWR.pdb
     RDKit          3D

 32 33  0  0  1  0  0  0  0  0999 V2000
    9.3356  -17.7757   20.5509 N   0  0  0  0  0  0  0  0  0  0  0  0
    8.9530  -16.4024   20.4885 C   0  0  1  0  0  0  0  0  0  0  0  0
    7.6553  -16.1849   19.7426 C   0  0  0  0  0  0  0  0  0  0  0  0
    6.2399  -16.9064   20.5819 S   0  0  0  0  0  0  0  0  0  0  0  0
    8.9032  -15.8352   21.8550 C   0  0  0  0  0  0  0  0  0  0  0  0
    8.5915  -14.6433   22.0696 O   0  0  0  0  0  0  0  0  0  0  0  0
    9.2166  -16.6585   22.9653 N   0  0  0  0  0  0  0  0  0  0  0  0
    9.1286  -16.3014   24.3274 C   0  0  1  0  0  0  0  0  0  0  0  0
    7.7473  -16.0095   24.8794 C   0  0  0  0  0  0  0  0  0  0  0  0
    7.3057  -14.6400   24.5259 C   0  0  0  0  0  0  0  0  0  0  0  0
    7.0038  -14.1028   23.3127 C   0  0  0  0  0  0  0  0  0  0  0  0
    6.6395  -12.8091   23.4659 N   0  0  0  0  0  0  0  0  0  0  0  0
    6.6880  -12.4615   24.7556 C   0  0  0  0  0  0  0  0  0  0  0  0
    6.4214  -11.3025   25.4459 C   0  0  0  0  0  0  0  0  0  0  0  0
    6.5753  -11.2995   26.8142 C   0  0  0  0  0  0  0  0  0  0  0  0
    6.9859  -12.4234   27.4897 C   0  0  0  0  0  0  0  0  0  0  0  0
    7.2611  -13.6096   26.8022 C   0  0  0  0  0  0  0  0  0  0  0  0
    7.1000  -13.5867   25.4324 C   0  0  0  0  0  0  0  0  0  0  0  0
    9.8838  -17.0731   25.2953 C   0  0  0  0  0  0  0  0  0  0  0  0
    9.6680  -16.8046   26.5268 O   0  0  0  0  0  0  0  0  0  0  0  0
    8.1243  -24.2327   26.9783 N   0  0  0  0  0  0  0  0  0  0  0  0
    7.6492  -23.3429   25.9859 C   0  0  0  0  0  0  0  0  0  0  0  0
    6.5015  -23.5731   25.4055 N   0  0  0  0  0  0  0  0  0  0  0  0
    8.3607  -22.1849   25.5701 N   0  0  0  0  0  0  0  0  0  0  0  0
    9.6330  -21.8048   26.1595 C   0  0  0  0  0  0  0  0  0  0  0  0
   10.2300  -20.6768   25.3116 C   0  0  0  0  0  0  0  0  0  0  0  0
   11.5500  -20.2353   25.8624 C   0  0  0  0  0  0  0  0  0  0  0  0
   11.6058  -18.7632   26.0596 C   0  0  2  0  0  0  0  0  0  0  0  0
   10.8185  -18.0752   25.0235 N   0  0  0  0  0  0  0  0  0  0  0  0
   12.9801  -18.2723   26.0693 C   0  0  0  0  0  0  0  0  0  0  0  0
   13.5064  -17.3719   25.1796 O   0  0  0  0  0  0  0  0  0  0  0  0
   13.7788  -18.7034   26.9676 O   0  0  0  0  0  0  0  0  0  0  0  0
  2  3  1  0
  2  1  1  1
  3  4  1  0
  5  2  1  0
  6  5  2  0
  7  5  1  0
  8  7  1  0
  9 10  1  0
  8  9  1  1
 10 11  2  0
 11 12  1  0
 13 14  2  0
 13 12  1  0
 15 14  1  0
 16 15  2  0
 17 16  1  0
 17 18  2  0
 18 10  1  0
 18 13  1  0
 19  8  1  0
 19 29  1  0
 20 19  2  0
 22 21  1  0
 23 22  2  0
 24 22  1  0
 25 26  1  0
 25 24  1  0
 26 27  1  0
 28 27  1  6
 28 29  1  0
 28 30  1  0
 30 32  2  0
 30 31  1  0
M  END
$$$$
