DGM.pdb
     RDKit          3D

 21 20  0  0  1  0  0  0  0  0999 V2000
   20.0505  -10.0200  -18.5769 N   0  0  0  0  0  0  0  0  0  0  0  0
   18.6487   -9.8415  -18.4292 C   0  0  1  0  0  0  0  0  0  0  0  0
   18.1801  -10.7957  -17.3182 C   0  0  0  0  0  0  0  0  0  0  0  0
   18.3642  -12.1887  -17.8205 C   0  0  0  0  0  0  0  0  0  0  0  0
   17.6797  -12.6286  -18.7814 O   0  0  0  0  0  0  0  0  0  0  0  0
   18.3556   -8.4339  -18.0398 C   0  0  0  0  0  0  0  0  0  0  0  0
   17.1604   -8.0556  -17.9534 O   0  0  0  0  0  0  0  0  0  0  0  0
   19.2955  -12.9863  -17.2159 O   0  0  0  0  0  0  0  0  0  0  0  0
   19.4311   -7.5495  -17.7738 N   0  0  0  0  0  0  0  0  0  0  0  0
   19.1163   -6.1817  -17.4226 C   0  0  0  0  0  0  0  0  0  0  0  0
   19.4444   -5.9707  -15.9728 C   0  0  0  0  0  0  0  0  0  0  0  0
   18.5257   -5.8965  -15.1688 O   0  0  0  0  0  0  0  0  0  0  0  0
   22.1408  -11.1445  -14.0496 C   0  0  0  0  0  0  0  0  0  0  0  0
   22.9555   -9.5385  -13.8108 S   0  0  0  0  0  0  0  0  0  0  0  0
   21.7798   -8.2457  -14.2082 C   0  0  0  0  0  0  0  0  0  0  0  0
   22.3400   -6.8884  -14.0386 C   0  0  0  0  0  0  0  0  0  0  0  0
   21.4110   -5.7666  -14.3591 C   0  0  2  0  0  0  0  0  0  0  0  0
   20.7966   -5.8677  -15.6101 N   0  0  0  0  0  0  0  0  0  0  0  0
   22.0354   -4.4553  -13.9947 C   0  0  0  0  0  0  0  0  0  0  0  0
   22.4564   -4.0894  -12.9093 O   0  0  0  0  0  0  0  0  0  0  0  0
   22.1545   -3.5094  -15.0484 O   0  0  0  0  0  0  0  0  0  0  0  0
  2  3  1  0
  2  1  1  1
  3  4  1  0
  4  5  2  0
  4  8  1  0
  6  2  1  0
  7  6  2  0
  9  6  1  0
 10 11  1  0
 10  9  1  0
 11 18  1  0
 12 11  2  0
 13 14  1  0
 14 15  1  0
 15 16  1  0
 17 16  1  6
 18 17  1  0
 19 17  1  0
 20 19  2  0
 21 19  1  0
M  END
$$$$
