DGM.pdb
     RDKit          3D

 21 20  0  0  1  0  0  0  0  0999 V2000
   24.8282  -22.6542  -15.0643 N   0  0  0  0  0  0  0  0  0  0  0  0
   24.7927  -21.3044  -15.5063 C   0  0  1  0  0  0  0  0  0  0  0  0
   23.3720  -21.0300  -16.0266 C   0  0  0  0  0  0  0  0  0  0  0  0
   23.1509  -21.9165  -17.2064 C   0  0  0  0  0  0  0  0  0  0  0  0
   24.0668  -22.1214  -18.0457 O   0  0  0  0  0  0  0  0  0  0  0  0
   25.0970  -20.3910  -14.3696 C   0  0  0  0  0  0  0  0  0  0  0  0
   25.0958  -19.1491  -14.5609 O   0  0  0  0  0  0  0  0  0  0  0  0
   21.9281  -22.5075  -17.3629 O   0  0  0  0  0  0  0  0  0  0  0  0
   25.3811  -20.9414  -13.0944 N   0  0  0  0  0  0  0  0  0  0  0  0
   25.6138  -20.0289  -11.9960 C   0  0  0  0  0  0  0  0  0  0  0  0
   25.8514  -20.8299  -10.7486 C   0  0  0  0  0  0  0  0  0  0  0  0
   25.7851  -22.0495  -10.8138 O   0  0  0  0  0  0  0  0  0  0  0  0
   29.5696  -18.8159   -5.8612 C   0  0  0  0  0  0  0  0  0  0  0  0
   28.0862  -19.2013   -4.8860 S   0  0  0  0  0  0  0  0  0  0  0  0
   26.9803  -20.1770   -5.9040 C   0  0  0  0  0  0  0  0  0  0  0  0
   26.9428  -19.7219   -7.3099 C   0  0  0  0  0  0  0  0  0  0  0  0
   26.0922  -20.5363   -8.2249 C   0  0  2  0  0  0  0  0  0  0  0  0
   26.1385  -20.1356   -9.5628 N   0  0  0  0  0  0  0  0  0  0  0  0
   24.7446  -20.7659   -7.6138 C   0  0  0  0  0  0  0  0  0  0  0  0
   23.6807  -20.2413   -7.9002 O   0  0  0  0  0  0  0  0  0  0  0  0
   24.6938  -21.7190   -6.5610 O   0  0  0  0  0  0  0  0  0  0  0  0
  2  3  1  0
  2  1  1  1
  3  4  1  0
  4  5  2  0
  4  8  1  0
  6  2  1  0
  7  6  2  0
  9  6  1  0
 10 11  1  0
 10  9  1  0
 11 18  1  0
 12 11  2  0
 13 14  1  0
 14 15  1  0
 15 16  1  0
 17 16  1  1
 18 17  1  0
 19 17  1  0
 20 19  2  0
 21 19  1  0
M  END
$$$$
