DGM.pdb
     RDKit          3D

 21 20  0  0  1  0  0  0  0  0999 V2000
   24.4646  -22.3008  -15.7874 N   0  0  0  0  0  0  0  0  0  0  0  0
   23.6053  -21.4592  -15.0311 C   0  0  1  0  0  0  0  0  0  0  0  0
   22.4672  -22.3378  -14.4860 C   0  0  0  0  0  0  0  0  0  0  0  0
   21.7237  -22.8822  -15.6596 C   0  0  0  0  0  0  0  0  0  0  0  0
   20.9697  -22.1464  -16.3491 O   0  0  0  0  0  0  0  0  0  0  0  0
   24.3590  -20.8527  -13.8983 C   0  0  0  0  0  0  0  0  0  0  0  0
   23.7743  -20.0466  -13.1319 O   0  0  0  0  0  0  0  0  0  0  0  0
   21.8753  -24.2033  -15.9769 O   0  0  0  0  0  0  0  0  0  0  0  0
   25.7206  -21.1977  -13.7073 N   0  0  0  0  0  0  0  0  0  0  0  0
   26.4702  -20.4781  -12.7005 C   0  0  0  0  0  0  0  0  0  0  0  0
   26.1290  -21.0438  -11.3523 C   0  0  0  0  0  0  0  0  0  0  0  0
   25.3054  -21.9458  -11.2866 O   0  0  0  0  0  0  0  0  0  0  0  0
   28.3846  -19.7504   -3.8334 C   0  0  0  0  0  0  0  0  0  0  0  0
   28.4207  -19.1363   -5.5426 S   0  0  0  0  0  0  0  0  0  0  0  0
   27.3392  -20.1652   -6.5341 C   0  0  0  0  0  0  0  0  0  0  0  0
   27.4285  -19.8666   -7.9790 C   0  0  0  0  0  0  0  0  0  0  0  0
   26.5605  -20.6994   -8.8607 C   0  0  2  0  0  0  0  0  0  0  0  0
   26.7749  -20.5061  -10.2279 N   0  0  0  0  0  0  0  0  0  0  0  0
   25.1466  -20.6767   -8.3681 C   0  0  0  0  0  0  0  0  0  0  0  0
   24.2168  -19.9894   -8.7581 O   0  0  0  0  0  0  0  0  0  0  0  0
   24.8439  -21.5715   -7.3065 O   0  0  0  0  0  0  0  0  0  0  0  0
  2  3  1  0
  2  1  1  1
  3  4  1  0
  4  5  2  0
  4  8  1  0
  6  2  1  0
  7  6  2  0
  9  6  1  0
 10 11  1  0
 10  9  1  0
 11 18  1  0
 12 11  2  0
 13 14  1  0
 14 15  1  0
 15 16  1  0
 17 16  1  1
 18 17  1  0
 19 17  1  0
 20 19  2  0
 21 19  1  0
M  END
$$$$
