DGM.pdb
     RDKit          3D

 21 20  0  0  1  0  0  0  0  0999 V2000
   22.4333  -10.7124  -20.2728 N   0  0  0  0  0  0  0  0  0  0  0  0
   22.3667  -11.6658  -19.2215 C   0  0  1  0  0  0  0  0  0  0  0  0
   23.7579  -11.7262  -18.5693 C   0  0  0  0  0  0  0  0  0  0  0  0
   24.6847  -12.3559  -19.5547 C   0  0  0  0  0  0  0  0  0  0  0  0
   25.3506  -11.6540  -20.3606 O   0  0  0  0  0  0  0  0  0  0  0  0
   21.3569  -11.2383  -18.2133 C   0  0  0  0  0  0  0  0  0  0  0  0
   21.1271  -11.9753  -17.2219 O   0  0  0  0  0  0  0  0  0  0  0  0
   24.8004  -13.7180  -19.5689 O   0  0  0  0  0  0  0  0  0  0  0  0
   20.6758  -10.0079  -18.3923 N   0  0  0  0  0  0  0  0  0  0  0  0
   19.5996   -9.6869  -17.4802 C   0  0  0  0  0  0  0  0  0  0  0  0
   20.1289   -8.7680  -16.4175 C   0  0  0  0  0  0  0  0  0  0  0  0
   19.3802   -8.4252  -15.5131 O   0  0  0  0  0  0  0  0  0  0  0  0
   25.8894  -11.3812  -14.6606 C   0  0  0  0  0  0  0  0  0  0  0  0
   25.6939   -9.6578  -15.2009 S   0  0  0  0  0  0  0  0  0  0  0  0
   23.9524   -9.2409  -15.1355 C   0  0  0  0  0  0  0  0  0  0  0  0
   23.6708   -7.8733  -15.6208 C   0  0  0  0  0  0  0  0  0  0  0  0
   22.2277   -7.5055  -15.7003 C   0  0  2  0  0  0  0  0  0  0  0  0
   21.4639   -8.3450  -16.5155 N   0  0  0  0  0  0  0  0  0  0  0  0
   22.0784   -6.0277  -15.8898 C   0  0  0  0  0  0  0  0  0  0  0  0
   21.4731   -5.4309  -16.7654 O   0  0  0  0  0  0  0  0  0  0  0  0
   22.7257   -5.2089  -14.9256 O   0  0  0  0  0  0  0  0  0  0  0  0
  2  3  1  0
  2  1  1  6
  3  4  1  0
  4  5  2  0
  4  8  1  0
  6  2  1  0
  7  6  2  0
  9  6  1  0
 10 11  1  0
 10  9  1  0
 11 18  1  0
 12 11  2  0
 13 14  1  0
 14 15  1  0
 15 16  1  0
 17 16  1  6
 18 17  1  0
 19 17  1  0
 20 19  2  0
 21 19  1  0
M  END
$$$$
