DGM.pdb
     RDKit          3D

 21 20  0  0  1  0  0  0  0  0999 V2000
   23.5206  -19.1552  -12.7911 N   0  0  0  0  0  0  0  0  0  0  0  0
   23.6396  -20.4525  -13.3582 C   0  0  1  0  0  0  0  0  0  0  0  0
   23.4581  -20.3062  -14.8781 C   0  0  0  0  0  0  0  0  0  0  0  0
   22.0705  -19.8115  -15.1154 C   0  0  0  0  0  0  0  0  0  0  0  0
   21.1517  -20.0298  -14.2825 O   0  0  0  0  0  0  0  0  0  0  0  0
   24.9885  -21.0119  -13.0644 C   0  0  0  0  0  0  0  0  0  0  0  0
   25.1543  -22.2574  -13.0777 O   0  0  0  0  0  0  0  0  0  0  0  0
   21.8102  -19.1120  -16.2607 O   0  0  0  0  0  0  0  0  0  0  0  0
   26.0585  -20.1276  -12.7765 N   0  0  0  0  0  0  0  0  0  0  0  0
   27.3729  -20.6952  -12.5677 C   0  0  0  0  0  0  0  0  0  0  0  0
   27.4662  -21.1813  -11.1503 C   0  0  0  0  0  0  0  0  0  0  0  0
   28.3943  -21.9162  -10.8426 O   0  0  0  0  0  0  0  0  0  0  0  0
   28.2720  -18.8481   -4.1356 C   0  0  0  0  0  0  0  0  0  0  0  0
   28.2033  -18.5441   -5.9253 S   0  0  0  0  0  0  0  0  0  0  0  0
   27.2376  -19.8502   -6.6821 C   0  0  0  0  0  0  0  0  0  0  0  0
   27.2432  -19.7864   -8.1589 C   0  0  0  0  0  0  0  0  0  0  0  0
   26.4233  -20.8238   -8.8486 C   0  0  2  0  0  0  0  0  0  0  0  0
   26.4778  -20.7668  -10.2437 N   0  0  0  0  0  0  0  0  0  0  0  0
   25.0735  -20.9286   -8.2088 C   0  0  0  0  0  0  0  0  0  0  0  0
   23.9829  -20.6626   -8.6873 O   0  0  0  0  0  0  0  0  0  0  0  0
   25.0561  -21.3985   -6.8679 O   0  0  0  0  0  0  0  0  0  0  0  0
  2  3  1  0
  2  1  1  1
  3  4  1  0
  4  5  2  0
  4  8  1  0
  6  2  1  0
  7  6  2  0
  9  6  1  0
 10 11  1  0
 10  9  1  0
 11 18  1  0
 12 11  2  0
 13 14  1  0
 14 15  1  0
 15 16  1  0
 17 16  1  1
 18 17  1  0
 19 17  1  0
 20 19  2  0
 21 19  1  0
M  END
$$$$
