DGM.pdb
     RDKit          3D

 21 20  0  0  1  0  0  0  0  0999 V2000
   23.5609  -20.0444  -15.5163 N   0  0  0  0  0  0  0  0  0  0  0  0
   24.8833  -19.8003  -15.9751 C   0  0  1  0  0  0  0  0  0  0  0  0
   24.9408  -18.3390  -16.4500 C   0  0  0  0  0  0  0  0  0  0  0  0
   25.3834  -18.3510  -17.8750 C   0  0  0  0  0  0  0  0  0  0  0  0
   25.5594  -19.4347  -18.4915 O   0  0  0  0  0  0  0  0  0  0  0  0
   25.8515  -20.0057  -14.8619 C   0  0  0  0  0  0  0  0  0  0  0  0
   26.7830  -20.8373  -15.0023 O   0  0  0  0  0  0  0  0  0  0  0  0
   25.5966  -17.1570  -18.5057 O   0  0  0  0  0  0  0  0  0  0  0  0
   25.7031  -19.2582  -13.6666 N   0  0  0  0  0  0  0  0  0  0  0  0
   26.6958  -19.4310  -12.6282 C   0  0  0  0  0  0  0  0  0  0  0  0
   26.0574  -20.1356  -11.4663 C   0  0  0  0  0  0  0  0  0  0  0  0
   24.8618  -20.3882  -11.5191 O   0  0  0  0  0  0  0  0  0  0  0  0
   27.9453  -19.8790   -3.8368 C   0  0  0  0  0  0  0  0  0  0  0  0
   28.3721  -19.4483   -5.5493 S   0  0  0  0  0  0  0  0  0  0  0  0
   27.1670  -20.2058   -6.6379 C   0  0  0  0  0  0  0  0  0  0  0  0
   27.5284  -20.0860   -8.0662 C   0  0  0  0  0  0  0  0  0  0  0  0
   26.5584  -20.6883   -9.0257 C   0  0  2  0  0  0  0  0  0  0  0  0
   26.8686  -20.4706  -10.3706 N   0  0  0  0  0  0  0  0  0  0  0  0
   25.1539  -20.4170   -8.5829 C   0  0  0  0  0  0  0  0  0  0  0  0
   24.5022  -19.3929   -8.7072 O   0  0  0  0  0  0  0  0  0  0  0  0
   24.4893  -21.4909   -7.9314 O   0  0  0  0  0  0  0  0  0  0  0  0
  2  3  1  0
  2  1  1  1
  3  4  1  0
  4  5  2  0
  4  8  1  0
  6  2  1  0
  7  6  2  0
  9  6  1  0
 10 11  1  0
 10  9  1  0
 11 18  1  0
 12 11  2  0
 13 14  1  0
 14 15  1  0
 15 16  1  0
 17 16  1  1
 18 17  1  0
 19 17  1  0
 20 19  2  0
 21 19  1  0
M  END
$$$$
