DGM.pdb
     RDKit          3D

 21 20  0  0  1  0  0  0  0  0999 V2000
   22.9491  -21.0336  -14.8435 N   0  0  0  0  0  0  0  0  0  0  0  0
   22.5454  -20.3212  -13.6824 C   0  0  1  0  0  0  0  0  0  0  0  0
   21.0776  -20.6879  -13.4073 C   0  0  0  0  0  0  0  0  0  0  0  0
   20.2510  -20.0430  -14.4691 C   0  0  0  0  0  0  0  0  0  0  0  0
   19.6194  -20.7348  -15.3105 O   0  0  0  0  0  0  0  0  0  0  0  0
   23.3898  -20.7227  -12.5228 C   0  0  0  0  0  0  0  0  0  0  0  0
   23.1794  -20.2015  -11.3989 O   0  0  0  0  0  0  0  0  0  0  0  0
   20.1899  -18.6781  -14.5144 O   0  0  0  0  0  0  0  0  0  0  0  0
   24.4133  -21.6854  -12.7103 N   0  0  0  0  0  0  0  0  0  0  0  0
   25.1430  -22.1384  -11.5460 C   0  0  0  0  0  0  0  0  0  0  0  0
   26.1817  -21.1110  -11.2007 C   0  0  0  0  0  0  0  0  0  0  0  0
   26.8592  -20.6368  -12.1019 O   0  0  0  0  0  0  0  0  0  0  0  0
   29.4495  -19.2400   -4.1873 C   0  0  0  0  0  0  0  0  0  0  0  0
   28.0297  -19.9709   -5.0533 S   0  0  0  0  0  0  0  0  0  0  0  0
   28.3870  -19.9849   -6.8093 C   0  0  0  0  0  0  0  0  0  0  0  0
   27.2366  -20.4266   -7.6257 C   0  0  0  0  0  0  0  0  0  0  0  0
   27.4577  -20.4222   -9.1005 C   0  0  2  0  0  0  0  0  0  0  0  0
   26.3254  -20.7441   -9.8533 N   0  0  0  0  0  0  0  0  0  0  0  0
   28.7380  -21.1228   -9.4356 C   0  0  0  0  0  0  0  0  0  0  0  0
   28.9594  -22.3221   -9.4789 O   0  0  0  0  0  0  0  0  0  0  0  0
   29.8432  -20.2844   -9.7435 O   0  0  0  0  0  0  0  0  0  0  0  0
  2  3  1  0
  2  1  1  6
  3  4  1  0
  4  5  2  0
  4  8  1  0
  6  2  1  0
  7  6  2  0
  9  6  1  0
 10 11  1  0
 10  9  1  0
 11 18  1  0
 12 11  2  0
 13 14  1  0
 14 15  1  0
 15 16  1  0
 17 16  1  1
 18 17  1  0
 19 17  1  0
 20 19  2  0
 21 19  1  0
M  END
$$$$
