DGM.pdb
     RDKit          3D

 21 20  0  0  1  0  0  0  0  0999 V2000
   19.6490   -7.0052  -16.9414 N   0  0  0  0  0  0  0  0  0  0  0  0
   19.9011   -6.4138  -15.6743 C   0  0  1  0  0  0  0  0  0  0  0  0
   19.0122   -7.1348  -14.6474 C   0  0  0  0  0  0  0  0  0  0  0  0
   17.5983   -6.7588  -14.9406 C   0  0  0  0  0  0  0  0  0  0  0  0
   16.7765   -7.6087  -15.3740 O   0  0  0  0  0  0  0  0  0  0  0  0
   21.3347   -6.5895  -15.3096 C   0  0  0  0  0  0  0  0  0  0  0  0
   21.7505   -6.1370  -14.2136 O   0  0  0  0  0  0  0  0  0  0  0  0
   17.2059   -5.4663  -14.7296 O   0  0  0  0  0  0  0  0  0  0  0  0
   22.2009   -7.2644  -16.2062 N   0  0  0  0  0  0  0  0  0  0  0  0
   23.5501   -7.5463  -15.7663 C   0  0  0  0  0  0  0  0  0  0  0  0
   24.2335   -8.3754  -16.8150 C   0  0  0  0  0  0  0  0  0  0  0  0
   23.5881   -8.7360  -17.7894 O   0  0  0  0  0  0  0  0  0  0  0  0
   31.7139  -10.3004  -18.6324 C   0  0  0  0  0  0  0  0  0  0  0  0
   30.5993   -9.5652  -17.4007 S   0  0  0  0  0  0  0  0  0  0  0  0
   28.9119   -9.8014  -17.9556 C   0  0  0  0  0  0  0  0  0  0  0  0
   27.9144   -9.2733  -17.0011 C   0  0  0  0  0  0  0  0  0  0  0  0
   26.4907   -9.3964  -17.4278 C   0  0  2  0  0  0  0  0  0  0  0  0
   25.5863   -8.6979  -16.6237 N   0  0  0  0  0  0  0  0  0  0  0  0
   26.1697  -10.8208  -17.7603 C   0  0  0  0  0  0  0  0  0  0  0  0
   25.7646  -11.7015  -17.0193 O   0  0  0  0  0  0  0  0  0  0  0  0
   26.3615  -11.2009  -19.1161 O   0  0  0  0  0  0  0  0  0  0  0  0
  2  3  1  0
  2  1  1  6
  3  4  1  0
  4  5  2  0
  4  8  1  0
  6  2  1  0
  7  6  2  0
  9  6  1  0
 10 11  1  0
 10  9  1  0
 11 18  1  0
 12 11  2  0
 13 14  1  0
 14 15  1  0
 15 16  1  0
 17 16  1  1
 18 17  1  0
 19 17  1  0
 20 19  2  0
 21 19  1  0
M  END
$$$$
