DGM.pdb
     RDKit          3D

 21 20  0  0  1  0  0  0  0  0999 V2000
   26.0104  -17.3562  -17.4422 N   0  0  0  0  0  0  0  0  0  0  0  0
   27.2665  -18.0079  -17.3152 C   0  0  1  0  0  0  0  0  0  0  0  0
   28.3478  -17.0086  -17.7588 C   0  0  0  0  0  0  0  0  0  0  0  0
   28.8402  -17.4499  -19.0964 C   0  0  0  0  0  0  0  0  0  0  0  0
   28.8080  -18.6629  -19.4329 O   0  0  0  0  0  0  0  0  0  0  0  0
   27.4938  -18.3974  -15.8956 C   0  0  0  0  0  0  0  0  0  0  0  0
   28.5051  -19.0822  -15.5998 O   0  0  0  0  0  0  0  0  0  0  0  0
   29.3311  -16.5088  -19.9580 O   0  0  0  0  0  0  0  0  0  0  0  0
   26.5649  -17.9870  -14.9064 N   0  0  0  0  0  0  0  0  0  0  0  0
   26.8580  -18.3025  -13.5251 C   0  0  0  0  0  0  0  0  0  0  0  0
   26.1815  -19.5960  -13.1742 C   0  0  0  0  0  0  0  0  0  0  0  0
   25.2936  -20.0104  -13.9062 O   0  0  0  0  0  0  0  0  0  0  0  0
   27.8778  -19.6531   -7.1052 C   0  0  0  0  0  0  0  0  0  0  0  0
   26.1510  -20.1715   -6.8831 S   0  0  0  0  0  0  0  0  0  0  0  0
   25.5410  -20.7862   -8.4520 C   0  0  0  0  0  0  0  0  0  0  0  0
   26.3185  -20.2867   -9.6057 C   0  0  0  0  0  0  0  0  0  0  0  0
   25.8830  -20.7921  -10.9396 C   0  0  2  0  0  0  0  0  0  0  0  0
   26.6033  -20.2689  -12.0166 N   0  0  0  0  0  0  0  0  0  0  0  0
   24.3885  -20.7868  -11.0340 C   0  0  0  0  0  0  0  0  0  0  0  0
   23.6167  -19.8663  -10.8200 O   0  0  0  0  0  0  0  0  0  0  0  0
   23.7861  -22.0136  -11.4230 O   0  0  0  0  0  0  0  0  0  0  0  0
  2  3  1  0
  2  1  1  1
  3  4  1  0
  4  5  2  0
  4  8  1  0
  6  2  1  0
  7  6  2  0
  9  6  1  0
 10 11  1  0
 10  9  1  0
 11 18  1  0
 12 11  2  0
 13 14  1  0
 14 15  1  0
 15 16  1  0
 17 16  1  1
 18 17  1  0
 19 17  1  0
 20 19  2  0
 21 19  1  0
M  END
$$$$
