DGM.pdb
     RDKit          3D

 21 20  0  0  1  0  0  0  0  0999 V2000
   22.8813  -21.6482  -14.5872 N   0  0  0  0  0  0  0  0  0  0  0  0
   24.2044  -21.7078  -15.1017 C   0  0  1  0  0  0  0  0  0  0  0  0
   24.2143  -20.9338  -16.4304 C   0  0  0  0  0  0  0  0  0  0  0  0
   23.4284  -21.7317  -17.4164 C   0  0  0  0  0  0  0  0  0  0  0  0
   22.6314  -22.6298  -17.0375 O   0  0  0  0  0  0  0  0  0  0  0  0
   25.1500  -21.0719  -14.1423 C   0  0  0  0  0  0  0  0  0  0  0  0
   26.3869  -21.1743  -14.3384 O   0  0  0  0  0  0  0  0  0  0  0  0
   23.5888  -21.4702  -18.7486 O   0  0  0  0  0  0  0  0  0  0  0  0
   24.6352  -20.3633  -13.0277 N   0  0  0  0  0  0  0  0  0  0  0  0
   25.5777  -19.7581  -12.1118 C   0  0  0  0  0  0  0  0  0  0  0  0
   25.6333  -20.5882  -10.8621 C   0  0  0  0  0  0  0  0  0  0  0  0
   25.1722  -21.7207  -10.8899 O   0  0  0  0  0  0  0  0  0  0  0  0
   28.5713  -19.8940   -3.5084 C   0  0  0  0  0  0  0  0  0  0  0  0
   28.3599  -19.0960   -5.1266 S   0  0  0  0  0  0  0  0  0  0  0  0
   27.2391  -20.0947   -6.1053 C   0  0  0  0  0  0  0  0  0  0  0  0
   27.1092  -19.6148   -7.4974 C   0  0  0  0  0  0  0  0  0  0  0  0
   26.2903  -20.4758   -8.3986 C   0  0  2  0  0  0  0  0  0  0  0  0
   26.2140  -20.0200   -9.7173 N   0  0  0  0  0  0  0  0  0  0  0  0
   25.0126  -20.8671   -7.7228 C   0  0  0  0  0  0  0  0  0  0  0  0
   23.9340  -20.2970   -7.7478 O   0  0  0  0  0  0  0  0  0  0  0  0
   25.0583  -22.0580   -6.9489 O   0  0  0  0  0  0  0  0  0  0  0  0
  2  3  1  0
  2  1  1  1
  3  4  1  0
  4  5  2  0
  4  8  1  0
  6  2  1  0
  7  6  2  0
  9  6  1  0
 10 11  1  0
 10  9  1  0
 11 18  1  0
 12 11  2  0
 13 14  1  0
 14 15  1  0
 15 16  1  0
 17 16  1  1
 18 17  1  0
 19 17  1  0
 20 19  2  0
 21 19  1  0
M  END
$$$$
