DGM.pdb
     RDKit          3D

 21 20  0  0  1  0  0  0  0  0999 V2000
   26.3250  -32.6280   -3.2846 N   0  0  0  0  0  0  0  0  0  0  0  0
   26.2280  -33.9081   -3.8933 C   0  0  1  0  0  0  0  0  0  0  0  0
   26.0095  -33.6840   -5.3988 C   0  0  0  0  0  0  0  0  0  0  0  0
   24.5385  -33.7247   -5.6462 C   0  0  0  0  0  0  0  0  0  0  0  0
   23.7282  -33.9510   -4.7094 O   0  0  0  0  0  0  0  0  0  0  0  0
   27.4900  -34.6691   -3.6762 C   0  0  0  0  0  0  0  0  0  0  0  0
   27.5503  -35.8739   -4.0283 O   0  0  0  0  0  0  0  0  0  0  0  0
   24.0808  -33.5107   -6.9165 O   0  0  0  0  0  0  0  0  0  0  0  0
   28.5980  -34.0186   -3.0773 N   0  0  0  0  0  0  0  0  0  0  0  0
   29.8035  -34.7887   -2.8604 C   0  0  0  0  0  0  0  0  0  0  0  0
   29.7962  -35.3052   -1.4508 C   0  0  0  0  0  0  0  0  0  0  0  0
   28.8270  -35.0659   -0.7440 O   0  0  0  0  0  0  0  0  0  0  0  0
   34.7433  -39.5673    3.0970 C   0  0  0  0  0  0  0  0  0  0  0  0
   34.5787  -38.5088    1.6299 S   0  0  0  0  0  0  0  0  0  0  0  0
   32.9104  -37.8556    1.5907 C   0  0  0  0  0  0  0  0  0  0  0  0
   32.6045  -37.1374    0.3355 C   0  0  0  0  0  0  0  0  0  0  0  0
   31.2316  -36.5619    0.2443 C   0  0  2  0  0  0  0  0  0  0  0  0
   30.9083  -36.0403   -1.0111 N   0  0  0  0  0  0  0  0  0  0  0  0
   30.9431  -35.7148    1.4449 C   0  0  0  0  0  0  0  0  0  0  0  0
   31.2423  -34.5482    1.6416 O   0  0  0  0  0  0  0  0  0  0  0  0
   30.2276  -36.3493    2.4959 O   0  0  0  0  0  0  0  0  0  0  0  0
  2  3  1  0
  2  1  1  1
  3  4  1  0
  4  5  2  0
  4  8  1  0
  6  2  1  0
  7  6  2  0
  9  6  1  0
 10 11  1  0
 10  9  1  0
 11 18  1  0
 12 11  2  0
 13 14  1  0
 14 15  1  0
 15 16  1  0
 17 16  1  6
 18 17  1  0
 19 17  1  0
 20 19  2  0
 21 19  1  0
M  END
$$$$
