DGM.pdb
     RDKit          3D

 21 20  0  0  1  0  0  0  0  0999 V2000
   27.1573  -19.9515  -15.4556 N   0  0  0  0  0  0  0  0  0  0  0  0
   25.8351  -19.4590  -15.6230 C   0  0  1  0  0  0  0  0  0  0  0  0
   25.0554  -20.5068  -16.4344 C   0  0  0  0  0  0  0  0  0  0  0  0
   25.5830  -20.4722  -17.8298 C   0  0  0  0  0  0  0  0  0  0  0  0
   25.4986  -19.4295  -18.5306 O   0  0  0  0  0  0  0  0  0  0  0  0
   25.1918  -19.2728  -14.2924 C   0  0  0  0  0  0  0  0  0  0  0  0
   24.4024  -18.3105  -14.1199 O   0  0  0  0  0  0  0  0  0  0  0  0
   26.1640  -21.5998  -18.3396 O   0  0  0  0  0  0  0  0  0  0  0  0
   25.4825  -20.1857  -13.2475 N   0  0  0  0  0  0  0  0  0  0  0  0
   24.5740  -20.2447  -12.1231 C   0  0  0  0  0  0  0  0  0  0  0  0
   25.2081  -21.0633  -11.0360 C   0  0  0  0  0  0  0  0  0  0  0  0
   25.0556  -22.2767  -11.0513 O   0  0  0  0  0  0  0  0  0  0  0  0
   28.7555  -19.3694   -4.1151 C   0  0  0  0  0  0  0  0  0  0  0  0
   28.3920  -18.8032   -5.8026 S   0  0  0  0  0  0  0  0  0  0  0  0
   27.2624  -19.9715   -6.5578 C   0  0  0  0  0  0  0  0  0  0  0  0
   26.9945  -19.6732   -7.9806 C   0  0  0  0  0  0  0  0  0  0  0  0
   26.1297  -20.6592   -8.6906 C   0  0  2  0  0  0  0  0  0  0  0  0
   25.9481  -20.3916  -10.0500 N   0  0  0  0  0  0  0  0  0  0  0  0
   24.9130  -20.9658   -7.8733 C   0  0  0  0  0  0  0  0  0  0  0  0
   23.7653  -20.5905   -8.0487 O   0  0  0  0  0  0  0  0  0  0  0  0
   25.1180  -21.8031   -6.7436 O   0  0  0  0  0  0  0  0  0  0  0  0
  2  3  1  0
  2  1  1  1
  3  4  1  0
  4  5  2  0
  4  8  1  0
  6  2  1  0
  7  6  2  0
  9  6  1  0
 10 11  1  0
 10  9  1  0
 11 18  1  0
 12 11  2  0
 13 14  1  0
 14 15  1  0
 15 16  1  0
 17 16  1  1
 18 17  1  0
 19 17  1  0
 20 19  2  0
 21 19  1  0
M  END
$$$$
