LTD.pdb
     RDKit          3D

 24 23  0  0  1  0  0  0  0  0999 V2000
    5.4509  -12.1545   26.0656 C   0  0  0  0  0  0  0  0  0  0  0  0
    6.3948  -12.9543   26.9320 C   0  0  2  0  0  0  0  0  0  0  0  0
    7.3510  -11.9655   27.5648 C   0  0  0  0  0  0  0  0  0  0  0  0
    7.2034  -13.9449   26.1434 C   0  0  0  0  0  0  0  0  0  0  0  0
    6.3621  -14.8953   25.3421 C   0  0  2  0  0  0  0  0  0  0  0  0
    5.6320  -15.8258   26.1762 N   0  0  0  0  0  0  0  0  0  0  0  0
    7.2802  -15.6886   24.4808 C   0  0  0  0  0  0  0  0  0  0  0  0
    7.6841  -16.8230   24.9206 O   0  0  0  0  0  0  0  0  0  0  0  0
    7.1497  -15.6179   20.5625 C   0  0  0  0  0  0  0  0  0  0  0  0
    8.5864  -15.7679   20.9817 C   0  0  1  0  0  0  0  0  0  0  0  0
    9.2974  -14.5908   20.7793 O   0  0  0  0  0  0  0  0  0  0  0  0
    8.6006  -16.1385   22.4583 C   0  0  2  0  0  0  0  0  0  0  0  0
    7.7353  -15.2653   23.2034 N   0  0  0  0  0  0  0  0  0  0  0  0
    9.9926  -16.1182   22.9894 C   0  0  0  0  0  0  0  0  0  0  0  0
   10.4788  -15.1256   23.5846 O   0  0  0  0  0  0  0  0  0  0  0  0
   10.8608  -17.2475   22.8457 N   0  0  0  0  0  0  0  0  0  0  0  0
   12.2466  -17.2515   23.2723 C   0  0  1  0  0  0  0  0  0  0  0  0
   12.4785  -18.6189   23.8992 C   0  0  0  0  0  0  0  0  0  0  0  0
   12.5899  -18.5722   25.3687 C   0  0  0  0  0  0  0  0  0  0  0  0
   12.6903  -17.4943   25.9927 O   0  0  0  0  0  0  0  0  0  0  0  0
   13.1712  -16.9767   22.1644 C   0  0  0  0  0  0  0  0  0  0  0  0
   12.8476  -17.0936   20.9582 O   0  0  0  0  0  0  0  0  0  0  0  0
   12.5834  -19.7557   26.0812 O   0  0  0  0  0  0  0  0  0  0  0  0
   14.4956  -16.5590   22.3954 O   0  0  0  0  0  0  0  0  0  0  0  0
  2  1  1  6
  2  3  1  0
  4  5  1  0
  4  2  1  0
  5  6  1  1
  5  7  1  0
  7  8  2  0
 10 12  1  0
 10  9  1  1
 11 10  1  0
 12 14  1  0
 13  7  1  0
 12 13  1  1
 14 15  2  0
 16 17  1  0
 16 14  1  0
 17 21  1  0
 17 18  1  6
 19 20  2  0
 19 18  1  0
 21 22  2  0
 21 24  1  0
 23 19  1  0
M  END
$$$$
