LTD.pdb
     RDKit          3D

 24 23  0  0  1  0  0  0  0  0999 V2000
    5.8195  -12.1313   26.5126 C   0  0  0  0  0  0  0  0  0  0  0  0
    6.8803  -12.9813   27.1711 C   0  0  2  0  0  0  0  0  0  0  0  0
    7.9144  -12.0301   27.7352 C   0  0  0  0  0  0  0  0  0  0  0  0
    7.5703  -13.8977   26.2012 C   0  0  0  0  0  0  0  0  0  0  0  0
    6.6358  -14.8541   25.5190 C   0  0  2  0  0  0  0  0  0  0  0  0
    6.0635  -15.8168   26.4356 N   0  0  0  0  0  0  0  0  0  0  0  0
    7.4265  -15.6092   24.5098 C   0  0  0  0  0  0  0  0  0  0  0  0
    7.9475  -16.7243   24.8685 O   0  0  0  0  0  0  0  0  0  0  0  0
    6.6514  -15.7157   20.6901 C   0  0  0  0  0  0  0  0  0  0  0  0
    8.1462  -15.6739   20.8516 C   0  0  1  0  0  0  0  0  0  0  0  0
    8.6583  -14.4313   20.4968 O   0  0  0  0  0  0  0  0  0  0  0  0
    8.4618  -15.9706   22.3111 C   0  0  2  0  0  0  0  0  0  0  0  0
    7.6385  -15.1697   23.1756 N   0  0  0  0  0  0  0  0  0  0  0  0
    9.9117  -15.7638   22.5854 C   0  0  0  0  0  0  0  0  0  0  0  0
   10.3399  -14.8387   23.3181 O   0  0  0  0  0  0  0  0  0  0  0  0
   10.9066  -16.6231   22.0182 N   0  0  0  0  0  0  0  0  0  0  0  0
   12.3252  -16.4930   22.2886 C   0  0  1  0  0  0  0  0  0  0  0  0
   12.4805  -16.7278   23.7844 C   0  0  0  0  0  0  0  0  0  0  0  0
   13.8878  -16.7697   24.2222 C   0  0  0  0  0  0  0  0  0  0  0  0
   14.7209  -15.9112   23.8611 O   0  0  0  0  0  0  0  0  0  0  0  0
   13.1324  -17.4222   21.4867 C   0  0  0  0  0  0  0  0  0  0  0  0
   14.2411  -17.1113   20.9892 O   0  0  0  0  0  0  0  0  0  0  0  0
   14.3018  -17.7889   25.0578 O   0  0  0  0  0  0  0  0  0  0  0  0
   12.7021  -18.7369   21.2257 O   0  0  0  0  0  0  0  0  0  0  0  0
  2  1  1  6
  2  3  1  0
  4  5  1  0
  4  2  1  0
  5  6  1  1
  5  7  1  0
  7  8  2  0
 10 12  1  0
 10  9  1  1
 11 10  1  0
 12 14  1  0
 13  7  1  0
 12 13  1  1
 14 15  2  0
 16 17  1  0
 16 14  1  0
 17 21  1  0
 17 18  1  1
 19 20  2  0
 19 18  1  0
 21 22  2  0
 21 24  1  0
 23 19  1  0
M  END
$$$$
