LTD.pdb
     RDKit          3D

 24 23  0  0  1  0  0  0  0  0999 V2000
    6.0524  -11.9635   25.6151 C   0  0  0  0  0  0  0  0  0  0  0  0
    6.4053  -12.9476   26.7053 C   0  0  2  0  0  0  0  0  0  0  0  0
    7.3078  -12.2176   27.6774 C   0  0  0  0  0  0  0  0  0  0  0  0
    7.1516  -14.1431   26.1847 C   0  0  0  0  0  0  0  0  0  0  0  0
    6.3685  -14.9439   25.1854 C   0  0  2  0  0  0  0  0  0  0  0  0
    5.4515  -15.8698   25.8152 N   0  0  0  0  0  0  0  0  0  0  0  0
    7.3407  -15.7437   24.3922 C   0  0  0  0  0  0  0  0  0  0  0  0
    7.6706  -16.8996   24.8376 O   0  0  0  0  0  0  0  0  0  0  0  0
    9.9826  -16.7004   20.3994 C   0  0  0  0  0  0  0  0  0  0  0  0
    9.0233  -15.7415   21.0493 C   0  0  1  0  0  0  0  0  0  0  0  0
    7.7965  -15.7332   20.3960 O   0  0  0  0  0  0  0  0  0  0  0  0
    8.8408  -16.1797   22.4959 C   0  0  2  0  0  0  0  0  0  0  0  0
    7.9242  -15.3041   23.1739 N   0  0  0  0  0  0  0  0  0  0  0  0
   10.1563  -16.2455   23.1926 C   0  0  0  0  0  0  0  0  0  0  0  0
   10.9334  -15.2627   23.2721 O   0  0  0  0  0  0  0  0  0  0  0  0
   10.6087  -17.4520   23.8167 N   0  0  0  0  0  0  0  0  0  0  0  0
   11.9045  -17.5869   24.4531 C   0  0  1  0  0  0  0  0  0  0  0  0
   11.8070  -18.8336   25.3209 C   0  0  0  0  0  0  0  0  0  0  0  0
   12.4648  -18.6810   26.6317 C   0  0  0  0  0  0  0  0  0  0  0  0
   13.1873  -17.6978   26.9012 O   0  0  0  0  0  0  0  0  0  0  0  0
   12.9991  -17.6657   23.4766 C   0  0  0  0  0  0  0  0  0  0  0  0
   14.1449  -17.2039   23.6945 O   0  0  0  0  0  0  0  0  0  0  0  0
   12.2786  -19.6541   27.5945 O   0  0  0  0  0  0  0  0  0  0  0  0
   12.8235  -18.2740   22.2193 O   0  0  0  0  0  0  0  0  0  0  0  0
  2  1  1  6
  2  3  1  0
  4  5  1  0
  4  2  1  0
  5  6  1  1
  5  7  1  0
  7  8  2  0
 10 12  1  0
 10  9  1  6
 11 10  1  0
 12 14  1  0
 13  7  1  0
 12 13  1  1
 14 15  2  0
 16 17  1  0
 16 14  1  0
 17 21  1  0
 17 18  1  6
 19 20  2  0
 19 18  1  0
 21 22  2  0
 21 24  1  0
 23 19  1  0
M  END
$$$$
