LTD.pdb
     RDKit          3D

 24 23  0  0  1  0  0  0  0  0999 V2000
    7.4417  -10.7537   26.3076 C   0  0  0  0  0  0  0  0  0  0  0  0
    6.3370  -11.7484   26.0399 C   0  0  2  0  0  0  0  0  0  0  0  0
    5.5001  -11.8213   27.2996 C   0  0  0  0  0  0  0  0  0  0  0  0
    6.8590  -13.1263   25.7471 C   0  0  0  0  0  0  0  0  0  0  0  0
    7.8979  -13.1507   24.6639 C   0  0  2  0  0  0  0  0  0  0  0  0
    7.4591  -12.4756   23.4613 N   0  0  0  0  0  0  0  0  0  0  0  0
    8.1466  -14.5755   24.3143 C   0  0  0  0  0  0  0  0  0  0  0  0
    7.8616  -15.4663   25.1910 O   0  0  0  0  0  0  0  0  0  0  0  0
   10.1750  -15.9107   20.8417 C   0  0  0  0  0  0  0  0  0  0  0  0
    9.0358  -16.7265   21.3883 C   0  0  1  0  0  0  0  0  0  0  0  0
    9.2556  -18.0869   21.2067 O   0  0  0  0  0  0  0  0  0  0  0  0
    8.9125  -16.4117   22.8728 C   0  0  2  0  0  0  0  0  0  0  0  0
    8.6799  -15.0069   23.0703 N   0  0  0  0  0  0  0  0  0  0  0  0
   10.1213  -16.8781   23.6087 C   0  0  0  0  0  0  0  0  0  0  0  0
   11.2195  -16.2717   23.5657 O   0  0  0  0  0  0  0  0  0  0  0  0
   10.0915  -18.0608   24.4151 N   0  0  0  0  0  0  0  0  0  0  0  0
   11.2484  -18.5791   25.1189 C   0  0  1  0  0  0  0  0  0  0  0  0
   10.7999  -18.7685   26.5610 C   0  0  0  0  0  0  0  0  0  0  0  0
   11.8916  -19.1912   27.4575 C   0  0  0  0  0  0  0  0  0  0  0  0
   13.0523  -19.3921   27.0407 O   0  0  0  0  0  0  0  0  0  0  0  0
   11.7545  -19.8212   24.5197 C   0  0  0  0  0  0  0  0  0  0  0  0
   12.9183  -19.9376   24.0666 O   0  0  0  0  0  0  0  0  0  0  0  0
   11.6261  -19.3719   28.8011 O   0  0  0  0  0  0  0  0  0  0  0  0
   10.9500  -20.9719   24.4174 O   0  0  0  0  0  0  0  0  0  0  0  0
  2  1  1  1
  2  3  1  0
  4  5  1  0
  4  2  1  0
  5  6  1  6
  5  7  1  0
  7  8  2  0
 10 12  1  0
 10  9  1  1
 11 10  1  0
 12 14  1  0
 13  7  1  0
 12 13  1  6
 14 15  2  0
 16 17  1  0
 16 14  1  0
 17 21  1  0
 17 18  1  1
 19 20  2  0
 19 18  1  0
 21 22  2  0
 21 24  1  0
 23 19  1  0
M  END
$$$$
