LTD.pdb
     RDKit          3D

 24 23  0  0  1  0  0  0  0  0999 V2000
    6.0621  -11.7855   26.0041 C   0  0  0  0  0  0  0  0  0  0  0  0
    6.7141  -12.7006   27.0135 C   0  0  2  0  0  0  0  0  0  0  0  0
    7.7748  -11.8847   27.7218 C   0  0  0  0  0  0  0  0  0  0  0  0
    7.3857  -13.8819   26.3728 C   0  0  0  0  0  0  0  0  0  0  0  0
    6.4951  -14.6296   25.4236 C   0  0  2  0  0  0  0  0  0  0  0  0
    5.5025  -15.4286   26.1097 N   0  0  0  0  0  0  0  0  0  0  0  0
    7.3549  -15.5568   24.6395 C   0  0  0  0  0  0  0  0  0  0  0  0
    7.6257  -16.7006   25.1514 O   0  0  0  0  0  0  0  0  0  0  0  0
    7.3508  -15.9543   20.7528 C   0  0  0  0  0  0  0  0  0  0  0  0
    8.7781  -16.0041   21.2246 C   0  0  1  0  0  0  0  0  0  0  0  0
    9.4544  -14.8303   20.9137 O   0  0  0  0  0  0  0  0  0  0  0  0
    8.7592  -16.2115   22.7327 C   0  0  2  0  0  0  0  0  0  0  0  0
    7.8930  -15.2514   23.3607 N   0  0  0  0  0  0  0  0  0  0  0  0
   10.1413  -16.1506   23.2865 C   0  0  0  0  0  0  0  0  0  0  0  0
   10.6422  -15.0970   23.7498 O   0  0  0  0  0  0  0  0  0  0  0  0
   10.9820  -17.3091   23.3188 N   0  0  0  0  0  0  0  0  0  0  0  0
   12.3497  -17.2925   23.7998 C   0  0  1  0  0  0  0  0  0  0  0  0
   12.6088  -18.6892   24.3464 C   0  0  0  0  0  0  0  0  0  0  0  0
   12.2479  -18.8318   25.7689 C   0  0  0  0  0  0  0  0  0  0  0  0
   12.7310  -18.0931   26.6533 O   0  0  0  0  0  0  0  0  0  0  0  0
   13.3047  -16.9134   22.7499 C   0  0  0  0  0  0  0  0  0  0  0  0
   13.0004  -16.8628   21.5341 O   0  0  0  0  0  0  0  0  0  0  0  0
   11.3474  -19.8120   26.1388 O   0  0  0  0  0  0  0  0  0  0  0  0
   14.6385  -16.5792   23.0518 O   0  0  0  0  0  0  0  0  0  0  0  0
  2  1  1  6
  2  3  1  0
  4  5  1  0
  4  2  1  0
  5  6  1  1
  5  7  1  0
  7  8  2  0
 10 12  1  0
 10  9  1  1
 11 10  1  0
 12 14  1  0
 13  7  1  0
 12 13  1  1
 14 15  2  0
 16 17  1  0
 16 14  1  0
 17 21  1  0
 17 18  1  6
 19 20  2  0
 19 18  1  0
 21 22  2  0
 21 24  1  0
 23 19  1  0
M  END
$$$$
