LTD.pdb
     RDKit          3D

 24 23  0  0  1  0  0  0  0  0999 V2000
    5.7086  -11.9164   25.3508 C   0  0  0  0  0  0  0  0  0  0  0  0
    6.2594  -12.6546   26.5479 C   0  0  2  0  0  0  0  0  0  0  0  0
    7.1084  -11.6656   27.3184 C   0  0  0  0  0  0  0  0  0  0  0  0
    7.1317  -13.8145   26.1599 C   0  0  0  0  0  0  0  0  0  0  0  0
    6.4562  -14.7826   25.2328 C   0  0  2  0  0  0  0  0  0  0  0  0
    5.4834  -15.6116   25.9118 N   0  0  0  0  0  0  0  0  0  0  0  0
    7.5062  -15.6813   24.6816 C   0  0  0  0  0  0  0  0  0  0  0  0
    7.8354  -16.7114   25.3700 O   0  0  0  0  0  0  0  0  0  0  0  0
    8.1581  -15.8326   20.7700 C   0  0  0  0  0  0  0  0  0  0  0  0
    9.4186  -16.2140   21.4964 C   0  0  1  0  0  0  0  0  0  0  0  0
   10.3680  -15.2011   21.4272 O   0  0  0  0  0  0  0  0  0  0  0  0
    9.0509  -16.4857   22.9487 C   0  0  2  0  0  0  0  0  0  0  0  0
    8.1645  -15.4668   23.4411 N   0  0  0  0  0  0  0  0  0  0  0  0
   10.2778  -16.5996   23.7865 C   0  0  0  0  0  0  0  0  0  0  0  0
   10.8006  -15.6151   24.3639 O   0  0  0  0  0  0  0  0  0  0  0  0
   10.9338  -17.8576   23.9788 N   0  0  0  0  0  0  0  0  0  0  0  0
   12.0889  -18.0352   24.8371 C   0  0  1  0  0  0  0  0  0  0  0  0
   11.9816  -19.4531   25.3803 C   0  0  0  0  0  0  0  0  0  0  0  0
   13.1047  -19.8236   26.2608 C   0  0  0  0  0  0  0  0  0  0  0  0
   14.0598  -20.5223   25.8597 O   0  0  0  0  0  0  0  0  0  0  0  0
   13.3525  -17.7995   24.1262 C   0  0  0  0  0  0  0  0  0  0  0  0
   14.4712  -17.8234   24.6930 O   0  0  0  0  0  0  0  0  0  0  0  0
   13.1041  -19.3861   27.5712 O   0  0  0  0  0  0  0  0  0  0  0  0
   13.3823  -17.5289   22.7450 O   0  0  0  0  0  0  0  0  0  0  0  0
  2  1  1  6
  2  3  1  0
  4  5  1  0
  4  2  1  0
  5  6  1  1
  5  7  1  0
  7  8  2  0
 10 12  1  0
 10  9  1  6
 11 10  1  0
 12 14  1  0
 13  7  1  0
 12 13  1  1
 14 15  2  0
 16 17  1  0
 16 14  1  0
 17 21  1  0
 17 18  1  6
 19 20  2  0
 19 18  1  0
 21 22  2  0
 21 24  1  0
 23 19  1  0
M  END
$$$$
