LTD.pdb
     RDKit          3D

 24 23  0  0  1  0  0  0  0  0999 V2000
    8.2109  -14.0426   18.3687 C   0  0  0  0  0  0  0  0  0  0  0  0
    7.7595  -13.2531   19.5746 C   0  0  2  0  0  0  0  0  0  0  0  0
    7.9293  -11.7892   19.2269 C   0  0  0  0  0  0  0  0  0  0  0  0
    8.5860  -13.5407   20.7957 C   0  0  0  0  0  0  0  0  0  0  0  0
    8.3729  -14.9208   21.3463 C   0  0  2  0  0  0  0  0  0  0  0  0
    7.0051  -15.3701   21.1986 N   0  0  0  0  0  0  0  0  0  0  0  0
    8.6758  -14.8734   22.8023 C   0  0  0  0  0  0  0  0  0  0  0  0
    9.8325  -14.4527   23.1606 O   0  0  0  0  0  0  0  0  0  0  0  0
    6.9181  -13.0971   25.5584 C   0  0  0  0  0  0  0  0  0  0  0  0
    7.0763  -14.5177   26.0267 C   0  0  1  0  0  0  0  0  0  0  0  0
    5.8915  -15.2309   25.8865 O   0  0  0  0  0  0  0  0  0  0  0  0
    8.1741  -15.1604   25.1903 C   0  0  2  0  0  0  0  0  0  0  0  0
    7.7622  -15.2658   23.8171 N   0  0  0  0  0  0  0  0  0  0  0  0
    8.5531  -16.4865   25.7544 C   0  0  0  0  0  0  0  0  0  0  0  0
    8.2065  -17.5728   25.2294 O   0  0  0  0  0  0  0  0  0  0  0  0
    9.3442  -16.5912   26.9431 N   0  0  0  0  0  0  0  0  0  0  0  0
    9.8011  -17.8530   27.4922 C   0  0  1  0  0  0  0  0  0  0  0  0
   10.5730  -18.5326   26.3703 C   0  0  0  0  0  0  0  0  0  0  0  0
   11.2530  -19.7685   26.7996 C   0  0  0  0  0  0  0  0  0  0  0  0
   10.7786  -20.5144   27.6828 O   0  0  0  0  0  0  0  0  0  0  0  0
   10.6121  -17.6721   28.7036 C   0  0  0  0  0  0  0  0  0  0  0  0
   11.1064  -16.5688   29.0376 O   0  0  0  0  0  0  0  0  0  0  0  0
   12.4525  -20.1157   26.2087 O   0  0  0  0  0  0  0  0  0  0  0  0
   10.8860  -18.7437   29.5745 O   0  0  0  0  0  0  0  0  0  0  0  0
  2  1  1  6
  2  3  1  0
  4  5  1  0
  4  2  1  0
  5  6  1  1
  5  7  1  0
  7  8  2  0
 10 12  1  0
 10  9  1  6
 11 10  1  0
 12 14  1  0
 13  7  1  0
 12 13  1  6
 14 15  2  0
 16 17  1  0
 16 14  1  0
 17 21  1  0
 17 18  1  6
 19 20  2  0
 19 18  1  0
 21 22  2  0
 21 24  1  0
 23 19  1  0
M  END
$$$$
