LTD.pdb
     RDKit          3D

 24 23  0  0  1  0  0  0  0  0999 V2000
    8.4900  -12.6265   18.5334 C   0  0  0  0  0  0  0  0  0  0  0  0
    7.4848  -13.3897   19.3632 C   0  0  2  0  0  0  0  0  0  0  0  0
    6.9208  -12.4130   20.3734 C   0  0  0  0  0  0  0  0  0  0  0  0
    8.1057  -14.5319   20.1161 C   0  0  0  0  0  0  0  0  0  0  0  0
    8.7280  -15.5648   19.2221 C   0  0  2  0  0  0  0  0  0  0  0  0
    7.7485  -16.2603   18.4151 N   0  0  0  0  0  0  0  0  0  0  0  0
    9.3886  -16.5726   20.0950 C   0  0  0  0  0  0  0  0  0  0  0  0
    8.7072  -17.0670   21.0618 O   0  0  0  0  0  0  0  0  0  0  0  0
   10.0230  -19.8027   19.6831 C   0  0  0  0  0  0  0  0  0  0  0  0
   11.3939  -19.3497   20.1043 C   0  0  1  0  0  0  0  0  0  0  0  0
   12.2378  -19.2068   19.0091 O   0  0  0  0  0  0  0  0  0  0  0  0
   11.2397  -18.0155   20.8214 C   0  0  2  0  0  0  0  0  0  0  0  0
   10.7263  -17.0186   19.9220 N   0  0  0  0  0  0  0  0  0  0  0  0
   12.5341  -17.5950   21.4282 C   0  0  0  0  0  0  0  0  0  0  0  0
   13.0963  -16.5088   21.1454 O   0  0  0  0  0  0  0  0  0  0  0  0
   13.2136  -18.4214   22.3796 N   0  0  0  0  0  0  0  0  0  0  0  0
   14.4946  -18.0794   22.9664 C   0  0  1  0  0  0  0  0  0  0  0  0
   14.2828  -16.7423   23.6621 C   0  0  0  0  0  0  0  0  0  0  0  0
   15.4709  -15.8703   23.6172 C   0  0  0  0  0  0  0  0  0  0  0  0
   16.5480  -16.2421   23.1044 O   0  0  0  0  0  0  0  0  0  0  0  0
   14.9828  -19.1188   23.8825 C   0  0  0  0  0  0  0  0  0  0  0  0
   14.2304  -19.7548   24.6590 O   0  0  0  0  0  0  0  0  0  0  0  0
   15.3943  -14.6015   24.1584 O   0  0  0  0  0  0  0  0  0  0  0  0
   16.3453  -19.4677   23.9433 O   0  0  0  0  0  0  0  0  0  0  0  0
  2  1  1  1
  2  3  1  0
  4  5  1  0
  4  2  1  0
  5  6  1  1
  5  7  1  0
  7  8  2  0
 10 12  1  0
 10  9  1  6
 11 10  1  0
 12 14  1  0
 13  7  1  0
 12 13  1  6
 14 15  2  0
 16 17  1  0
 16 14  1  0
 17 21  1  0
 17 18  1  1
 19 20  2  0
 19 18  1  0
 21 22  2  0
 21 24  1  0
 23 19  1  0
M  END
$$$$
