LTD.pdb
     RDKit          3D

 24 23  0  0  1  0  0  0  0  0999 V2000
    7.9430  -13.7617   18.2164 C   0  0  0  0  0  0  0  0  0  0  0  0
    7.0339  -13.2288   19.2985 C   0  0  2  0  0  0  0  0  0  0  0  0
    7.1219  -11.7185   19.2385 C   0  0  0  0  0  0  0  0  0  0  0  0
    7.4543  -13.6657   20.6730 C   0  0  0  0  0  0  0  0  0  0  0  0
    7.2860  -15.1390   20.9061 C   0  0  2  0  0  0  0  0  0  0  0  0
    5.8964  -15.5435   20.9072 N   0  0  0  0  0  0  0  0  0  0  0  0
    7.8446  -15.4461   22.2505 C   0  0  0  0  0  0  0  0  0  0  0  0
    7.1137  -15.1988   23.2742 O   0  0  0  0  0  0  0  0  0  0  0  0
    7.1613  -16.6757   24.4083 C   0  0  0  0  0  0  0  0  0  0  0  0
    8.5030  -17.3548   24.3815 C   0  0  1  0  0  0  0  0  0  0  0  0
    8.4701  -18.5084   23.6068 O   0  0  0  0  0  0  0  0  0  0  0  0
    9.5090  -16.3680   23.8050 C   0  0  2  0  0  0  0  0  0  0  0  0
    9.1367  -15.9954   22.4674 N   0  0  0  0  0  0  0  0  0  0  0  0
   10.8860  -16.9353   23.8551 C   0  0  0  0  0  0  0  0  0  0  0  0
   11.4578  -17.4218   22.8491 O   0  0  0  0  0  0  0  0  0  0  0  0
   11.6391  -16.9549   25.0726 N   0  0  0  0  0  0  0  0  0  0  0  0
   12.9812  -17.4939   25.1751 C   0  0  1  0  0  0  0  0  0  0  0  0
   13.9133  -16.3408   24.8312 C   0  0  0  0  0  0  0  0  0  0  0  0
   14.5800  -16.5031   23.5261 C   0  0  0  0  0  0  0  0  0  0  0  0
   14.3517  -17.4800   22.7812 O   0  0  0  0  0  0  0  0  0  0  0  0
   13.2539  -18.0606   26.5026 C   0  0  0  0  0  0  0  0  0  0  0  0
   14.2782  -18.7370   26.7606 O   0  0  0  0  0  0  0  0  0  0  0  0
   15.4863  -15.5467   23.1108 O   0  0  0  0  0  0  0  0  0  0  0  0
   12.3674  -17.8745   27.5803 O   0  0  0  0  0  0  0  0  0  0  0  0
  2  1  1  6
  2  3  1  0
  4  5  1  0
  4  2  1  0
  5  6  1  1
  5  7  1  0
  7  8  2  0
 10 12  1  0
 10  9  1  6
 11 10  1  0
 12 14  1  0
 13  7  1  0
 12 13  1  6
 14 15  2  0
 16 17  1  0
 16 14  1  0
 17 21  1  0
 17 18  1  1
 19 20  2  0
 19 18  1  0
 21 22  2  0
 21 24  1  0
 23 19  1  0
M  END
$$$$
