LTD.pdb
     RDKit          3D

 24 23  0  0  1  0  0  0  0  0999 V2000
    5.3153  -12.4045   26.4920 C   0  0  0  0  0  0  0  0  0  0  0  0
    6.4686  -13.0820   27.1936 C   0  0  2  0  0  0  0  0  0  0  0  0
    7.3727  -11.9826   27.7096 C   0  0  0  0  0  0  0  0  0  0  0  0
    7.2738  -13.9533   26.2720 C   0  0  0  0  0  0  0  0  0  0  0  0
    6.4661  -15.0405   25.6249 C   0  0  2  0  0  0  0  0  0  0  0  0
    6.0806  -16.0749   26.5609 N   0  0  0  0  0  0  0  0  0  0  0  0
    7.3198  -15.6725   24.5830 C   0  0  0  0  0  0  0  0  0  0  0  0
    7.8797  -16.7910   24.8642 O   0  0  0  0  0  0  0  0  0  0  0  0
    8.5593  -13.7957   21.0407 C   0  0  0  0  0  0  0  0  0  0  0  0
    8.2335  -15.2623   20.9691 C   0  0  1  0  0  0  0  0  0  0  0  0
    9.0835  -15.9266   20.0927 O   0  0  0  0  0  0  0  0  0  0  0  0
    8.3777  -15.8368   22.3716 C   0  0  2  0  0  0  0  0  0  0  0  0
    7.5515  -15.1121   23.2983 N   0  0  0  0  0  0  0  0  0  0  0  0
    9.8071  -15.8368   22.7925 C   0  0  0  0  0  0  0  0  0  0  0  0
   10.3417  -14.8672   23.3840 O   0  0  0  0  0  0  0  0  0  0  0  0
   10.6575  -16.9606   22.5397 N   0  0  0  0  0  0  0  0  0  0  0  0
   12.0667  -16.9907   22.8798 C   0  0  1  0  0  0  0  0  0  0  0  0
   12.3724  -18.4395   23.2319 C   0  0  0  0  0  0  0  0  0  0  0  0
   11.9959  -18.7928   24.6130 C   0  0  0  0  0  0  0  0  0  0  0  0
   11.8655  -17.9294   25.5068 O   0  0  0  0  0  0  0  0  0  0  0  0
   12.9134  -16.4860   21.7906 C   0  0  0  0  0  0  0  0  0  0  0  0
   14.0164  -15.9219   21.9866 O   0  0  0  0  0  0  0  0  0  0  0  0
   11.7797  -20.1194   24.9323 O   0  0  0  0  0  0  0  0  0  0  0  0
   12.5302  -16.6081   20.4415 O   0  0  0  0  0  0  0  0  0  0  0  0
  2  1  1  6
  2  3  1  0
  4  5  1  0
  4  2  1  0
  5  6  1  1
  5  7  1  0
  7  8  2  0
 10 12  1  0
 10  9  1  1
 11 10  1  0
 12 14  1  0
 13  7  1  0
 12 13  1  1
 14 15  2  0
 16 17  1  0
 16 14  1  0
 17 21  1  0
 17 18  1  6
 19 20  2  0
 19 18  1  0
 21 22  2  0
 21 24  1  0
 23 19  1  0
M  END
$$$$
