LTD.pdb
     RDKit          3D

 24 23  0  0  1  0  0  0  0  0999 V2000
    5.3438  -18.1962   15.7647 C   0  0  0  0  0  0  0  0  0  0  0  0
    6.5621  -19.0022   16.1489 C   0  0  2  0  0  0  0  0  0  0  0  0
    6.0578  -20.3043   16.7343 C   0  0  0  0  0  0  0  0  0  0  0  0
    7.4024  -18.3182   17.1895 C   0  0  0  0  0  0  0  0  0  0  0  0
    7.7666  -16.9078   16.8268 C   0  0  2  0  0  0  0  0  0  0  0  0
    8.6738  -16.8430   15.7010 N   0  0  0  0  0  0  0  0  0  0  0  0
    8.4610  -16.3094   17.9988 C   0  0  0  0  0  0  0  0  0  0  0  0
    9.7238  -16.5008   18.1093 O   0  0  0  0  0  0  0  0  0  0  0  0
    7.4114  -12.9059   19.9675 C   0  0  0  0  0  0  0  0  0  0  0  0
    7.7924  -14.0227   20.9002 C   0  0  1  0  0  0  0  0  0  0  0  0
    6.6684  -14.6264   21.4516 O   0  0  0  0  0  0  0  0  0  0  0  0
    8.5916  -15.0413   20.0991 C   0  0  2  0  0  0  0  0  0  0  0  0
    7.8103  -15.5406   19.0006 N   0  0  0  0  0  0  0  0  0  0  0  0
    9.0678  -16.1436   20.9815 C   0  0  0  0  0  0  0  0  0  0  0  0
    8.8601  -17.3554   20.7279 O   0  0  0  0  0  0  0  0  0  0  0  0
    9.7981  -15.8727   22.1828 N   0  0  0  0  0  0  0  0  0  0  0  0
   10.6092  -16.8610   22.8667 C   0  0  1  0  0  0  0  0  0  0  0  0
   11.6713  -17.2855   21.8625 C   0  0  0  0  0  0  0  0  0  0  0  0
   12.6519  -18.2343   22.4213 C   0  0  0  0  0  0  0  0  0  0  0  0
   12.6164  -18.5986   23.6160 O   0  0  0  0  0  0  0  0  0  0  0  0
   11.1887  -16.3406   24.1122 C   0  0  0  0  0  0  0  0  0  0  0  0
   10.8078  -16.7072   25.2497 O   0  0  0  0  0  0  0  0  0  0  0  0
   13.6423  -18.7384   21.6007 O   0  0  0  0  0  0  0  0  0  0  0  0
   12.2223  -15.3848   24.1017 O   0  0  0  0  0  0  0  0  0  0  0  0
  2  1  1  1
  2  3  1  0
  4  5  1  0
  4  2  1  0
  5  6  1  6
  5  7  1  0
  7  8  2  0
 10 12  1  0
 10  9  1  6
 11 10  1  0
 12 14  1  0
 13  7  1  0
 12 13  1  6
 14 15  2  0
 16 17  1  0
 16 14  1  0
 17 21  1  0
 17 18  1  6
 19 20  2  0
 19 18  1  0
 21 22  2  0
 21 24  1  0
 23 19  1  0
M  END
$$$$
