LTD.pdb
     RDKit          3D

 24 23  0  0  1  0  0  0  0  0999 V2000
    9.2859  -12.6373   19.2986 C   0  0  0  0  0  0  0  0  0  0  0  0
    7.8417  -13.0693   19.2024 C   0  0  2  0  0  0  0  0  0  0  0  0
    6.9993  -11.8480   19.5039 C   0  0  0  0  0  0  0  0  0  0  0  0
    7.4902  -14.1357   20.2005 C   0  0  0  0  0  0  0  0  0  0  0  0
    8.2994  -15.3899   20.0404 C   0  0  2  0  0  0  0  0  0  0  0  0
    7.4918  -16.5214   19.6375 N   0  0  0  0  0  0  0  0  0  0  0  0
    8.8939  -15.7112   21.3660 C   0  0  0  0  0  0  0  0  0  0  0  0
    8.1260  -15.6752   22.3919 O   0  0  0  0  0  0  0  0  0  0  0  0
    8.4314  -17.3881   23.3027 C   0  0  0  0  0  0  0  0  0  0  0  0
    9.8879  -17.7604   23.2554 C   0  0  1  0  0  0  0  0  0  0  0  0
   10.1196  -18.7794   22.3389 O   0  0  0  0  0  0  0  0  0  0  0  0
   10.6705  -16.5156   22.8603 C   0  0  2  0  0  0  0  0  0  0  0  0
   10.2583  -16.0544   21.5627 N   0  0  0  0  0  0  0  0  0  0  0  0
   12.1358  -16.7811   22.9101 C   0  0  0  0  0  0  0  0  0  0  0  0
   12.8777  -16.6911   21.9015 O   0  0  0  0  0  0  0  0  0  0  0  0
   12.7829  -17.1588   24.1302 N   0  0  0  0  0  0  0  0  0  0  0  0
   14.2141  -17.3593   24.2486 C   0  0  1  0  0  0  0  0  0  0  0  0
   14.8391  -15.9883   24.0333 C   0  0  0  0  0  0  0  0  0  0  0  0
   15.9399  -16.0000   23.0524 C   0  0  0  0  0  0  0  0  0  0  0  0
   17.0179  -15.4022   23.2574 O   0  0  0  0  0  0  0  0  0  0  0  0
   14.5885  -17.9516   25.5397 C   0  0  0  0  0  0  0  0  0  0  0  0
   13.9439  -17.7514   26.5969 O   0  0  0  0  0  0  0  0  0  0  0  0
   15.7776  -16.6928   21.8682 O   0  0  0  0  0  0  0  0  0  0  0  0
   15.7105  -18.7922   25.6678 O   0  0  0  0  0  0  0  0  0  0  0  0
  2  1  1  1
  2  3  1  0
  4  5  1  0
  4  2  1  0
  5  6  1  1
  5  7  1  0
  7  8  2  0
 10 12  1  0
 10  9  1  6
 11 10  1  0
 12 14  1  0
 13  7  1  0
 12 13  1  6
 14 15  2  0
 16 17  1  0
 16 14  1  0
 17 21  1  0
 17 18  1  1
 19 20  2  0
 19 18  1  0
 21 22  2  0
 21 24  1  0
 23 19  1  0
M  END
$$$$
