WVM.pdb
     RDKit          3D

 30 31  0  0  1  0  0  0  0  0999 V2000
    5.9997  -18.6201   24.4545 N   0  0  0  0  0  0  0  0  0  0  0  0
    6.5504  -17.2964   24.3301 C   0  0  1  0  0  0  0  0  0  0  0  0
    7.2243  -16.8091   25.5658 C   0  0  0  0  0  0  0  0  0  0  0  0
    6.7621  -15.5184   26.0810 C   0  0  0  0  0  0  0  0  0  0  0  0
    5.4893  -15.2036   26.5821 C   0  0  0  0  0  0  0  0  0  0  0  0
    5.4946  -13.9215   26.9728 N   0  0  0  0  0  0  0  0  0  0  0  0
    6.7199  -13.3576   26.7547 C   0  0  0  0  0  0  0  0  0  0  0  0
    7.1810  -12.0813   26.9919 C   0  0  0  0  0  0  0  0  0  0  0  0
    8.4766  -11.7457   26.6741 C   0  0  0  0  0  0  0  0  0  0  0  0
    9.2593  -12.7341   26.1212 C   0  0  0  0  0  0  0  0  0  0  0  0
    8.8107  -14.0134   25.8793 C   0  0  0  0  0  0  0  0  0  0  0  0
    7.5005  -14.3647   26.1979 C   0  0  0  0  0  0  0  0  0  0  0  0
    7.5463  -17.2057   23.2047 C   0  0  0  0  0  0  0  0  0  0  0  0
    8.2345  -18.2307   22.9690 O   0  0  0  0  0  0  0  0  0  0  0  0
    8.3416  -13.4411   20.8404 C   0  0  0  0  0  0  0  0  0  0  0  0
    8.3618  -14.8892   20.4409 C   0  0  2  0  0  0  0  0  0  0  0  0
    7.0273  -15.1811   19.7864 C   0  0  0  0  0  0  0  0  0  0  0  0
    8.7411  -15.8559   21.4884 C   0  0  2  0  0  0  0  0  0  0  0  0
    7.6575  -16.0008   22.4850 N   0  0  0  0  0  0  0  0  0  0  0  0
    9.9605  -15.6166   22.2491 C   0  0  0  0  0  0  0  0  0  0  0  0
   10.8590  -14.7813   21.8839 O   0  0  0  0  0  0  0  0  0  0  0  0
    9.8821  -12.6342   27.6866 C   0  0  0  0  0  0  0  0  0  0  0  0
   10.6317  -14.2338   28.0896 S   0  0  0  0  0  0  0  0  0  0  0  0
   11.4910  -14.8731   26.6724 C   0  0  0  0  0  0  0  0  0  0  0  0
   10.6842  -15.3131   25.5229 C   0  0  0  0  0  0  0  0  0  0  0  0
   11.3643  -15.8616   24.3116 C   0  0  2  0  0  0  0  0  0  0  0  0
   10.2210  -16.3018   23.4533 N   0  0  0  0  0  0  0  0  0  0  0  0
   12.1900  -17.0408   24.6082 C   0  0  0  0  0  0  0  0  0  0  0  0
   13.4394  -16.8342   25.2510 O   0  0  0  0  0  0  0  0  0  0  0  0
   11.8678  -18.2342   24.3312 O   0  0  0  0  0  0  0  0  0  0  0  0
  2  1  1  1
  2 13  1  0
  3  2  1  0
  3  4  1  0
  4  5  2  0
  4 12  1  0
  5  6  1  0
  6  7  1  0
  7  8  2  0
  8  9  1  0
 10  9  2  0
 11 10  1  0
 12 11  2  0
 12  7  1  0
 13 19  1  0
 13 14  2  0
 16 18  1  0
 16 15  1  1
 17 16  1  0
 18 20  1  0
 18 19  1  1
 20 21  2  0
 22 23  1  0
 23 24  1  0
 24 25  1  0
 26 25  1  1
 26 28  1  0
 27 26  1  0
 27 20  1  0
 28 29  1  0
 30 28  2  0
M  END
$$$$
