WVM.pdb
     RDKit          3D

 30 31  0  0  1  0  0  0  0  0999 V2000
    6.3149  -18.2305   25.4850 N   0  0  0  0  0  0  0  0  0  0  0  0
    6.6696  -16.9040   25.0546 C   0  0  1  0  0  0  0  0  0  0  0  0
    7.1231  -16.0161   26.1612 C   0  0  0  0  0  0  0  0  0  0  0  0
    6.2261  -14.9101   26.5035 C   0  0  0  0  0  0  0  0  0  0  0  0
    4.9068  -14.9936   26.9755 C   0  0  0  0  0  0  0  0  0  0  0  0
    4.4553  -13.7498   27.1891 N   0  0  0  0  0  0  0  0  0  0  0  0
    5.4168  -12.8296   26.8794 C   0  0  0  0  0  0  0  0  0  0  0  0
    5.3999  -11.4532   26.9353 C   0  0  0  0  0  0  0  0  0  0  0  0
    6.5097  -10.7338   26.5568 C   0  0  0  0  0  0  0  0  0  0  0  0
    7.6039  -11.4528   26.1317 C   0  0  0  0  0  0  0  0  0  0  0  0
    7.6337  -12.8283   26.0713 C   0  0  0  0  0  0  0  0  0  0  0  0
    6.5157  -13.5672   26.4530 C   0  0  0  0  0  0  0  0  0  0  0  0
    7.7573  -16.9230   24.0138 C   0  0  0  0  0  0  0  0  0  0  0  0
    8.6395  -17.8110   24.1279 O   0  0  0  0  0  0  0  0  0  0  0  0
    9.2875  -15.2638   19.5766 C   0  0  0  0  0  0  0  0  0  0  0  0
    8.4268  -15.1434   20.8020 C   0  0  2  0  0  0  0  0  0  0  0  0
    8.3385  -13.6676   21.1315 C   0  0  0  0  0  0  0  0  0  0  0  0
    8.7933  -15.9940   21.9500 C   0  0  2  0  0  0  0  0  0  0  0  0
    7.7352  -15.9637   22.9836 N   0  0  0  0  0  0  0  0  0  0  0  0
   10.0451  -15.7250   22.6452 C   0  0  0  0  0  0  0  0  0  0  0  0
   10.4034  -14.5516   23.0099 O   0  0  0  0  0  0  0  0  0  0  0  0
   11.1798  -13.7825   28.0578 C   0  0  0  0  0  0  0  0  0  0  0  0
   12.0228  -15.2266   27.3599 S   0  0  0  0  0  0  0  0  0  0  0  0
   11.6340  -15.3778   25.6333 C   0  0  0  0  0  0  0  0  0  0  0  0
   12.2499  -16.4867   24.8869 C   0  0  0  0  0  0  0  0  0  0  0  0
   12.3346  -16.4156   23.3975 C   0  0  2  0  0  0  0  0  0  0  0  0
   10.9456  -16.7619   22.9638 N   0  0  0  0  0  0  0  0  0  0  0  0
   13.2501  -17.4168   22.8317 C   0  0  0  0  0  0  0  0  0  0  0  0
   14.6318  -17.0950   22.7684 O   0  0  0  0  0  0  0  0  0  0  0  0
   12.8956  -18.5514   22.3939 O   0  0  0  0  0  0  0  0  0  0  0  0
  2  1  1  1
  2 13  1  0
  3  2  1  0
  3  4  1  0
  4  5  2  0
  4 12  1  0
  5  6  1  0
  6  7  1  0
  7  8  2  0
  8  9  1  0
 10  9  2  0
 11 10  1  0
 12 11  2  0
 12  7  1  0
 13 19  1  0
 13 14  2  0
 16 18  1  0
 16 15  1  6
 17 16  1  0
 18 20  1  0
 18 19  1  1
 20 21  2  0
 22 23  1  0
 23 24  1  0
 24 25  1  0
 26 25  1  1
 26 28  1  0
 27 26  1  0
 27 20  1  0
 28 29  1  0
 30 28  2  0
M  END
$$$$
