WVM.pdb
     RDKit          3D

 30 31  0  0  1  0  0  0  0  0999 V2000
    6.1494  -18.3838   24.6583 N   0  0  0  0  0  0  0  0  0  0  0  0
    6.9393  -17.2072   24.4081 C   0  0  1  0  0  0  0  0  0  0  0  0
    7.3366  -16.4780   25.6447 C   0  0  0  0  0  0  0  0  0  0  0  0
    6.6261  -15.2239   25.9049 C   0  0  0  0  0  0  0  0  0  0  0  0
    5.4860  -15.0363   26.7018 C   0  0  0  0  0  0  0  0  0  0  0  0
    5.1746  -13.7327   26.6930 N   0  0  0  0  0  0  0  0  0  0  0  0
    6.0584  -13.0326   25.9212 C   0  0  0  0  0  0  0  0  0  0  0  0
    6.1273  -11.6899   25.6205 C   0  0  0  0  0  0  0  0  0  0  0  0
    7.1242  -11.2173   24.7989 C   0  0  0  0  0  0  0  0  0  0  0  0
    8.0207  -12.1411   24.3109 C   0  0  0  0  0  0  0  0  0  0  0  0
    7.9630  -13.4855   24.6040 C   0  0  0  0  0  0  0  0  0  0  0  0
    6.9580  -13.9752   25.4357 C   0  0  0  0  0  0  0  0  0  0  0  0
    8.1979  -17.5270   23.6463 C   0  0  0  0  0  0  0  0  0  0  0  0
    8.8299  -18.5555   23.9963 O   0  0  0  0  0  0  0  0  0  0  0  0
    9.8711  -14.7999   20.5231 C   0  0  0  0  0  0  0  0  0  0  0  0
    9.9798  -16.2940   20.6353 C   0  0  2  0  0  0  0  0  0  0  0  0
    8.9467  -16.8796   19.6949 C   0  0  0  0  0  0  0  0  0  0  0  0
    9.9385  -16.8566   21.9982 C   0  0  2  0  0  0  0  0  0  0  0  0
    8.5992  -16.6751   22.5997 N   0  0  0  0  0  0  0  0  0  0  0  0
   10.8937  -16.3673   22.9834 C   0  0  0  0  0  0  0  0  0  0  0  0
   11.0974  -15.1223   23.2006 O   0  0  0  0  0  0  0  0  0  0  0  0
    9.9282  -14.6399   28.3555 C   0  0  0  0  0  0  0  0  0  0  0  0
   11.7149  -14.8200   28.1135 S   0  0  0  0  0  0  0  0  0  0  0  0
   12.0700  -16.4001   27.3836 C   0  0  0  0  0  0  0  0  0  0  0  0
   11.5543  -16.6610   26.0301 C   0  0  0  0  0  0  0  0  0  0  0  0
   12.5016  -16.7075   24.8765 C   0  0  2  0  0  0  0  0  0  0  0  0
   11.6578  -17.2542   23.7690 N   0  0  0  0  0  0  0  0  0  0  0  0
   13.6199  -17.6357   25.0961 C   0  0  0  0  0  0  0  0  0  0  0  0
   13.6144  -18.8649   24.3850 O   0  0  0  0  0  0  0  0  0  0  0  0
   14.5934  -17.4191   25.8773 O   0  0  0  0  0  0  0  0  0  0  0  0
  2  1  1  1
  2 13  1  0
  3  2  1  0
  3  4  1  0
  4  5  2  0
  4 12  1  0
  5  6  1  0
  6  7  1  0
  7  8  2  0
  8  9  1  0
 10  9  2  0
 11 10  1  0
 12 11  2  0
 12  7  1  0
 13 19  1  0
 13 14  2  0
 16 18  1  0
 16 15  1  1
 17 16  1  0
 18 20  1  0
 18 19  1  1
 20 21  2  0
 22 23  1  0
 23 24  1  0
 24 25  1  0
 26 25  1  1
 26 28  1  0
 27 26  1  0
 27 20  1  0
 28 29  1  0
 30 28  2  0
M  END
$$$$
