WVM.pdb
     RDKit          3D

 30 31  0  0  1  0  0  0  0  0999 V2000
    5.9461  -17.8321   24.7585 N   0  0  0  0  0  0  0  0  0  0  0  0
    6.7680  -16.6887   24.4622 C   0  0  1  0  0  0  0  0  0  0  0  0
    7.3293  -16.0245   25.6715 C   0  0  0  0  0  0  0  0  0  0  0  0
    6.5911  -14.8587   26.1627 C   0  0  0  0  0  0  0  0  0  0  0  0
    5.3341  -14.8430   26.7869 C   0  0  0  0  0  0  0  0  0  0  0  0
    5.0349  -13.5751   27.1019 N   0  0  0  0  0  0  0  0  0  0  0  0
    6.0394  -12.7337   26.7147 C   0  0  0  0  0  0  0  0  0  0  0  0
    6.1644  -11.3663   26.8260 C   0  0  0  0  0  0  0  0  0  0  0  0
    7.2877  -10.7348   26.3447 C   0  0  0  0  0  0  0  0  0  0  0  0
    8.2491  -11.5299   25.7626 C   0  0  0  0  0  0  0  0  0  0  0  0
    8.1364  -12.8974   25.6454 C   0  0  0  0  0  0  0  0  0  0  0  0
    7.0034  -13.5477   26.1301 C   0  0  0  0  0  0  0  0  0  0  0  0
    7.9222  -17.0442   23.5634 C   0  0  0  0  0  0  0  0  0  0  0  0
    8.4458  -18.1748   23.7287 O   0  0  0  0  0  0  0  0  0  0  0  0
    8.3134  -16.0794   19.6891 C   0  0  0  0  0  0  0  0  0  0  0  0
    9.5373  -15.7734   20.5048 C   0  0  2  0  0  0  0  0  0  0  0  0
   10.7347  -16.0887   19.6324 C   0  0  0  0  0  0  0  0  0  0  0  0
    9.5993  -16.3753   21.8500 C   0  0  2  0  0  0  0  0  0  0  0  0
    8.3519  -16.1114   22.6003 N   0  0  0  0  0  0  0  0  0  0  0  0
   10.6917  -15.9930   22.7349 C   0  0  0  0  0  0  0  0  0  0  0  0
   10.8827  -14.7904   23.1297 O   0  0  0  0  0  0  0  0  0  0  0  0
   10.4158  -13.4058   27.9083 C   0  0  0  0  0  0  0  0  0  0  0  0
   11.7689  -14.5184   27.4455 S   0  0  0  0  0  0  0  0  0  0  0  0
   11.5190  -15.1194   25.7927 C   0  0  0  0  0  0  0  0  0  0  0  0
   12.2097  -16.3591   25.4028 C   0  0  0  0  0  0  0  0  0  0  0  0
   12.7822  -16.4834   24.0289 C   0  0  2  0  0  0  0  0  0  0  0  0
   11.6136  -16.9445   23.2171 N   0  0  0  0  0  0  0  0  0  0  0  0
   13.8302  -17.5101   23.9404 C   0  0  0  0  0  0  0  0  0  0  0  0
   13.4291  -18.8527   23.7098 O   0  0  0  0  0  0  0  0  0  0  0  0
   15.0715  -17.2846   24.0555 O   0  0  0  0  0  0  0  0  0  0  0  0
  2  1  1  1
  2 13  1  0
  3  2  1  0
  3  4  1  0
  4  5  2  0
  4 12  1  0
  5  6  1  0
  6  7  1  0
  7  8  2  0
  8  9  1  0
 10  9  2  0
 11 10  1  0
 12 11  2  0
 12  7  1  0
 13 19  1  0
 13 14  2  0
 16 18  1  0
 16 15  1  6
 17 16  1  0
 18 20  1  0
 18 19  1  1
 20 21  2  0
 22 23  1  0
 23 24  1  0
 24 25  1  0
 26 25  1  1
 26 28  1  0
 27 26  1  0
 27 20  1  0
 28 29  1  0
 30 28  2  0
M  END
$$$$
