WVM.pdb
     RDKit          3D

 30 31  0  0  1  0  0  0  0  0999 V2000
   10.9307  -19.1574   18.6020 N   0  0  0  0  0  0  0  0  0  0  0  0
   10.8396  -18.9825   20.0275 C   0  0  1  0  0  0  0  0  0  0  0  0
   12.1620  -18.9355   20.7113 C   0  0  0  0  0  0  0  0  0  0  0  0
   12.9252  -20.1855   20.7165 C   0  0  0  0  0  0  0  0  0  0  0  0
   14.0279  -20.5177   19.9140 C   0  0  0  0  0  0  0  0  0  0  0  0
   14.4442  -21.7451   20.2557 N   0  0  0  0  0  0  0  0  0  0  0  0
   13.6661  -22.2553   21.2563 C   0  0  0  0  0  0  0  0  0  0  0  0
   13.7169  -23.4669   21.9101 C   0  0  0  0  0  0  0  0  0  0  0  0
   12.8023  -23.7577   22.8957 C   0  0  0  0  0  0  0  0  0  0  0  0
   11.8623  -22.7925   23.1788 C   0  0  0  0  0  0  0  0  0  0  0  0
   11.8010  -21.5778   22.5330 C   0  0  0  0  0  0  0  0  0  0  0  0
   12.7227  -21.2722   21.5336 C   0  0  0  0  0  0  0  0  0  0  0  0
   10.0953  -17.7259   20.3930 C   0  0  0  0  0  0  0  0  0  0  0  0
   10.3436  -16.6985   19.7129 O   0  0  0  0  0  0  0  0  0  0  0  0
    6.0833  -15.5363   21.6856 C   0  0  0  0  0  0  0  0  0  0  0  0
    7.0019  -16.6772   21.3518 C   0  0  2  0  0  0  0  0  0  0  0  0
    6.3262  -17.9410   21.8423 C   0  0  0  0  0  0  0  0  0  0  0  0
    8.4056  -16.5403   21.7839 C   0  0  2  0  0  0  0  0  0  0  0  0
    9.1755  -17.7609   21.4583 N   0  0  0  0  0  0  0  0  0  0  0  0
    8.6783  -16.2525   23.1859 C   0  0  0  0  0  0  0  0  0  0  0  0
    9.1380  -17.1253   24.0016 O   0  0  0  0  0  0  0  0  0  0  0  0
    5.5358  -11.3042   25.8407 C   0  0  0  0  0  0  0  0  0  0  0  0
    6.8450  -11.4864   27.0800 S   0  0  0  0  0  0  0  0  0  0  0  0
    7.6982  -13.0253   26.8365 C   0  0  0  0  0  0  0  0  0  0  0  0
    7.8844  -13.4942   25.4540 C   0  0  0  0  0  0  0  0  0  0  0  0
    8.6356  -14.7597   25.1995 C   0  0  2  0  0  0  0  0  0  0  0  0
    8.4502  -14.9723   23.7305 N   0  0  0  0  0  0  0  0  0  0  0  0
    8.0584  -15.9145   25.9020 C   0  0  0  0  0  0  0  0  0  0  0  0
    8.6615  -16.3214   27.1216 O   0  0  0  0  0  0  0  0  0  0  0  0
    7.0574  -16.5774   25.4976 O   0  0  0  0  0  0  0  0  0  0  0  0
  2  1  1  6
  2 13  1  0
  3  2  1  0
  3  4  1  0
  4  5  2  0
  4 12  1  0
  5  6  1  0
  6  7  1  0
  7  8  2  0
  8  9  1  0
 10  9  2  0
 11 10  1  0
 12 11  2  0
 12  7  1  0
 13 19  1  0
 13 14  2  0
 16 18  1  0
 16 15  1  1
 17 16  1  0
 18 20  1  0
 18 19  1  1
 20 21  2  0
 22 23  1  0
 23 24  1  0
 24 25  1  0
 26 25  1  1
 26 28  1  0
 27 26  1  0
 27 20  1  0
 28 29  1  0
 30 28  2  0
M  END
$$$$
