WVM.pdb
     RDKit          3D

 30 31  0  0  1  0  0  0  0  0999 V2000
    5.8435  -18.4095   24.0998 N   0  0  0  0  0  0  0  0  0  0  0  0
    6.3455  -17.0630   24.0233 C   0  0  1  0  0  0  0  0  0  0  0  0
    7.0396  -16.6109   25.2612 C   0  0  0  0  0  0  0  0  0  0  0  0
    6.4860  -15.4184   25.9067 C   0  0  0  0  0  0  0  0  0  0  0  0
    5.2941  -15.3188   26.6412 C   0  0  0  0  0  0  0  0  0  0  0  0
    5.1727  -14.0582   27.0801 N   0  0  0  0  0  0  0  0  0  0  0  0
    6.2348  -13.3023   26.6706 C   0  0  0  0  0  0  0  0  0  0  0  0
    6.5285  -11.9723   26.8767 C   0  0  0  0  0  0  0  0  0  0  0  0
    7.6758  -11.4290   26.3466 C   0  0  0  0  0  0  0  0  0  0  0  0
    8.4866  -12.2712   25.6197 C   0  0  0  0  0  0  0  0  0  0  0  0
    8.2046  -13.6022   25.4067 C   0  0  0  0  0  0  0  0  0  0  0  0
    7.0458  -14.1633   25.9395 C   0  0  0  0  0  0  0  0  0  0  0  0
    7.3035  -16.8850   22.8756 C   0  0  0  0  0  0  0  0  0  0  0  0
    7.8922  -17.9148   22.4600 O   0  0  0  0  0  0  0  0  0  0  0  0
    6.9021  -14.2074   19.7550 C   0  0  0  0  0  0  0  0  0  0  0  0
    8.2193  -14.2091   20.4773 C   0  0  2  0  0  0  0  0  0  0  0  0
    9.2821  -13.8782   19.4500 C   0  0  0  0  0  0  0  0  0  0  0  0
    8.5220  -15.4011   21.2918 C   0  0  2  0  0  0  0  0  0  0  0  0
    7.4911  -15.5991   22.3342 N   0  0  0  0  0  0  0  0  0  0  0  0
    9.8066  -15.4700   21.9756 C   0  0  0  0  0  0  0  0  0  0  0  0
   10.9271  -15.3285   21.3732 O   0  0  0  0  0  0  0  0  0  0  0  0
   10.1948  -13.5742   28.2342 C   0  0  0  0  0  0  0  0  0  0  0  0
   11.3747  -14.9482   28.1787 S   0  0  0  0  0  0  0  0  0  0  0  0
   11.8810  -15.2431   26.5018 C   0  0  0  0  0  0  0  0  0  0  0  0
   10.8311  -15.3274   25.4739 C   0  0  0  0  0  0  0  0  0  0  0  0
   11.2113  -15.5680   24.0498 C   0  0  2  0  0  0  0  0  0  0  0  0
    9.8878  -15.6969   23.3647 N   0  0  0  0  0  0  0  0  0  0  0  0
   11.9445  -16.8279   23.8622 C   0  0  0  0  0  0  0  0  0  0  0  0
   13.3460  -16.8231   24.0915 O   0  0  0  0  0  0  0  0  0  0  0  0
   11.4159  -17.9236   23.5089 O   0  0  0  0  0  0  0  0  0  0  0  0
  2  1  1  1
  2 13  1  0
  3  2  1  0
  3  4  1  0
  4  5  2  0
  4 12  1  0
  5  6  1  0
  6  7  1  0
  7  8  2  0
  8  9  1  0
 10  9  2  0
 11 10  1  0
 12 11  2  0
 12  7  1  0
 13 19  1  0
 13 14  2  0
 16 18  1  0
 16 15  1  6
 17 16  1  0
 18 20  1  0
 18 19  1  1
 20 21  2  0
 22 23  1  0
 23 24  1  0
 24 25  1  0
 26 25  1  1
 26 28  1  0
 27 26  1  0
 27 20  1  0
 28 29  1  0
 30 28  2  0
M  END
$$$$
