WVM.pdb
     RDKit          3D

 30 31  0  0  1  0  0  0  0  0999 V2000
    5.9368  -18.5890   24.6303 N   0  0  0  0  0  0  0  0  0  0  0  0
    6.3674  -17.2305   24.4305 C   0  0  1  0  0  0  0  0  0  0  0  0
    7.0342  -16.6321   25.6204 C   0  0  0  0  0  0  0  0  0  0  0  0
    6.4590  -15.3789   26.1142 C   0  0  0  0  0  0  0  0  0  0  0  0
    5.2154  -15.1962   26.7389 C   0  0  0  0  0  0  0  0  0  0  0  0
    5.0889  -13.9002   27.0566 N   0  0  0  0  0  0  0  0  0  0  0  0
    6.1971  -13.2003   26.6706 C   0  0  0  0  0  0  0  0  0  0  0  0
    6.5042  -11.8622   26.7847 C   0  0  0  0  0  0  0  0  0  0  0  0
    7.7020  -11.3860   26.3043 C   0  0  0  0  0  0  0  0  0  0  0  0
    8.5481  -12.3015   25.7203 C   0  0  0  0  0  0  0  0  0  0  0  0
    8.2532  -13.6413   25.6003 C   0  0  0  0  0  0  0  0  0  0  0  0
    7.0433  -14.1349   26.0841 C   0  0  0  0  0  0  0  0  0  0  0  0
    7.3170  -17.1072   23.2688 C   0  0  0  0  0  0  0  0  0  0  0  0
    7.9819  -18.1297   22.9654 O   0  0  0  0  0  0  0  0  0  0  0  0
    8.8207  -14.6052   19.2834 C   0  0  0  0  0  0  0  0  0  0  0  0
    7.9679  -14.7460   20.5121 C   0  0  2  0  0  0  0  0  0  0  0  0
    7.7543  -13.3496   21.0589 C   0  0  0  0  0  0  0  0  0  0  0  0
    8.4218  -15.7225   21.5201 C   0  0  2  0  0  0  0  0  0  0  0  0
    7.4135  -15.8766   22.5917 N   0  0  0  0  0  0  0  0  0  0  0  0
    9.6935  -15.4906   22.1921 C   0  0  0  0  0  0  0  0  0  0  0  0
   10.4575  -14.5005   21.9191 O   0  0  0  0  0  0  0  0  0  0  0  0
   10.6509  -13.6089   28.1025 C   0  0  0  0  0  0  0  0  0  0  0  0
    9.8978  -15.1833   27.6156 S   0  0  0  0  0  0  0  0  0  0  0  0
   10.0029  -15.3847   25.8539 C   0  0  0  0  0  0  0  0  0  0  0  0
   11.1349  -16.1582   25.3190 C   0  0  0  0  0  0  0  0  0  0  0  0
   11.4681  -16.0685   23.8659 C   0  0  2  0  0  0  0  0  0  0  0  0
   10.1597  -16.3576   23.2013 N   0  0  0  0  0  0  0  0  0  0  0  0
   12.4308  -17.0938   23.4390 C   0  0  0  0  0  0  0  0  0  0  0  0
   13.8112  -16.8449   23.6616 O   0  0  0  0  0  0  0  0  0  0  0  0
   12.1186  -18.1890   22.8841 O   0  0  0  0  0  0  0  0  0  0  0  0
  2  1  1  1
  2 13  1  0
  3  2  1  0
  3  4  1  0
  4  5  2  0
  4 12  1  0
  5  6  1  0
  6  7  1  0
  7  8  2  0
  8  9  1  0
 10  9  2  0
 11 10  1  0
 12 11  2  0
 12  7  1  0
 13 19  1  0
 13 14  2  0
 16 18  1  0
 16 15  1  6
 17 16  1  0
 18 20  1  0
 18 19  1  1
 20 21  2  0
 22 23  1  0
 23 24  1  0
 24 25  1  0
 26 25  1  1
 26 28  1  0
 27 26  1  0
 27 20  1  0
 28 29  1  0
 30 28  2  0
M  END
$$$$
