WVM.pdb
     RDKit          3D

 30 31  0  0  1  0  0  0  0  0999 V2000
    6.3251  -18.1971   24.6808 N   0  0  0  0  0  0  0  0  0  0  0  0
    7.0483  -16.9937   24.3653 C   0  0  1  0  0  0  0  0  0  0  0  0
    7.5084  -16.2392   25.5644 C   0  0  0  0  0  0  0  0  0  0  0  0
    6.6400  -15.1451   26.0048 C   0  0  0  0  0  0  0  0  0  0  0  0
    5.4748  -15.2378   26.7819 C   0  0  0  0  0  0  0  0  0  0  0  0
    4.9994  -14.0002   26.9793 N   0  0  0  0  0  0  0  0  0  0  0  0
    5.7967  -13.0756   26.3658 C   0  0  0  0  0  0  0  0  0  0  0  0
    5.6973  -11.7033   26.2952 C   0  0  0  0  0  0  0  0  0  0  0  0
    6.6365  -10.9786   25.5987 C   0  0  0  0  0  0  0  0  0  0  0  0
    7.6501  -11.6883   24.9952 C   0  0  0  0  0  0  0  0  0  0  0  0
    7.7609  -13.0595   25.0584 C   0  0  0  0  0  0  0  0  0  0  0  0
    6.8158  -13.8036   25.7617 C   0  0  0  0  0  0  0  0  0  0  0  0
    8.2578  -17.2721   23.5132 C   0  0  0  0  0  0  0  0  0  0  0  0
    8.6579  -18.4625   23.4635 O   0  0  0  0  0  0  0  0  0  0  0  0
    9.3815  -14.3966   20.4301 C   0  0  0  0  0  0  0  0  0  0  0  0
    9.4131  -15.8978   20.4773 C   0  0  2  0  0  0  0  0  0  0  0  0
    8.0640  -16.3795   19.9851 C   0  0  0  0  0  0  0  0  0  0  0  0
    9.8404  -16.5076   21.7506 C   0  0  2  0  0  0  0  0  0  0  0  0
    8.8712  -16.2067   22.8271 N   0  0  0  0  0  0  0  0  0  0  0  0
   11.1532  -16.1652   22.2814 C   0  0  0  0  0  0  0  0  0  0  0  0
   12.2448  -16.4186   21.6627 O   0  0  0  0  0  0  0  0  0  0  0  0
   11.5347  -14.0285   27.9751 C   0  0  0  0  0  0  0  0  0  0  0  0
   10.3991  -15.3313   27.4309 S   0  0  0  0  0  0  0  0  0  0  0  0
   11.3215  -16.7277   26.8355 C   0  0  0  0  0  0  0  0  0  0  0  0
   11.3713  -16.9462   25.3810 C   0  0  0  0  0  0  0  0  0  0  0  0
   12.2480  -16.0822   24.5352 C   0  0  2  0  0  0  0  0  0  0  0  0
   11.2963  -15.5206   23.5271 N   0  0  0  0  0  0  0  0  0  0  0  0
   13.2747  -16.8475   23.8137 C   0  0  0  0  0  0  0  0  0  0  0  0
   12.8431  -17.7903   22.8433 O   0  0  0  0  0  0  0  0  0  0  0  0
   14.5228  -16.7277   23.9947 O   0  0  0  0  0  0  0  0  0  0  0  0
  2  1  1  1
  2 13  1  0
  3  2  1  0
  3  4  1  0
  4  5  2  0
  4 12  1  0
  5  6  1  0
  6  7  1  0
  7  8  2  0
  8  9  1  0
 10  9  2  0
 11 10  1  0
 12 11  2  0
 12  7  1  0
 13 19  1  0
 13 14  2  0
 16 18  1  0
 16 15  1  1
 17 16  1  0
 18 20  1  0
 18 19  1  1
 20 21  2  0
 22 23  1  0
 23 24  1  0
 24 25  1  0
 26 25  1  1
 26 28  1  0
 27 26  1  0
 27 20  1  0
 28 29  1  0
 30 28  2  0
M  END
$$$$
