WVM.pdb
     RDKit          3D

 30 31  0  0  1  0  0  0  0  0999 V2000
    6.3009  -18.2605   24.6180 N   0  0  0  0  0  0  0  0  0  0  0  0
    6.6256  -16.8795   24.3770 C   0  0  1  0  0  0  0  0  0  0  0  0
    7.1333  -16.1643   25.5809 C   0  0  0  0  0  0  0  0  0  0  0  0
    6.2492  -15.1367   26.1357 C   0  0  0  0  0  0  0  0  0  0  0  0
    5.0666  -15.3297   26.8667 C   0  0  0  0  0  0  0  0  0  0  0  0
    4.5804  -14.1282   27.2079 N   0  0  0  0  0  0  0  0  0  0  0  0
    5.3870  -13.1315   26.7358 C   0  0  0  0  0  0  0  0  0  0  0  0
    5.2823  -11.7616   26.8374 C   0  0  0  0  0  0  0  0  0  0  0  0
    6.2338  -10.9524   26.2611 C   0  0  0  0  0  0  0  0  0  0  0  0
    7.2649  -11.5776   25.5969 C   0  0  0  0  0  0  0  0  0  0  0  0
    7.3812  -12.9455   25.4883 C   0  0  0  0  0  0  0  0  0  0  0  0
    6.4237  -13.7748   26.0688 C   0  0  0  0  0  0  0  0  0  0  0  0
    7.6563  -16.7260   23.2904 C   0  0  0  0  0  0  0  0  0  0  0  0
    8.4999  -17.6499   23.1708 O   0  0  0  0  0  0  0  0  0  0  0  0
    8.7542  -12.8988   20.9581 C   0  0  0  0  0  0  0  0  0  0  0  0
    8.3489  -14.2860   20.5477 C   0  0  2  0  0  0  0  0  0  0  0  0
    6.8771  -14.2254   20.1948 C   0  0  0  0  0  0  0  0  0  0  0  0
    8.6990  -15.3763   21.4775 C   0  0  2  0  0  0  0  0  0  0  0  0
    7.6269  -15.5773   22.4769 N   0  0  0  0  0  0  0  0  0  0  0  0
    9.9414  -15.2768   22.2320 C   0  0  0  0  0  0  0  0  0  0  0  0
   10.5803  -14.1781   22.3841 O   0  0  0  0  0  0  0  0  0  0  0  0
   11.4882  -15.0031   28.3349 C   0  0  0  0  0  0  0  0  0  0  0  0
   12.7844  -14.9012   27.0730 S   0  0  0  0  0  0  0  0  0  0  0  0
   12.6280  -16.2560   25.9347 C   0  0  0  0  0  0  0  0  0  0  0  0
   11.5409  -16.1967   24.9444 C   0  0  0  0  0  0  0  0  0  0  0  0
   11.8643  -16.2808   23.4887 C   0  0  2  0  0  0  0  0  0  0  0  0
   10.5171  -16.4052   22.8507 N   0  0  0  0  0  0  0  0  0  0  0  0
   12.6412  -17.4808   23.1473 C   0  0  0  0  0  0  0  0  0  0  0  0
   14.0321  -17.4775   23.4344 O   0  0  0  0  0  0  0  0  0  0  0  0
   12.1593  -18.5234   22.6128 O   0  0  0  0  0  0  0  0  0  0  0  0
  2  1  1  1
  2 13  1  0
  3  2  1  0
  3  4  1  0
  4  5  2  0
  4 12  1  0
  5  6  1  0
  6  7  1  0
  7  8  2  0
  8  9  1  0
 10  9  2  0
 11 10  1  0
 12 11  2  0
 12  7  1  0
 13 19  1  0
 13 14  2  0
 16 18  1  0
 16 15  1  1
 17 16  1  0
 18 20  1  0
 18 19  1  1
 20 21  2  0
 22 23  1  0
 23 24  1  0
 24 25  1  0
 26 25  1  1
 26 28  1  0
 27 26  1  0
 27 20  1  0
 28 29  1  0
 30 28  2  0
M  END
$$$$
