WVM.pdb
     RDKit          3D

 30 31  0  0  1  0  0  0  0  0999 V2000
    6.0497  -17.5521   25.1874 N   0  0  0  0  0  0  0  0  0  0  0  0
    6.7494  -16.3746   24.7461 C   0  0  1  0  0  0  0  0  0  0  0  0
    7.8305  -15.9374   25.6728 C   0  0  0  0  0  0  0  0  0  0  0  0
    7.4416  -14.9659   26.6975 C   0  0  0  0  0  0  0  0  0  0  0  0
    7.3255  -15.1808   28.0797 C   0  0  0  0  0  0  0  0  0  0  0  0
    6.9714  -14.0249   28.6584 N   0  0  0  0  0  0  0  0  0  0  0  0
    6.8429  -13.0381   27.7221 C   0  0  0  0  0  0  0  0  0  0  0  0
    6.4953  -11.7113   27.8513 C   0  0  0  0  0  0  0  0  0  0  0  0
    6.4256  -10.9050   26.7389 C   0  0  0  0  0  0  0  0  0  0  0  0
    6.7154  -11.4888   25.5263 C   0  0  0  0  0  0  0  0  0  0  0  0
    7.0642  -12.8133   25.3837 C   0  0  0  0  0  0  0  0  0  0  0  0
    7.1387  -13.6390   26.5036 C   0  0  0  0  0  0  0  0  0  0  0  0
    7.3673  -16.5647   23.3864 C   0  0  0  0  0  0  0  0  0  0  0  0
    7.8062  -17.7108   23.1153 O   0  0  0  0  0  0  0  0  0  0  0  0
    8.1173  -14.7411   18.8207 C   0  0  0  0  0  0  0  0  0  0  0  0
    7.5834  -14.6430   20.2215 C   0  0  2  0  0  0  0  0  0  0  0  0
    7.7807  -13.2082   20.6654 C   0  0  0  0  0  0  0  0  0  0  0  0
    8.0779  -15.6433   21.1861 C   0  0  2  0  0  0  0  0  0  0  0  0
    7.4234  -15.4711   22.5016 N   0  0  0  0  0  0  0  0  0  0  0  0
    9.5089  -15.7072   21.4519 C   0  0  0  0  0  0  0  0  0  0  0  0
   10.1400  -14.8021   22.1007 O   0  0  0  0  0  0  0  0  0  0  0  0
   11.7930  -18.6189   25.5768 C   0  0  0  0  0  0  0  0  0  0  0  0
   11.6917  -16.8104   25.5312 S   0  0  0  0  0  0  0  0  0  0  0  0
   11.6670  -16.2484   23.8463 C   0  0  0  0  0  0  0  0  0  0  0  0
   11.7349  -17.2647   22.7840 C   0  0  0  0  0  0  0  0  0  0  0  0
   11.7451  -16.8362   21.3533 C   0  0  2  0  0  0  0  0  0  0  0  0
   10.2913  -16.7913   21.0044 N   0  0  0  0  0  0  0  0  0  0  0  0
   12.3939  -17.8164   20.4709 C   0  0  0  0  0  0  0  0  0  0  0  0
   13.7664  -17.6261   20.1597 O   0  0  0  0  0  0  0  0  0  0  0  0
   11.8162  -18.8237   19.9647 O   0  0  0  0  0  0  0  0  0  0  0  0
  2  1  1  1
  2 13  1  0
  3  2  1  0
  3  4  1  0
  4  5  2  0
  4 12  1  0
  5  6  1  0
  6  7  1  0
  7  8  2  0
  8  9  1  0
 10  9  2  0
 11 10  1  0
 12 11  2  0
 12  7  1  0
 13 19  1  0
 13 14  2  0
 16 18  1  0
 16 15  1  6
 17 16  1  0
 18 20  1  0
 18 19  1  1
 20 21  2  0
 22 23  1  0
 23 24  1  0
 24 25  1  0
 26 25  1  1
 26 28  1  0
 27 26  1  0
 27 20  1  0
 28 29  1  0
 30 28  2  0
M  END
$$$$
