WVM.pdb
     RDKit          3D

 30 31  0  0  1  0  0  0  0  0999 V2000
    6.0317  -18.6220   24.0530 N   0  0  0  0  0  0  0  0  0  0  0  0
    6.5302  -17.2721   24.0423 C   0  0  1  0  0  0  0  0  0  0  0  0
    7.0515  -16.8153   25.3607 C   0  0  0  0  0  0  0  0  0  0  0  0
    6.4664  -15.5804   25.8879 C   0  0  0  0  0  0  0  0  0  0  0  0
    5.1735  -15.3986   26.4032 C   0  0  0  0  0  0  0  0  0  0  0  0
    5.0530  -14.1244   26.8013 N   0  0  0  0  0  0  0  0  0  0  0  0
    6.2127  -13.4383   26.5746 C   0  0  0  0  0  0  0  0  0  0  0  0
    6.5446  -12.1230   26.8148 C   0  0  0  0  0  0  0  0  0  0  0  0
    7.7964  -11.6565   26.4865 C   0  0  0  0  0  0  0  0  0  0  0  0
    8.6693  -12.5579   25.9202 C   0  0  0  0  0  0  0  0  0  0  0  0
    8.3500  -13.8749   25.6752 C   0  0  0  0  0  0  0  0  0  0  0  0
    7.0854  -14.3585   26.0044 C   0  0  0  0  0  0  0  0  0  0  0  0
    7.6303  -17.0874   23.0312 C   0  0  0  0  0  0  0  0  0  0  0  0
    8.2496  -18.1191   22.6683 O   0  0  0  0  0  0  0  0  0  0  0  0
    8.9204  -13.0919   21.3351 C   0  0  0  0  0  0  0  0  0  0  0  0
    8.6976  -14.4334   20.6968 C   0  0  2  0  0  0  0  0  0  0  0  0
    7.3056  -14.4083   20.1001 C   0  0  0  0  0  0  0  0  0  0  0  0
    8.9697  -15.6153   21.5364 C   0  0  2  0  0  0  0  0  0  0  0  0
    7.9076  -15.7934   22.5507 N   0  0  0  0  0  0  0  0  0  0  0  0
   10.2333  -15.6812   22.2586 C   0  0  0  0  0  0  0  0  0  0  0  0
   11.3333  -15.2300   21.7844 O   0  0  0  0  0  0  0  0  0  0  0  0
    9.7823  -14.2352   28.6240 C   0  0  0  0  0  0  0  0  0  0  0  0
   11.3234  -14.0148   27.6968 S   0  0  0  0  0  0  0  0  0  0  0  0
   11.0821  -14.4874   26.0016 C   0  0  0  0  0  0  0  0  0  0  0  0
   11.2714  -15.9044   25.6518 C   0  0  0  0  0  0  0  0  0  0  0  0
   11.6333  -16.2761   24.2513 C   0  0  2  0  0  0  0  0  0  0  0  0
   10.3150  -16.2526   23.5449 N   0  0  0  0  0  0  0  0  0  0  0  0
   12.1801  -17.6365   24.1474 C   0  0  0  0  0  0  0  0  0  0  0  0
   13.5137  -17.8532   24.5849 O   0  0  0  0  0  0  0  0  0  0  0  0
   11.5463  -18.6351   23.6938 O   0  0  0  0  0  0  0  0  0  0  0  0
  2  1  1  1
  2 13  1  0
  3  2  1  0
  3  4  1  0
  4  5  2  0
  4 12  1  0
  5  6  1  0
  6  7  1  0
  7  8  2  0
  8  9  1  0
 10  9  2  0
 11 10  1  0
 12 11  2  0
 12  7  1  0
 13 19  1  0
 13 14  2  0
 16 18  1  0
 16 15  1  1
 17 16  1  0
 18 20  1  0
 18 19  1  1
 20 21  2  0
 22 23  1  0
 23 24  1  0
 24 25  1  0
 26 25  1  1
 26 28  1  0
 27 26  1  0
 27 20  1  0
 28 29  1  0
 30 28  2  0
M  END
$$$$
