WVM.pdb
     RDKit          3D

 30 31  0  0  1  0  0  0  0  0999 V2000
    7.8833  -18.0093   21.0082 N   0  0  0  0  0  0  0  0  0  0  0  0
    8.5716  -16.9970   21.7647 C   0  0  1  0  0  0  0  0  0  0  0  0
    7.7274  -15.8135   22.0891 C   0  0  0  0  0  0  0  0  0  0  0  0
    7.2770  -15.0154   20.9466 C   0  0  0  0  0  0  0  0  0  0  0  0
    6.0061  -15.0158   20.3508 C   0  0  0  0  0  0  0  0  0  0  0  0
    6.0078  -14.1221   19.3520 N   0  0  0  0  0  0  0  0  0  0  0  0
    7.2294  -13.5187   19.2489 C   0  0  0  0  0  0  0  0  0  0  0  0
    7.6895  -12.5557   18.3778 C   0  0  0  0  0  0  0  0  0  0  0  0
    8.9859  -12.1050   18.4699 C   0  0  0  0  0  0  0  0  0  0  0  0
    9.7705  -12.6595   19.4560 C   0  0  0  0  0  0  0  0  0  0  0  0
    9.3227  -13.6224   20.3328 C   0  0  0  0  0  0  0  0  0  0  0  0
    8.0112  -14.0857   20.2492 C   0  0  0  0  0  0  0  0  0  0  0  0
    9.1140  -17.5362   23.0615 C   0  0  0  0  0  0  0  0  0  0  0  0
    8.3112  -18.1628   23.7980 O   0  0  0  0  0  0  0  0  0  0  0  0
   13.4140  -17.7420   24.0437 C   0  0  0  0  0  0  0  0  0  0  0  0
   12.2275  -18.4968   24.5722 C   0  0  2  0  0  0  0  0  0  0  0  0
   12.1011  -19.7539   23.7366 C   0  0  0  0  0  0  0  0  0  0  0  0
   10.9706  -17.7368   24.7072 C   0  0  2  0  0  0  0  0  0  0  0  0
   10.4673  -17.3163   23.3811 N   0  0  0  0  0  0  0  0  0  0  0  0
   10.9652  -16.5408   25.5393 C   0  0  0  0  0  0  0  0  0  0  0  0
   11.7006  -15.5206   25.3008 O   0  0  0  0  0  0  0  0  0  0  0  0
    6.6707  -12.2971   26.5400 C   0  0  0  0  0  0  0  0  0  0  0  0
    6.8287  -12.8878   28.2456 S   0  0  0  0  0  0  0  0  0  0  0  0
    8.4186  -13.6452   28.4784 C   0  0  0  0  0  0  0  0  0  0  0  0
    8.7892  -14.7503   27.5798 C   0  0  0  0  0  0  0  0  0  0  0  0
   10.2083  -15.2125   27.5261 C   0  0  2  0  0  0  0  0  0  0  0  0
   10.1317  -16.4378   26.6716 N   0  0  0  0  0  0  0  0  0  0  0  0
   10.7275  -15.6086   28.8429 C   0  0  0  0  0  0  0  0  0  0  0  0
   11.0786  -14.5802   29.7570 O   0  0  0  0  0  0  0  0  0  0  0  0
   10.8859  -16.8062   29.2245 O   0  0  0  0  0  0  0  0  0  0  0  0
  2  1  1  1
  2 13  1  0
  3  2  1  0
  3  4  1  0
  4  5  2  0
  4 12  1  0
  5  6  1  0
  6  7  1  0
  7  8  2  0
  8  9  1  0
 10  9  2  0
 11 10  1  0
 12 11  2  0
 12  7  1  0
 13 19  1  0
 13 14  2  0
 16 18  1  0
 16 15  1  6
 17 16  1  0
 18 20  1  0
 18 19  1  6
 20 21  2  0
 22 23  1  0
 23 24  1  0
 24 25  1  0
 26 25  1  1
 26 28  1  0
 27 26  1  0
 27 20  1  0
 28 29  1  0
 30 28  2  0
M  END
$$$$
