WVM.pdb
     RDKit          3D

 30 31  0  0  1  0  0  0  0  0999 V2000
    6.0782  -18.3961   25.1112 N   0  0  0  0  0  0  0  0  0  0  0  0
    6.4474  -17.0493   24.7640 C   0  0  1  0  0  0  0  0  0  0  0  0
    6.9437  -16.2478   25.9172 C   0  0  0  0  0  0  0  0  0  0  0  0
    6.1987  -15.0220   26.2133 C   0  0  0  0  0  0  0  0  0  0  0  0
    4.8327  -14.9028   26.5134 C   0  0  0  0  0  0  0  0  0  0  0  0
    4.5626  -13.6106   26.7451 N   0  0  0  0  0  0  0  0  0  0  0  0
    5.6915  -12.8523   26.6125 C   0  0  0  0  0  0  0  0  0  0  0  0
    5.8884  -11.4957   26.7495 C   0  0  0  0  0  0  0  0  0  0  0  0
    7.1392  -10.9572   26.5547 C   0  0  0  0  0  0  0  0  0  0  0  0
    8.1501  -11.8313   26.2244 C   0  0  0  0  0  0  0  0  0  0  0  0
    7.9665  -13.1889   26.0847 C   0  0  0  0  0  0  0  0  0  0  0  0
    6.7041  -13.7454   26.2804 C   0  0  0  0  0  0  0  0  0  0  0  0
    7.5094  -17.0149   23.6975 C   0  0  0  0  0  0  0  0  0  0  0  0
    8.3909  -17.9097   23.7424 O   0  0  0  0  0  0  0  0  0  0  0  0
    9.1258  -15.0187   19.4345 C   0  0  0  0  0  0  0  0  0  0  0  0
    8.1812  -15.0479   20.6023 C   0  0  2  0  0  0  0  0  0  0  0  0
    7.9000  -13.6066   20.9737 C   0  0  0  0  0  0  0  0  0  0  0  0
    8.5714  -15.8969   21.7436 C   0  0  2  0  0  0  0  0  0  0  0  0
    7.4657  -16.0019   22.7208 N   0  0  0  0  0  0  0  0  0  0  0  0
    9.7553  -15.5325   22.5106 C   0  0  0  0  0  0  0  0  0  0  0  0
   10.0251  -14.3279   22.8489 O   0  0  0  0  0  0  0  0  0  0  0  0
   12.1688  -14.3927   27.9621 C   0  0  0  0  0  0  0  0  0  0  0  0
   10.6669  -15.2318   27.3936 S   0  0  0  0  0  0  0  0  0  0  0  0
   10.6784  -15.3577   25.6217 C   0  0  0  0  0  0  0  0  0  0  0  0
   11.7317  -16.1761   24.9999 C   0  0  0  0  0  0  0  0  0  0  0  0
   11.9823  -16.0639   23.5318 C   0  0  2  0  0  0  0  0  0  0  0  0
   10.6843  -16.5050   22.9335 N   0  0  0  0  0  0  0  0  0  0  0  0
   13.0328  -16.9787   23.0629 C   0  0  0  0  0  0  0  0  0  0  0  0
   14.3845  -16.5629   23.1929 O   0  0  0  0  0  0  0  0  0  0  0  0
   12.8205  -18.1166   22.5483 O   0  0  0  0  0  0  0  0  0  0  0  0
  2  1  1  1
  2 13  1  0
  3  2  1  0
  3  4  1  0
  4  5  2  0
  4 12  1  0
  5  6  1  0
  6  7  1  0
  7  8  2  0
  8  9  1  0
 10  9  2  0
 11 10  1  0
 12 11  2  0
 12  7  1  0
 13 19  1  0
 13 14  2  0
 16 18  1  0
 16 15  1  6
 17 16  1  0
 18 20  1  0
 18 19  1  1
 20 21  2  0
 22 23  1  0
 23 24  1  0
 24 25  1  0
 26 25  1  1
 26 28  1  0
 27 26  1  0
 27 20  1  0
 28 29  1  0
 30 28  2  0
M  END
$$$$
