LKG.pdb
     RDKit          3D

 22 21  0  0  1  0  0  0  0  0999 V2000
   19.4318  -17.6373  -12.3508 C   0  0  0  0  0  0  0  0  0  0  0  0
   19.8146  -18.5094  -13.5196 C   0  0  2  0  0  0  0  0  0  0  0  0
   20.5108  -19.7700  -13.0490 C   0  0  0  0  0  0  0  0  0  0  0  0
   20.7039  -17.7978  -14.4922 C   0  0  0  0  0  0  0  0  0  0  0  0
   20.1031  -16.5468  -15.0651 C   0  0  2  0  0  0  0  0  0  0  0  0
   18.6746  -16.6455  -15.1795 N   0  0  0  0  0  0  0  0  0  0  0  0
   20.7214  -16.3576  -16.4227 C   0  0  0  0  0  0  0  0  0  0  0  0
   21.9654  -16.2684  -16.5708 O   0  0  0  0  0  0  0  0  0  0  0  0
   19.9241  -16.2718  -17.5945 N   0  0  0  0  0  0  0  0  0  0  0  0
   20.5268  -15.9793  -18.8910 C   0  0  1  0  0  0  0  0  0  0  0  0
   20.1484  -17.0693  -19.8247 C   0  0  0  0  0  0  0  0  0  0  0  0
   21.1429  -18.1609  -19.9965 C   0  0  0  0  0  0  0  0  0  0  0  0
   20.9378  -19.1390  -18.8402 C   0  0  0  0  0  0  0  0  0  0  0  0
   21.8994  -20.2993  -18.9342 C   0  0  0  0  0  0  0  0  0  0  0  0
   21.7311  -21.1327  -17.7626 N   0  0  0  0  0  0  0  0  0  0  0  0
   20.2070  -14.6224  -19.2934 C   0  0  0  0  0  0  0  0  0  0  0  0
   20.5329  -14.1920  -20.4186 O   0  0  0  0  0  0  0  0  0  0  0  0
   19.5153  -13.7585  -18.4119 N   0  0  0  0  0  0  0  0  0  0  0  0
   19.1468  -12.4134  -18.7603 C   0  0  0  0  0  0  0  0  0  0  0  0
   17.7093  -12.3828  -19.1005 C   0  0  0  0  0  0  0  0  0  0  0  0
   17.0876  -11.1861  -19.3698 O   0  0  0  0  0  0  0  0  0  0  0  0
   17.0525  -13.4526  -19.1441 O   0  0  0  0  0  0  0  0  0  0  0  0
  2  1  1  1
  2  4  1  0
  2  3  1  0
  5  7  1  0
  5  4  1  0
  5  6  1  6
  7  8  2  0
  9 10  1  0
  9  7  1  0
 11 12  1  0
 10 11  1  6
 12 13  1  0
 13 14  1  0
 14 15  1  0
 16 18  1  0
 16 10  1  0
 17 16  2  0
 19 20  1  0
 19 18  1  0
 20 21  1  0
 22 20  2  0
M  END
$$$$
