LKG.pdb
     RDKit          3D

 22 21  0  0  1  0  0  0  0  0999 V2000
   16.8712  -20.6190  -16.6008 C   0  0  0  0  0  0  0  0  0  0  0  0
   17.1224  -19.4956  -15.6271 C   0  0  2  0  0  0  0  0  0  0  0  0
   16.4201  -19.7541  -14.3098 C   0  0  0  0  0  0  0  0  0  0  0  0
   16.6775  -18.1695  -16.1626 C   0  0  0  0  0  0  0  0  0  0  0  0
   17.5072  -17.0113  -15.6888 C   0  0  2  0  0  0  0  0  0  0  0  0
   17.9393  -17.1856  -14.3299 N   0  0  0  0  0  0  0  0  0  0  0  0
   16.6410  -15.7877  -15.8059 C   0  0  0  0  0  0  0  0  0  0  0  0
   16.0761  -15.4844  -16.8858 O   0  0  0  0  0  0  0  0  0  0  0  0
   16.4255  -14.9239  -14.6998 N   0  0  0  0  0  0  0  0  0  0  0  0
   15.6759  -13.6814  -14.8545 C   0  0  1  0  0  0  0  0  0  0  0  0
   14.6204  -13.6543  -13.8113 C   0  0  0  0  0  0  0  0  0  0  0  0
   13.5398  -14.6666  -13.9447 C   0  0  0  0  0  0  0  0  0  0  0  0
   12.5840  -14.4578  -12.7706 C   0  0  0  0  0  0  0  0  0  0  0  0
   11.4657  -15.4722  -12.7946 C   0  0  0  0  0  0  0  0  0  0  0  0
   10.6581  -15.2952  -11.6063 N   0  0  0  0  0  0  0  0  0  0  0  0
   16.5873  -12.5535  -14.9033 C   0  0  0  0  0  0  0  0  0  0  0  0
   17.6547  -12.5611  -14.2565 O   0  0  0  0  0  0  0  0  0  0  0  0
   16.2801  -11.4184  -15.6902 N   0  0  0  0  0  0  0  0  0  0  0  0
   17.1023  -10.2397  -15.7213 C   0  0  0  0  0  0  0  0  0  0  0  0
   16.9120   -9.4888  -14.4631 C   0  0  0  0  0  0  0  0  0  0  0  0
   17.5513   -8.2864  -14.2717 O   0  0  0  0  0  0  0  0  0  0  0  0
   16.1640   -9.9495  -13.5652 O   0  0  0  0  0  0  0  0  0  0  0  0
  2  1  1  6
  2  4  1  0
  2  3  1  0
  5  7  1  0
  5  4  1  0
  5  6  1  1
  7  8  2  0
  9 10  1  0
  9  7  1  0
 11 12  1  0
 10 11  1  1
 12 13  1  0
 13 14  1  0
 14 15  1  0
 16 18  1  0
 16 10  1  0
 17 16  2  0
 19 20  1  0
 19 18  1  0
 20 21  1  0
 22 20  2  0
M  END
$$$$
