LKG.pdb
     RDKit          3D

 22 21  0  0  1  0  0  0  0  0999 V2000
   26.8593  -15.8713  -15.1829 C   0  0  0  0  0  0  0  0  0  0  0  0
   26.0251  -15.8378  -16.4384 C   0  0  2  0  0  0  0  0  0  0  0  0
   26.8411  -16.2640  -17.6417 C   0  0  0  0  0  0  0  0  0  0  0  0
   25.4463  -14.4815  -16.6999 C   0  0  0  0  0  0  0  0  0  0  0  0
   24.6268  -13.9391  -15.5646 C   0  0  2  0  0  0  0  0  0  0  0  0
   23.6322  -14.8793  -15.1284 N   0  0  0  0  0  0  0  0  0  0  0  0
   23.9698  -12.6851  -16.0716 C   0  0  0  0  0  0  0  0  0  0  0  0
   24.6319  -11.7794  -16.6361 O   0  0  0  0  0  0  0  0  0  0  0  0
   22.5728  -12.4725  -15.9330 N   0  0  0  0  0  0  0  0  0  0  0  0
   21.9465  -11.2551  -16.4381 C   0  0  1  0  0  0  0  0  0  0  0  0
   20.6021  -11.6156  -16.9538 C   0  0  0  0  0  0  0  0  0  0  0  0
   20.5721  -12.5390  -18.1186 C   0  0  0  0  0  0  0  0  0  0  0  0
   19.5960  -13.6631  -17.7732 C   0  0  0  0  0  0  0  0  0  0  0  0
   19.4852  -14.6529  -18.9081 C   0  0  0  0  0  0  0  0  0  0  0  0
   18.7171  -15.7920  -18.4520 N   0  0  0  0  0  0  0  0  0  0  0  0
   22.0116  -10.2091  -15.4346 C   0  0  0  0  0  0  0  0  0  0  0  0
   21.9134  -10.4769  -14.2196 O   0  0  0  0  0  0  0  0  0  0  0  0
   22.1892   -8.8589  -15.8185 N   0  0  0  0  0  0  0  0  0  0  0  0
   22.2540   -7.7770  -14.8742 C   0  0  0  0  0  0  0  0  0  0  0  0
   20.9147   -7.1647  -14.7537 C   0  0  0  0  0  0  0  0  0  0  0  0
   20.6997   -6.1419  -13.8601 O   0  0  0  0  0  0  0  0  0  0  0  0
   19.9693   -7.5792  -15.4694 O   0  0  0  0  0  0  0  0  0  0  0  0
  2  1  1  1
  2  4  1  0
  2  3  1  0
  5  7  1  0
  5  4  1  0
  5  6  1  6
  7  8  2  0
  9 10  1  0
  9  7  1  0
 11 12  1  0
 10 11  1  1
 12 13  1  0
 13 14  1  0
 14 15  1  0
 16 18  1  0
 16 10  1  0
 17 16  2  0
 19 20  1  0
 19 18  1  0
 20 21  1  0
 22 20  2  0
M  END
$$$$
