LKG.pdb
     RDKit          3D

 22 21  0  0  1  0  0  0  0  0999 V2000
   28.2784  -20.4794   -9.8207 C   0  0  0  0  0  0  0  0  0  0  0  0
   28.3590  -21.1326  -11.1771 C   0  0  2  0  0  0  0  0  0  0  0  0
   29.6578  -20.7783  -11.8720 C   0  0  0  0  0  0  0  0  0  0  0  0
   27.2139  -20.7472  -12.0622 C   0  0  0  0  0  0  0  0  0  0  0  0
   25.8651  -20.9314  -11.4290 C   0  0  2  0  0  0  0  0  0  0  0  0
   25.7836  -22.1649  -10.6974 N   0  0  0  0  0  0  0  0  0  0  0  0
   24.8616  -20.9240  -12.5489 C   0  0  0  0  0  0  0  0  0  0  0  0
   24.7156  -19.9227  -13.2929 O   0  0  0  0  0  0  0  0  0  0  0  0
   24.0367  -22.0494  -12.8121 N   0  0  0  0  0  0  0  0  0  0  0  0
   23.1267  -22.0609  -13.9528 C   0  0  1  0  0  0  0  0  0  0  0  0
   23.3771  -23.3056  -14.7218 C   0  0  0  0  0  0  0  0  0  0  0  0
   24.7141  -23.4243  -15.3609 C   0  0  0  0  0  0  0  0  0  0  0  0
   24.7875  -24.8154  -15.9894 C   0  0  0  0  0  0  0  0  0  0  0  0
   26.1047  -25.0215  -16.6983 C   0  0  0  0  0  0  0  0  0  0  0  0
   26.1222  -26.3563  -17.2581 N   0  0  0  0  0  0  0  0  0  0  0  0
   21.7670  -21.8208  -13.5068 C   0  0  0  0  0  0  0  0  0  0  0  0
   21.4234  -22.0647  -12.3320 O   0  0  0  0  0  0  0  0  0  0  0  0
   20.8012  -21.3023  -14.4014 N   0  0  0  0  0  0  0  0  0  0  0  0
   19.4100  -21.1714  -14.0641 C   0  0  0  0  0  0  0  0  0  0  0  0
   19.0545  -19.7374  -14.0431 C   0  0  0  0  0  0  0  0  0  0  0  0
   19.5182  -18.8954  -15.0266 O   0  0  0  0  0  0  0  0  0  0  0  0
   18.3265  -19.2854  -13.1246 O   0  0  0  0  0  0  0  0  0  0  0  0
  2  1  1  1
  2  4  1  0
  2  3  1  0
  5  7  1  0
  5  4  1  0
  5  6  1  6
  7  8  2  0
  9 10  1  0
  9  7  1  0
 11 12  1  0
 10 11  1  1
 12 13  1  0
 13 14  1  0
 14 15  1  0
 16 18  1  0
 16 10  1  0
 17 16  2  0
 19 20  1  0
 19 18  1  0
 20 21  1  0
 22 20  2  0
M  END
$$$$
