LKG.pdb
     RDKit          3D

 22 21  0  0  1  0  0  0  0  0999 V2000
   23.9714  -14.3147  -16.4310 C   0  0  0  0  0  0  0  0  0  0  0  0
   24.7086  -13.2013  -17.1310 C   0  0  2  0  0  0  0  0  0  0  0  0
   26.0597  -12.9598  -16.4894 C   0  0  0  0  0  0  0  0  0  0  0  0
   23.9346  -11.9190  -17.1302 C   0  0  0  0  0  0  0  0  0  0  0  0
   23.9056  -11.2252  -15.7990 C   0  0  2  0  0  0  0  0  0  0  0  0
   23.1468  -11.9647  -14.8290 N   0  0  0  0  0  0  0  0  0  0  0  0
   23.2792   -9.8781  -16.0318 C   0  0  0  0  0  0  0  0  0  0  0  0
   23.7643   -9.0619  -16.8539 O   0  0  0  0  0  0  0  0  0  0  0  0
   22.1126   -9.4725  -15.3313 N   0  0  0  0  0  0  0  0  0  0  0  0
   21.4622   -8.2013  -15.6321 C   0  0  1  0  0  0  0  0  0  0  0  0
   19.9994   -8.4436  -15.6993 C   0  0  0  0  0  0  0  0  0  0  0  0
   19.5274   -9.3044  -16.8157 C   0  0  0  0  0  0  0  0  0  0  0  0
   18.4356  -10.2120  -16.2500 C   0  0  0  0  0  0  0  0  0  0  0  0
   17.9622  -11.2021  -17.2870 C   0  0  0  0  0  0  0  0  0  0  0  0
   16.9646  -12.0598  -16.6829 N   0  0  0  0  0  0  0  0  0  0  0  0
   21.9218   -7.1775  -14.7123 C   0  0  0  0  0  0  0  0  0  0  0  0
   22.1305   -7.4403  -13.5102 O   0  0  0  0  0  0  0  0  0  0  0  0
   22.1433   -5.8555  -15.1651 N   0  0  0  0  0  0  0  0  0  0  0  0
   22.6019   -4.7984  -14.3056 C   0  0  0  0  0  0  0  0  0  0  0  0
   21.4311   -4.0713  -13.7731 C   0  0  0  0  0  0  0  0  0  0  0  0
   21.6081   -2.9634  -12.9779 O   0  0  0  0  0  0  0  0  0  0  0  0
   20.2705   -4.4656  -14.0472 O   0  0  0  0  0  0  0  0  0  0  0  0
  2  1  1  1
  2  4  1  0
  2  3  1  0
  5  7  1  0
  5  4  1  0
  5  6  1  1
  7  8  2  0
  9 10  1  0
  9  7  1  0
 11 12  1  0
 10 11  1  1
 12 13  1  0
 13 14  1  0
 14 15  1  0
 16 18  1  0
 16 10  1  0
 17 16  2  0
 19 20  1  0
 19 18  1  0
 20 21  1  0
 22 20  2  0
M  END
$$$$
