LKG.pdb
     RDKit          3D

 22 21  0  0  1  0  0  0  0  0999 V2000
   25.3840  -20.9950   -7.9642 C   0  0  0  0  0  0  0  0  0  0  0  0
   26.6356  -20.2420   -8.3375 C   0  0  2  0  0  0  0  0  0  0  0  0
   26.6808  -18.8928   -7.6498 C   0  0  0  0  0  0  0  0  0  0  0  0
   26.7558  -20.0374   -9.8163 C   0  0  0  0  0  0  0  0  0  0  0  0
   26.5688  -21.2904  -10.6223 C   0  0  2  0  0  0  0  0  0  0  0  0
   27.8259  -21.8790  -10.9919 N   0  0  0  0  0  0  0  0  0  0  0  0
   25.7972  -20.8976  -11.8518 C   0  0  0  0  0  0  0  0  0  0  0  0
   26.3464  -20.2937  -12.8063 O   0  0  0  0  0  0  0  0  0  0  0  0
   24.4148  -21.1931  -11.9848 N   0  0  0  0  0  0  0  0  0  0  0  0
   23.7372  -21.0449  -13.2687 C   0  0  1  0  0  0  0  0  0  0  0  0
   22.6431  -22.0465  -13.3237 C   0  0  0  0  0  0  0  0  0  0  0  0
   21.7783  -22.0078  -14.5323 C   0  0  0  0  0  0  0  0  0  0  0  0
   21.6884  -23.4378  -15.0639 C   0  0  0  0  0  0  0  0  0  0  0  0
   20.8176  -23.5048  -16.2957 C   0  0  0  0  0  0  0  0  0  0  0  0
   20.7945  -24.8726  -16.7692 N   0  0  0  0  0  0  0  0  0  0  0  0
   23.3746  -19.6563  -13.4823 C   0  0  0  0  0  0  0  0  0  0  0  0
   22.9277  -18.9579  -12.5495 O   0  0  0  0  0  0  0  0  0  0  0  0
   23.5226  -19.0662  -14.7597 N   0  0  0  0  0  0  0  0  0  0  0  0
   23.2445  -17.6801  -15.0204 C   0  0  0  0  0  0  0  0  0  0  0  0
   21.8534  -17.5522  -15.5014 C   0  0  0  0  0  0  0  0  0  0  0  0
   21.1165  -18.6760  -15.7935 O   0  0  0  0  0  0  0  0  0  0  0  0
   21.3416  -16.4140  -15.6443 O   0  0  0  0  0  0  0  0  0  0  0  0
  2  1  1  6
  2  4  1  0
  2  3  1  0
  5  7  1  0
  5  4  1  0
  5  6  1  6
  7  8  2  0
  9 10  1  0
  9  7  1  0
 11 12  1  0
 10 11  1  1
 12 13  1  0
 13 14  1  0
 14 15  1  0
 16 18  1  0
 16 10  1  0
 17 16  2  0
 19 20  1  0
 19 18  1  0
 20 21  1  0
 22 20  2  0
M  END
$$$$
