LKG.pdb
     RDKit          3D

 22 21  0  0  1  0  0  0  0  0999 V2000
   29.5759  -19.2860  -17.5843 C   0  0  0  0  0  0  0  0  0  0  0  0
   28.4354  -19.1479  -18.5606 C   0  0  2  0  0  0  0  0  0  0  0  0
   27.8860  -17.7360  -18.5547 C   0  0  0  0  0  0  0  0  0  0  0  0
   27.3199  -20.1041  -18.2700 C   0  0  0  0  0  0  0  0  0  0  0  0
   27.7773  -21.5042  -17.9785 C   0  0  2  0  0  0  0  0  0  0  0  0
   28.4587  -22.0869  -19.1009 N   0  0  0  0  0  0  0  0  0  0  0  0
   26.5433  -22.2983  -17.6501 C   0  0  0  0  0  0  0  0  0  0  0  0
   25.6093  -22.4325  -18.4788 O   0  0  0  0  0  0  0  0  0  0  0  0
   26.3827  -22.9298  -16.3885 N   0  0  0  0  0  0  0  0  0  0  0  0
   25.2457  -23.8070  -16.1292 C   0  0  1  0  0  0  0  0  0  0  0  0
   25.7768  -25.1439  -15.7637 C   0  0  0  0  0  0  0  0  0  0  0  0
   26.5937  -25.8309  -16.7985 C   0  0  0  0  0  0  0  0  0  0  0  0
   27.0959  -27.1346  -16.1791 C   0  0  0  0  0  0  0  0  0  0  0  0
   27.9675  -27.8955  -17.1493 C   0  0  0  0  0  0  0  0  0  0  0  0
   28.4888  -29.0675  -16.4783 N   0  0  0  0  0  0  0  0  0  0  0  0
   24.3355  -23.1773  -15.1909 C   0  0  0  0  0  0  0  0  0  0  0  0
   24.7421  -22.3258  -14.3740 O   0  0  0  0  0  0  0  0  0  0  0  0
   22.9626  -23.5193  -15.1860 N   0  0  0  0  0  0  0  0  0  0  0  0
   22.0327  -23.0179  -14.2112 C   0  0  0  0  0  0  0  0  0  0  0  0
   20.6780  -23.5026  -14.5469 C   0  0  0  0  0  0  0  0  0  0  0  0
   19.6190  -23.2284  -13.7135 O   0  0  0  0  0  0  0  0  0  0  0  0
   20.4922  -24.1670  -15.5966 O   0  0  0  0  0  0  0  0  0  0  0  0
  2  1  1  1
  2  4  1  0
  2  3  1  0
  5  7  1  0
  5  4  1  0
  5  6  1  6
  7  8  2  0
  9 10  1  0
  9  7  1  0
 11 12  1  0
 10 11  1  1
 12 13  1  0
 13 14  1  0
 14 15  1  0
 16 18  1  0
 16 10  1  0
 17 16  2  0
 19 20  1  0
 19 18  1  0
 20 21  1  0
 22 20  2  0
M  END
$$$$
