LKG.pdb
     RDKit          3D

 22 21  0  0  1  0  0  0  0  0999 V2000
   28.2786  -21.1011   -7.3029 C   0  0  0  0  0  0  0  0  0  0  0  0
   28.0540  -19.8133   -8.0539 C   0  0  2  0  0  0  0  0  0  0  0  0
   27.5494  -18.7269   -7.1264 C   0  0  0  0  0  0  0  0  0  0  0  0
   27.0844  -19.9762   -9.1837 C   0  0  0  0  0  0  0  0  0  0  0  0
   27.4960  -21.0050  -10.1969 C   0  0  2  0  0  0  0  0  0  0  0  0
   28.8160  -20.7543  -10.7051 N   0  0  0  0  0  0  0  0  0  0  0  0
   26.4883  -20.9361  -11.3109 C   0  0  0  0  0  0  0  0  0  0  0  0
   26.6094  -20.1177  -12.2559 O   0  0  0  0  0  0  0  0  0  0  0  0
   25.3572  -21.7939  -11.3409 N   0  0  0  0  0  0  0  0  0  0  0  0
   24.4618  -21.8130  -12.4930 C   0  0  1  0  0  0  0  0  0  0  0  0
   24.0957  -23.2263  -12.7610 C   0  0  0  0  0  0  0  0  0  0  0  0
   23.7636  -23.5621  -14.1706 C   0  0  0  0  0  0  0  0  0  0  0  0
   25.0829  -23.8608  -14.8820 C   0  0  0  0  0  0  0  0  0  0  0  0
   24.8527  -24.1810  -16.3396 C   0  0  0  0  0  0  0  0  0  0  0  0
   26.1348  -24.4279  -16.9647 N   0  0  0  0  0  0  0  0  0  0  0  0
   23.3738  -20.8741  -12.2931 C   0  0  0  0  0  0  0  0  0  0  0  0
   23.0200  -20.5352  -11.1452 O   0  0  0  0  0  0  0  0  0  0  0  0
   22.6910  -20.3227  -13.4028 N   0  0  0  0  0  0  0  0  0  0  0  0
   21.5499  -19.4583  -13.2714 C   0  0  0  0  0  0  0  0  0  0  0  0
   21.0496  -19.1162  -14.6188 C   0  0  0  0  0  0  0  0  0  0  0  0
   19.8775  -18.4117  -14.7632 O   0  0  0  0  0  0  0  0  0  0  0  0
   21.6964  -19.4695  -15.6360 O   0  0  0  0  0  0  0  0  0  0  0  0
  2  1  1  1
  2  4  1  0
  2  3  1  0
  5  7  1  0
  5  4  1  0
  5  6  1  6
  7  8  2  0
  9 10  1  0
  9  7  1  0
 11 12  1  0
 10 11  1  1
 12 13  1  0
 13 14  1  0
 14 15  1  0
 16 18  1  0
 16 10  1  0
 17 16  2  0
 19 20  1  0
 19 18  1  0
 20 21  1  0
 22 20  2  0
M  END
$$$$
