LKG.pdb
     RDKit          3D

 22 21  0  0  1  0  0  0  0  0999 V2000
   28.0406  -20.0129   -4.0747 C   0  0  0  0  0  0  0  0  0  0  0  0
   28.7336  -19.3494   -5.2377 C   0  0  2  0  0  0  0  0  0  0  0  0
   29.4068  -18.0632   -4.8042 C   0  0  0  0  0  0  0  0  0  0  0  0
   27.7928  -19.0494   -6.3637 C   0  0  0  0  0  0  0  0  0  0  0  0
   27.0376  -20.2473   -6.8628 C   0  0  2  0  0  0  0  0  0  0  0  0
   27.8899  -21.3955   -7.0000 N   0  0  0  0  0  0  0  0  0  0  0  0
   26.4618  -19.8648   -8.1982 C   0  0  0  0  0  0  0  0  0  0  0  0
   25.9162  -18.7486   -8.3823 O   0  0  0  0  0  0  0  0  0  0  0  0
   26.5110  -20.7500   -9.3073 N   0  0  0  0  0  0  0  0  0  0  0  0
   25.8428  -20.4176  -10.5613 C   0  0  1  0  0  0  0  0  0  0  0  0
   26.7417  -20.8132  -11.6743 C   0  0  0  0  0  0  0  0  0  0  0  0
   26.2469  -20.5341  -13.0481 C   0  0  0  0  0  0  0  0  0  0  0  0
   27.2722  -21.1175  -14.0199 C   0  0  0  0  0  0  0  0  0  0  0  0
   26.8803  -20.8419  -15.4518 C   0  0  0  0  0  0  0  0  0  0  0  0
   27.9226  -21.3476  -16.3198 N   0  0  0  0  0  0  0  0  0  0  0  0
   24.4992  -20.9653  -10.5693 C   0  0  0  0  0  0  0  0  0  0  0  0
   24.1720  -21.8772   -9.7825 O   0  0  0  0  0  0  0  0  0  0  0  0
   23.5303  -20.4716  -11.4746 N   0  0  0  0  0  0  0  0  0  0  0  0
   22.1398  -20.3333  -11.1370 C   0  0  0  0  0  0  0  0  0  0  0  0
   21.3616  -20.1426  -12.3783 C   0  0  0  0  0  0  0  0  0  0  0  0
   21.9993  -20.1090  -13.5962 O   0  0  0  0  0  0  0  0  0  0  0  0
   20.1137  -20.0107  -12.3218 O   0  0  0  0  0  0  0  0  0  0  0  0
  2  1  1  1
  2  4  1  0
  2  3  1  0
  5  7  1  0
  5  4  1  0
  5  6  1  6
  7  8  2  0
  9 10  1  0
  9  7  1  0
 11 12  1  0
 10 11  1  6
 12 13  1  0
 13 14  1  0
 14 15  1  0
 16 18  1  0
 16 10  1  0
 17 16  2  0
 19 20  1  0
 19 18  1  0
 20 21  1  0
 22 20  2  0
M  END
$$$$
