LKG.pdb
     RDKit          3D

 22 21  0  0  1  0  0  0  0  0999 V2000
   28.6212  -12.8558  -15.4815 C   0  0  0  0  0  0  0  0  0  0  0  0
   28.0432  -12.3960  -16.7959 C   0  0  2  0  0  0  0  0  0  0  0  0
   29.1413  -12.1151  -17.8012 C   0  0  0  0  0  0  0  0  0  0  0  0
   27.1966  -11.1696  -16.6462 C   0  0  0  0  0  0  0  0  0  0  0  0
   26.0617  -11.3269  -15.6759 C   0  0  2  0  0  0  0  0  0  0  0  0
   25.4175  -12.6037  -15.8115 N   0  0  0  0  0  0  0  0  0  0  0  0
   25.0885  -10.2195  -15.9719 C   0  0  0  0  0  0  0  0  0  0  0  0
   25.4659   -9.0272  -16.0865 O   0  0  0  0  0  0  0  0  0  0  0  0
   23.7014  -10.4760  -16.1344 N   0  0  0  0  0  0  0  0  0  0  0  0
   22.7738   -9.3984  -16.4630 C   0  0  1  0  0  0  0  0  0  0  0  0
   21.5971  -10.0013  -17.1377 C   0  0  0  0  0  0  0  0  0  0  0  0
   21.8149  -10.4895  -18.5249 C   0  0  0  0  0  0  0  0  0  0  0  0
   20.4910  -11.0851  -19.0026 C   0  0  0  0  0  0  0  0  0  0  0  0
   20.6249  -11.6599  -20.3924 C   0  0  0  0  0  0  0  0  0  0  0  0
   19.3301  -12.1510  -20.8141 N   0  0  0  0  0  0  0  0  0  0  0  0
   22.5187   -8.5862  -15.2881 C   0  0  0  0  0  0  0  0  0  0  0  0
   22.4803   -9.0965  -14.1498 O   0  0  0  0  0  0  0  0  0  0  0  0
   22.3082   -7.1926  -15.4131 N   0  0  0  0  0  0  0  0  0  0  0  0
   21.9300   -6.3542  -14.3084 C   0  0  0  0  0  0  0  0  0  0  0  0
   21.8327   -4.9567  -14.7782 C   0  0  0  0  0  0  0  0  0  0  0  0
   21.4657   -3.9581  -13.9070 O   0  0  0  0  0  0  0  0  0  0  0  0
   22.0859   -4.6793  -15.9768 O   0  0  0  0  0  0  0  0  0  0  0  0
  2  1  1  1
  2  4  1  0
  2  3  1  0
  5  7  1  0
  5  4  1  0
  5  6  1  6
  7  8  2  0
  9 10  1  0
  9  7  1  0
 11 12  1  0
 10 11  1  1
 12 13  1  0
 13 14  1  0
 14 15  1  0
 16 18  1  0
 16 10  1  0
 17 16  2  0
 19 20  1  0
 19 18  1  0
 20 21  1  0
 22 20  2  0
M  END
$$$$
