LKG.pdb
     RDKit          3D

 22 21  0  0  1  0  0  0  0  0999 V2000
   28.6285  -19.1974  -15.2401 C   0  0  0  0  0  0  0  0  0  0  0  0
   27.5721  -19.5545  -16.2548 C   0  0  2  0  0  0  0  0  0  0  0  0
   27.3004  -18.3905  -17.1856 C   0  0  0  0  0  0  0  0  0  0  0  0
   26.2856  -19.9729  -15.6122 C   0  0  0  0  0  0  0  0  0  0  0  0
   26.4426  -21.0506  -14.5786 C   0  0  2  0  0  0  0  0  0  0  0  0
   26.8140  -22.3061  -15.1697 N   0  0  0  0  0  0  0  0  0  0  0  0
   25.1142  -21.1755  -13.8849 C   0  0  0  0  0  0  0  0  0  0  0  0
   24.2039  -21.9127  -14.3378 O   0  0  0  0  0  0  0  0  0  0  0  0
   24.8337  -20.4647  -12.6881 N   0  0  0  0  0  0  0  0  0  0  0  0
   23.5214  -20.5509  -12.0557 C   0  0  1  0  0  0  0  0  0  0  0  0
   23.6700  -20.1285  -10.6405 C   0  0  0  0  0  0  0  0  0  0  0  0
   22.4293  -20.1300   -9.8215 C   0  0  0  0  0  0  0  0  0  0  0  0
   22.1282  -21.5861   -9.4684 C   0  0  0  0  0  0  0  0  0  0  0  0
   20.8523  -21.6976   -8.6687 C   0  0  0  0  0  0  0  0  0  0  0  0
   20.5817  -23.0989   -8.4265 N   0  0  0  0  0  0  0  0  0  0  0  0
   22.5363  -19.8480  -12.8561 C   0  0  0  0  0  0  0  0  0  0  0  0
   22.6933  -18.6479  -13.1607 O   0  0  0  0  0  0  0  0  0  0  0  0
   21.3735  -20.5152  -13.3086 N   0  0  0  0  0  0  0  0  0  0  0  0
   20.2563  -19.8305  -13.8998 C   0  0  0  0  0  0  0  0  0  0  0  0
   20.4440  -19.7820  -15.3646 C   0  0  0  0  0  0  0  0  0  0  0  0
   19.9799  -20.8066  -16.1557 O   0  0  0  0  0  0  0  0  0  0  0  0
   21.0292  -18.8022  -15.8894 O   0  0  0  0  0  0  0  0  0  0  0  0
  2  1  1  1
  2  4  1  0
  2  3  1  0
  5  7  1  0
  5  4  1  0
  5  6  1  6
  7  8  2  0
  9 10  1  0
  9  7  1  0
 11 12  1  0
 10 11  1  1
 12 13  1  0
 13 14  1  0
 14 15  1  0
 16 18  1  0
 16 10  1  0
 17 16  2  0
 19 20  1  0
 19 18  1  0
 20 21  1  0
 22 20  2  0
M  END
$$$$
