LKG.pdb
     RDKit          3D

 22 21  0  0  1  0  0  0  0  0999 V2000
   27.4387  -19.3455   -4.5088 C   0  0  0  0  0  0  0  0  0  0  0  0
   28.1955  -20.1040   -5.5695 C   0  0  2  0  0  0  0  0  0  0  0  0
   29.6834  -19.8375   -5.4676 C   0  0  0  0  0  0  0  0  0  0  0  0
   27.7342  -19.7597   -6.9523 C   0  0  0  0  0  0  0  0  0  0  0  0
   26.2688  -19.9927   -7.1818 C   0  0  2  0  0  0  0  0  0  0  0  0
   25.8900  -21.3446   -6.8780 N   0  0  0  0  0  0  0  0  0  0  0  0
   26.0098  -19.6938   -8.6326 C   0  0  0  0  0  0  0  0  0  0  0  0
   26.2576  -18.5652   -9.1247 O   0  0  0  0  0  0  0  0  0  0  0  0
   25.4738  -20.6757   -9.5071 N   0  0  0  0  0  0  0  0  0  0  0  0
   25.1572  -20.3509  -10.8941 C   0  0  1  0  0  0  0  0  0  0  0  0
   25.9786  -21.2279  -11.7655 C   0  0  0  0  0  0  0  0  0  0  0  0
   27.3908  -20.8114  -11.9712 C   0  0  0  0  0  0  0  0  0  0  0  0
   27.9890  -21.7572  -13.0119 C   0  0  0  0  0  0  0  0  0  0  0  0
   29.4074  -21.3648  -13.3497 C   0  0  0  0  0  0  0  0  0  0  0  0
   29.9731  -22.3806  -14.2121 N   0  0  0  0  0  0  0  0  0  0  0  0
   23.7204  -20.3766  -11.0954 C   0  0  0  0  0  0  0  0  0  0  0  0
   22.9669  -20.9440  -10.2781 O   0  0  0  0  0  0  0  0  0  0  0  0
   23.1451  -19.7545  -12.2285 N   0  0  0  0  0  0  0  0  0  0  0  0
   21.7274  -19.5846  -12.3949 C   0  0  0  0  0  0  0  0  0  0  0  0
   21.1451  -20.8551  -12.8744 C   0  0  0  0  0  0  0  0  0  0  0  0
   19.9902  -21.3433  -12.3097 O   0  0  0  0  0  0  0  0  0  0  0  0
   21.7062  -21.4917  -13.8005 O   0  0  0  0  0  0  0  0  0  0  0  0
  2  1  1  1
  2  4  1  0
  2  3  1  0
  5  7  1  0
  5  4  1  0
  5  6  1  6
  7  8  2  0
  9 10  1  0
  9  7  1  0
 11 12  1  0
 10 11  1  6
 12 13  1  0
 13 14  1  0
 14 15  1  0
 16 18  1  0
 16 10  1  0
 17 16  2  0
 19 20  1  0
 19 18  1  0
 20 21  1  0
 22 20  2  0
M  END
$$$$
