LKG.pdb
     RDKit          3D

 22 21  0  0  1  0  0  0  0  0999 V2000
   28.5683  -19.2042  -14.4142 C   0  0  0  0  0  0  0  0  0  0  0  0
   27.3686  -19.4173  -15.3021 C   0  0  2  0  0  0  0  0  0  0  0  0
   27.0702  -18.1747  -16.1159 C   0  0  0  0  0  0  0  0  0  0  0  0
   26.1455  -19.7934  -14.5239 C   0  0  0  0  0  0  0  0  0  0  0  0
   26.3282  -20.9968  -13.6449 C   0  0  2  0  0  0  0  0  0  0  0  0
   26.5869  -22.1832  -14.4124 N   0  0  0  0  0  0  0  0  0  0  0  0
   25.0543  -21.1522  -12.8612 C   0  0  0  0  0  0  0  0  0  0  0  0
   24.1516  -21.9454  -13.2264 O   0  0  0  0  0  0  0  0  0  0  0  0
   24.8187  -20.4081  -11.6750 N   0  0  0  0  0  0  0  0  0  0  0  0
   23.5693  -20.5536  -10.9351 C   0  0  1  0  0  0  0  0  0  0  0  0
   23.8391  -20.2131   -9.5158 C   0  0  0  0  0  0  0  0  0  0  0  0
   22.6769  -20.2849   -8.5915 C   0  0  0  0  0  0  0  0  0  0  0  0
   22.3086  -21.7614   -8.4498 C   0  0  0  0  0  0  0  0  0  0  0  0
   21.0915  -21.9350   -7.5731 C   0  0  0  0  0  0  0  0  0  0  0  0
   20.7538  -23.3419   -7.5279 N   0  0  0  0  0  0  0  0  0  0  0  0
   22.5086  -19.8212  -11.6013 C   0  0  0  0  0  0  0  0  0  0  0  0
   22.4139  -18.5819  -11.4880 O   0  0  0  0  0  0  0  0  0  0  0  0
   21.5575  -20.5034  -12.3961 N   0  0  0  0  0  0  0  0  0  0  0  0
   20.4413  -19.8469  -13.0204 C   0  0  0  0  0  0  0  0  0  0  0  0
   19.6645  -20.8444  -13.7850 C   0  0  0  0  0  0  0  0  0  0  0  0
   18.5266  -20.4666  -14.4584 O   0  0  0  0  0  0  0  0  0  0  0  0
   20.0441  -22.0412  -13.8206 O   0  0  0  0  0  0  0  0  0  0  0  0
  2  1  1  1
  2  4  1  0
  2  3  1  0
  5  7  1  0
  5  4  1  0
  5  6  1  6
  7  8  2  0
  9 10  1  0
  9  7  1  0
 11 12  1  0
 10 11  1  1
 12 13  1  0
 13 14  1  0
 14 15  1  0
 16 18  1  0
 16 10  1  0
 17 16  2  0
 19 20  1  0
 19 18  1  0
 20 21  1  0
 22 20  2  0
M  END
$$$$
