DQV.pdb
     RDKit          3D

 25 24  0  0  1  0  0  0  0  0999 V2000
   15.0562  -13.3034  -17.1363 N   0  0  0  0  0  0  0  0  0  0  0  0
   16.0078  -13.0298  -16.0794 C   0  0  1  0  0  0  0  0  0  0  0  0
   16.9291  -14.2252  -15.8923 C   0  0  0  0  0  0  0  0  0  0  0  0
   16.1467  -15.2834  -15.2038 C   0  0  0  0  0  0  0  0  0  0  0  0
   14.9565  -15.0492  -14.8537 O   0  0  0  0  0  0  0  0  0  0  0  0
   16.7780  -11.7863  -16.3401 C   0  0  0  0  0  0  0  0  0  0  0  0
   17.6827  -11.8723  -17.2257 O   0  0  0  0  0  0  0  0  0  0  0  0
   16.6556  -16.5406  -14.9161 O   0  0  0  0  0  0  0  0  0  0  0  0
   14.3326   -6.7717  -15.1278 N   0  0  0  0  0  0  0  0  0  0  0  0
   14.4149   -7.1723  -16.4777 C   0  0  0  0  0  0  0  0  0  0  0  0
   13.4935   -6.8782  -17.2618 O   0  0  0  0  0  0  0  0  0  0  0  0
   15.5767   -7.9335  -16.9699 C   0  0  0  0  0  0  0  0  0  0  0  0
   16.5881   -8.1191  -15.8660 C   0  0  0  0  0  0  0  0  0  0  0  0
   17.3252   -9.4234  -15.9586 C   0  0  2  0  0  0  0  0  0  0  0  0
   16.5434  -10.5683  -15.6623 N   0  0  0  0  0  0  0  0  0  0  0  0
   18.4881   -9.3590  -15.0361 C   0  0  0  0  0  0  0  0  0  0  0  0
   18.3319   -9.5759  -13.8073 O   0  0  0  0  0  0  0  0  0  0  0  0
   21.7690  -11.1512  -15.4099 C   0  0  0  0  0  0  0  0  0  0  0  0
   22.1187   -9.6743  -15.2750 C   0  0  2  0  0  0  0  0  0  0  0  0
   23.2994   -9.5968  -14.3168 C   0  0  0  0  0  0  0  0  0  0  0  0
   20.9411   -8.9730  -14.6579 C   0  0  2  0  0  0  0  0  0  0  0  0
   19.7809   -9.0550  -15.5209 N   0  0  0  0  0  0  0  0  0  0  0  0
   21.2986   -7.5588  -14.4421 C   0  0  0  0  0  0  0  0  0  0  0  0
   21.0228   -6.7035  -15.3206 O   0  0  0  0  0  0  0  0  0  0  0  0
   21.9364   -7.1377  -13.2884 O   0  0  0  0  0  0  0  0  0  0  0  0
  2  3  1  0
  2  1  1  6
  3  4  1  0
  4  5  2  0
  6  2  1  0
  7  6  2  0
  8  4  1  0
  9 10  1  0
 10 12  1  0
 11 10  2  0
 13 12  1  0
 14 13  1  1
 14 15  1  0
 15  6  1  0
 16 14  1  0
 16 17  2  0
 19 18  1  1
 20 19  1  0
 21 22  1  6
 21 19  1  0
 22 16  1  0
 23 21  1  0
 24 23  2  0
 25 23  1  0
M  END
$$$$
