DQV.pdb
     RDKit          3D

 25 24  0  0  1  0  0  0  0  0999 V2000
   19.4458  -10.4399  -19.6937 N   0  0  0  0  0  0  0  0  0  0  0  0
   19.4316  -10.4794  -18.2460 C   0  0  1  0  0  0  0  0  0  0  0  0
   19.4239  -11.9235  -17.7692 C   0  0  0  0  0  0  0  0  0  0  0  0
   18.1178  -12.5120  -18.1612 C   0  0  0  0  0  0  0  0  0  0  0  0
   17.7348  -13.5895  -17.6261 O   0  0  0  0  0  0  0  0  0  0  0  0
   20.5686   -9.7213  -17.6631 C   0  0  0  0  0  0  0  0  0  0  0  0
   20.6132   -9.6800  -16.3957 O   0  0  0  0  0  0  0  0  0  0  0  0
   17.2751  -11.9368  -19.1000 O   0  0  0  0  0  0  0  0  0  0  0  0
   25.9544   -9.9039  -17.9942 N   0  0  0  0  0  0  0  0  0  0  0  0
   26.0680   -8.5509  -17.6123 C   0  0  0  0  0  0  0  0  0  0  0  0
   27.0826   -8.1698  -16.9996 O   0  0  0  0  0  0  0  0  0  0  0  0
   25.0015   -7.5847  -17.9297 C   0  0  0  0  0  0  0  0  0  0  0  0
   23.8688   -8.2719  -18.6514 C   0  0  0  0  0  0  0  0  0  0  0  0
   22.6281   -8.3933  -17.8153 C   0  0  2  0  0  0  0  0  0  0  0  0
   21.5552   -9.0754  -18.4425 N   0  0  0  0  0  0  0  0  0  0  0  0
   22.1963   -7.0236  -17.4348 C   0  0  0  0  0  0  0  0  0  0  0  0
   21.9795   -6.1603  -18.3232 O   0  0  0  0  0  0  0  0  0  0  0  0
   20.8744   -6.3025  -13.5365 C   0  0  0  0  0  0  0  0  0  0  0  0
   20.4731   -5.4022  -14.6985 C   0  0  2  0  0  0  0  0  0  0  0  0
   19.2952   -6.0819  -15.3833 C   0  0  0  0  0  0  0  0  0  0  0  0
   21.6280   -5.3410  -15.6585 C   0  0  2  0  0  0  0  0  0  0  0  0
   22.0227   -6.6701  -16.0770 N   0  0  0  0  0  0  0  0  0  0  0  0
   22.7604   -4.6767  -14.9869 C   0  0  0  0  0  0  0  0  0  0  0  0
   22.6989   -3.4491  -14.7253 O   0  0  0  0  0  0  0  0  0  0  0  0
   23.9035   -5.3708  -14.6309 O   0  0  0  0  0  0  0  0  0  0  0  0
  2  3  1  0
  2  1  1  6
  3  4  1  0
  4  5  2  0
  6  2  1  0
  7  6  2  0
  8  4  1  0
  9 10  1  0
 10 12  1  0
 11 10  2  0
 13 12  1  0
 14 13  1  6
 14 15  1  0
 15  6  1  0
 16 14  1  0
 16 17  2  0
 19 18  1  1
 20 19  1  0
 21 22  1  1
 21 19  1  0
 22 16  1  0
 23 21  1  0
 24 23  2  0
 25 23  1  0
M  END
$$$$
