DQV.pdb
     RDKit          3D

 25 24  0  0  1  0  0  0  0  0999 V2000
   18.3896  -12.6975  -17.8069 N   0  0  0  0  0  0  0  0  0  0  0  0
   18.4887  -12.0893  -16.4962 C   0  0  1  0  0  0  0  0  0  0  0  0
   19.7115  -12.6268  -15.7690 C   0  0  0  0  0  0  0  0  0  0  0  0
   19.4250  -14.0379  -15.4047 C   0  0  0  0  0  0  0  0  0  0  0  0
   18.2271  -14.4232  -15.3018 O   0  0  0  0  0  0  0  0  0  0  0  0
   18.5139  -10.6061  -16.5777 C   0  0  0  0  0  0  0  0  0  0  0  0
   19.0091  -10.1195  -17.6399 O   0  0  0  0  0  0  0  0  0  0  0  0
   20.4154  -14.9781  -15.1656 O   0  0  0  0  0  0  0  0  0  0  0  0
   14.2341   -6.5209  -15.0966 N   0  0  0  0  0  0  0  0  0  0  0  0
   15.2931   -5.6887  -15.5154 C   0  0  0  0  0  0  0  0  0  0  0  0
   15.0835   -4.4752  -15.6991 O   0  0  0  0  0  0  0  0  0  0  0  0
   16.6424   -6.2378  -15.7376 C   0  0  0  0  0  0  0  0  0  0  0  0
   16.6552   -7.7225  -15.4698 C   0  0  0  0  0  0  0  0  0  0  0  0
   17.9872   -8.3571  -15.7454 C   0  0  2  0  0  0  0  0  0  0  0  0
   18.0254   -9.7614  -15.5551 N   0  0  0  0  0  0  0  0  0  0  0  0
   18.9951   -7.7057  -14.8693 C   0  0  0  0  0  0  0  0  0  0  0  0
   18.9984   -7.9339  -13.6326 O   0  0  0  0  0  0  0  0  0  0  0  0
   23.2461   -5.2182  -14.6244 C   0  0  0  0  0  0  0  0  0  0  0  0
   22.2676   -6.0584  -15.4357 C   0  0  2  0  0  0  0  0  0  0  0  0
   21.9208   -5.2415  -16.6729 C   0  0  0  0  0  0  0  0  0  0  0  0
   21.0251   -6.2491  -14.6115 C   0  0  2  0  0  0  0  0  0  0  0  0
   19.9607   -6.8245  -15.4075 N   0  0  0  0  0  0  0  0  0  0  0  0
   20.6009   -4.9354  -14.0931 C   0  0  0  0  0  0  0  0  0  0  0  0
   19.6277   -4.3402  -14.6202 O   0  0  0  0  0  0  0  0  0  0  0  0
   21.2486   -4.3290  -13.0310 O   0  0  0  0  0  0  0  0  0  0  0  0
  2  3  1  0
  2  1  1  6
  3  4  1  0
  4  5  2  0
  6  2  1  0
  7  6  2  0
  8  4  1  0
  9 10  1  0
 10 12  1  0
 11 10  2  0
 13 12  1  0
 14 13  1  1
 14 15  1  0
 15  6  1  0
 16 14  1  0
 16 17  2  0
 19 18  1  1
 20 19  1  0
 21 22  1  6
 21 19  1  0
 22 16  1  0
 23 21  1  0
 24 23  2  0
 25 23  1  0
M  END
$$$$
