DQV.pdb
     RDKit          3D

 25 24  0  0  1  0  0  0  0  0999 V2000
   15.8872  -14.0099  -15.4987 N   0  0  0  0  0  0  0  0  0  0  0  0
   17.1758  -14.1916  -16.1345 C   0  0  1  0  0  0  0  0  0  0  0  0
   17.0118  -15.0033  -17.4102 C   0  0  0  0  0  0  0  0  0  0  0  0
   16.6155  -16.3782  -17.0120 C   0  0  0  0  0  0  0  0  0  0  0  0
   15.4876  -16.5710  -16.4785 O   0  0  0  0  0  0  0  0  0  0  0  0
   17.8471  -12.8931  -16.3998 C   0  0  0  0  0  0  0  0  0  0  0  0
   18.9656  -12.9609  -16.9951 O   0  0  0  0  0  0  0  0  0  0  0  0
   17.4274  -17.4871  -17.1949 O   0  0  0  0  0  0  0  0  0  0  0  0
   14.6826   -8.2931  -15.5461 N   0  0  0  0  0  0  0  0  0  0  0  0
   14.6308   -8.9338  -16.8016 C   0  0  0  0  0  0  0  0  0  0  0  0
   13.5456   -9.0091  -17.4073 O   0  0  0  0  0  0  0  0  0  0  0  0
   15.8442   -9.5141  -17.4038 C   0  0  0  0  0  0  0  0  0  0  0  0
   17.0427   -9.2511  -16.5261 C   0  0  0  0  0  0  0  0  0  0  0  0
   17.9504  -10.4400  -16.4005 C   0  0  2  0  0  0  0  0  0  0  0  0
   17.3019  -11.6437  -16.0259 N   0  0  0  0  0  0  0  0  0  0  0  0
   19.0042  -10.1089  -15.4069 C   0  0  0  0  0  0  0  0  0  0  0  0
   18.7538  -10.1720  -14.1762 O   0  0  0  0  0  0  0  0  0  0  0  0
   22.5344  -11.5043  -15.3578 C   0  0  0  0  0  0  0  0  0  0  0  0
   22.6677   -9.9863  -15.3557 C   0  0  2  0  0  0  0  0  0  0  0  0
   23.7473   -9.6500  -14.3361 C   0  0  0  0  0  0  0  0  0  0  0  0
   21.3604   -9.4062  -14.8932 C   0  0  2  0  0  0  0  0  0  0  0  0
   20.2975   -9.7203  -15.8255 N   0  0  0  0  0  0  0  0  0  0  0  0
   21.5090   -7.9430  -14.7865 C   0  0  0  0  0  0  0  0  0  0  0  0
   21.1917   -7.2103  -15.7569 O   0  0  0  0  0  0  0  0  0  0  0  0
   21.9930   -7.3430  -13.6372 O   0  0  0  0  0  0  0  0  0  0  0  0
  2  3  1  0
  2  1  1  6
  3  4  1  0
  4  5  2  0
  6  2  1  0
  7  6  2  0
  8  4  1  0
  9 10  1  0
 10 12  1  0
 11 10  2  0
 13 12  1  0
 14 13  1  1
 14 15  1  0
 15  6  1  0
 16 14  1  0
 16 17  2  0
 19 18  1  1
 20 19  1  0
 21 22  1  6
 21 19  1  0
 22 16  1  0
 23 21  1  0
 24 23  2  0
 25 23  1  0
M  END
$$$$
