DQV.pdb
     RDKit          3D

 25 24  0  0  1  0  0  0  0  0999 V2000
   18.5272  -13.0957  -17.6708 N   0  0  0  0  0  0  0  0  0  0  0  0
   17.9859  -12.0822  -16.7891 C   0  0  1  0  0  0  0  0  0  0  0  0
   18.0533  -12.5627  -15.3478 C   0  0  0  0  0  0  0  0  0  0  0  0
   16.8024  -13.3151  -15.0732 C   0  0  0  0  0  0  0  0  0  0  0  0
   15.9358  -13.4351  -15.9835 O   0  0  0  0  0  0  0  0  0  0  0  0
   18.6767  -10.7780  -16.9594 C   0  0  0  0  0  0  0  0  0  0  0  0
   19.8790  -10.8380  -17.3609 O   0  0  0  0  0  0  0  0  0  0  0  0
   16.5229  -13.9065  -13.8508 O   0  0  0  0  0  0  0  0  0  0  0  0
   16.7437   -5.8039  -19.7768 N   0  0  0  0  0  0  0  0  0  0  0  0
   17.9892   -5.3621  -19.2838 C   0  0  0  0  0  0  0  0  0  0  0  0
   18.4564   -4.2785  -19.6809 O   0  0  0  0  0  0  0  0  0  0  0  0
   18.7426   -6.1667  -18.3058 C   0  0  0  0  0  0  0  0  0  0  0  0
   18.0010   -7.4431  -17.9943 C   0  0  0  0  0  0  0  0  0  0  0  0
   18.7315   -8.3242  -17.0232 C   0  0  2  0  0  0  0  0  0  0  0  0
   18.0628   -9.5316  -16.6995 N   0  0  0  0  0  0  0  0  0  0  0  0
   18.9741   -7.5390  -15.7853 C   0  0  0  0  0  0  0  0  0  0  0  0
   18.0466   -7.3694  -14.9533 O   0  0  0  0  0  0  0  0  0  0  0  0
   22.3021   -4.8071  -13.3928 C   0  0  0  0  0  0  0  0  0  0  0  0
   22.0150   -6.1326  -14.0875 C   0  0  2  0  0  0  0  0  0  0  0  0
   22.7239   -6.0759  -15.4338 C   0  0  0  0  0  0  0  0  0  0  0  0
   20.5326   -6.2237  -14.3189 C   0  0  2  0  0  0  0  0  0  0  0  0
   20.2432   -6.9735  -15.5238 N   0  0  0  0  0  0  0  0  0  0  0  0
   19.9934   -4.8570  -14.4447 C   0  0  0  0  0  0  0  0  0  0  0  0
   19.9491   -4.1075  -13.4370 O   0  0  0  0  0  0  0  0  0  0  0  0
   19.5285   -4.3670  -15.6526 O   0  0  0  0  0  0  0  0  0  0  0  0
  2  3  1  0
  2  1  1  6
  3  4  1  0
  4  5  2  0
  6  2  1  0
  7  6  2  0
  8  4  1  0
  9 10  1  0
 10 12  1  0
 11 10  2  0
 13 12  1  0
 14 13  1  6
 14 15  1  0
 15  6  1  0
 16 14  1  0
 16 17  2  0
 19 18  1  1
 20 19  1  0
 21 22  1  6
 21 19  1  0
 22 16  1  0
 23 21  1  0
 24 23  2  0
 25 23  1  0
M  END
$$$$
