DQV.pdb
     RDKit          3D

 25 24  0  0  1  0  0  0  0  0999 V2000
   22.3614  -12.8749  -17.2073 N   0  0  0  0  0  0  0  0  0  0  0  0
   22.3312  -12.0590  -18.4036 C   0  0  1  0  0  0  0  0  0  0  0  0
   21.7227  -12.8491  -19.5518 C   0  0  0  0  0  0  0  0  0  0  0  0
   22.5416  -14.0757  -19.7278 C   0  0  0  0  0  0  0  0  0  0  0  0
   22.5299  -14.9657  -18.8324 O   0  0  0  0  0  0  0  0  0  0  0  0
   21.6073  -10.7809  -18.1805 C   0  0  0  0  0  0  0  0  0  0  0  0
   21.5974   -9.9735  -19.1594 O   0  0  0  0  0  0  0  0  0  0  0  0
   23.3357  -14.3073  -20.8405 O   0  0  0  0  0  0  0  0  0  0  0  0
   16.0647   -9.6417  -16.2728 N   0  0  0  0  0  0  0  0  0  0  0  0
   16.5928   -8.3338  -16.2619 C   0  0  0  0  0  0  0  0  0  0  0  0
   15.8320   -7.3669  -16.0716 O   0  0  0  0  0  0  0  0  0  0  0  0
   18.0323   -8.0990  -16.4728 C   0  0  0  0  0  0  0  0  0  0  0  0
   18.7582   -9.4105  -16.6435 C   0  0  0  0  0  0  0  0  0  0  0  0
   20.2356   -9.2412  -16.8479 C   0  0  2  0  0  0  0  0  0  0  0  0
   20.9602  -10.4539  -16.9671 N   0  0  0  0  0  0  0  0  0  0  0  0
   20.7680   -8.4500  -15.7085 C   0  0  0  0  0  0  0  0  0  0  0  0
   21.0027   -9.0088  -14.6067 O   0  0  0  0  0  0  0  0  0  0  0  0
   23.2703   -5.2222  -16.1384 C   0  0  0  0  0  0  0  0  0  0  0  0
   22.0495   -4.9393  -15.2714 C   0  0  2  0  0  0  0  0  0  0  0  0
   22.5403   -4.1071  -14.0947 C   0  0  0  0  0  0  0  0  0  0  0  0
   21.5301   -6.2532  -14.7584 C   0  0  2  0  0  0  0  0  0  0  0  0
   21.0181   -7.0650  -15.8431 N   0  0  0  0  0  0  0  0  0  0  0  0
   20.4514   -5.9842  -13.7896 C   0  0  0  0  0  0  0  0  0  0  0  0
   19.2882   -5.7439  -14.2002 O   0  0  0  0  0  0  0  0  0  0  0  0
   20.6818   -5.9878  -12.4250 O   0  0  0  0  0  0  0  0  0  0  0  0
  2  3  1  0
  2  1  1  1
  3  4  1  0
  4  5  2  0
  6  2  1  0
  7  6  2  0
  8  4  1  0
  9 10  1  0
 10 12  1  0
 11 10  2  0
 13 12  1  0
 14 13  1  1
 14 15  1  0
 15  6  1  0
 16 14  1  0
 16 17  2  0
 19 18  1  6
 20 19  1  0
 21 22  1  6
 21 19  1  0
 22 16  1  0
 23 21  1  0
 24 23  2  0
 25 23  1  0
M  END
$$$$
