DQV.pdb
     RDKit          3D

 25 24  0  0  1  0  0  0  0  0999 V2000
   17.5309  -12.6483  -14.8084 N   0  0  0  0  0  0  0  0  0  0  0  0
   16.8167  -11.3899  -14.7437 C   0  0  1  0  0  0  0  0  0  0  0  0
   15.3320  -11.6492  -14.5404 C   0  0  0  0  0  0  0  0  0  0  0  0
   14.6808  -11.5605  -15.8723 C   0  0  0  0  0  0  0  0  0  0  0  0
   15.3544  -11.8046  -16.9119 O   0  0  0  0  0  0  0  0  0  0  0  0
   17.3624  -10.5006  -13.6861 C   0  0  0  0  0  0  0  0  0  0  0  0
   17.4585  -11.0126  -12.5291 O   0  0  0  0  0  0  0  0  0  0  0  0
   13.3487  -11.2182  -16.0468 O   0  0  0  0  0  0  0  0  0  0  0  0
   21.9229   -6.3796  -14.0208 N   0  0  0  0  0  0  0  0  0  0  0  0
   21.5147   -6.2648  -12.6756 C   0  0  0  0  0  0  0  0  0  0  0  0
   22.2120   -5.6124  -11.8767 O   0  0  0  0  0  0  0  0  0  0  0  0
   20.2744   -6.9071  -12.2054 C   0  0  0  0  0  0  0  0  0  0  0  0
   19.6269   -7.6811  -13.3269 C   0  0  0  0  0  0  0  0  0  0  0  0
   18.3914   -8.4163  -12.8956 C   0  0  2  0  0  0  0  0  0  0  0  0
   17.7586   -9.1641  -13.9203 N   0  0  0  0  0  0  0  0  0  0  0  0
   17.4374   -7.4221  -12.3396 C   0  0  0  0  0  0  0  0  0  0  0  0
   16.9162   -6.5586  -13.0906 O   0  0  0  0  0  0  0  0  0  0  0  0
   15.6428   -8.0975   -8.6347 C   0  0  0  0  0  0  0  0  0  0  0  0
   15.0553   -7.1598   -9.6823 C   0  0  2  0  0  0  0  0  0  0  0  0
   14.3244   -8.0399  -10.6870 C   0  0  0  0  0  0  0  0  0  0  0  0
   16.1946   -6.4674  -10.3766 C   0  0  2  0  0  0  0  0  0  0  0  0
   17.1017   -7.4303  -10.9663 N   0  0  0  0  0  0  0  0  0  0  0  0
   16.9177   -5.6480   -9.3865 C   0  0  0  0  0  0  0  0  0  0  0  0
   18.0785   -5.9748   -9.0331 O   0  0  0  0  0  0  0  0  0  0  0  0
   16.3516   -4.5159   -8.8269 O   0  0  0  0  0  0  0  0  0  0  0  0
  2  3  1  0
  2  1  1  1
  3  4  1  0
  4  5  2  0
  6  2  1  0
  7  6  2  0
  8  4  1  0
  9 10  1  0
 10 12  1  0
 11 10  2  0
 13 12  1  0
 14 13  1  6
 14 15  1  0
 15  6  1  0
 16 14  1  0
 16 17  2  0
 19 18  1  1
 20 19  1  0
 21 22  1  1
 21 19  1  0
 22 16  1  0
 23 21  1  0
 24 23  2  0
 25 23  1  0
M  END
$$$$
