DQV.pdb
     RDKit          3D

 25 24  0  0  1  0  0  0  0  0999 V2000
   28.8659  -22.4592  -17.5035 N   0  0  0  0  0  0  0  0  0  0  0  0
   28.7560  -21.0193  -17.3934 C   0  0  1  0  0  0  0  0  0  0  0  0
   28.8369  -20.3884  -18.7748 C   0  0  0  0  0  0  0  0  0  0  0  0
   28.9670  -18.9212  -18.5843 C   0  0  0  0  0  0  0  0  0  0  0  0
   29.3663  -18.4706  -17.4746 O   0  0  0  0  0  0  0  0  0  0  0  0
   27.5154  -20.6143  -16.6834 C   0  0  0  0  0  0  0  0  0  0  0  0
   26.7753  -19.7839  -17.2942 O   0  0  0  0  0  0  0  0  0  0  0  0
   28.6697  -17.9962  -19.5734 O   0  0  0  0  0  0  0  0  0  0  0  0
   24.2364  -24.7143  -15.2581 N   0  0  0  0  0  0  0  0  0  0  0  0
   23.2401  -23.7159  -15.2472 C   0  0  0  0  0  0  0  0  0  0  0  0
   22.0701  -24.0204  -14.9495 O   0  0  0  0  0  0  0  0  0  0  0  0
   23.5672  -22.3190  -15.5836 C   0  0  0  0  0  0  0  0  0  0  0  0
   25.0226  -22.1977  -15.9624 C   0  0  0  0  0  0  0  0  0  0  0  0
   25.7864  -21.2664  -15.0667 C   0  0  2  0  0  0  0  0  0  0  0  0
   27.1528  -21.1038  -15.4079 N   0  0  0  0  0  0  0  0  0  0  0  0
   25.6750  -21.7750  -13.6752 C   0  0  0  0  0  0  0  0  0  0  0  0
   25.9074  -22.9852  -13.4248 O   0  0  0  0  0  0  0  0  0  0  0  0
   25.4984  -19.3263  -10.1631 C   0  0  0  0  0  0  0  0  0  0  0  0
   25.7615  -20.8257  -10.2296 C   0  0  2  0  0  0  0  0  0  0  0  0
   27.2237  -20.9897  -10.6209 C   0  0  0  0  0  0  0  0  0  0  0  0
   24.8969  -21.4009  -11.3164 C   0  0  2  0  0  0  0  0  0  0  0  0
   25.3086  -20.9128  -12.6164 N   0  0  0  0  0  0  0  0  0  0  0  0
   23.4990  -21.0078  -11.0600 C   0  0  0  0  0  0  0  0  0  0  0  0
   22.9349  -20.1770  -11.8155 O   0  0  0  0  0  0  0  0  0  0  0  0
   22.7790  -21.5312  -10.0003 O   0  0  0  0  0  0  0  0  0  0  0  0
  2  3  1  0
  2  1  1  6
  3  4  1  0
  4  5  2  0
  6  2  1  0
  7  6  2  0
  8  4  1  0
  9 10  1  0
 10 12  1  0
 11 10  2  0
 13 12  1  0
 14 13  1  6
 14 15  1  0
 15  6  1  0
 16 14  1  0
 16 17  2  0
 19 18  1  6
 20 19  1  0
 21 22  1  6
 21 19  1  0
 22 16  1  0
 23 21  1  0
 24 23  2  0
 25 23  1  0
M  END
$$$$
