DQV.pdb
     RDKit          3D

 25 24  0  0  1  0  0  0  0  0999 V2000
   19.1019  -13.4177  -16.7449 N   0  0  0  0  0  0  0  0  0  0  0  0
   19.2355  -12.0251  -17.1200 C   0  0  1  0  0  0  0  0  0  0  0  0
   17.8799  -11.3393  -17.0493 C   0  0  0  0  0  0  0  0  0  0  0  0
   17.0137  -11.9638  -18.0816 C   0  0  0  0  0  0  0  0  0  0  0  0
   16.1984  -12.8676  -17.7463 O   0  0  0  0  0  0  0  0  0  0  0  0
   20.2431  -11.3236  -16.2835 C   0  0  0  0  0  0  0  0  0  0  0  0
   19.9716  -11.2382  -15.0469 O   0  0  0  0  0  0  0  0  0  0  0  0
   17.0472  -11.6062  -19.4207 O   0  0  0  0  0  0  0  0  0  0  0  0
   26.3411  -11.6551  -16.2482 N   0  0  0  0  0  0  0  0  0  0  0  0
   26.1322  -10.5530  -15.3931 C   0  0  0  0  0  0  0  0  0  0  0  0
   27.0955  -10.0687  -14.7705 O   0  0  0  0  0  0  0  0  0  0  0  0
   24.7892   -9.9692  -15.2282 C   0  0  0  0  0  0  0  0  0  0  0  0
   23.7864  -10.7125  -16.0755 C   0  0  0  0  0  0  0  0  0  0  0  0
   22.3890  -10.1841  -15.9301 C   0  0  2  0  0  0  0  0  0  0  0  0
   21.4386  -10.7747  -16.8006 N   0  0  0  0  0  0  0  0  0  0  0  0
   22.4288   -8.7159  -16.1543 C   0  0  0  0  0  0  0  0  0  0  0  0
   22.8667   -8.2545  -17.2391 O   0  0  0  0  0  0  0  0  0  0  0  0
   19.7231   -6.2574  -14.4824 C   0  0  0  0  0  0  0  0  0  0  0  0
   20.6492   -5.8355  -15.6166 C   0  0  2  0  0  0  0  0  0  0  0  0
   20.1122   -6.4953  -16.8794 C   0  0  0  0  0  0  0  0  0  0  0  0
   22.0191   -6.3808  -15.3245 C   0  0  2  0  0  0  0  0  0  0  0  0
   21.9778   -7.8190  -15.1589 N   0  0  0  0  0  0  0  0  0  0  0  0
   22.5184   -5.7541  -14.0866 C   0  0  0  0  0  0  0  0  0  0  0  0
   22.5488   -6.4165  -13.0191 O   0  0  0  0  0  0  0  0  0  0  0  0
   22.9602   -4.4429  -14.0623 O   0  0  0  0  0  0  0  0  0  0  0  0
  2  3  1  0
  2  1  1  1
  3  4  1  0
  4  5  2  0
  6  2  1  0
  7  6  2  0
  8  4  1  0
  9 10  1  0
 10 12  1  0
 11 10  2  0
 13 12  1  0
 14 13  1  6
 14 15  1  0
 15  6  1  0
 16 14  1  0
 16 17  2  0
 19 18  1  1
 20 19  1  0
 21 22  1  1
 21 19  1  0
 22 16  1  0
 23 21  1  0
 24 23  2  0
 25 23  1  0
M  END
$$$$
