DQV.pdb
     RDKit          3D

 25 24  0  0  1  0  0  0  0  0999 V2000
   22.2938  -15.7623  -19.6936 N   0  0  0  0  0  0  0  0  0  0  0  0
   23.2792  -15.2095  -18.7874 C   0  0  1  0  0  0  0  0  0  0  0  0
   24.6664  -15.7004  -19.1716 C   0  0  0  0  0  0  0  0  0  0  0  0
   24.6751  -17.1763  -19.0056 C   0  0  0  0  0  0  0  0  0  0  0  0
   23.6666  -17.7531  -18.5115 O   0  0  0  0  0  0  0  0  0  0  0  0
   23.2200  -13.7255  -18.7481 C   0  0  0  0  0  0  0  0  0  0  0  0
   24.1409  -13.1191  -19.3762 O   0  0  0  0  0  0  0  0  0  0  0  0
   25.7476  -17.9765  -19.3686 O   0  0  0  0  0  0  0  0  0  0  0  0
   18.4622  -12.4120  -17.8796 N   0  0  0  0  0  0  0  0  0  0  0  0
   18.8601  -12.3445  -19.2312 C   0  0  0  0  0  0  0  0  0  0  0  0
   18.1595  -12.8890  -20.1045 O   0  0  0  0  0  0  0  0  0  0  0  0
   20.0933  -11.6381  -19.6208 C   0  0  0  0  0  0  0  0  0  0  0  0
   20.7661  -11.0484  -18.4061 C   0  0  0  0  0  0  0  0  0  0  0  0
   22.1463  -11.5925  -18.1775 C   0  0  2  0  0  0  0  0  0  0  0  0
   22.2155  -13.0039  -18.0638 N   0  0  0  0  0  0  0  0  0  0  0  0
   22.6883  -10.9639  -16.9452 C   0  0  0  0  0  0  0  0  0  0  0  0
   22.1954  -11.2461  -15.8232 O   0  0  0  0  0  0  0  0  0  0  0  0
   26.2256   -8.8037  -17.2826 C   0  0  0  0  0  0  0  0  0  0  0  0
   25.8613   -9.4434  -15.9485 C   0  0  2  0  0  0  0  0  0  0  0  0
   26.3664  -10.8786  -16.0064 C   0  0  0  0  0  0  0  0  0  0  0  0
   24.3626   -9.4568  -15.8341 C   0  0  2  0  0  0  0  0  0  0  0  0
   23.7600  -10.0443  -17.0128 N   0  0  0  0  0  0  0  0  0  0  0  0
   23.8925   -8.0678  -15.6779 C   0  0  0  0  0  0  0  0  0  0  0  0
   24.1536   -7.4345  -14.6243 O   0  0  0  0  0  0  0  0  0  0  0  0
   23.1636   -7.4311  -16.6670 O   0  0  0  0  0  0  0  0  0  0  0  0
  2  3  1  0
  2  1  1  6
  3  4  1  0
  4  5  2  0
  6  2  1  0
  7  6  2  0
  8  4  1  0
  9 10  1  0
 10 12  1  0
 11 10  2  0
 13 12  1  0
 14 13  1  1
 14 15  1  0
 15  6  1  0
 16 14  1  0
 16 17  2  0
 19 18  1  6
 20 19  1  0
 21 22  1  6
 21 19  1  0
 22 16  1  0
 23 21  1  0
 24 23  2  0
 25 23  1  0
M  END
$$$$
