NIC.pdb
     RDKit          3D

 23 22  0  0  1  0  0  0  0  0999 V2000
    6.0908  -16.3867   19.4281 N   0  0  0  0  0  0  0  0  0  0  0  0
    6.4006  -17.3827   20.3656 C   0  0  0  0  0  0  0  0  0  0  0  0
    6.1240  -18.5944   20.1299 O   0  0  0  0  0  0  0  0  0  0  0  0
    7.0547  -17.0239   21.6409 C   0  0  0  0  0  0  0  0  0  0  0  0
    7.1371  -15.4886   21.7236 C   0  0  2  0  0  0  0  0  0  0  0  0
    7.9023  -15.0485   20.5461 N   0  0  0  0  0  0  0  0  0  0  0  0
    7.9543  -15.2055   22.9150 C   0  0  0  0  0  0  0  0  0  0  0  0
    9.2049  -15.2607   22.8609 O   0  0  0  0  0  0  0  0  0  0  0  0
    6.1179  -11.5611   26.2893 C   0  0  0  0  0  0  0  0  0  0  0  0
    7.0776  -12.3305   25.3998 C   0  0  0  0  0  0  0  0  0  0  0  0
    7.4861  -13.5612   26.1632 C   0  0  2  0  0  0  0  0  0  0  0  0
    8.2966  -13.2211   27.3968 C   0  0  0  0  0  0  0  0  0  0  0  0
    8.2159  -14.5724   25.3371 C   0  0  2  0  0  0  0  0  0  0  0  0
    7.3965  -14.8582   24.1784 N   0  0  0  0  0  0  0  0  0  0  0  0
    8.5452  -15.8125   26.0145 C   0  0  0  0  0  0  0  0  0  0  0  0
    7.6904  -16.6406   26.4282 O   0  0  0  0  0  0  0  0  0  0  0  0
    9.9014  -16.1459   26.2412 N   0  0  0  0  0  0  0  0  0  0  0  0
   10.2689  -17.4361   26.8362 C   0  0  1  0  0  0  0  0  0  0  0  0
   11.3416  -18.1386   26.0255 C   0  0  0  0  0  0  0  0  0  0  0  0
   11.0036  -17.9322   24.2541 S   0  0  0  0  0  0  0  0  0  0  0  0
   10.6001  -17.3180   28.2610 C   0  0  0  0  0  0  0  0  0  0  0  0
   10.6228  -16.1862   28.7938 O   0  0  0  0  0  0  0  0  0  0  0  0
   10.8926  -18.4120   29.0527 O   0  0  0  0  0  0  0  0  0  0  0  0
  2  1  1  0
  3  2  2  0
  4  2  1  0
  4  5  1  0
  5  6  1  6
  7  5  1  0
  7  8  2  0
 10  9  1  0
 11 12  1  1
 11 10  1  0
 13 14  1  6
 13 11  1  0
 14  7  1  0
 15 13  1  0
 16 15  2  0
 17 15  1  0
 18 17  1  0
 18 19  1  6
 20 19  1  0
 21 18  1  0
 21 23  1  0
 22 21  2  0
M  END
$$$$
