NIC.pdb
     RDKit          3D

 23 22  0  0  1  0  0  0  0  0999 V2000
    6.8011  -18.7053   21.0162 N   0  0  0  0  0  0  0  0  0  0  0  0
    8.1246  -18.3253   20.7503 C   0  0  0  0  0  0  0  0  0  0  0  0
    8.6672  -18.6192   19.6460 O   0  0  0  0  0  0  0  0  0  0  0  0
    8.8990  -17.5761   21.7613 C   0  0  0  0  0  0  0  0  0  0  0  0
    8.4874  -16.0946   21.6812 C   0  0  2  0  0  0  0  0  0  0  0  0
    9.2618  -15.5062   20.5769 N   0  0  0  0  0  0  0  0  0  0  0  0
    8.9686  -15.4878   22.9332 C   0  0  0  0  0  0  0  0  0  0  0  0
   10.1664  -15.1415   23.0574 O   0  0  0  0  0  0  0  0  0  0  0  0
    5.5660  -12.3773   25.7260 C   0  0  0  0  0  0  0  0  0  0  0  0
    6.8323  -12.8383   25.0275 C   0  0  0  0  0  0  0  0  0  0  0  0
    7.4372  -13.9135   25.8892 C   0  0  2  0  0  0  0  0  0  0  0  0
    7.8194  -13.3944   27.2598 C   0  0  0  0  0  0  0  0  0  0  0  0
    8.6056  -14.6063   25.2629 C   0  0  2  0  0  0  0  0  0  0  0  0
    8.1298  -15.2578   24.0608 N   0  0  0  0  0  0  0  0  0  0  0  0
    9.2811  -15.5766   26.1039 C   0  0  0  0  0  0  0  0  0  0  0  0
    9.1046  -16.8219   26.0285 O   0  0  0  0  0  0  0  0  0  0  0  0
   10.2034  -15.1326   27.0806 N   0  0  0  0  0  0  0  0  0  0  0  0
   11.1130  -16.0769   27.7400 C   0  0  1  0  0  0  0  0  0  0  0  0
   11.9295  -15.3998   28.8245 C   0  0  0  0  0  0  0  0  0  0  0  0
   11.1089  -13.8651   29.3402 S   0  0  0  0  0  0  0  0  0  0  0  0
   10.4211  -17.2860   28.2017 C   0  0  0  0  0  0  0  0  0  0  0  0
   11.0923  -18.2908   28.5262 O   0  0  0  0  0  0  0  0  0  0  0  0
    9.0451  -17.3689   28.2958 O   0  0  0  0  0  0  0  0  0  0  0  0
  2  1  1  0
  3  2  2  0
  4  2  1  0
  4  5  1  0
  5  6  1  6
  7  5  1  0
  7  8  2  0
 10  9  1  0
 11 12  1  1
 11 10  1  0
 13 14  1  6
 13 11  1  0
 14  7  1  0
 15 13  1  0
 16 15  2  0
 17 15  1  0
 18 17  1  0
 18 19  1  1
 20 19  1  0
 21 18  1  0
 21 23  1  0
 22 21  2  0
M  END
$$$$
