NIC.pdb
     RDKit          3D

 23 22  0  0  1  0  0  0  0  0999 V2000
    7.0835  -18.6463   19.2792 N   0  0  0  0  0  0  0  0  0  0  0  0
    6.6739  -17.6460   20.1729 C   0  0  0  0  0  0  0  0  0  0  0  0
    5.5436  -17.0929   20.0429 O   0  0  0  0  0  0  0  0  0  0  0  0
    7.5620  -17.2284   21.2773 C   0  0  0  0  0  0  0  0  0  0  0  0
    7.6616  -15.6920   21.2593 C   0  0  2  0  0  0  0  0  0  0  0  0
    8.6059  -15.3484   20.1843 N   0  0  0  0  0  0  0  0  0  0  0  0
    8.2932  -15.3271   22.5382 C   0  0  0  0  0  0  0  0  0  0  0  0
    9.5249  -15.4803   22.7102 O   0  0  0  0  0  0  0  0  0  0  0  0
    7.2263  -11.5246   27.1231 C   0  0  0  0  0  0  0  0  0  0  0  0
    8.1018  -12.6861   26.6890 C   0  0  0  0  0  0  0  0  0  0  0  0
    7.4444  -13.2988   25.4820 C   0  0  2  0  0  0  0  0  0  0  0  0
    6.0167  -13.7181   25.7648 C   0  0  0  0  0  0  0  0  0  0  0  0
    8.2049  -14.4447   24.8939 C   0  0  2  0  0  0  0  0  0  0  0  0
    7.5688  -14.7889   23.6398 N   0  0  0  0  0  0  0  0  0  0  0  0
    8.2982  -15.6272   25.7295 C   0  0  0  0  0  0  0  0  0  0  0  0
    7.3404  -16.4165   25.9469 O   0  0  0  0  0  0  0  0  0  0  0  0
    9.5267  -15.9456   26.3549 N   0  0  0  0  0  0  0  0  0  0  0  0
    9.7102  -17.2297   27.0413 C   0  0  1  0  0  0  0  0  0  0  0  0
   10.4295  -18.2345   26.1613 C   0  0  0  0  0  0  0  0  0  0  0  0
   12.0430  -17.5680   25.6640 S   0  0  0  0  0  0  0  0  0  0  0  0
   10.3241  -17.0707   28.3648 C   0  0  0  0  0  0  0  0  0  0  0  0
   10.7459  -15.9459   28.7144 O   0  0  0  0  0  0  0  0  0  0  0  0
   10.4608  -18.1185   29.2551 O   0  0  0  0  0  0  0  0  0  0  0  0
  2  1  1  0
  3  2  2  0
  4  2  1  0
  4  5  1  0
  5  6  1  6
  7  5  1  0
  7  8  2  0
 10  9  1  0
 11 12  1  1
 11 10  1  0
 13 14  1  6
 13 11  1  0
 14  7  1  0
 15 13  1  0
 16 15  2  0
 17 15  1  0
 18 17  1  0
 18 19  1  6
 20 19  1  0
 21 18  1  0
 21 23  1  0
 22 21  2  0
M  END
$$$$
