NIC.pdb
     RDKit          3D

 23 22  0  0  1  0  0  0  0  0999 V2000
    7.8933  -19.9575   16.7508 N   0  0  0  0  0  0  0  0  0  0  0  0
    8.3691  -20.4255   17.9843 C   0  0  0  0  0  0  0  0  0  0  0  0
    8.1131  -21.6043   18.3655 O   0  0  0  0  0  0  0  0  0  0  0  0
    9.1758  -19.5427   18.8519 C   0  0  0  0  0  0  0  0  0  0  0  0
    9.1624  -18.1282   18.2438 C   0  0  2  0  0  0  0  0  0  0  0  0
   10.2443  -18.0931   17.2470 N   0  0  0  0  0  0  0  0  0  0  0  0
    9.5432  -17.2271   19.3439 C   0  0  0  0  0  0  0  0  0  0  0  0
   10.7428  -17.1046   19.6846 O   0  0  0  0  0  0  0  0  0  0  0  0
    6.9661  -12.5437   19.9810 C   0  0  0  0  0  0  0  0  0  0  0  0
    8.0473  -13.6009   19.8484 C   0  0  0  0  0  0  0  0  0  0  0  0
    8.0336  -14.3990   21.1240 C   0  0  2  0  0  0  0  0  0  0  0  0
    8.2570  -13.5266   22.3419 C   0  0  0  0  0  0  0  0  0  0  0  0
    8.9972  -15.5431   21.1334 C   0  0  2  0  0  0  0  0  0  0  0  0
    8.6011  -16.4520   20.0784 N   0  0  0  0  0  0  0  0  0  0  0  0
    9.0934  -16.2687   22.3862 C   0  0  0  0  0  0  0  0  0  0  0  0
    8.1497  -16.9319   22.8932 O   0  0  0  0  0  0  0  0  0  0  0  0
   10.3085  -16.2535   23.1107 N   0  0  0  0  0  0  0  0  0  0  0  0
   10.4493  -17.0133   24.3584 C   0  0  1  0  0  0  0  0  0  0  0  0
   11.5182  -18.0835   24.2419 C   0  0  0  0  0  0  0  0  0  0  0  0
   11.3428  -18.9540   22.6588 S   0  0  0  0  0  0  0  0  0  0  0  0
   10.6246  -16.1403   25.5250 C   0  0  0  0  0  0  0  0  0  0  0  0
   10.7088  -14.9031   25.3584 O   0  0  0  0  0  0  0  0  0  0  0  0
   10.7027  -16.6263   26.8161 O   0  0  0  0  0  0  0  0  0  0  0  0
  2  1  1  0
  3  2  2  0
  4  2  1  0
  4  5  1  0
  5  6  1  6
  7  5  1  0
  7  8  2  0
 10  9  1  0
 11 12  1  1
 11 10  1  0
 13 14  1  6
 13 11  1  0
 14  7  1  0
 15 13  1  0
 16 15  2  0
 17 15  1  0
 18 17  1  0
 18 19  1  6
 20 19  1  0
 21 18  1  0
 21 23  1  0
 22 21  2  0
M  END
$$$$
