NIC.pdb
     RDKit          3D

 23 22  0  0  1  0  0  0  0  0999 V2000
    5.7844  -18.3223   20.5639 N   0  0  0  0  0  0  0  0  0  0  0  0
    7.1134  -17.8908   20.4439 C   0  0  0  0  0  0  0  0  0  0  0  0
    7.6946  -17.9075   19.3204 O   0  0  0  0  0  0  0  0  0  0  0  0
    7.8484  -17.4117   21.6327 C   0  0  0  0  0  0  0  0  0  0  0  0
    7.7726  -15.8741   21.6573 C   0  0  2  0  0  0  0  0  0  0  0  0
    8.6128  -15.3978   20.5471 N   0  0  0  0  0  0  0  0  0  0  0  0
    8.4267  -15.4713   22.9132 C   0  0  0  0  0  0  0  0  0  0  0  0
    9.6737  -15.3697   22.9812 O   0  0  0  0  0  0  0  0  0  0  0  0
    6.0637  -11.7594   25.8263 C   0  0  0  0  0  0  0  0  0  0  0  0
    7.0701  -12.5994   25.0610 C   0  0  0  0  0  0  0  0  0  0  0  0
    7.4763  -13.7271   25.9709 C   0  0  2  0  0  0  0  0  0  0  0  0
    8.1163  -13.2235   27.2480 C   0  0  0  0  0  0  0  0  0  0  0  0
    8.3645  -14.7401   25.3210 C   0  0  2  0  0  0  0  0  0  0  0  0
    7.7080  -15.1768   24.1069 N   0  0  0  0  0  0  0  0  0  0  0  0
    8.6947  -15.8952   26.1347 C   0  0  0  0  0  0  0  0  0  0  0  0
    7.8399  -16.6553   26.6630 O   0  0  0  0  0  0  0  0  0  0  0  0
   10.0517  -16.2189   26.3701 N   0  0  0  0  0  0  0  0  0  0  0  0
   10.4180  -17.4407   27.0960 C   0  0  1  0  0  0  0  0  0  0  0  0
   11.6768  -18.0698   26.5293 C   0  0  0  0  0  0  0  0  0  0  0  0
   11.6795  -17.9114   24.7211 S   0  0  0  0  0  0  0  0  0  0  0  0
   10.4753  -17.2301   28.5473 C   0  0  0  0  0  0  0  0  0  0  0  0
   10.3517  -16.0720   29.0044 O   0  0  0  0  0  0  0  0  0  0  0  0
   10.6623  -18.2637   29.4449 O   0  0  0  0  0  0  0  0  0  0  0  0
  2  1  1  0
  3  2  2  0
  4  2  1  0
  4  5  1  0
  5  6  1  6
  7  5  1  0
  7  8  2  0
 10  9  1  0
 11 12  1  1
 11 10  1  0
 13 14  1  6
 13 11  1  0
 14  7  1  0
 15 13  1  0
 16 15  2  0
 17 15  1  0
 18 17  1  0
 18 19  1  6
 20 19  1  0
 21 18  1  0
 21 23  1  0
 22 21  2  0
M  END
$$$$
