NIC.pdb
     RDKit          3D

 23 22  0  0  1  0  0  0  0  0999 V2000
    6.7926  -16.2848   19.2856 N   0  0  0  0  0  0  0  0  0  0  0  0
    7.4705  -17.2873   19.9944 C   0  0  0  0  0  0  0  0  0  0  0  0
    7.4724  -18.4806   19.5747 O   0  0  0  0  0  0  0  0  0  0  0  0
    8.1906  -16.9568   21.2415 C   0  0  0  0  0  0  0  0  0  0  0  0
    7.8423  -15.5077   21.6282 C   0  0  2  0  0  0  0  0  0  0  0  0
    8.5066  -14.6420   20.6409 N   0  0  0  0  0  0  0  0  0  0  0  0
    8.4969  -15.2826   22.9275 C   0  0  0  0  0  0  0  0  0  0  0  0
    9.7459  -15.2988   23.0259 O   0  0  0  0  0  0  0  0  0  0  0  0
    6.1494  -11.8670   26.2385 C   0  0  0  0  0  0  0  0  0  0  0  0
    7.2223  -12.5709   25.4276 C   0  0  0  0  0  0  0  0  0  0  0  0
    7.5659  -13.8359   26.1665 C   0  0  2  0  0  0  0  0  0  0  0  0
    8.1869  -13.5527   27.5186 C   0  0  0  0  0  0  0  0  0  0  0  0
    8.4376  -14.7725   25.3917 C   0  0  2  0  0  0  0  0  0  0  0  0
    7.7766  -15.0372   24.1312 N   0  0  0  0  0  0  0  0  0  0  0  0
    8.7451  -16.0286   26.0497 C   0  0  0  0  0  0  0  0  0  0  0  0
    7.8897  -16.9140   26.3180 O   0  0  0  0  0  0  0  0  0  0  0  0
   10.0790  -16.3111   26.4274 N   0  0  0  0  0  0  0  0  0  0  0  0
   10.4157  -17.5608   27.1193 C   0  0  1  0  0  0  0  0  0  0  0  0
   11.4697  -18.3492   26.3651 C   0  0  0  0  0  0  0  0  0  0  0  0
   11.4613  -17.8647   24.6158 S   0  0  0  0  0  0  0  0  0  0  0  0
   10.7517  -17.3424   28.5311 C   0  0  0  0  0  0  0  0  0  0  0  0
   10.8557  -16.1728   28.9631 O   0  0  0  0  0  0  0  0  0  0  0  0
   10.9622  -18.3810   29.4177 O   0  0  0  0  0  0  0  0  0  0  0  0
  2  1  1  0
  3  2  2  0
  4  2  1  0
  4  5  1  0
  5  6  1  6
  7  5  1  0
  7  8  2  0
 10  9  1  0
 11 12  1  1
 11 10  1  0
 13 14  1  6
 13 11  1  0
 14  7  1  0
 15 13  1  0
 16 15  2  0
 17 15  1  0
 18 17  1  0
 18 19  1  6
 20 19  1  0
 21 18  1  0
 21 23  1  0
 22 21  2  0
M  END
$$$$
