NIC.pdb
     RDKit          3D

 23 22  0  0  1  0  0  0  0  0999 V2000
    6.4398  -16.1990   18.8574 N   0  0  0  0  0  0  0  0  0  0  0  0
    6.6065  -17.1832   19.8425 C   0  0  0  0  0  0  0  0  0  0  0  0
    6.2868  -18.3848   19.6097 O   0  0  0  0  0  0  0  0  0  0  0  0
    7.1587  -16.8237   21.1649 C   0  0  0  0  0  0  0  0  0  0  0  0
    7.3219  -15.2936   21.2179 C   0  0  2  0  0  0  0  0  0  0  0  0
    8.2474  -14.9355   20.1313 N   0  0  0  0  0  0  0  0  0  0  0  0
    8.0058  -15.0182   22.4922 C   0  0  0  0  0  0  0  0  0  0  0  0
    9.2536  -15.0932   22.5779 O   0  0  0  0  0  0  0  0  0  0  0  0
    5.7893  -11.4480   25.8915 C   0  0  0  0  0  0  0  0  0  0  0  0
    6.7853  -12.1813   25.0114 C   0  0  0  0  0  0  0  0  0  0  0  0
    7.1380  -13.4584   25.7248 C   0  0  2  0  0  0  0  0  0  0  0  0
    7.7686  -13.1977   27.0770 C   0  0  0  0  0  0  0  0  0  0  0  0
    8.0063  -14.3785   24.9267 C   0  0  2  0  0  0  0  0  0  0  0  0
    7.3164  -14.6568   23.6847 N   0  0  0  0  0  0  0  0  0  0  0  0
    8.3560  -15.6279   25.5763 C   0  0  0  0  0  0  0  0  0  0  0  0
    7.5332  -16.5486   25.8272 O   0  0  0  0  0  0  0  0  0  0  0  0
    9.6959  -15.8617   25.9656 N   0  0  0  0  0  0  0  0  0  0  0  0
   10.1357  -17.1991   26.3802 C   0  0  1  0  0  0  0  0  0  0  0  0
   11.1699  -17.7666   25.4264 C   0  0  0  0  0  0  0  0  0  0  0  0
   11.7034  -19.4023   26.0047 S   0  0  0  0  0  0  0  0  0  0  0  0
   10.5579  -17.2355   27.7853 C   0  0  0  0  0  0  0  0  0  0  0  0
   11.1785  -16.2608   28.2649 O   0  0  0  0  0  0  0  0  0  0  0  0
   10.2996  -18.3099   28.6148 O   0  0  0  0  0  0  0  0  0  0  0  0
  2  1  1  0
  3  2  2  0
  4  2  1  0
  4  5  1  0
  5  6  1  6
  7  5  1  0
  7  8  2  0
 10  9  1  0
 11 12  1  1
 11 10  1  0
 13 14  1  6
 13 11  1  0
 14  7  1  0
 15 13  1  0
 16 15  2  0
 17 15  1  0
 18 17  1  0
 18 19  1  6
 20 19  1  0
 21 18  1  0
 21 23  1  0
 22 21  2  0
M  END
$$$$
