NIC.pdb
     RDKit          3D

 23 22  0  0  1  0  0  0  0  0999 V2000
    5.9366  -17.0625   19.5350 N   0  0  0  0  0  0  0  0  0  0  0  0
    6.2888  -17.9535   20.5591 C   0  0  0  0  0  0  0  0  0  0  0  0
    5.9177  -19.1620   20.5143 O   0  0  0  0  0  0  0  0  0  0  0  0
    7.0991  -17.4865   21.7031 C   0  0  0  0  0  0  0  0  0  0  0  0
    7.1668  -15.9493   21.6484 C   0  0  2  0  0  0  0  0  0  0  0  0
    7.9203  -15.6086   20.4312 N   0  0  0  0  0  0  0  0  0  0  0  0
    7.9885  -15.5538   22.8042 C   0  0  0  0  0  0  0  0  0  0  0  0
    9.2395  -15.5723   22.7362 O   0  0  0  0  0  0  0  0  0  0  0  0
    6.0018  -11.7985   26.0756 C   0  0  0  0  0  0  0  0  0  0  0  0
    6.9336  -12.5749   25.1630 C   0  0  0  0  0  0  0  0  0  0  0  0
    7.4593  -13.7353   25.9639 C   0  0  2  0  0  0  0  0  0  0  0  0
    8.2599  -13.2790   27.1660 C   0  0  0  0  0  0  0  0  0  0  0  0
    8.2576  -14.7133   25.1616 C   0  0  2  0  0  0  0  0  0  0  0  0
    7.4347  -15.1336   24.0471 N   0  0  0  0  0  0  0  0  0  0  0  0
    8.7251  -15.8809   25.8851 C   0  0  0  0  0  0  0  0  0  0  0  0
    7.9756  -16.6540   26.5394 O   0  0  0  0  0  0  0  0  0  0  0  0
   10.1028  -16.2026   25.8766 N   0  0  0  0  0  0  0  0  0  0  0  0
   10.5941  -17.4216   26.5296 C   0  0  1  0  0  0  0  0  0  0  0  0
   11.8820  -17.9131   25.8963 C   0  0  0  0  0  0  0  0  0  0  0  0
   12.5167  -19.3370   26.8261 S   0  0  0  0  0  0  0  0  0  0  0  0
   10.6810  -17.2759   27.9874 C   0  0  0  0  0  0  0  0  0  0  0  0
   10.9704  -16.1612   28.4763 O   0  0  0  0  0  0  0  0  0  0  0  0
   10.4561  -18.3256   28.8573 O   0  0  0  0  0  0  0  0  0  0  0  0
  2  1  1  0
  3  2  2  0
  4  2  1  0
  4  5  1  0
  5  6  1  6
  7  5  1  0
  7  8  2  0
 10  9  1  0
 11 12  1  1
 11 10  1  0
 13 14  1  6
 13 11  1  0
 14  7  1  0
 15 13  1  0
 16 15  2  0
 17 15  1  0
 18 17  1  0
 18 19  1  6
 20 19  1  0
 21 18  1  0
 21 23  1  0
 22 21  2  0
M  END
$$$$
