NIC.pdb
     RDKit          3D

 23 22  0  0  1  0  0  0  0  0999 V2000
    6.0655  -18.7819   20.9798 N   0  0  0  0  0  0  0  0  0  0  0  0
    7.2869  -18.1472   20.7112 C   0  0  0  0  0  0  0  0  0  0  0  0
    7.7150  -18.0550   19.5244 O   0  0  0  0  0  0  0  0  0  0  0  0
    8.0868  -17.5790   21.8160 C   0  0  0  0  0  0  0  0  0  0  0  0
    7.8720  -16.0544   21.8303 C   0  0  2  0  0  0  0  0  0  0  0  0
    8.6098  -15.5190   20.6752 N   0  0  0  0  0  0  0  0  0  0  0  0
    8.5471  -15.5768   23.0483 C   0  0  0  0  0  0  0  0  0  0  0  0
    9.7967  -15.4977   23.0979 O   0  0  0  0  0  0  0  0  0  0  0  0
    6.1086  -11.8815   26.0221 C   0  0  0  0  0  0  0  0  0  0  0  0
    7.1721  -12.6333   25.2425 C   0  0  0  0  0  0  0  0  0  0  0  0
    7.6315  -13.7683   26.1173 C   0  0  2  0  0  0  0  0  0  0  0  0
    8.2912  -13.2744   27.3881 C   0  0  0  0  0  0  0  0  0  0  0  0
    8.5287  -14.7434   25.4234 C   0  0  2  0  0  0  0  0  0  0  0  0
    7.8471  -15.1818   24.2238 N   0  0  0  0  0  0  0  0  0  0  0  0
    8.9199  -15.8999   26.2074 C   0  0  0  0  0  0  0  0  0  0  0  0
    8.1080  -16.7319   26.6935 O   0  0  0  0  0  0  0  0  0  0  0  0
   10.2908  -16.1404   26.4614 N   0  0  0  0  0  0  0  0  0  0  0  0
   10.7150  -17.2868   27.2736 C   0  0  1  0  0  0  0  0  0  0  0  0
   11.9984  -17.8996   26.7460 C   0  0  0  0  0  0  0  0  0  0  0  0
   11.9685  -17.9146   24.9311 S   0  0  0  0  0  0  0  0  0  0  0  0
   10.7688  -16.9657   28.7047 C   0  0  0  0  0  0  0  0  0  0  0  0
   10.9826  -17.8804   29.5311 O   0  0  0  0  0  0  0  0  0  0  0  0
   10.5915  -15.6840   29.1894 O   0  0  0  0  0  0  0  0  0  0  0  0
  2  1  1  0
  3  2  2  0
  4  2  1  0
  4  5  1  0
  5  6  1  6
  7  5  1  0
  7  8  2  0
 10  9  1  0
 11 12  1  1
 11 10  1  0
 13 14  1  6
 13 11  1  0
 14  7  1  0
 15 13  1  0
 16 15  2  0
 17 15  1  0
 18 17  1  0
 18 19  1  6
 20 19  1  0
 21 18  1  0
 21 23  1  0
 22 21  2  0
M  END
$$$$
