NIC.pdb
     RDKit          3D

 23 22  0  0  1  0  0  0  0  0999 V2000
    7.8953  -19.4975   21.6957 N   0  0  0  0  0  0  0  0  0  0  0  0
    8.7036  -18.5784   21.0111 C   0  0  0  0  0  0  0  0  0  0  0  0
    8.7141  -18.5503   19.7465 O   0  0  0  0  0  0  0  0  0  0  0  0
    9.5526  -17.6319   21.7638 C   0  0  0  0  0  0  0  0  0  0  0  0
    8.9324  -16.2280   21.6416 C   0  0  2  0  0  0  0  0  0  0  0  0
    9.6570  -15.5454   20.5578 N   0  0  0  0  0  0  0  0  0  0  0  0
    9.2681  -15.5424   22.9004 C   0  0  0  0  0  0  0  0  0  0  0  0
   10.4091  -15.0564   23.0797 O   0  0  0  0  0  0  0  0  0  0  0  0
    5.5905  -12.5894   25.5360 C   0  0  0  0  0  0  0  0  0  0  0  0
    6.9156  -13.0001   24.9199 C   0  0  0  0  0  0  0  0  0  0  0  0
    7.4645  -14.1130   25.7711 C   0  0  2  0  0  0  0  0  0  0  0  0
    7.7028  -13.6700   27.1998 C   0  0  0  0  0  0  0  0  0  0  0  0
    8.7040  -14.7429   25.2196 C   0  0  2  0  0  0  0  0  0  0  0  0
    8.3452  -15.3871   23.9737 N   0  0  0  0  0  0  0  0  0  0  0  0
    9.3575  -15.7026   26.0897 C   0  0  0  0  0  0  0  0  0  0  0  0
    9.3724  -16.9459   25.8859 O   0  0  0  0  0  0  0  0  0  0  0  0
   10.0308  -15.2495   27.2486 N   0  0  0  0  0  0  0  0  0  0  0  0
   10.9358  -16.1375   27.9877 C   0  0  1  0  0  0  0  0  0  0  0  0
   11.5716  -15.4283   29.1684 C   0  0  0  0  0  0  0  0  0  0  0  0
   11.0824  -13.6804   29.1684 S   0  0  0  0  0  0  0  0  0  0  0  0
   10.2971  -17.4089   28.3476 C   0  0  0  0  0  0  0  0  0  0  0  0
    9.0660  -17.5480   28.1732 O   0  0  0  0  0  0  0  0  0  0  0  0
   11.0002  -18.4739   28.8775 O   0  0  0  0  0  0  0  0  0  0  0  0
  2  1  1  0
  3  2  2  0
  4  2  1  0
  4  5  1  0
  5  6  1  6
  7  5  1  0
  7  8  2  0
 10  9  1  0
 11 12  1  1
 11 10  1  0
 13 14  1  6
 13 11  1  0
 14  7  1  0
 15 13  1  0
 16 15  2  0
 17 15  1  0
 18 17  1  0
 18 19  1  1
 20 19  1  0
 21 18  1  0
 21 23  1  0
 22 21  2  0
M  END
$$$$
