NIC.pdb
     RDKit          3D

 23 22  0  0  1  0  0  0  0  0999 V2000
    5.9277  -18.2679   20.7545 N   0  0  0  0  0  0  0  0  0  0  0  0
    7.3117  -18.0493   20.8155 C   0  0  0  0  0  0  0  0  0  0  0  0
    8.0541  -18.3596   19.8394 O   0  0  0  0  0  0  0  0  0  0  0  0
    7.9163  -17.4528   22.0246 C   0  0  0  0  0  0  0  0  0  0  0  0
    7.6846  -15.9313   21.9772 C   0  0  2  0  0  0  0  0  0  0  0  0
    8.4089  -15.4363   20.7958 N   0  0  0  0  0  0  0  0  0  0  0  0
    8.3624  -15.3963   23.1696 C   0  0  0  0  0  0  0  0  0  0  0  0
    9.6065  -15.2479   23.1858 O   0  0  0  0  0  0  0  0  0  0  0  0
    5.7848  -11.7187   26.0605 C   0  0  0  0  0  0  0  0  0  0  0  0
    6.8510  -12.4588   25.2734 C   0  0  0  0  0  0  0  0  0  0  0  0
    7.3977  -13.5277   26.1806 C   0  0  2  0  0  0  0  0  0  0  0  0
    8.0387  -12.9445   27.4229 C   0  0  0  0  0  0  0  0  0  0  0  0
    8.3501  -14.4647   25.5080 C   0  0  2  0  0  0  0  0  0  0  0  0
    7.6710  -15.0199   24.3563 N   0  0  0  0  0  0  0  0  0  0  0  0
    8.8567  -15.5424   26.3369 C   0  0  0  0  0  0  0  0  0  0  0  0
    8.1529  -16.4961   26.7644 O   0  0  0  0  0  0  0  0  0  0  0  0
   10.2220  -15.5561   26.7074 N   0  0  0  0  0  0  0  0  0  0  0  0
   10.7735  -16.6578   27.5048 C   0  0  1  0  0  0  0  0  0  0  0  0
   12.0867  -17.1574   26.9327 C   0  0  0  0  0  0  0  0  0  0  0  0
   12.0432  -17.0553   25.1209 S   0  0  0  0  0  0  0  0  0  0  0  0
   10.8488  -16.3280   28.9329 C   0  0  0  0  0  0  0  0  0  0  0  0
   10.6023  -15.1597   29.3066 O   0  0  0  0  0  0  0  0  0  0  0  0
   11.1842  -17.2589   29.8974 O   0  0  0  0  0  0  0  0  0  0  0  0
  2  1  1  0
  3  2  2  0
  4  2  1  0
  4  5  1  0
  5  6  1  6
  7  5  1  0
  7  8  2  0
 10  9  1  0
 11 12  1  1
 11 10  1  0
 13 14  1  6
 13 11  1  0
 14  7  1  0
 15 13  1  0
 16 15  2  0
 17 15  1  0
 18 17  1  0
 18 19  1  6
 20 19  1  0
 21 18  1  0
 21 23  1  0
 22 21  2  0
M  END
$$$$
