NIC.pdb
     RDKit          3D

 23 22  0  0  1  0  0  0  0  0999 V2000
    6.0063  -17.5858   19.2513 N   0  0  0  0  0  0  0  0  0  0  0  0
    7.3303  -17.1410   19.1252 C   0  0  0  0  0  0  0  0  0  0  0  0
    7.8992  -17.1309   17.9953 O   0  0  0  0  0  0  0  0  0  0  0  0
    8.0745  -16.6790   20.3151 C   0  0  0  0  0  0  0  0  0  0  0  0
    7.2820  -15.5274   20.9605 C   0  0  2  0  0  0  0  0  0  0  0  0
    7.3380  -14.4017   20.0144 N   0  0  0  0  0  0  0  0  0  0  0  0
    8.0542  -15.1432   22.1536 C   0  0  0  0  0  0  0  0  0  0  0  0
    9.2929  -15.3267   22.2005 O   0  0  0  0  0  0  0  0  0  0  0  0
    7.2462  -11.5664   27.0394 C   0  0  0  0  0  0  0  0  0  0  0  0
    8.1727  -12.5966   26.4195 C   0  0  0  0  0  0  0  0  0  0  0  0
    7.4301  -13.2090   25.2628 C   0  0  2  0  0  0  0  0  0  0  0  0
    6.1247  -13.8423   25.6977 C   0  0  0  0  0  0  0  0  0  0  0  0
    8.2372  -14.1936   24.4775 C   0  0  2  0  0  0  0  0  0  0  0  0
    7.4643  -14.5518   23.3069 N   0  0  0  0  0  0  0  0  0  0  0  0
    8.6208  -15.3974   25.1909 C   0  0  0  0  0  0  0  0  0  0  0  0
    7.8424  -16.3610   25.4211 O   0  0  0  0  0  0  0  0  0  0  0  0
    9.9445  -15.5324   25.6720 N   0  0  0  0  0  0  0  0  0  0  0  0
   10.3790  -16.7640   26.3414 C   0  0  1  0  0  0  0  0  0  0  0  0
   11.7295  -17.2296   25.8307 C   0  0  0  0  0  0  0  0  0  0  0  0
   12.3060  -18.6375   26.8207 S   0  0  0  0  0  0  0  0  0  0  0  0
   10.3158  -16.6550   27.8035 C   0  0  0  0  0  0  0  0  0  0  0  0
   10.0046  -17.6599   28.4808 O   0  0  0  0  0  0  0  0  0  0  0  0
   10.5866  -15.4792   28.4769 O   0  0  0  0  0  0  0  0  0  0  0  0
  2  1  1  0
  3  2  2  0
  4  2  1  0
  4  5  1  0
  5  6  1  6
  7  5  1  0
  7  8  2  0
 10  9  1  0
 11 12  1  1
 11 10  1  0
 13 14  1  6
 13 11  1  0
 14  7  1  0
 15 13  1  0
 16 15  2  0
 17 15  1  0
 18 17  1  0
 18 19  1  1
 20 19  1  0
 21 18  1  0
 21 23  1  0
 22 21  2  0
M  END
$$$$
