NIC.pdb
     RDKit          3D

 23 22  0  0  1  0  0  0  0  0999 V2000
    8.6190  -16.7930   20.1484 N   0  0  0  0  0  0  0  0  0  0  0  0
    7.4386  -17.2992   20.7118 C   0  0  0  0  0  0  0  0  0  0  0  0
    7.1910  -18.5392   20.6766 O   0  0  0  0  0  0  0  0  0  0  0  0
    6.4711  -16.3852   21.3534 C   0  0  0  0  0  0  0  0  0  0  0  0
    7.0695  -14.9666   21.3419 C   0  0  2  0  0  0  0  0  0  0  0  0
    8.0098  -14.9203   20.2110 N   0  0  0  0  0  0  0  0  0  0  0  0
    7.8594  -14.8665   22.5803 C   0  0  0  0  0  0  0  0  0  0  0  0
    9.0906  -15.0992   22.5744 O   0  0  0  0  0  0  0  0  0  0  0  0
    6.0296  -11.4503   26.3122 C   0  0  0  0  0  0  0  0  0  0  0  0
    6.9682  -12.1375   25.3370 C   0  0  0  0  0  0  0  0  0  0  0  0
    7.3584  -13.4501   25.9608 C   0  0  2  0  0  0  0  0  0  0  0  0
    8.1511  -13.2585   27.2372 C   0  0  0  0  0  0  0  0  0  0  0  0
    8.0960  -14.3653   25.0356 C   0  0  2  0  0  0  0  0  0  0  0  0
    7.2955  -14.5077   23.8377 N   0  0  0  0  0  0  0  0  0  0  0  0
    8.4044  -15.6784   25.5702 C   0  0  0  0  0  0  0  0  0  0  0  0
    7.5397  -16.5585   25.8259 O   0  0  0  0  0  0  0  0  0  0  0  0
    9.7502  -16.0274   25.8323 N   0  0  0  0  0  0  0  0  0  0  0  0
   10.0973  -17.3652   26.3259 C   0  0  1  0  0  0  0  0  0  0  0  0
   11.0753  -18.0645   25.4008 C   0  0  0  0  0  0  0  0  0  0  0  0
   11.5869  -19.6448   26.1326 S   0  0  0  0  0  0  0  0  0  0  0  0
   10.5339  -17.3457   27.7269 C   0  0  0  0  0  0  0  0  0  0  0  0
   10.2006  -18.2823   28.4865 O   0  0  0  0  0  0  0  0  0  0  0  0
   11.3055  -16.3280   28.2544 O   0  0  0  0  0  0  0  0  0  0  0  0
  2  1  1  0
  3  2  2  0
  4  2  1  0
  4  5  1  0
  5  6  1  6
  7  5  1  0
  7  8  2  0
 10  9  1  0
 11 12  1  1
 11 10  1  0
 13 14  1  6
 13 11  1  0
 14  7  1  0
 15 13  1  0
 16 15  2  0
 17 15  1  0
 18 17  1  0
 18 19  1  6
 20 19  1  0
 21 18  1  0
 21 23  1  0
 22 21  2  0
M  END
$$$$
