NIC.pdb
     RDKit          3D

 23 22  0  0  1  0  0  0  0  0999 V2000
    7.3415  -18.9819   19.9013 N   0  0  0  0  0  0  0  0  0  0  0  0
    7.1342  -18.0240   20.9045 C   0  0  0  0  0  0  0  0  0  0  0  0
    5.9724  -17.8087   21.3562 O   0  0  0  0  0  0  0  0  0  0  0  0
    8.2751  -17.2555   21.4440 C   0  0  0  0  0  0  0  0  0  0  0  0
    7.8834  -15.7666   21.4677 C   0  0  2  0  0  0  0  0  0  0  0  0
    8.5275  -15.1477   20.2984 N   0  0  0  0  0  0  0  0  0  0  0  0
    8.5248  -15.2138   22.6721 C   0  0  0  0  0  0  0  0  0  0  0  0
    9.7725  -15.1296   22.7511 O   0  0  0  0  0  0  0  0  0  0  0  0
    7.0364  -11.5254   27.2636 C   0  0  0  0  0  0  0  0  0  0  0  0
    8.0880  -12.5144   26.7946 C   0  0  0  0  0  0  0  0  0  0  0  0
    7.5126  -13.2271   25.6007 C   0  0  2  0  0  0  0  0  0  0  0  0
    6.1847  -13.8835   25.9170 C   0  0  0  0  0  0  0  0  0  0  0  0
    8.4409  -14.2260   24.9858 C   0  0  2  0  0  0  0  0  0  0  0  0
    7.7927  -14.7482   23.8013 N   0  0  0  0  0  0  0  0  0  0  0  0
    8.8345  -15.3258   25.8465 C   0  0  0  0  0  0  0  0  0  0  0  0
    8.0654  -16.2612   26.1946 O   0  0  0  0  0  0  0  0  0  0  0  0
   10.1576  -15.3844   26.3441 N   0  0  0  0  0  0  0  0  0  0  0  0
   10.5975  -16.5084   27.1789 C   0  0  1  0  0  0  0  0  0  0  0  0
   11.9498  -17.0353   26.7371 C   0  0  0  0  0  0  0  0  0  0  0  0
   12.0198  -17.0976   24.9244 S   0  0  0  0  0  0  0  0  0  0  0  0
   10.5344  -16.1960   28.6115 C   0  0  0  0  0  0  0  0  0  0  0  0
   10.3325  -15.0155   28.9736 O   0  0  0  0  0  0  0  0  0  0  0  0
   10.6902  -17.1564   29.5926 O   0  0  0  0  0  0  0  0  0  0  0  0
  2  1  1  0
  3  2  2  0
  4  2  1  0
  4  5  1  0
  5  6  1  6
  7  5  1  0
  7  8  2  0
 10  9  1  0
 11 12  1  1
 11 10  1  0
 13 14  1  6
 13 11  1  0
 14  7  1  0
 15 13  1  0
 16 15  2  0
 17 15  1  0
 18 17  1  0
 18 19  1  6
 20 19  1  0
 21 18  1  0
 21 23  1  0
 22 21  2  0
M  END
$$$$
