RGS.pdb
     RDKit          3D

 22 21  0  0  1  0  0  0  0  0999 V2000
   30.8094  -25.6453  -15.5210 N   0  0  0  0  0  0  0  0  0  0  0  0
   30.1376  -26.3024  -16.5905 C   0  0  0  0  0  0  0  0  0  0  0  0
   30.7578  -27.2204  -17.2174 N   0  0  0  0  0  0  0  0  0  0  0  0
   28.7952  -25.9273  -16.9404 N   0  0  0  0  0  0  0  0  0  0  0  0
   28.3248  -24.6108  -16.7065 C   0  0  0  0  0  0  0  0  0  0  0  0
   29.2218  -23.5628  -16.2096 C   0  0  0  0  0  0  0  0  0  0  0  0
   28.7798  -22.1909  -15.9231 C   0  0  0  0  0  0  0  0  0  0  0  0
   27.9713  -21.4914  -16.9629 C   0  0  2  0  0  0  0  0  0  0  0  0
   28.7415  -20.7405  -17.9169 N   0  0  0  0  0  0  0  0  0  0  0  0
   27.0373  -20.5169  -16.2408 C   0  0  0  0  0  0  0  0  0  0  0  0
   27.4674  -19.3863  -15.9103 O   0  0  0  0  0  0  0  0  0  0  0  0
   30.4043  -27.8078  -17.9844 N   0  0  0  0  0  0  0  0  0  0  0  0
   25.7088  -20.8529  -15.9366 C   0  0  0  0  0  0  0  0  0  0  0  0
   24.7740  -19.8917  -15.3427 C   0  0  0  0  0  0  0  0  0  0  0  0
   23.4089  -20.4497  -15.2765 O   0  0  0  0  0  0  0  0  0  0  0  0
   23.1727  -21.5595  -15.7890 O   0  0  0  0  0  0  0  0  0  0  0  0
   20.5943  -17.9871  -14.0747 C   0  0  0  0  0  0  0  0  0  0  0  0
   20.2547  -19.2716  -13.6857 C   0  0  1  0  0  0  0  0  0  0  0  0
   21.0626  -20.2356  -14.5418 N   0  0  0  0  0  0  0  0  0  0  0  0
   22.3952  -19.7131  -14.6319 C   0  0  0  0  0  0  0  0  0  0  0  0
   20.4190  -20.3355  -15.8779 O   0  0  0  0  0  0  0  0  0  0  0  0
   19.2243  -21.0518  -15.9713 O   0  0  0  0  0  0  0  0  0  0  0  0
  1  2  1  0
  2  3  2  0
  4  2  1  0
  4  5  1  0
  6  7  1  0
  6  5  1  0
  7  8  1  0
  8 10  1  0
  8  9  1  6
 10 12  1  0
 10 11  2  0
 12 13  1  0
 13 14  1  0
 14 19  1  0
 14 15  2  0
 16 17  1  0
 18 20  1  0
 18 17  1  1
 19 18  1  0
 20 21  1  0
 22 20  2  0
M  END
$$$$
