RGS.pdb
     RDKit          3D

 22 21  0  0  1  0  0  0  0  0999 V2000
   17.1871  -17.1516  -15.3371 N   0  0  0  0  0  0  0  0  0  0  0  0
   16.5648  -15.9381  -15.7459 C   0  0  0  0  0  0  0  0  0  0  0  0
   15.5607  -16.0092  -16.5249 N   0  0  0  0  0  0  0  0  0  0  0  0
   17.0694  -14.6749  -15.2824 N   0  0  0  0  0  0  0  0  0  0  0  0
   16.2284  -13.7659  -14.5925 C   0  0  0  0  0  0  0  0  0  0  0  0
   15.7573  -12.5340  -15.2332 C   0  0  0  0  0  0  0  0  0  0  0  0
   16.2005  -11.1929  -14.8277 C   0  0  0  0  0  0  0  0  0  0  0  0
   15.8452  -10.7307  -13.4549 C   0  0  2  0  0  0  0  0  0  0  0  0
   14.4585  -10.8877  -13.1093 N   0  0  0  0  0  0  0  0  0  0  0  0
   16.1859   -9.2408  -13.3686 C   0  0  0  0  0  0  0  0  0  0  0  0
   15.2625   -8.3954  -13.4411 O   0  0  0  0  0  0  0  0  0  0  0  0
   14.9582  -15.2398  -16.8465 N   0  0  0  0  0  0  0  0  0  0  0  0
   17.5062   -8.7914  -13.2104 C   0  0  0  0  0  0  0  0  0  0  0  0
   17.8341   -7.3748  -13.0197 C   0  0  0  0  0  0  0  0  0  0  0  0
   19.2871   -7.1850  -12.8419 O   0  0  0  0  0  0  0  0  0  0  0  0
   19.9777   -8.1158  -12.3869 O   0  0  0  0  0  0  0  0  0  0  0  0
   21.4077   -6.6373  -15.2729 C   0  0  0  0  0  0  0  0  0  0  0  0
   21.9388   -6.7985  -14.0046 C   0  0  1  0  0  0  0  0  0  0  0  0
   21.2865   -5.7618  -13.1021 N   0  0  0  0  0  0  0  0  0  0  0  0
   19.8674   -5.9495  -13.1919 C   0  0  0  0  0  0  0  0  0  0  0  0
   21.6931   -4.4089  -13.5643 O   0  0  0  0  0  0  0  0  0  0  0  0
   23.0197   -4.0245  -13.3604 O   0  0  0  0  0  0  0  0  0  0  0  0
  1  2  1  0
  2  3  2  0
  4  2  1  0
  4  5  1  0
  6  7  1  0
  6  5  1  0
  7  8  1  0
  8 10  1  0
  8  9  1  6
 10 12  1  0
 10 11  2  0
 12 13  1  0
 13 14  1  0
 14 19  1  0
 14 15  2  0
 16 17  1  0
 18 20  1  0
 18 17  1  1
 19 18  1  0
 20 21  1  0
 22 20  2  0
M  END
$$$$
