RGS.pdb
     RDKit          3D

 22 21  0  0  1  0  0  0  0  0999 V2000
   28.6419  -22.2931  -15.8511 N   0  0  0  0  0  0  0  0  0  0  0  0
   29.3739  -21.9090  -17.0102 C   0  0  0  0  0  0  0  0  0  0  0  0
   29.8307  -22.8264  -17.7651 N   0  0  0  0  0  0  0  0  0  0  0  0
   29.5826  -20.5182  -17.3056 N   0  0  0  0  0  0  0  0  0  0  0  0
   28.5712  -19.5603  -17.0433 C   0  0  0  0  0  0  0  0  0  0  0  0
   27.2103  -19.7346  -17.5603 C   0  0  0  0  0  0  0  0  0  0  0  0
   26.1539  -18.7243  -17.4092 C   0  0  0  0  0  0  0  0  0  0  0  0
   25.2719  -18.8171  -16.2100 C   0  0  2  0  0  0  0  0  0  0  0  0
   24.8552  -20.1514  -15.8739 N   0  0  0  0  0  0  0  0  0  0  0  0
   24.0161  -17.9904  -16.4975 C   0  0  0  0  0  0  0  0  0  0  0  0
   24.1331  -16.8656  -17.0393 O   0  0  0  0  0  0  0  0  0  0  0  0
   30.3558  -22.7157  -18.6428 N   0  0  0  0  0  0  0  0  0  0  0  0
   22.7327  -18.4560  -16.1712 C   0  0  0  0  0  0  0  0  0  0  0  0
   21.9446  -19.2872  -17.0870 C   0  0  0  0  0  0  0  0  0  0  0  0
   20.6500  -19.6610  -16.4844 O   0  0  0  0  0  0  0  0  0  0  0  0
   19.8468  -20.3556  -17.1344 O   0  0  0  0  0  0  0  0  0  0  0  0
   20.0419  -18.7834  -12.4682 C   0  0  0  0  0  0  0  0  0  0  0  0
   19.8573  -20.0482  -12.9999 C   0  0  1  0  0  0  0  0  0  0  0  0
   19.3236  -19.8747  -14.4141 N   0  0  0  0  0  0  0  0  0  0  0  0
   20.3464  -19.2231  -15.1798 C   0  0  0  0  0  0  0  0  0  0  0  0
   18.0796  -19.0635  -14.3544 O   0  0  0  0  0  0  0  0  0  0  0  0
   16.9535  -19.6436  -13.7674 O   0  0  0  0  0  0  0  0  0  0  0  0
  1  2  1  0
  2  3  2  0
  4  2  1  0
  4  5  1  0
  6  7  1  0
  6  5  1  0
  7  8  1  0
  8 10  1  0
  8  9  1  6
 10 12  1  0
 10 11  2  0
 12 13  1  0
 13 14  1  0
 14 19  1  0
 14 15  2  0
 16 17  1  0
 18 20  1  0
 18 17  1  6
 19 18  1  0
 20 21  1  0
 22 20  2  0
M  END
$$$$
