RGS.pdb
     RDKit          3D

 22 21  0  0  1  0  0  0  0  0999 V2000
   19.5351  -23.5752   -9.0347 N   0  0  0  0  0  0  0  0  0  0  0  0
   19.8718  -22.9813   -7.7854 C   0  0  0  0  0  0  0  0  0  0  0  0
   19.0912  -23.1724   -6.7983 N   0  0  0  0  0  0  0  0  0  0  0  0
   21.0646  -22.1898   -7.6591 N   0  0  0  0  0  0  0  0  0  0  0  0
   22.0031  -22.1165   -8.7189 C   0  0  0  0  0  0  0  0  0  0  0  0
   21.9942  -20.9942   -9.6624 C   0  0  0  0  0  0  0  0  0  0  0  0
   23.2121  -20.4430  -10.2727 C   0  0  0  0  0  0  0  0  0  0  0  0
   24.5163  -21.0627   -9.8995 C   0  0  2  0  0  0  0  0  0  0  0  0
   25.0488  -20.6255   -8.6376 N   0  0  0  0  0  0  0  0  0  0  0  0
   25.5277  -20.6973  -10.9889 C   0  0  0  0  0  0  0  0  0  0  0  0
   26.0533  -19.5589  -10.9807 O   0  0  0  0  0  0  0  0  0  0  0  0
   19.1719  -22.7858   -5.8483 N   0  0  0  0  0  0  0  0  0  0  0  0
   25.8851  -21.6024  -12.0006 C   0  0  0  0  0  0  0  0  0  0  0  0
   26.8476  -21.2608  -13.0530 C   0  0  0  0  0  0  0  0  0  0  0  0
   26.1866  -20.5564  -14.1692 O   0  0  0  0  0  0  0  0  0  0  0  0
   24.9512  -20.4023  -14.1536 O   0  0  0  0  0  0  0  0  0  0  0  0
   27.8553  -17.7314  -16.0627 C   0  0  0  0  0  0  0  0  0  0  0  0
   26.5137  -17.9846  -16.2923 C   0  0  1  0  0  0  0  0  0  0  0  0
   26.3450  -19.4935  -16.3909 N   0  0  0  0  0  0  0  0  0  0  0  0
   26.9691  -20.0696  -15.2352 C   0  0  0  0  0  0  0  0  0  0  0  0
   26.9819  -19.9597  -17.6503 O   0  0  0  0  0  0  0  0  0  0  0  0
   26.4552  -19.4927  -18.8560 O   0  0  0  0  0  0  0  0  0  0  0  0
  1  2  1  0
  2  3  2  0
  4  2  1  0
  4  5  1  0
  6  7  1  0
  6  5  1  0
  7  8  1  0
  8 10  1  0
  8  9  1  1
 10 12  1  0
 10 11  2  0
 12 13  1  0
 13 14  1  0
 14 19  1  0
 14 15  2  0
 16 17  1  0
 18 20  1  0
 18 17  1  1
 19 18  1  0
 20 21  1  0
 22 20  2  0
M  END
$$$$
