RGS.pdb
     RDKit          3D

 22 21  0  0  1  0  0  0  0  0999 V2000
   21.9869  -21.2107   -9.0223 N   0  0  0  0  0  0  0  0  0  0  0  0
   22.7141  -21.3422   -7.8054 C   0  0  0  0  0  0  0  0  0  0  0  0
   22.0588  -21.3975   -6.7155 N   0  0  0  0  0  0  0  0  0  0  0  0
   24.1494  -21.4092   -7.8244 N   0  0  0  0  0  0  0  0  0  0  0  0
   24.8591  -21.4342   -9.0512 C   0  0  0  0  0  0  0  0  0  0  0  0
   25.6886  -20.2999   -9.4699 C   0  0  0  0  0  0  0  0  0  0  0  0
   26.4462  -20.2752  -10.7288 C   0  0  0  0  0  0  0  0  0  0  0  0
   25.7790  -20.8109  -11.9503 C   0  0  2  0  0  0  0  0  0  0  0  0
   26.2222  -22.1186  -12.3512 N   0  0  0  0  0  0  0  0  0  0  0  0
   26.0740  -19.8418  -13.0980 C   0  0  0  0  0  0  0  0  0  0  0  0
   27.2222  -19.8189  -13.6014 O   0  0  0  0  0  0  0  0  0  0  0  0
   22.4325  -21.4633   -5.7593 N   0  0  0  0  0  0  0  0  0  0  0  0
   25.0934  -18.9749  -13.6052 C   0  0  0  0  0  0  0  0  0  0  0  0
   25.3259  -18.1325  -14.7828 C   0  0  0  0  0  0  0  0  0  0  0  0
   24.1953  -18.2170  -15.7281 O   0  0  0  0  0  0  0  0  0  0  0  0
   23.0452  -17.9436  -15.3373 O   0  0  0  0  0  0  0  0  0  0  0  0
   25.0871  -19.5587  -19.3396 C   0  0  0  0  0  0  0  0  0  0  0  0
   23.9561  -18.7617  -19.3868 C   0  0  1  0  0  0  0  0  0  0  0  0
   23.3554  -18.7395  -17.9892 N   0  0  0  0  0  0  0  0  0  0  0  0
   24.4399  -18.6067  -17.0600 C   0  0  0  0  0  0  0  0  0  0  0  0
   22.6013  -20.0028  -17.7780 O   0  0  0  0  0  0  0  0  0  0  0  0
   21.4255  -20.1870  -18.5080 O   0  0  0  0  0  0  0  0  0  0  0  0
  1  2  1  0
  2  3  2  0
  4  2  1  0
  4  5  1  0
  6  7  1  0
  6  5  1  0
  7  8  1  0
  8 10  1  0
  8  9  1  6
 10 12  1  0
 10 11  2  0
 12 13  1  0
 13 14  1  0
 14 19  1  0
 14 15  2  0
 16 17  1  0
 18 20  1  0
 18 17  1  6
 19 18  1  0
 20 21  1  0
 22 20  2  0
M  END
$$$$
