RGS.pdb
     RDKit          3D

 22 21  0  0  1  0  0  0  0  0999 V2000
   30.0640  -20.1825  -11.2706 N   0  0  0  0  0  0  0  0  0  0  0  0
   29.9550  -21.2936  -10.3871 C   0  0  0  0  0  0  0  0  0  0  0  0
   30.9238  -21.5311   -9.5963 N   0  0  0  0  0  0  0  0  0  0  0  0
   28.7760  -22.1151  -10.4004 N   0  0  0  0  0  0  0  0  0  0  0  0
   27.7130  -21.8453  -11.2985 C   0  0  0  0  0  0  0  0  0  0  0  0
   27.1857  -20.4870  -11.4621 C   0  0  0  0  0  0  0  0  0  0  0  0
   26.0878  -20.1524  -12.3797 C   0  0  0  0  0  0  0  0  0  0  0  0
   25.2519  -21.2731  -12.8988 C   0  0  2  0  0  0  0  0  0  0  0  0
   25.9888  -22.3117  -13.5662 N   0  0  0  0  0  0  0  0  0  0  0  0
   24.2600  -20.6804  -13.9028 C   0  0  0  0  0  0  0  0  0  0  0  0
   24.6353  -20.4609  -15.0790 O   0  0  0  0  0  0  0  0  0  0  0  0
   31.0308  -22.3274   -8.9538 N   0  0  0  0  0  0  0  0  0  0  0  0
   22.9379  -20.3740  -13.5442 C   0  0  0  0  0  0  0  0  0  0  0  0
   21.9918  -19.7660  -14.4854 C   0  0  0  0  0  0  0  0  0  0  0  0
   20.7238  -19.4187  -13.8141 O   0  0  0  0  0  0  0  0  0  0  0  0
   20.5680  -19.6990  -12.6111 O   0  0  0  0  0  0  0  0  0  0  0  0
   17.8312  -18.0417  -16.1540 C   0  0  0  0  0  0  0  0  0  0  0  0
   17.7116  -17.5201  -14.8772 C   0  0  1  0  0  0  0  0  0  0  0  0
   18.4562  -18.4518  -13.9326 N   0  0  0  0  0  0  0  0  0  0  0  0
   19.7100  -18.7737  -14.5502 C   0  0  0  0  0  0  0  0  0  0  0  0
   17.6249  -19.6637  -13.7103 O   0  0  0  0  0  0  0  0  0  0  0  0
   16.4594  -19.5221  -12.9549 O   0  0  0  0  0  0  0  0  0  0  0  0
  1  2  1  0
  2  3  2  0
  4  2  1  0
  4  5  1  0
  6  7  1  0
  6  5  1  0
  7  8  1  0
  8 10  1  0
  8  9  1  6
 10 12  1  0
 10 11  2  0
 12 13  1  0
 13 14  1  0
 14 19  1  0
 14 15  2  0
 16 17  1  0
 18 20  1  0
 18 17  1  1
 19 18  1  0
 20 21  1  0
 22 20  2  0
M  END
$$$$
