RGS.pdb
     RDKit          3D

 22 21  0  0  1  0  0  0  0  0999 V2000
   24.3344  -23.8714  -14.9337 N   0  0  0  0  0  0  0  0  0  0  0  0
   23.6797  -25.1315  -15.0362 C   0  0  0  0  0  0  0  0  0  0  0  0
   24.3461  -26.1219  -15.4781 N   0  0  0  0  0  0  0  0  0  0  0  0
   22.3028  -25.2648  -14.6470 N   0  0  0  0  0  0  0  0  0  0  0  0
   21.4573  -24.1298  -14.5681 C   0  0  0  0  0  0  0  0  0  0  0  0
   21.7527  -23.0276  -13.6474 C   0  0  0  0  0  0  0  0  0  0  0  0
   21.0205  -22.8055  -12.3929 C   0  0  0  0  0  0  0  0  0  0  0  0
   19.5570  -23.0923  -12.3839 C   0  0  2  0  0  0  0  0  0  0  0  0
   18.7827  -22.2882  -13.2900 N   0  0  0  0  0  0  0  0  0  0  0  0
   19.0451  -22.8283  -10.9656 C   0  0  0  0  0  0  0  0  0  0  0  0
   18.7766  -21.6534  -10.6193 O   0  0  0  0  0  0  0  0  0  0  0  0
   24.0331  -27.0968  -15.5773 N   0  0  0  0  0  0  0  0  0  0  0  0
   18.8670  -23.8665  -10.0378 C   0  0  0  0  0  0  0  0  0  0  0  0
   18.4040  -23.6221   -8.6680 C   0  0  0  0  0  0  0  0  0  0  0  0
   18.1967  -24.8910   -7.9429 O   0  0  0  0  0  0  0  0  0  0  0  0
   18.3289  -25.9724   -8.5456 O   0  0  0  0  0  0  0  0  0  0  0  0
   17.3976  -26.8652   -3.6518 C   0  0  0  0  0  0  0  0  0  0  0  0
   17.4506  -25.6912   -4.3837 C   0  0  2  0  0  0  0  0  0  0  0  0
   17.6722  -26.0717   -5.8400 N   0  0  0  0  0  0  0  0  0  0  0  0
   17.8520  -24.8545   -6.5770 C   0  0  0  0  0  0  0  0  0  0  0  0
   16.4879  -26.8334   -6.3158 O   0  0  0  0  0  0  0  0  0  0  0  0
   16.5601  -28.2275   -6.2922 O   0  0  0  0  0  0  0  0  0  0  0  0
  1  2  1  0
  2  3  2  0
  4  2  1  0
  4  5  1  0
  6  7  1  0
  6  5  1  0
  7  8  1  0
  8 10  1  0
  8  9  1  6
 10 12  1  0
 10 11  2  0
 12 13  1  0
 13 14  1  0
 14 19  1  0
 14 15  2  0
 16 17  1  0
 18 20  1  0
 18 17  1  1
 19 18  1  0
 20 21  1  0
 22 20  2  0
M  END
$$$$
