RGS.pdb
     RDKit          3D

 22 21  0  0  1  0  0  0  0  0999 V2000
   30.1930  -30.1050  -16.4611 N   0  0  0  0  0  0  0  0  0  0  0  0
   28.7827  -29.9637  -16.3273 C   0  0  0  0  0  0  0  0  0  0  0  0
   28.1262  -30.9302  -15.8222 N   0  0  0  0  0  0  0  0  0  0  0  0
   28.1330  -28.7558  -16.7561 N   0  0  0  0  0  0  0  0  0  0  0  0
   28.7987  -27.8344  -17.6030 C   0  0  0  0  0  0  0  0  0  0  0  0
   29.8871  -26.9914  -17.0985 C   0  0  0  0  0  0  0  0  0  0  0  0
   29.7668  -25.5374  -16.9228 C   0  0  0  0  0  0  0  0  0  0  0  0
   28.7387  -24.8235  -17.7337 C   0  0  2  0  0  0  0  0  0  0  0  0
   29.2276  -24.2651  -18.9651 N   0  0  0  0  0  0  0  0  0  0  0  0
   28.1949  -23.6754  -16.8796 C   0  0  0  0  0  0  0  0  0  0  0  0
   28.9985  -22.9321  -16.2680 O   0  0  0  0  0  0  0  0  0  0  0  0
   27.1093  -30.9938  -15.6800 N   0  0  0  0  0  0  0  0  0  0  0  0
   26.8180  -23.4295  -16.7604 C   0  0  0  0  0  0  0  0  0  0  0  0
   26.2909  -22.2211  -16.1182 C   0  0  0  0  0  0  0  0  0  0  0  0
   24.8172  -22.1799  -16.1922 O   0  0  0  0  0  0  0  0  0  0  0  0
   24.2011  -21.2351  -15.6649 O   0  0  0  0  0  0  0  0  0  0  0  0
   23.1375  -23.2060  -19.2303 C   0  0  0  0  0  0  0  0  0  0  0  0
   22.3091  -23.7833  -18.2831 C   0  0  2  0  0  0  0  0  0  0  0  0
   22.7001  -23.2133  -16.9276 N   0  0  0  0  0  0  0  0  0  0  0  0
   24.1328  -23.2144  -16.8609 C   0  0  0  0  0  0  0  0  0  0  0  0
   22.0989  -24.0622  -15.8660 O   0  0  0  0  0  0  0  0  0  0  0  0
   20.7070  -24.1631  -15.8257 O   0  0  0  0  0  0  0  0  0  0  0  0
  1  2  1  0
  2  3  2  0
  4  2  1  0
  4  5  1  0
  6  7  1  0
  6  5  1  0
  7  8  1  0
  8 10  1  0
  8  9  1  6
 10 12  1  0
 10 11  2  0
 12 13  1  0
 13 14  1  0
 14 19  1  0
 14 15  2  0
 16 17  1  0
 18 20  1  0
 18 17  1  6
 19 18  1  0
 20 21  1  0
 22 20  2  0
M  END
$$$$
