RGS.pdb
     RDKit          3D

 22 21  0  0  1  0  0  0  0  0999 V2000
   16.6504  -16.7750  -15.6193 N   0  0  0  0  0  0  0  0  0  0  0  0
   17.8496  -16.6153  -16.3698 C   0  0  0  0  0  0  0  0  0  0  0  0
   17.9323  -17.1909  -17.5021 N   0  0  0  0  0  0  0  0  0  0  0  0
   18.9287  -15.8222  -15.8486 N   0  0  0  0  0  0  0  0  0  0  0  0
   18.8281  -14.4095  -15.7879 C   0  0  0  0  0  0  0  0  0  0  0  0
   18.4568  -13.6250  -16.9697 C   0  0  0  0  0  0  0  0  0  0  0  0
   18.4020  -12.1566  -16.9791 C   0  0  0  0  0  0  0  0  0  0  0  0
   18.7053  -11.4430  -15.7051 C   0  0  2  0  0  0  0  0  0  0  0  0
   17.6290  -11.4338  -14.7519 N   0  0  0  0  0  0  0  0  0  0  0  0
   19.0333   -9.9901  -16.0584 C   0  0  0  0  0  0  0  0  0  0  0  0
   18.0986   -9.1972  -16.3227 O   0  0  0  0  0  0  0  0  0  0  0  0
   18.6972  -17.1254  -18.1868 N   0  0  0  0  0  0  0  0  0  0  0  0
   20.3546   -9.5177  -16.0955 C   0  0  0  0  0  0  0  0  0  0  0  0
   20.6923   -8.1721  -16.5707 C   0  0  0  0  0  0  0  0  0  0  0  0
   21.4689   -7.4303  -15.5579 O   0  0  0  0  0  0  0  0  0  0  0  0
   21.6437   -7.9288  -14.4305 O   0  0  0  0  0  0  0  0  0  0  0  0
   23.9598   -4.6909  -16.8296 C   0  0  0  0  0  0  0  0  0  0  0  0
   23.3741   -4.2354  -15.6608 C   0  0  2  0  0  0  0  0  0  0  0  0
   22.7968   -5.4441  -14.9393 N   0  0  0  0  0  0  0  0  0  0  0  0
   22.0000   -6.1673  -15.8875 C   0  0  0  0  0  0  0  0  0  0  0  0
   21.9852   -4.9659  -13.7896 O   0  0  0  0  0  0  0  0  0  0  0  0
   20.5954   -5.0357  -13.9020 O   0  0  0  0  0  0  0  0  0  0  0  0
  1  2  1  0
  2  3  2  0
  4  2  1  0
  4  5  1  0
  6  7  1  0
  6  5  1  0
  7  8  1  0
  8 10  1  0
  8  9  1  1
 10 12  1  0
 10 11  2  0
 12 13  1  0
 13 14  1  0
 14 19  1  0
 14 15  2  0
 16 17  1  0
 18 20  1  0
 18 17  1  6
 19 18  1  0
 20 21  1  0
 22 20  2  0
M  END
$$$$
