RGS.pdb
     RDKit          3D

 22 21  0  0  1  0  0  0  0  0999 V2000
   26.6076  -21.6038  -12.2507 N   0  0  0  0  0  0  0  0  0  0  0  0
   26.3019  -21.1218  -13.5550 C   0  0  0  0  0  0  0  0  0  0  0  0
   27.0851  -21.4306  -14.5098 N   0  0  0  0  0  0  0  0  0  0  0  0
   25.1365  -20.3092  -13.7710 N   0  0  0  0  0  0  0  0  0  0  0  0
   23.8606  -20.7363  -13.3248 C   0  0  0  0  0  0  0  0  0  0  0  0
   23.2830  -22.0038  -13.7827 C   0  0  0  0  0  0  0  0  0  0  0  0
   21.9661  -22.4931  -13.3517 C   0  0  0  0  0  0  0  0  0  0  0  0
   20.8171  -21.5448  -13.4212 C   0  0  2  0  0  0  0  0  0  0  0  0
   21.1620  -20.2147  -13.8445 N   0  0  0  0  0  0  0  0  0  0  0  0
   20.2133  -21.4501  -12.0177 C   0  0  0  0  0  0  0  0  0  0  0  0
   20.6167  -20.5569  -11.2356 O   0  0  0  0  0  0  0  0  0  0  0  0
   27.0342  -21.1227  -15.4900 N   0  0  0  0  0  0  0  0  0  0  0  0
   19.2178  -22.3371  -11.5790 C   0  0  0  0  0  0  0  0  0  0  0  0
   18.7526  -22.3669  -10.1885 C   0  0  0  0  0  0  0  0  0  0  0  0
   18.5994  -23.7546   -9.7092 O   0  0  0  0  0  0  0  0  0  0  0  0
   18.5933  -24.6914  -10.5294 O   0  0  0  0  0  0  0  0  0  0  0  0
   17.5566  -24.1875   -5.9214 C   0  0  0  0  0  0  0  0  0  0  0  0
   18.3339  -25.2630   -6.3161 C   0  0  1  0  0  0  0  0  0  0  0  0
   18.2828  -25.3291   -7.8353 N   0  0  0  0  0  0  0  0  0  0  0  0
   18.4626  -23.9940   -8.3273 C   0  0  0  0  0  0  0  0  0  0  0  0
   16.9686  -25.8928   -8.2406 O   0  0  0  0  0  0  0  0  0  0  0  0
   16.7823  -27.2696   -8.1033 O   0  0  0  0  0  0  0  0  0  0  0  0
  1  2  1  0
  2  3  2  0
  4  2  1  0
  4  5  1  0
  6  7  1  0
  6  5  1  0
  7  8  1  0
  8 10  1  0
  8  9  1  1
 10 12  1  0
 10 11  2  0
 12 13  1  0
 13 14  1  0
 14 19  1  0
 14 15  2  0
 16 17  1  0
 18 20  1  0
 18 17  1  6
 19 18  1  0
 20 21  1  0
 22 20  2  0
M  END
$$$$
