RGS.pdb
     RDKit          3D

 22 21  0  0  1  0  0  0  0  0999 V2000
   17.8758  -25.4604   -6.3871 N   0  0  0  0  0  0  0  0  0  0  0  0
   18.0297  -24.3710   -7.2907 C   0  0  0  0  0  0  0  0  0  0  0  0
   17.5762  -24.5009   -8.4730 N   0  0  0  0  0  0  0  0  0  0  0  0
   18.6820  -23.1639   -6.8636 N   0  0  0  0  0  0  0  0  0  0  0  0
   19.6054  -22.4992   -7.7092 C   0  0  0  0  0  0  0  0  0  0  0  0
   20.6076  -23.2481   -8.4736 C   0  0  0  0  0  0  0  0  0  0  0  0
   21.5449  -22.6160   -9.4124 C   0  0  0  0  0  0  0  0  0  0  0  0
   21.2158  -21.2472   -9.9048 C   0  0  2  0  0  0  0  0  0  0  0  0
   20.4072  -21.2156  -11.0932 N   0  0  0  0  0  0  0  0  0  0  0  0
   22.5373  -20.5402  -10.2160 C   0  0  0  0  0  0  0  0  0  0  0  0
   23.3321  -20.2860   -9.2800 O   0  0  0  0  0  0  0  0  0  0  0  0
   17.6153  -23.8170   -9.2405 N   0  0  0  0  0  0  0  0  0  0  0  0
   22.8868  -20.1665  -11.5231 C   0  0  0  0  0  0  0  0  0  0  0  0
   24.1438  -20.5893  -12.1491 C   0  0  0  0  0  0  0  0  0  0  0  0
   24.2751  -20.0290  -13.5085 O   0  0  0  0  0  0  0  0  0  0  0  0
   23.2547  -19.8366  -14.1956 O   0  0  0  0  0  0  0  0  0  0  0  0
   27.3609  -18.5053  -16.8475 C   0  0  0  0  0  0  0  0  0  0  0  0
   27.2077  -19.0048  -15.5655 C   0  0  2  0  0  0  0  0  0  0  0  0
   25.7286  -19.2995  -15.3649 N   0  0  0  0  0  0  0  0  0  0  0  0
   25.5575  -19.7210  -14.0047 C   0  0  0  0  0  0  0  0  0  0  0  0
   25.3227  -20.3592  -16.3247 O   0  0  0  0  0  0  0  0  0  0  0  0
   25.0645  -19.9775  -17.6426 O   0  0  0  0  0  0  0  0  0  0  0  0
  1  2  1  0
  2  3  2  0
  4  2  1  0
  4  5  1  0
  6  7  1  0
  6  5  1  0
  7  8  1  0
  8 10  1  0
  8  9  1  6
 10 12  1  0
 10 11  2  0
 12 13  1  0
 13 14  1  0
 14 19  1  0
 14 15  2  0
 16 17  1  0
 18 20  1  0
 18 17  1  1
 19 18  1  0
 20 21  1  0
 22 20  2  0
M  END
$$$$
