DFY.pdb
     RDKit          3D

 32 33  0  0  1  0  0  0  0  0999 V2000
   10.6180  -16.3950   19.9582 N   0  0  0  0  0  0  0  0  0  0  0  0
   10.2709  -17.2405   21.1675 C   0  0  1  0  0  0  0  0  0  0  0  0
   11.4756  -18.0877   21.3972 C   0  0  0  0  0  0  0  0  0  0  0  0
   11.7692  -19.0917   20.4047 C   0  0  0  0  0  0  0  0  0  0  0  0
   11.0153  -20.0320   20.1208 O   0  0  0  0  0  0  0  0  0  0  0  0
    9.9928  -16.2388   22.2186 C   0  0  0  0  0  0  0  0  0  0  0  0
   10.9089  -15.3741   22.4914 O   0  0  0  0  0  0  0  0  0  0  0  0
   12.9900  -19.0352   19.6844 O   0  0  0  0  0  0  0  0  0  0  0  0
    8.8194  -16.0995   22.9794 N   0  0  0  0  0  0  0  0  0  0  0  0
    8.7291  -15.1724   24.1128 C   0  0  1  0  0  0  0  0  0  0  0  0
    7.3393  -14.6001   24.1108 C   0  0  0  0  0  0  0  0  0  0  0  0
    7.1181  -13.6772   25.2344 C   0  0  0  0  0  0  0  0  0  0  0  0
    7.7304  -12.4458   25.2889 C   0  0  0  0  0  0  0  0  0  0  0  0
    7.5420  -11.5578   26.3314 C   0  0  0  0  0  0  0  0  0  0  0  0
    6.6962  -11.9477   27.3524 C   0  0  0  0  0  0  0  0  0  0  0  0
    6.0772  -13.1809   27.3071 C   0  0  0  0  0  0  0  0  0  0  0  0
    6.2734  -14.0564   26.2625 C   0  0  0  0  0  0  0  0  0  0  0  0
    9.1369  -15.7825   25.3905 C   0  0  0  0  0  0  0  0  0  0  0  0
    8.6768  -16.8912   25.7372 O   0  0  0  0  0  0  0  0  0  0  0  0
   14.5056  -18.1438   23.0681 O   0  0  0  0  0  0  0  0  0  0  0  0
   13.9029  -17.5470   24.1744 C   0  0  0  0  0  0  0  0  0  0  0  0
   13.5208  -18.2942   25.2715 C   0  0  0  0  0  0  0  0  0  0  0  0
   12.9251  -17.6711   26.3535 C   0  0  0  0  0  0  0  0  0  0  0  0
   12.6840  -16.3149   26.4031 C   0  0  0  0  0  0  0  0  0  0  0  0
   12.0452  -15.6672   27.5625 C   0  0  0  0  0  0  0  0  0  0  0  0
   10.5767  -15.7520   27.4731 C   0  0  2  0  0  0  0  0  0  0  0  0
   10.0395  -15.1634   26.2589 N   0  0  0  0  0  0  0  0  0  0  0  0
    9.8852  -15.1963   28.6247 C   0  0  0  0  0  0  0  0  0  0  0  0
    9.1292  -14.1914   28.4633 O   0  0  0  0  0  0  0  0  0  0  0  0
   13.0666  -15.5689   25.3056 C   0  0  0  0  0  0  0  0  0  0  0  0
   13.6606  -16.1875   24.2258 C   0  0  0  0  0  0  0  0  0  0  0  0
    9.9765  -15.6773   29.9142 O   0  0  0  0  0  0  0  0  0  0  0  0
  2  1  1  6
  2  3  1  0
  3  4  1  0
  4  5  2  0
  4  8  1  0
  6  2  1  0
  7  6  2  0
  9  6  1  0
 10  9  1  0
 11 12  1  0
 10 11  1  1
 12 17  1  0
 13 12  2  0
 14 13  1  0
 14 15  2  0
 15 16  1  0
 17 16  2  0
 18 10  1  0
 18 19  2  0
 21 20  1  0
 21 31  2  0
 22 21  1  0
 23 22  2  0
 23 24  1  0
 24 30  2  0
 25 24  1  0
 26 25  1  1
 26 27  1  0
 27 18  1  0
 28 32  1  0
 28 26  1  0
 29 28  2  0
 30 31  1  0
M  END
$$$$
