DFY.pdb
     RDKit          3D

 32 33  0  0  1  0  0  0  0  0999 V2000
   10.3860  -16.2708   18.5130 N   0  0  0  0  0  0  0  0  0  0  0  0
    9.6918  -17.1697   19.5169 C   0  0  1  0  0  0  0  0  0  0  0  0
   10.5983  -18.3434   19.6665 C   0  0  0  0  0  0  0  0  0  0  0  0
   10.6286  -19.2904   18.5796 C   0  0  0  0  0  0  0  0  0  0  0  0
    9.6228  -19.8214   18.0901 O   0  0  0  0  0  0  0  0  0  0  0  0
    9.5643  -16.3126   20.7148 C   0  0  0  0  0  0  0  0  0  0  0  0
   10.6317  -15.7655   21.1866 O   0  0  0  0  0  0  0  0  0  0  0  0
   11.8705  -19.6651   18.0054 O   0  0  0  0  0  0  0  0  0  0  0  0
    8.3918  -16.0031   21.4251 N   0  0  0  0  0  0  0  0  0  0  0  0
    8.4056  -15.1594   22.6251 C   0  0  1  0  0  0  0  0  0  0  0  0
    7.0226  -14.5939   22.7882 C   0  0  0  0  0  0  0  0  0  0  0  0
    6.9396  -13.6467   23.9103 C   0  0  0  0  0  0  0  0  0  0  0  0
    7.3883  -12.3506   23.7961 C   0  0  0  0  0  0  0  0  0  0  0  0
    7.3236  -11.4383   24.8327 C   0  0  0  0  0  0  0  0  0  0  0  0
    6.7798  -11.8719   26.0268 C   0  0  0  0  0  0  0  0  0  0  0  0
    6.3269  -13.1701   26.1516 C   0  0  0  0  0  0  0  0  0  0  0  0
    6.3971  -14.0692   25.1110 C   0  0  0  0  0  0  0  0  0  0  0  0
    8.9246  -15.8573   23.8145 C   0  0  0  0  0  0  0  0  0  0  0  0
    8.5965  -17.0402   24.0469 O   0  0  0  0  0  0  0  0  0  0  0  0
   12.0099  -17.0421   31.9823 O   0  0  0  0  0  0  0  0  0  0  0  0
   11.7523  -16.5121   30.7189 C   0  0  0  0  0  0  0  0  0  0  0  0
   12.2557  -17.1051   29.5776 C   0  0  0  0  0  0  0  0  0  0  0  0
   11.9814  -16.5539   28.3387 C   0  0  0  0  0  0  0  0  0  0  0  0
   11.2164  -15.4195   28.1715 C   0  0  0  0  0  0  0  0  0  0  0  0
   10.9363  -14.8431   26.8444 C   0  0  0  0  0  0  0  0  0  0  0  0
   10.2185  -15.8060   25.9903 C   0  0  2  0  0  0  0  0  0  0  0  0
    9.7911  -15.2425   24.7218 N   0  0  0  0  0  0  0  0  0  0  0  0
    9.0841  -16.4383   26.6433 C   0  0  0  0  0  0  0  0  0  0  0  0
    7.9621  -15.8480   26.6366 O   0  0  0  0  0  0  0  0  0  0  0  0
   10.7136  -14.8276   29.3135 C   0  0  0  0  0  0  0  0  0  0  0  0
   10.9855  -15.3750   30.5495 C   0  0  0  0  0  0  0  0  0  0  0  0
    9.1163  -17.6583   27.2861 O   0  0  0  0  0  0  0  0  0  0  0  0
  2  1  1  6
  2  3  1  0
  3  4  1  0
  4  5  2  0
  4  8  1  0
  6  2  1  0
  7  6  2  0
  9  6  1  0
 10  9  1  0
 11 12  1  0
 10 11  1  1
 12 17  1  0
 13 12  2  0
 14 13  1  0
 14 15  2  0
 15 16  1  0
 17 16  2  0
 18 10  1  0
 18 19  2  0
 21 20  1  0
 21 31  2  0
 22 21  1  0
 23 22  2  0
 23 24  1  0
 24 30  2  0
 25 24  1  0
 26 25  1  1
 26 27  1  0
 27 18  1  0
 28 32  1  0
 28 26  1  0
 29 28  2  0
 30 31  1  0
M  END
$$$$
