DFY.pdb
     RDKit          3D

 32 33  0  0  1  0  0  0  0  0999 V2000
    9.8585  -16.6694   19.3748 N   0  0  0  0  0  0  0  0  0  0  0  0
    9.5939  -17.4569   20.6427 C   0  0  1  0  0  0  0  0  0  0  0  0
   10.7654  -18.3691   20.7748 C   0  0  0  0  0  0  0  0  0  0  0  0
   10.9025  -19.4071   19.7835 C   0  0  0  0  0  0  0  0  0  0  0  0
    9.9846  -20.1604   19.4322 O   0  0  0  0  0  0  0  0  0  0  0  0
    9.4873  -16.4102   21.6813 C   0  0  0  0  0  0  0  0  0  0  0  0
   10.4229  -15.5264   21.7512 O   0  0  0  0  0  0  0  0  0  0  0  0
   12.1528  -19.6121   19.1456 O   0  0  0  0  0  0  0  0  0  0  0  0
    8.4626  -16.2458   22.6289 N   0  0  0  0  0  0  0  0  0  0  0  0
    8.4988  -15.1854   23.6419 C   0  0  1  0  0  0  0  0  0  0  0  0
    7.1103  -14.6192   23.7442 C   0  0  0  0  0  0  0  0  0  0  0  0
    7.0257  -13.5330   24.7323 C   0  0  0  0  0  0  0  0  0  0  0  0
    7.5789  -12.2955   24.4944 C   0  0  0  0  0  0  0  0  0  0  0  0
    7.5156  -11.2561   25.4036 C   0  0  0  0  0  0  0  0  0  0  0  0
    6.8620  -11.4959   26.5974 C   0  0  0  0  0  0  0  0  0  0  0  0
    6.3038  -12.7339   26.8457 C   0  0  0  0  0  0  0  0  0  0  0  0
    6.3739  -13.7611   25.9313 C   0  0  0  0  0  0  0  0  0  0  0  0
    9.0726  -15.6318   24.9236 C   0  0  0  0  0  0  0  0  0  0  0  0
    8.3940  -15.5825   25.9715 O   0  0  0  0  0  0  0  0  0  0  0  0
   10.3352  -17.9478   31.0266 O   0  0  0  0  0  0  0  0  0  0  0  0
   10.5856  -17.1091   29.9415 C   0  0  0  0  0  0  0  0  0  0  0  0
    9.6353  -16.2108   29.4967 C   0  0  0  0  0  0  0  0  0  0  0  0
    9.9155  -15.3925   28.4170 C   0  0  0  0  0  0  0  0  0  0  0  0
   11.1168  -15.4212   27.7417 C   0  0  0  0  0  0  0  0  0  0  0  0
   11.3981  -14.5446   26.5908 C   0  0  0  0  0  0  0  0  0  0  0  0
   11.5495  -15.3294   25.3527 C   0  0  2  0  0  0  0  0  0  0  0  0
   10.3769  -16.1220   25.0271 N   0  0  0  0  0  0  0  0  0  0  0  0
   12.7266  -16.1823   25.3384 C   0  0  0  0  0  0  0  0  0  0  0  0
   13.8626  -15.6681   25.5675 O   0  0  0  0  0  0  0  0  0  0  0  0
   12.0661  -16.3197   28.1875 C   0  0  0  0  0  0  0  0  0  0  0  0
   11.7894  -17.1364   29.2635 C   0  0  0  0  0  0  0  0  0  0  0  0
   12.7209  -17.5398   25.0938 O   0  0  0  0  0  0  0  0  0  0  0  0
  2  1  1  6
  2  3  1  0
  3  4  1  0
  4  5  2  0
  4  8  1  0
  6  2  1  0
  7  6  2  0
  9  6  1  0
 10  9  1  0
 11 12  1  0
 10 11  1  1
 12 17  1  0
 13 12  2  0
 14 13  1  0
 14 15  2  0
 15 16  1  0
 17 16  2  0
 18 10  1  0
 18 19  2  0
 21 20  1  0
 21 31  2  0
 22 21  1  0
 23 22  2  0
 23 24  1  0
 24 30  2  0
 25 24  1  0
 26 25  1  1
 26 27  1  0
 27 18  1  0
 28 32  1  0
 28 26  1  0
 29 28  2  0
 30 31  1  0
M  END
$$$$
