DFY.pdb
     RDKit          3D

 32 33  0  0  1  0  0  0  0  0999 V2000
   10.7235  -16.5270   19.6761 N   0  0  0  0  0  0  0  0  0  0  0  0
    9.5038  -16.9297   20.4810 C   0  0  1  0  0  0  0  0  0  0  0  0
    9.7228  -18.3671   20.8093 C   0  0  0  0  0  0  0  0  0  0  0  0
    9.8748  -19.2765   19.7008 C   0  0  0  0  0  0  0  0  0  0  0  0
   10.0768  -20.4924   19.8199 O   0  0  0  0  0  0  0  0  0  0  0  0
    9.5334  -16.0060   21.6349 C   0  0  0  0  0  0  0  0  0  0  0  0
   10.6562  -15.8289   22.2425 O   0  0  0  0  0  0  0  0  0  0  0  0
    9.7946  -18.7875   18.3716 O   0  0  0  0  0  0  0  0  0  0  0  0
    8.4628  -15.2685   22.1687 N   0  0  0  0  0  0  0  0  0  0  0  0
    8.5207  -14.6629   23.5036 C   0  0  1  0  0  0  0  0  0  0  0  0
    7.3314  -13.7527   23.6320 C   0  0  0  0  0  0  0  0  0  0  0  0
    7.2638  -13.1120   24.9541 C   0  0  0  0  0  0  0  0  0  0  0  0
    6.3982  -13.5552   25.9281 C   0  0  0  0  0  0  0  0  0  0  0  0
    6.3121  -12.9733   27.1791 C   0  0  0  0  0  0  0  0  0  0  0  0
    7.1431  -11.9000   27.4384 C   0  0  0  0  0  0  0  0  0  0  0  0
    8.0149  -11.4478   26.4681 C   0  0  0  0  0  0  0  0  0  0  0  0
    8.0908  -12.0365   25.2256 C   0  0  0  0  0  0  0  0  0  0  0  0
    8.6482  -15.6577   24.5830 C   0  0  0  0  0  0  0  0  0  0  0  0
    7.8129  -16.5801   24.6946 O   0  0  0  0  0  0  0  0  0  0  0  0
   15.8850  -16.1732   24.2775 O   0  0  0  0  0  0  0  0  0  0  0  0
   14.6221  -16.5640   24.7200 C   0  0  0  0  0  0  0  0  0  0  0  0
   14.3491  -16.7117   26.0659 C   0  0  0  0  0  0  0  0  0  0  0  0
   13.0852  -17.1008   26.4720 C   0  0  0  0  0  0  0  0  0  0  0  0
   12.0562  -17.3564   25.5912 C   0  0  0  0  0  0  0  0  0  0  0  0
   10.7160  -17.7735   26.0404 C   0  0  0  0  0  0  0  0  0  0  0  0
    9.9416  -16.6213   26.5348 C   0  0  2  0  0  0  0  0  0  0  0  0
    9.6881  -15.6185   25.5152 N   0  0  0  0  0  0  0  0  0  0  0  0
   10.5212  -15.9827   27.7050 C   0  0  0  0  0  0  0  0  0  0  0  0
   10.7338  -14.7331   27.6829 O   0  0  0  0  0  0  0  0  0  0  0  0
   12.3304  -17.2083   24.2457 C   0  0  0  0  0  0  0  0  0  0  0  0
   13.5894  -16.8205   23.8383 C   0  0  0  0  0  0  0  0  0  0  0  0
   10.8691  -16.6298   28.8724 O   0  0  0  0  0  0  0  0  0  0  0  0
  2  1  1  6
  2  3  1  0
  3  4  1  0
  4  5  2  0
  4  8  1  0
  6  2  1  0
  7  6  2  0
  9  6  1  0
 10  9  1  0
 11 12  1  0
 10 11  1  1
 12 17  1  0
 13 12  2  0
 14 13  1  0
 14 15  2  0
 15 16  1  0
 17 16  2  0
 18 10  1  0
 18 19  2  0
 21 20  1  0
 21 31  2  0
 22 21  1  0
 23 22  2  0
 23 24  1  0
 24 30  2  0
 25 24  1  0
 26 25  1  6
 26 27  1  0
 27 18  1  0
 28 32  1  0
 28 26  1  0
 29 28  2  0
 30 31  1  0
M  END
$$$$
