DFY.pdb
     RDKit          3D

 32 33  0  0  1  0  0  0  0  0999 V2000
   10.6773  -16.7838   20.1146 N   0  0  0  0  0  0  0  0  0  0  0  0
    9.9409  -17.4810   21.2413 C   0  0  1  0  0  0  0  0  0  0  0  0
   10.8131  -18.6319   21.6104 C   0  0  0  0  0  0  0  0  0  0  0  0
   10.8773  -19.7305   20.6787 C   0  0  0  0  0  0  0  0  0  0  0  0
    9.9189  -20.4626   20.3980 O   0  0  0  0  0  0  0  0  0  0  0  0
    9.8134  -16.4284   22.2715 C   0  0  0  0  0  0  0  0  0  0  0  0
   10.8588  -15.7326   22.5616 O   0  0  0  0  0  0  0  0  0  0  0  0
   12.0983  -20.0256   20.0196 O   0  0  0  0  0  0  0  0  0  0  0  0
    8.6618  -16.0734   22.9947 N   0  0  0  0  0  0  0  0  0  0  0  0
    8.6943  -15.0854   24.0786 C   0  0  1  0  0  0  0  0  0  0  0  0
    7.3727  -14.3694   24.0686 C   0  0  0  0  0  0  0  0  0  0  0  0
    7.2627  -13.3932   25.1632 C   0  0  0  0  0  0  0  0  0  0  0  0
    6.4275  -13.6029   26.2368 C   0  0  0  0  0  0  0  0  0  0  0  0
    6.3030  -12.7040   27.2796 C   0  0  0  0  0  0  0  0  0  0  0  0
    7.0619  -11.5508   27.2176 C   0  0  0  0  0  0  0  0  0  0  0  0
    7.9027  -11.3309   26.1448 C   0  0  0  0  0  0  0  0  0  0  0  0
    8.0175  -12.2347   25.1122 C   0  0  0  0  0  0  0  0  0  0  0  0
    9.0630  -15.6693   25.3802 C   0  0  0  0  0  0  0  0  0  0  0  0
    8.3907  -16.6027   25.8677 O   0  0  0  0  0  0  0  0  0  0  0  0
   13.4718  -20.0635   23.6609 O   0  0  0  0  0  0  0  0  0  0  0  0
   13.1246  -19.0710   24.5762 C   0  0  0  0  0  0  0  0  0  0  0  0
   13.1545  -17.7345   24.2287 C   0  0  0  0  0  0  0  0  0  0  0  0
   12.8039  -16.7742   25.1607 C   0  0  0  0  0  0  0  0  0  0  0  0
   12.4168  -17.0795   26.4480 C   0  0  0  0  0  0  0  0  0  0  0  0
   12.0495  -16.0437   27.4299 C   0  0  0  0  0  0  0  0  0  0  0  0
   10.6032  -15.7640   27.3877 C   0  0  2  0  0  0  0  0  0  0  0  0
   10.1601  -15.2167   26.1175 N   0  0  0  0  0  0  0  0  0  0  0  0
   10.1384  -14.9103   28.4685 C   0  0  0  0  0  0  0  0  0  0  0  0
   10.3112  -15.2852   29.6672 O   0  0  0  0  0  0  0  0  0  0  0  0
   12.3873  -18.4161   26.7942 C   0  0  0  0  0  0  0  0  0  0  0  0
   12.7362  -19.3753   25.8671 C   0  0  0  0  0  0  0  0  0  0  0  0
    9.5105  -13.6931   28.3053 O   0  0  0  0  0  0  0  0  0  0  0  0
  2  1  1  6
  2  3  1  0
  3  4  1  0
  4  5  2  0
  4  8  1  0
  6  2  1  0
  7  6  2  0
  9  6  1  0
 10  9  1  0
 11 12  1  0
 10 11  1  1
 12 17  1  0
 13 12  2  0
 14 13  1  0
 14 15  2  0
 15 16  1  0
 17 16  2  0
 18 10  1  0
 18 19  2  0
 21 20  1  0
 21 31  2  0
 22 21  1  0
 23 22  2  0
 23 24  1  0
 24 30  2  0
 25 24  1  0
 26 25  1  6
 26 27  1  0
 27 18  1  0
 28 32  1  0
 28 26  1  0
 29 28  2  0
 30 31  1  0
M  END
$$$$
