DFY.pdb
     RDKit          3D

 32 33  0  0  1  0  0  0  0  0999 V2000
    9.0623  -17.9292   19.4717 N   0  0  0  0  0  0  0  0  0  0  0  0
   10.4483  -17.4002   19.7833 C   0  0  1  0  0  0  0  0  0  0  0  0
   11.0699  -17.1552   18.4509 C   0  0  0  0  0  0  0  0  0  0  0  0
   10.9828  -18.2192   17.4818 C   0  0  0  0  0  0  0  0  0  0  0  0
   11.1299  -19.4192   17.7496 O   0  0  0  0  0  0  0  0  0  0  0  0
   10.1808  -16.1895   20.5885 C   0  0  0  0  0  0  0  0  0  0  0  0
   11.1675  -15.4013   20.8464 O   0  0  0  0  0  0  0  0  0  0  0  0
   10.7129  -17.9147   16.1228 O   0  0  0  0  0  0  0  0  0  0  0  0
    8.9498  -15.7706   21.1215 N   0  0  0  0  0  0  0  0  0  0  0  0
    8.8618  -14.9701   22.3476 C   0  0  1  0  0  0  0  0  0  0  0  0
    7.4421  -15.0545   22.8341 C   0  0  0  0  0  0  0  0  0  0  0  0
    7.1725  -14.1058   23.9252 C   0  0  0  0  0  0  0  0  0  0  0  0
    6.4639  -14.4760   25.0455 C   0  0  0  0  0  0  0  0  0  0  0  0
    6.1949  -13.6070   26.0864 C   0  0  0  0  0  0  0  0  0  0  0  0
    6.6697  -12.3141   25.9727 C   0  0  0  0  0  0  0  0  0  0  0  0
    7.3815  -11.9329   24.8529 C   0  0  0  0  0  0  0  0  0  0  0  0
    7.6427  -12.8086   23.8228 C   0  0  0  0  0  0  0  0  0  0  0  0
    9.8747  -15.3401   23.3517 C   0  0  0  0  0  0  0  0  0  0  0  0
   10.9883  -14.7737   23.3650 O   0  0  0  0  0  0  0  0  0  0  0  0
   11.4363  -15.6356   31.8825 O   0  0  0  0  0  0  0  0  0  0  0  0
   10.8928  -15.6465   30.5988 C   0  0  0  0  0  0  0  0  0  0  0  0
   10.8340  -14.4963   29.8364 C   0  0  0  0  0  0  0  0  0  0  0  0
   10.2883  -14.5412   28.5659 C   0  0  0  0  0  0  0  0  0  0  0  0
    9.7870  -15.6945   28.0016 C   0  0  0  0  0  0  0  0  0  0  0  0
    9.2059  -15.7244   26.6476 C   0  0  0  0  0  0  0  0  0  0  0  0
   10.1540  -16.3008   25.6777 C   0  0  2  0  0  0  0  0  0  0  0  0
    9.6438  -16.3224   24.3181 N   0  0  0  0  0  0  0  0  0  0  0  0
   10.6267  -17.6278   26.0361 C   0  0  0  0  0  0  0  0  0  0  0  0
   11.8202  -17.7683   26.4400 O   0  0  0  0  0  0  0  0  0  0  0  0
    9.8464  -16.8439   28.7649 C   0  0  0  0  0  0  0  0  0  0  0  0
   10.3898  -16.8019   30.0315 C   0  0  0  0  0  0  0  0  0  0  0  0
    9.8734  -18.7819   25.9779 O   0  0  0  0  0  0  0  0  0  0  0  0
  2  1  1  6
  2  3  1  0
  3  4  1  0
  4  5  2  0
  4  8  1  0
  6  2  1  0
  7  6  2  0
  9  6  1  0
 10  9  1  0
 11 12  1  0
 10 11  1  1
 12 17  1  0
 13 12  2  0
 14 13  1  0
 14 15  2  0
 15 16  1  0
 17 16  2  0
 18 10  1  0
 18 19  2  0
 21 20  1  0
 21 31  2  0
 22 21  1  0
 23 22  2  0
 23 24  1  0
 24 30  2  0
 25 24  1  0
 26 25  1  1
 26 27  1  0
 27 18  1  0
 28 32  1  0
 28 26  1  0
 29 28  2  0
 30 31  1  0
M  END
$$$$
