DFY.pdb
     RDKit          3D

 32 33  0  0  1  0  0  0  0  0999 V2000
   10.2301  -16.0993   18.4810 N   0  0  0  0  0  0  0  0  0  0  0  0
    9.5368  -16.9997   19.4842 C   0  0  1  0  0  0  0  0  0  0  0  0
   10.4272  -18.1888   19.6064 C   0  0  0  0  0  0  0  0  0  0  0  0
   10.4051  -19.1380   18.5211 C   0  0  0  0  0  0  0  0  0  0  0  0
   10.8287  -20.2987   18.6022 O   0  0  0  0  0  0  0  0  0  0  0  0
    9.4400  -16.1554   20.6940 C   0  0  0  0  0  0  0  0  0  0  0  0
   10.5123  -15.5826   21.1223 O   0  0  0  0  0  0  0  0  0  0  0  0
    9.8723  -18.7577   17.2626 O   0  0  0  0  0  0  0  0  0  0  0  0
    8.2926  -15.8838   21.4587 N   0  0  0  0  0  0  0  0  0  0  0  0
    8.3380  -15.0519   22.6661 C   0  0  1  0  0  0  0  0  0  0  0  0
    6.9682  -14.4619   22.8526 C   0  0  0  0  0  0  0  0  0  0  0  0
    6.9109  -13.5454   24.0015 C   0  0  0  0  0  0  0  0  0  0  0  0
    7.4538  -12.2819   23.9452 C   0  0  0  0  0  0  0  0  0  0  0  0
    7.4154  -11.3989   25.0081 C   0  0  0  0  0  0  0  0  0  0  0  0
    6.7987  -11.8281   26.1679 C   0  0  0  0  0  0  0  0  0  0  0  0
    6.2512  -13.0937   26.2345 C   0  0  0  0  0  0  0  0  0  0  0  0
    6.2961  -13.9638   25.1682 C   0  0  0  0  0  0  0  0  0  0  0  0
    8.8590  -15.7707   23.8422 C   0  0  0  0  0  0  0  0  0  0  0  0
    8.4328  -16.9101   24.1269 O   0  0  0  0  0  0  0  0  0  0  0  0
   12.2813  -17.1527   31.8291 O   0  0  0  0  0  0  0  0  0  0  0  0
   11.9328  -16.5664   30.6133 C   0  0  0  0  0  0  0  0  0  0  0  0
   11.0135  -15.5374   30.5521 C   0  0  0  0  0  0  0  0  0  0  0  0
   10.6896  -14.9772   29.3294 C   0  0  0  0  0  0  0  0  0  0  0  0
   11.2436  -15.3955   28.1385 C   0  0  0  0  0  0  0  0  0  0  0  0
   10.8850  -14.7899   26.8437 C   0  0  0  0  0  0  0  0  0  0  0  0
   10.2615  -15.7823   25.9503 C   0  0  2  0  0  0  0  0  0  0  0  0
    9.8351  -15.2240   24.6791 N   0  0  0  0  0  0  0  0  0  0  0  0
    9.1538  -16.5033   26.5555 C   0  0  0  0  0  0  0  0  0  0  0  0
    9.3711  -17.6349   27.0844 O   0  0  0  0  0  0  0  0  0  0  0  0
   12.1627  -16.4244   28.2011 C   0  0  0  0  0  0  0  0  0  0  0  0
   12.4873  -16.9846   29.4185 C   0  0  0  0  0  0  0  0  0  0  0  0
    7.8504  -16.0554   26.6114 O   0  0  0  0  0  0  0  0  0  0  0  0
  2  1  1  6
  2  3  1  0
  3  4  1  0
  4  5  2  0
  4  8  1  0
  6  2  1  0
  7  6  2  0
  9  6  1  0
 10  9  1  0
 11 12  1  0
 10 11  1  1
 12 17  1  0
 13 12  2  0
 14 13  1  0
 14 15  2  0
 15 16  1  0
 17 16  2  0
 18 10  1  0
 18 19  2  0
 21 20  1  0
 21 31  2  0
 22 21  1  0
 23 22  2  0
 23 24  1  0
 24 30  2  0
 25 24  1  0
 26 25  1  1
 26 27  1  0
 27 18  1  0
 28 32  1  0
 28 26  1  0
 29 28  2  0
 30 31  1  0
M  END
$$$$
