DFY.pdb
     RDKit          3D

 32 33  0  0  1  0  0  0  0  0999 V2000
   10.6066  -16.7364   20.0388 N   0  0  0  0  0  0  0  0  0  0  0  0
    9.5857  -17.3774   20.9580 C   0  0  1  0  0  0  0  0  0  0  0  0
   10.1756  -18.6978   21.3190 C   0  0  0  0  0  0  0  0  0  0  0  0
    9.6391  -19.8589   20.6534 C   0  0  0  0  0  0  0  0  0  0  0  0
    8.8205  -19.8137   19.7254 O   0  0  0  0  0  0  0  0  0  0  0  0
    9.4707  -16.4108   22.0707 C   0  0  0  0  0  0  0  0  0  0  0  0
   10.5515  -16.0394   22.6668 O   0  0  0  0  0  0  0  0  0  0  0  0
   10.0493  -21.1555   21.0572 O   0  0  0  0  0  0  0  0  0  0  0  0
    8.2987  -15.8218   22.5753 N   0  0  0  0  0  0  0  0  0  0  0  0
    8.3102  -14.9411   23.7484 C   0  0  1  0  0  0  0  0  0  0  0  0
    6.9991  -14.2064   23.7669 C   0  0  0  0  0  0  0  0  0  0  0  0
    6.8971  -13.2826   24.9068 C   0  0  0  0  0  0  0  0  0  0  0  0
    5.9388  -13.4416   25.8818 C   0  0  0  0  0  0  0  0  0  0  0  0
    5.8185  -12.5898   26.9640 C   0  0  0  0  0  0  0  0  0  0  0  0
    6.7127  -11.5395   27.0475 C   0  0  0  0  0  0  0  0  0  0  0  0
    7.6776  -11.3713   26.0746 C   0  0  0  0  0  0  0  0  0  0  0  0
    7.7868  -12.2271   25.0013 C   0  0  0  0  0  0  0  0  0  0  0  0
    8.6305  -15.6511   24.9992 C   0  0  0  0  0  0  0  0  0  0  0  0
    7.8431  -16.5036   25.4618 O   0  0  0  0  0  0  0  0  0  0  0  0
    6.7106  -21.1967   28.4590 O   0  0  0  0  0  0  0  0  0  0  0  0
    7.6807  -20.2912   28.0321 C   0  0  0  0  0  0  0  0  0  0  0  0
    8.7302  -19.9266   28.8527 C   0  0  0  0  0  0  0  0  0  0  0  0
    9.6764  -19.0253   28.3986 C   0  0  0  0  0  0  0  0  0  0  0  0
    9.6329  -18.4551   27.1444 C   0  0  0  0  0  0  0  0  0  0  0  0
   10.6474  -17.4937   26.6772 C   0  0  0  0  0  0  0  0  0  0  0  0
   10.2140  -16.1065   26.9217 C   0  0  2  0  0  0  0  0  0  0  0  0
    9.8065  -15.4101   25.7142 N   0  0  0  0  0  0  0  0  0  0  0  0
   11.1929  -15.3024   27.6346 C   0  0  0  0  0  0  0  0  0  0  0  0
   11.0503  -15.1205   28.8811 O   0  0  0  0  0  0  0  0  0  0  0  0
    8.5830  -18.8205   26.3249 C   0  0  0  0  0  0  0  0  0  0  0  0
    7.6386  -19.7187   26.7750 C   0  0  0  0  0  0  0  0  0  0  0  0
   12.2964  -14.7036   27.0634 O   0  0  0  0  0  0  0  0  0  0  0  0
  2  1  1  6
  2  3  1  0
  3  4  1  0
  4  5  2  0
  4  8  1  0
  6  2  1  0
  7  6  2  0
  9  6  1  0
 10  9  1  0
 11 12  1  0
 10 11  1  1
 12 17  1  0
 13 12  2  0
 14 13  1  0
 14 15  2  0
 15 16  1  0
 17 16  2  0
 18 10  1  0
 18 19  2  0
 21 20  1  0
 21 31  2  0
 22 21  1  0
 23 22  2  0
 23 24  1  0
 24 30  2  0
 25 24  1  0
 26 25  1  6
 26 27  1  0
 27 18  1  0
 28 32  1  0
 28 26  1  0
 29 28  2  0
 30 31  1  0
M  END
$$$$
