DFY.pdb
     RDKit          3D

 32 33  0  0  1  0  0  0  0  0999 V2000
    9.2462  -18.0720   20.8300 N   0  0  0  0  0  0  0  0  0  0  0  0
   10.4978  -17.2170   20.8253 C   0  0  1  0  0  0  0  0  0  0  0  0
   10.8481  -17.0642   19.3845 C   0  0  0  0  0  0  0  0  0  0  0  0
   10.4547  -18.1312   18.4980 C   0  0  0  0  0  0  0  0  0  0  0  0
   10.3812  -19.3217   18.8305 O   0  0  0  0  0  0  0  0  0  0  0  0
   10.0694  -15.9769   21.5067 C   0  0  0  0  0  0  0  0  0  0  0  0
   10.8355  -14.9436   21.4257 O   0  0  0  0  0  0  0  0  0  0  0  0
   10.1225  -17.8412   17.1497 O   0  0  0  0  0  0  0  0  0  0  0  0
    8.8949  -15.7709   22.2505 N   0  0  0  0  0  0  0  0  0  0  0  0
    8.7144  -14.6005   23.1164 C   0  0  1  0  0  0  0  0  0  0  0  0
    7.2358  -14.3582   23.2356 C   0  0  0  0  0  0  0  0  0  0  0  0
    6.9155  -13.3980   24.3026 C   0  0  0  0  0  0  0  0  0  0  0  0
    7.1203  -12.0463   24.1434 C   0  0  0  0  0  0  0  0  0  0  0  0
    6.8292  -11.1205   25.1278 C   0  0  0  0  0  0  0  0  0  0  0  0
    6.3103  -11.5991   26.3159 C   0  0  0  0  0  0  0  0  0  0  0  0
    6.1012  -12.9532   26.4855 C   0  0  0  0  0  0  0  0  0  0  0  0
    6.3955  -13.8652   25.4967 C   0  0  0  0  0  0  0  0  0  0  0  0
    9.4194  -14.7222   24.4046 C   0  0  0  0  0  0  0  0  0  0  0  0
    9.3561  -13.8038   25.2492 O   0  0  0  0  0  0  0  0  0  0  0  0
   11.9083  -17.6896   32.1161 O   0  0  0  0  0  0  0  0  0  0  0  0
   11.3549  -17.3370   30.8861 C   0  0  0  0  0  0  0  0  0  0  0  0
   10.7311  -18.2747   30.0865 C   0  0  0  0  0  0  0  0  0  0  0  0
   10.1921  -17.8920   28.8712 C   0  0  0  0  0  0  0  0  0  0  0  0
   10.2418  -16.5979   28.3990 C   0  0  0  0  0  0  0  0  0  0  0  0
    9.6653  -16.2074   27.1002 C   0  0  0  0  0  0  0  0  0  0  0  0
   10.7046  -16.1464   26.0571 C   0  0  2  0  0  0  0  0  0  0  0  0
   10.1777  -15.8476   24.7371 N   0  0  0  0  0  0  0  0  0  0  0  0
   11.5358  -17.3368   25.9859 C   0  0  0  0  0  0  0  0  0  0  0  0
   11.0955  -18.3602   25.3808 O   0  0  0  0  0  0  0  0  0  0  0  0
   10.8657  -15.6613   29.1995 C   0  0  0  0  0  0  0  0  0  0  0  0
   11.4038  -16.0401   30.4113 C   0  0  0  0  0  0  0  0  0  0  0  0
   12.7975  -17.4582   26.5298 O   0  0  0  0  0  0  0  0  0  0  0  0
  2  1  1  6
  2  3  1  0
  3  4  1  0
  4  5  2  0
  4  8  1  0
  6  2  1  0
  7  6  2  0
  9  6  1  0
 10  9  1  0
 11 12  1  0
 10 11  1  1
 12 17  1  0
 13 12  2  0
 14 13  1  0
 14 15  2  0
 15 16  1  0
 17 16  2  0
 18 10  1  0
 18 19  2  0
 21 20  1  0
 21 31  2  0
 22 21  1  0
 23 22  2  0
 23 24  1  0
 24 30  2  0
 25 24  1  0
 26 25  1  1
 26 27  1  0
 27 18  1  0
 28 32  1  0
 28 26  1  0
 29 28  2  0
 30 31  1  0
M  END
$$$$
