DFY.pdb
     RDKit          3D

 32 33  0  0  1  0  0  0  0  0999 V2000
    8.5996  -17.7448   19.8443 N   0  0  0  0  0  0  0  0  0  0  0  0
    7.8965  -18.1632   21.1204 C   0  0  1  0  0  0  0  0  0  0  0  0
    8.5311  -19.4583   21.4968 C   0  0  0  0  0  0  0  0  0  0  0  0
    8.1868  -20.6117   20.7029 C   0  0  0  0  0  0  0  0  0  0  0  0
    7.2696  -20.6364   19.8715 O   0  0  0  0  0  0  0  0  0  0  0  0
    8.1603  -17.0382   22.0426 C   0  0  0  0  0  0  0  0  0  0  0  0
    9.3370  -16.5122   22.0380 O   0  0  0  0  0  0  0  0  0  0  0  0
    8.9213  -21.8160   20.8535 O   0  0  0  0  0  0  0  0  0  0  0  0
    7.2641  -16.4459   22.9487 N   0  0  0  0  0  0  0  0  0  0  0  0
    7.6926  -15.4377   23.9244 C   0  0  1  0  0  0  0  0  0  0  0  0
    6.4701  -14.6640   24.3319 C   0  0  0  0  0  0  0  0  0  0  0  0
    6.7778  -13.6235   25.3248 C   0  0  0  0  0  0  0  0  0  0  0  0
    6.2221  -13.6397   26.5838 C   0  0  0  0  0  0  0  0  0  0  0  0
    6.4922  -12.6760   27.5375 C   0  0  0  0  0  0  0  0  0  0  0  0
    7.3623  -11.6615   27.1860 C   0  0  0  0  0  0  0  0  0  0  0  0
    7.9250  -11.6363   25.9256 C   0  0  0  0  0  0  0  0  0  0  0  0
    7.6476  -12.6026   24.9846 C   0  0  0  0  0  0  0  0  0  0  0  0
    8.4559  -16.0101   25.0474 C   0  0  0  0  0  0  0  0  0  0  0  0
    7.8625  -16.5494   26.0055 O   0  0  0  0  0  0  0  0  0  0  0  0
    6.1349  -20.2367   28.6424 O   0  0  0  0  0  0  0  0  0  0  0  0
    7.2680  -19.6819   28.0493 C   0  0  0  0  0  0  0  0  0  0  0  0
    8.2728  -19.1196   28.8121 C   0  0  0  0  0  0  0  0  0  0  0  0
    9.3844  -18.5774   28.1922 C   0  0  0  0  0  0  0  0  0  0  0  0
    9.5529  -18.5644   26.8242 C   0  0  0  0  0  0  0  0  0  0  0  0
   10.7420  -17.9795   26.1794 C   0  0  0  0  0  0  0  0  0  0  0  0
   10.6694  -16.5076   26.1715 C   0  0  2  0  0  0  0  0  0  0  0  0
    9.8519  -15.9780   25.0943 N   0  0  0  0  0  0  0  0  0  0  0  0
   11.9685  -15.8556   26.1558 C   0  0  0  0  0  0  0  0  0  0  0  0
   12.2470  -15.0603   25.2086 O   0  0  0  0  0  0  0  0  0  0  0  0
    8.5474  -19.1269   26.0626 C   0  0  0  0  0  0  0  0  0  0  0  0
    7.4385  -19.6681   26.6780 C   0  0  0  0  0  0  0  0  0  0  0  0
   12.9540  -16.0256   27.1057 O   0  0  0  0  0  0  0  0  0  0  0  0
  2  1  1  6
  2  3  1  0
  3  4  1  0
  4  5  2  0
  4  8  1  0
  6  2  1  0
  7  6  2  0
  9  6  1  0
 10  9  1  0
 11 12  1  0
 10 11  1  1
 12 17  1  0
 13 12  2  0
 14 13  1  0
 14 15  2  0
 15 16  1  0
 17 16  2  0
 18 10  1  0
 18 19  2  0
 21 20  1  0
 21 31  2  0
 22 21  1  0
 23 22  2  0
 23 24  1  0
 24 30  2  0
 25 24  1  0
 26 25  1  6
 26 27  1  0
 27 18  1  0
 28 32  1  0
 28 26  1  0
 29 28  2  0
 30 31  1  0
M  END
$$$$
