NQW.pdb
     RDKit          3D

 32 33  0  0  1  0  0  0  0  0999 V2000
    9.2012  -20.5608   17.2279 N   0  0  0  0  0  0  0  0  0  0  0  0
    8.8066  -19.2481   17.5557 C   0  0  0  0  0  0  0  0  0  0  0  0
    9.1656  -18.3003   16.8379 O   0  0  0  0  0  0  0  0  0  0  0  0
    7.9750  -19.0123   18.7424 C   0  0  0  0  0  0  0  0  0  0  0  0
    8.8744  -18.9478   19.9501 C   0  0  2  0  0  0  0  0  0  0  0  0
    8.1090  -18.9378   21.1805 N   0  0  0  0  0  0  0  0  0  0  0  0
    9.7298  -17.7500   19.8389 C   0  0  0  0  0  0  0  0  0  0  0  0
   10.8346  -17.7334   19.2557 O   0  0  0  0  0  0  0  0  0  0  0  0
    7.4867  -12.4320   18.6549 N   0  0  0  0  0  0  0  0  0  0  0  0
    8.0252  -13.3697   17.7408 C   0  0  0  0  0  0  0  0  0  0  0  0
    7.6843  -13.3399   16.5408 O   0  0  0  0  0  0  0  0  0  0  0  0
    8.9862  -14.3773   18.2215 C   0  0  0  0  0  0  0  0  0  0  0  0
    9.1048  -14.3208   19.6977 C   0  0  0  0  0  0  0  0  0  0  0  0
   10.0747  -15.3244   20.3018 C   0  0  2  0  0  0  0  0  0  0  0  0
    9.2684  -16.5507   20.4290 N   0  0  0  0  0  0  0  0  0  0  0  0
   10.4922  -14.9324   21.6564 C   0  0  0  0  0  0  0  0  0  0  0  0
   10.8147  -13.7440   21.8749 O   0  0  0  0  0  0  0  0  0  0  0  0
   10.5366  -15.8601   22.7108 N   0  0  0  0  0  0  0  0  0  0  0  0
    9.8489  -15.5646   23.9993 C   0  0  1  0  0  0  0  0  0  0  0  0
    8.4416  -15.2739   23.6013 C   0  0  0  0  0  0  0  0  0  0  0  0
    7.5718  -14.9358   24.7385 C   0  0  0  0  0  0  0  0  0  0  0  0
    6.6871  -15.7871   25.4073 C   0  0  0  0  0  0  0  0  0  0  0  0
    6.0486  -15.1013   26.3632 N   0  0  0  0  0  0  0  0  0  0  0  0
    6.4493  -13.8260   26.3852 C   0  0  0  0  0  0  0  0  0  0  0  0
    6.1293  -12.7269   27.1654 C   0  0  0  0  0  0  0  0  0  0  0  0
    6.7618  -11.5284   26.9301 C   0  0  0  0  0  0  0  0  0  0  0  0
    7.7024  -11.3923   25.9422 C   0  0  0  0  0  0  0  0  0  0  0  0
    8.0078  -12.4945   25.1758 C   0  0  0  0  0  0  0  0  0  0  0  0
    7.4048  -13.7112   25.3703 C   0  0  0  0  0  0  0  0  0  0  0  0
   10.0966  -16.6859   24.8858 C   0  0  0  0  0  0  0  0  0  0  0  0
    9.6765  -16.7542   26.0834 O   0  0  0  0  0  0  0  0  0  0  0  0
   10.8270  -17.7923   24.4664 O   0  0  0  0  0  0  0  0  0  0  0  0
  1  2  1  0
  2  4  1  0
  2  3  2  0
  5  4  1  0
  5  6  1  1
  7  8  2  0
  7  5  1  0
 10 11  2  0
 10  9  1  0
 12 10  1  0
 13 12  1  0
 14 13  1  1
 14 15  1  0
 15  7  1  0
 16 17  2  0
 16 14  1  0
 18 16  1  0
 19 30  1  0
 19 18  1  0
 19 20  1  6
 21 20  1  0
 22 21  2  0
 23 22  1  0
 24 23  1  0
 24 29  2  0
 25 24  1  0
 26 25  2  0
 26 27  1  0
 27 28  2  0
 28 29  1  0
 29 21  1  0
 30 32  1  0
 31 30  2  0
M  END
$$$$
