NQW.pdb
     RDKit          3D

 32 33  0  0  1  0  0  0  0  0999 V2000
    7.7680  -17.5732   16.1832 N   0  0  0  0  0  0  0  0  0  0  0  0
    7.4581  -18.2616   17.3733 C   0  0  0  0  0  0  0  0  0  0  0  0
    6.2706  -18.4601   17.6780 O   0  0  0  0  0  0  0  0  0  0  0  0
    8.5414  -18.7380   18.2423 C   0  0  0  0  0  0  0  0  0  0  0  0
    8.4536  -18.0080   19.5580 C   0  0  2  0  0  0  0  0  0  0  0  0
    8.1301  -16.6086   19.3666 N   0  0  0  0  0  0  0  0  0  0  0  0
    9.7332  -18.1712   20.2754 C   0  0  0  0  0  0  0  0  0  0  0  0
   10.2295  -19.2782   20.5737 O   0  0  0  0  0  0  0  0  0  0  0  0
   13.3018  -13.8959   18.4115 N   0  0  0  0  0  0  0  0  0  0  0  0
   13.6769  -14.3792   19.6885 C   0  0  0  0  0  0  0  0  0  0  0  0
   14.8689  -14.3230   20.0531 O   0  0  0  0  0  0  0  0  0  0  0  0
   12.6483  -14.9485   20.5762 C   0  0  0  0  0  0  0  0  0  0  0  0
   12.7177  -16.4289   20.5708 C   0  0  0  0  0  0  0  0  0  0  0  0
   11.6758  -17.1226   21.4346 C   0  0  2  0  0  0  0  0  0  0  0  0
   10.4374  -17.0023   20.6458 N   0  0  0  0  0  0  0  0  0  0  0  0
   11.4577  -16.4117   22.7034 C   0  0  0  0  0  0  0  0  0  0  0  0
   11.7717  -15.2041   22.7873 O   0  0  0  0  0  0  0  0  0  0  0  0
   10.9043  -17.0558   23.8229 N   0  0  0  0  0  0  0  0  0  0  0  0
   10.0488  -16.2968   24.7781 C   0  0  1  0  0  0  0  0  0  0  0  0
    9.0384  -15.6287   23.9087 C   0  0  0  0  0  0  0  0  0  0  0  0
    7.9040  -15.0670   24.6583 C   0  0  0  0  0  0  0  0  0  0  0  0
    6.7410  -15.7338   25.0552 C   0  0  0  0  0  0  0  0  0  0  0  0
    5.9303  -14.8750   25.6853 N   0  0  0  0  0  0  0  0  0  0  0  0
    6.4763  -13.6559   25.7417 C   0  0  0  0  0  0  0  0  0  0  0  0
    6.0783  -12.4439   26.2818 C   0  0  0  0  0  0  0  0  0  0  0  0
    6.9136  -11.3561   26.1804 C   0  0  0  0  0  0  0  0  0  0  0  0
    8.1322  -11.4393   25.5580 C   0  0  0  0  0  0  0  0  0  0  0  0
    8.5118  -12.6512   25.0263 C   0  0  0  0  0  0  0  0  0  0  0  0
    7.7147  -13.7651   25.1006 C   0  0  0  0  0  0  0  0  0  0  0  0
    9.5824  -17.2381   25.7788 C   0  0  0  0  0  0  0  0  0  0  0  0
    9.2057  -16.9083   26.9470 O   0  0  0  0  0  0  0  0  0  0  0  0
    9.5110  -18.6010   25.5126 O   0  0  0  0  0  0  0  0  0  0  0  0
  1  2  1  0
  2  4  1  0
  2  3  2  0
  5  4  1  0
  5  6  1  6
  7  8  2  0
  7  5  1  0
 10 11  2  0
 10  9  1  0
 12 10  1  0
 13 12  1  0
 14 13  1  6
 14 15  1  0
 15  7  1  0
 16 17  2  0
 16 14  1  0
 18 16  1  0
 19 30  1  0
 19 18  1  0
 19 20  1  6
 21 20  1  0
 22 21  2  0
 23 22  1  0
 24 23  1  0
 24 29  2  0
 25 24  1  0
 26 25  2  0
 26 27  1  0
 27 28  2  0
 28 29  1  0
 29 21  1  0
 30 32  1  0
 31 30  2  0
M  END
$$$$
