NQW.pdb
     RDKit          3D

 32 33  0  0  1  0  0  0  0  0999 V2000
    8.4338  -12.6117   17.6540 N   0  0  0  0  0  0  0  0  0  0  0  0
    7.7659  -13.8104   17.3330 C   0  0  0  0  0  0  0  0  0  0  0  0
    7.1906  -13.9201   16.2378 O   0  0  0  0  0  0  0  0  0  0  0  0
    7.7558  -14.9190   18.2956 C   0  0  0  0  0  0  0  0  0  0  0  0
    8.4317  -14.4579   19.5613 C   0  0  2  0  0  0  0  0  0  0  0  0
    9.8236  -14.1289   19.3288 N   0  0  0  0  0  0  0  0  0  0  0  0
    8.2920  -15.5137   20.5834 C   0  0  0  0  0  0  0  0  0  0  0  0
    7.1944  -15.9291   21.0118 O   0  0  0  0  0  0  0  0  0  0  0  0
   12.2464  -19.9799   20.7963 N   0  0  0  0  0  0  0  0  0  0  0  0
   12.5588  -18.6208   20.5511 C   0  0  0  0  0  0  0  0  0  0  0  0
   13.6200  -18.3183   19.9684 O   0  0  0  0  0  0  0  0  0  0  0  0
   11.6217  -17.5732   20.9919 C   0  0  0  0  0  0  0  0  0  0  0  0
   10.4232  -18.1778   21.6200 C   0  0  0  0  0  0  0  0  0  0  0  0
    9.3733  -17.1820   22.0881 C   0  0  2  0  0  0  0  0  0  0  0  0
    9.4734  -16.0876   21.1071 N   0  0  0  0  0  0  0  0  0  0  0  0
    9.7036  -16.6200   23.4064 C   0  0  0  0  0  0  0  0  0  0  0  0
   10.4828  -15.6442   23.4752 O   0  0  0  0  0  0  0  0  0  0  0  0
    9.1645  -17.1519   24.5899 N   0  0  0  0  0  0  0  0  0  0  0  0
    9.6068  -16.6334   25.9150 C   0  0  1  0  0  0  0  0  0  0  0  0
    8.3388  -16.4677   26.6818 C   0  0  0  0  0  0  0  0  0  0  0  0
    7.4714  -15.4042   26.1521 C   0  0  0  0  0  0  0  0  0  0  0  0
    6.3474  -15.5598   25.3353 C   0  0  0  0  0  0  0  0  0  0  0  0
    5.8470  -14.3552   25.0350 N   0  0  0  0  0  0  0  0  0  0  0  0
    6.5678  -13.3830   25.6031 C   0  0  0  0  0  0  0  0  0  0  0  0
    6.4758  -12.0010   25.6267 C   0  0  0  0  0  0  0  0  0  0  0  0
    7.3968  -11.2781   26.3483 C   0  0  0  0  0  0  0  0  0  0  0  0
    8.4056  -11.8900   27.0464 C   0  0  0  0  0  0  0  0  0  0  0  0
    8.4827  -13.2642   27.0115 C   0  0  0  0  0  0  0  0  0  0  0  0
    7.5892  -14.0299   26.3064 C   0  0  0  0  0  0  0  0  0  0  0  0
   10.6054  -17.5539   26.4252 C   0  0  0  0  0  0  0  0  0  0  0  0
   11.1902  -17.4219   27.5460 O   0  0  0  0  0  0  0  0  0  0  0  0
   10.9933  -18.6753   25.7004 O   0  0  0  0  0  0  0  0  0  0  0  0
  1  2  1  0
  2  4  1  0
  2  3  2  0
  5  4  1  0
  5  6  1  6
  7  8  2  0
  7  5  1  0
 10 11  2  0
 10  9  1  0
 12 10  1  0
 13 12  1  0
 14 13  1  6
 14 15  1  0
 15  7  1  0
 16 17  2  0
 16 14  1  0
 18 16  1  0
 19 30  1  0
 19 18  1  0
 19 20  1  1
 21 20  1  0
 22 21  2  0
 23 22  1  0
 24 23  1  0
 24 29  2  0
 25 24  1  0
 26 25  2  0
 26 27  1  0
 27 28  2  0
 28 29  1  0
 29 21  1  0
 30 32  1  0
 31 30  2  0
M  END
$$$$
