NQW.pdb
     RDKit          3D

 32 33  0  0  1  0  0  0  0  0999 V2000
    6.3906  -20.8378   20.0825 N   0  0  0  0  0  0  0  0  0  0  0  0
    7.0445  -20.4901   18.8835 C   0  0  0  0  0  0  0  0  0  0  0  0
    6.5719  -20.8584   17.7956 O   0  0  0  0  0  0  0  0  0  0  0  0
    8.2784  -19.6958   18.9306 C   0  0  0  0  0  0  0  0  0  0  0  0
    8.5320  -19.2927   20.3606 C   0  0  2  0  0  0  0  0  0  0  0  0
    7.3054  -18.9037   21.0267 N   0  0  0  0  0  0  0  0  0  0  0  0
    9.5223  -18.1982   20.3745 C   0  0  0  0  0  0  0  0  0  0  0  0
   10.6563  -18.2767   19.8563 O   0  0  0  0  0  0  0  0  0  0  0  0
    7.9669  -12.5660   19.4551 N   0  0  0  0  0  0  0  0  0  0  0  0
    8.2629  -13.5955   18.5292 C   0  0  0  0  0  0  0  0  0  0  0  0
    7.8675  -13.5079   17.3490 O   0  0  0  0  0  0  0  0  0  0  0  0
    9.0375  -14.7668   18.9744 C   0  0  0  0  0  0  0  0  0  0  0  0
    9.2708  -14.7111   20.4369 C   0  0  0  0  0  0  0  0  0  0  0  0
   10.1021  -15.8546   20.9975 C   0  0  2  0  0  0  0  0  0  0  0  0
    9.1627  -16.9892   21.0137 N   0  0  0  0  0  0  0  0  0  0  0  0
   10.5088  -15.6029   22.3882 C   0  0  0  0  0  0  0  0  0  0  0  0
   11.2378  -14.6188   22.6416 O   0  0  0  0  0  0  0  0  0  0  0  0
   10.0974  -16.4402   23.4390 N   0  0  0  0  0  0  0  0  0  0  0  0
   10.4581  -16.1099   24.8465 C   0  0  1  0  0  0  0  0  0  0  0  0
    9.8494  -14.7675   25.0718 C   0  0  0  0  0  0  0  0  0  0  0  0
    8.4071  -14.8212   25.3561 C   0  0  0  0  0  0  0  0  0  0  0  0
    7.5713  -15.9390   25.2741 C   0  0  0  0  0  0  0  0  0  0  0  0
    6.3178  -15.5789   25.5754 N   0  0  0  0  0  0  0  0  0  0  0  0
    6.2507  -14.2743   25.8601 C   0  0  0  0  0  0  0  0  0  0  0  0
    5.2281  -13.4205   26.2403 C   0  0  0  0  0  0  0  0  0  0  0  0
    5.5128  -12.0972   26.4837 C   0  0  0  0  0  0  0  0  0  0  0  0
    6.7841  -11.5994   26.3600 C   0  0  0  0  0  0  0  0  0  0  0  0
    7.7882  -12.4615   25.9806 C   0  0  0  0  0  0  0  0  0  0  0  0
    7.5557  -13.7892   25.7258 C   0  0  0  0  0  0  0  0  0  0  0  0
   10.0145  -17.2154   25.6747 C   0  0  0  0  0  0  0  0  0  0  0  0
    9.4588  -18.2658   25.2237 O   0  0  0  0  0  0  0  0  0  0  0  0
   10.1793  -17.1969   27.0553 O   0  0  0  0  0  0  0  0  0  0  0  0
  1  2  1  0
  2  4  1  0
  2  3  2  0
  5  4  1  0
  5  6  1  6
  7  8  2  0
  7  5  1  0
 10 11  2  0
 10  9  1  0
 12 10  1  0
 13 12  1  0
 14 13  1  1
 14 15  1  0
 15  7  1  0
 16 17  2  0
 16 14  1  0
 18 16  1  0
 19 30  1  0
 19 18  1  0
 19 20  1  1
 21 20  1  0
 22 21  2  0
 23 22  1  0
 24 23  1  0
 24 29  2  0
 25 24  1  0
 26 25  2  0
 26 27  1  0
 27 28  2  0
 28 29  1  0
 29 21  1  0
 30 32  1  0
 31 30  2  0
M  END
$$$$
