NQW.pdb
     RDKit          3D

 32 33  0  0  1  0  0  0  0  0999 V2000
    5.7914  -21.3997   20.5117 N   0  0  0  0  0  0  0  0  0  0  0  0
    5.6507  -20.6762   19.3105 C   0  0  0  0  0  0  0  0  0  0  0  0
    5.1284  -21.2188   18.3229 O   0  0  0  0  0  0  0  0  0  0  0  0
    6.1227  -19.2879   19.2367 C   0  0  0  0  0  0  0  0  0  0  0  0
    6.7652  -18.9318   20.5528 C   0  0  2  0  0  0  0  0  0  0  0  0
    5.7919  -18.4181   21.4954 N   0  0  0  0  0  0  0  0  0  0  0  0
    7.8417  -17.9531   20.3038 C   0  0  0  0  0  0  0  0  0  0  0  0
    8.8098  -18.1596   19.5416 O   0  0  0  0  0  0  0  0  0  0  0  0
    7.5821  -12.4110   18.0540 N   0  0  0  0  0  0  0  0  0  0  0  0
    8.7677  -12.8784   18.6710 C   0  0  0  0  0  0  0  0  0  0  0  0
    9.8135  -13.0031   18.0018 O   0  0  0  0  0  0  0  0  0  0  0  0
    8.7514  -13.2160   20.1048 C   0  0  0  0  0  0  0  0  0  0  0  0
    7.9636  -14.4491   20.3401 C   0  0  0  0  0  0  0  0  0  0  0  0
    8.7868  -15.6786   20.6914 C   0  0  2  0  0  0  0  0  0  0  0  0
    7.7699  -16.7075   20.9693 N   0  0  0  0  0  0  0  0  0  0  0  0
    9.5605  -15.4826   21.9266 C   0  0  0  0  0  0  0  0  0  0  0  0
   10.5456  -14.7121   21.9132 O   0  0  0  0  0  0  0  0  0  0  0  0
    9.2194  -16.1388   23.1213 N   0  0  0  0  0  0  0  0  0  0  0  0
   10.1356  -16.0841   24.2952 C   0  0  1  0  0  0  0  0  0  0  0  0
    9.8047  -14.7881   24.9540 C   0  0  0  0  0  0  0  0  0  0  0  0
    8.4261  -14.7281   25.4638 C   0  0  0  0  0  0  0  0  0  0  0  0
    7.5031  -15.7763   25.5280 C   0  0  0  0  0  0  0  0  0  0  0  0
    6.3454  -15.3186   26.0198 N   0  0  0  0  0  0  0  0  0  0  0  0
    6.4264  -14.0131   26.2965 C   0  0  0  0  0  0  0  0  0  0  0  0
    5.5471  -13.0817   26.8240 C   0  0  0  0  0  0  0  0  0  0  0  0
    5.9693  -11.7852   27.0040 C   0  0  0  0  0  0  0  0  0  0  0  0
    7.2397  -11.3892   26.6748 C   0  0  0  0  0  0  0  0  0  0  0  0
    8.1004  -12.3276   26.1511 C   0  0  0  0  0  0  0  0  0  0  0  0
    7.7274  -13.6325   25.9517 C   0  0  0  0  0  0  0  0  0  0  0  0
    9.9428  -17.3090   25.0484 C   0  0  0  0  0  0  0  0  0  0  0  0
    9.0867  -18.2006   24.7524 O   0  0  0  0  0  0  0  0  0  0  0  0
   10.7095  -17.5955   26.1725 O   0  0  0  0  0  0  0  0  0  0  0  0
  1  2  1  0
  2  4  1  0
  2  3  2  0
  5  4  1  0
  5  6  1  1
  7  8  2  0
  7  5  1  0
 10 11  2  0
 10  9  1  0
 12 10  1  0
 13 12  1  0
 14 13  1  1
 14 15  1  0
 15  7  1  0
 16 17  2  0
 16 14  1  0
 18 16  1  0
 19 30  1  0
 19 18  1  0
 19 20  1  1
 21 20  1  0
 22 21  2  0
 23 22  1  0
 24 23  1  0
 24 29  2  0
 25 24  1  0
 26 25  2  0
 26 27  1  0
 27 28  2  0
 28 29  1  0
 29 21  1  0
 30 32  1  0
 31 30  2  0
M  END
$$$$
