NQW.pdb
     RDKit          3D

 32 33  0  0  1  0  0  0  0  0999 V2000
    7.3397  -12.2944   18.2244 N   0  0  0  0  0  0  0  0  0  0  0  0
    8.3761  -13.0713   18.7800 C   0  0  0  0  0  0  0  0  0  0  0  0
    9.5532  -12.8542   18.4487 O   0  0  0  0  0  0  0  0  0  0  0  0
    8.0555  -14.1303   19.7450 C   0  0  0  0  0  0  0  0  0  0  0  0
    8.8540  -15.3580   19.3889 C   0  0  2  0  0  0  0  0  0  0  0  0
    8.4744  -15.8786   18.0910 N   0  0  0  0  0  0  0  0  0  0  0  0
    8.6667  -16.3676   20.4493 C   0  0  0  0  0  0  0  0  0  0  0  0
    7.7023  -17.1605   20.4952 O   0  0  0  0  0  0  0  0  0  0  0  0
   13.9043  -19.4407   21.9508 N   0  0  0  0  0  0  0  0  0  0  0  0
   12.5893  -19.3263   21.4384 C   0  0  0  0  0  0  0  0  0  0  0  0
   12.1291  -20.2150   20.6930 O   0  0  0  0  0  0  0  0  0  0  0  0
   11.7758  -18.1504   21.7924 C   0  0  0  0  0  0  0  0  0  0  0  0
   10.3975  -18.5601   22.1517 C   0  0  0  0  0  0  0  0  0  0  0  0
    9.4758  -17.4212   22.5593 C   0  0  2  0  0  0  0  0  0  0  0  0
    9.6390  -16.4391   21.4735 N   0  0  0  0  0  0  0  0  0  0  0  0
    9.9221  -16.7766   23.8035 C   0  0  0  0  0  0  0  0  0  0  0  0
   10.8062  -15.8937   23.7496 O   0  0  0  0  0  0  0  0  0  0  0  0
    9.3788  -17.1277   25.0509 N   0  0  0  0  0  0  0  0  0  0  0  0
    9.8638  -16.4642   26.2939 C   0  0  1  0  0  0  0  0  0  0  0  0
    8.6317  -16.2853   27.1144 C   0  0  0  0  0  0  0  0  0  0  0  0
    7.5806  -15.5176   26.4288 C   0  0  0  0  0  0  0  0  0  0  0  0
    6.4519  -16.0256   25.7786 C   0  0  0  0  0  0  0  0  0  0  0  0
    5.7532  -15.0148   25.2478 N   0  0  0  0  0  0  0  0  0  0  0  0
    6.3426  -13.8417   25.5005 C   0  0  0  0  0  0  0  0  0  0  0  0
    6.0365  -12.5237   25.2035 C   0  0  0  0  0  0  0  0  0  0  0  0
    6.8709  -11.5237   25.6456 C   0  0  0  0  0  0  0  0  0  0  0  0
    7.9998  -11.7970   26.3737 C   0  0  0  0  0  0  0  0  0  0  0  0
    8.2894  -13.1123   26.6593 C   0  0  0  0  0  0  0  0  0  0  0  0
    7.4898  -14.1454   26.2409 C   0  0  0  0  0  0  0  0  0  0  0  0
   10.9349  -17.2837   26.8287 C   0  0  0  0  0  0  0  0  0  0  0  0
   11.2780  -18.4099   26.3497 O   0  0  0  0  0  0  0  0  0  0  0  0
   11.6793  -16.8735   27.9292 O   0  0  0  0  0  0  0  0  0  0  0  0
  1  2  1  0
  2  4  1  0
  2  3  2  0
  5  4  1  0
  5  6  1  6
  7  8  2  0
  7  5  1  0
 10 11  2  0
 10  9  1  0
 12 10  1  0
 13 12  1  0
 14 13  1  6
 14 15  1  0
 15  7  1  0
 16 17  2  0
 16 14  1  0
 18 16  1  0
 19 30  1  0
 19 18  1  0
 19 20  1  1
 21 20  1  0
 22 21  2  0
 23 22  1  0
 24 23  1  0
 24 29  2  0
 25 24  1  0
 26 25  2  0
 26 27  1  0
 27 28  2  0
 28 29  1  0
 29 21  1  0
 30 32  1  0
 31 30  2  0
M  END
$$$$
