NQW.pdb
     RDKit          3D

 32 33  0  0  1  0  0  0  0  0999 V2000
    7.0062  -12.9587   16.6322 N   0  0  0  0  0  0  0  0  0  0  0  0
    7.7162  -14.1736   16.7108 C   0  0  0  0  0  0  0  0  0  0  0  0
    8.3774  -14.5642   15.7347 O   0  0  0  0  0  0  0  0  0  0  0  0
    7.6682  -14.9668   17.9453 C   0  0  0  0  0  0  0  0  0  0  0  0
    8.6633  -14.3923   18.9207 C   0  0  2  0  0  0  0  0  0  0  0  0
    9.8724  -13.9586   18.2500 N   0  0  0  0  0  0  0  0  0  0  0  0
    8.9546  -15.4074   19.9519 C   0  0  0  0  0  0  0  0  0  0  0  0
    8.0762  -16.0251   20.5905 O   0  0  0  0  0  0  0  0  0  0  0  0
   14.3908  -18.1100   19.8951 N   0  0  0  0  0  0  0  0  0  0  0  0
   13.2895  -18.4283   19.0640 C   0  0  0  0  0  0  0  0  0  0  0  0
   13.4664  -19.0769   18.0127 O   0  0  0  0  0  0  0  0  0  0  0  0
   11.9395  -17.9849   19.4523 C   0  0  0  0  0  0  0  0  0  0  0  0
   11.9795  -17.2703   20.7500 C   0  0  0  0  0  0  0  0  0  0  0  0
   10.6398  -16.7310   21.2266 C   0  0  2  0  0  0  0  0  0  0  0  0
   10.3103  -15.6959   20.2316 N   0  0  0  0  0  0  0  0  0  0  0  0
   10.7534  -16.0633   22.5320 C   0  0  0  0  0  0  0  0  0  0  0  0
   11.1045  -14.8638   22.5746 O   0  0  0  0  0  0  0  0  0  0  0  0
   10.4763  -16.7399   23.7319 N   0  0  0  0  0  0  0  0  0  0  0  0
    9.7011  -16.0658   24.8113 C   0  0  1  0  0  0  0  0  0  0  0  0
    8.4897  -15.5435   24.1164 C   0  0  0  0  0  0  0  0  0  0  0  0
    7.4561  -15.0483   25.0386 C   0  0  0  0  0  0  0  0  0  0  0  0
    6.3404  -15.7467   25.5101 C   0  0  0  0  0  0  0  0  0  0  0  0
    5.6173  -14.9454   26.3017 N   0  0  0  0  0  0  0  0  0  0  0  0
    6.1786  -13.7358   26.3982 C   0  0  0  0  0  0  0  0  0  0  0  0
    5.8585  -12.5748   27.0828 C   0  0  0  0  0  0  0  0  0  0  0  0
    6.6874  -11.4824   26.9782 C   0  0  0  0  0  0  0  0  0  0  0  0
    7.8244  -11.5118   26.2129 C   0  0  0  0  0  0  0  0  0  0  0  0
    8.1272  -12.6734   25.5386 C   0  0  0  0  0  0  0  0  0  0  0  0
    7.3328  -13.7894   25.6099 C   0  0  0  0  0  0  0  0  0  0  0  0
    9.5205  -17.0319   25.8784 C   0  0  0  0  0  0  0  0  0  0  0  0
    9.2909  -16.7219   27.0895 O   0  0  0  0  0  0  0  0  0  0  0  0
    9.5841  -18.3994   25.6348 O   0  0  0  0  0  0  0  0  0  0  0  0
  1  2  1  0
  2  4  1  0
  2  3  2  0
  5  4  1  0
  5  6  1  6
  7  8  2  0
  7  5  1  0
 10 11  2  0
 10  9  1  0
 12 10  1  0
 13 12  1  0
 14 13  1  6
 14 15  1  0
 15  7  1  0
 16 17  2  0
 16 14  1  0
 18 16  1  0
 19 30  1  0
 19 18  1  0
 19 20  1  6
 21 20  1  0
 22 21  2  0
 23 22  1  0
 24 23  1  0
 24 29  2  0
 25 24  1  0
 26 25  2  0
 26 27  1  0
 27 28  2  0
 28 29  1  0
 29 21  1  0
 30 32  1  0
 31 30  2  0
M  END
$$$$
