NQW.pdb
     RDKit          3D

 32 33  0  0  1  0  0  0  0  0999 V2000
   13.7062  -14.6387   17.8786 N   0  0  0  0  0  0  0  0  0  0  0  0
   12.9986  -15.8457   18.0479 C   0  0  0  0  0  0  0  0  0  0  0  0
   11.8832  -15.9843   17.5196 O   0  0  0  0  0  0  0  0  0  0  0  0
   13.5858  -16.9284   18.8469 C   0  0  0  0  0  0  0  0  0  0  0  0
   12.5329  -17.4496   19.7911 C   0  0  2  0  0  0  0  0  0  0  0  0
   11.3893  -17.9736   19.0719 N   0  0  0  0  0  0  0  0  0  0  0  0
   12.1395  -16.3614   20.7076 C   0  0  0  0  0  0  0  0  0  0  0  0
   12.9516  -15.6077   21.2849 O   0  0  0  0  0  0  0  0  0  0  0  0
    7.3428  -12.9105   19.7082 N   0  0  0  0  0  0  0  0  0  0  0  0
    7.6869  -14.2362   19.3491 C   0  0  0  0  0  0  0  0  0  0  0  0
    6.9277  -14.9029   18.6169 O   0  0  0  0  0  0  0  0  0  0  0  0
    8.9448  -14.8169   19.8496 C   0  0  0  0  0  0  0  0  0  0  0  0
    9.1265  -14.5045   21.2869 C   0  0  0  0  0  0  0  0  0  0  0  0
   10.3326  -15.1630   21.9386 C   0  0  2  0  0  0  0  0  0  0  0  0
   10.7598  -16.1626   20.9444 N   0  0  0  0  0  0  0  0  0  0  0  0
    9.9622  -15.8918   23.1611 C   0  0  0  0  0  0  0  0  0  0  0  0
    9.6845  -17.1088   23.0849 O   0  0  0  0  0  0  0  0  0  0  0  0
    9.9137  -15.2544   24.4125 N   0  0  0  0  0  0  0  0  0  0  0  0
    9.5652  -16.0299   25.6362 C   0  0  1  0  0  0  0  0  0  0  0  0
    8.1379  -16.4094   25.4314 C   0  0  0  0  0  0  0  0  0  0  0  0
    7.2043  -15.2867   25.6104 C   0  0  0  0  0  0  0  0  0  0  0  0
    5.8250  -15.2909   25.3820 C   0  0  0  0  0  0  0  0  0  0  0  0
    5.3314  -14.0704   25.6240 N   0  0  0  0  0  0  0  0  0  0  0  0
    6.2990  -13.2308   26.0065 C   0  0  0  0  0  0  0  0  0  0  0  0
    6.3277  -11.8977   26.3822 C   0  0  0  0  0  0  0  0  0  0  0  0
    7.5246  -11.3283   26.7495 C   0  0  0  0  0  0  0  0  0  0  0  0
    8.6923  -12.0463   26.7538 C   0  0  0  0  0  0  0  0  0  0  0  0
    8.6460  -13.3697   26.3769 C   0  0  0  0  0  0  0  0  0  0  0  0
    7.4780  -13.9834   26.0016 C   0  0  0  0  0  0  0  0  0  0  0  0
   10.5478  -17.0892   25.7681 C   0  0  0  0  0  0  0  0  0  0  0  0
   11.2534  -17.5306   24.8076 O   0  0  0  0  0  0  0  0  0  0  0  0
   10.7902  -17.7029   26.9920 O   0  0  0  0  0  0  0  0  0  0  0  0
  1  2  1  0
  2  4  1  0
  2  3  2  0
  5  4  1  0
  5  6  1  6
  7  8  2  0
  7  5  1  0
 10 11  2  0
 10  9  1  0
 12 10  1  0
 13 12  1  0
 14 13  1  6
 14 15  1  0
 15  7  1  0
 16 17  2  0
 16 14  1  0
 18 16  1  0
 19 30  1  0
 19 18  1  0
 19 20  1  6
 21 20  1  0
 22 21  2  0
 23 22  1  0
 24 23  1  0
 24 29  2  0
 25 24  1  0
 26 25  2  0
 26 27  1  0
 27 28  2  0
 28 29  1  0
 29 21  1  0
 30 32  1  0
 31 30  2  0
M  END
$$$$
