NQW.pdb
     RDKit          3D

 32 33  0  0  1  0  0  0  0  0999 V2000
    7.5768  -20.3374   18.0354 N   0  0  0  0  0  0  0  0  0  0  0  0
    8.8173  -20.4111   18.7003 C   0  0  0  0  0  0  0  0  0  0  0  0
    9.2573  -21.5149   19.0613 O   0  0  0  0  0  0  0  0  0  0  0  0
    9.5784  -19.1828   18.9604 C   0  0  0  0  0  0  0  0  0  0  0  0
    9.7025  -19.0053   20.4520 C   0  0  2  0  0  0  0  0  0  0  0  0
    8.4356  -19.2281   21.1190 N   0  0  0  0  0  0  0  0  0  0  0  0
   10.2235  -17.6515   20.7251 C   0  0  0  0  0  0  0  0  0  0  0  0
   11.3126  -17.2220   20.2889 O   0  0  0  0  0  0  0  0  0  0  0  0
    7.4910  -12.4057   19.9232 N   0  0  0  0  0  0  0  0  0  0  0  0
    7.6698  -13.6799   19.3323 C   0  0  0  0  0  0  0  0  0  0  0  0
    6.8917  -14.0692   18.4379 O   0  0  0  0  0  0  0  0  0  0  0  0
    8.7787  -14.5372   19.7855 C   0  0  0  0  0  0  0  0  0  0  0  0
    8.8769  -14.5227   21.2642 C   0  0  0  0  0  0  0  0  0  0  0  0
    9.9401  -15.4420   21.8452 C   0  0  2  0  0  0  0  0  0  0  0  0
    9.4405  -16.7913   21.5290 N   0  0  0  0  0  0  0  0  0  0  0  0
   10.0134  -15.3342   23.3100 C   0  0  0  0  0  0  0  0  0  0  0  0
   10.2807  -14.2274   23.8272 O   0  0  0  0  0  0  0  0  0  0  0  0
    9.7896  -16.4440   24.1423 N   0  0  0  0  0  0  0  0  0  0  0  0
   10.0403  -16.3451   25.6079 C   0  0  1  0  0  0  0  0  0  0  0  0
    8.7157  -16.6441   26.2238 C   0  0  0  0  0  0  0  0  0  0  0  0
    7.6653  -15.6879   25.8414 C   0  0  0  0  0  0  0  0  0  0  0  0
    6.5575  -15.9325   25.0243 C   0  0  0  0  0  0  0  0  0  0  0  0
    5.8524  -14.8036   24.8830 N   0  0  0  0  0  0  0  0  0  0  0  0
    6.4177  -13.7990   25.5604 C   0  0  0  0  0  0  0  0  0  0  0  0
    6.0957  -12.4663   25.7581 C   0  0  0  0  0  0  0  0  0  0  0  0
    6.9051  -11.6901   26.5543 C   0  0  0  0  0  0  0  0  0  0  0  0
    8.0244  -12.2011   27.1587 C   0  0  0  0  0  0  0  0  0  0  0  0
    8.3301  -13.5274   26.9510 C   0  0  0  0  0  0  0  0  0  0  0  0
    7.5555  -14.3428   26.1655 C   0  0  0  0  0  0  0  0  0  0  0  0
   11.1557  -17.2211   25.9132 C   0  0  0  0  0  0  0  0  0  0  0  0
   11.7115  -17.9891   25.0666 O   0  0  0  0  0  0  0  0  0  0  0  0
   11.7068  -17.2732   27.1887 O   0  0  0  0  0  0  0  0  0  0  0  0
  1  2  1  0
  2  4  1  0
  2  3  2  0
  5  4  1  0
  5  6  1  1
  7  8  2  0
  7  5  1  0
 10 11  2  0
 10  9  1  0
 12 10  1  0
 13 12  1  0
 14 13  1  1
 14 15  1  0
 15  7  1  0
 16 17  2  0
 16 14  1  0
 18 16  1  0
 19 30  1  0
 19 18  1  0
 19 20  1  1
 21 20  1  0
 22 21  2  0
 23 22  1  0
 24 23  1  0
 24 29  2  0
 25 24  1  0
 26 25  2  0
 26 27  1  0
 27 28  2  0
 28 29  1  0
 29 21  1  0
 30 32  1  0
 31 30  2  0
M  END
$$$$
