NQW.pdb
     RDKit          3D

 32 33  0  0  1  0  0  0  0  0999 V2000
    8.8103  -12.7478   17.5575 N   0  0  0  0  0  0  0  0  0  0  0  0
    7.8470  -13.7552   17.3498 C   0  0  0  0  0  0  0  0  0  0  0  0
    7.2676  -13.8361   16.2542 O   0  0  0  0  0  0  0  0  0  0  0  0
    7.5365  -14.7001   18.4298 C   0  0  0  0  0  0  0  0  0  0  0  0
    8.2841  -14.2730   19.6669 C   0  0  2  0  0  0  0  0  0  0  0  0
    9.6781  -14.0038   19.3768 N   0  0  0  0  0  0  0  0  0  0  0  0
    8.1414  -15.3252   20.6922 C   0  0  0  0  0  0  0  0  0  0  0  0
    7.0445  -15.7043   21.1548 O   0  0  0  0  0  0  0  0  0  0  0  0
   11.3059  -20.7973   20.1424 N   0  0  0  0  0  0  0  0  0  0  0  0
   10.7197  -19.5585   19.7863 C   0  0  0  0  0  0  0  0  0  0  0  0
   11.1178  -18.9462   18.7745 O   0  0  0  0  0  0  0  0  0  0  0  0
    9.6410  -19.0030   20.6217 C   0  0  0  0  0  0  0  0  0  0  0  0
   10.1940  -18.0744   21.6357 C   0  0  0  0  0  0  0  0  0  0  0  0
    9.2129  -17.0355   22.1563 C   0  0  2  0  0  0  0  0  0  0  0  0
    9.3188  -15.9393   21.1779 N   0  0  0  0  0  0  0  0  0  0  0  0
    9.6274  -16.4992   23.4615 C   0  0  0  0  0  0  0  0  0  0  0  0
   10.5030  -15.6073   23.5038 O   0  0  0  0  0  0  0  0  0  0  0  0
    9.0629  -16.9637   24.6615 N   0  0  0  0  0  0  0  0  0  0  0  0
    9.6208  -16.5253   25.9718 C   0  0  1  0  0  0  0  0  0  0  0  0
    8.4205  -16.3613   26.8410 C   0  0  0  0  0  0  0  0  0  0  0  0
    7.4755  -15.3485   26.3458 C   0  0  0  0  0  0  0  0  0  0  0  0
    6.3027  -15.5719   25.6183 C   0  0  0  0  0  0  0  0  0  0  0  0
    5.7344  -14.3970   25.3209 N   0  0  0  0  0  0  0  0  0  0  0  0
    6.4551  -13.3810   25.8064 C   0  0  0  0  0  0  0  0  0  0  0  0
    6.3101  -12.0033   25.7968 C   0  0  0  0  0  0  0  0  0  0  0  0
    7.2513  -11.2239   26.4280 C   0  0  0  0  0  0  0  0  0  0  0  0
    8.3312  -11.7751   27.0676 C   0  0  0  0  0  0  0  0  0  0  0  0
    8.4602  -13.1459   27.0669 C   0  0  0  0  0  0  0  0  0  0  0  0
    7.5494  -13.9665   26.4514 C   0  0  0  0  0  0  0  0  0  0  0  0
   10.6243  -17.4989   26.3592 C   0  0  0  0  0  0  0  0  0  0  0  0
   10.8277  -18.5946   25.7481 O   0  0  0  0  0  0  0  0  0  0  0  0
   11.4551  -17.2854   27.4535 O   0  0  0  0  0  0  0  0  0  0  0  0
  1  2  1  0
  2  4  1  0
  2  3  2  0
  5  4  1  0
  5  6  1  6
  7  8  2  0
  7  5  1  0
 10 11  2  0
 10  9  1  0
 12 10  1  0
 13 12  1  0
 14 13  1  6
 14 15  1  0
 15  7  1  0
 16 17  2  0
 16 14  1  0
 18 16  1  0
 19 30  1  0
 19 18  1  0
 19 20  1  1
 21 20  1  0
 22 21  2  0
 23 22  1  0
 24 23  1  0
 24 29  2  0
 25 24  1  0
 26 25  2  0
 26 27  1  0
 27 28  2  0
 28 29  1  0
 29 21  1  0
 30 32  1  0
 31 30  2  0
M  END
$$$$
