NQW.pdb
     RDKit          3D

 32 33  0  0  1  0  0  0  0  0999 V2000
    7.9952  -11.8933   17.5899 N   0  0  0  0  0  0  0  0  0  0  0  0
    8.5739  -13.1591   17.8111 C   0  0  0  0  0  0  0  0  0  0  0  0
    9.2158  -13.7097   16.9015 O   0  0  0  0  0  0  0  0  0  0  0  0
    8.4131  -13.8159   19.1143 C   0  0  0  0  0  0  0  0  0  0  0  0
    8.7014  -15.2858   18.9466 C   0  0  2  0  0  0  0  0  0  0  0  0
    7.8473  -15.8814   17.9389 N   0  0  0  0  0  0  0  0  0  0  0  0
    8.5366  -15.9518   20.2535 C   0  0  0  0  0  0  0  0  0  0  0  0
    7.7599  -15.5527   21.1470 O   0  0  0  0  0  0  0  0  0  0  0  0
    9.6524  -21.7224   19.1245 N   0  0  0  0  0  0  0  0  0  0  0  0
    9.3042  -21.4377   20.4671 C   0  0  0  0  0  0  0  0  0  0  0  0
    9.5333  -22.2748   21.3635 O   0  0  0  0  0  0  0  0  0  0  0  0
    8.6691  -20.1486   20.7909 C   0  0  0  0  0  0  0  0  0  0  0  0
    9.6393  -19.2410   21.4479 C   0  0  0  0  0  0  0  0  0  0  0  0
    9.1057  -17.8524   21.7638 C   0  0  2  0  0  0  0  0  0  0  0  0
    9.3056  -17.1112   20.5065 N   0  0  0  0  0  0  0  0  0  0  0  0
    9.9068  -17.1824   22.7992 C   0  0  0  0  0  0  0  0  0  0  0  0
   11.0940  -16.8784   22.5498 O   0  0  0  0  0  0  0  0  0  0  0  0
    9.3707  -16.8748   24.0611 N   0  0  0  0  0  0  0  0  0  0  0  0
   10.2300  -16.2592   25.1113 C   0  0  1  0  0  0  0  0  0  0  0  0
    9.7807  -14.8384   25.1615 C   0  0  0  0  0  0  0  0  0  0  0  0
    8.4009  -14.6796   25.6465 C   0  0  0  0  0  0  0  0  0  0  0  0
    7.4545  -15.6892   25.8455 C   0  0  0  0  0  0  0  0  0  0  0  0
    6.3046  -15.1439   26.2604 N   0  0  0  0  0  0  0  0  0  0  0  0
    6.4133  -13.8148   26.3568 C   0  0  0  0  0  0  0  0  0  0  0  0
    5.5521  -12.8014   26.7446 C   0  0  0  0  0  0  0  0  0  0  0  0
    6.0023  -11.5018   26.7493 C   0  0  0  0  0  0  0  0  0  0  0  0
    7.2830  -11.1819   26.3798 C   0  0  0  0  0  0  0  0  0  0  0  0
    8.1254  -12.2013   25.9966 C   0  0  0  0  0  0  0  0  0  0  0  0
    7.7243  -13.5129   25.9742 C   0  0  0  0  0  0  0  0  0  0  0  0
   10.0924  -17.0681   26.3079 C   0  0  0  0  0  0  0  0  0  0  0  0
    9.2588  -18.0193   26.4334 O   0  0  0  0  0  0  0  0  0  0  0  0
   10.8918  -16.8501   27.4245 O   0  0  0  0  0  0  0  0  0  0  0  0
  1  2  1  0
  2  4  1  0
  2  3  2  0
  5  4  1  0
  5  6  1  6
  7  8  2  0
  7  5  1  0
 10 11  2  0
 10  9  1  0
 12 10  1  0
 13 12  1  0
 14 13  1  6
 14 15  1  0
 15  7  1  0
 16 17  2  0
 16 14  1  0
 18 16  1  0
 19 30  1  0
 19 18  1  0
 19 20  1  1
 21 20  1  0
 22 21  2  0
 23 22  1  0
 24 23  1  0
 24 29  2  0
 25 24  1  0
 26 25  2  0
 26 27  1  0
 27 28  2  0
 28 29  1  0
 29 21  1  0
 30 32  1  0
 31 30  2  0
M  END
$$$$
