LGD.pdb
     RDKit          3D

 21 20  0  0  1  0  0  0  0  0999 V2000
   18.5428  -12.8930  -19.6303 C   0  0  0  0  0  0  0  0  0  0  0  0
   18.0179  -13.5937  -18.3788 C   0  0  2  0  0  0  0  0  0  0  0  0
   16.7123  -14.2132  -18.7222 C   0  0  0  0  0  0  0  0  0  0  0  0
   18.0267  -12.5915  -17.2715 C   0  0  0  0  0  0  0  0  0  0  0  0
   19.2426  -11.7790  -17.1139 C   0  0  2  0  0  0  0  0  0  0  0  0
   20.3192  -12.4769  -16.4993 N   0  0  0  0  0  0  0  0  0  0  0  0
   19.0240  -10.4731  -16.4528 C   0  0  0  0  0  0  0  0  0  0  0  0
   18.2212   -9.6684  -16.9841 O   0  0  0  0  0  0  0  0  0  0  0  0
   19.7054  -10.1558  -15.2598 N   0  0  0  0  0  0  0  0  0  0  0  0
   19.4887   -8.9187  -14.5494 C   0  0  0  0  0  0  0  0  0  0  0  0
   20.5831   -7.9771  -14.8849 C   0  0  0  0  0  0  0  0  0  0  0  0
   21.6678   -8.3361  -15.4149 O   0  0  0  0  0  0  0  0  0  0  0  0
   20.4315   -6.5757  -14.6051 N   0  0  0  0  0  0  0  0  0  0  0  0
   21.4311   -5.6000  -15.0183 C   0  0  1  0  0  0  0  0  0  0  0  0
   20.7461   -4.3016  -15.4282 C   0  0  0  0  0  0  0  0  0  0  0  0
   19.9783   -3.8026  -14.2610 C   0  0  0  0  0  0  0  0  0  0  0  0
   19.1959   -4.5350  -13.6160 O   0  0  0  0  0  0  0  0  0  0  0  0
   22.3419   -5.3390  -13.8529 C   0  0  0  0  0  0  0  0  0  0  0  0
   23.3371   -4.5872  -13.9534 O   0  0  0  0  0  0  0  0  0  0  0  0
   20.1167   -2.4624  -13.8456 O   0  0  0  0  0  0  0  0  0  0  0  0
   22.1116   -5.9324  -12.6082 O   0  0  0  0  0  0  0  0  0  0  0  0
  2  1  1  6
  3  2  1  0
  4  2  1  0
  5  4  1  0
  5  6  1  1
  7  5  1  0
  7  8  2  0
  9  7  1  0
 10  9  1  0
 10 11  1  0
 11 13  1  0
 12 11  2  0
 13 14  1  0
 14 18  1  0
 14 15  1  1
 15 16  1  0
 16 20  1  0
 17 16  2  0
 18 19  2  0
 18 21  1  0
M  END
$$$$
