LGD.pdb
     RDKit          3D

 21 20  0  0  1  0  0  0  0  0999 V2000
   19.5910  -15.3844  -17.5931 C   0  0  0  0  0  0  0  0  0  0  0  0
   18.4579  -15.0691  -16.6188 C   0  0  2  0  0  0  0  0  0  0  0  0
   17.3781  -16.0636  -16.8450 C   0  0  0  0  0  0  0  0  0  0  0  0
   18.1064  -13.6286  -16.7971 C   0  0  0  0  0  0  0  0  0  0  0  0
   19.2051  -12.6550  -16.7046 C   0  0  2  0  0  0  0  0  0  0  0  0
   19.8399  -12.6309  -15.4316 N   0  0  0  0  0  0  0  0  0  0  0  0
   18.8459  -11.2849  -17.1332 C   0  0  0  0  0  0  0  0  0  0  0  0
   18.3215  -11.1372  -18.2634 O   0  0  0  0  0  0  0  0  0  0  0  0
   19.0915  -10.1858  -16.2847 N   0  0  0  0  0  0  0  0  0  0  0  0
   18.6516   -8.8487  -16.6018 C   0  0  0  0  0  0  0  0  0  0  0  0
   19.0177   -7.9474  -15.4835 C   0  0  0  0  0  0  0  0  0  0  0  0
   18.4209   -7.9419  -14.3744 O   0  0  0  0  0  0  0  0  0  0  0  0
   20.1046   -7.0203  -15.6388 N   0  0  0  0  0  0  0  0  0  0  0  0
   20.5597   -6.1827  -14.5375 C   0  0  1  0  0  0  0  0  0  0  0  0
   22.0675   -5.9808  -14.6317 C   0  0  0  0  0  0  0  0  0  0  0  0
   22.4857   -5.1279  -13.4922 C   0  0  0  0  0  0  0  0  0  0  0  0
   22.5198   -5.5557  -12.3173 O   0  0  0  0  0  0  0  0  0  0  0  0
   19.8693   -4.8530  -14.6428 C   0  0  0  0  0  0  0  0  0  0  0  0
   19.7348   -4.1031  -13.6502 O   0  0  0  0  0  0  0  0  0  0  0  0
   22.8609   -3.7870  -13.7144 O   0  0  0  0  0  0  0  0  0  0  0  0
   19.3464   -4.4042  -15.8592 O   0  0  0  0  0  0  0  0  0  0  0  0
  2  1  1  6
  3  2  1  0
  4  2  1  0
  5  4  1  0
  5  6  1  1
  7  5  1  0
  7  8  2  0
  9  7  1  0
 10  9  1  0
 10 11  1  0
 11 13  1  0
 12 11  2  0
 13 14  1  0
 14 18  1  0
 14 15  1  6
 15 16  1  0
 16 20  1  0
 17 16  2  0
 18 19  2  0
 18 21  1  0
M  END
$$$$
