LGD.pdb
     RDKit          3D

 21 20  0  0  1  0  0  0  0  0999 V2000
   18.4221  -11.7953  -16.3801 C   0  0  0  0  0  0  0  0  0  0  0  0
   19.7515  -11.4614  -17.0538 C   0  0  2  0  0  0  0  0  0  0  0  0
   20.3477  -12.7350  -17.5320 C   0  0  0  0  0  0  0  0  0  0  0  0
   20.5516  -10.6561  -16.0834 C   0  0  0  0  0  0  0  0  0  0  0  0
   19.9916   -9.3617  -15.6657 C   0  0  2  0  0  0  0  0  0  0  0  0
   19.8223   -8.4413  -16.7371 N   0  0  0  0  0  0  0  0  0  0  0  0
   20.7050   -8.7222  -14.5378 C   0  0  0  0  0  0  0  0  0  0  0  0
   20.7956   -9.3569  -13.4593 O   0  0  0  0  0  0  0  0  0  0  0  0
   21.2624   -7.4354  -14.6854 N   0  0  0  0  0  0  0  0  0  0  0  0
   22.0723   -6.8199  -13.6622 C   0  0  0  0  0  0  0  0  0  0  0  0
   21.8867   -5.3507  -13.7255 C   0  0  0  0  0  0  0  0  0  0  0  0
   22.5064   -4.5416  -12.9853 O   0  0  0  0  0  0  0  0  0  0  0  0
   20.9604   -4.7869  -14.6684 N   0  0  0  0  0  0  0  0  0  0  0  0
   20.8168   -3.3467  -14.8330 C   0  0  1  0  0  0  0  0  0  0  0  0
   20.8470   -2.9912  -16.3149 C   0  0  0  0  0  0  0  0  0  0  0  0
   20.6214   -1.5301  -16.4382 C   0  0  0  0  0  0  0  0  0  0  0  0
   20.8869   -0.7345  -15.5102 O   0  0  0  0  0  0  0  0  0  0  0  0
   19.4961   -2.9368  -14.2469 C   0  0  0  0  0  0  0  0  0  0  0  0
   18.5136   -3.7117  -14.2372 O   0  0  0  0  0  0  0  0  0  0  0  0
   20.0903   -0.9959  -17.6300 O   0  0  0  0  0  0  0  0  0  0  0  0
   19.3148   -1.6669  -13.6911 O   0  0  0  0  0  0  0  0  0  0  0  0
  2  1  1  1
  3  2  1  0
  4  2  1  0
  5  4  1  0
  5  6  1  6
  7  5  1  0
  7  8  2  0
  9  7  1  0
 10  9  1  0
 10 11  1  0
 11 13  1  0
 12 11  2  0
 13 14  1  0
 14 18  1  0
 14 15  1  6
 15 16  1  0
 16 20  1  0
 17 16  2  0
 18 19  2  0
 18 21  1  0
M  END
$$$$
