LGD.pdb
     RDKit          3D

 21 20  0  0  1  0  0  0  0  0999 V2000
   23.4912  -16.0385  -15.9773 C   0  0  0  0  0  0  0  0  0  0  0  0
   22.4445  -16.7909  -16.7965 C   0  0  2  0  0  0  0  0  0  0  0  0
   22.9813  -16.9571  -18.1714 C   0  0  0  0  0  0  0  0  0  0  0  0
   21.1537  -16.0536  -16.6531 C   0  0  0  0  0  0  0  0  0  0  0  0
   20.6023  -15.9272  -15.2953 C   0  0  2  0  0  0  0  0  0  0  0  0
   20.5163  -17.1638  -14.5974 N   0  0  0  0  0  0  0  0  0  0  0  0
   19.3166  -15.1980  -15.2228 C   0  0  0  0  0  0  0  0  0  0  0  0
   19.1806  -14.1677  -15.9259 O   0  0  0  0  0  0  0  0  0  0  0  0
   18.2822  -15.6597  -14.3831 N   0  0  0  0  0  0  0  0  0  0  0  0
   16.9397  -15.1349  -14.4471 C   0  0  0  0  0  0  0  0  0  0  0  0
   15.9890  -16.2666  -14.5575 C   0  0  0  0  0  0  0  0  0  0  0  0
   14.7377  -16.1253  -14.5321 O   0  0  0  0  0  0  0  0  0  0  0  0
   16.4867  -17.6070  -14.7023 N   0  0  0  0  0  0  0  0  0  0  0  0
   15.5932  -18.7353  -14.9269 C   0  0  1  0  0  0  0  0  0  0  0  0
   16.3958  -19.9440  -15.3938 C   0  0  0  0  0  0  0  0  0  0  0  0
   16.6932  -19.7647  -16.8361 C   0  0  0  0  0  0  0  0  0  0  0  0
   15.9660  -19.0763  -17.5856 O   0  0  0  0  0  0  0  0  0  0  0  0
   14.9105  -19.0590  -13.6288 C   0  0  0  0  0  0  0  0  0  0  0  0
   13.7131  -19.4198  -13.5894 O   0  0  0  0  0  0  0  0  0  0  0  0
   17.8265  -20.3811  -17.4051 O   0  0  0  0  0  0  0  0  0  0  0  0
   15.5909  -18.9653  -12.4112 O   0  0  0  0  0  0  0  0  0  0  0  0
  2  1  1  1
  3  2  1  0
  4  2  1  0
  5  4  1  0
  5  6  1  6
  7  5  1  0
  7  8  2  0
  9  7  1  0
 10  9  1  0
 10 11  1  0
 11 13  1  0
 12 11  2  0
 13 14  1  0
 14 18  1  0
 14 15  1  1
 15 16  1  0
 16 20  1  0
 17 16  2  0
 18 19  2  0
 18 21  1  0
M  END
$$$$
