LGD.pdb
     RDKit          3D

 21 20  0  0  1  0  0  0  0  0999 V2000
   24.5989  -15.6444  -14.8388 C   0  0  0  0  0  0  0  0  0  0  0  0
   25.5991  -15.1936  -15.9013 C   0  0  2  0  0  0  0  0  0  0  0  0
   26.7499  -16.1320  -15.8651 C   0  0  0  0  0  0  0  0  0  0  0  0
   25.8890  -13.7494  -15.6546 C   0  0  0  0  0  0  0  0  0  0  0  0
   24.7438  -12.8264  -15.6601 C   0  0  2  0  0  0  0  0  0  0  0  0
   23.9758  -12.8778  -16.8566 N   0  0  0  0  0  0  0  0  0  0  0  0
   25.0846  -11.4271  -15.3199 C   0  0  0  0  0  0  0  0  0  0  0  0
   25.7247  -11.2148  -14.2619 O   0  0  0  0  0  0  0  0  0  0  0  0
   24.6947  -10.3721  -16.1704 N   0  0  0  0  0  0  0  0  0  0  0  0
   25.0570   -8.9986  -15.9173 C   0  0  0  0  0  0  0  0  0  0  0  0
   23.8885   -8.1347  -16.2093 C   0  0  0  0  0  0  0  0  0  0  0  0
   23.4029   -7.9926  -17.3627 O   0  0  0  0  0  0  0  0  0  0  0  0
   23.2528   -7.4081  -15.1449 N   0  0  0  0  0  0  0  0  0  0  0  0
   22.0547   -6.6109  -15.3709 C   0  0  1  0  0  0  0  0  0  0  0  0
   20.8193   -7.4989  -15.2797 C   0  0  0  0  0  0  0  0  0  0  0  0
   19.6267   -6.6457  -15.5041 C   0  0  0  0  0  0  0  0  0  0  0  0
   19.6104   -5.7361  -16.3626 O   0  0  0  0  0  0  0  0  0  0  0  0
   21.9888   -5.5512  -14.3086 C   0  0  0  0  0  0  0  0  0  0  0  0
   22.7475   -5.5713  -13.3137 O   0  0  0  0  0  0  0  0  0  0  0  0
   18.4609   -6.8460  -14.7367 O   0  0  0  0  0  0  0  0  0  0  0  0
   21.0705   -4.5004  -14.3917 O   0  0  0  0  0  0  0  0  0  0  0  0
  2  1  1  1
  3  2  1  0
  4  2  1  0
  5  4  1  0
  5  6  1  6
  7  5  1  0
  7  8  2  0
  9  7  1  0
 10  9  1  0
 10 11  1  0
 11 13  1  0
 12 11  2  0
 13 14  1  0
 14 18  1  0
 14 15  1  1
 15 16  1  0
 16 20  1  0
 17 16  2  0
 18 19  2  0
 18 21  1  0
M  END
$$$$
