LGD.pdb
     RDKit          3D

 21 20  0  0  1  0  0  0  0  0999 V2000
   23.3480  -17.1946  -16.6415 C   0  0  0  0  0  0  0  0  0  0  0  0
   22.9700  -15.9576  -17.4537 C   0  0  2  0  0  0  0  0  0  0  0  0
   22.9189  -16.3549  -18.8840 C   0  0  0  0  0  0  0  0  0  0  0  0
   23.9259  -14.8722  -17.0813 C   0  0  0  0  0  0  0  0  0  0  0  0
   23.6353  -14.1164  -15.8534 C   0  0  2  0  0  0  0  0  0  0  0  0
   22.2920  -14.2519  -15.4049 N   0  0  0  0  0  0  0  0  0  0  0  0
   24.0249  -12.6898  -15.9068 C   0  0  0  0  0  0  0  0  0  0  0  0
   25.1894  -12.4083  -16.2796 O   0  0  0  0  0  0  0  0  0  0  0  0
   23.1030  -11.6857  -15.5461 N   0  0  0  0  0  0  0  0  0  0  0  0
   23.3612  -10.2827  -15.7629 C   0  0  0  0  0  0  0  0  0  0  0  0
   22.1618   -9.5089  -15.3636 C   0  0  0  0  0  0  0  0  0  0  0  0
   21.0844  -10.0443  -14.9907 O   0  0  0  0  0  0  0  0  0  0  0  0
   22.1956   -8.0725  -15.3913 N   0  0  0  0  0  0  0  0  0  0  0  0
   21.0358   -7.2721  -15.0227 C   0  0  1  0  0  0  0  0  0  0  0  0
   21.4167   -5.7967  -14.9890 C   0  0  0  0  0  0  0  0  0  0  0  0
   22.2010   -5.5560  -13.7530 C   0  0  0  0  0  0  0  0  0  0  0  0
   22.2392   -6.3844  -12.8166 O   0  0  0  0  0  0  0  0  0  0  0  0
   19.9678   -7.4897  -16.0560 C   0  0  0  0  0  0  0  0  0  0  0  0
   20.2446   -7.6117  -17.2702 O   0  0  0  0  0  0  0  0  0  0  0  0
   22.9351   -4.3615  -13.6041 O   0  0  0  0  0  0  0  0  0  0  0  0
   18.6184   -7.5609  -15.6972 O   0  0  0  0  0  0  0  0  0  0  0  0
  2  1  1  1
  3  2  1  0
  4  2  1  0
  5  4  1  0
  5  6  1  6
  7  5  1  0
  7  8  2  0
  9  7  1  0
 10  9  1  0
 10 11  1  0
 11 13  1  0
 12 11  2  0
 13 14  1  0
 14 18  1  0
 14 15  1  6
 15 16  1  0
 16 20  1  0
 17 16  2  0
 18 19  2  0
 18 21  1  0
M  END
$$$$
