LGD.pdb
     RDKit          3D

 21 20  0  0  1  0  0  0  0  0999 V2000
   20.7584  -13.9819  -19.3352 C   0  0  0  0  0  0  0  0  0  0  0  0
   19.4745  -14.2215  -18.5435 C   0  0  2  0  0  0  0  0  0  0  0  0
   18.6697  -15.2278  -19.2822 C   0  0  0  0  0  0  0  0  0  0  0  0
   18.8453  -12.8886  -18.3030 C   0  0  0  0  0  0  0  0  0  0  0  0
   19.6074  -11.9248  -17.4944 C   0  0  2  0  0  0  0  0  0  0  0  0
   20.0139  -12.4362  -16.2307 N   0  0  0  0  0  0  0  0  0  0  0  0
   18.9532  -10.6068  -17.3366 C   0  0  0  0  0  0  0  0  0  0  0  0
   18.5584  -10.0149  -18.3701 O   0  0  0  0  0  0  0  0  0  0  0  0
   18.7848  -10.0441  -16.0546 N   0  0  0  0  0  0  0  0  0  0  0  0
   17.7143   -9.1275  -15.7453 C   0  0  0  0  0  0  0  0  0  0  0  0
   18.2894   -7.9187  -15.1088 C   0  0  0  0  0  0  0  0  0  0  0  0
   17.5888   -6.9848  -14.6361 O   0  0  0  0  0  0  0  0  0  0  0  0
   19.7155   -7.7729  -15.0089 N   0  0  0  0  0  0  0  0  0  0  0  0
   20.3260   -6.5616  -14.4781 C   0  0  1  0  0  0  0  0  0  0  0  0
   21.7484   -6.8593  -14.0187 C   0  0  0  0  0  0  0  0  0  0  0  0
   22.3401   -5.5947  -13.5172 C   0  0  0  0  0  0  0  0  0  0  0  0
   22.0052   -5.0908  -12.4225 O   0  0  0  0  0  0  0  0  0  0  0  0
   20.3584   -5.5338  -15.5728 C   0  0  0  0  0  0  0  0  0  0  0  0
   20.5769   -5.8501  -16.7635 O   0  0  0  0  0  0  0  0  0  0  0  0
   23.3130   -4.9186  -14.2816 O   0  0  0  0  0  0  0  0  0  0  0  0
   20.1480   -4.1791  -15.2990 O   0  0  0  0  0  0  0  0  0  0  0  0
  2  1  1  6
  3  2  1  0
  4  2  1  0
  5  4  1  0
  5  6  1  1
  7  5  1  0
  7  8  2  0
  9  7  1  0
 10  9  1  0
 10 11  1  0
 11 13  1  0
 12 11  2  0
 13 14  1  0
 14 18  1  0
 14 15  1  6
 15 16  1  0
 16 20  1  0
 17 16  2  0
 18 19  2  0
 18 21  1  0
M  END
$$$$
