LGD.pdb
     RDKit          3D

 21 20  0  0  1  0  0  0  0  0999 V2000
   26.0482  -11.4394  -15.4381 C   0  0  0  0  0  0  0  0  0  0  0  0
   25.6903  -10.1551  -16.1831 C   0  0  2  0  0  0  0  0  0  0  0  0
   26.7987   -9.1885  -15.9749 C   0  0  0  0  0  0  0  0  0  0  0  0
   24.3299   -9.7409  -15.7267 C   0  0  0  0  0  0  0  0  0  0  0  0
   23.2082  -10.6256  -16.0771 C   0  0  2  0  0  0  0  0  0  0  0  0
   23.2250  -11.0583  -17.4322 N   0  0  0  0  0  0  0  0  0  0  0  0
   21.8748  -10.0944  -15.7167 C   0  0  0  0  0  0  0  0  0  0  0  0
   21.6536   -9.8189  -14.5127 O   0  0  0  0  0  0  0  0  0  0  0  0
   20.8904   -9.9080  -16.7089 N   0  0  0  0  0  0  0  0  0  0  0  0
   19.5977   -9.3359  -16.4199 C   0  0  0  0  0  0  0  0  0  0  0  0
   19.7350   -7.8623  -16.3378 C   0  0  0  0  0  0  0  0  0  0  0  0
   18.7619   -7.0853  -16.1486 O   0  0  0  0  0  0  0  0  0  0  0  0
   21.0304   -7.2560  -16.4766 N   0  0  0  0  0  0  0  0  0  0  0  0
   21.2106   -5.8119  -16.4139 C   0  0  1  0  0  0  0  0  0  0  0  0
   22.3628   -5.4760  -15.4744 C   0  0  0  0  0  0  0  0  0  0  0  0
   22.5331   -4.0023  -15.4700 C   0  0  0  0  0  0  0  0  0  0  0  0
   21.5697   -3.2209  -15.3091 O   0  0  0  0  0  0  0  0  0  0  0  0
   21.5317   -5.3187  -17.7957 C   0  0  0  0  0  0  0  0  0  0  0  0
   22.2625   -5.9729  -18.5727 O   0  0  0  0  0  0  0  0  0  0  0  0
   23.8127   -3.4390  -15.6524 O   0  0  0  0  0  0  0  0  0  0  0  0
   21.0256   -4.1029  -18.2651 O   0  0  0  0  0  0  0  0  0  0  0  0
  2  1  1  1
  3  2  1  0
  4  2  1  0
  5  4  1  0
  5  6  1  6
  7  5  1  0
  7  8  2  0
  9  7  1  0
 10  9  1  0
 10 11  1  0
 11 13  1  0
 12 11  2  0
 13 14  1  0
 14 18  1  0
 14 15  1  1
 15 16  1  0
 16 20  1  0
 17 16  2  0
 18 19  2  0
 18 21  1  0
M  END
$$$$
