LGD.pdb
     RDKit          3D

 21 20  0  0  1  0  0  0  0  0999 V2000
   22.9246  -33.2556   -9.1909 C   0  0  0  0  0  0  0  0  0  0  0  0
   24.1873  -33.0512  -10.0255 C   0  0  2  0  0  0  0  0  0  0  0  0
   23.9761  -33.7196  -11.3350 C   0  0  0  0  0  0  0  0  0  0  0  0
   25.3440  -33.5146   -9.2022 C   0  0  0  0  0  0  0  0  0  0  0  0
   25.5245  -32.8832   -7.8861 C   0  0  2  0  0  0  0  0  0  0  0  0
   25.7250  -31.4763   -7.9512 N   0  0  0  0  0  0  0  0  0  0  0  0
   26.5595  -33.5180   -7.0401 C   0  0  0  0  0  0  0  0  0  0  0  0
   26.5230  -34.7638   -6.8958 O   0  0  0  0  0  0  0  0  0  0  0  0
   27.5528  -32.7324   -6.4200 N   0  0  0  0  0  0  0  0  0  0  0  0
   28.5737  -33.3008   -5.5734 C   0  0  0  0  0  0  0  0  0  0  0  0
   27.9469  -33.7589   -4.3108 C   0  0  0  0  0  0  0  0  0  0  0  0
   27.2863  -33.0022   -3.5509 O   0  0  0  0  0  0  0  0  0  0  0  0
   28.0797  -35.1305   -3.9032 N   0  0  0  0  0  0  0  0  0  0  0  0
   27.5473  -35.6070   -2.6338 C   0  0  1  0  0  0  0  0  0  0  0  0
   27.9625  -37.0566   -2.4117 C   0  0  0  0  0  0  0  0  0  0  0  0
   26.9043  -37.7162   -1.6080 C   0  0  0  0  0  0  0  0  0  0  0  0
   25.8647  -37.1167   -1.2552 O   0  0  0  0  0  0  0  0  0  0  0  0
   28.1125  -34.7508   -1.5368 C   0  0  0  0  0  0  0  0  0  0  0  0
   29.3122  -34.3953   -1.5341 O   0  0  0  0  0  0  0  0  0  0  0  0
   27.0519  -39.0623   -1.2154 O   0  0  0  0  0  0  0  0  0  0  0  0
   27.3153  -34.3208   -0.4719 O   0  0  0  0  0  0  0  0  0  0  0  0
  2  1  1  1
  3  2  1  0
  4  2  1  0
  5  4  1  0
  5  6  1  6
  7  5  1  0
  7  8  2  0
  9  7  1  0
 10  9  1  0
 10 11  1  0
 11 13  1  0
 12 11  2  0
 13 14  1  0
 14 18  1  0
 14 15  1  1
 15 16  1  0
 16 20  1  0
 17 16  2  0
 18 19  2  0
 18 21  1  0
M  END
$$$$
