LGD.pdb
     RDKit          3D

 21 20  0  0  1  0  0  0  0  0999 V2000
   28.9927  -21.7157   -9.3322 C   0  0  0  0  0  0  0  0  0  0  0  0
   28.9823  -21.5069  -10.8452 C   0  0  2  0  0  0  0  0  0  0  0  0
   30.3114  -20.9712  -11.2361 C   0  0  0  0  0  0  0  0  0  0  0  0
   27.7879  -20.6713  -11.1703 C   0  0  0  0  0  0  0  0  0  0  0  0
   26.4770  -21.1818  -10.7409 C   0  0  2  0  0  0  0  0  0  0  0  0
   26.1252  -22.4240  -11.3383 N   0  0  0  0  0  0  0  0  0  0  0  0
   25.3694  -20.2091  -10.8714 C   0  0  0  0  0  0  0  0  0  0  0  0
   25.4280  -19.1522  -10.1979 O   0  0  0  0  0  0  0  0  0  0  0  0
   24.2852  -20.4757  -11.7327 N   0  0  0  0  0  0  0  0  0  0  0  0
   23.9405  -19.6109  -12.8351 C   0  0  0  0  0  0  0  0  0  0  0  0
   22.7900  -20.1984  -13.5617 C   0  0  0  0  0  0  0  0  0  0  0  0
   22.2490  -19.6527  -14.5596 O   0  0  0  0  0  0  0  0  0  0  0  0
   22.2391  -21.4544  -13.1324 N   0  0  0  0  0  0  0  0  0  0  0  0
   21.0160  -21.9922  -13.7126 C   0  0  1  0  0  0  0  0  0  0  0  0
   21.0246  -23.5133  -13.6160 C   0  0  0  0  0  0  0  0  0  0  0  0
   21.1706  -24.0568  -14.9886 C   0  0  0  0  0  0  0  0  0  0  0  0
   21.1788  -23.3200  -15.9994 O   0  0  0  0  0  0  0  0  0  0  0  0
   19.8502  -21.4482  -12.9375 C   0  0  0  0  0  0  0  0  0  0  0  0
   18.7528  -21.2053  -13.4872 O   0  0  0  0  0  0  0  0  0  0  0  0
   21.3052  -25.4462  -15.1872 O   0  0  0  0  0  0  0  0  0  0  0  0
   19.9506  -21.1891  -11.5673 O   0  0  0  0  0  0  0  0  0  0  0  0
  2  1  1  1
  3  2  1  0
  4  2  1  0
  5  4  1  0
  5  6  1  6
  7  5  1  0
  7  8  2  0
  9  7  1  0
 10  9  1  0
 10 11  1  0
 11 13  1  0
 12 11  2  0
 13 14  1  0
 14 18  1  0
 14 15  1  1
 15 16  1  0
 16 20  1  0
 17 16  2  0
 18 19  2  0
 18 21  1  0
M  END
$$$$
