LGD.pdb
     RDKit          3D

 21 20  0  0  1  0  0  0  0  0999 V2000
   29.4604  -20.8416   -5.0521 C   0  0  0  0  0  0  0  0  0  0  0  0
   28.8041  -19.5116   -5.4172 C   0  0  2  0  0  0  0  0  0  0  0  0
   28.8969  -18.6219   -4.2315 C   0  0  0  0  0  0  0  0  0  0  0  0
   27.4370  -19.8179   -5.9345 C   0  0  0  0  0  0  0  0  0  0  0  0
   27.3491  -20.6687   -7.1311 C   0  0  2  0  0  0  0  0  0  0  0  0
   28.1122  -20.1866   -8.2307 N   0  0  0  0  0  0  0  0  0  0  0  0
   25.9675  -20.9861   -7.5556 C   0  0  0  0  0  0  0  0  0  0  0  0
   25.1438  -21.3348   -6.6757 O   0  0  0  0  0  0  0  0  0  0  0  0
   25.6009  -20.8947   -8.9142 N   0  0  0  0  0  0  0  0  0  0  0  0
   24.5011  -20.0777   -9.3666 C   0  0  0  0  0  0  0  0  0  0  0  0
   24.4341  -20.1434  -10.8459 C   0  0  0  0  0  0  0  0  0  0  0  0
   23.6068  -19.4864  -11.5317 O   0  0  0  0  0  0  0  0  0  0  0  0
   25.3453  -20.9895  -11.5660 N   0  0  0  0  0  0  0  0  0  0  0  0
   25.3346  -21.0632  -13.0208 C   0  0  1  0  0  0  0  0  0  0  0  0
   26.6686  -21.6060  -13.5198 C   0  0  0  0  0  0  0  0  0  0  0  0
   27.7321  -20.6625  -13.0963 C   0  0  0  0  0  0  0  0  0  0  0  0
   28.4818  -20.8973  -12.1229 O   0  0  0  0  0  0  0  0  0  0  0  0
   24.2297  -21.9923  -13.4355 C   0  0  0  0  0  0  0  0  0  0  0  0
   23.7875  -22.8719  -12.6632 O   0  0  0  0  0  0  0  0  0  0  0  0
   27.9239  -19.4541  -13.7969 O   0  0  0  0  0  0  0  0  0  0  0  0
   23.6547  -21.9096  -14.7071 O   0  0  0  0  0  0  0  0  0  0  0  0
  2  1  1  1
  3  2  1  0
  4  2  1  0
  5  4  1  0
  5  6  1  6
  7  5  1  0
  7  8  2  0
  9  7  1  0
 10  9  1  0
 10 11  1  0
 11 13  1  0
 12 11  2  0
 13 14  1  0
 14 18  1  0
 14 15  1  1
 15 16  1  0
 16 20  1  0
 17 16  2  0
 18 19  2  0
 18 21  1  0
M  END
$$$$
