LGD.pdb
     RDKit          3D

 21 20  0  0  1  0  0  0  0  0999 V2000
   16.5336  -15.5989  -17.5246 C   0  0  0  0  0  0  0  0  0  0  0  0
   16.0995  -14.2000  -17.0917 C   0  0  2  0  0  0  0  0  0  0  0  0
   14.7715  -13.9309  -17.7002 C   0  0  0  0  0  0  0  0  0  0  0  0
   17.2101  -13.2632  -17.4371 C   0  0  0  0  0  0  0  0  0  0  0  0
   18.4520  -13.3810  -16.6578 C   0  0  2  0  0  0  0  0  0  0  0  0
   18.2406  -13.4266  -15.2517 N   0  0  0  0  0  0  0  0  0  0  0  0
   19.4843  -12.3763  -16.9967 C   0  0  0  0  0  0  0  0  0  0  0  0
   19.8290  -12.2646  -18.1979 O   0  0  0  0  0  0  0  0  0  0  0  0
   20.0555  -11.5737  -15.9878 N   0  0  0  0  0  0  0  0  0  0  0  0
   21.0054  -10.5265  -16.2757 C   0  0  0  0  0  0  0  0  0  0  0  0
   20.6037   -9.3024  -15.5429 C   0  0  0  0  0  0  0  0  0  0  0  0
   19.5067   -9.1876  -14.9347 O   0  0  0  0  0  0  0  0  0  0  0  0
   21.4877   -8.1701  -15.5036 N   0  0  0  0  0  0  0  0  0  0  0  0
   21.1776   -6.9836  -14.7176 C   0  0  1  0  0  0  0  0  0  0  0  0
   22.4652   -6.3684  -14.1821 C   0  0  0  0  0  0  0  0  0  0  0  0
   22.0957   -5.2522  -13.2775 C   0  0  0  0  0  0  0  0  0  0  0  0
   21.0025   -5.2208  -12.6705 O   0  0  0  0  0  0  0  0  0  0  0  0
   20.4854   -5.9956  -15.6123 C   0  0  0  0  0  0  0  0  0  0  0  0
   19.7495   -5.0953  -15.1503 O   0  0  0  0  0  0  0  0  0  0  0  0
   22.9884   -4.1790  -13.0793 O   0  0  0  0  0  0  0  0  0  0  0  0
   20.6363   -6.0486  -17.0012 O   0  0  0  0  0  0  0  0  0  0  0  0
  2  1  1  6
  3  2  1  0
  4  2  1  0
  5  4  1  0
  5  6  1  1
  7  5  1  0
  7  8  2  0
  9  7  1  0
 10  9  1  0
 10 11  1  0
 11 13  1  0
 12 11  2  0
 13 14  1  0
 14 18  1  0
 14 15  1  6
 15 16  1  0
 16 20  1  0
 17 16  2  0
 18 19  2  0
 18 21  1  0
M  END
$$$$
