NCV.pdb
     RDKit          3D

 22 21  0  0  1  0  0  0  0  0999 V2000
    7.9413  -14.2811   16.7603 N   0  0  0  0  0  0  0  0  0  0  0  0
    7.7226  -15.5134   17.4431 C   0  0  0  0  0  0  0  0  0  0  0  0
    8.0657  -16.5747   16.8855 O   0  0  0  0  0  0  0  0  0  0  0  0
    7.1074  -15.5402   18.7736 C   0  0  0  0  0  0  0  0  0  0  0  0
    8.1724  -15.6886   19.8345 C   0  0  2  0  0  0  0  0  0  0  0  0
    8.7707  -17.0011   19.6836 N   0  0  0  0  0  0  0  0  0  0  0  0
    7.6683  -15.4577   21.1882 C   0  0  0  0  0  0  0  0  0  0  0  0
    7.0465  -14.4309   21.5583 O   0  0  0  0  0  0  0  0  0  0  0  0
    7.8906  -16.4617   22.1705 N   0  0  0  0  0  0  0  0  0  0  0  0
    7.4043  -16.3920   23.5107 C   0  0  1  0  0  0  0  0  0  0  0  0
    7.2112  -17.7904   24.0227 C   0  0  0  0  0  0  0  0  0  0  0  0
    6.7172  -17.7196   25.7687 S   0  0  0  0  0  0  0  0  0  0  0  0
    8.1865  -15.5287   24.3963 C   0  0  0  0  0  0  0  0  0  0  0  0
    9.4373  -15.6603   24.4196 O   0  0  0  0  0  0  0  0  0  0  0  0
    6.0672  -12.8783   26.8773 C   0  0  0  0  0  0  0  0  0  0  0  0
    7.4527  -12.4992   26.4065 C   0  0  2  0  0  0  0  0  0  0  0  0
    7.3063  -11.8404   25.0599 C   0  0  0  0  0  0  0  0  0  0  0  0
    8.2819  -13.7721   26.2092 C   0  0  2  0  0  0  0  0  0  0  0  0
    7.5881  -14.5620   25.2175 N   0  0  0  0  0  0  0  0  0  0  0  0
    8.4532  -14.4963   27.4826 C   0  0  0  0  0  0  0  0  0  0  0  0
    9.3184  -14.0781   28.4805 O   0  0  0  0  0  0  0  0  0  0  0  0
    7.7852  -15.5423   27.6758 O   0  0  0  0  0  0  0  0  0  0  0  0
  1  2  1  0
  2  3  2  0
  2  4  1  0
  5  7  1  0
  5  4  1  0
  5  6  1  1
  7  8  2  0
  7  9  1  0
  9 10  1  0
 10 13  1  0
 11 12  1  0
 10 11  1  1
 13 14  2  0
 13 19  1  0
 16 15  1  6
 16 18  1  0
 16 17  1  0
 18 20  1  0
 18 19  1  6
 20 21  1  0
 22 20  2  0
M  END
$$$$
