NCV.pdb
     RDKit          3D

 22 21  0  0  1  0  0  0  0  0999 V2000
    8.1147  -12.1825   18.3950 N   0  0  0  0  0  0  0  0  0  0  0  0
    7.8331  -13.5534   18.6669 C   0  0  0  0  0  0  0  0  0  0  0  0
    7.9820  -14.3872   17.7516 O   0  0  0  0  0  0  0  0  0  0  0  0
    7.3775  -13.9817   19.9930 C   0  0  0  0  0  0  0  0  0  0  0  0
    8.5045  -14.6623   20.7337 C   0  0  2  0  0  0  0  0  0  0  0  0
    8.8080  -15.9001   20.0414 N   0  0  0  0  0  0  0  0  0  0  0  0
    8.2127  -14.8734   22.1515 C   0  0  0  0  0  0  0  0  0  0  0  0
    7.8326  -13.9795   22.9480 O   0  0  0  0  0  0  0  0  0  0  0  0
    8.3658  -16.1834   22.6834 N   0  0  0  0  0  0  0  0  0  0  0  0
    8.1679  -16.5179   24.0569 C   0  0  1  0  0  0  0  0  0  0  0  0
    7.8227  -17.9764   24.1489 C   0  0  0  0  0  0  0  0  0  0  0  0
    9.3280  -18.9593   23.8930 S   0  0  0  0  0  0  0  0  0  0  0  0
    9.2514  -16.0978   24.9464 C   0  0  0  0  0  0  0  0  0  0  0  0
   10.4263  -16.0711   24.4979 O   0  0  0  0  0  0  0  0  0  0  0  0
    8.9430  -13.1383   27.2882 C   0  0  0  0  0  0  0  0  0  0  0  0
    9.4379  -14.2878   28.1359 C   0  0  2  0  0  0  0  0  0  0  0  0
   10.5389  -13.7569   29.0161 C   0  0  0  0  0  0  0  0  0  0  0  0
   10.0507  -15.3561   27.2250 C   0  0  2  0  0  0  0  0  0  0  0  0
    9.0224  -15.7252   26.2788 N   0  0  0  0  0  0  0  0  0  0  0  0
   10.5308  -16.5097   28.0087 C   0  0  0  0  0  0  0  0  0  0  0  0
   11.8192  -16.6006   28.5099 O   0  0  0  0  0  0  0  0  0  0  0  0
    9.7375  -17.4569   28.2348 O   0  0  0  0  0  0  0  0  0  0  0  0
  1  2  1  0
  2  3  2  0
  2  4  1  0
  5  7  1  0
  5  4  1  0
  5  6  1  6
  7  8  2  0
  7  9  1  0
  9 10  1  0
 10 13  1  0
 11 12  1  0
 10 11  1  6
 13 14  2  0
 13 19  1  0
 16 15  1  6
 16 18  1  0
 16 17  1  0
 18 20  1  0
 18 19  1  6
 20 21  1  0
 22 20  2  0
M  END
$$$$
