NCV.pdb
     RDKit          3D

 22 21  0  0  1  0  0  0  0  0999 V2000
    8.2442  -12.2235   18.2478 N   0  0  0  0  0  0  0  0  0  0  0  0
    7.9951  -13.5836   18.5956 C   0  0  0  0  0  0  0  0  0  0  0  0
    8.2559  -14.4716   17.7598 O   0  0  0  0  0  0  0  0  0  0  0  0
    7.4438  -13.9385   19.9069 C   0  0  0  0  0  0  0  0  0  0  0  0
    8.4386  -14.7727   20.6792 C   0  0  2  0  0  0  0  0  0  0  0  0
    8.5317  -16.0669   20.0312 N   0  0  0  0  0  0  0  0  0  0  0  0
    8.1121  -14.8829   22.1008 C   0  0  0  0  0  0  0  0  0  0  0  0
    7.9187  -13.9099   22.8714 O   0  0  0  0  0  0  0  0  0  0  0  0
    8.0016  -16.1822   22.6682 N   0  0  0  0  0  0  0  0  0  0  0  0
    7.6894  -16.4335   24.0382 C   0  0  1  0  0  0  0  0  0  0  0  0
    7.1117  -17.8151   24.1513 C   0  0  0  0  0  0  0  0  0  0  0  0
    5.7291  -17.9769   22.9852 S   0  0  0  0  0  0  0  0  0  0  0  0
    8.7836  -16.1598   24.9705 C   0  0  0  0  0  0  0  0  0  0  0  0
    9.9485  -16.5169   24.6577 O   0  0  0  0  0  0  0  0  0  0  0  0
    8.8410  -12.9441   27.2067 C   0  0  0  0  0  0  0  0  0  0  0  0
    9.0994  -14.1490   28.0820 C   0  0  2  0  0  0  0  0  0  0  0  0
   10.2175  -13.7892   29.0250 C   0  0  0  0  0  0  0  0  0  0  0  0
    9.5883  -15.3087   27.2087 C   0  0  2  0  0  0  0  0  0  0  0  0
    8.5758  -15.5141   26.1979 N   0  0  0  0  0  0  0  0  0  0  0  0
    9.8255  -16.5189   28.0177 C   0  0  0  0  0  0  0  0  0  0  0  0
   11.0720  -16.8653   28.5136 O   0  0  0  0  0  0  0  0  0  0  0  0
    8.8546  -17.2741   28.2717 O   0  0  0  0  0  0  0  0  0  0  0  0
  1  2  1  0
  2  3  2  0
  2  4  1  0
  5  7  1  0
  5  4  1  0
  5  6  1  6
  7  8  2  0
  7  9  1  0
  9 10  1  0
 10 13  1  0
 11 12  1  0
 10 11  1  6
 13 14  2  0
 13 19  1  0
 16 15  1  6
 16 18  1  0
 16 17  1  0
 18 20  1  0
 18 19  1  6
 20 21  1  0
 22 20  2  0
M  END
$$$$
