NCV.pdb
     RDKit          3D

 22 21  0  0  1  0  0  0  0  0999 V2000
   11.5745  -18.3348   19.0287 N   0  0  0  0  0  0  0  0  0  0  0  0
   10.4834  -17.6789   18.3868 C   0  0  0  0  0  0  0  0  0  0  0  0
   10.4939  -17.5786   17.1439 O   0  0  0  0  0  0  0  0  0  0  0  0
    9.3685  -17.1311   19.1655 C   0  0  0  0  0  0  0  0  0  0  0  0
    9.6223  -17.3251   20.6419 C   0  0  2  0  0  0  0  0  0  0  0  0
    9.4131  -18.7271   20.9487 N   0  0  0  0  0  0  0  0  0  0  0  0
    8.8127  -16.4434   21.4828 C   0  0  0  0  0  0  0  0  0  0  0  0
    8.6690  -15.2088   21.3004 O   0  0  0  0  0  0  0  0  0  0  0  0
    8.1309  -17.0111   22.5942 N   0  0  0  0  0  0  0  0  0  0  0  0
    7.3559  -16.2587   23.5273 C   0  0  1  0  0  0  0  0  0  0  0  0
    6.3326  -17.1692   24.1430 C   0  0  0  0  0  0  0  0  0  0  0  0
    7.1503  -18.2475   25.3538 S   0  0  0  0  0  0  0  0  0  0  0  0
    8.1443  -15.4960   24.4960 C   0  0  0  0  0  0  0  0  0  0  0  0
    9.3421  -15.8251   24.6943 O   0  0  0  0  0  0  0  0  0  0  0  0
    6.0956  -12.8813   27.0297 C   0  0  0  0  0  0  0  0  0  0  0  0
    7.4480  -12.4318   26.5258 C   0  0  2  0  0  0  0  0  0  0  0  0
    7.2257  -11.7083   25.2235 C   0  0  0  0  0  0  0  0  0  0  0  0
    8.3079  -13.6640   26.2275 C   0  0  2  0  0  0  0  0  0  0  0  0
    7.6088  -14.4131   25.2082 N   0  0  0  0  0  0  0  0  0  0  0  0
    8.5375  -14.4589   27.4485 C   0  0  0  0  0  0  0  0  0  0  0  0
    9.4931  -14.1309   28.3965 O   0  0  0  0  0  0  0  0  0  0  0  0
    7.8358  -15.4825   27.6422 O   0  0  0  0  0  0  0  0  0  0  0  0
  1  2  1  0
  2  3  2  0
  2  4  1  0
  5  7  1  0
  5  4  1  0
  5  6  1  1
  7  8  2  0
  7  9  1  0
  9 10  1  0
 10 13  1  0
 11 12  1  0
 10 11  1  1
 13 14  2  0
 13 19  1  0
 16 15  1  6
 16 18  1  0
 16 17  1  0
 18 20  1  0
 18 19  1  6
 20 21  1  0
 22 20  2  0
M  END
$$$$
