NCV.pdb
     RDKit          3D

 22 21  0  0  1  0  0  0  0  0999 V2000
    8.4510  -12.7460   17.2930 N   0  0  0  0  0  0  0  0  0  0  0  0
    7.9877  -14.0745   17.5236 C   0  0  0  0  0  0  0  0  0  0  0  0
    8.2295  -14.9488   16.6679 O   0  0  0  0  0  0  0  0  0  0  0  0
    7.2416  -14.4131   18.7393 C   0  0  0  0  0  0  0  0  0  0  0  0
    8.1768  -14.9831   19.7799 C   0  0  2  0  0  0  0  0  0  0  0  0
    8.5884  -16.3004   19.3340 N   0  0  0  0  0  0  0  0  0  0  0  0
    7.5952  -15.0049   21.1219 C   0  0  0  0  0  0  0  0  0  0  0  0
    7.0837  -14.0138   21.6999 O   0  0  0  0  0  0  0  0  0  0  0  0
    7.6016  -16.2328   21.8393 N   0  0  0  0  0  0  0  0  0  0  0  0
    7.1612  -16.3732   23.1898 C   0  0  1  0  0  0  0  0  0  0  0  0
    7.0426  -17.8367   23.5044 C   0  0  0  0  0  0  0  0  0  0  0  0
    6.5765  -18.0324   25.2485 S   0  0  0  0  0  0  0  0  0  0  0  0
    7.9394  -15.6083   24.1649 C   0  0  0  0  0  0  0  0  0  0  0  0
    9.1944  -15.6881   24.1337 O   0  0  0  0  0  0  0  0  0  0  0  0
    6.3683  -12.2367   25.7578 C   0  0  0  0  0  0  0  0  0  0  0  0
    6.9995  -13.1263   26.8043 C   0  0  2  0  0  0  0  0  0  0  0  0
    7.7308  -12.2337   27.7725 C   0  0  0  0  0  0  0  0  0  0  0  0
    8.0396  -14.0297   26.1345 C   0  0  2  0  0  0  0  0  0  0  0  0
    7.3327  -14.7917   25.1302 N   0  0  0  0  0  0  0  0  0  0  0  0
    8.7086  -14.8937   27.1252 C   0  0  0  0  0  0  0  0  0  0  0  0
    9.9293  -14.5804   27.7007 O   0  0  0  0  0  0  0  0  0  0  0  0
    8.1489  -15.9651   27.4663 O   0  0  0  0  0  0  0  0  0  0  0  0
  1  2  1  0
  2  3  2  0
  2  4  1  0
  5  7  1  0
  5  4  1  0
  5  6  1  6
  7  8  2  0
  7  9  1  0
  9 10  1  0
 10 13  1  0
 11 12  1  0
 10 11  1  1
 13 14  2  0
 13 19  1  0
 16 15  1  6
 16 18  1  0
 16 17  1  0
 18 20  1  0
 18 19  1  6
 20 21  1  0
 22 20  2  0
M  END
$$$$
