NCV.pdb
     RDKit          3D

 22 21  0  0  1  0  0  0  0  0999 V2000
   10.6425  -18.1537   18.6553 N   0  0  0  0  0  0  0  0  0  0  0  0
   11.5773  -17.9505   19.7124 C   0  0  0  0  0  0  0  0  0  0  0  0
   12.7621  -18.2979   19.5376 O   0  0  0  0  0  0  0  0  0  0  0  0
   11.1615  -17.3462   20.9818 C   0  0  0  0  0  0  0  0  0  0  0  0
    9.6652  -17.1387   20.9918 C   0  0  2  0  0  0  0  0  0  0  0  0
    9.3142  -16.3749   19.8100 N   0  0  0  0  0  0  0  0  0  0  0  0
    9.1820  -16.5144   22.2233 C   0  0  0  0  0  0  0  0  0  0  0  0
    9.1792  -15.2788   22.4496 O   0  0  0  0  0  0  0  0  0  0  0  0
    8.6740  -17.3558   23.2512 N   0  0  0  0  0  0  0  0  0  0  0  0
    8.1542  -16.8790   24.4921 C   0  0  1  0  0  0  0  0  0  0  0  0
    7.0910  -17.8298   24.9621 C   0  0  0  0  0  0  0  0  0  0  0  0
    7.8804  -19.3459   25.5749 S   0  0  0  0  0  0  0  0  0  0  0  0
    9.1713  -16.5678   25.4971 C   0  0  0  0  0  0  0  0  0  0  0  0
   10.3304  -17.0337   25.3492 O   0  0  0  0  0  0  0  0  0  0  0  0
    8.8680  -13.1638   27.5898 C   0  0  0  0  0  0  0  0  0  0  0  0
    9.2072  -14.3286   28.4915 C   0  0  2  0  0  0  0  0  0  0  0  0
   10.2422  -13.8499   29.4755 C   0  0  0  0  0  0  0  0  0  0  0  0
    9.8462  -15.4417   27.6553 C   0  0  2  0  0  0  0  0  0  0  0  0
    8.8961  -15.7692   26.6166 N   0  0  0  0  0  0  0  0  0  0  0  0
   10.1839  -16.6075   28.4932 C   0  0  0  0  0  0  0  0  0  0  0  0
   11.4167  -16.7682   29.1048 O   0  0  0  0  0  0  0  0  0  0  0  0
    9.3161  -17.4994   28.6632 O   0  0  0  0  0  0  0  0  0  0  0  0
  1  2  1  0
  2  3  2  0
  2  4  1  0
  5  7  1  0
  5  4  1  0
  5  6  1  6
  7  8  2  0
  7  9  1  0
  9 10  1  0
 10 13  1  0
 11 12  1  0
 10 11  1  1
 13 14  2  0
 13 19  1  0
 16 15  1  6
 16 18  1  0
 16 17  1  0
 18 20  1  0
 18 19  1  6
 20 21  1  0
 22 20  2  0
M  END
$$$$
