NCV.pdb
     RDKit          3D

 22 21  0  0  1  0  0  0  0  0999 V2000
    8.7145  -12.6424   17.0953 N   0  0  0  0  0  0  0  0  0  0  0  0
    8.0337  -13.8698   17.3459 C   0  0  0  0  0  0  0  0  0  0  0  0
    8.0377  -14.7473   16.4598 O   0  0  0  0  0  0  0  0  0  0  0  0
    7.3409  -14.1026   18.6168 C   0  0  0  0  0  0  0  0  0  0  0  0
    8.3112  -14.6302   19.6473 C   0  0  2  0  0  0  0  0  0  0  0  0
    8.7721  -15.9304   19.1996 N   0  0  0  0  0  0  0  0  0  0  0  0
    7.7469  -14.6726   20.9963 C   0  0  0  0  0  0  0  0  0  0  0  0
    7.2824  -13.6815   21.6126 O   0  0  0  0  0  0  0  0  0  0  0  0
    7.7144  -15.9223   21.6743 N   0  0  0  0  0  0  0  0  0  0  0  0
    7.1237  -16.1212   22.9584 C   0  0  1  0  0  0  0  0  0  0  0  0
    6.8997  -17.5925   23.1590 C   0  0  0  0  0  0  0  0  0  0  0  0
    7.0611  -17.9813   24.9254 S   0  0  0  0  0  0  0  0  0  0  0  0
    7.8284  -15.4633   24.0594 C   0  0  0  0  0  0  0  0  0  0  0  0
    9.0728  -15.6179   24.1593 O   0  0  0  0  0  0  0  0  0  0  0  0
    6.3187  -12.0566   25.5480 C   0  0  0  0  0  0  0  0  0  0  0  0
    6.7596  -12.9916   26.6508 C   0  0  2  0  0  0  0  0  0  0  0  0
    7.4382  -12.1565   27.7048 C   0  0  0  0  0  0  0  0  0  0  0  0
    7.8010  -13.9680   26.0952 C   0  0  2  0  0  0  0  0  0  0  0  0
    7.1629  -14.6685   25.0038 N   0  0  0  0  0  0  0  0  0  0  0  0
    8.2812  -14.8857   27.1451 C   0  0  0  0  0  0  0  0  0  0  0  0
    9.4668  -14.6917   27.8353 O   0  0  0  0  0  0  0  0  0  0  0  0
    7.5859  -15.8920   27.4304 O   0  0  0  0  0  0  0  0  0  0  0  0
  1  2  1  0
  2  3  2  0
  2  4  1  0
  5  7  1  0
  5  4  1  0
  5  6  1  6
  7  8  2  0
  7  9  1  0
  9 10  1  0
 10 13  1  0
 11 12  1  0
 10 11  1  1
 13 14  2  0
 13 19  1  0
 16 15  1  6
 16 18  1  0
 16 17  1  0
 18 20  1  0
 18 19  1  6
 20 21  1  0
 22 20  2  0
M  END
$$$$
