NCV.pdb
     RDKit          3D

 22 21  0  0  1  0  0  0  0  0999 V2000
   10.7937  -18.0110   19.3432 N   0  0  0  0  0  0  0  0  0  0  0  0
   11.1106  -16.6234   19.2623 C   0  0  0  0  0  0  0  0  0  0  0  0
   11.7333  -16.2097   18.2642 O   0  0  0  0  0  0  0  0  0  0  0  0
   10.7158  -15.6958   20.3268 C   0  0  0  0  0  0  0  0  0  0  0  0
   10.0400  -16.4500   21.4477 C   0  0  2  0  0  0  0  0  0  0  0  0
    8.7658  -16.9346   20.9526 N   0  0  0  0  0  0  0  0  0  0  0  0
    9.8987  -15.6563   22.6683 C   0  0  0  0  0  0  0  0  0  0  0  0
   10.8154  -14.9775   23.1944 O   0  0  0  0  0  0  0  0  0  0  0  0
    8.6349  -15.6415   23.3201 N   0  0  0  0  0  0  0  0  0  0  0  0
    8.4129  -15.1047   24.6240 C   0  0  1  0  0  0  0  0  0  0  0  0
    6.9375  -15.1224   24.9035 C   0  0  0  0  0  0  0  0  0  0  0  0
    6.6011  -14.1152   26.3766 S   0  0  0  0  0  0  0  0  0  0  0  0
    9.2327  -15.7066   25.6761 C   0  0  0  0  0  0  0  0  0  0  0  0
    9.4243  -16.9497   25.6572 O   0  0  0  0  0  0  0  0  0  0  0  0
    9.5322  -14.1146   29.5320 C   0  0  0  0  0  0  0  0  0  0  0  0
   10.8213  -14.3333   28.7735 C   0  0  2  0  0  0  0  0  0  0  0  0
   11.0986  -13.0797   27.9858 C   0  0  0  0  0  0  0  0  0  0  0  0
   10.6264  -15.4744   27.7702 C   0  0  2  0  0  0  0  0  0  0  0  0
    9.8100  -14.9441   26.7018 N   0  0  0  0  0  0  0  0  0  0  0  0
   10.0105  -16.6489   28.4156 C   0  0  0  0  0  0  0  0  0  0  0  0
   10.7267  -17.5528   29.1834 O   0  0  0  0  0  0  0  0  0  0  0  0
    8.7787  -16.8428   28.2648 O   0  0  0  0  0  0  0  0  0  0  0  0
  1  2  1  0
  2  3  2  0
  2  4  1  0
  5  7  1  0
  5  4  1  0
  5  6  1  6
  7  8  2  0
  7  9  1  0
  9 10  1  0
 10 13  1  0
 11 12  1  0
 10 11  1  1
 13 14  2  0
 13 19  1  0
 16 15  1  6
 16 18  1  0
 16 17  1  0
 18 20  1  0
 18 19  1  6
 20 21  1  0
 22 20  2  0
M  END
$$$$
