NCV.pdb
     RDKit          3D

 22 21  0  0  1  0  0  0  0  0999 V2000
    8.5225  -12.2470   18.2245 N   0  0  0  0  0  0  0  0  0  0  0  0
    7.8662  -13.4998   18.4050 C   0  0  0  0  0  0  0  0  0  0  0  0
    7.8131  -14.2909   17.4425 O   0  0  0  0  0  0  0  0  0  0  0  0
    7.2636  -13.8574   19.6928 C   0  0  0  0  0  0  0  0  0  0  0  0
    8.3022  -14.4794   20.5964 C   0  0  2  0  0  0  0  0  0  0  0  0
    8.7215  -15.7314   19.9961 N   0  0  0  0  0  0  0  0  0  0  0  0
    7.8360  -14.6493   21.9725 C   0  0  0  0  0  0  0  0  0  0  0  0
    7.4622  -13.7156   22.7252 O   0  0  0  0  0  0  0  0  0  0  0  0
    7.7972  -15.9638   22.5136 N   0  0  0  0  0  0  0  0  0  0  0  0
    7.5432  -16.2569   23.8873 C   0  0  1  0  0  0  0  0  0  0  0  0
    6.9698  -17.6415   23.9828 C   0  0  0  0  0  0  0  0  0  0  0  0
    6.6212  -18.0201   25.7242 S   0  0  0  0  0  0  0  0  0  0  0  0
    8.6763  -16.0111   24.7802 C   0  0  0  0  0  0  0  0  0  0  0  0
    9.8258  -16.3629   24.4099 O   0  0  0  0  0  0  0  0  0  0  0  0
    8.3633  -12.9239   27.2393 C   0  0  0  0  0  0  0  0  0  0  0  0
    9.0193  -14.0811   27.9572 C   0  0  2  0  0  0  0  0  0  0  0  0
   10.1672  -13.5227   28.7567 C   0  0  0  0  0  0  0  0  0  0  0  0
    9.6049  -15.0471   26.9226 C   0  0  2  0  0  0  0  0  0  0  0  0
    8.5220  -15.3976   26.0319 N   0  0  0  0  0  0  0  0  0  0  0  0
   10.1975  -16.2291   27.5761 C   0  0  0  0  0  0  0  0  0  0  0  0
   11.5458  -16.3302   27.8784 O   0  0  0  0  0  0  0  0  0  0  0  0
    9.4483  -17.1920   27.8744 O   0  0  0  0  0  0  0  0  0  0  0  0
  1  2  1  0
  2  3  2  0
  2  4  1  0
  5  7  1  0
  5  4  1  0
  5  6  1  6
  7  8  2  0
  7  9  1  0
  9 10  1  0
 10 13  1  0
 11 12  1  0
 10 11  1  6
 13 14  2  0
 13 19  1  0
 16 15  1  6
 16 18  1  0
 16 17  1  0
 18 20  1  0
 18 19  1  6
 20 21  1  0
 22 20  2  0
M  END
$$$$
