NCV.pdb
     RDKit          3D

 22 21  0  0  1  0  0  0  0  0999 V2000
    8.6293  -19.1219   19.6046 N   0  0  0  0  0  0  0  0  0  0  0  0
    9.6977  -18.3388   20.1319 C   0  0  0  0  0  0  0  0  0  0  0  0
   10.7503  -18.2413   19.4704 O   0  0  0  0  0  0  0  0  0  0  0  0
    9.5687  -17.6592   21.4245 C   0  0  0  0  0  0  0  0  0  0  0  0
    9.1107  -16.2346   21.2180 C   0  0  2  0  0  0  0  0  0  0  0  0
    9.9027  -15.6638   20.1454 N   0  0  0  0  0  0  0  0  0  0  0  0
    9.1663  -15.4324   22.4400 C   0  0  0  0  0  0  0  0  0  0  0  0
   10.1779  -14.8065   22.8436 O   0  0  0  0  0  0  0  0  0  0  0  0
    7.9954  -15.3445   23.2424 N   0  0  0  0  0  0  0  0  0  0  0  0
    7.9519  -14.7310   24.5305 C   0  0  1  0  0  0  0  0  0  0  0  0
    6.5153  -14.5006   24.9022 C   0  0  0  0  0  0  0  0  0  0  0  0
    6.4458  -13.4141   26.3554 S   0  0  0  0  0  0  0  0  0  0  0  0
    8.7372  -15.4176   25.5569 C   0  0  0  0  0  0  0  0  0  0  0  0
    8.8114  -16.6729   25.5230 O   0  0  0  0  0  0  0  0  0  0  0  0
   10.6129  -13.0002   28.3253 C   0  0  0  0  0  0  0  0  0  0  0  0
   10.1118  -14.3379   28.8198 C   0  0  2  0  0  0  0  0  0  0  0  0
   11.0854  -14.8271   29.8597 C   0  0  0  0  0  0  0  0  0  0  0  0
   10.1314  -15.3408   27.6620 C   0  0  2  0  0  0  0  0  0  0  0  0
    9.4077  -14.7230   26.5741 N   0  0  0  0  0  0  0  0  0  0  0  0
    9.5406  -16.6301   28.0669 C   0  0  0  0  0  0  0  0  0  0  0  0
   10.3009  -17.7376   28.4060 O   0  0  0  0  0  0  0  0  0  0  0  0
    8.2896  -16.7337   28.1078 O   0  0  0  0  0  0  0  0  0  0  0  0
  1  2  1  0
  2  3  2  0
  2  4  1  0
  5  7  1  0
  5  4  1  0
  5  6  1  6
  7  8  2  0
  7  9  1  0
  9 10  1  0
 10 13  1  0
 11 12  1  0
 10 11  1  1
 13 14  2  0
 13 19  1  0
 16 15  1  6
 16 18  1  0
 16 17  1  0
 18 20  1  0
 18 19  1  6
 20 21  1  0
 22 20  2  0
M  END
$$$$
