NCV.pdb
     RDKit          3D

 22 21  0  0  1  0  0  0  0  0999 V2000
   11.4643  -18.3189   19.9313 N   0  0  0  0  0  0  0  0  0  0  0  0
   11.1803  -16.9725   19.5580 C   0  0  0  0  0  0  0  0  0  0  0  0
   12.0178  -16.3529   18.8725 O   0  0  0  0  0  0  0  0  0  0  0  0
    9.9315  -16.3231   19.9680 C   0  0  0  0  0  0  0  0  0  0  0  0
    9.1100  -17.2666   20.8147 C   0  0  2  0  0  0  0  0  0  0  0  0
    8.1233  -17.8913   19.9547 N   0  0  0  0  0  0  0  0  0  0  0  0
    8.5047  -16.6144   21.9758 C   0  0  0  0  0  0  0  0  0  0  0  0
    7.4516  -15.9301   21.9481 O   0  0  0  0  0  0  0  0  0  0  0  0
    9.1444  -16.7560   23.2380 N   0  0  0  0  0  0  0  0  0  0  0  0
    8.6001  -16.2811   24.4691 C   0  0  1  0  0  0  0  0  0  0  0  0
    7.2313  -16.8727   24.6465 C   0  0  0  0  0  0  0  0  0  0  0  0
    7.3939  -18.6431   25.0162 S   0  0  0  0  0  0  0  0  0  0  0  0
    9.4816  -16.4443   25.6258 C   0  0  0  0  0  0  0  0  0  0  0  0
   10.3418  -17.3618   25.6062 O   0  0  0  0  0  0  0  0  0  0  0  0
    8.7006  -14.2883   29.1408 C   0  0  0  0  0  0  0  0  0  0  0  0
   10.1078  -14.2679   28.5892 C   0  0  2  0  0  0  0  0  0  0  0  0
   10.1867  -13.1366   27.5979 C   0  0  0  0  0  0  0  0  0  0  0  0
   10.3664  -15.5697   27.8243 C   0  0  2  0  0  0  0  0  0  0  0  0
    9.3982  -15.6128   26.7521 N   0  0  0  0  0  0  0  0  0  0  0  0
   10.2652  -16.7390   28.7176 C   0  0  0  0  0  0  0  0  0  0  0  0
   11.2726  -17.1124   29.5924 O   0  0  0  0  0  0  0  0  0  0  0  0
    9.2181  -17.4319   28.6873 O   0  0  0  0  0  0  0  0  0  0  0  0
  1  2  1  0
  2  3  2  0
  2  4  1  0
  5  7  1  0
  5  4  1  0
  5  6  1  6
  7  8  2  0
  7  9  1  0
  9 10  1  0
 10 13  1  0
 11 12  1  0
 10 11  1  1
 13 14  2  0
 13 19  1  0
 16 15  1  6
 16 18  1  0
 16 17  1  0
 18 20  1  0
 18 19  1  6
 20 21  1  0
 22 20  2  0
M  END
$$$$
