NCV.pdb
     RDKit          3D

 22 21  0  0  1  0  0  0  0  0999 V2000
   11.4336  -18.6558   19.0524 N   0  0  0  0  0  0  0  0  0  0  0  0
   11.6734  -17.2571   18.9152 C   0  0  0  0  0  0  0  0  0  0  0  0
   12.4116  -16.8651   17.9897 O   0  0  0  0  0  0  0  0  0  0  0  0
   11.0679  -16.2934   19.8394 C   0  0  0  0  0  0  0  0  0  0  0  0
   10.6032  -16.9978   21.0923 C   0  0  2  0  0  0  0  0  0  0  0  0
    9.4587  -17.8174   20.7432 N   0  0  0  0  0  0  0  0  0  0  0  0
   10.3158  -16.0783   22.1930 C   0  0  0  0  0  0  0  0  0  0  0  0
   11.1044  -15.1982   22.6190 O   0  0  0  0  0  0  0  0  0  0  0  0
    9.0530  -16.1752   22.8399 N   0  0  0  0  0  0  0  0  0  0  0  0
    8.7001  -15.4526   24.0192 C   0  0  1  0  0  0  0  0  0  0  0  0
    7.2044  -15.4571   24.1532 C   0  0  0  0  0  0  0  0  0  0  0  0
    6.7395  -14.5226   25.6391 S   0  0  0  0  0  0  0  0  0  0  0  0
    9.4144  -15.8727   25.2253 C   0  0  0  0  0  0  0  0  0  0  0  0
    9.7177  -17.0864   25.3570 O   0  0  0  0  0  0  0  0  0  0  0  0
   11.3297  -14.3390   29.5568 C   0  0  0  0  0  0  0  0  0  0  0  0
   10.5628  -14.0455   28.2876 C   0  0  2  0  0  0  0  0  0  0  0  0
    9.1372  -13.7574   28.6793 C   0  0  0  0  0  0  0  0  0  0  0  0
   10.5543  -15.2976   27.4051 C   0  0  2  0  0  0  0  0  0  0  0  0
    9.7706  -14.9683   26.2362 N   0  0  0  0  0  0  0  0  0  0  0  0
   10.0103  -16.4578   28.1354 C   0  0  0  0  0  0  0  0  0  0  0  0
   10.7977  -17.3180   28.8835 O   0  0  0  0  0  0  0  0  0  0  0  0
    8.7755  -16.6805   28.0793 O   0  0  0  0  0  0  0  0  0  0  0  0
  1  2  1  0
  2  3  2  0
  2  4  1  0
  5  7  1  0
  5  4  1  0
  5  6  1  6
  7  8  2  0
  7  9  1  0
  9 10  1  0
 10 13  1  0
 11 12  1  0
 10 11  1  1
 13 14  2  0
 13 19  1  0
 16 15  1  1
 16 18  1  0
 16 17  1  0
 18 20  1  0
 18 19  1  6
 20 21  1  0
 22 20  2  0
M  END
$$$$
