HHQ.pdb
     RDKit          3D

 30 31  0  0  1  0  0  0  0  0999 V2000
    9.9185  -16.5550   14.4799 N   0  0  0  0  0  0  0  0  0  0  0  0
   11.0711  -16.7011   15.3380 C   0  0  1  0  0  0  0  0  0  0  0  0
   12.3459  -16.4227   14.5304 C   0  0  0  0  0  0  0  0  0  0  0  0
   12.4836  -17.5204   13.5273 C   0  0  0  0  0  0  0  0  0  0  0  0
   12.5119  -18.8758   13.8188 C   0  0  0  0  0  0  0  0  0  0  0  0
   12.6462  -19.5689   12.6735 N   0  0  0  0  0  0  0  0  0  0  0  0
   12.7034  -18.6721   11.6607 C   0  0  0  0  0  0  0  0  0  0  0  0
   12.6038  -17.4303   12.1888 N   0  0  0  0  0  0  0  0  0  0  0  0
   11.0668  -15.7145   16.4468 C   0  0  0  0  0  0  0  0  0  0  0  0
   10.3397  -14.7056   16.3400 O   0  0  0  0  0  0  0  0  0  0  0  0
   11.8747  -15.9252   17.5953 N   0  0  0  0  0  0  0  0  0  0  0  0
   11.5871  -15.2870   18.8738 C   0  0  1  0  0  0  0  0  0  0  0  0
   10.1459  -15.5021   19.2692 C   0  0  0  0  0  0  0  0  0  0  0  0
    9.2995  -14.5559   18.5108 C   0  0  0  0  0  0  0  0  0  0  0  0
    9.2628  -13.1700   18.6808 C   0  0  0  0  0  0  0  0  0  0  0  0
    8.3858  -12.6379   17.8273 N   0  0  0  0  0  0  0  0  0  0  0  0
    7.8617  -13.6392   17.1183 C   0  0  0  0  0  0  0  0  0  0  0  0
    8.4125  -14.7990   17.5299 N   0  0  0  0  0  0  0  0  0  0  0  0
   12.5576  -15.7476   19.9108 C   0  0  0  0  0  0  0  0  0  0  0  0
   12.5606  -16.9145   20.3731 O   0  0  0  0  0  0  0  0  0  0  0  0
   18.7562  -12.7932   21.6777 N   0  0  0  0  0  0  0  0  0  0  0  0
   18.1644  -13.6846   20.7588 C   0  0  0  0  0  0  0  0  0  0  0  0
   18.4340  -13.6338   19.5163 O   0  0  0  0  0  0  0  0  0  0  0  0
   17.2240  -14.7000   21.2243 C   0  0  0  0  0  0  0  0  0  0  0  0
   15.8356  -14.4262   20.7504 C   0  0  0  0  0  0  0  0  0  0  0  0
   14.7736  -15.4078   21.1068 C   0  0  2  0  0  0  0  0  0  0  0  0
   13.5504  -14.8812   20.4449 N   0  0  0  0  0  0  0  0  0  0  0  0
   14.5041  -15.7240   22.4803 C   0  0  0  0  0  0  0  0  0  0  0  0
   15.4329  -16.4723   23.2191 O   0  0  0  0  0  0  0  0  0  0  0  0
   13.4703  -15.3741   23.0958 O   0  0  0  0  0  0  0  0  0  0  0  0
  2  3  1  0
  2  1  1  6
  3  4  1  0
  4  8  1  0
  5  6  1  0
  5  4  2  0
  6  7  1  0
  7  8  2  0
  9  2  1  0
 10  9  2  0
 11  9  1  0
 12 11  1  0
 13 14  1  0
 12 13  1  1
 14 18  1  0
 15 14  2  0
 15 16  1  0
 16 17  1  0
 18 17  2  0
 19 12  1  0
 19 27  1  0
 20 19  2  0
 22 21  1  0
 23 22  2  0
 24 22  1  0
 25 24  1  0
 26 27  1  0
 26 25  1  1
 28 29  1  0
 28 26  1  0
 30 28  2  0
M  END
$$$$
