HHQ.pdb
     RDKit          3D

 30 31  0  0  1  0  0  0  0  0999 V2000
    9.5839  -12.7436   20.2625 N   0  0  0  0  0  0  0  0  0  0  0  0
    8.6465  -13.7572   20.6869 C   0  0  1  0  0  0  0  0  0  0  0  0
    8.7973  -14.9962   19.7941 C   0  0  0  0  0  0  0  0  0  0  0  0
    8.3831  -14.6015   18.4147 C   0  0  0  0  0  0  0  0  0  0  0  0
    8.1801  -13.3009   17.9783 C   0  0  0  0  0  0  0  0  0  0  0  0
    7.8154  -13.3238   16.6835 N   0  0  0  0  0  0  0  0  0  0  0  0
    7.7843  -14.6199   16.2934 C   0  0  0  0  0  0  0  0  0  0  0  0
    8.1305  -15.3889   17.3515 N   0  0  0  0  0  0  0  0  0  0  0  0
    8.9152  -14.2173   22.0721 C   0  0  0  0  0  0  0  0  0  0  0  0
   10.0924  -14.1956   22.4863 O   0  0  0  0  0  0  0  0  0  0  0  0
    7.8501  -14.6685   22.8956 N   0  0  0  0  0  0  0  0  0  0  0  0
    8.0539  -15.0521   24.2869 C   0  0  1  0  0  0  0  0  0  0  0  0
    6.7590  -14.9775   25.0597 C   0  0  0  0  0  0  0  0  0  0  0  0
    6.6116  -13.6121   25.6082 C   0  0  0  0  0  0  0  0  0  0  0  0
    7.5595  -12.5893   25.5288 C   0  0  0  0  0  0  0  0  0  0  0  0
    7.0887  -11.4957   26.1315 N   0  0  0  0  0  0  0  0  0  0  0  0
    5.8712  -11.7875   26.5928 C   0  0  0  0  0  0  0  0  0  0  0  0
    5.5812  -13.0660   26.2775 N   0  0  0  0  0  0  0  0  0  0  0  0
    8.7090  -16.3918   24.3627 C   0  0  0  0  0  0  0  0  0  0  0  0
    8.2062  -17.4272   23.8621 O   0  0  0  0  0  0  0  0  0  0  0  0
   14.0205  -16.3624   23.7948 N   0  0  0  0  0  0  0  0  0  0  0  0
   13.1096  -16.7332   22.7838 C   0  0  0  0  0  0  0  0  0  0  0  0
   13.2914  -16.3972   21.5701 O   0  0  0  0  0  0  0  0  0  0  0  0
   11.9291  -17.5259   23.1155 C   0  0  0  0  0  0  0  0  0  0  0  0
   11.8778  -17.8593   24.5693 C   0  0  0  0  0  0  0  0  0  0  0  0
   10.5393  -17.9324   25.2186 C   0  0  2  0  0  0  0  0  0  0  0  0
    9.9585  -16.5786   25.0150 N   0  0  0  0  0  0  0  0  0  0  0  0
   10.4158  -18.3299   26.5918 C   0  0  0  0  0  0  0  0  0  0  0  0
   10.8203  -19.6143   26.9854 O   0  0  0  0  0  0  0  0  0  0  0  0
    9.9600  -17.5977   27.5008 O   0  0  0  0  0  0  0  0  0  0  0  0
  2  3  1  0
  2  1  1  6
  3  4  1  0
  4  8  1  0
  5  6  1  0
  5  4  2  0
  6  7  1  0
  7  8  2  0
  9  2  1  0
 10  9  2  0
 11  9  1  0
 12 11  1  0
 13 14  1  0
 12 13  1  1
 14 18  1  0
 15 14  2  0
 15 16  1  0
 16 17  1  0
 18 17  2  0
 19 12  1  0
 19 27  1  0
 20 19  2  0
 22 21  1  0
 23 22  2  0
 24 22  1  0
 25 24  1  0
 26 27  1  0
 26 25  1  1
 28 29  1  0
 28 26  1  0
 30 28  2  0
M  END
$$$$
