HHQ.pdb
     RDKit          3D

 30 31  0  0  1  0  0  0  0  0999 V2000
   13.1414  -16.4240   18.9684 N   0  0  0  0  0  0  0  0  0  0  0  0
   13.4517  -15.2153   19.6956 C   0  0  1  0  0  0  0  0  0  0  0  0
   13.5233  -14.0359   18.7164 C   0  0  0  0  0  0  0  0  0  0  0  0
   14.4902  -14.4103   17.6417 C   0  0  0  0  0  0  0  0  0  0  0  0
   15.7675  -14.9092   17.8487 C   0  0  0  0  0  0  0  0  0  0  0  0
   16.3501  -15.1333   16.6570 N   0  0  0  0  0  0  0  0  0  0  0  0
   15.4605  -14.7837   15.6981 C   0  0  0  0  0  0  0  0  0  0  0  0
   14.3336  -14.3457   16.3055 N   0  0  0  0  0  0  0  0  0  0  0  0
   12.3918  -14.8688   20.6751 C   0  0  0  0  0  0  0  0  0  0  0  0
   12.5418  -13.8456   21.3740 O   0  0  0  0  0  0  0  0  0  0  0  0
   11.2403  -15.6895   20.8038 N   0  0  0  0  0  0  0  0  0  0  0  0
   10.1866  -15.4021   21.7689 C   0  0  1  0  0  0  0  0  0  0  0  0
    8.8326  -15.7707   21.2115 C   0  0  0  0  0  0  0  0  0  0  0  0
    8.4638  -14.7866   20.1712 C   0  0  0  0  0  0  0  0  0  0  0  0
    8.3538  -15.0418   18.8024 C   0  0  0  0  0  0  0  0  0  0  0  0
    8.0029  -13.9227   18.1657 N   0  0  0  0  0  0  0  0  0  0  0  0
    7.8855  -12.9618   19.0838 C   0  0  0  0  0  0  0  0  0  0  0  0
    8.1636  -13.4819   20.2963 N   0  0  0  0  0  0  0  0  0  0  0  0
   10.4866  -16.0637   23.0735 C   0  0  0  0  0  0  0  0  0  0  0  0
   11.1967  -17.0942   23.1694 O   0  0  0  0  0  0  0  0  0  0  0  0
   10.0814  -14.5231   30.3224 N   0  0  0  0  0  0  0  0  0  0  0  0
    9.7820  -14.4518   28.9460 C   0  0  0  0  0  0  0  0  0  0  0  0
    9.2022  -13.4364   28.4441 O   0  0  0  0  0  0  0  0  0  0  0  0
   10.1431  -15.5541   28.0592 C   0  0  0  0  0  0  0  0  0  0  0  0
    9.9281  -15.2026   26.6248 C   0  0  0  0  0  0  0  0  0  0  0  0
   10.2675  -16.2284   25.5996 C   0  0  2  0  0  0  0  0  0  0  0  0
    9.9796  -15.5600   24.3027 N   0  0  0  0  0  0  0  0  0  0  0  0
    9.6607  -17.5281   25.6398 C   0  0  0  0  0  0  0  0  0  0  0  0
   10.2425  -18.5461   26.4101 O   0  0  0  0  0  0  0  0  0  0  0  0
    8.6164  -17.8394   25.0212 O   0  0  0  0  0  0  0  0  0  0  0  0
  2  3  1  0
  2  1  1  6
  3  4  1  0
  4  8  1  0
  5  6  1  0
  5  4  2  0
  6  7  1  0
  7  8  2  0
  9  2  1  0
 10  9  2  0
 11  9  1  0
 12 11  1  0
 13 14  1  0
 12 13  1  6
 14 18  1  0
 15 14  2  0
 15 16  1  0
 16 17  1  0
 18 17  2  0
 19 12  1  0
 19 27  1  0
 20 19  2  0
 22 21  1  0
 23 22  2  0
 24 22  1  0
 25 24  1  0
 26 27  1  0
 26 25  1  1
 28 29  1  0
 28 26  1  0
 30 28  2  0
M  END
$$$$
