HHQ.pdb
     RDKit          3D

 30 31  0  0  1  0  0  0  0  0999 V2000
   11.7136  -17.6746   16.1540 N   0  0  0  0  0  0  0  0  0  0  0  0
   10.8389  -18.0505   17.2401 C   0  0  1  0  0  0  0  0  0  0  0  0
   11.2944  -19.3972   17.8181 C   0  0  0  0  0  0  0  0  0  0  0  0
   11.7605  -20.2357   16.6737 C   0  0  0  0  0  0  0  0  0  0  0  0
   11.4643  -20.0079   15.3382 C   0  0  0  0  0  0  0  0  0  0  0  0
   12.0502  -20.9599   14.5896 N   0  0  0  0  0  0  0  0  0  0  0  0
   12.7133  -21.7875   15.4315 C   0  0  0  0  0  0  0  0  0  0  0  0
   12.5317  -21.3397   16.6954 N   0  0  0  0  0  0  0  0  0  0  0  0
   10.9005  -17.0825   18.3635 C   0  0  0  0  0  0  0  0  0  0  0  0
   12.0123  -16.6121   18.6806 O   0  0  0  0  0  0  0  0  0  0  0  0
    9.7163  -16.7092   19.0522 N   0  0  0  0  0  0  0  0  0  0  0  0
    9.7372  -15.8152   20.2032 C   0  0  1  0  0  0  0  0  0  0  0  0
    8.3582  -15.2678   20.4831 C   0  0  0  0  0  0  0  0  0  0  0  0
    7.9201  -14.4673   19.3195 C   0  0  0  0  0  0  0  0  0  0  0  0
    8.0976  -13.0915   19.1563 C   0  0  0  0  0  0  0  0  0  0  0  0
    7.5782  -12.7091   17.9881 N   0  0  0  0  0  0  0  0  0  0  0  0
    7.0751  -13.7962   17.4006 C   0  0  0  0  0  0  0  0  0  0  0  0
    7.2807  -14.8596   18.2036 N   0  0  0  0  0  0  0  0  0  0  0  0
   10.3485  -16.5021   21.3797 C   0  0  0  0  0  0  0  0  0  0  0  0
   10.1250  -17.7049   21.6604 O   0  0  0  0  0  0  0  0  0  0  0  0
   15.6759  -16.7690   22.2312 N   0  0  0  0  0  0  0  0  0  0  0  0
   15.5512  -16.9080   23.6292 C   0  0  0  0  0  0  0  0  0  0  0  0
   16.4942  -17.3880   24.3358 O   0  0  0  0  0  0  0  0  0  0  0  0
   14.3233  -16.4915   24.3006 C   0  0  0  0  0  0  0  0  0  0  0  0
   13.3209  -15.9525   23.3352 C   0  0  0  0  0  0  0  0  0  0  0  0
   11.9550  -16.5461   23.3477 C   0  0  2  0  0  0  0  0  0  0  0  0
   11.2324  -15.8268   22.2652 N   0  0  0  0  0  0  0  0  0  0  0  0
   11.1747  -16.5546   24.5520 C   0  0  0  0  0  0  0  0  0  0  0  0
   11.5133  -17.4280   25.5965 O   0  0  0  0  0  0  0  0  0  0  0  0
   10.1802  -15.8197   24.7543 O   0  0  0  0  0  0  0  0  0  0  0  0
  2  3  1  0
  2  1  1  6
  3  4  1  0
  4  8  1  0
  5  6  1  0
  5  4  2  0
  6  7  1  0
  7  8  2  0
  9  2  1  0
 10  9  2  0
 11  9  1  0
 12 11  1  0
 13 14  1  0
 12 13  1  1
 14 18  1  0
 15 14  2  0
 15 16  1  0
 16 17  1  0
 18 17  2  0
 19 12  1  0
 19 27  1  0
 20 19  2  0
 22 21  1  0
 23 22  2  0
 24 22  1  0
 25 24  1  0
 26 27  1  0
 26 25  1  1
 28 29  1  0
 28 26  1  0
 30 28  2  0
M  END
$$$$
