HHQ.pdb
     RDKit          3D

 30 31  0  0  1  0  0  0  0  0999 V2000
   11.2176  -17.4987   17.8501 N   0  0  0  0  0  0  0  0  0  0  0  0
   10.3596  -18.0739   18.8596 C   0  0  1  0  0  0  0  0  0  0  0  0
   10.8372  -19.4957   19.1841 C   0  0  0  0  0  0  0  0  0  0  0  0
   11.0338  -20.2046   17.8845 C   0  0  0  0  0  0  0  0  0  0  0  0
   10.1025  -20.2752   16.8594 C   0  0  0  0  0  0  0  0  0  0  0  0
   10.6194  -20.9920   15.8449 N   0  0  0  0  0  0  0  0  0  0  0  0
   11.8645  -21.3763   16.2125 C   0  0  0  0  0  0  0  0  0  0  0  0
   12.1076  -20.8935   17.4529 N   0  0  0  0  0  0  0  0  0  0  0  0
   10.4225  -17.3208   20.1370 C   0  0  0  0  0  0  0  0  0  0  0  0
   11.5447  -17.0191   20.5929 O   0  0  0  0  0  0  0  0  0  0  0  0
    9.2280  -16.9585   20.8137 N   0  0  0  0  0  0  0  0  0  0  0  0
    9.2403  -16.1859   22.0496 C   0  0  1  0  0  0  0  0  0  0  0  0
    8.0198  -15.3019   22.1424 C   0  0  0  0  0  0  0  0  0  0  0  0
    8.0918  -14.2800   21.0760 C   0  0  0  0  0  0  0  0  0  0  0  0
    7.3966  -14.3076   19.8648 C   0  0  0  0  0  0  0  0  0  0  0  0
    7.7040  -13.2247   19.1480 N   0  0  0  0  0  0  0  0  0  0  0  0
    8.5727  -12.5071   19.8625 C   0  0  0  0  0  0  0  0  0  0  0  0
    8.8082  -13.1432   21.0278 N   0  0  0  0  0  0  0  0  0  0  0  0
    9.4012  -17.0933   23.2245 C   0  0  0  0  0  0  0  0  0  0  0  0
    8.7444  -18.1537   23.3635 O   0  0  0  0  0  0  0  0  0  0  0  0
   14.8419  -18.4406   27.2590 N   0  0  0  0  0  0  0  0  0  0  0  0
   13.9211  -19.0998   26.4183 C   0  0  0  0  0  0  0  0  0  0  0  0
   14.3061  -19.9228   25.5275 O   0  0  0  0  0  0  0  0  0  0  0  0
   12.4894  -18.8513   26.5616 C   0  0  0  0  0  0  0  0  0  0  0  0
   11.9581  -18.0188   25.4428 C   0  0  0  0  0  0  0  0  0  0  0  0
   10.4980  -17.7253   25.4276 C   0  0  2  0  0  0  0  0  0  0  0  0
   10.3203  -16.8076   24.2710 N   0  0  0  0  0  0  0  0  0  0  0  0
    9.8485  -17.1959   26.5925 C   0  0  0  0  0  0  0  0  0  0  0  0
    9.7270  -17.9879   27.7441 O   0  0  0  0  0  0  0  0  0  0  0  0
    9.3637  -16.0429   26.6681 O   0  0  0  0  0  0  0  0  0  0  0  0
  2  3  1  0
  2  1  1  6
  3  4  1  0
  4  8  1  0
  5  6  1  0
  5  4  2  0
  6  7  1  0
  7  8  2  0
  9  2  1  0
 10  9  2  0
 11  9  1  0
 12 11  1  0
 13 14  1  0
 12 13  1  1
 14 18  1  0
 15 14  2  0
 15 16  1  0
 16 17  1  0
 18 17  2  0
 19 12  1  0
 19 27  1  0
 20 19  2  0
 22 21  1  0
 23 22  2  0
 24 22  1  0
 25 24  1  0
 26 27  1  0
 26 25  1  1
 28 29  1  0
 28 26  1  0
 30 28  2  0
M  END
$$$$
