HHQ.pdb
     RDKit          3D

 30 31  0  0  1  0  0  0  0  0999 V2000
    6.8913  -16.5282   18.9922 N   0  0  0  0  0  0  0  0  0  0  0  0
    7.7316  -15.9114   19.9920 C   0  0  1  0  0  0  0  0  0  0  0  0
    7.6472  -14.3851   19.8572 C   0  0  0  0  0  0  0  0  0  0  0  0
    8.1388  -14.0330   18.4918 C   0  0  0  0  0  0  0  0  0  0  0  0
    7.3369  -13.6980   17.4111 C   0  0  0  0  0  0  0  0  0  0  0  0
    8.1186  -13.4422   16.3465 N   0  0  0  0  0  0  0  0  0  0  0  0
    9.4041  -13.6104   16.7370 C   0  0  0  0  0  0  0  0  0  0  0  0
    9.4066  -13.9692   18.0417 N   0  0  0  0  0  0  0  0  0  0  0  0
    7.2773  -16.2252   21.3697 C   0  0  0  0  0  0  0  0  0  0  0  0
    6.1231  -15.8881   21.7047 O   0  0  0  0  0  0  0  0  0  0  0  0
    8.1443  -16.8929   22.2745 N   0  0  0  0  0  0  0  0  0  0  0  0
    7.7478  -17.2046   23.6420 C   0  0  1  0  0  0  0  0  0  0  0  0
    7.8071  -18.6924   23.8923 C   0  0  0  0  0  0  0  0  0  0  0  0
    6.6907  -19.3400   23.1706 C   0  0  0  0  0  0  0  0  0  0  0  0
    5.6944  -18.6851   22.4429 C   0  0  0  0  0  0  0  0  0  0  0  0
    4.8534  -19.5838   21.9271 N   0  0  0  0  0  0  0  0  0  0  0  0
    5.2808  -20.7908   22.3021 C   0  0  0  0  0  0  0  0  0  0  0  0
    6.3908  -20.6455   23.0535 N   0  0  0  0  0  0  0  0  0  0  0  0
    8.5626  -16.4114   24.6097 C   0  0  0  0  0  0  0  0  0  0  0  0
    9.8162  -16.3641   24.5693 O   0  0  0  0  0  0  0  0  0  0  0  0
    6.8618  -10.9985   27.5637 N   0  0  0  0  0  0  0  0  0  0  0  0
    6.2864  -11.9728   26.7217 C   0  0  0  0  0  0  0  0  0  0  0  0
    5.0369  -11.9894   26.4822 O   0  0  0  0  0  0  0  0  0  0  0  0
    7.1269  -12.9896   26.0958 C   0  0  0  0  0  0  0  0  0  0  0  0
    7.8447  -13.8149   27.1112 C   0  0  0  0  0  0  0  0  0  0  0  0
    8.7736  -14.8697   26.6184 C   0  0  2  0  0  0  0  0  0  0  0  0
    7.9601  -15.6514   25.6494 N   0  0  0  0  0  0  0  0  0  0  0  0
    9.4353  -15.7475   27.5408 C   0  0  0  0  0  0  0  0  0  0  0  0
   10.5743  -15.3049   28.2302 O   0  0  0  0  0  0  0  0  0  0  0  0
    9.0661  -16.9187   27.7899 O   0  0  0  0  0  0  0  0  0  0  0  0
  2  3  1  0
  2  1  1  6
  3  4  1  0
  4  8  1  0
  5  6  1  0
  5  4  2  0
  6  7  1  0
  7  8  2  0
  9  2  1  0
 10  9  2  0
 11  9  1  0
 12 11  1  0
 13 14  1  0
 12 13  1  1
 14 18  1  0
 15 14  2  0
 15 16  1  0
 16 17  1  0
 18 17  2  0
 19 12  1  0
 19 27  1  0
 20 19  2  0
 22 21  1  0
 23 22  2  0
 24 22  1  0
 25 24  1  0
 26 27  1  0
 26 25  1  1
 28 29  1  0
 28 26  1  0
 30 28  2  0
M  END
$$$$
