HHQ.pdb
     RDKit          3D

 30 31  0  0  1  0  0  0  0  0999 V2000
    9.6139  -18.0742   18.2308 N   0  0  0  0  0  0  0  0  0  0  0  0
   10.8671  -17.4692   18.6177 C   0  0  1  0  0  0  0  0  0  0  0  0
   11.3078  -16.4741   17.5357 C   0  0  0  0  0  0  0  0  0  0  0  0
   11.5965  -17.2619   16.3004 C   0  0  0  0  0  0  0  0  0  0  0  0
   11.5224  -18.6425   16.1926 C   0  0  0  0  0  0  0  0  0  0  0  0
   11.8488  -19.0034   14.9383 N   0  0  0  0  0  0  0  0  0  0  0  0
   12.1286  -17.8715   14.2500 C   0  0  0  0  0  0  0  0  0  0  0  0
   11.9727  -16.8186   15.0854 N   0  0  0  0  0  0  0  0  0  0  0  0
   10.7407  -16.6816   19.8693 C   0  0  0  0  0  0  0  0  0  0  0  0
   11.7519  -16.0932   20.3044 O   0  0  0  0  0  0  0  0  0  0  0  0
    9.4943  -16.6076   20.5454 N   0  0  0  0  0  0  0  0  0  0  0  0
    9.3336  -15.8814   21.7989 C   0  0  1  0  0  0  0  0  0  0  0  0
    8.0247  -15.1289   21.8195 C   0  0  0  0  0  0  0  0  0  0  0  0
    8.0125  -14.1673   20.6962 C   0  0  0  0  0  0  0  0  0  0  0  0
    7.1302  -14.1815   19.6134 C   0  0  0  0  0  0  0  0  0  0  0  0
    7.4114  -13.1664   18.7941 N   0  0  0  0  0  0  0  0  0  0  0  0
    8.4444  -12.5050   19.3188 C   0  0  0  0  0  0  0  0  0  0  0  0
    8.8091  -13.1083   20.4682 N   0  0  0  0  0  0  0  0  0  0  0  0
    9.4984  -16.8085   22.9577 C   0  0  0  0  0  0  0  0  0  0  0  0
    9.0066  -17.9630   22.9842 O   0  0  0  0  0  0  0  0  0  0  0  0
   13.3099  -21.1279   24.3277 N   0  0  0  0  0  0  0  0  0  0  0  0
   13.4301  -19.8802   24.9743 C   0  0  0  0  0  0  0  0  0  0  0  0
   14.5470  -19.2751   25.0480 O   0  0  0  0  0  0  0  0  0  0  0  0
   12.2576  -19.2489   25.5730 C   0  0  0  0  0  0  0  0  0  0  0  0
   11.7109  -18.1640   24.7061 C   0  0  0  0  0  0  0  0  0  0  0  0
   10.5273  -17.4081   25.2023 C   0  0  2  0  0  0  0  0  0  0  0  0
   10.2321  -16.4352   24.1170 N   0  0  0  0  0  0  0  0  0  0  0  0
   10.5668  -16.7443   26.4739 C   0  0  0  0  0  0  0  0  0  0  0  0
   10.6048  -17.5009   27.6549 O   0  0  0  0  0  0  0  0  0  0  0  0
   10.5702  -15.5000   26.6213 O   0  0  0  0  0  0  0  0  0  0  0  0
  2  3  1  0
  2  1  1  6
  3  4  1  0
  4  8  1  0
  5  6  1  0
  5  4  2  0
  6  7  1  0
  7  8  2  0
  9  2  1  0
 10  9  2  0
 11  9  1  0
 12 11  1  0
 13 14  1  0
 12 13  1  6
 14 18  1  0
 15 14  2  0
 15 16  1  0
 16 17  1  0
 18 17  2  0
 19 12  1  0
 19 27  1  0
 20 19  2  0
 22 21  1  0
 23 22  2  0
 24 22  1  0
 25 24  1  0
 26 27  1  0
 26 25  1  6
 28 29  1  0
 28 26  1  0
 30 28  2  0
M  END
$$$$
