HHQ.pdb
     RDKit          3D

 30 31  0  0  1  0  0  0  0  0999 V2000
   12.2398  -16.5903   12.5403 N   0  0  0  0  0  0  0  0  0  0  0  0
   11.5880  -17.2708   13.6350 C   0  0  1  0  0  0  0  0  0  0  0  0
   12.4711  -18.4320   14.1111 C   0  0  0  0  0  0  0  0  0  0  0  0
   12.4877  -19.4520   13.0205 C   0  0  0  0  0  0  0  0  0  0  0  0
   11.4196  -20.2597   12.6600 C   0  0  0  0  0  0  0  0  0  0  0  0
   11.7943  -21.0550   11.6415 N   0  0  0  0  0  0  0  0  0  0  0  0
   13.0842  -20.7627   11.3517 C   0  0  0  0  0  0  0  0  0  0  0  0
   13.4970  -19.7880   12.1943 N   0  0  0  0  0  0  0  0  0  0  0  0
   11.4094  -16.3847   14.8122 C   0  0  0  0  0  0  0  0  0  0  0  0
   12.3742  -15.6820   15.1773 O   0  0  0  0  0  0  0  0  0  0  0  0
   10.1662  -16.3468   15.4973 N   0  0  0  0  0  0  0  0  0  0  0  0
    9.9079  -15.4114   16.5849 C   0  0  1  0  0  0  0  0  0  0  0  0
    8.4302  -15.3303   16.8838 C   0  0  0  0  0  0  0  0  0  0  0  0
    8.2151  -14.3225   17.9443 C   0  0  0  0  0  0  0  0  0  0  0  0
    7.9524  -14.5904   19.2898 C   0  0  0  0  0  0  0  0  0  0  0  0
    7.8141  -13.4421   19.9556 N   0  0  0  0  0  0  0  0  0  0  0  0
    7.9800  -12.4504   19.0787 C   0  0  0  0  0  0  0  0  0  0  0  0
    8.2224  -12.9804   17.8628 N   0  0  0  0  0  0  0  0  0  0  0  0
   10.7318  -15.7667   17.7784 C   0  0  0  0  0  0  0  0  0  0  0  0
   10.8762  -16.9463   18.1821 O   0  0  0  0  0  0  0  0  0  0  0  0
   16.0174  -13.6287   18.1532 N   0  0  0  0  0  0  0  0  0  0  0  0
   16.0559  -14.1510   19.4627 C   0  0  0  0  0  0  0  0  0  0  0  0
   17.1288  -14.1505   20.1468 O   0  0  0  0  0  0  0  0  0  0  0  0
   14.8471  -14.7030   20.0676 C   0  0  0  0  0  0  0  0  0  0  0  0
   13.6534  -14.5096   19.1930 C   0  0  0  0  0  0  0  0  0  0  0  0
   12.3728  -15.1422   19.6151 C   0  0  2  0  0  0  0  0  0  0  0  0
   11.4118  -14.7774   18.5404 N   0  0  0  0  0  0  0  0  0  0  0  0
   11.8119  -14.8620   20.9058 C   0  0  0  0  0  0  0  0  0  0  0  0
   12.4498  -15.3369   22.0617 O   0  0  0  0  0  0  0  0  0  0  0  0
   10.7615  -14.2046   21.0919 O   0  0  0  0  0  0  0  0  0  0  0  0
  2  3  1  0
  2  1  1  6
  3  4  1  0
  4  8  1  0
  5  6  1  0
  5  4  2  0
  6  7  1  0
  7  8  2  0
  9  2  1  0
 10  9  2  0
 11  9  1  0
 12 11  1  0
 13 14  1  0
 12 13  1  1
 14 18  1  0
 15 14  2  0
 15 16  1  0
 16 17  1  0
 18 17  2  0
 19 12  1  0
 19 27  1  0
 20 19  2  0
 22 21  1  0
 23 22  2  0
 24 22  1  0
 25 24  1  0
 26 27  1  0
 26 25  1  6
 28 29  1  0
 28 26  1  0
 30 28  2  0
M  END
$$$$
