HHQ.pdb
     RDKit          3D

 30 31  0  0  1  0  0  0  0  0999 V2000
    9.3298  -15.9384   19.2989 N   0  0  0  0  0  0  0  0  0  0  0  0
    8.3108  -15.0728   19.8453 C   0  0  1  0  0  0  0  0  0  0  0  0
    7.1398  -14.9783   18.8581 C   0  0  0  0  0  0  0  0  0  0  0  0
    7.6987  -14.5247   17.5497 C   0  0  0  0  0  0  0  0  0  0  0  0
    9.0448  -14.3392   17.2724 C   0  0  0  0  0  0  0  0  0  0  0  0
    9.1783  -13.9274   15.9986 N   0  0  0  0  0  0  0  0  0  0  0  0
    7.9364  -13.8493   15.4650 C   0  0  0  0  0  0  0  0  0  0  0  0
    7.0440  -14.2140   16.4144 N   0  0  0  0  0  0  0  0  0  0  0  0
    7.7403  -15.6126   21.1047 C   0  0  0  0  0  0  0  0  0  0  0  0
    6.8558  -14.9512   21.6863 O   0  0  0  0  0  0  0  0  0  0  0  0
    8.1984  -16.8521   21.6244 N   0  0  0  0  0  0  0  0  0  0  0  0
    7.8220  -17.3237   22.9511 C   0  0  1  0  0  0  0  0  0  0  0  0
    8.1254  -18.7949   23.1041 C   0  0  0  0  0  0  0  0  0  0  0  0
    7.7422  -19.2191   24.4679 C   0  0  0  0  0  0  0  0  0  0  0  0
    7.1404  -18.4151   25.4386 C   0  0  0  0  0  0  0  0  0  0  0  0
    6.9384  -19.1288   26.5480 N   0  0  0  0  0  0  0  0  0  0  0  0
    7.3917  -20.3621   26.3166 C   0  0  0  0  0  0  0  0  0  0  0  0
    7.8778  -20.4186   25.0602 N   0  0  0  0  0  0  0  0  0  0  0  0
    8.4630  -16.4776   24.0012 C   0  0  0  0  0  0  0  0  0  0  0  0
    9.6928  -16.2271   24.0199 O   0  0  0  0  0  0  0  0  0  0  0  0
    5.1854  -12.1109   26.4659 N   0  0  0  0  0  0  0  0  0  0  0  0
    6.4930  -11.5889   26.5499 C   0  0  0  0  0  0  0  0  0  0  0  0
    6.7020  -10.3463   26.7271 O   0  0  0  0  0  0  0  0  0  0  0  0
    7.6458  -12.4782   26.4403 C   0  0  0  0  0  0  0  0  0  0  0  0
    7.2331  -13.8890   26.1826 C   0  0  0  0  0  0  0  0  0  0  0  0
    8.3069  -14.9029   25.9892 C   0  0  2  0  0  0  0  0  0  0  0  0
    7.7096  -15.8966   25.0578 N   0  0  0  0  0  0  0  0  0  0  0  0
    8.8969  -15.5644   27.1176 C   0  0  0  0  0  0  0  0  0  0  0  0
    9.8849  -14.9122   27.8705 O   0  0  0  0  0  0  0  0  0  0  0  0
    8.5911  -16.7181   27.4992 O   0  0  0  0  0  0  0  0  0  0  0  0
  2  3  1  0
  2  1  1  6
  3  4  1  0
  4  8  1  0
  5  6  1  0
  5  4  2  0
  6  7  1  0
  7  8  2  0
  9  2  1  0
 10  9  2  0
 11  9  1  0
 12 11  1  0
 13 14  1  0
 12 13  1  1
 14 18  1  0
 15 14  2  0
 15 16  1  0
 16 17  1  0
 18 17  2  0
 19 12  1  0
 19 27  1  0
 20 19  2  0
 22 21  1  0
 23 22  2  0
 24 22  1  0
 25 24  1  0
 26 27  1  0
 26 25  1  1
 28 29  1  0
 28 26  1  0
 30 28  2  0
M  END
$$$$
