HHQ.pdb
     RDKit          3D

 30 31  0  0  1  0  0  0  0  0999 V2000
    9.3315  -15.7985   18.9591 N   0  0  0  0  0  0  0  0  0  0  0  0
    8.2261  -15.0055   19.4444 C   0  0  1  0  0  0  0  0  0  0  0  0
    7.0536  -15.1097   18.4599 C   0  0  0  0  0  0  0  0  0  0  0  0
    7.5415  -14.6196   17.1363 C   0  0  0  0  0  0  0  0  0  0  0  0
    8.8392  -14.2179   16.8573 C   0  0  0  0  0  0  0  0  0  0  0  0
    8.9147  -13.8404   15.5682 N   0  0  0  0  0  0  0  0  0  0  0  0
    7.6837  -13.9972   15.0265 C   0  0  0  0  0  0  0  0  0  0  0  0
    6.8561  -14.4710   15.9864 N   0  0  0  0  0  0  0  0  0  0  0  0
    7.7129  -15.5048   20.7445 C   0  0  0  0  0  0  0  0  0  0  0  0
    6.7671  -14.8936   21.2829 O   0  0  0  0  0  0  0  0  0  0  0  0
    8.2925  -16.6509   21.3501 N   0  0  0  0  0  0  0  0  0  0  0  0
    7.8917  -17.1164   22.6719 C   0  0  1  0  0  0  0  0  0  0  0  0
    8.1665  -18.5929   22.8274 C   0  0  0  0  0  0  0  0  0  0  0  0
    7.7819  -19.0058   24.1943 C   0  0  0  0  0  0  0  0  0  0  0  0
    8.6597  -19.2975   25.2409 C   0  0  0  0  0  0  0  0  0  0  0  0
    7.9630  -19.6341   26.3282 N   0  0  0  0  0  0  0  0  0  0  0  0
    6.6693  -19.5665   26.0093 C   0  0  0  0  0  0  0  0  0  0  0  0
    6.5578  -19.1870   24.7203 N   0  0  0  0  0  0  0  0  0  0  0  0
    8.5353  -16.2826   23.7303 C   0  0  0  0  0  0  0  0  0  0  0  0
    9.7484  -15.9616   23.7033 O   0  0  0  0  0  0  0  0  0  0  0  0
    5.3390  -12.2028   26.7420 N   0  0  0  0  0  0  0  0  0  0  0  0
    6.5714  -11.6305   26.3637 C   0  0  0  0  0  0  0  0  0  0  0  0
    6.7130  -10.3707   26.2541 O   0  0  0  0  0  0  0  0  0  0  0  0
    7.7243  -12.4849   26.0938 C   0  0  0  0  0  0  0  0  0  0  0  0
    7.3805  -13.9320   26.2160 C   0  0  0  0  0  0  0  0  0  0  0  0
    8.4351  -14.9277   25.8775 C   0  0  2  0  0  0  0  0  0  0  0  0
    7.8036  -15.7951   24.8477 N   0  0  0  0  0  0  0  0  0  0  0  0
    9.0398  -15.7271   26.9044 C   0  0  0  0  0  0  0  0  0  0  0  0
   10.0182  -15.1667   27.7393 O   0  0  0  0  0  0  0  0  0  0  0  0
    8.7555  -16.9274   27.1243 O   0  0  0  0  0  0  0  0  0  0  0  0
  2  3  1  0
  2  1  1  6
  3  4  1  0
  4  8  1  0
  5  6  1  0
  5  4  2  0
  6  7  1  0
  7  8  2  0
  9  2  1  0
 10  9  2  0
 11  9  1  0
 12 11  1  0
 13 14  1  0
 12 13  1  1
 14 18  1  0
 15 14  2  0
 15 16  1  0
 16 17  1  0
 18 17  2  0
 19 12  1  0
 19 27  1  0
 20 19  2  0
 22 21  1  0
 23 22  2  0
 24 22  1  0
 25 24  1  0
 26 27  1  0
 26 25  1  1
 28 29  1  0
 28 26  1  0
 30 28  2  0
M  END
$$$$
