HHQ.pdb
     RDKit          3D

 30 31  0  0  1  0  0  0  0  0999 V2000
   48.9726  -29.6685    2.0622 N   0  0  0  0  0  0  0  0  0  0  0  0
   49.9006  -30.6331    1.5195 C   0  0  1  0  0  0  0  0  0  0  0  0
   50.4350  -30.1245    0.1738 C   0  0  0  0  0  0  0  0  0  0  0  0
   49.3723  -30.3697   -0.8462 C   0  0  0  0  0  0  0  0  0  0  0  0
   49.0827  -31.5960   -1.4254 C   0  0  0  0  0  0  0  0  0  0  0  0
   48.0696  -31.4419   -2.2971 N   0  0  0  0  0  0  0  0  0  0  0  0
   47.7132  -30.1358   -2.2785 C   0  0  0  0  0  0  0  0  0  0  0  0
   48.5100  -29.4922   -1.3944 N   0  0  0  0  0  0  0  0  0  0  0  0
   51.0896  -30.8107    2.3899 C   0  0  0  0  0  0  0  0  0  0  0  0
   51.7607  -31.8564    2.2710 O   0  0  0  0  0  0  0  0  0  0  0  0
   51.4439  -29.8079    3.3307 N   0  0  0  0  0  0  0  0  0  0  0  0
   51.9057  -30.1331    4.6743 C   0  0  1  0  0  0  0  0  0  0  0  0
   52.9123  -29.1165    5.1569 C   0  0  0  0  0  0  0  0  0  0  0  0
   53.3009  -29.4545    6.5431 C   0  0  0  0  0  0  0  0  0  0  0  0
   52.6082  -29.0927    7.7008 C   0  0  0  0  0  0  0  0  0  0  0  0
   53.2473  -29.5684    8.7714 N   0  0  0  0  0  0  0  0  0  0  0  0
   54.3253  -30.2219    8.3343 C   0  0  0  0  0  0  0  0  0  0  0  0
   54.3594  -30.1541    6.9882 N   0  0  0  0  0  0  0  0  0  0  0  0
   50.7418  -30.2931    5.5959 C   0  0  0  0  0  0  0  0  0  0  0  0
   50.1721  -31.3942    5.7918 O   0  0  0  0  0  0  0  0  0  0  0  0
   45.8912  -28.7794    5.8814 N   0  0  0  0  0  0  0  0  0  0  0  0
   46.4608  -29.9982    5.4582 C   0  0  0  0  0  0  0  0  0  0  0  0
   46.5347  -30.3043    4.2253 O   0  0  0  0  0  0  0  0  0  0  0  0
   46.9893  -30.9406    6.4404 C   0  0  0  0  0  0  0  0  0  0  0  0
   48.4209  -30.6632    6.7580 C   0  0  0  0  0  0  0  0  0  0  0  0
   48.8366  -29.2408    6.9071 C   0  0  2  0  0  0  0  0  0  0  0  0
   50.2009  -29.1937    6.3171 N   0  0  0  0  0  0  0  0  0  0  0  0
   48.8251  -28.6090    8.1954 C   0  0  0  0  0  0  0  0  0  0  0  0
   48.3075  -29.2952    9.3043 O   0  0  0  0  0  0  0  0  0  0  0  0
   49.2548  -27.4534    8.4192 O   0  0  0  0  0  0  0  0  0  0  0  0
  2  3  1  0
  2  1  1  1
  3  4  1  0
  4  8  1  0
  5  6  1  0
  5  4  2  0
  6  7  1  0
  7  8  2  0
  9  2  1  0
 10  9  2  0
 11  9  1  0
 12 11  1  0
 13 14  1  0
 12 13  1  1
 14 18  1  0
 15 14  2  0
 15 16  1  0
 16 17  1  0
 18 17  2  0
 19 12  1  0
 19 27  1  0
 20 19  2  0
 22 21  1  0
 23 22  2  0
 24 22  1  0
 25 24  1  0
 26 27  1  0
 26 25  1  1
 28 29  1  0
 28 26  1  0
 30 28  2  0
M  END
$$$$
