HHQ.pdb
     RDKit          3D

 30 31  0  0  1  0  0  0  0  0999 V2000
    7.7010  -15.8586   21.2536 N   0  0  0  0  0  0  0  0  0  0  0  0
    9.0387  -15.4220   21.5792 C   0  0  1  0  0  0  0  0  0  0  0  0
    9.2119  -13.9556   21.1610 C   0  0  0  0  0  0  0  0  0  0  0  0
    8.6514  -13.8185   19.7836 C   0  0  0  0  0  0  0  0  0  0  0  0
    8.0325  -14.8296   19.0641 C   0  0  0  0  0  0  0  0  0  0  0  0
    7.6542  -14.3482   17.8661 N   0  0  0  0  0  0  0  0  0  0  0  0
    8.0245  -13.0468   17.8164 C   0  0  0  0  0  0  0  0  0  0  0  0
    8.6295  -12.7338   18.9855 N   0  0  0  0  0  0  0  0  0  0  0  0
    9.2962  -15.4628   23.0403 C   0  0  0  0  0  0  0  0  0  0  0  0
   10.4192  -15.1090   23.4547 O   0  0  0  0  0  0  0  0  0  0  0  0
    8.2812  -15.8956   23.9340 N   0  0  0  0  0  0  0  0  0  0  0  0
    8.5093  -16.0134   25.3687 C   0  0  1  0  0  0  0  0  0  0  0  0
    7.2867  -15.5844   26.1439 C   0  0  0  0  0  0  0  0  0  0  0  0
    7.1783  -14.1109   26.0818 C   0  0  0  0  0  0  0  0  0  0  0  0
    6.1842  -13.3885   25.4178 C   0  0  0  0  0  0  0  0  0  0  0  0
    6.4017  -12.0812   25.5740 N   0  0  0  0  0  0  0  0  0  0  0  0
    7.5023  -11.9460   26.3160 C   0  0  0  0  0  0  0  0  0  0  0  0
    7.9729  -13.1714   26.6239 N   0  0  0  0  0  0  0  0  0  0  0  0
    8.9672  -17.3937   25.7073 C   0  0  0  0  0  0  0  0  0  0  0  0
    8.4440  -18.4256   25.2206 O   0  0  0  0  0  0  0  0  0  0  0  0
   13.5130  -19.3132   23.8328 N   0  0  0  0  0  0  0  0  0  0  0  0
   13.4983  -20.3507   24.7882 C   0  0  0  0  0  0  0  0  0  0  0  0
   14.3643  -21.2828   24.7700 O   0  0  0  0  0  0  0  0  0  0  0  0
   12.4791  -20.3701   25.8336 C   0  0  0  0  0  0  0  0  0  0  0  0
   11.5971  -19.1680   25.7681 C   0  0  0  0  0  0  0  0  0  0  0  0
   10.5838  -18.9902   26.8450 C   0  0  2  0  0  0  0  0  0  0  0  0
   10.0379  -17.6264   26.6135 N   0  0  0  0  0  0  0  0  0  0  0  0
   10.9472  -19.1577   28.2231 C   0  0  0  0  0  0  0  0  0  0  0  0
   10.8945  -18.0612   29.0967 O   0  0  0  0  0  0  0  0  0  0  0  0
   11.3211  -20.2418   28.7281 O   0  0  0  0  0  0  0  0  0  0  0  0
  2  3  1  0
  2  1  1  1
  3  4  1  0
  4  8  1  0
  5  6  1  0
  5  4  2  0
  6  7  1  0
  7  8  2  0
  9  2  1  0
 10  9  2  0
 11  9  1  0
 12 11  1  0
 13 14  1  0
 12 13  1  1
 14 18  1  0
 15 14  2  0
 15 16  1  0
 16 17  1  0
 18 17  2  0
 19 12  1  0
 19 27  1  0
 20 19  2  0
 22 21  1  0
 23 22  2  0
 24 22  1  0
 25 24  1  0
 26 27  1  0
 26 25  1  6
 28 29  1  0
 28 26  1  0
 30 28  2  0
M  END
$$$$
