HHQ.pdb
     RDKit          3D

 30 31  0  0  1  0  0  0  0  0999 V2000
   14.5855  -13.6156   18.3177 N   0  0  0  0  0  0  0  0  0  0  0  0
   13.9004  -14.8279   18.7012 C   0  0  1  0  0  0  0  0  0  0  0  0
   14.9279  -15.8676   19.1684 C   0  0  0  0  0  0  0  0  0  0  0  0
   15.5742  -16.4320   17.9462 C   0  0  0  0  0  0  0  0  0  0  0  0
   15.4303  -15.9353   16.6594 C   0  0  0  0  0  0  0  0  0  0  0  0
   16.1536  -16.6909   15.8133 N   0  0  0  0  0  0  0  0  0  0  0  0
   16.7536  -17.6590   16.5454 C   0  0  0  0  0  0  0  0  0  0  0  0
   16.3960  -17.4939   17.8398 N   0  0  0  0  0  0  0  0  0  0  0  0
   12.9882  -14.6102   19.8516 C   0  0  0  0  0  0  0  0  0  0  0  0
   13.3706  -13.8680   20.7795 O   0  0  0  0  0  0  0  0  0  0  0  0
   11.7145  -15.2369   19.8835 N   0  0  0  0  0  0  0  0  0  0  0  0
   10.7882  -15.0555   20.9941 C   0  0  1  0  0  0  0  0  0  0  0  0
    9.4095  -15.5522   20.6301 C   0  0  0  0  0  0  0  0  0  0  0  0
    8.7431  -14.5313   19.7932 C   0  0  0  0  0  0  0  0  0  0  0  0
    9.3050  -13.3260   19.3660 C   0  0  0  0  0  0  0  0  0  0  0  0
    8.4174  -12.6552   18.6290 N   0  0  0  0  0  0  0  0  0  0  0  0
    7.3075  -13.3934   18.5720 C   0  0  0  0  0  0  0  0  0  0  0  0
    7.5023  -14.5274   19.2749 N   0  0  0  0  0  0  0  0  0  0  0  0
   11.3347  -15.6883   22.2313 C   0  0  0  0  0  0  0  0  0  0  0  0
   12.2862  -16.5067   22.2167 O   0  0  0  0  0  0  0  0  0  0  0  0
    9.5978  -13.7863   27.8640 N   0  0  0  0  0  0  0  0  0  0  0  0
   10.5427  -14.7615   28.2455 C   0  0  0  0  0  0  0  0  0  0  0  0
   10.9527  -14.8553   29.4463 O   0  0  0  0  0  0  0  0  0  0  0  0
   11.0693  -15.6982   27.2568 C   0  0  0  0  0  0  0  0  0  0  0  0
   10.7456  -15.2715   25.8638 C   0  0  0  0  0  0  0  0  0  0  0  0
   11.3096  -16.0735   24.7427 C   0  0  2  0  0  0  0  0  0  0  0  0
   10.8037  -15.3984   23.5180 N   0  0  0  0  0  0  0  0  0  0  0  0
   11.0770  -17.4875   24.6685 C   0  0  0  0  0  0  0  0  0  0  0  0
   12.0494  -18.3804   25.1435 O   0  0  0  0  0  0  0  0  0  0  0  0
   10.0395  -18.0088   24.1974 O   0  0  0  0  0  0  0  0  0  0  0  0
  2  3  1  0
  2  1  1  1
  3  4  1  0
  4  8  1  0
  5  6  1  0
  5  4  2  0
  6  7  1  0
  7  8  2  0
  9  2  1  0
 10  9  2  0
 11  9  1  0
 12 11  1  0
 13 14  1  0
 12 13  1  6
 14 18  1  0
 15 14  2  0
 15 16  1  0
 16 17  1  0
 18 17  2  0
 19 12  1  0
 19 27  1  0
 20 19  2  0
 22 21  1  0
 23 22  2  0
 24 22  1  0
 25 24  1  0
 26 27  1  0
 26 25  1  1
 28 29  1  0
 28 26  1  0
 30 28  2  0
M  END
$$$$
