HHQ.pdb
     RDKit          3D

 30 31  0  0  1  0  0  0  0  0999 V2000
   11.8173  -16.4328   14.3619 N   0  0  0  0  0  0  0  0  0  0  0  0
   13.0187  -16.5887   15.1484 C   0  0  1  0  0  0  0  0  0  0  0  0
   13.6886  -15.2202   15.3316 C   0  0  0  0  0  0  0  0  0  0  0  0
   14.4565  -14.9321   14.0836 C   0  0  0  0  0  0  0  0  0  0  0  0
   14.7976  -15.8660   13.1169 C   0  0  0  0  0  0  0  0  0  0  0  0
   15.4856  -15.2526   12.1369 N   0  0  0  0  0  0  0  0  0  0  0  0
   15.5851  -13.9437   12.4687 C   0  0  0  0  0  0  0  0  0  0  0  0
   14.9571  -13.7583   13.6528 N   0  0  0  0  0  0  0  0  0  0  0  0
   12.7268  -17.0865   16.5158 C   0  0  0  0  0  0  0  0  0  0  0  0
   11.6369  -16.7770   17.0394 O   0  0  0  0  0  0  0  0  0  0  0  0
   13.6729  -17.8942   17.2004 N   0  0  0  0  0  0  0  0  0  0  0  0
   13.4332  -18.3973   18.5472 C   0  0  1  0  0  0  0  0  0  0  0  0
   14.0052  -19.7849   18.7117 C   0  0  0  0  0  0  0  0  0  0  0  0
   13.1342  -20.7448   17.9998 C   0  0  0  0  0  0  0  0  0  0  0  0
   11.9849  -21.3484   18.5154 C   0  0  0  0  0  0  0  0  0  0  0  0
   11.4529  -22.1557   17.5956 N   0  0  0  0  0  0  0  0  0  0  0  0
   12.2254  -22.0868   16.5100 C   0  0  0  0  0  0  0  0  0  0  0  0
   13.2418  -21.2348   16.7523 N   0  0  0  0  0  0  0  0  0  0  0  0
   13.9432  -17.4258   19.5599 C   0  0  0  0  0  0  0  0  0  0  0  0
   14.9028  -16.6480   19.3376 O   0  0  0  0  0  0  0  0  0  0  0  0
   10.2375  -15.1684   23.7395 N   0  0  0  0  0  0  0  0  0  0  0  0
   11.1016  -15.9864   24.4968 C   0  0  0  0  0  0  0  0  0  0  0  0
   10.7889  -16.3798   25.6658 O   0  0  0  0  0  0  0  0  0  0  0  0
   12.3850  -16.4077   23.9425 C   0  0  0  0  0  0  0  0  0  0  0  0
   12.5808  -15.8991   22.5531 C   0  0  0  0  0  0  0  0  0  0  0  0
   13.8223  -16.3003   21.8348 C   0  0  2  0  0  0  0  0  0  0  0  0
   13.3653  -17.3214   20.8548 N   0  0  0  0  0  0  0  0  0  0  0  0
   14.9633  -16.7782   22.5619 C   0  0  0  0  0  0  0  0  0  0  0  0
   15.8104  -15.8660   23.2089 O   0  0  0  0  0  0  0  0  0  0  0  0
   15.2763  -17.9867   22.6702 O   0  0  0  0  0  0  0  0  0  0  0  0
  2  3  1  0
  2  1  1  6
  3  4  1  0
  4  8  1  0
  5  6  1  0
  5  4  2  0
  6  7  1  0
  7  8  2  0
  9  2  1  0
 10  9  2  0
 11  9  1  0
 12 11  1  0
 13 14  1  0
 12 13  1  6
 14 18  1  0
 15 14  2  0
 15 16  1  0
 16 17  1  0
 18 17  2  0
 19 12  1  0
 19 27  1  0
 20 19  2  0
 22 21  1  0
 23 22  2  0
 24 22  1  0
 25 24  1  0
 26 27  1  0
 26 25  1  1
 28 29  1  0
 28 26  1  0
 30 28  2  0
M  END
$$$$
