HHQ.pdb
     RDKit          3D

 30 31  0  0  1  0  0  0  0  0999 V2000
    5.3918  -19.2047   20.3806 N   0  0  0  0  0  0  0  0  0  0  0  0
    5.1918  -17.9676   21.0988 C   0  0  1  0  0  0  0  0  0  0  0  0
    4.3773  -18.2425   22.3700 C   0  0  0  0  0  0  0  0  0  0  0  0
    2.9925  -18.6000   21.9402 C   0  0  0  0  0  0  0  0  0  0  0  0
    2.5734  -18.7528   20.6271 C   0  0  0  0  0  0  0  0  0  0  0  0
    1.2672  -19.0751   20.6175 N   0  0  0  0  0  0  0  0  0  0  0  0
    0.8529  -19.1286   21.9054 C   0  0  0  0  0  0  0  0  0  0  0  0
    1.9076  -18.8387   22.7018 N   0  0  0  0  0  0  0  0  0  0  0  0
    6.4746  -17.3772   21.5558 C   0  0  0  0  0  0  0  0  0  0  0  0
    7.4381  -18.1423   21.7659 O   0  0  0  0  0  0  0  0  0  0  0  0
    6.5894  -15.9747   21.7455 N   0  0  0  0  0  0  0  0  0  0  0  0
    7.8442  -15.3449   22.1370 C   0  0  1  0  0  0  0  0  0  0  0  0
    7.8043  -13.8587   21.8736 C   0  0  0  0  0  0  0  0  0  0  0  0
    7.8674  -13.6337   20.4135 C   0  0  0  0  0  0  0  0  0  0  0  0
    8.9923  -13.8085   19.6041 C   0  0  0  0  0  0  0  0  0  0  0  0
    8.6836  -13.5139   18.3397 N   0  0  0  0  0  0  0  0  0  0  0  0
    7.3983  -13.1567   18.3160 C   0  0  0  0  0  0  0  0  0  0  0  0
    6.9034  -13.2285   19.5681 N   0  0  0  0  0  0  0  0  0  0  0  0
    8.1721  -15.6836   23.5539 C   0  0  0  0  0  0  0  0  0  0  0  0
    7.4222  -15.3914   24.5170 O   0  0  0  0  0  0  0  0  0  0  0  0
   10.6095  -20.8491   24.9145 N   0  0  0  0  0  0  0  0  0  0  0  0
   10.5672  -20.3572   26.2357 C   0  0  0  0  0  0  0  0  0  0  0  0
   10.8236  -21.1061   27.2319 O   0  0  0  0  0  0  0  0  0  0  0  0
   10.2303  -18.9588   26.4869 C   0  0  0  0  0  0  0  0  0  0  0  0
    9.8814  -18.2394   25.2267 C   0  0  0  0  0  0  0  0  0  0  0  0
    9.6596  -16.7687   25.3048 C   0  0  2  0  0  0  0  0  0  0  0  0
    9.3693  -16.3665   23.9029 N   0  0  0  0  0  0  0  0  0  0  0  0
   10.6572  -15.9102   25.8766 C   0  0  0  0  0  0  0  0  0  0  0  0
   10.7918  -15.8290   27.2707 O   0  0  0  0  0  0  0  0  0  0  0  0
   11.4461  -15.2018   25.2089 O   0  0  0  0  0  0  0  0  0  0  0  0
  2  3  1  0
  2  1  1  1
  3  4  1  0
  4  8  1  0
  5  6  1  0
  5  4  2  0
  6  7  1  0
  7  8  2  0
  9  2  1  0
 10  9  2  0
 11  9  1  0
 12 11  1  0
 13 14  1  0
 12 13  1  1
 14 18  1  0
 15 14  2  0
 15 16  1  0
 16 17  1  0
 18 17  2  0
 19 12  1  0
 19 27  1  0
 20 19  2  0
 22 21  1  0
 23 22  2  0
 24 22  1  0
 25 24  1  0
 26 27  1  0
 26 25  1  6
 28 29  1  0
 28 26  1  0
 30 28  2  0
M  END
$$$$
