HHQ.pdb
     RDKit          3D

 30 31  0  0  1  0  0  0  0  0999 V2000
   11.2274  -14.0222   20.1980 N   0  0  0  0  0  0  0  0  0  0  0  0
   10.0198  -14.1903   20.9723 C   0  0  1  0  0  0  0  0  0  0  0  0
    9.1668  -15.3041   20.3504 C   0  0  0  0  0  0  0  0  0  0  0  0
    8.2685  -14.6645   19.3434 C   0  0  0  0  0  0  0  0  0  0  0  0
    8.2823  -13.3230   18.9922 C   0  0  0  0  0  0  0  0  0  0  0  0
    7.3395  -13.1037   18.0579 N   0  0  0  0  0  0  0  0  0  0  0  0
    6.7286  -14.2868   17.8122 C   0  0  0  0  0  0  0  0  0  0  0  0
    7.2995  -15.2291   18.5976 N   0  0  0  0  0  0  0  0  0  0  0  0
   10.3071  -14.6242   22.3623 C   0  0  0  0  0  0  0  0  0  0  0  0
   11.2739  -15.3893   22.5568 O   0  0  0  0  0  0  0  0  0  0  0  0
    9.4943  -14.1726   23.4354 N   0  0  0  0  0  0  0  0  0  0  0  0
    9.7269  -14.5881   24.8130 C   0  0  1  0  0  0  0  0  0  0  0  0
    8.9140  -13.7507   25.7710 C   0  0  0  0  0  0  0  0  0  0  0  0
    9.2348  -14.1655   27.1537 C   0  0  0  0  0  0  0  0  0  0  0  0
   10.0971  -13.5025   28.0300 C   0  0  0  0  0  0  0  0  0  0  0  0
   10.1468  -14.1592   29.1906 N   0  0  0  0  0  0  0  0  0  0  0  0
    9.3442  -15.2196   29.0833 C   0  0  0  0  0  0  0  0  0  0  0  0
    8.7923  -15.2251   27.8532 N   0  0  0  0  0  0  0  0  0  0  0  0
    9.4828  -16.0540   24.9586 C   0  0  0  0  0  0  0  0  0  0  0  0
    8.4060  -16.6039   24.6217 O   0  0  0  0  0  0  0  0  0  0  0  0
   11.8733  -19.2713   22.2573 N   0  0  0  0  0  0  0  0  0  0  0  0
   12.7491  -19.3192   23.3618 C   0  0  0  0  0  0  0  0  0  0  0  0
   14.0119  -19.3444   23.2077 O   0  0  0  0  0  0  0  0  0  0  0  0
   12.2150  -19.3343   24.7207 C   0  0  0  0  0  0  0  0  0  0  0  0
   10.7360  -19.1355   24.7356 C   0  0  0  0  0  0  0  0  0  0  0  0
   10.1533  -18.3371   25.8497 C   0  0  2  0  0  0  0  0  0  0  0  0
   10.4681  -16.9277   25.4947 N   0  0  0  0  0  0  0  0  0  0  0  0
   10.5222  -18.6061   27.2101 C   0  0  0  0  0  0  0  0  0  0  0  0
   10.2422  -19.8599   27.7740 O   0  0  0  0  0  0  0  0  0  0  0  0
   11.0943  -17.7835   27.9626 O   0  0  0  0  0  0  0  0  0  0  0  0
  2  3  1  0
  2  1  1  6
  3  4  1  0
  4  8  1  0
  5  6  1  0
  5  4  2  0
  6  7  1  0
  7  8  2  0
  9  2  1  0
 10  9  2  0
 11  9  1  0
 12 11  1  0
 13 14  1  0
 12 13  1  1
 14 18  1  0
 15 14  2  0
 15 16  1  0
 16 17  1  0
 18 17  2  0
 19 12  1  0
 19 27  1  0
 20 19  2  0
 22 21  1  0
 23 22  2  0
 24 22  1  0
 25 24  1  0
 26 27  1  0
 26 25  1  6
 28 29  1  0
 28 26  1  0
 30 28  2  0
M  END
$$$$
