GCI.pdb
     RDKit          3D

 19 18  0  0  1  0  0  0  0  0999 V2000
   16.8778  -11.4369  -12.6675 N   0  0  0  0  0  0  0  0  0  0  0  0
   16.0548  -10.7662  -11.6715 C   0  0  0  0  0  0  0  0  0  0  0  0
   16.3576   -9.2996  -11.7564 C   0  0  0  0  0  0  0  0  0  0  0  0
   16.1934   -8.6508  -12.8236 O   0  0  0  0  0  0  0  0  0  0  0  0
   16.8449   -8.5750  -10.6322 N   0  0  0  0  0  0  0  0  0  0  0  0
   17.1270   -7.1594  -10.7465 C   0  0  1  0  0  0  0  0  0  0  0  0
   16.9373   -6.5536   -9.3648 C   0  0  0  0  0  0  0  0  0  0  0  0
   17.5288   -4.8417   -9.3494 S   0  0  0  0  0  0  0  0  0  0  0  0
   18.5230   -6.9105  -11.1871 C   0  0  0  0  0  0  0  0  0  0  0  0
   19.4460   -7.3243  -10.4198 O   0  0  0  0  0  0  0  0  0  0  0  0
   20.3211   -9.1120  -14.9752 C   0  0  0  0  0  0  0  0  0  0  0  0
   20.6575   -8.3019  -13.7501 C   0  0  0  0  0  0  0  0  0  0  0  0
   20.6328   -6.8333  -13.9359 C   0  0  2  0  0  0  0  0  0  0  0  0
   22.0717   -6.4067  -14.2604 C   0  0  0  0  0  0  0  0  0  0  0  0
   20.1903   -6.0182  -12.7573 C   0  0  2  0  0  0  0  0  0  0  0  0
   18.8129   -6.2451  -12.4023 N   0  0  0  0  0  0  0  0  0  0  0  0
   20.4325   -4.5806  -12.8695 C   0  0  0  0  0  0  0  0  0  0  0  0
   21.6779   -4.0095  -12.6518 O   0  0  0  0  0  0  0  0  0  0  0  0
   19.5074   -3.7866  -13.1728 O   0  0  0  0  0  0  0  0  0  0  0  0
  1  2  1  0
  3  4  2  0
  3  2  1  0
  5  3  1  0
  6  9  1  0
  6  5  1  0
  6  7  1  1
  8  7  1  0
  9 10  2  0
 11 12  1  0
 13 12  1  0
 13 14  1  1
 15 13  1  0
 15 16  1  6
 16  9  1  0
 17 15  1  0
 18 17  1  0
 19 17  2  0
M  END
$$$$
