GCI.pdb
     RDKit          3D

 19 18  0  0  1  0  0  0  0  0999 V2000
   29.5612  -22.8767  -15.9100 N   0  0  0  0  0  0  0  0  0  0  0  0
   28.2047  -22.3484  -15.9038 C   0  0  0  0  0  0  0  0  0  0  0  0
   28.1277  -21.3291  -14.8061 C   0  0  0  0  0  0  0  0  0  0  0  0
   28.6385  -20.1843  -14.9291 O   0  0  0  0  0  0  0  0  0  0  0  0
   27.4724  -21.6115  -13.5743 N   0  0  0  0  0  0  0  0  0  0  0  0
   26.5661  -20.6426  -12.9942 C   0  0  1  0  0  0  0  0  0  0  0  0
   25.3830  -20.5157  -13.9410 C   0  0  0  0  0  0  0  0  0  0  0  0
   24.2333  -19.2545  -13.3346 S   0  0  0  0  0  0  0  0  0  0  0  0
   26.0674  -21.0819  -11.6664 C   0  0  0  0  0  0  0  0  0  0  0  0
   25.4978  -22.2155  -11.6172 O   0  0  0  0  0  0  0  0  0  0  0  0
   28.5232  -19.1113   -7.0787 C   0  0  0  0  0  0  0  0  0  0  0  0
   27.9011  -20.1357   -7.9918 C   0  0  0  0  0  0  0  0  0  0  0  0
   26.4234  -20.0954   -8.0750 C   0  0  2  0  0  0  0  0  0  0  0  0
   25.8926  -20.7688   -6.8013 C   0  0  0  0  0  0  0  0  0  0  0  0
   25.8002  -20.8075   -9.2385 C   0  0  2  0  0  0  0  0  0  0  0  0
   26.2185  -20.2782  -10.5111 N   0  0  0  0  0  0  0  0  0  0  0  0
   24.3410  -20.8949   -9.2047 C   0  0  0  0  0  0  0  0  0  0  0  0
   23.5233  -20.1213  -10.0155 O   0  0  0  0  0  0  0  0  0  0  0  0
   23.7545  -21.6876   -8.4264 O   0  0  0  0  0  0  0  0  0  0  0  0
  1  2  1  0
  3  4  2  0
  3  2  1  0
  5  3  1  0
  6  9  1  0
  6  5  1  0
  6  7  1  6
  8  7  1  0
  9 10  2  0
 11 12  1  0
 13 12  1  0
 13 14  1  1
 15 13  1  0
 15 16  1  6
 16  9  1  0
 17 15  1  0
 18 17  1  0
 19 17  2  0
M  END
$$$$
