GCI.pdb
     RDKit          3D

 19 18  0  0  1  0  0  0  0  0999 V2000
   15.4982  -12.7461  -13.1444 N   0  0  0  0  0  0  0  0  0  0  0  0
   14.8438  -11.4582  -13.3236 C   0  0  0  0  0  0  0  0  0  0  0  0
   15.5063  -10.4873  -12.3917 C   0  0  0  0  0  0  0  0  0  0  0  0
   15.2955  -10.5131  -11.1501 O   0  0  0  0  0  0  0  0  0  0  0  0
   16.4044   -9.4921  -12.8706 N   0  0  0  0  0  0  0  0  0  0  0  0
   17.0257   -8.5678  -11.9452 C   0  0  1  0  0  0  0  0  0  0  0  0
   18.1187   -7.8379  -12.7100 C   0  0  0  0  0  0  0  0  0  0  0  0
   19.4785   -8.9733  -13.0872 S   0  0  0  0  0  0  0  0  0  0  0  0
   16.0556   -7.5678  -11.4318 C   0  0  0  0  0  0  0  0  0  0  0  0
   15.1878   -7.1402  -12.2540 O   0  0  0  0  0  0  0  0  0  0  0  0
   12.3219   -6.5110   -6.9063 C   0  0  0  0  0  0  0  0  0  0  0  0
   13.2351   -5.8726   -7.9204 C   0  0  0  0  0  0  0  0  0  0  0  0
   14.2548   -6.7707   -8.5082 C   0  0  2  0  0  0  0  0  0  0  0  0
   15.2357   -7.1206   -7.3800 C   0  0  0  0  0  0  0  0  0  0  0  0
   15.0682   -6.2100   -9.6365 C   0  0  2  0  0  0  0  0  0  0  0  0
   16.0944   -7.1121  -10.0923 N   0  0  0  0  0  0  0  0  0  0  0  0
   15.6544   -4.8940   -9.3863 C   0  0  0  0  0  0  0  0  0  0  0  0
   17.0209   -4.6928   -9.2564 O   0  0  0  0  0  0  0  0  0  0  0  0
   14.9337   -3.8710   -9.2757 O   0  0  0  0  0  0  0  0  0  0  0  0
  1  2  1  0
  3  4  2  0
  3  2  1  0
  5  3  1  0
  6  9  1  0
  6  5  1  0
  6  7  1  6
  8  7  1  0
  9 10  2  0
 11 12  1  0
 13 12  1  0
 13 14  1  1
 15 13  1  0
 15 16  1  1
 16  9  1  0
 17 15  1  0
 18 17  1  0
 19 17  2  0
M  END
$$$$
