GCI.pdb
     RDKit          3D

 19 18  0  0  1  0  0  0  0  0999 V2000
   23.4468  -18.1317  -14.8847 N   0  0  0  0  0  0  0  0  0  0  0  0
   24.8160  -18.0020  -14.4077 C   0  0  0  0  0  0  0  0  0  0  0  0
   25.2003  -19.3146  -13.7917 C   0  0  0  0  0  0  0  0  0  0  0  0
   24.3366  -20.1757  -13.4767 O   0  0  0  0  0  0  0  0  0  0  0  0
   26.5609  -19.6454  -13.5354 N   0  0  0  0  0  0  0  0  0  0  0  0
   26.8991  -20.9219  -12.9414 C   0  0  1  0  0  0  0  0  0  0  0  0
   28.2708  -21.3106  -13.4703 C   0  0  0  0  0  0  0  0  0  0  0  0
   28.1829  -21.6317  -15.2507 S   0  0  0  0  0  0  0  0  0  0  0  0
   26.9666  -20.8389  -11.4605 C   0  0  0  0  0  0  0  0  0  0  0  0
   28.1247  -20.7651  -10.9451 O   0  0  0  0  0  0  0  0  0  0  0  0
   27.9049  -19.3154   -6.4215 C   0  0  0  0  0  0  0  0  0  0  0  0
   27.0354  -20.3400   -7.1029 C   0  0  0  0  0  0  0  0  0  0  0  0
   26.8651  -20.1560   -8.5621 C   0  0  2  0  0  0  0  0  0  0  0  0
   26.3039  -18.7413   -8.7646 C   0  0  0  0  0  0  0  0  0  0  0  0
   25.9255  -21.1016   -9.2493 C   0  0  2  0  0  0  0  0  0  0  0  0
   25.7990  -20.8418  -10.6604 N   0  0  0  0  0  0  0  0  0  0  0  0
   24.5945  -21.1992   -8.6521 C   0  0  0  0  0  0  0  0  0  0  0  0
   23.4318  -20.9340   -9.3610 O   0  0  0  0  0  0  0  0  0  0  0  0
   24.4434  -21.5328   -7.4504 O   0  0  0  0  0  0  0  0  0  0  0  0
  1  2  1  0
  3  4  2  0
  3  2  1  0
  5  3  1  0
  6  9  1  0
  6  5  1  0
  6  7  1  6
  8  7  1  0
  9 10  2  0
 11 12  1  0
 13 12  1  0
 13 14  1  1
 15 13  1  0
 15 16  1  6
 16  9  1  0
 17 15  1  0
 18 17  1  0
 19 17  2  0
M  END
$$$$
