GCI.pdb
     RDKit          3D

 19 18  0  0  1  0  0  0  0  0999 V2000
   28.5286  -22.0165  -15.7206 N   0  0  0  0  0  0  0  0  0  0  0  0
   28.1386  -20.8864  -14.8900 C   0  0  0  0  0  0  0  0  0  0  0  0
   27.0225  -21.3496  -14.0013 C   0  0  0  0  0  0  0  0  0  0  0  0
   26.1442  -22.1558  -14.4079 O   0  0  0  0  0  0  0  0  0  0  0  0
   26.9068  -20.8976  -12.6565 N   0  0  0  0  0  0  0  0  0  0  0  0
   25.7560  -21.2707  -11.8607 C   0  0  1  0  0  0  0  0  0  0  0  0
   26.0350  -20.8216  -10.4350 C   0  0  0  0  0  0  0  0  0  0  0  0
   24.5892  -21.1347   -9.3899 S   0  0  0  0  0  0  0  0  0  0  0  0
   24.5184  -20.6022  -12.3361 C   0  0  0  0  0  0  0  0  0  0  0  0
   24.5811  -19.3471  -12.5171 O   0  0  0  0  0  0  0  0  0  0  0  0
   22.8407  -20.0102  -16.8972 C   0  0  0  0  0  0  0  0  0  0  0  0
   22.9128  -19.8196  -15.4044 C   0  0  0  0  0  0  0  0  0  0  0  0
   22.0797  -20.7478  -14.6067 C   0  0  2  0  0  0  0  0  0  0  0  0
   20.6183  -20.4543  -14.9750 C   0  0  0  0  0  0  0  0  0  0  0  0
   22.1873  -20.6284  -13.1156 C   0  0  2  0  0  0  0  0  0  0  0  0
   23.3262  -21.3263  -12.5765 N   0  0  0  0  0  0  0  0  0  0  0  0
   20.9871  -21.0107  -12.3730 C   0  0  0  0  0  0  0  0  0  0  0  0
   20.7631  -22.3032  -11.9215 O   0  0  0  0  0  0  0  0  0  0  0  0
   20.0913  -20.1710  -12.1075 O   0  0  0  0  0  0  0  0  0  0  0  0
  1  2  1  0
  3  4  2  0
  3  2  1  0
  5  3  1  0
  6  9  1  0
  6  5  1  0
  6  7  1  1
  8  7  1  0
  9 10  2  0
 11 12  1  0
 13 12  1  0
 13 14  1  1
 15 13  1  0
 15 16  1  1
 16  9  1  0
 17 15  1  0
 18 17  1  0
 19 17  2  0
M  END
$$$$
