GCI.pdb
     RDKit          3D

 19 18  0  0  1  0  0  0  0  0999 V2000
   16.2392  -21.2580    1.2805 N   0  0  0  0  0  0  0  0  0  0  0  0
   15.5892  -21.2938   -0.0216 C   0  0  0  0  0  0  0  0  0  0  0  0
   15.3310  -22.7339   -0.3522 C   0  0  0  0  0  0  0  0  0  0  0  0
   15.7242  -23.6659    0.3985 O   0  0  0  0  0  0  0  0  0  0  0  0
   14.6287  -23.1115   -1.5314 N   0  0  0  0  0  0  0  0  0  0  0  0
   14.4653  -24.5114   -1.8634 C   0  0  1  0  0  0  0  0  0  0  0  0
   13.3741  -24.5951   -2.9191 C   0  0  0  0  0  0  0  0  0  0  0  0
   13.1850  -26.3055   -3.4841 S   0  0  0  0  0  0  0  0  0  0  0  0
   15.7121  -25.0935   -2.4213 C   0  0  0  0  0  0  0  0  0  0  0  0
   16.3718  -24.3655   -3.2257 O   0  0  0  0  0  0  0  0  0  0  0  0
   20.9175  -27.1469   -1.0851 C   0  0  0  0  0  0  0  0  0  0  0  0
   19.7328  -27.6307   -1.8804 C   0  0  0  0  0  0  0  0  0  0  0  0
   18.4247  -27.0697   -1.4726 C   0  0  2  0  0  0  0  0  0  0  0  0
   17.8059  -28.0692   -0.4850 C   0  0  0  0  0  0  0  0  0  0  0  0
   17.4200  -26.8555   -2.5652 C   0  0  2  0  0  0  0  0  0  0  0  0
   16.1460  -26.3955   -2.0751 N   0  0  0  0  0  0  0  0  0  0  0  0
   17.2147  -27.9983   -3.4539 C   0  0  0  0  0  0  0  0  0  0  0  0
   16.0244  -28.7095   -3.5002 O   0  0  0  0  0  0  0  0  0  0  0  0
   18.1229  -28.3928   -4.2269 O   0  0  0  0  0  0  0  0  0  0  0  0
  1  2  1  0
  3  4  2  0
  3  2  1  0
  5  3  1  0
  6  9  1  0
  6  5  1  0
  6  7  1  6
  8  7  1  0
  9 10  2  0
 11 12  1  0
 13 12  1  0
 13 14  1  1
 15 13  1  0
 15 16  1  1
 16  9  1  0
 17 15  1  0
 18 17  1  0
 19 17  2  0
M  END
$$$$
