GCI.pdb
     RDKit          3D

 19 18  0  0  1  0  0  0  0  0999 V2000
   20.5906  -13.4740  -17.4884 N   0  0  0  0  0  0  0  0  0  0  0  0
   19.8286  -12.9188  -16.3793 C   0  0  0  0  0  0  0  0  0  0  0  0
   19.7006  -11.4437  -16.6196 C   0  0  0  0  0  0  0  0  0  0  0  0
   20.2502  -10.8838  -17.6051 O   0  0  0  0  0  0  0  0  0  0  0  0
   18.9508  -10.6101  -15.7426 N   0  0  0  0  0  0  0  0  0  0  0  0
   18.8085   -9.1975  -16.0272 C   0  0  1  0  0  0  0  0  0  0  0  0
   17.5315   -8.7315  -15.3458 C   0  0  0  0  0  0  0  0  0  0  0  0
   17.3153   -6.9488  -15.5817 S   0  0  0  0  0  0  0  0  0  0  0  0
   19.9478   -8.4108  -15.4908 C   0  0  0  0  0  0  0  0  0  0  0  0
   20.3581   -8.7195  -14.3296 O   0  0  0  0  0  0  0  0  0  0  0  0
   25.3230   -6.3496  -17.1920 C   0  0  0  0  0  0  0  0  0  0  0  0
   24.1662   -6.2070  -16.2372 C   0  0  0  0  0  0  0  0  0  0  0  0
   22.9100   -6.8655  -16.6618 C   0  0  2  0  0  0  0  0  0  0  0  0
   22.4896   -6.2020  -17.9811 C   0  0  0  0  0  0  0  0  0  0  0  0
   21.7454   -6.7505  -15.7239 C   0  0  2  0  0  0  0  0  0  0  0  0
   20.5486   -7.3676  -16.2354 N   0  0  0  0  0  0  0  0  0  0  0  0
   21.4388   -5.3925  -15.2771 C   0  0  0  0  0  0  0  0  0  0  0  0
   20.2949   -4.7128  -15.6698 O   0  0  0  0  0  0  0  0  0  0  0  0
   22.2113   -4.7714  -14.5053 O   0  0  0  0  0  0  0  0  0  0  0  0
  1  2  1  0
  3  4  2  0
  3  2  1  0
  5  3  1  0
  6  9  1  0
  6  5  1  0
  6  7  1  1
  8  7  1  0
  9 10  2  0
 11 12  1  0
 13 12  1  0
 13 14  1  6
 15 13  1  0
 15 16  1  6
 16  9  1  0
 17 15  1  0
 18 17  1  0
 19 17  2  0
M  END
$$$$
