GCI.pdb
     RDKit          3D

 19 18  0  0  1  0  0  0  0  0999 V2000
   18.7624  -15.8073  -16.3086 N   0  0  0  0  0  0  0  0  0  0  0  0
   17.9613  -14.7496  -15.7095 C   0  0  0  0  0  0  0  0  0  0  0  0
   18.5053  -13.4425  -16.2051 C   0  0  0  0  0  0  0  0  0  0  0  0
   19.4938  -13.3900  -16.9841 O   0  0  0  0  0  0  0  0  0  0  0  0
   17.9271  -12.2014  -15.8158 N   0  0  0  0  0  0  0  0  0  0  0  0
   18.4779  -10.9564  -16.3092 C   0  0  1  0  0  0  0  0  0  0  0  0
   17.3522   -9.9342  -16.2957 C   0  0  0  0  0  0  0  0  0  0  0  0
   17.9979   -8.2922  -16.7047 S   0  0  0  0  0  0  0  0  0  0  0  0
   19.5796  -10.4617  -15.4454 C   0  0  0  0  0  0  0  0  0  0  0  0
   19.4290  -10.6008  -14.1925 O   0  0  0  0  0  0  0  0  0  0  0  0
   25.4774  -10.5682  -14.6419 C   0  0  0  0  0  0  0  0  0  0  0  0
   24.1939   -9.8159  -14.4036 C   0  0  0  0  0  0  0  0  0  0  0  0
   23.0583  -10.2117  -15.2673 C   0  0  2  0  0  0  0  0  0  0  0  0
   23.5158  -10.0039  -16.7181 C   0  0  0  0  0  0  0  0  0  0  0  0
   21.7860   -9.4367  -15.0947 C   0  0  2  0  0  0  0  0  0  0  0  0
   20.7416   -9.8641  -15.9897 N   0  0  0  0  0  0  0  0  0  0  0  0
   21.9279   -7.9834  -15.1725 C   0  0  0  0  0  0  0  0  0  0  0  0
   22.4223   -7.2199  -14.1250 O   0  0  0  0  0  0  0  0  0  0  0  0
   21.6023   -7.3525  -16.2088 O   0  0  0  0  0  0  0  0  0  0  0  0
  1  2  1  0
  3  4  2  0
  3  2  1  0
  5  3  1  0
  6  9  1  0
  6  5  1  0
  6  7  1  1
  8  7  1  0
  9 10  2  0
 11 12  1  0
 13 12  1  0
 13 14  1  6
 15 13  1  0
 15 16  1  6
 16  9  1  0
 17 15  1  0
 18 17  1  0
 19 17  2  0
M  END
$$$$
