GCI.pdb
     RDKit          3D

 19 18  0  0  1  0  0  0  0  0999 V2000
   21.7094  -12.1180  -19.5138 N   0  0  0  0  0  0  0  0  0  0  0  0
   20.7932  -11.0061  -19.3049 C   0  0  0  0  0  0  0  0  0  0  0  0
   21.1033  -10.4187  -17.9601 C   0  0  0  0  0  0  0  0  0  0  0  0
   20.1925  -10.1159  -17.1443 O   0  0  0  0  0  0  0  0  0  0  0  0
   22.4436  -10.1771  -17.5457 N   0  0  0  0  0  0  0  0  0  0  0  0
   22.7105   -9.6237  -16.2345 C   0  0  1  0  0  0  0  0  0  0  0  0
   24.1104  -10.0671  -15.8397 C   0  0  0  0  0  0  0  0  0  0  0  0
   24.0439  -11.6813  -15.0207 S   0  0  0  0  0  0  0  0  0  0  0  0
   22.6670   -8.1396  -16.2445 C   0  0  0  0  0  0  0  0  0  0  0  0
   23.2578   -7.5578  -17.2059 O   0  0  0  0  0  0  0  0  0  0  0  0
   19.0183   -3.7120  -16.7164 C   0  0  0  0  0  0  0  0  0  0  0  0
   20.3102   -4.1053  -16.0480 C   0  0  0  0  0  0  0  0  0  0  0  0
   20.5657   -5.5616  -15.9719 C   0  0  2  0  0  0  0  0  0  0  0  0
   19.4625   -6.1561  -15.0848 C   0  0  0  0  0  0  0  0  0  0  0  0
   21.8776   -5.9794  -15.3772 C   0  0  2  0  0  0  0  0  0  0  0  0
   22.0003   -7.4073  -15.2332 N   0  0  0  0  0  0  0  0  0  0  0  0
   22.2206   -5.3323  -14.1116 C   0  0  0  0  0  0  0  0  0  0  0  0
   22.3080   -6.0255  -12.9131 O   0  0  0  0  0  0  0  0  0  0  0  0
   22.4547   -4.0994  -14.0536 O   0  0  0  0  0  0  0  0  0  0  0  0
  1  2  1  0
  3  4  2  0
  3  2  1  0
  5  3  1  0
  6  9  1  0
  6  5  1  0
  6  7  1  6
  8  7  1  0
  9 10  2  0
 11 12  1  0
 13 12  1  0
 13 14  1  1
 15 13  1  0
 15 16  1  1
 16  9  1  0
 17 15  1  0
 18 17  1  0
 19 17  2  0
M  END
$$$$
