GCI.pdb
     RDKit          3D

 19 18  0  0  1  0  0  0  0  0999 V2000
   15.5371  -11.5940  -12.0480 N   0  0  0  0  0  0  0  0  0  0  0  0
   16.4681  -10.8767  -11.1889 C   0  0  0  0  0  0  0  0  0  0  0  0
   16.0728   -9.4300  -11.2120 C   0  0  0  0  0  0  0  0  0  0  0  0
   15.3917   -8.9451  -12.1542 O   0  0  0  0  0  0  0  0  0  0  0  0
   16.4509   -8.5394  -10.1678 N   0  0  0  0  0  0  0  0  0  0  0  0
   15.9874   -7.1676  -10.1790 C   0  0  1  0  0  0  0  0  0  0  0  0
   16.2020   -6.6128   -8.7796 C   0  0  0  0  0  0  0  0  0  0  0  0
   14.9495   -7.2729   -7.6499 S   0  0  0  0  0  0  0  0  0  0  0  0
   16.7524   -6.3363  -11.1425 C   0  0  0  0  0  0  0  0  0  0  0  0
   18.0089   -6.5150  -11.1785 O   0  0  0  0  0  0  0  0  0  0  0  0
   16.3571   -6.6257  -16.2691 C   0  0  0  0  0  0  0  0  0  0  0  0
   16.8481   -6.3222  -14.8774 C   0  0  0  0  0  0  0  0  0  0  0  0
   16.5061   -4.9760  -14.3649 C   0  0  2  0  0  0  0  0  0  0  0  0
   17.2384   -3.9656  -15.2594 C   0  0  0  0  0  0  0  0  0  0  0  0
   16.9061   -4.6782  -12.9505 C   0  0  2  0  0  0  0  0  0  0  0  0
   16.1147   -5.3906  -11.9806 N   0  0  0  0  0  0  0  0  0  0  0  0
   16.9419   -3.2590  -12.6002 C   0  0  0  0  0  0  0  0  0  0  0  0
   18.1082   -2.5083  -12.6254 O   0  0  0  0  0  0  0  0  0  0  0  0
   15.9002   -2.6476  -12.2550 O   0  0  0  0  0  0  0  0  0  0  0  0
  1  2  1  0
  3  4  2  0
  3  2  1  0
  5  3  1  0
  6  9  1  0
  6  5  1  0
  6  7  1  1
  8  7  1  0
  9 10  2  0
 11 12  1  0
 13 12  1  0
 13 14  1  6
 15 13  1  0
 15 16  1  1
 16  9  1  0
 17 15  1  0
 18 17  1  0
 19 17  2  0
M  END
$$$$
