GCI.pdb
     RDKit          3D

 19 18  0  0  1  0  0  0  0  0999 V2000
   16.6765  -13.3611  -15.3814 N   0  0  0  0  0  0  0  0  0  0  0  0
   16.3040  -12.2158  -14.5635 C   0  0  0  0  0  0  0  0  0  0  0  0
   16.8643  -10.9926  -15.2267 C   0  0  0  0  0  0  0  0  0  0  0  0
   17.6859  -11.0735  -16.1781 O   0  0  0  0  0  0  0  0  0  0  0  0
   16.4913   -9.6839  -14.8091 N   0  0  0  0  0  0  0  0  0  0  0  0
   16.9898   -8.5246  -15.5192 C   0  0  1  0  0  0  0  0  0  0  0  0
   15.8761   -7.4893  -15.5205 C   0  0  0  0  0  0  0  0  0  0  0  0
   14.4007   -8.1637  -16.3260 S   0  0  0  0  0  0  0  0  0  0  0  0
   18.1808   -7.9409  -14.8518 C   0  0  0  0  0  0  0  0  0  0  0  0
   18.1213   -7.8098  -13.5903 O   0  0  0  0  0  0  0  0  0  0  0  0
   22.8810  -10.1325  -15.2116 C   0  0  0  0  0  0  0  0  0  0  0  0
   21.6429   -9.3439  -14.8721 C   0  0  0  0  0  0  0  0  0  0  0  0
   21.7173   -7.8936  -15.1603 C   0  0  2  0  0  0  0  0  0  0  0  0
   22.8441   -7.3281  -14.2841 C   0  0  0  0  0  0  0  0  0  0  0  0
   20.4867   -7.0895  -14.8630 C   0  0  2  0  0  0  0  0  0  0  0  0
   19.3273   -7.5490  -15.5837 N   0  0  0  0  0  0  0  0  0  0  0  0
   20.6293   -5.6454  -15.0423 C   0  0  0  0  0  0  0  0  0  0  0  0
   21.1579   -4.8157  -14.0642 O   0  0  0  0  0  0  0  0  0  0  0  0
   20.2729   -5.0837  -16.1080 O   0  0  0  0  0  0  0  0  0  0  0  0
  1  2  1  0
  3  4  2  0
  3  2  1  0
  5  3  1  0
  6  9  1  0
  6  5  1  0
  6  7  1  1
  8  7  1  0
  9 10  2  0
 11 12  1  0
 13 12  1  0
 13 14  1  1
 15 13  1  0
 15 16  1  6
 16  9  1  0
 17 15  1  0
 18 17  1  0
 19 17  2  0
M  END
$$$$
