GCI.pdb
     RDKit          3D

 19 18  0  0  1  0  0  0  0  0999 V2000
   11.1463  -12.9646  -10.1936 N   0  0  0  0  0  0  0  0  0  0  0  0
   11.2548  -12.0768   -9.0449 C   0  0  0  0  0  0  0  0  0  0  0  0
   11.8088  -10.7734   -9.5388 C   0  0  0  0  0  0  0  0  0  0  0  0
   12.1197  -10.6021  -10.7474 O   0  0  0  0  0  0  0  0  0  0  0  0
   12.0079   -9.6702   -8.6615 N   0  0  0  0  0  0  0  0  0  0  0  0
   12.3150   -8.3609   -9.1981 C   0  0  1  0  0  0  0  0  0  0  0  0
   11.4521   -7.3580   -8.4486 C   0  0  0  0  0  0  0  0  0  0  0  0
    9.7005   -7.6636   -8.7940 S   0  0  0  0  0  0  0  0  0  0  0  0
   13.7422   -8.0045   -8.9962 C   0  0  0  0  0  0  0  0  0  0  0  0
   14.2482   -8.2923   -7.8679 O   0  0  0  0  0  0  0  0  0  0  0  0
   17.7160  -10.0666  -11.3431 C   0  0  0  0  0  0  0  0  0  0  0  0
   16.8338   -9.2946  -10.3966 C   0  0  0  0  0  0  0  0  0  0  0  0
   16.8456   -7.8251  -10.5764 C   0  0  2  0  0  0  0  0  0  0  0  0
   18.2545   -7.3468  -10.1974 C   0  0  0  0  0  0  0  0  0  0  0  0
   15.8782   -7.0419   -9.7398 C   0  0  2  0  0  0  0  0  0  0  0  0
   14.5032   -7.3751  -10.0102 N   0  0  0  0  0  0  0  0  0  0  0  0
   16.0454   -5.5902   -9.7909 C   0  0  0  0  0  0  0  0  0  0  0  0
   15.3714   -4.7881  -10.7004 O   0  0  0  0  0  0  0  0  0  0  0  0
   16.8200   -4.9962   -9.0003 O   0  0  0  0  0  0  0  0  0  0  0  0
  1  2  1  0
  3  4  2  0
  3  2  1  0
  5  3  1  0
  6  9  1  0
  6  5  1  0
  6  7  1  1
  8  7  1  0
  9 10  2  0
 11 12  1  0
 13 12  1  0
 13 14  1  1
 15 13  1  0
 15 16  1  6
 16  9  1  0
 17 15  1  0
 18 17  1  0
 19 17  2  0
M  END
$$$$
