GCI.pdb
     RDKit          3D

 19 18  0  0  1  0  0  0  0  0999 V2000
   18.6416  -12.1252  -17.5845 N   0  0  0  0  0  0  0  0  0  0  0  0
   19.5817  -11.8839  -16.4994 C   0  0  0  0  0  0  0  0  0  0  0  0
   19.3234  -10.4989  -15.9848 C   0  0  0  0  0  0  0  0  0  0  0  0
   19.2777   -9.5042  -16.7563 O   0  0  0  0  0  0  0  0  0  0  0  0
   19.1182  -10.2472  -14.5988 N   0  0  0  0  0  0  0  0  0  0  0  0
   18.8996   -8.8947  -14.1302 C   0  0  1  0  0  0  0  0  0  0  0  0
   18.2713   -8.9971  -12.7493 C   0  0  0  0  0  0  0  0  0  0  0  0
   18.1911   -7.3596  -11.9793 S   0  0  0  0  0  0  0  0  0  0  0  0
   20.1727   -8.1387  -14.0184 C   0  0  0  0  0  0  0  0  0  0  0  0
   21.1299   -8.7185  -13.4186 O   0  0  0  0  0  0  0  0  0  0  0  0
   23.0897   -6.6329  -17.9676 C   0  0  0  0  0  0  0  0  0  0  0  0
   22.5928   -6.9881  -16.5903 C   0  0  0  0  0  0  0  0  0  0  0  0
   22.2151   -5.8382  -15.7375 C   0  0  2  0  0  0  0  0  0  0  0  0
   23.5101   -5.0708  -15.4350 C   0  0  0  0  0  0  0  0  0  0  0  0
   21.5819   -6.1648  -14.4179 C   0  0  2  0  0  0  0  0  0  0  0  0
   20.3146   -6.8359  -14.5532 N   0  0  0  0  0  0  0  0  0  0  0  0
   21.4378   -5.0350  -13.5009 C   0  0  0  0  0  0  0  0  0  0  0  0
   20.2631   -4.3059  -13.3862 O   0  0  0  0  0  0  0  0  0  0  0  0
   22.3878   -4.6690  -12.7649 O   0  0  0  0  0  0  0  0  0  0  0  0
  1  2  1  0
  3  4  2  0
  3  2  1  0
  5  3  1  0
  6  9  1  0
  6  5  1  0
  6  7  1  1
  8  7  1  0
  9 10  2  0
 11 12  1  0
 13 12  1  0
 13 14  1  1
 15 13  1  0
 15 16  1  6
 16  9  1  0
 17 15  1  0
 18 17  1  0
 19 17  2  0
M  END
$$$$
