GCI.pdb
     RDKit          3D

 19 18  0  0  1  0  0  0  0  0999 V2000
   30.1256  -23.5583  -16.6630 N   0  0  0  0  0  0  0  0  0  0  0  0
   29.2509  -22.5620  -17.2643 C   0  0  0  0  0  0  0  0  0  0  0  0
   28.6976  -21.7233  -16.1505 C   0  0  0  0  0  0  0  0  0  0  0  0
   28.8184  -22.0631  -14.9436 O   0  0  0  0  0  0  0  0  0  0  0  0
   28.0103  -20.5039  -16.4092 N   0  0  0  0  0  0  0  0  0  0  0  0
   27.5590  -19.6765  -15.3099 C   0  0  1  0  0  0  0  0  0  0  0  0
   27.1874  -18.3226  -15.8938 C   0  0  0  0  0  0  0  0  0  0  0  0
   26.5719  -17.2294  -14.5874 S   0  0  0  0  0  0  0  0  0  0  0  0
   26.3630  -20.2514  -14.6437 C   0  0  0  0  0  0  0  0  0  0  0  0
   25.4751  -20.7540  -15.3994 O   0  0  0  0  0  0  0  0  0  0  0  0
   25.6995  -20.7599   -8.8141 C   0  0  0  0  0  0  0  0  0  0  0  0
   25.4484  -20.2866  -10.2223 C   0  0  0  0  0  0  0  0  0  0  0  0
   25.3353  -21.3567  -11.2392 C   0  0  2  0  0  0  0  0  0  0  0  0
   26.6731  -22.1101  -11.2357 C   0  0  0  0  0  0  0  0  0  0  0  0
   25.0865  -20.9136  -12.6502 C   0  0  2  0  0  0  0  0  0  0  0  0
   26.2175  -20.2408  -13.2358 N   0  0  0  0  0  0  0  0  0  0  0  0
   23.8851  -20.1032  -12.8447 C   0  0  0  0  0  0  0  0  0  0  0  0
   22.6085  -20.5766  -12.5787 O   0  0  0  0  0  0  0  0  0  0  0  0
   23.9580  -18.9229  -13.2689 O   0  0  0  0  0  0  0  0  0  0  0  0
  1  2  1  0
  3  4  2  0
  3  2  1  0
  5  3  1  0
  6  9  1  0
  6  5  1  0
  6  7  1  6
  8  7  1  0
  9 10  2  0
 11 12  1  0
 13 12  1  0
 13 14  1  6
 15 13  1  0
 15 16  1  1
 16  9  1  0
 17 15  1  0
 18 17  1  0
 19 17  2  0
M  END
$$$$
