GMG.pdb
     RDKit          3D

 17 16  0  0  1  0  0  0  0  0999 V2000
    5.8243  -20.2729   23.4604 N   0  0  0  0  0  0  0  0  0  0  0  0
    6.3526  -19.6376   24.6533 C   0  0  0  0  0  0  0  0  0  0  0  0
    6.5949  -18.2169   24.3302 C   0  0  0  0  0  0  0  0  0  0  0  0
    6.4377  -17.7619   23.1459 O   0  0  0  0  0  0  0  0  0  0  0  0
    6.9449  -10.5934   26.1369 C   0  0  0  0  0  0  0  0  0  0  0  0
    6.3538  -12.2424   26.5790 S   0  0  0  0  0  0  0  0  0  0  0  0
    6.9822  -13.4798   25.4200 C   0  0  0  0  0  0  0  0  0  0  0  0
    6.7860  -14.8856   25.9277 C   0  0  0  0  0  0  0  0  0  0  0  0
    7.3003  -15.8890   24.9134 C   0  0  2  0  0  0  0  0  0  0  0  0
    7.0162  -17.2552   25.2937 N   0  0  0  0  0  0  0  0  0  0  0  0
    8.7649  -15.7738   24.7239 C   0  0  0  0  0  0  0  0  0  0  0  0
    9.5253  -15.8973   25.7146 O   0  0  0  0  0  0  0  0  0  0  0  0
    9.3406  -15.5260   23.4464 N   0  0  0  0  0  0  0  0  0  0  0  0
   10.7031  -15.0566   23.3921 C   0  0  0  0  0  0  0  0  0  0  0  0
   11.6698  -16.1835   23.3622 C   0  0  0  0  0  0  0  0  0  0  0  0
   11.7335  -16.9627   24.3495 O   0  0  0  0  0  0  0  0  0  0  0  0
   12.4791  -16.3595   22.2606 O   0  0  0  0  0  0  0  0  0  0  0  0
  2  1  1  0
  2  3  1  0
  3  4  2  0
  6  5  1  0
  7  6  1  0
  8  7  1  0
  9  8  1  1
 10  3  1  0
 10  9  1  0
 11  9  1  0
 11 12  2  0
 13 11  1  0
 14 13  1  0
 14 15  1  0
 15 16  2  0
 15 17  1  0
M  END
$$$$
