GMG.pdb
     RDKit          3D

 17 16  0  0  1  0  0  0  0  0999 V2000
    6.9170  -17.3417   21.1485 N   0  0  0  0  0  0  0  0  0  0  0  0
    7.8931  -16.3631   20.7067 C   0  0  0  0  0  0  0  0  0  0  0  0
    8.2669  -15.5471   21.8797 C   0  0  0  0  0  0  0  0  0  0  0  0
    9.1866  -14.6615   21.8153 O   0  0  0  0  0  0  0  0  0  0  0  0
    6.7360  -11.0452   27.6543 C   0  0  0  0  0  0  0  0  0  0  0  0
    6.5284  -12.0015   26.1355 S   0  0  0  0  0  0  0  0  0  0  0  0
    7.2217  -13.6608   26.3240 C   0  0  0  0  0  0  0  0  0  0  0  0
    6.8165  -14.5773   25.1978 C   0  0  0  0  0  0  0  0  0  0  0  0
    7.9779  -14.7875   24.2454 C   0  0  2  0  0  0  0  0  0  0  0  0
    7.6451  -15.6780   23.1552 N   0  0  0  0  0  0  0  0  0  0  0  0
    9.1588  -15.3526   24.9385 C   0  0  0  0  0  0  0  0  0  0  0  0
    9.7382  -14.6733   25.8204 O   0  0  0  0  0  0  0  0  0  0  0  0
    9.6602  -16.6490   24.6342 N   0  0  0  0  0  0  0  0  0  0  0  0
   10.8886  -17.0694   25.2617 C   0  0  0  0  0  0  0  0  0  0  0  0
   10.6323  -17.8588   26.4931 C   0  0  0  0  0  0  0  0  0  0  0  0
    9.9020  -17.3686   27.3945 O   0  0  0  0  0  0  0  0  0  0  0  0
   11.1942  -19.1097   26.6313 O   0  0  0  0  0  0  0  0  0  0  0  0
  2  1  1  0
  2  3  1  0
  3  4  2  0
  6  5  1  0
  7  6  1  0
  8  7  1  0
  9  8  1  1
 10  3  1  0
 10  9  1  0
 11  9  1  0
 11 12  2  0
 13 11  1  0
 14 13  1  0
 14 15  1  0
 15 16  2  0
 15 17  1  0
M  END
$$$$
