GMG.pdb
     RDKit          3D

 17 16  0  0  1  0  0  0  0  0999 V2000
    6.2744  -20.2429   19.3610 N   0  0  0  0  0  0  0  0  0  0  0  0
    5.9187  -19.4318   20.5104 C   0  0  0  0  0  0  0  0  0  0  0  0
    6.9192  -18.3508   20.6185 C   0  0  0  0  0  0  0  0  0  0  0  0
    8.0385  -18.4086   20.0036 O   0  0  0  0  0  0  0  0  0  0  0  0
    7.1232  -11.7607   19.3086 C   0  0  0  0  0  0  0  0  0  0  0  0
    7.4423  -12.0222   21.0675 S   0  0  0  0  0  0  0  0  0  0  0  0
    8.1307  -13.6693   21.3553 C   0  0  0  0  0  0  0  0  0  0  0  0
    7.0677  -14.7381   21.3518 C   0  0  0  0  0  0  0  0  0  0  0  0
    7.7031  -16.1137   21.4172 C   0  0  2  0  0  0  0  0  0  0  0  0
    6.7228  -17.1771   21.4025 N   0  0  0  0  0  0  0  0  0  0  0  0
    8.5236  -16.2799   22.6393 C   0  0  0  0  0  0  0  0  0  0  0  0
    7.9540  -16.4466   23.7451 O   0  0  0  0  0  0  0  0  0  0  0  0
    9.9458  -16.2564   22.5990 N   0  0  0  0  0  0  0  0  0  0  0  0
   10.6659  -16.4403   23.8348 C   0  0  0  0  0  0  0  0  0  0  0  0
   12.1352  -16.3988   23.6239 C   0  0  0  0  0  0  0  0  0  0  0  0
   12.5827  -16.2371   22.4578 O   0  0  0  0  0  0  0  0  0  0  0  0
   12.9836  -16.5373   24.7012 O   0  0  0  0  0  0  0  0  0  0  0  0
  2  1  1  0
  2  3  1  0
  3  4  2  0
  6  5  1  0
  7  6  1  0
  8  7  1  0
  9  8  1  1
 10  3  1  0
 10  9  1  0
 11  9  1  0
 11 12  2  0
 13 11  1  0
 14 13  1  0
 14 15  1  0
 15 16  2  0
 15 17  1  0
M  END
$$$$
