GMG.pdb
     RDKit          3D

 17 16  0  0  1  0  0  0  0  0999 V2000
    7.5825  -17.1130   19.8735 N   0  0  0  0  0  0  0  0  0  0  0  0
    7.1809  -17.2830   21.2575 C   0  0  0  0  0  0  0  0  0  0  0  0
    7.6426  -16.0949   22.0036 C   0  0  0  0  0  0  0  0  0  0  0  0
    8.4959  -15.2817   21.5088 O   0  0  0  0  0  0  0  0  0  0  0  0
    6.7766  -10.8711   27.9074 C   0  0  0  0  0  0  0  0  0  0  0  0
    6.0628  -12.2838   27.0363 S   0  0  0  0  0  0  0  0  0  0  0  0
    7.1803  -12.8679   25.7402 C   0  0  0  0  0  0  0  0  0  0  0  0
    6.6465  -14.0903   25.0379 C   0  0  0  0  0  0  0  0  0  0  0  0
    7.6241  -14.5576   23.9768 C   0  0  2  0  0  0  0  0  0  0  0  0
    7.1835  -15.7640   23.3115 N   0  0  0  0  0  0  0  0  0  0  0  0
    8.9642  -14.8268   24.5477 C   0  0  0  0  0  0  0  0  0  0  0  0
    9.5861  -13.9002   25.1218 O   0  0  0  0  0  0  0  0  0  0  0  0
    9.5725  -16.1106   24.4653 N   0  0  0  0  0  0  0  0  0  0  0  0
   10.8532  -16.3001   25.1004 C   0  0  0  0  0  0  0  0  0  0  0  0
   11.3431  -17.6928   24.9405 C   0  0  0  0  0  0  0  0  0  0  0  0
   11.6021  -18.3732   25.9681 O   0  0  0  0  0  0  0  0  0  0  0  0
   11.5065  -18.2180   23.6768 O   0  0  0  0  0  0  0  0  0  0  0  0
  2  1  1  0
  2  3  1  0
  3  4  2  0
  6  5  1  0
  7  6  1  0
  8  7  1  0
  9  8  1  1
 10  3  1  0
 10  9  1  0
 11  9  1  0
 11 12  2  0
 13 11  1  0
 14 13  1  0
 14 15  1  0
 15 16  2  0
 15 17  1  0
M  END
$$$$
