GMG.pdb
     RDKit          3D

 17 16  0  0  1  0  0  0  0  0999 V2000
   10.5566  -19.7470   27.9792 N   0  0  0  0  0  0  0  0  0  0  0  0
   11.2052  -18.6833   27.2353 C   0  0  0  0  0  0  0  0  0  0  0  0
   10.1450  -17.8107   26.6913 C   0  0  0  0  0  0  0  0  0  0  0  0
    8.9307  -18.2018   26.6088 O   0  0  0  0  0  0  0  0  0  0  0  0
    9.9731  -13.9184   30.1328 C   0  0  0  0  0  0  0  0  0  0  0  0
   10.4060  -14.3395   28.4301 S   0  0  0  0  0  0  0  0  0  0  0  0
    8.9956  -14.0816   27.3285 C   0  0  0  0  0  0  0  0  0  0  0  0
    9.3646  -14.2700   25.8791 C   0  0  0  0  0  0  0  0  0  0  0  0
    9.3600  -15.7438   25.5213 C   0  0  2  0  0  0  0  0  0  0  0  0
   10.3843  -16.4865   26.2222 N   0  0  0  0  0  0  0  0  0  0  0  0
    9.5695  -15.9554   24.0702 C   0  0  0  0  0  0  0  0  0  0  0  0
    8.7452  -15.4777   23.2533 O   0  0  0  0  0  0  0  0  0  0  0  0
   10.6824  -16.6877   23.5700 N   0  0  0  0  0  0  0  0  0  0  0  0
   10.7532  -16.9356   22.1512 C   0  0  0  0  0  0  0  0  0  0  0  0
   11.8478  -17.8809   21.8144 C   0  0  0  0  0  0  0  0  0  0  0  0
   12.4546  -18.4729   22.7458 O   0  0  0  0  0  0  0  0  0  0  0  0
   12.1822  -18.0958   20.4948 O   0  0  0  0  0  0  0  0  0  0  0  0
  2  1  1  0
  2  3  1  0
  3  4  2  0
  6  5  1  0
  7  6  1  0
  8  7  1  0
  9  8  1  6
 10  3  1  0
 10  9  1  0
 11  9  1  0
 11 12  2  0
 13 11  1  0
 14 13  1  0
 14 15  1  0
 15 16  2  0
 15 17  1  0
M  END
$$$$
