GMG.pdb
     RDKit          3D

 17 16  0  0  1  0  0  0  0  0999 V2000
    6.3913  -17.6723   20.9643 N   0  0  0  0  0  0  0  0  0  0  0  0
    6.1554  -17.5858   22.3934 C   0  0  0  0  0  0  0  0  0  0  0  0
    7.0263  -16.5174   22.9240 C   0  0  0  0  0  0  0  0  0  0  0  0
    7.8528  -15.8921   22.1756 O   0  0  0  0  0  0  0  0  0  0  0  0
    6.5113  -11.5012   27.8204 C   0  0  0  0  0  0  0  0  0  0  0  0
    6.5380  -11.6921   26.0240 S   0  0  0  0  0  0  0  0  0  0  0  0
    6.2134  -13.4087   25.5578 C   0  0  0  0  0  0  0  0  0  0  0  0
    7.3333  -14.3306   25.9684 C   0  0  0  0  0  0  0  0  0  0  0  0
    7.8922  -15.0529   24.7576 C   0  0  2  0  0  0  0  0  0  0  0  0
    7.0171  -16.1043   24.2878 N   0  0  0  0  0  0  0  0  0  0  0  0
    9.2102  -15.6647   25.0455 C   0  0  0  0  0  0  0  0  0  0  0  0
   10.2186  -14.9270   25.1637 O   0  0  0  0  0  0  0  0  0  0  0  0
    9.3703  -17.0709   25.1930 N   0  0  0  0  0  0  0  0  0  0  0  0
   10.6844  -17.5789   25.5008 C   0  0  0  0  0  0  0  0  0  0  0  0
   10.8741  -17.7570   26.9628 C   0  0  0  0  0  0  0  0  0  0  0  0
    9.8669  -17.7359   27.7186 O   0  0  0  0  0  0  0  0  0  0  0  0
   12.1426  -17.9418   27.4690 O   0  0  0  0  0  0  0  0  0  0  0  0
  2  1  1  0
  2  3  1  0
  3  4  2  0
  6  5  1  0
  7  6  1  0
  8  7  1  0
  9  8  1  1
 10  3  1  0
 10  9  1  0
 11  9  1  0
 11 12  2  0
 13 11  1  0
 14 13  1  0
 14 15  1  0
 15 16  2  0
 15 17  1  0
M  END
$$$$
