GMG.pdb
     RDKit          3D

 17 16  0  0  1  0  0  0  0  0999 V2000
    7.4299  -18.9356   19.6574 N   0  0  0  0  0  0  0  0  0  0  0  0
    7.3004  -18.7074   21.0845 C   0  0  0  0  0  0  0  0  0  0  0  0
    7.9727  -17.4291   21.3932 C   0  0  0  0  0  0  0  0  0  0  0  0
    9.0279  -17.0592   20.7736 O   0  0  0  0  0  0  0  0  0  0  0  0
    7.0800  -12.1247   19.7496 C   0  0  0  0  0  0  0  0  0  0  0  0
    7.5157  -13.5166   20.8159 S   0  0  0  0  0  0  0  0  0  0  0  0
    7.1743  -13.1272   22.5483 C   0  0  0  0  0  0  0  0  0  0  0  0
    7.4346  -14.3017   23.4568 C   0  0  0  0  0  0  0  0  0  0  0  0
    8.2730  -15.3446   22.7429 C   0  0  2  0  0  0  0  0  0  0  0  0
    7.5092  -16.5206   22.3886 N   0  0  0  0  0  0  0  0  0  0  0  0
    9.4170  -15.7887   23.5726 C   0  0  0  0  0  0  0  0  0  0  0  0
    9.1994  -16.2995   24.6981 O   0  0  0  0  0  0  0  0  0  0  0  0
   10.7631  -15.6537   23.1314 N   0  0  0  0  0  0  0  0  0  0  0  0
   11.8200  -15.9316   24.0723 C   0  0  0  0  0  0  0  0  0  0  0  0
   12.4995  -17.2166   23.7689 C   0  0  0  0  0  0  0  0  0  0  0  0
   12.0131  -17.9742   22.8882 O   0  0  0  0  0  0  0  0  0  0  0  0
   13.6464  -17.5601   24.4516 O   0  0  0  0  0  0  0  0  0  0  0  0
  2  1  1  0
  2  3  1  0
  3  4  2  0
  6  5  1  0
  7  6  1  0
  8  7  1  0
  9  8  1  1
 10  3  1  0
 10  9  1  0
 11  9  1  0
 11 12  2  0
 13 11  1  0
 14 13  1  0
 14 15  1  0
 15 16  2  0
 15 17  1  0
M  END
$$$$
