GMG.pdb
     RDKit          3D

 17 16  0  0  1  0  0  0  0  0999 V2000
    8.2289  -16.0770   20.1828 N   0  0  0  0  0  0  0  0  0  0  0  0
    7.4763  -16.4261   21.3732 C   0  0  0  0  0  0  0  0  0  0  0  0
    7.9806  -15.5881   22.4799 C   0  0  0  0  0  0  0  0  0  0  0  0
    8.9645  -14.7875   22.3207 O   0  0  0  0  0  0  0  0  0  0  0  0
    5.5694  -11.0108   27.0102 C   0  0  0  0  0  0  0  0  0  0  0  0
    7.1502  -11.6223   26.3848 S   0  0  0  0  0  0  0  0  0  0  0  0
    7.3874  -13.3581   26.8321 C   0  0  0  0  0  0  0  0  0  0  0  0
    6.8274  -14.2947   25.7920 C   0  0  0  0  0  0  0  0  0  0  0  0
    7.9155  -14.7197   24.8248 C   0  0  2  0  0  0  0  0  0  0  0  0
    7.4227  -15.6032   23.7911 N   0  0  0  0  0  0  0  0  0  0  0  0
    9.0222  -15.4183   25.5187 C   0  0  0  0  0  0  0  0  0  0  0  0
    9.3871  -15.0202   26.6515 O   0  0  0  0  0  0  0  0  0  0  0  0
    9.6890  -16.5332   24.9379 N   0  0  0  0  0  0  0  0  0  0  0  0
   10.6988  -17.2055   25.7176 C   0  0  0  0  0  0  0  0  0  0  0  0
   11.2488  -18.3845   25.0015 C   0  0  0  0  0  0  0  0  0  0  0  0
   10.8553  -18.6289   23.8304 O   0  0  0  0  0  0  0  0  0  0  0  0
   12.1769  -19.1901   25.6253 O   0  0  0  0  0  0  0  0  0  0  0  0
  2  1  1  0
  2  3  1  0
  3  4  2  0
  6  5  1  0
  7  6  1  0
  8  7  1  0
  9  8  1  1
 10  3  1  0
 10  9  1  0
 11  9  1  0
 11 12  2  0
 13 11  1  0
 14 13  1  0
 14 15  1  0
 15 16  2  0
 15 17  1  0
M  END
$$$$
