GMG.pdb
     RDKit          3D

 17 16  0  0  1  0  0  0  0  0999 V2000
    5.1611  -19.9948   22.7762 N   0  0  0  0  0  0  0  0  0  0  0  0
    5.7803  -19.5949   24.0261 C   0  0  0  0  0  0  0  0  0  0  0  0
    6.2636  -18.2092   23.8595 C   0  0  0  0  0  0  0  0  0  0  0  0
    6.3382  -17.6586   22.7082 O   0  0  0  0  0  0  0  0  0  0  0  0
    7.4042  -10.8134   26.0531 C   0  0  0  0  0  0  0  0  0  0  0  0
    6.7044  -12.4259   26.4707 S   0  0  0  0  0  0  0  0  0  0  0  0
    7.4681  -13.7312   25.4795 C   0  0  0  0  0  0  0  0  0  0  0  0
    6.9185  -15.0944   25.8145 C   0  0  0  0  0  0  0  0  0  0  0  0
    7.2674  -16.0865   24.7217 C   0  0  2  0  0  0  0  0  0  0  0  0
    6.6787  -17.3882   24.9478 N   0  0  0  0  0  0  0  0  0  0  0  0
    8.7317  -16.2740   24.5999 C   0  0  0  0  0  0  0  0  0  0  0  0
    9.3119  -17.0943   25.3519 O   0  0  0  0  0  0  0  0  0  0  0  0
    9.5062  -15.5491   23.6514 N   0  0  0  0  0  0  0  0  0  0  0  0
   10.7692  -16.1062   23.2342 C   0  0  0  0  0  0  0  0  0  0  0  0
   11.7488  -16.1386   24.3498 C   0  0  0  0  0  0  0  0  0  0  0  0
   12.2026  -15.0530   24.7987 O   0  0  0  0  0  0  0  0  0  0  0  0
   12.1453  -17.3495   24.8751 O   0  0  0  0  0  0  0  0  0  0  0  0
  2  1  1  0
  2  3  1  0
  3  4  2  0
  6  5  1  0
  7  6  1  0
  8  7  1  0
  9  8  1  1
 10  3  1  0
 10  9  1  0
 11  9  1  0
 11 12  2  0
 13 11  1  0
 14 13  1  0
 14 15  1  0
 15 16  2  0
 15 17  1  0
M  END
$$$$
