GMG.pdb
     RDKit          3D

 17 16  0  0  1  0  0  0  0  0999 V2000
    5.5009  -19.7979   22.7715 N   0  0  0  0  0  0  0  0  0  0  0  0
    5.7841  -18.6930   23.6686 C   0  0  0  0  0  0  0  0  0  0  0  0
    6.7854  -17.8304   23.0092 C   0  0  0  0  0  0  0  0  0  0  0  0
    7.3298  -18.1608   21.9008 O   0  0  0  0  0  0  0  0  0  0  0  0
    6.6732  -12.0970   19.3032 C   0  0  0  0  0  0  0  0  0  0  0  0
    7.5926  -12.4230   20.8239 S   0  0  0  0  0  0  0  0  0  0  0  0
    7.1673  -14.0480   21.4932 C   0  0  0  0  0  0  0  0  0  0  0  0
    7.8766  -14.3306   22.7930 C   0  0  0  0  0  0  0  0  0  0  0  0
    8.2410  -15.7999   22.8860 C   0  0  2  0  0  0  0  0  0  0  0  0
    7.2187  -16.5829   23.5446 N   0  0  0  0  0  0  0  0  0  0  0  0
    9.5067  -16.0039   23.6280 C   0  0  0  0  0  0  0  0  0  0  0  0
   10.5728  -15.5261   23.1697 O   0  0  0  0  0  0  0  0  0  0  0  0
    9.5525  -16.7291   24.8515 N   0  0  0  0  0  0  0  0  0  0  0  0
   10.8351  -16.9227   25.4817 C   0  0  0  0  0  0  0  0  0  0  0  0
   11.4777  -18.1861   25.0389 C   0  0  0  0  0  0  0  0  0  0  0  0
   11.7771  -18.3285   23.8239 O   0  0  0  0  0  0  0  0  0  0  0  0
   11.7359  -19.1794   25.9588 O   0  0  0  0  0  0  0  0  0  0  0  0
  2  1  1  0
  2  3  1  0
  3  4  2  0
  6  5  1  0
  7  6  1  0
  8  7  1  0
  9  8  1  1
 10  3  1  0
 10  9  1  0
 11  9  1  0
 11 12  2  0
 13 11  1  0
 14 13  1  0
 14 15  1  0
 15 16  2  0
 15 17  1  0
M  END
$$$$
