GMG.pdb
     RDKit          3D

 17 16  0  0  1  0  0  0  0  0999 V2000
    5.8086  -19.9737   22.9041 N   0  0  0  0  0  0  0  0  0  0  0  0
    6.0179  -19.4248   24.2309 C   0  0  0  0  0  0  0  0  0  0  0  0
    6.5477  -18.0559   24.0673 C   0  0  0  0  0  0  0  0  0  0  0  0
    6.8627  -17.5912   22.9187 O   0  0  0  0  0  0  0  0  0  0  0  0
    7.2111  -10.5410   26.2728 C   0  0  0  0  0  0  0  0  0  0  0  0
    6.3810  -12.1290   26.5038 S   0  0  0  0  0  0  0  0  0  0  0  0
    7.2040  -13.4262   25.5502 C   0  0  0  0  0  0  0  0  0  0  0  0
    6.6101  -14.7870   25.8112 C   0  0  0  0  0  0  0  0  0  0  0  0
    7.2848  -15.8319   24.9433 C   0  0  2  0  0  0  0  0  0  0  0  0
    6.7478  -17.1580   25.1556 N   0  0  0  0  0  0  0  0  0  0  0  0
    8.7430  -15.8950   25.1966 C   0  0  0  0  0  0  0  0  0  0  0  0
    9.1593  -15.9846   26.3771 O   0  0  0  0  0  0  0  0  0  0  0  0
    9.6924  -15.8570   24.1374 N   0  0  0  0  0  0  0  0  0  0  0  0
   11.0938  -15.8578   24.4777 C   0  0  0  0  0  0  0  0  0  0  0  0
   11.9512  -15.9330   23.2676 C   0  0  0  0  0  0  0  0  0  0  0  0
   11.4172  -16.1696   22.1518 O   0  0  0  0  0  0  0  0  0  0  0  0
   13.3116  -15.7439   23.3821 O   0  0  0  0  0  0  0  0  0  0  0  0
  2  1  1  0
  2  3  1  0
  3  4  2  0
  6  5  1  0
  7  6  1  0
  8  7  1  0
  9  8  1  1
 10  3  1  0
 10  9  1  0
 11  9  1  0
 11 12  2  0
 13 11  1  0
 14 13  1  0
 14 15  1  0
 15 16  2  0
 15 17  1  0
M  END
$$$$
