SMQ.pdb
     RDKit          3D

 24 23  0  0  1  0  0  0  0  0999 V2000
   20.2263  -13.0167  -22.0939 O   0  0  0  0  0  0  0  0  0  0  0  0
   20.5476  -12.4566  -20.8509 C   0  0  0  0  0  0  0  0  0  0  0  0
   21.8593  -12.9699  -20.3296 C   0  0  2  0  0  0  0  0  0  0  0  0
   21.7111  -14.3646  -19.9944 N   0  0  0  0  0  0  0  0  0  0  0  0
   22.3347  -12.1824  -19.1546 C   0  0  0  0  0  0  0  0  0  0  0  0
   21.7354  -12.3322  -18.0528 O   0  0  0  0  0  0  0  0  0  0  0  0
   26.9253  -10.0533  -14.4538 C   0  0  0  0  0  0  0  0  0  0  0  0
   26.2699  -10.7710  -15.9635 S   0  0  0  0  0  0  0  0  0  0  0  0
   26.0124   -9.5006  -17.2579 C   0  0  0  0  0  0  0  0  0  0  0  0
   25.3556  -10.1819  -18.4135 C   0  0  0  0  0  0  0  0  0  0  0  0
   23.9141  -10.5518  -18.1452 C   0  0  2  0  0  0  0  0  0  0  0  0
   23.4368  -11.2945  -19.3044 N   0  0  0  0  0  0  0  0  0  0  0  0
   23.1514   -9.2743  -17.9880 C   0  0  0  0  0  0  0  0  0  0  0  0
   22.9536   -8.5071  -18.9915 O   0  0  0  0  0  0  0  0  0  0  0  0
   18.2795   -8.0428  -15.5093 N   0  0  0  0  0  0  0  0  0  0  0  0
   18.7464   -6.7129  -15.4949 C   0  0  0  0  0  0  0  0  0  0  0  0
   17.9452   -5.7616  -15.5854 O   0  0  0  0  0  0  0  0  0  0  0  0
   20.2089   -6.3701  -15.3721 C   0  0  0  0  0  0  0  0  0  0  0  0
   21.0461   -7.6172  -15.4055 C   0  0  0  0  0  0  0  0  0  0  0  0
   21.9079   -7.6545  -16.6101 C   0  0  2  0  0  0  0  0  0  0  0  0
   22.6424   -8.9085  -16.7174 N   0  0  0  0  0  0  0  0  0  0  0  0
   22.8580   -6.5295  -16.6301 C   0  0  0  0  0  0  0  0  0  0  0  0
   22.7231   -5.4476  -17.2217 O   0  0  0  0  0  0  0  0  0  0  0  0
   24.0596   -6.6775  -15.9036 O   0  0  0  0  0  0  0  0  0  0  0  0
  2  1  1  0
  3  2  1  0
  3  4  1  1
  5  6  2  0
  5  3  1  0
  7  8  1  0
  8  9  1  0
  9 10  1  0
 11 10  1  6
 11 13  1  0
 11 12  1  0
 12  5  1  0
 13 21  1  0
 14 13  2  0
 16 15  1  0
 16 18  1  0
 17 16  2  0
 18 19  1  0
 20 19  1  1
 20 22  1  0
 21 20  1  0
 22 23  2  0
 22 24  1  0
M  END
$$$$
