SMQ.pdb
     RDKit          3D

 24 23  0  0  1  0  0  0  0  0999 V2000
   17.3323  -13.2088  -16.7591 O   0  0  0  0  0  0  0  0  0  0  0  0
   17.9672  -13.0028  -17.9905 C   0  0  0  0  0  0  0  0  0  0  0  0
   19.3963  -13.4641  -17.9659 C   0  0  2  0  0  0  0  0  0  0  0  0
   19.4246  -14.8677  -17.6362 N   0  0  0  0  0  0  0  0  0  0  0  0
   20.2181  -12.6701  -17.0063 C   0  0  0  0  0  0  0  0  0  0  0  0
   20.5514  -13.2111  -15.9146 O   0  0  0  0  0  0  0  0  0  0  0  0
   25.6986   -9.9684  -14.2154 C   0  0  0  0  0  0  0  0  0  0  0  0
   24.6130  -10.7331  -15.4241 S   0  0  0  0  0  0  0  0  0  0  0  0
   23.7188   -9.4794  -16.4162 C   0  0  0  0  0  0  0  0  0  0  0  0
   22.7036  -10.2111  -17.2316 C   0  0  0  0  0  0  0  0  0  0  0  0
   21.4759  -10.6035  -16.4408 C   0  0  2  0  0  0  0  0  0  0  0  0
   20.6001  -11.3409  -17.3422 N   0  0  0  0  0  0  0  0  0  0  0  0
   20.8190   -9.3383  -15.9866 C   0  0  0  0  0  0  0  0  0  0  0  0
   20.3228   -8.5217  -16.8363 O   0  0  0  0  0  0  0  0  0  0  0  0
   18.3506   -8.1931  -10.2292 N   0  0  0  0  0  0  0  0  0  0  0  0
   17.9020   -7.1565  -11.0726 C   0  0  0  0  0  0  0  0  0  0  0  0
   17.0951   -6.3043  -10.6509 O   0  0  0  0  0  0  0  0  0  0  0  0
   18.3609   -7.0204  -12.5017 C   0  0  0  0  0  0  0  0  0  0  0  0
   19.3027   -8.1348  -12.8602 C   0  0  0  0  0  0  0  0  0  0  0  0
   19.9152   -7.9143  -14.1911 C   0  0  2  0  0  0  0  0  0  0  0  0
   20.7443   -9.0394  -14.6037 N   0  0  0  0  0  0  0  0  0  0  0  0
   20.7185   -6.6804  -14.2188 C   0  0  0  0  0  0  0  0  0  0  0  0
   20.3005   -5.5189  -14.3406 O   0  0  0  0  0  0  0  0  0  0  0  0
   22.1189   -6.8109  -14.0948 O   0  0  0  0  0  0  0  0  0  0  0  0
  2  1  1  0
  3  2  1  0
  3  4  1  1
  5  6  2  0
  5  3  1  0
  7  8  1  0
  8  9  1  0
  9 10  1  0
 11 10  1  6
 11 13  1  0
 11 12  1  0
 12  5  1  0
 13 21  1  0
 14 13  2  0
 16 15  1  0
 16 18  1  0
 17 16  2  0
 18 19  1  0
 20 19  1  1
 20 22  1  0
 21 20  1  0
 22 23  2  0
 22 24  1  0
M  END
$$$$
