SMQ.pdb
     RDKit          3D

 24 23  0  0  1  0  0  0  0  0999 V2000
   26.3554  -19.3910  -15.3623 O   0  0  0  0  0  0  0  0  0  0  0  0
   27.6718  -19.6149  -14.9395 C   0  0  0  0  0  0  0  0  0  0  0  0
   27.8591  -21.0082  -14.4109 C   0  0  2  0  0  0  0  0  0  0  0  0
   27.6248  -21.9455  -15.4814 N   0  0  0  0  0  0  0  0  0  0  0  0
   26.9644  -21.2848  -13.2491 C   0  0  0  0  0  0  0  0  0  0  0  0
   26.0467  -22.1409  -13.3920 O   0  0  0  0  0  0  0  0  0  0  0  0
   26.2501  -19.8872   -5.4828 C   0  0  0  0  0  0  0  0  0  0  0  0
   27.0212  -19.5857   -7.0760 S   0  0  0  0  0  0  0  0  0  0  0  0
   26.1118  -20.4145   -8.4332 C   0  0  0  0  0  0  0  0  0  0  0  0
   26.8910  -20.1823   -9.6862 C   0  0  0  0  0  0  0  0  0  0  0  0
   26.2905  -20.8640  -10.8951 C   0  0  2  0  0  0  0  0  0  0  0  0
   27.1660  -20.5855  -12.0261 N   0  0  0  0  0  0  0  0  0  0  0  0
   24.9382  -20.2631  -11.1158 C   0  0  0  0  0  0  0  0  0  0  0  0
   24.8211  -19.0578  -11.5261 O   0  0  0  0  0  0  0  0  0  0  0  0
   21.5095  -20.3937  -16.2636 N   0  0  0  0  0  0  0  0  0  0  0  0
   21.6662  -21.0363  -15.0188 C   0  0  0  0  0  0  0  0  0  0  0  0
   21.5400  -22.2736  -14.9269 O   0  0  0  0  0  0  0  0  0  0  0  0
   21.9882  -20.2826  -13.7540 C   0  0  0  0  0  0  0  0  0  0  0  0
   22.0548  -21.2227  -12.5839 C   0  0  0  0  0  0  0  0  0  0  0  0
   22.5004  -20.5230  -11.3563 C   0  0  2  0  0  0  0  0  0  0  0  0
   23.7752  -21.0337  -10.8690 N   0  0  0  0  0  0  0  0  0  0  0  0
   21.4949  -20.6183  -10.2846 C   0  0  0  0  0  0  0  0  0  0  0  0
   21.6066  -21.2210   -9.2062 O   0  0  0  0  0  0  0  0  0  0  0  0
   20.2625  -19.9594  -10.4859 O   0  0  0  0  0  0  0  0  0  0  0  0
  2  1  1  0
  3  2  1  0
  3  4  1  6
  5  6  2  0
  5  3  1  0
  7  8  1  0
  8  9  1  0
  9 10  1  0
 11 10  1  1
 11 13  1  0
 11 12  1  0
 12  5  1  0
 13 21  1  0
 14 13  2  0
 16 15  1  0
 16 18  1  0
 17 16  2  0
 18 19  1  0
 20 19  1  6
 20 22  1  0
 21 20  1  0
 22 23  2  0
 22 24  1  0
M  END
$$$$
