SMQ.pdb
     RDKit          3D

 24 23  0  0  1  0  0  0  0  0999 V2000
   13.9059   -9.8995  -11.8686 O   0  0  0  0  0  0  0  0  0  0  0  0
   15.0155  -10.4280  -12.5405 C   0  0  0  0  0  0  0  0  0  0  0  0
   16.0862  -10.8732  -11.5860 C   0  0  2  0  0  0  0  0  0  0  0  0
   15.5029  -11.7732  -10.6220 N   0  0  0  0  0  0  0  0  0  0  0  0
   16.7431   -9.7155  -10.9114 C   0  0  0  0  0  0  0  0  0  0  0  0
   16.5551   -9.5607   -9.6719 O   0  0  0  0  0  0  0  0  0  0  0  0
   22.2610   -6.1035   -9.0116 C   0  0  0  0  0  0  0  0  0  0  0  0
   21.2154   -7.2044   -9.9701 S   0  0  0  0  0  0  0  0  0  0  0  0
   20.2788   -6.2958  -11.2558 C   0  0  0  0  0  0  0  0  0  0  0  0
   19.3604   -7.2794  -11.9037 C   0  0  0  0  0  0  0  0  0  0  0  0
   18.2395   -7.7340  -10.9962 C   0  0  2  0  0  0  0  0  0  0  0  0
   17.5538   -8.8274  -11.6726 N   0  0  0  0  0  0  0  0  0  0  0  0
   17.3189   -6.5690  -10.8122 C   0  0  0  0  0  0  0  0  0  0  0  0
   16.5772   -6.1679  -11.7734 O   0  0  0  0  0  0  0  0  0  0  0  0
   13.3239   -5.3085   -7.0795 N   0  0  0  0  0  0  0  0  0  0  0  0
   13.6199   -3.9487   -7.3043 C   0  0  0  0  0  0  0  0  0  0  0  0
   12.7662   -3.0701   -7.0711 O   0  0  0  0  0  0  0  0  0  0  0  0
   14.9556   -3.4873   -7.8280 C   0  0  0  0  0  0  0  0  0  0  0  0
   15.8893   -4.6534   -7.9880 C   0  0  0  0  0  0  0  0  0  0  0  0
   16.2949   -4.8278   -9.4023 C   0  0  2  0  0  0  0  0  0  0  0  0
   17.2661   -5.9022   -9.5633 N   0  0  0  0  0  0  0  0  0  0  0  0
   16.8468   -3.5832   -9.9637 C   0  0  0  0  0  0  0  0  0  0  0  0
   18.0384   -3.2400   -9.9923 O   0  0  0  0  0  0  0  0  0  0  0  0
   15.9381   -2.6670  -10.5366 O   0  0  0  0  0  0  0  0  0  0  0  0
  2  1  1  0
  3  2  1  0
  3  4  1  1
  5  6  2  0
  5  3  1  0
  7  8  1  0
  8  9  1  0
  9 10  1  0
 11 10  1  6
 11 13  1  0
 11 12  1  0
 12  5  1  0
 13 21  1  0
 14 13  2  0
 16 15  1  0
 16 18  1  0
 17 16  2  0
 18 19  1  0
 20 19  1  1
 20 22  1  0
 21 20  1  0
 22 23  2  0
 22 24  1  0
M  END
$$$$
