SMQ.pdb
     RDKit          3D

 24 23  0  0  1  0  0  0  0  0999 V2000
   29.8623  -21.3328  -15.6568 O   0  0  0  0  0  0  0  0  0  0  0  0
   28.6075  -20.9433  -16.1424 C   0  0  0  0  0  0  0  0  0  0  0  0
   27.9376  -19.9563  -15.2298 C   0  0  2  0  0  0  0  0  0  0  0  0
   28.9336  -19.0471  -14.7190 N   0  0  0  0  0  0  0  0  0  0  0  0
   27.2096  -20.6354  -14.1182 C   0  0  0  0  0  0  0  0  0  0  0  0
   26.6605  -21.7481  -14.3553 O   0  0  0  0  0  0  0  0  0  0  0  0
   26.2105  -20.4116   -6.2732 C   0  0  0  0  0  0  0  0  0  0  0  0
   26.8824  -19.7497   -7.8011 S   0  0  0  0  0  0  0  0  0  0  0  0
   26.1581  -20.5725   -9.2688 C   0  0  0  0  0  0  0  0  0  0  0  0
   26.9293  -20.1015  -10.4581 C   0  0  0  0  0  0  0  0  0  0  0  0
   26.4255  -20.6802  -11.7611 C   0  0  2  0  0  0  0  0  0  0  0  0
   27.1539  -20.0196  -12.8364 N   0  0  0  0  0  0  0  0  0  0  0  0
   24.9643  -20.3704  -11.8474 C   0  0  0  0  0  0  0  0  0  0  0  0
   24.5656  -19.1948  -12.1537 O   0  0  0  0  0  0  0  0  0  0  0  0
   21.9715  -24.6473  -14.8729 N   0  0  0  0  0  0  0  0  0  0  0  0
   20.9823  -23.6557  -14.7145 C   0  0  0  0  0  0  0  0  0  0  0  0
   19.8913  -23.7514  -15.3109 O   0  0  0  0  0  0  0  0  0  0  0  0
   21.1808  -22.4482  -13.8346 C   0  0  0  0  0  0  0  0  0  0  0  0
   22.5165  -22.5103  -13.1495 C   0  0  0  0  0  0  0  0  0  0  0  0
   22.7363  -21.3233  -12.2906 C   0  0  2  0  0  0  0  0  0  0  0  0
   24.0114  -21.3863  -11.5880 N   0  0  0  0  0  0  0  0  0  0  0  0
   21.6482  -21.1548  -11.3125 C   0  0  0  0  0  0  0  0  0  0  0  0
   21.7212  -21.2932  -10.0821 O   0  0  0  0  0  0  0  0  0  0  0  0
   20.3755  -20.7971  -11.8080 O   0  0  0  0  0  0  0  0  0  0  0  0
  2  1  1  0
  3  2  1  0
  3  4  1  1
  5  6  2  0
  5  3  1  0
  7  8  1  0
  8  9  1  0
  9 10  1  0
 11 10  1  1
 11 13  1  0
 11 12  1  0
 12  5  1  0
 13 21  1  0
 14 13  2  0
 16 15  1  0
 16 18  1  0
 17 16  2  0
 18 19  1  0
 20 19  1  1
 20 22  1  0
 21 20  1  0
 22 23  2  0
 22 24  1  0
M  END
$$$$
