SMQ.pdb
     RDKit          3D

 24 23  0  0  1  0  0  0  0  0999 V2000
   19.7162  -13.6343  -20.8156 O   0  0  0  0  0  0  0  0  0  0  0  0
   19.8653  -13.1308  -19.5170 C   0  0  0  0  0  0  0  0  0  0  0  0
   21.0092  -13.7820  -18.7937 C   0  0  2  0  0  0  0  0  0  0  0  0
   20.6233  -15.1224  -18.4275 N   0  0  0  0  0  0  0  0  0  0  0  0
   21.4258  -12.9965  -17.5953 C   0  0  0  0  0  0  0  0  0  0  0  0
   20.6976  -13.0478  -16.5643 O   0  0  0  0  0  0  0  0  0  0  0  0
   27.5134  -12.3843  -15.5126 C   0  0  0  0  0  0  0  0  0  0  0  0
   26.8771  -10.7103  -15.3835 S   0  0  0  0  0  0  0  0  0  0  0  0
   25.0510  -10.6920  -15.2388 C   0  0  0  0  0  0  0  0  0  0  0  0
   24.5115  -11.4125  -16.4308 C   0  0  0  0  0  0  0  0  0  0  0  0
   23.0003  -11.4303  -16.4816 C   0  0  2  0  0  0  0  0  0  0  0  0
   22.6174  -12.2200  -17.6447 N   0  0  0  0  0  0  0  0  0  0  0  0
   22.5459  -10.0130  -16.6347 C   0  0  0  0  0  0  0  0  0  0  0  0
   22.7522   -9.3781  -17.7252 O   0  0  0  0  0  0  0  0  0  0  0  0
   18.5885   -7.7667  -18.5769 N   0  0  0  0  0  0  0  0  0  0  0  0
   18.6661   -6.6401  -17.7333 C   0  0  0  0  0  0  0  0  0  0  0  0
   18.1181   -5.5684  -18.0595 O   0  0  0  0  0  0  0  0  0  0  0  0
   19.3995   -6.6640  -16.4169 C   0  0  0  0  0  0  0  0  0  0  0  0
   19.9112   -8.0460  -16.1248 C   0  0  0  0  0  0  0  0  0  0  0  0
   21.3555   -8.0265  -15.7950 C   0  0  2  0  0  0  0  0  0  0  0  0
   21.8810   -9.3659  -15.5640 N   0  0  0  0  0  0  0  0  0  0  0  0
   21.6299   -7.1851  -14.6179 C   0  0  0  0  0  0  0  0  0  0  0  0
   21.8019   -7.5665  -13.4502 O   0  0  0  0  0  0  0  0  0  0  0  0
   21.7100   -5.7898  -14.8180 O   0  0  0  0  0  0  0  0  0  0  0  0
  2  1  1  0
  3  2  1  0
  3  4  1  1
  5  6  2  0
  5  3  1  0
  7  8  1  0
  8  9  1  0
  9 10  1  0
 11 10  1  6
 11 13  1  0
 11 12  1  0
 12  5  1  0
 13 21  1  0
 14 13  2  0
 16 15  1  0
 16 18  1  0
 17 16  2  0
 18 19  1  0
 20 19  1  1
 20 22  1  0
 21 20  1  0
 22 23  2  0
 22 24  1  0
M  END
$$$$
