SMQ.pdb
     RDKit          3D

 24 23  0  0  1  0  0  0  0  0999 V2000
   18.5655  -13.6517  -20.3136 O   0  0  0  0  0  0  0  0  0  0  0  0
   19.0537  -13.4451  -19.0171 C   0  0  0  0  0  0  0  0  0  0  0  0
   20.5448  -13.6117  -18.9488 C   0  0  2  0  0  0  0  0  0  0  0  0
   20.8516  -15.0195  -18.8891 N   0  0  0  0  0  0  0  0  0  0  0  0
   21.1306  -12.8842  -17.7851 C   0  0  0  0  0  0  0  0  0  0  0  0
   20.9704  -13.3740  -16.6318 O   0  0  0  0  0  0  0  0  0  0  0  0
   26.5400  -10.1428  -14.1706 C   0  0  0  0  0  0  0  0  0  0  0  0
   25.7126  -10.7654  -15.6374 S   0  0  0  0  0  0  0  0  0  0  0  0
   24.4182   -9.6094  -16.2237 C   0  0  0  0  0  0  0  0  0  0  0  0
   23.6812  -10.3008  -17.3236 C   0  0  0  0  0  0  0  0  0  0  0  0
   22.4024  -10.9611  -16.8595 C   0  0  2  0  0  0  0  0  0  0  0  0
   21.8455  -11.6729  -18.0024 N   0  0  0  0  0  0  0  0  0  0  0  0
   21.4775   -9.8718  -16.4162 C   0  0  0  0  0  0  0  0  0  0  0  0
   20.8200   -9.1878  -17.2734 O   0  0  0  0  0  0  0  0  0  0  0  0
   18.0715   -9.6571  -11.1676 N   0  0  0  0  0  0  0  0  0  0  0  0
   17.7646   -8.4639  -11.8526 C   0  0  0  0  0  0  0  0  0  0  0  0
   16.8564   -7.7153  -11.4405 O   0  0  0  0  0  0  0  0  0  0  0  0
   18.4997   -8.0326  -13.0956 C   0  0  0  0  0  0  0  0  0  0  0  0
   19.5292   -9.0571  -13.4801 C   0  0  0  0  0  0  0  0  0  0  0  0
   20.3299   -8.6054  -14.6420 C   0  0  2  0  0  0  0  0  0  0  0  0
   21.3266   -9.5931  -15.0353 N   0  0  0  0  0  0  0  0  0  0  0  0
   20.9966   -7.3203  -14.3723 C   0  0  0  0  0  0  0  0  0  0  0  0
   22.1759   -7.1476  -14.0289 O   0  0  0  0  0  0  0  0  0  0  0  0
   20.2280   -6.1444  -14.5140 O   0  0  0  0  0  0  0  0  0  0  0  0
  2  1  1  0
  3  2  1  0
  3  4  1  1
  5  6  2  0
  5  3  1  0
  7  8  1  0
  8  9  1  0
  9 10  1  0
 11 10  1  6
 11 13  1  0
 11 12  1  0
 12  5  1  0
 13 21  1  0
 14 13  2  0
 16 15  1  0
 16 18  1  0
 17 16  2  0
 18 19  1  0
 20 19  1  1
 20 22  1  0
 21 20  1  0
 22 23  2  0
 22 24  1  0
M  END
$$$$
