SMQ.pdb
     RDKit          3D

 24 23  0  0  1  0  0  0  0  0999 V2000
   28.3688  -18.2330  -16.3673 O   0  0  0  0  0  0  0  0  0  0  0  0
   27.4740  -19.0082  -15.6188 C   0  0  0  0  0  0  0  0  0  0  0  0
   28.1694  -20.1343  -14.9089 C   0  0  2  0  0  0  0  0  0  0  0  0
   28.6288  -21.0868  -15.8893 N   0  0  0  0  0  0  0  0  0  0  0  0
   27.2821  -20.7858  -13.9014 C   0  0  0  0  0  0  0  0  0  0  0  0
   26.6276  -21.8073  -14.2532 O   0  0  0  0  0  0  0  0  0  0  0  0
   27.6404  -20.6813   -6.9730 C   0  0  0  0  0  0  0  0  0  0  0  0
   26.1707  -19.9062   -7.6534 S   0  0  0  0  0  0  0  0  0  0  0  0
   25.6412  -20.7140   -9.2100 C   0  0  0  0  0  0  0  0  0  0  0  0
   26.5147  -20.1803  -10.2977 C   0  0  0  0  0  0  0  0  0  0  0  0
   26.2513  -20.8224  -11.6412 C   0  0  2  0  0  0  0  0  0  0  0  0
   27.1978  -20.2459  -12.5873 N   0  0  0  0  0  0  0  0  0  0  0  0
   24.8468  -20.4806  -12.0272 C   0  0  0  0  0  0  0  0  0  0  0  0
   24.5408  -19.2908  -12.3814 O   0  0  0  0  0  0  0  0  0  0  0  0
   20.7703  -24.4108  -14.7484 N   0  0  0  0  0  0  0  0  0  0  0  0
   20.0590  -23.2019  -14.6083 C   0  0  0  0  0  0  0  0  0  0  0  0
   18.9091  -23.0883  -15.0773 O   0  0  0  0  0  0  0  0  0  0  0  0
   20.6336  -22.0025  -13.8994 C   0  0  0  0  0  0  0  0  0  0  0  0
   21.9929  -22.3208  -13.3441 C   0  0  0  0  0  0  0  0  0  0  0  0
   22.5513  -21.1704  -12.5960 C   0  0  2  0  0  0  0  0  0  0  0  0
   23.8448  -21.4819  -12.0012 N   0  0  0  0  0  0  0  0  0  0  0  0
   21.6289  -20.7104  -11.5441 C   0  0  0  0  0  0  0  0  0  0  0  0
   21.6851  -20.9735  -10.3333 O   0  0  0  0  0  0  0  0  0  0  0  0
   20.5570  -19.8786  -11.9347 O   0  0  0  0  0  0  0  0  0  0  0  0
  2  1  1  0
  3  2  1  0
  3  4  1  6
  5  6  2  0
  5  3  1  0
  7  8  1  0
  8  9  1  0
  9 10  1  0
 11 10  1  1
 11 13  1  0
 11 12  1  0
 12  5  1  0
 13 21  1  0
 14 13  2  0
 16 15  1  0
 16 18  1  0
 17 16  2  0
 18 19  1  0
 20 19  1  1
 20 22  1  0
 21 20  1  0
 22 23  2  0
 22 24  1  0
M  END
$$$$
