SMQ.pdb
     RDKit          3D

 24 23  0  0  1  0  0  0  0  0999 V2000
   16.8437  -13.0453  -11.2641 O   0  0  0  0  0  0  0  0  0  0  0  0
   16.8644  -11.6483  -11.1646 C   0  0  0  0  0  0  0  0  0  0  0  0
   15.6776  -11.1249  -10.4073 C   0  0  2  0  0  0  0  0  0  0  0  0
   14.4915  -11.7903  -10.8868 N   0  0  0  0  0  0  0  0  0  0  0  0
   15.5503   -9.6434  -10.5323 C   0  0  0  0  0  0  0  0  0  0  0  0
   15.0442   -9.1742  -11.5903 O   0  0  0  0  0  0  0  0  0  0  0  0
   13.2025   -3.3941   -7.3004 C   0  0  0  0  0  0  0  0  0  0  0  0
   13.6063   -5.1365   -7.4576 S   0  0  0  0  0  0  0  0  0  0  0  0
   15.2939   -5.3802   -8.1272 C   0  0  0  0  0  0  0  0  0  0  0  0
   15.5362   -6.8533   -8.1742 C   0  0  0  0  0  0  0  0  0  0  0  0
   15.8077   -7.3673   -9.5702 C   0  0  2  0  0  0  0  0  0  0  0  0
   15.9967   -8.8086   -9.4696 N   0  0  0  0  0  0  0  0  0  0  0  0
   17.0602   -6.7044  -10.0501 C   0  0  0  0  0  0  0  0  0  0  0  0
   18.1364   -6.7725   -9.3632 O   0  0  0  0  0  0  0  0  0  0  0  0
   20.6648   -8.0139  -14.1949 N   0  0  0  0  0  0  0  0  0  0  0  0
   21.1359   -6.7162  -13.9104 C   0  0  0  0  0  0  0  0  0  0  0  0
   22.2535   -6.3461  -14.3219 O   0  0  0  0  0  0  0  0  0  0  0  0
   20.3346   -5.7219  -13.1100 C   0  0  0  0  0  0  0  0  0  0  0  0
   19.0888   -6.3640  -12.5690 C   0  0  0  0  0  0  0  0  0  0  0  0
   18.3137   -5.4162  -11.7347 C   0  0  2  0  0  0  0  0  0  0  0  0
   17.0570   -5.9941  -11.2760 N   0  0  0  0  0  0  0  0  0  0  0  0
   18.0394   -4.1614  -12.4551 C   0  0  0  0  0  0  0  0  0  0  0  0
   16.9678   -3.8179  -12.9766 O   0  0  0  0  0  0  0  0  0  0  0  0
   19.0976   -3.2346  -12.5769 O   0  0  0  0  0  0  0  0  0  0  0  0
  2  1  1  0
  3  2  1  0
  3  4  1  6
  5  6  2  0
  5  3  1  0
  7  8  1  0
  8  9  1  0
  9 10  1  0
 11 10  1  1
 11 13  1  0
 11 12  1  0
 12  5  1  0
 13 21  1  0
 14 13  2  0
 16 15  1  0
 16 18  1  0
 17 16  2  0
 18 19  1  0
 20 19  1  6
 20 22  1  0
 21 20  1  0
 22 23  2  0
 22 24  1  0
M  END
$$$$
