SMQ.pdb
     RDKit          3D

 24 23  0  0  1  0  0  0  0  0999 V2000
   20.5940  -16.7939  -15.4429 O   0  0  0  0  0  0  0  0  0  0  0  0
   19.4207  -16.1453  -15.8484 C   0  0  0  0  0  0  0  0  0  0  0  0
   19.7106  -14.9757  -16.7449 C   0  0  2  0  0  0  0  0  0  0  0  0
   20.4731  -15.4381  -17.8782 N   0  0  0  0  0  0  0  0  0  0  0  0
   20.4306  -13.8877  -16.0206 C   0  0  0  0  0  0  0  0  0  0  0  0
   19.8952  -13.4037  -14.9840 O   0  0  0  0  0  0  0  0  0  0  0  0
   27.0908  -14.9735  -14.7626 C   0  0  0  0  0  0  0  0  0  0  0  0
   26.2415  -13.6708  -15.6601 S   0  0  0  0  0  0  0  0  0  0  0  0
   24.4653  -13.5948  -15.2185 C   0  0  0  0  0  0  0  0  0  0  0  0
   23.8517  -12.5244  -16.0602 C   0  0  0  0  0  0  0  0  0  0  0  0
   22.3702  -12.3490  -15.8129 C   0  0  2  0  0  0  0  0  0  0  0  0
   21.6859  -13.4299  -16.5106 N   0  0  0  0  0  0  0  0  0  0  0  0
   21.9799  -11.0229  -16.3852 C   0  0  0  0  0  0  0  0  0  0  0  0
   21.8365  -10.8758  -17.6472 O   0  0  0  0  0  0  0  0  0  0  0  0
   17.5419   -7.2966  -14.6810 N   0  0  0  0  0  0  0  0  0  0  0  0
   18.2388   -6.5178  -15.6270 C   0  0  0  0  0  0  0  0  0  0  0  0
   17.7727   -5.4276  -16.0133 O   0  0  0  0  0  0  0  0  0  0  0  0
   19.5587   -6.9476  -16.2141 C   0  0  0  0  0  0  0  0  0  0  0  0
   19.9546   -8.2974  -15.6863 C   0  0  0  0  0  0  0  0  0  0  0  0
   21.3238   -8.6635  -16.1181 C   0  0  2  0  0  0  0  0  0  0  0  0
   21.7665   -9.9183  -15.5240 N   0  0  0  0  0  0  0  0  0  0  0  0
   22.2936   -7.6028  -15.7971 C   0  0  0  0  0  0  0  0  0  0  0  0
   23.0811   -7.5749  -14.8391 O   0  0  0  0  0  0  0  0  0  0  0  0
   22.3498   -6.4872  -16.6607 O   0  0  0  0  0  0  0  0  0  0  0  0
  2  1  1  0
  3  2  1  0
  3  4  1  6
  5  6  2  0
  5  3  1  0
  7  8  1  0
  8  9  1  0
  9 10  1  0
 11 10  1  6
 11 13  1  0
 11 12  1  0
 12  5  1  0
 13 21  1  0
 14 13  2  0
 16 15  1  0
 16 18  1  0
 17 16  2  0
 18 19  1  0
 20 19  1  1
 20 22  1  0
 21 20  1  0
 22 23  2  0
 22 24  1  0
M  END
$$$$
