SMQ.pdb
     RDKit          3D

 24 23  0  0  1  0  0  0  0  0999 V2000
   27.3850  -18.2702  -14.4683 O   0  0  0  0  0  0  0  0  0  0  0  0
   27.8354  -19.3230  -15.2750 C   0  0  0  0  0  0  0  0  0  0  0  0
   28.3438  -20.4753  -14.4567 C   0  0  2  0  0  0  0  0  0  0  0  0
   28.7667  -21.5263  -15.3488 N   0  0  0  0  0  0  0  0  0  0  0  0
   27.3148  -20.9683  -13.4951 C   0  0  0  0  0  0  0  0  0  0  0  0
   26.4252  -21.7562  -13.9235 O   0  0  0  0  0  0  0  0  0  0  0  0
   28.1930  -20.2620   -7.2405 C   0  0  0  0  0  0  0  0  0  0  0  0
   26.4010  -20.3573   -7.1808 S   0  0  0  0  0  0  0  0  0  0  0  0
   25.6985  -20.8664   -8.7942 C   0  0  0  0  0  0  0  0  0  0  0  0
   26.7057  -20.5146   -9.8395 C   0  0  0  0  0  0  0  0  0  0  0  0
   26.2934  -20.9409  -11.2304 C   0  0  2  0  0  0  0  0  0  0  0  0
   27.3620  -20.5433  -12.1377 N   0  0  0  0  0  0  0  0  0  0  0  0
   25.0269  -20.2151  -11.5586 C   0  0  0  0  0  0  0  0  0  0  0  0
   25.0547  -18.9884  -11.9182 O   0  0  0  0  0  0  0  0  0  0  0  0
   23.0328  -21.9273  -16.3632 N   0  0  0  0  0  0  0  0  0  0  0  0
   21.9344  -21.1165  -16.0124 C   0  0  0  0  0  0  0  0  0  0  0  0
   21.0552  -20.8459  -16.8544 O   0  0  0  0  0  0  0  0  0  0  0  0
   21.7618  -20.5418  -14.6298 C   0  0  0  0  0  0  0  0  0  0  0  0
   22.8877  -20.9767  -13.7351 C   0  0  0  0  0  0  0  0  0  0  0  0
   22.7096  -20.4616  -12.3573 C   0  0  2  0  0  0  0  0  0  0  0  0
   23.7843  -20.8900  -11.4712 N   0  0  0  0  0  0  0  0  0  0  0  0
   21.4151  -20.8741  -11.7891 C   0  0  0  0  0  0  0  0  0  0  0  0
   21.2136  -21.7865  -10.9733 O   0  0  0  0  0  0  0  0  0  0  0  0
   20.2656  -20.1675  -12.2046 O   0  0  0  0  0  0  0  0  0  0  0  0
  2  1  1  0
  3  2  1  0
  3  4  1  6
  5  6  2  0
  5  3  1  0
  7  8  1  0
  8  9  1  0
  9 10  1  0
 11 10  1  1
 11 13  1  0
 11 12  1  0
 12  5  1  0
 13 21  1  0
 14 13  2  0
 16 15  1  0
 16 18  1  0
 17 16  2  0
 18 19  1  0
 20 19  1  6
 20 22  1  0
 21 20  1  0
 22 23  2  0
 22 24  1  0
M  END
$$$$
