SMQ.pdb
     RDKit          3D

 24 23  0  0  1  0  0  0  0  0999 V2000
   17.8822  -29.0941  -10.4933 O   0  0  0  0  0  0  0  0  0  0  0  0
   18.0753  -28.3089  -11.6370 C   0  0  0  0  0  0  0  0  0  0  0  0
   19.4075  -27.6156  -11.6199 C   0  0  2  0  0  0  0  0  0  0  0  0
   20.4481  -28.6084  -11.7250 N   0  0  0  0  0  0  0  0  0  0  0  0
   19.5822  -26.7817  -10.3948 C   0  0  0  0  0  0  0  0  0  0  0  0
   20.4177  -27.1620   -9.5270 O   0  0  0  0  0  0  0  0  0  0  0  0
   20.7115  -19.6735   -8.7337 C   0  0  0  0  0  0  0  0  0  0  0  0
   19.3537  -20.6473   -9.3909 S   0  0  0  0  0  0  0  0  0  0  0  0
   19.2211  -22.2713   -8.5538 C   0  0  0  0  0  0  0  0  0  0  0  0
   18.9881  -23.2931   -9.6180 C   0  0  0  0  0  0  0  0  0  0  0  0
   19.0856  -24.7141   -9.1100 C   0  0  2  0  0  0  0  0  0  0  0  0
   18.8126  -25.5949  -10.2382 N   0  0  0  0  0  0  0  0  0  0  0  0
   18.0424  -24.8776   -8.0500 C   0  0  0  0  0  0  0  0  0  0  0  0
   16.8027  -24.9263   -8.3594 O   0  0  0  0  0  0  0  0  0  0  0  0
   18.8538  -27.1384   -2.1465 N   0  0  0  0  0  0  0  0  0  0  0  0
   17.4628  -27.0189   -2.3410 C   0  0  0  0  0  0  0  0  0  0  0  0
   16.6659  -27.4835   -1.5018 O   0  0  0  0  0  0  0  0  0  0  0  0
   16.8702  -26.3378   -3.5478 C   0  0  0  0  0  0  0  0  0  0  0  0
   17.9570  -25.8547   -4.4659 C   0  0  0  0  0  0  0  0  0  0  0  0
   17.3939  -25.2724   -5.7065 C   0  0  2  0  0  0  0  0  0  0  0  0
   18.4281  -24.9798   -6.6906 N   0  0  0  0  0  0  0  0  0  0  0  0
   16.6248  -24.0477   -5.4282 C   0  0  0  0  0  0  0  0  0  0  0  0
   17.0201  -22.8767   -5.5337 O   0  0  0  0  0  0  0  0  0  0  0  0
   15.2905  -24.2003   -4.9929 O   0  0  0  0  0  0  0  0  0  0  0  0
  2  1  1  0
  3  2  1  0
  3  4  1  1
  5  6  2  0
  5  3  1  0
  7  8  1  0
  8  9  1  0
  9 10  1  0
 11 10  1  6
 11 13  1  0
 11 12  1  0
 12  5  1  0
 13 21  1  0
 14 13  2  0
 16 15  1  0
 16 18  1  0
 17 16  2  0
 18 19  1  0
 20 19  1  1
 20 22  1  0
 21 20  1  0
 22 23  2  0
 22 24  1  0
M  END
$$$$
