SMQ.pdb
     RDKit          3D

 24 23  0  0  1  0  0  0  0  0999 V2000
   26.0275  -18.8542  -16.0588 O   0  0  0  0  0  0  0  0  0  0  0  0
   26.8282  -19.8550  -16.6238 C   0  0  0  0  0  0  0  0  0  0  0  0
   27.6404  -20.5733  -15.5845 C   0  0  2  0  0  0  0  0  0  0  0  0
   28.4059  -21.6110  -16.2300 N   0  0  0  0  0  0  0  0  0  0  0  0
   26.7816  -21.1344  -14.5008 C   0  0  0  0  0  0  0  0  0  0  0  0
   26.2129  -22.2441  -14.7030 O   0  0  0  0  0  0  0  0  0  0  0  0
   25.3015  -20.5349   -6.7700 C   0  0  0  0  0  0  0  0  0  0  0  0
   26.1081  -19.9820   -8.2759 S   0  0  0  0  0  0  0  0  0  0  0  0
   25.4734  -20.8710   -9.7465 C   0  0  0  0  0  0  0  0  0  0  0  0
   26.2491  -20.3769  -10.9235 C   0  0  0  0  0  0  0  0  0  0  0  0
   25.7760  -20.9613  -12.2355 C   0  0  2  0  0  0  0  0  0  0  0  0
   26.6277  -20.4137  -13.2833 N   0  0  0  0  0  0  0  0  0  0  0  0
   24.3578  -20.5254  -12.4285 C   0  0  0  0  0  0  0  0  0  0  0  0
   24.0848  -19.3116  -12.7233 O   0  0  0  0  0  0  0  0  0  0  0  0
   21.2233  -24.0536  -15.4314 N   0  0  0  0  0  0  0  0  0  0  0  0
   21.2470  -22.7222  -15.8935 C   0  0  0  0  0  0  0  0  0  0  0  0
   21.1884  -22.4768  -17.1148 O   0  0  0  0  0  0  0  0  0  0  0  0
   21.3424  -21.5431  -14.9596 C   0  0  0  0  0  0  0  0  0  0  0  0
   21.2812  -21.9987  -13.5292 C   0  0  0  0  0  0  0  0  0  0  0  0
   21.9561  -21.0353  -12.6284 C   0  0  2  0  0  0  0  0  0  0  0  0
   23.3058  -21.4633  -12.2839 N   0  0  0  0  0  0  0  0  0  0  0  0
   21.1834  -20.8172  -11.3938 C   0  0  0  0  0  0  0  0  0  0  0  0
   21.5604  -21.0222  -10.2300 O   0  0  0  0  0  0  0  0  0  0  0  0
   19.8682  -20.3211  -11.5265 O   0  0  0  0  0  0  0  0  0  0  0  0
  2  1  1  0
  3  2  1  0
  3  4  1  6
  5  6  2  0
  5  3  1  0
  7  8  1  0
  8  9  1  0
  9 10  1  0
 11 10  1  1
 11 13  1  0
 11 12  1  0
 12  5  1  0
 13 21  1  0
 14 13  2  0
 16 15  1  0
 16 18  1  0
 17 16  2  0
 18 19  1  0
 20 19  1  6
 20 22  1  0
 21 20  1  0
 22 23  2  0
 22 24  1  0
M  END
$$$$
