SMQ.pdb
     RDKit          3D

 24 23  0  0  1  0  0  0  0  0999 V2000
   17.8102  -15.1085  -18.0796 O   0  0  0  0  0  0  0  0  0  0  0  0
   18.6736  -14.3474  -17.2814 C   0  0  0  0  0  0  0  0  0  0  0  0
   19.9654  -15.0655  -17.0143 C   0  0  2  0  0  0  0  0  0  0  0  0
   19.6815  -16.2709  -16.2755 N   0  0  0  0  0  0  0  0  0  0  0  0
   20.9375  -14.2025  -16.2815 C   0  0  0  0  0  0  0  0  0  0  0  0
   20.7240  -13.9666  -15.0590 O   0  0  0  0  0  0  0  0  0  0  0  0
   28.4421  -12.0863  -16.0047 C   0  0  0  0  0  0  0  0  0  0  0  0
   27.0677  -13.0714  -16.6084 S   0  0  0  0  0  0  0  0  0  0  0  0
   25.4658  -12.4633  -15.9605 C   0  0  0  0  0  0  0  0  0  0  0  0
   24.3946  -13.2719  -16.6159 C   0  0  0  0  0  0  0  0  0  0  0  0
   22.9991  -12.8163  -16.2530 C   0  0  2  0  0  0  0  0  0  0  0  0
   22.0653  -13.6745  -16.9704 N   0  0  0  0  0  0  0  0  0  0  0  0
   22.8649  -11.3970  -16.7069 C   0  0  0  0  0  0  0  0  0  0  0  0
   22.6686  -11.1244  -17.9406 O   0  0  0  0  0  0  0  0  0  0  0  0
   21.8192   -6.1660  -13.1569 N   0  0  0  0  0  0  0  0  0  0  0  0
   21.8474   -5.7342  -14.4985 C   0  0  0  0  0  0  0  0  0  0  0  0
   21.5962   -4.5468  -14.7848 O   0  0  0  0  0  0  0  0  0  0  0  0
   22.1754   -6.6617  -15.6402 C   0  0  0  0  0  0  0  0  0  0  0  0
   22.4849   -8.0393  -15.1267 C   0  0  0  0  0  0  0  0  0  0  0  0
   22.7507   -8.9811  -16.2391 C   0  0  2  0  0  0  0  0  0  0  0  0
   22.9556  -10.3434  -15.7640 N   0  0  0  0  0  0  0  0  0  0  0  0
   23.9162   -8.5617  -17.0356 C   0  0  0  0  0  0  0  0  0  0  0  0
   25.1119   -8.7627  -16.7738 O   0  0  0  0  0  0  0  0  0  0  0  0
   23.6682   -7.8524  -18.2309 O   0  0  0  0  0  0  0  0  0  0  0  0
  2  1  1  0
  3  2  1  0
  3  4  1  1
  5  6  2  0
  5  3  1  0
  7  8  1  0
  8  9  1  0
  9 10  1  0
 11 10  1  6
 11 13  1  0
 11 12  1  0
 12  5  1  0
 13 21  1  0
 14 13  2  0
 16 15  1  0
 16 18  1  0
 17 16  2  0
 18 19  1  0
 20 19  1  1
 20 22  1  0
 21 20  1  0
 22 23  2  0
 22 24  1  0
M  END
$$$$
