SMQ.pdb
     RDKit          3D

 24 23  0  0  1  0  0  0  0  0999 V2000
   25.8094   -9.3619  -19.8153 O   0  0  0  0  0  0  0  0  0  0  0  0
   24.6809   -8.8264  -19.1814 C   0  0  0  0  0  0  0  0  0  0  0  0
   23.9143   -9.8747  -18.4270 C   0  0  2  0  0  0  0  0  0  0  0  0
   23.3417  -10.8006  -19.3727 N   0  0  0  0  0  0  0  0  0  0  0  0
   22.8603   -9.2727  -17.5590 C   0  0  0  0  0  0  0  0  0  0  0  0
   21.7040   -9.1175  -18.0432 O   0  0  0  0  0  0  0  0  0  0  0  0
   18.8836   -9.5015  -11.5609 C   0  0  0  0  0  0  0  0  0  0  0  0
   20.2530   -9.8885  -12.6558 S   0  0  0  0  0  0  0  0  0  0  0  0
   21.2299   -8.3947  -13.0681 C   0  0  0  0  0  0  0  0  0  0  0  0
   22.3159   -8.8265  -13.9983 C   0  0  0  0  0  0  0  0  0  0  0  0
   22.1571   -8.2724  -15.3962 C   0  0  2  0  0  0  0  0  0  0  0  0
   23.1815   -8.8941  -16.2253 N   0  0  0  0  0  0  0  0  0  0  0  0
   22.3724   -6.7941  -15.3135 C   0  0  0  0  0  0  0  0  0  0  0  0
   23.5430   -6.2986  -15.4511 O   0  0  0  0  0  0  0  0  0  0  0  0
   22.5824   -3.6654  -19.4072 N   0  0  0  0  0  0  0  0  0  0  0  0
   22.2819   -2.5984  -18.5364 C   0  0  0  0  0  0  0  0  0  0  0  0
   22.3662   -1.4185  -18.9312 O   0  0  0  0  0  0  0  0  0  0  0  0
   21.8509   -2.8161  -17.1087 C   0  0  0  0  0  0  0  0  0  0  0  0
   21.8413   -4.2820  -16.7797 C   0  0  0  0  0  0  0  0  0  0  0  0
   21.4389   -4.5151  -15.3730 C   0  0  2  0  0  0  0  0  0  0  0  0
   21.2717   -5.9330  -15.0807 N   0  0  0  0  0  0  0  0  0  0  0  0
   20.1961   -3.7986  -15.0404 C   0  0  0  0  0  0  0  0  0  0  0  0
   19.0411   -4.2496  -15.0752 O   0  0  0  0  0  0  0  0  0  0  0  0
   20.3087   -2.4507  -14.6356 O   0  0  0  0  0  0  0  0  0  0  0  0
  2  1  1  0
  3  2  1  0
  3  4  1  6
  5  6  2  0
  5  3  1  0
  7  8  1  0
  8  9  1  0
  9 10  1  0
 11 10  1  1
 11 13  1  0
 11 12  1  0
 12  5  1  0
 13 21  1  0
 14 13  2  0
 16 15  1  0
 16 18  1  0
 17 16  2  0
 18 19  1  0
 20 19  1  6
 20 22  1  0
 21 20  1  0
 22 23  2  0
 22 24  1  0
M  END
$$$$
