KEA.pdb
     RDKit          3D

 24 23  0  0  1  0  0  0  0  0999 V2000
   10.2924  -24.9442   17.8910 N   0  0  0  0  0  0  0  0  0  0  0  0
   11.1859  -23.8468   17.9909 C   0  0  1  0  0  0  0  0  0  0  0  0
   10.6565  -22.4978   17.6809 C   0  0  0  0  0  0  0  0  0  0  0  0
    9.9464  -22.3704   16.3871 C   0  0  0  0  0  0  0  0  0  0  0  0
    9.4778  -20.9856   16.0857 C   0  0  0  0  0  0  0  0  0  0  0  0
    8.8095  -20.9853   14.7058 C   0  0  0  0  0  0  0  0  0  0  0  0
    8.3608  -19.6464   14.4236 N   0  0  0  0  0  0  0  0  0  0  0  0
   11.9490  -23.8558   19.2933 C   0  0  0  0  0  0  0  0  0  0  0  0
   11.5248  -24.6231   20.1675 O   0  0  0  0  0  0  0  0  0  0  0  0
   13.0798  -23.0621   19.5534 N   0  0  0  0  0  0  0  0  0  0  0  0
   13.7607  -23.2027   20.7913 C   0  0  1  0  0  0  0  0  0  0  0  0
   15.2714  -22.9784   20.6658 C   0  0  0  0  0  0  0  0  0  0  0  0
   15.8422  -23.9079   19.5958 C   0  0  0  0  0  0  0  0  0  0  0  0
   17.2597  -23.6488   19.3394 C   0  0  0  0  0  0  0  0  0  0  0  0
   17.6438  -22.7365   18.5638 O   0  0  0  0  0  0  0  0  0  0  0  0
   13.3014  -22.3422   21.8855 C   0  0  0  0  0  0  0  0  0  0  0  0
   13.2155  -21.0984   21.5936 O   0  0  0  0  0  0  0  0  0  0  0  0
   18.2217  -24.4228   19.9608 O   0  0  0  0  0  0  0  0  0  0  0  0
   11.2653  -22.4754   24.8707 C   0  0  0  0  0  0  0  0  0  0  0  0
   12.4061  -21.8131   24.1118 C   0  0  2  0  0  0  0  0  0  0  0  0
   12.9630  -22.7706   23.1773 N   0  0  0  0  0  0  0  0  0  0  0  0
   13.4538  -21.4315   25.0971 C   0  0  0  0  0  0  0  0  0  0  0  0
   13.1988  -20.6030   25.9974 O   0  0  0  0  0  0  0  0  0  0  0  0
   14.7320  -21.9698   25.0582 O   0  0  0  0  0  0  0  0  0  0  0  0
  2  1  1  1
  3  2  1  0
  4  3  1  0
  5  4  1  0
  6  5  1  0
  7  6  1  0
  8  2  1  0
  8  9  2  0
 10  8  1  0
 11 10  1  0
 11 12  1  6
 12 13  1  0
 14 13  1  0
 15 14  2  0
 16 11  1  0
 17 16  2  0
 18 14  1  0
 20 19  1  1
 20 21  1  0
 21 16  1  0
 22 24  1  0
 22 20  1  0
 23 22  2  0
M  END
$$$$
