KEA.pdb
     RDKit          3D

 24 23  0  0  1  0  0  0  0  0999 V2000
    6.0301  -15.5240   21.3958 N   0  0  0  0  0  0  0  0  0  0  0  0
    7.3611  -15.1015   21.6458 C   0  0  1  0  0  0  0  0  0  0  0  0
    7.6680  -13.6609   21.4828 C   0  0  0  0  0  0  0  0  0  0  0  0
    7.5061  -13.1229   20.1121 C   0  0  0  0  0  0  0  0  0  0  0  0
    8.5732  -13.5535   19.1612 C   0  0  0  0  0  0  0  0  0  0  0  0
    8.2392  -13.0024   17.7699 C   0  0  0  0  0  0  0  0  0  0  0  0
    9.2681  -13.4303   16.8578 N   0  0  0  0  0  0  0  0  0  0  0  0
    7.8866  -15.6341   22.9568 C   0  0  0  0  0  0  0  0  0  0  0  0
    7.1230  -15.5421   23.9271 O   0  0  0  0  0  0  0  0  0  0  0  0
    9.1579  -16.2103   23.1243 N   0  0  0  0  0  0  0  0  0  0  0  0
    9.5164  -16.7543   24.3859 C   0  0  1  0  0  0  0  0  0  0  0  0
   10.6245  -17.8078   24.2840 C   0  0  0  0  0  0  0  0  0  0  0  0
   10.9657  -18.3319   25.6780 C   0  0  0  0  0  0  0  0  0  0  0  0
   12.0709  -19.2911   25.6513 C   0  0  0  0  0  0  0  0  0  0  0  0
   13.2691  -18.9359   25.7913 O   0  0  0  0  0  0  0  0  0  0  0  0
    9.9465  -15.7948   25.4072 C   0  0  0  0  0  0  0  0  0  0  0  0
   10.9673  -15.0900   25.0891 O   0  0  0  0  0  0  0  0  0  0  0  0
   11.8079  -20.6355   25.4665 O   0  0  0  0  0  0  0  0  0  0  0  0
    8.9075  -13.5874   27.9164 C   0  0  0  0  0  0  0  0  0  0  0  0
    9.9327  -14.6631   27.5883 C   0  0  2  0  0  0  0  0  0  0  0  0
    9.3410  -15.6034   26.6576 N   0  0  0  0  0  0  0  0  0  0  0  0
   10.2704  -15.3767   28.8495 C   0  0  0  0  0  0  0  0  0  0  0  0
    9.9204  -16.5654   29.0129 O   0  0  0  0  0  0  0  0  0  0  0  0
   10.9747  -14.7640   29.8761 O   0  0  0  0  0  0  0  0  0  0  0  0
  2  1  1  1
  3  2  1  0
  4  3  1  0
  5  4  1  0
  6  5  1  0
  7  6  1  0
  8  2  1  0
  8  9  2  0
 10  8  1  0
 11 10  1  0
 11 12  1  6
 12 13  1  0
 14 13  1  0
 15 14  2  0
 16 11  1  0
 17 16  2  0
 18 14  1  0
 20 19  1  1
 20 21  1  0
 21 16  1  0
 22 24  1  0
 22 20  1  0
 23 22  2  0
M  END
$$$$
