KEA.pdb
     RDKit          3D

 24 23  0  0  1  0  0  0  0  0999 V2000
    6.7774  -16.4122   21.3607 N   0  0  0  0  0  0  0  0  0  0  0  0
    7.8690  -15.5819   21.7238 C   0  0  1  0  0  0  0  0  0  0  0  0
    7.6410  -14.1179   21.7504 C   0  0  0  0  0  0  0  0  0  0  0  0
    7.1933  -13.5163   20.4729 C   0  0  0  0  0  0  0  0  0  0  0  0
    8.2796  -13.3632   19.4606 C   0  0  0  0  0  0  0  0  0  0  0  0
    7.6802  -12.7499   18.1896 C   0  0  0  0  0  0  0  0  0  0  0  0
    8.7261  -12.6421   17.2058 N   0  0  0  0  0  0  0  0  0  0  0  0
    8.5474  -16.0592   22.9849 C   0  0  0  0  0  0  0  0  0  0  0  0
    7.8012  -16.3348   23.9337 O   0  0  0  0  0  0  0  0  0  0  0  0
    9.9385  -16.2014   23.1299 N   0  0  0  0  0  0  0  0  0  0  0  0
   10.4671  -16.6701   24.3615 C   0  0  1  0  0  0  0  0  0  0  0  0
   11.8483  -17.3153   24.2067 C   0  0  0  0  0  0  0  0  0  0  0  0
   11.7042  -18.6885   23.5526 C   0  0  0  0  0  0  0  0  0  0  0  0
   12.9587  -19.1497   22.9562 C   0  0  0  0  0  0  0  0  0  0  0  0
   13.0271  -19.5485   21.7655 O   0  0  0  0  0  0  0  0  0  0  0  0
   10.5883  -15.6787   25.4344 C   0  0  0  0  0  0  0  0  0  0  0  0
   11.4021  -14.7198   25.1930 O   0  0  0  0  0  0  0  0  0  0  0  0
   14.1162  -19.1548   23.7119 O   0  0  0  0  0  0  0  0  0  0  0  0
    8.8809  -13.8306   27.7856 C   0  0  0  0  0  0  0  0  0  0  0  0
   10.1483  -14.6577   27.6257 C   0  0  2  0  0  0  0  0  0  0  0  0
    9.9017  -15.7070   26.6569 N   0  0  0  0  0  0  0  0  0  0  0  0
   10.4626  -15.2770   28.9417 C   0  0  0  0  0  0  0  0  0  0  0  0
   10.7156  -14.5570   29.9314 O   0  0  0  0  0  0  0  0  0  0  0  0
   10.4867  -16.6527   29.1210 O   0  0  0  0  0  0  0  0  0  0  0  0
  2  1  1  1
  3  2  1  0
  4  3  1  0
  5  4  1  0
  6  5  1  0
  7  6  1  0
  8  2  1  0
  8  9  2  0
 10  8  1  0
 11 10  1  0
 11 12  1  6
 12 13  1  0
 14 13  1  0
 15 14  2  0
 16 11  1  0
 17 16  2  0
 18 14  1  0
 20 19  1  1
 20 21  1  0
 21 16  1  0
 22 24  1  0
 22 20  1  0
 23 22  2  0
M  END
$$$$
