KEA.pdb
     RDKit          3D

 24 23  0  0  1  0  0  0  0  0999 V2000
    6.3422  -17.0944   21.0005 N   0  0  0  0  0  0  0  0  0  0  0  0
    7.7314  -16.9327   21.2381 C   0  0  1  0  0  0  0  0  0  0  0  0
    8.4356  -15.8587   20.4986 C   0  0  0  0  0  0  0  0  0  0  0  0
    7.9085  -14.4894   20.7023 C   0  0  0  0  0  0  0  0  0  0  0  0
    8.5315  -13.4614   19.8171 C   0  0  0  0  0  0  0  0  0  0  0  0
    7.9557  -12.0882   20.1826 C   0  0  0  0  0  0  0  0  0  0  0  0
    8.5346  -11.1084   19.3003 N   0  0  0  0  0  0  0  0  0  0  0  0
    8.0518  -16.8908   22.7126 C   0  0  0  0  0  0  0  0  0  0  0  0
    7.1653  -16.4393   23.4497 O   0  0  0  0  0  0  0  0  0  0  0  0
    9.2667  -17.3250   23.2710 N   0  0  0  0  0  0  0  0  0  0  0  0
    9.4408  -17.2844   24.6796 C   0  0  1  0  0  0  0  0  0  0  0  0
   10.6073  -18.1553   25.1581 C   0  0  0  0  0  0  0  0  0  0  0  0
   10.6403  -18.1768   26.6855 C   0  0  0  0  0  0  0  0  0  0  0  0
   11.7348  -19.0000   27.2018 C   0  0  0  0  0  0  0  0  0  0  0  0
   12.8317  -19.1112   26.5971 O   0  0  0  0  0  0  0  0  0  0  0  0
    9.6415  -15.9580   25.2702 C   0  0  0  0  0  0  0  0  0  0  0  0
   10.6043  -15.2824   24.7639 O   0  0  0  0  0  0  0  0  0  0  0  0
   11.5750  -19.6855   28.3916 O   0  0  0  0  0  0  0  0  0  0  0  0
    7.9522  -13.2787   26.9941 C   0  0  0  0  0  0  0  0  0  0  0  0
    9.2295  -14.0843   26.8057 C   0  0  2  0  0  0  0  0  0  0  0  0
    8.8819  -15.4008   26.3091 N   0  0  0  0  0  0  0  0  0  0  0  0
    9.8851  -14.2246   28.1341 C   0  0  0  0  0  0  0  0  0  0  0  0
    9.9720  -15.3468   28.6773 O   0  0  0  0  0  0  0  0  0  0  0  0
   10.4171  -13.1366   28.8111 O   0  0  0  0  0  0  0  0  0  0  0  0
  2  1  1  1
  3  2  1  0
  4  3  1  0
  5  4  1  0
  6  5  1  0
  7  6  1  0
  8  2  1  0
  8  9  2  0
 10  8  1  0
 11 10  1  0
 11 12  1  6
 12 13  1  0
 14 13  1  0
 15 14  2  0
 16 11  1  0
 17 16  2  0
 18 14  1  0
 20 19  1  1
 20 21  1  0
 21 16  1  0
 22 24  1  0
 22 20  1  0
 23 22  2  0
M  END
$$$$
