KEA.pdb
     RDKit          3D

 24 23  0  0  1  0  0  0  0  0999 V2000
    5.9320  -15.8333   21.7169 N   0  0  0  0  0  0  0  0  0  0  0  0
    7.2080  -15.2295   21.8585 C   0  0  1  0  0  0  0  0  0  0  0  0
    7.2817  -13.7512   21.7860 C   0  0  0  0  0  0  0  0  0  0  0  0
    7.3409  -13.1793   20.4208 C   0  0  0  0  0  0  0  0  0  0  0  0
    8.4861  -13.6777   19.6032 C   0  0  0  0  0  0  0  0  0  0  0  0
    8.4796  -12.9459   18.2559 C   0  0  0  0  0  0  0  0  0  0  0  0
    9.5404  -13.4860   17.4455 N   0  0  0  0  0  0  0  0  0  0  0  0
    7.9560  -15.7627   23.0563 C   0  0  0  0  0  0  0  0  0  0  0  0
    7.3283  -15.7877   24.1233 O   0  0  0  0  0  0  0  0  0  0  0  0
    9.2859  -16.2171   23.0207 N   0  0  0  0  0  0  0  0  0  0  0  0
    9.8802  -16.7281   24.2047 C   0  0  1  0  0  0  0  0  0  0  0  0
   11.2028  -17.4548   23.9381 C   0  0  0  0  0  0  0  0  0  0  0  0
   11.7352  -18.0483   25.2414 C   0  0  0  0  0  0  0  0  0  0  0  0
   13.0206  -18.7232   25.0553 C   0  0  0  0  0  0  0  0  0  0  0  0
   14.1158  -18.1098   25.1301 O   0  0  0  0  0  0  0  0  0  0  0  0
   10.1463  -15.7556   25.2686 C   0  0  0  0  0  0  0  0  0  0  0  0
   10.9464  -14.8091   24.9461 O   0  0  0  0  0  0  0  0  0  0  0  0
   13.0508  -20.0790   24.7872 O   0  0  0  0  0  0  0  0  0  0  0  0
    8.8019  -13.8183   27.7053 C   0  0  0  0  0  0  0  0  0  0  0  0
    9.9831  -14.7574   27.5080 C   0  0  2  0  0  0  0  0  0  0  0  0
    9.6063  -15.7890   26.5624 N   0  0  0  0  0  0  0  0  0  0  0  0
   10.2915  -15.3904   28.8188 C   0  0  0  0  0  0  0  0  0  0  0  0
   10.6449  -14.6869   29.7895 O   0  0  0  0  0  0  0  0  0  0  0  0
   10.2007  -16.7611   29.0140 O   0  0  0  0  0  0  0  0  0  0  0  0
  2  1  1  1
  3  2  1  0
  4  3  1  0
  5  4  1  0
  6  5  1  0
  7  6  1  0
  8  2  1  0
  8  9  2  0
 10  8  1  0
 11 10  1  0
 11 12  1  6
 12 13  1  0
 14 13  1  0
 15 14  2  0
 16 11  1  0
 17 16  2  0
 18 14  1  0
 20 19  1  1
 20 21  1  0
 21 16  1  0
 22 24  1  0
 22 20  1  0
 23 22  2  0
M  END
$$$$
