KEA.pdb
     RDKit          3D

 24 23  0  0  1  0  0  0  0  0999 V2000
    8.7401  -17.3569   19.7730 N   0  0  0  0  0  0  0  0  0  0  0  0
    9.3764  -16.3117   20.4910 C   0  0  1  0  0  0  0  0  0  0  0  0
    8.6225  -15.0504   20.6829 C   0  0  0  0  0  0  0  0  0  0  0  0
    8.2078  -14.3572   19.4412 C   0  0  0  0  0  0  0  0  0  0  0  0
    7.4001  -13.1239   19.6755 C   0  0  0  0  0  0  0  0  0  0  0  0
    7.1848  -12.4181   18.3315 C   0  0  0  0  0  0  0  0  0  0  0  0
    6.5762  -13.3556   17.4236 N   0  0  0  0  0  0  0  0  0  0  0  0
    9.9768  -16.8001   21.7870 C   0  0  0  0  0  0  0  0  0  0  0  0
    9.3320  -17.6658   22.3936 O   0  0  0  0  0  0  0  0  0  0  0  0
   11.1915  -16.3356   22.3209 N   0  0  0  0  0  0  0  0  0  0  0  0
   11.6661  -16.8742   23.5459 C   0  0  1  0  0  0  0  0  0  0  0  0
   13.0951  -16.4294   23.8749 C   0  0  0  0  0  0  0  0  0  0  0  0
   14.0486  -16.9136   22.7837 C   0  0  0  0  0  0  0  0  0  0  0  0
   15.4364  -16.5375   23.0573 C   0  0  0  0  0  0  0  0  0  0  0  0
   15.8616  -15.3682   22.8747 O   0  0  0  0  0  0  0  0  0  0  0  0
   10.8575  -16.5912   24.7353 C   0  0  0  0  0  0  0  0  0  0  0  0
   10.8176  -15.3584   25.0793 O   0  0  0  0  0  0  0  0  0  0  0  0
   16.3232  -17.4859   23.5317 O   0  0  0  0  0  0  0  0  0  0  0  0
    8.0289  -17.4260   26.6367 C   0  0  0  0  0  0  0  0  0  0  0  0
    9.5176  -17.1230   26.7253 C   0  0  2  0  0  0  0  0  0  0  0  0
   10.1529  -17.5395   25.4910 N   0  0  0  0  0  0  0  0  0  0  0  0
   10.0818  -17.9142   27.8521 C   0  0  0  0  0  0  0  0  0  0  0  0
   10.8903  -18.8405   27.6276 O   0  0  0  0  0  0  0  0  0  0  0  0
    9.7407  -17.6608   29.1730 O   0  0  0  0  0  0  0  0  0  0  0  0
  2  1  1  1
  3  2  1  0
  4  3  1  0
  5  4  1  0
  6  5  1  0
  7  6  1  0
  8  2  1  0
  8  9  2  0
 10  8  1  0
 11 10  1  0
 11 12  1  1
 12 13  1  0
 14 13  1  0
 15 14  2  0
 16 11  1  0
 17 16  2  0
 18 14  1  0
 20 19  1  6
 20 21  1  0
 21 16  1  0
 22 24  1  0
 22 20  1  0
 23 22  2  0
M  END
$$$$
