KEA.pdb
     RDKit          3D

 24 23  0  0  1  0  0  0  0  0999 V2000
    8.9069  -17.4857   20.7738 N   0  0  0  0  0  0  0  0  0  0  0  0
    9.7892  -16.4905   21.2675 C   0  0  1  0  0  0  0  0  0  0  0  0
    9.4846  -15.0774   20.9412 C   0  0  0  0  0  0  0  0  0  0  0  0
    8.2836  -14.8587   20.1020 C   0  0  0  0  0  0  0  0  0  0  0  0
    7.9606  -13.4202   19.8679 C   0  0  0  0  0  0  0  0  0  0  0  0
    6.7003  -13.3377   18.9985 C   0  0  0  0  0  0  0  0  0  0  0  0
    6.4347  -11.9496   18.7222 N   0  0  0  0  0  0  0  0  0  0  0  0
   10.0767  -16.6690   22.7385 C   0  0  0  0  0  0  0  0  0  0  0  0
    9.1094  -16.9728   23.4493 O   0  0  0  0  0  0  0  0  0  0  0  0
   11.3464  -16.5126   23.3214 N   0  0  0  0  0  0  0  0  0  0  0  0
   11.5133  -16.7675   24.7082 C   0  0  1  0  0  0  0  0  0  0  0  0
   12.9175  -17.2753   25.0528 C   0  0  0  0  0  0  0  0  0  0  0  0
   13.9413  -16.1705   24.7964 C   0  0  0  0  0  0  0  0  0  0  0  0
   15.3131  -16.6254   25.0278 C   0  0  0  0  0  0  0  0  0  0  0  0
   15.9381  -16.3563   26.0853 O   0  0  0  0  0  0  0  0  0  0  0  0
   11.2432  -15.6448   25.6111 C   0  0  0  0  0  0  0  0  0  0  0  0
   11.9430  -14.5953   25.3907 O   0  0  0  0  0  0  0  0  0  0  0  0
   15.9587  -17.3757   24.0629 O   0  0  0  0  0  0  0  0  0  0  0  0
    8.8902  -13.9035   27.5536 C   0  0  0  0  0  0  0  0  0  0  0  0
   10.2822  -14.5182   27.5720 C   0  0  2  0  0  0  0  0  0  0  0  0
   10.3085  -15.6415   26.6566 N   0  0  0  0  0  0  0  0  0  0  0  0
   10.5498  -15.0098   28.9507 C   0  0  0  0  0  0  0  0  0  0  0  0
   10.6615  -16.2349   29.1712 O   0  0  0  0  0  0  0  0  0  0  0  0
   10.6843  -14.1450   30.0275 O   0  0  0  0  0  0  0  0  0  0  0  0
  2  1  1  1
  3  2  1  0
  4  3  1  0
  5  4  1  0
  6  5  1  0
  7  6  1  0
  8  2  1  0
  8  9  2  0
 10  8  1  0
 11 10  1  0
 11 12  1  6
 12 13  1  0
 14 13  1  0
 15 14  2  0
 16 11  1  0
 17 16  2  0
 18 14  1  0
 20 19  1  1
 20 21  1  0
 21 16  1  0
 22 24  1  0
 22 20  1  0
 23 22  2  0
M  END
$$$$
