KEA.pdb
     RDKit          3D

 24 23  0  0  1  0  0  0  0  0999 V2000
    6.7055  -16.2898   20.3809 N   0  0  0  0  0  0  0  0  0  0  0  0
    7.6685  -15.4121   20.9420 C   0  0  1  0  0  0  0  0  0  0  0  0
    7.3918  -13.9575   20.8820 C   0  0  0  0  0  0  0  0  0  0  0  0
    7.1578  -13.4057   19.5273 C   0  0  0  0  0  0  0  0  0  0  0  0
    8.3545  -13.4560   18.6364 C   0  0  0  0  0  0  0  0  0  0  0  0
    7.9957  -12.7989   17.2985 C   0  0  0  0  0  0  0  0  0  0  0  0
    9.1218  -12.9393   16.4121 N   0  0  0  0  0  0  0  0  0  0  0  0
    8.0828  -15.8396   22.3292 C   0  0  0  0  0  0  0  0  0  0  0  0
    7.1682  -15.9760   23.1527 O   0  0  0  0  0  0  0  0  0  0  0  0
    9.4116  -16.0825   22.7187 N   0  0  0  0  0  0  0  0  0  0  0  0
    9.6904  -16.4334   24.0659 C   0  0  1  0  0  0  0  0  0  0  0  0
   11.0199  -17.1793   24.2212 C   0  0  0  0  0  0  0  0  0  0  0  0
   10.8762  -18.6033   23.6865 C   0  0  0  0  0  0  0  0  0  0  0  0
   12.1385  -19.3424   23.7397 C   0  0  0  0  0  0  0  0  0  0  0  0
   12.9834  -19.2920   22.8097 O   0  0  0  0  0  0  0  0  0  0  0  0
    9.7162  -15.3306   25.0312 C   0  0  0  0  0  0  0  0  0  0  0  0
   10.7739  -14.6095   24.9979 O   0  0  0  0  0  0  0  0  0  0  0  0
   12.4277  -20.1272   24.8402 O   0  0  0  0  0  0  0  0  0  0  0  0
    7.4658  -13.2961   27.1009 C   0  0  0  0  0  0  0  0  0  0  0  0
    8.8484  -13.8518   26.7913 C   0  0  2  0  0  0  0  0  0  0  0  0
    8.7029  -15.0235   25.9508 N   0  0  0  0  0  0  0  0  0  0  0  0
    9.4814  -14.2527   28.0768 C   0  0  0  0  0  0  0  0  0  0  0  0
    9.7088  -13.3977   28.9597 O   0  0  0  0  0  0  0  0  0  0  0  0
    9.8380  -15.5668   28.3435 O   0  0  0  0  0  0  0  0  0  0  0  0
  2  1  1  1
  3  2  1  0
  4  3  1  0
  5  4  1  0
  6  5  1  0
  7  6  1  0
  8  2  1  0
  8  9  2  0
 10  8  1  0
 11 10  1  0
 11 12  1  6
 12 13  1  0
 14 13  1  0
 15 14  2  0
 16 11  1  0
 17 16  2  0
 18 14  1  0
 20 19  1  1
 20 21  1  0
 21 16  1  0
 22 24  1  0
 22 20  1  0
 23 22  2  0
M  END
$$$$
