KEA.pdb
     RDKit          3D

 24 23  0  0  1  0  0  0  0  0999 V2000
    5.9247  -16.6366   21.6254 N   0  0  0  0  0  0  0  0  0  0  0  0
    7.2349  -16.1003   21.7157 C   0  0  1  0  0  0  0  0  0  0  0  0
    7.4223  -14.6762   21.3511 C   0  0  0  0  0  0  0  0  0  0  0  0
    7.7262  -14.4150   19.9250 C   0  0  0  0  0  0  0  0  0  0  0  0
    7.8755  -12.9677   19.5914 C   0  0  0  0  0  0  0  0  0  0  0  0
    8.0659  -12.8326   18.0761 C   0  0  0  0  0  0  0  0  0  0  0  0
    8.0465  -11.4317   17.7435 N   0  0  0  0  0  0  0  0  0  0  0  0
    7.8884  -16.4236   23.0374 C   0  0  0  0  0  0  0  0  0  0  0  0
    7.1458  -16.4163   24.0281 O   0  0  0  0  0  0  0  0  0  0  0  0
    9.2532  -16.7226   23.1932 N   0  0  0  0  0  0  0  0  0  0  0  0
    9.7569  -17.0293   24.4848 C   0  0  1  0  0  0  0  0  0  0  0  0
   11.0597  -17.8348   24.4372 C   0  0  0  0  0  0  0  0  0  0  0  0
   11.4541  -18.2590   25.8510 C   0  0  0  0  0  0  0  0  0  0  0  0
   12.7232  -18.9878   25.8742 C   0  0  0  0  0  0  0  0  0  0  0  0
   13.3684  -19.2421   24.8253 O   0  0  0  0  0  0  0  0  0  0  0  0
   10.0044  -15.8890   25.3720 C   0  0  0  0  0  0  0  0  0  0  0  0
   10.8178  -15.0139   24.9111 O   0  0  0  0  0  0  0  0  0  0  0  0
   13.2443  -19.4191   27.0798 O   0  0  0  0  0  0  0  0  0  0  0  0
    8.4387  -13.7414   27.6469 C   0  0  0  0  0  0  0  0  0  0  0  0
    9.7375  -14.4847   27.3707 C   0  0  2  0  0  0  0  0  0  0  0  0
    9.4341  -15.6984   26.6389 N   0  0  0  0  0  0  0  0  0  0  0  0
   10.3475  -14.8468   28.6787 C   0  0  0  0  0  0  0  0  0  0  0  0
   10.6241  -13.9571   29.5117 O   0  0  0  0  0  0  0  0  0  0  0  0
   10.6284  -16.1618   29.0212 O   0  0  0  0  0  0  0  0  0  0  0  0
  2  1  1  1
  3  2  1  0
  4  3  1  0
  5  4  1  0
  6  5  1  0
  7  6  1  0
  8  2  1  0
  8  9  2  0
 10  8  1  0
 11 10  1  0
 11 12  1  6
 12 13  1  0
 14 13  1  0
 15 14  2  0
 16 11  1  0
 17 16  2  0
 18 14  1  0
 20 19  1  1
 20 21  1  0
 21 16  1  0
 22 24  1  0
 22 20  1  0
 23 22  2  0
M  END
$$$$
