KEA.pdb
     RDKit          3D

 24 23  0  0  1  0  0  0  0  0999 V2000
    7.1256  -17.6471   19.6429 N   0  0  0  0  0  0  0  0  0  0  0  0
    8.1319  -16.7912   20.1599 C   0  0  1  0  0  0  0  0  0  0  0  0
    7.7446  -15.4026   20.5033 C   0  0  0  0  0  0  0  0  0  0  0  0
    7.3528  -14.5459   19.3602 C   0  0  0  0  0  0  0  0  0  0  0  0
    8.0451  -13.2238   19.3273 C   0  0  0  0  0  0  0  0  0  0  0  0
    7.4816  -12.4061   18.1590 C   0  0  0  0  0  0  0  0  0  0  0  0
    8.1521  -11.1319   18.1372 N   0  0  0  0  0  0  0  0  0  0  0  0
    8.9075  -17.4421   21.2794 C   0  0  0  0  0  0  0  0  0  0  0  0
    8.2525  -18.1505   22.0554 O   0  0  0  0  0  0  0  0  0  0  0  0
   10.2909  -17.2886   21.4772 N   0  0  0  0  0  0  0  0  0  0  0  0
   10.9241  -17.9814   22.5426 C   0  0  1  0  0  0  0  0  0  0  0  0
   12.4482  -18.0343   22.3924 C   0  0  0  0  0  0  0  0  0  0  0  0
   13.0343  -18.9919   23.4287 C   0  0  0  0  0  0  0  0  0  0  0  0
   14.4874  -19.1167   23.3046 C   0  0  0  0  0  0  0  0  0  0  0  0
   15.2798  -18.3945   23.9618 O   0  0  0  0  0  0  0  0  0  0  0  0
   10.6558  -17.4789   23.8932 C   0  0  0  0  0  0  0  0  0  0  0  0
   11.0872  -16.2954   24.1237 O   0  0  0  0  0  0  0  0  0  0  0  0
   15.0240  -20.0532   22.4410 O   0  0  0  0  0  0  0  0  0  0  0  0
    8.2975  -17.6088   26.5404 C   0  0  0  0  0  0  0  0  0  0  0  0
    9.7754  -17.5272   26.1868 C   0  0  2  0  0  0  0  0  0  0  0  0
    9.9859  -18.1769   24.9085 N   0  0  0  0  0  0  0  0  0  0  0  0
   10.5400  -18.2577   27.2337 C   0  0  0  0  0  0  0  0  0  0  0  0
   11.1808  -19.2896   26.9398 O   0  0  0  0  0  0  0  0  0  0  0  0
   10.5727  -17.8312   28.5536 O   0  0  0  0  0  0  0  0  0  0  0  0
  2  1  1  1
  3  2  1  0
  4  3  1  0
  5  4  1  0
  6  5  1  0
  7  6  1  0
  8  2  1  0
  8  9  2  0
 10  8  1  0
 11 10  1  0
 11 12  1  6
 12 13  1  0
 14 13  1  0
 15 14  2  0
 16 11  1  0
 17 16  2  0
 18 14  1  0
 20 19  1  1
 20 21  1  0
 21 16  1  0
 22 24  1  0
 22 20  1  0
 23 22  2  0
M  END
$$$$
