KEA.pdb
     RDKit          3D

 24 23  0  0  1  0  0  0  0  0999 V2000
    9.9096  -17.3800   17.5243 N   0  0  0  0  0  0  0  0  0  0  0  0
   10.6861  -18.2908   18.2861 C   0  0  1  0  0  0  0  0  0  0  0  0
   11.2037  -19.4969   17.5981 C   0  0  0  0  0  0  0  0  0  0  0  0
   12.1145  -19.2423   16.4579 C   0  0  0  0  0  0  0  0  0  0  0  0
   12.9454  -20.4201   16.0701 C   0  0  0  0  0  0  0  0  0  0  0  0
   13.8924  -19.9993   14.9400 C   0  0  0  0  0  0  0  0  0  0  0  0
   14.7075  -21.1338   14.5904 N   0  0  0  0  0  0  0  0  0  0  0  0
   11.7712  -17.5918   19.0688 C   0  0  0  0  0  0  0  0  0  0  0  0
   12.5020  -16.8283   18.4237 O   0  0  0  0  0  0  0  0  0  0  0  0
   11.9853  -17.7597   20.4480 N   0  0  0  0  0  0  0  0  0  0  0  0
   13.0319  -17.0411   21.0839 C   0  0  1  0  0  0  0  0  0  0  0  0
   12.8173  -16.8936   22.5940 C   0  0  0  0  0  0  0  0  0  0  0  0
   13.9802  -16.1133   23.2049 C   0  0  0  0  0  0  0  0  0  0  0  0
   13.7980  -15.8847   24.6391 C   0  0  0  0  0  0  0  0  0  0  0  0
   14.6431  -15.2607   25.3302 O   0  0  0  0  0  0  0  0  0  0  0  0
   14.3858  -17.5738   20.9056 C   0  0  0  0  0  0  0  0  0  0  0  0
   14.4990  -18.8346   21.0990 O   0  0  0  0  0  0  0  0  0  0  0  0
   12.6661  -16.3640   25.2715 O   0  0  0  0  0  0  0  0  0  0  0  0
   17.3176  -17.1126   18.9637 C   0  0  0  0  0  0  0  0  0  0  0  0
   16.7729  -17.5186   20.3255 C   0  0  2  0  0  0  0  0  0  0  0  0
   15.5192  -16.8276   20.5516 N   0  0  0  0  0  0  0  0  0  0  0  0
   17.7547  -17.0926   21.3593 C   0  0  0  0  0  0  0  0  0  0  0  0
   18.9220  -17.5388   21.3401 O   0  0  0  0  0  0  0  0  0  0  0  0
   17.4213  -16.1995   22.3675 O   0  0  0  0  0  0  0  0  0  0  0  0
  2  1  1  6
  3  2  1  0
  4  3  1  0
  5  4  1  0
  6  5  1  0
  7  6  1  0
  8  2  1  0
  8  9  2  0
 10  8  1  0
 11 10  1  0
 11 12  1  1
 12 13  1  0
 14 13  1  0
 15 14  2  0
 16 11  1  0
 17 16  2  0
 18 14  1  0
 20 19  1  6
 20 21  1  0
 21 16  1  0
 22 24  1  0
 22 20  1  0
 23 22  2  0
M  END
$$$$
