KEA.pdb
     RDKit          3D

 24 23  0  0  1  0  0  0  0  0999 V2000
    6.6311  -15.9014   21.1629 N   0  0  0  0  0  0  0  0  0  0  0  0
    7.7529  -15.1798   21.6460 C   0  0  1  0  0  0  0  0  0  0  0  0
    7.6533  -13.7020   21.6911 C   0  0  0  0  0  0  0  0  0  0  0  0
    7.7455  -13.0139   20.3825 C   0  0  0  0  0  0  0  0  0  0  0  0
    8.4634  -13.7973   19.3341 C   0  0  0  0  0  0  0  0  0  0  0  0
    8.3779  -13.0322   18.0081 C   0  0  0  0  0  0  0  0  0  0  0  0
    9.0311  -13.8173   16.9929 N   0  0  0  0  0  0  0  0  0  0  0  0
    8.2663  -15.7397   22.9505 C   0  0  0  0  0  0  0  0  0  0  0  0
    7.4946  -15.6656   23.9160 O   0  0  0  0  0  0  0  0  0  0  0  0
    9.5351  -16.3218   23.1170 N   0  0  0  0  0  0  0  0  0  0  0  0
    9.9115  -16.8208   24.3919 C   0  0  1  0  0  0  0  0  0  0  0  0
   11.1151  -17.7669   24.3264 C   0  0  0  0  0  0  0  0  0  0  0  0
   11.4288  -18.2977   25.7244 C   0  0  0  0  0  0  0  0  0  0  0  0
   12.5987  -19.1773   25.7306 C   0  0  0  0  0  0  0  0  0  0  0  0
   13.2961  -19.3710   24.7023 O   0  0  0  0  0  0  0  0  0  0  0  0
   10.2250  -15.8181   25.4141 C   0  0  0  0  0  0  0  0  0  0  0  0
   11.2167  -15.0569   25.1363 O   0  0  0  0  0  0  0  0  0  0  0  0
   12.9633  -19.8252   26.8960 O   0  0  0  0  0  0  0  0  0  0  0  0
    8.8496  -13.6321   27.7739 C   0  0  0  0  0  0  0  0  0  0  0  0
    9.9894  -14.6136   27.5429 C   0  0  2  0  0  0  0  0  0  0  0  0
    9.5409  -15.6421   26.6256 N   0  0  0  0  0  0  0  0  0  0  0  0
   10.3270  -15.2422   28.8487 C   0  0  0  0  0  0  0  0  0  0  0  0
   10.7421  -14.5405   29.7960 O   0  0  0  0  0  0  0  0  0  0  0  0
   10.1969  -16.6067   29.0644 O   0  0  0  0  0  0  0  0  0  0  0  0
  2  1  1  1
  3  2  1  0
  4  3  1  0
  5  4  1  0
  6  5  1  0
  7  6  1  0
  8  2  1  0
  8  9  2  0
 10  8  1  0
 11 10  1  0
 11 12  1  6
 12 13  1  0
 14 13  1  0
 15 14  2  0
 16 11  1  0
 17 16  2  0
 18 14  1  0
 20 19  1  1
 20 21  1  0
 21 16  1  0
 22 24  1  0
 22 20  1  0
 23 22  2  0
M  END
$$$$
