HTY.pdb
     RDKit          3D

 30 31  0  0  1  0  0  0  0  0999 V2000
   10.8136  -19.8768   12.8670 N   0  0  0  0  0  0  0  0  0  0  0  0
   11.1928  -21.1541   13.4108 C   0  0  1  0  0  0  0  0  0  0  0  0
   12.5050  -21.5456   12.7248 C   0  0  0  0  0  0  0  0  0  0  0  0
   12.1676  -21.8349   11.3071 C   0  0  0  0  0  0  0  0  0  0  0  0
   11.4033  -22.8680   10.8059 C   0  0  0  0  0  0  0  0  0  0  0  0
   11.3450  -22.7667    9.4714 N   0  0  0  0  0  0  0  0  0  0  0  0
   12.0664  -21.6773    9.1225 C   0  0  0  0  0  0  0  0  0  0  0  0
   12.5645  -21.1127   10.2314 N   0  0  0  0  0  0  0  0  0  0  0  0
   11.3616  -21.0827   14.8830 C   0  0  0  0  0  0  0  0  0  0  0  0
   11.9244  -20.0797   15.3693 O   0  0  0  0  0  0  0  0  0  0  0  0
    8.8370  -20.7355   17.6345 C   0  0  0  0  0  0  0  0  0  0  0  0
    9.5985  -22.0396   17.8492 C   0  0  1  0  0  0  0  0  0  0  0  0
    8.8206  -23.1450   17.5696 O   0  0  0  0  0  0  0  0  0  0  0  0
   10.9273  -22.0369   17.1788 C   0  0  2  0  0  0  0  0  0  0  0  0
   10.9231  -22.0803   15.7557 N   0  0  0  0  0  0  0  0  0  0  0  0
   11.7194  -23.1799   17.7073 C   0  0  0  0  0  0  0  0  0  0  0  0
   12.0315  -24.1715   17.0013 O   0  0  0  0  0  0  0  0  0  0  0  0
   13.0878  -20.2227   24.5661 O   0  0  0  0  0  0  0  0  0  0  0  0
   13.3648  -21.0943   23.5127 C   0  0  0  0  0  0  0  0  0  0  0  0
   13.4885  -20.6291   22.2292 C   0  0  0  0  0  0  0  0  0  0  0  0
   13.7614  -21.4699   21.1746 C   0  0  0  0  0  0  0  0  0  0  0  0
   13.9245  -22.8347   21.3654 C   0  0  0  0  0  0  0  0  0  0  0  0
   14.2010  -23.7639   20.2625 C   0  0  0  0  0  0  0  0  0  0  0  0
   12.9734  -24.2949   19.5664 C   0  0  2  0  0  0  0  0  0  0  0  0
   12.1632  -23.1957   19.0565 N   0  0  0  0  0  0  0  0  0  0  0  0
   12.1973  -25.1390   20.4779 C   0  0  0  0  0  0  0  0  0  0  0  0
   10.9173  -24.7211   20.8422 O   0  0  0  0  0  0  0  0  0  0  0  0
   13.7993  -23.3070   22.6638 C   0  0  0  0  0  0  0  0  0  0  0  0
   13.5285  -22.4526   23.6919 C   0  0  0  0  0  0  0  0  0  0  0  0
   12.6110  -26.2154   20.9526 O   0  0  0  0  0  0  0  0  0  0  0  0
  2  1  1  6
  2  3  1  0
  4  3  1  0
  4  8  1  0
  5  4  2  0
  6  5  1  0
  6  7  1  0
  7  8  2  0
  9 10  2  0
  9  2  1  0
 12 11  1  6
 12 14  1  0
 13 12  1  0
 14 15  1  6
 15  9  1  0
 16 25  1  0
 16 14  1  0
 17 16  2  0
 18 19  1  0
 19 29  2  0
 20 19  1  0
 20 21  2  0
 21 22  1  0
 22 28  2  0
 22 23  1  0
 24 23  1  1
 24 25  1  0
 24 26  1  0
 26 27  1  0
 29 28  1  0
 30 26  2  0
M  END
$$$$
