HTY.pdb
     RDKit          3D

 30 31  0  0  1  0  0  0  0  0999 V2000
    9.7067  -16.8385   17.0082 N   0  0  0  0  0  0  0  0  0  0  0  0
   10.2935  -17.0872   18.2985 C   0  0  1  0  0  0  0  0  0  0  0  0
   11.7980  -16.8448   18.1451 C   0  0  0  0  0  0  0  0  0  0  0  0
   12.3702  -18.0968   17.5864 C   0  0  0  0  0  0  0  0  0  0  0  0
   13.0506  -19.0952   18.2520 C   0  0  0  0  0  0  0  0  0  0  0  0
   13.3975  -20.0504   17.3793 N   0  0  0  0  0  0  0  0  0  0  0  0
   12.9425  -19.6655   16.1653 C   0  0  0  0  0  0  0  0  0  0  0  0
   12.3210  -18.4844   16.2888 N   0  0  0  0  0  0  0  0  0  0  0  0
    9.7128  -16.1970   19.3335 C   0  0  0  0  0  0  0  0  0  0  0  0
    9.5852  -14.9831   19.0704 O   0  0  0  0  0  0  0  0  0  0  0  0
    6.2536  -15.8963   20.7577 C   0  0  0  0  0  0  0  0  0  0  0  0
    7.2122  -16.2940   21.8755 C   0  0  1  0  0  0  0  0  0  0  0  0
    7.0589  -17.6157   22.2426 O   0  0  0  0  0  0  0  0  0  0  0  0
    8.6165  -15.8945   21.5866 C   0  0  2  0  0  0  0  0  0  0  0  0
    9.3005  -16.6462   20.5894 N   0  0  0  0  0  0  0  0  0  0  0  0
    9.3867  -15.9420   22.8585 C   0  0  0  0  0  0  0  0  0  0  0  0
   10.6302  -15.7674   22.9041 O   0  0  0  0  0  0  0  0  0  0  0  0
    5.1659  -11.4794   26.9037 O   0  0  0  0  0  0  0  0  0  0  0  0
    6.2924  -12.2426   26.5965 C   0  0  0  0  0  0  0  0  0  0  0  0
    6.6725  -12.4428   25.2947 C   0  0  0  0  0  0  0  0  0  0  0  0
    7.7797  -13.1916   24.9678 C   0  0  0  0  0  0  0  0  0  0  0  0
    8.5655  -13.7808   25.9482 C   0  0  0  0  0  0  0  0  0  0  0  0
    9.7444  -14.5988   25.6365 C   0  0  0  0  0  0  0  0  0  0  0  0
    9.4458  -16.0506   25.3598 C   0  0  2  0  0  0  0  0  0  0  0  0
    8.7343  -16.1909   24.0955 N   0  0  0  0  0  0  0  0  0  0  0  0
    8.6745  -16.6299   26.4622 C   0  0  0  0  0  0  0  0  0  0  0  0
    9.2357  -16.6264   27.7392 O   0  0  0  0  0  0  0  0  0  0  0  0
    8.1820  -13.5793   27.2661 C   0  0  0  0  0  0  0  0  0  0  0  0
    7.0800  -12.8326   27.5637 C   0  0  0  0  0  0  0  0  0  0  0  0
    7.5395  -17.1297   26.3308 O   0  0  0  0  0  0  0  0  0  0  0  0
  2  1  1  6
  2  3  1  0
  4  3  1  0
  4  8  1  0
  5  4  2  0
  6  5  1  0
  6  7  1  0
  7  8  2  0
  9 10  2  0
  9  2  1  0
 12 11  1  6
 12 14  1  0
 13 12  1  0
 14 15  1  6
 15  9  1  0
 16 25  1  0
 16 14  1  0
 17 16  2  0
 18 19  1  0
 19 29  2  0
 20 19  1  0
 20 21  2  0
 21 22  1  0
 22 28  2  0
 22 23  1  0
 24 23  1  1
 24 25  1  0
 24 26  1  0
 26 27  1  0
 29 28  1  0
 30 26  2  0
M  END
$$$$
