HTY.pdb
     RDKit          3D

 30 31  0  0  1  0  0  0  0  0999 V2000
    8.4743  -18.7870   17.3208 N   0  0  0  0  0  0  0  0  0  0  0  0
    9.3731  -18.3191   18.3427 C   0  0  1  0  0  0  0  0  0  0  0  0
   10.3857  -17.4060   17.6452 C   0  0  0  0  0  0  0  0  0  0  0  0
   11.3420  -18.2994   16.9419 C   0  0  0  0  0  0  0  0  0  0  0  0
   12.3883  -19.0206   17.4786 C   0  0  0  0  0  0  0  0  0  0  0  0
   13.0042  -19.6986   16.5012 N   0  0  0  0  0  0  0  0  0  0  0  0
   12.3567  -19.4129   15.3488 C   0  0  0  0  0  0  0  0  0  0  0  0
   11.3513  -18.5671   15.6135 N   0  0  0  0  0  0  0  0  0  0  0  0
    8.6425  -17.5894   19.4079 C   0  0  0  0  0  0  0  0  0  0  0  0
    7.5331  -17.0874   19.1316 O   0  0  0  0  0  0  0  0  0  0  0  0
    6.2498  -18.1979   21.1945 C   0  0  0  0  0  0  0  0  0  0  0  0
    7.3068  -18.0148   22.2790 C   0  0  1  0  0  0  0  0  0  0  0  0
    7.7580  -19.2230   22.7708 O   0  0  0  0  0  0  0  0  0  0  0  0
    8.3861  -17.0770   21.8658 C   0  0  2  0  0  0  0  0  0  0  0  0
    9.1312  -17.4340   20.7064 N   0  0  0  0  0  0  0  0  0  0  0  0
    9.3134  -16.8967   23.0151 C   0  0  0  0  0  0  0  0  0  0  0  0
   10.3055  -17.6433   23.2082 O   0  0  0  0  0  0  0  0  0  0  0  0
    5.0857  -11.9074   26.8112 O   0  0  0  0  0  0  0  0  0  0  0  0
    6.3163  -12.4598   26.4555 C   0  0  0  0  0  0  0  0  0  0  0  0
    7.2962  -12.6564   27.3937 C   0  0  0  0  0  0  0  0  0  0  0  0
    8.5173  -13.1997   27.0661 C   0  0  0  0  0  0  0  0  0  0  0  0
    8.8123  -13.5748   25.7630 C   0  0  0  0  0  0  0  0  0  0  0  0
   10.1092  -14.1429   25.3739 C   0  0  0  0  0  0  0  0  0  0  0  0
   10.0727  -15.6093   25.0246 C   0  0  2  0  0  0  0  0  0  0  0  0
    9.1103  -15.8534   23.9574 N   0  0  0  0  0  0  0  0  0  0  0  0
    9.7528  -16.4066   26.2111 C   0  0  0  0  0  0  0  0  0  0  0  0
   10.6986  -16.4851   27.2332 O   0  0  0  0  0  0  0  0  0  0  0  0
    7.8216  -13.3761   24.8125 C   0  0  0  0  0  0  0  0  0  0  0  0
    6.6193  -12.8358   25.1630 C   0  0  0  0  0  0  0  0  0  0  0  0
    8.6807  -17.0243   26.3667 O   0  0  0  0  0  0  0  0  0  0  0  0
  2  1  1  6
  2  3  1  0
  4  3  1  0
  4  8  1  0
  5  4  2  0
  6  5  1  0
  6  7  1  0
  7  8  2  0
  9 10  2  0
  9  2  1  0
 12 11  1  6
 12 14  1  0
 13 12  1  0
 14 15  1  6
 15  9  1  0
 16 25  1  0
 16 14  1  0
 17 16  2  0
 18 19  1  0
 19 29  2  0
 20 19  1  0
 20 21  2  0
 21 22  1  0
 22 28  2  0
 22 23  1  0
 24 23  1  1
 24 25  1  0
 24 26  1  0
 26 27  1  0
 29 28  1  0
 30 26  2  0
M  END
$$$$
