HTY.pdb
     RDKit          3D

 30 31  0  0  1  0  0  0  0  0999 V2000
    9.3563  -18.2562   16.8407 N   0  0  0  0  0  0  0  0  0  0  0  0
   10.1419  -17.9810   18.0147 C   0  0  1  0  0  0  0  0  0  0  0  0
   11.3634  -17.1865   17.5431 C   0  0  0  0  0  0  0  0  0  0  0  0
   12.3724  -18.1865   17.1080 C   0  0  0  0  0  0  0  0  0  0  0  0
   12.6246  -19.4325   17.6435 C   0  0  0  0  0  0  0  0  0  0  0  0
   13.6165  -20.0153   16.9574 N   0  0  0  0  0  0  0  0  0  0  0  0
   13.9954  -19.1486   15.9908 C   0  0  0  0  0  0  0  0  0  0  0  0
   13.2440  -18.0423   16.0805 N   0  0  0  0  0  0  0  0  0  0  0  0
    9.3612  -17.2139   19.0161 C   0  0  0  0  0  0  0  0  0  0  0  0
    8.8682  -16.1188   18.6741 O   0  0  0  0  0  0  0  0  0  0  0  0
    6.3522  -16.7015   22.7300 C   0  0  0  0  0  0  0  0  0  0  0  0
    7.1061  -17.5663   21.7247 C   0  0  1  0  0  0  0  0  0  0  0  0
    6.3125  -17.9262   20.6543 O   0  0  0  0  0  0  0  0  0  0  0  0
    8.4207  -16.9800   21.3464 C   0  0  2  0  0  0  0  0  0  0  0  0
    9.1481  -17.6529   20.3241 N   0  0  0  0  0  0  0  0  0  0  0  0
    9.2596  -16.8852   22.5714 C   0  0  0  0  0  0  0  0  0  0  0  0
   10.0860  -17.7742   22.8966 O   0  0  0  0  0  0  0  0  0  0  0  0
    4.8350  -11.8873   25.9263 O   0  0  0  0  0  0  0  0  0  0  0  0
    6.0863  -12.4782   25.7496 C   0  0  0  0  0  0  0  0  0  0  0  0
    6.3058  -13.7819   26.1121 C   0  0  0  0  0  0  0  0  0  0  0  0
    7.5312  -14.3857   25.9472 C   0  0  0  0  0  0  0  0  0  0  0  0
    8.6059  -13.6967   25.4028 C   0  0  0  0  0  0  0  0  0  0  0  0
    9.9314  -14.3032   25.2261 C   0  0  0  0  0  0  0  0  0  0  0  0
    9.9107  -15.7106   24.6852 C   0  0  2  0  0  0  0  0  0  0  0  0
    9.1582  -15.7644   23.4380 N   0  0  0  0  0  0  0  0  0  0  0  0
    9.3462  -16.6283   25.6777 C   0  0  0  0  0  0  0  0  0  0  0  0
    8.1153  -17.2253   25.4058 O   0  0  0  0  0  0  0  0  0  0  0  0
    8.3853  -12.3772   25.0356 C   0  0  0  0  0  0  0  0  0  0  0  0
    7.1609  -11.8019   25.2095 C   0  0  0  0  0  0  0  0  0  0  0  0
    9.9003  -16.9119   26.7583 O   0  0  0  0  0  0  0  0  0  0  0  0
  2  1  1  6
  2  3  1  0
  4  3  1  0
  4  8  1  0
  5  4  2  0
  6  5  1  0
  6  7  1  0
  7  8  2  0
  9 10  2  0
  9  2  1  0
 12 11  1  6
 12 14  1  0
 13 12  1  0
 14 15  1  6
 15  9  1  0
 16 25  1  0
 16 14  1  0
 17 16  2  0
 18 19  1  0
 19 29  2  0
 20 19  1  0
 20 21  2  0
 21 22  1  0
 22 28  2  0
 22 23  1  0
 24 23  1  1
 24 25  1  0
 24 26  1  0
 26 27  1  0
 29 28  1  0
 30 26  2  0
M  END
$$$$
