HTY.pdb
     RDKit          3D

 30 31  0  0  1  0  0  0  0  0999 V2000
    8.2361  -17.0637   19.2145 N   0  0  0  0  0  0  0  0  0  0  0  0
    8.5970  -16.0552   20.1757 C   0  0  1  0  0  0  0  0  0  0  0  0
    7.6699  -14.8627   19.9223 C   0  0  0  0  0  0  0  0  0  0  0  0
    8.0710  -14.2901   18.6114 C   0  0  0  0  0  0  0  0  0  0  0  0
    8.8506  -13.1783   18.3687 C   0  0  0  0  0  0  0  0  0  0  0  0
    8.9718  -13.0043   17.0460 N   0  0  0  0  0  0  0  0  0  0  0  0
    8.2751  -13.9973   16.4480 C   0  0  0  0  0  0  0  0  0  0  0  0
    7.7299  -14.7757   17.3931 N   0  0  0  0  0  0  0  0  0  0  0  0
    8.4507  -16.5588   21.5635 C   0  0  0  0  0  0  0  0  0  0  0  0
    7.3127  -16.8837   21.9615 O   0  0  0  0  0  0  0  0  0  0  0  0
    8.9646  -19.6159   23.2257 C   0  0  0  0  0  0  0  0  0  0  0  0
    9.9113  -18.6434   23.9220 C   0  0  1  0  0  0  0  0  0  0  0  0
   11.2304  -18.8794   23.5914 O   0  0  0  0  0  0  0  0  0  0  0  0
    9.4823  -17.2266   23.7679 C   0  0  2  0  0  0  0  0  0  0  0  0
    9.5212  -16.6888   22.4501 N   0  0  0  0  0  0  0  0  0  0  0  0
   10.3136  -16.3861   24.6711 C   0  0  0  0  0  0  0  0  0  0  0  0
   11.2147  -15.6209   24.2450 O   0  0  0  0  0  0  0  0  0  0  0  0
    5.2277  -12.5062   27.6471 O   0  0  0  0  0  0  0  0  0  0  0  0
    6.5431  -12.9024   27.4047 C   0  0  0  0  0  0  0  0  0  0  0  0
    7.5611  -12.5041   28.2317 C   0  0  0  0  0  0  0  0  0  0  0  0
    8.8659  -12.8825   28.0125 C   0  0  0  0  0  0  0  0  0  0  0  0
    9.2106  -13.6893   26.9373 C   0  0  0  0  0  0  0  0  0  0  0  0
   10.5934  -14.1001   26.6632 C   0  0  0  0  0  0  0  0  0  0  0  0
   10.8884  -15.5487   26.9602 C   0  0  2  0  0  0  0  0  0  0  0  0
   10.1175  -16.4154   26.0776 N   0  0  0  0  0  0  0  0  0  0  0  0
   10.6051  -15.8472   28.3661 C   0  0  0  0  0  0  0  0  0  0  0  0
   11.2992  -15.1403   29.3480 O   0  0  0  0  0  0  0  0  0  0  0  0
    8.1813  -14.0930   26.0992 C   0  0  0  0  0  0  0  0  0  0  0  0
    6.8961  -13.7041   26.3386 C   0  0  0  0  0  0  0  0  0  0  0  0
    9.7768  -16.6995   28.7438 O   0  0  0  0  0  0  0  0  0  0  0  0
  2  1  1  6
  2  3  1  0
  4  3  1  0
  4  8  1  0
  5  4  2  0
  6  5  1  0
  6  7  1  0
  7  8  2  0
  9 10  2  0
  9  2  1  0
 12 11  1  6
 12 14  1  0
 13 12  1  0
 14 15  1  6
 15  9  1  0
 16 25  1  0
 16 14  1  0
 17 16  2  0
 18 19  1  0
 19 29  2  0
 20 19  1  0
 20 21  2  0
 21 22  1  0
 22 28  2  0
 22 23  1  0
 24 23  1  6
 24 25  1  0
 24 26  1  0
 26 27  1  0
 29 28  1  0
 30 26  2  0
M  END
$$$$
