HTY.pdb
     RDKit          3D

 30 31  0  0  1  0  0  0  0  0999 V2000
    8.7676  -16.3866   19.7261 N   0  0  0  0  0  0  0  0  0  0  0  0
    8.6273  -15.4788   20.8339 C   0  0  1  0  0  0  0  0  0  0  0  0
    7.3991  -14.6143   20.5340 C   0  0  0  0  0  0  0  0  0  0  0  0
    7.7280  -13.8247   19.3192 C   0  0  0  0  0  0  0  0  0  0  0  0
    8.4913  -12.6794   19.2269 C   0  0  0  0  0  0  0  0  0  0  0  0
    8.5407  -12.2838   17.9480 N   0  0  0  0  0  0  0  0  0  0  0  0
    7.8147  -13.1694   17.2286 C   0  0  0  0  0  0  0  0  0  0  0  0
    7.3226  -14.1018   18.0562 N   0  0  0  0  0  0  0  0  0  0  0  0
    8.4632  -16.2128   22.1127 C   0  0  0  0  0  0  0  0  0  0  0  0
    7.3734  -16.7792   22.3378 O   0  0  0  0  0  0  0  0  0  0  0  0
    9.3002  -19.3946   23.3365 C   0  0  0  0  0  0  0  0  0  0  0  0
   10.0759  -18.4194   24.2162 C   0  0  1  0  0  0  0  0  0  0  0  0
   11.4201  -18.3973   23.9034 O   0  0  0  0  0  0  0  0  0  0  0  0
    9.4358  -17.0770   24.2753 C   0  0  2  0  0  0  0  0  0  0  0  0
    9.4655  -16.3037   23.0802 N   0  0  0  0  0  0  0  0  0  0  0  0
   10.0674  -16.3066   25.3802 C   0  0  0  0  0  0  0  0  0  0  0  0
   10.9941  -15.4805   25.1861 O   0  0  0  0  0  0  0  0  0  0  0  0
    6.1739  -11.3609   25.2469 O   0  0  0  0  0  0  0  0  0  0  0  0
    6.8987  -12.2364   26.0559 C   0  0  0  0  0  0  0  0  0  0  0  0
    8.1183  -11.8750   26.5668 C   0  0  0  0  0  0  0  0  0  0  0  0
    8.8508  -12.7217   27.3669 C   0  0  0  0  0  0  0  0  0  0  0  0
    8.3839  -13.9869   27.6938 C   0  0  0  0  0  0  0  0  0  0  0  0
    9.1445  -14.9227   28.5316 C   0  0  0  0  0  0  0  0  0  0  0  0
   10.2203  -15.6867   27.8018 C   0  0  2  0  0  0  0  0  0  0  0  0
    9.6395  -16.4773   26.7238 N   0  0  0  0  0  0  0  0  0  0  0  0
   10.9615  -16.5381   28.7354 C   0  0  0  0  0  0  0  0  0  0  0  0
   10.9636  -17.9160   28.5190 O   0  0  0  0  0  0  0  0  0  0  0  0
    7.1498  -14.3541   27.1772 C   0  0  0  0  0  0  0  0  0  0  0  0
    6.4433  -13.4962   26.3866 C   0  0  0  0  0  0  0  0  0  0  0  0
   11.5954  -16.1062   29.7186 O   0  0  0  0  0  0  0  0  0  0  0  0
  2  1  1  6
  2  3  1  0
  4  3  1  0
  4  8  1  0
  5  4  2  0
  6  5  1  0
  6  7  1  0
  7  8  2  0
  9 10  2  0
  9  2  1  0
 12 11  1  6
 12 14  1  0
 13 12  1  0
 14 15  1  6
 15  9  1  0
 16 25  1  0
 16 14  1  0
 17 16  2  0
 18 19  1  0
 19 29  2  0
 20 19  1  0
 20 21  2  0
 21 22  1  0
 22 28  2  0
 22 23  1  0
 24 23  1  1
 24 25  1  0
 24 26  1  0
 26 27  1  0
 29 28  1  0
 30 26  2  0
M  END
$$$$
