HTY.pdb
     RDKit          3D

 30 31  0  0  1  0  0  0  0  0999 V2000
    8.0762  -16.7156   19.8198 N   0  0  0  0  0  0  0  0  0  0  0  0
    8.1394  -15.6623   20.7984 C   0  0  1  0  0  0  0  0  0  0  0  0
    7.1858  -14.5648   20.3170 C   0  0  0  0  0  0  0  0  0  0  0  0
    7.7589  -14.0354   19.0527 C   0  0  0  0  0  0  0  0  0  0  0  0
    8.6194  -12.9702   18.8863 C   0  0  0  0  0  0  0  0  0  0  0  0
    8.8945  -12.8242   17.5834 N   0  0  0  0  0  0  0  0  0  0  0  0
    8.2151  -13.7887   16.9222 C   0  0  0  0  0  0  0  0  0  0  0  0
    7.5280  -14.5219   17.8092 N   0  0  0  0  0  0  0  0  0  0  0  0
    7.7509  -16.1540   22.1430 C   0  0  0  0  0  0  0  0  0  0  0  0
    6.5373  -16.3109   22.3913 O   0  0  0  0  0  0  0  0  0  0  0  0
    7.2929  -19.1871   23.5580 C   0  0  0  0  0  0  0  0  0  0  0  0
    8.4382  -18.5931   24.3718 C   0  0  1  0  0  0  0  0  0  0  0  0
    9.6574  -19.1386   24.0237 O   0  0  0  0  0  0  0  0  0  0  0  0
    8.4114  -17.1051   24.3856 C   0  0  2  0  0  0  0  0  0  0  0  0
    8.6731  -16.4515   23.1481 N   0  0  0  0  0  0  0  0  0  0  0  0
    9.3785  -16.6301   25.4115 C   0  0  0  0  0  0  0  0  0  0  0  0
   10.5382  -16.2434   25.1210 O   0  0  0  0  0  0  0  0  0  0  0  0
    6.0746  -11.1356   25.7589 O   0  0  0  0  0  0  0  0  0  0  0  0
    6.8206  -12.0836   26.4594 C   0  0  0  0  0  0  0  0  0  0  0  0
    6.2574  -13.2691   26.8551 C   0  0  0  0  0  0  0  0  0  0  0  0
    6.9736  -14.2189   27.5467 C   0  0  0  0  0  0  0  0  0  0  0  0
    8.3065  -14.0170   27.8762 C   0  0  0  0  0  0  0  0  0  0  0  0
    9.0974  -15.0008   28.6263 C   0  0  0  0  0  0  0  0  0  0  0  0
    9.8891  -15.9553   27.7685 C   0  0  2  0  0  0  0  0  0  0  0  0
    9.0221  -16.5937   26.7860 N   0  0  0  0  0  0  0  0  0  0  0  0
   10.5582  -16.9548   28.6047 C   0  0  0  0  0  0  0  0  0  0  0  0
   11.5487  -16.5258   29.4881 O   0  0  0  0  0  0  0  0  0  0  0  0
    8.8778  -12.8176   27.4766 C   0  0  0  0  0  0  0  0  0  0  0  0
    8.1461  -11.8924   26.7918 C   0  0  0  0  0  0  0  0  0  0  0  0
   10.2966  -18.1738   28.5769 O   0  0  0  0  0  0  0  0  0  0  0  0
  2  1  1  6
  2  3  1  0
  4  3  1  0
  4  8  1  0
  5  4  2  0
  6  5  1  0
  6  7  1  0
  7  8  2  0
  9 10  2  0
  9  2  1  0
 12 11  1  6
 12 14  1  0
 13 12  1  0
 14 15  1  6
 15  9  1  0
 16 25  1  0
 16 14  1  0
 17 16  2  0
 18 19  1  0
 19 29  2  0
 20 19  1  0
 20 21  2  0
 21 22  1  0
 22 28  2  0
 22 23  1  0
 24 23  1  1
 24 25  1  0
 24 26  1  0
 26 27  1  0
 29 28  1  0
 30 26  2  0
M  END
$$$$
