HTY.pdb
     RDKit          3D

 30 31  0  0  1  0  0  0  0  0999 V2000
   11.5624  -16.3507   18.3945 N   0  0  0  0  0  0  0  0  0  0  0  0
   11.7550  -15.8813   19.7412 C   0  0  1  0  0  0  0  0  0  0  0  0
   12.0709  -14.3862   19.6386 C   0  0  0  0  0  0  0  0  0  0  0  0
   13.5367  -14.2807   19.4209 C   0  0  0  0  0  0  0  0  0  0  0  0
   14.5524  -14.8462   20.1635 C   0  0  0  0  0  0  0  0  0  0  0  0
   15.7325  -14.5045   19.6296 N   0  0  0  0  0  0  0  0  0  0  0  0
   15.4731  -13.7267   18.5541 C   0  0  0  0  0  0  0  0  0  0  0  0
   14.1458  -13.5904   18.4265 N   0  0  0  0  0  0  0  0  0  0  0  0
   10.5469  -16.1153   20.5698 C   0  0  0  0  0  0  0  0  0  0  0  0
    9.4354  -15.7832   20.1080 O   0  0  0  0  0  0  0  0  0  0  0  0
    8.6731  -19.0290   21.1871 C   0  0  0  0  0  0  0  0  0  0  0  0
    9.1736  -18.5926   22.5604 C   0  0  1  0  0  0  0  0  0  0  0  0
   10.1870  -19.4068   23.0244 O   0  0  0  0  0  0  0  0  0  0  0  0
    9.4796  -17.1372   22.6158 C   0  0  2  0  0  0  0  0  0  0  0  0
   10.5874  -16.6889   21.8419 N   0  0  0  0  0  0  0  0  0  0  0  0
    9.6830  -16.7566   24.0396 C   0  0  0  0  0  0  0  0  0  0  0  0
   10.7915  -16.3663   24.4844 O   0  0  0  0  0  0  0  0  0  0  0  0
    6.6653  -10.5252   25.6116 O   0  0  0  0  0  0  0  0  0  0  0  0
    6.8875  -11.8594   25.9527 C   0  0  0  0  0  0  0  0  0  0  0  0
    7.6206  -12.1885   27.0633 C   0  0  0  0  0  0  0  0  0  0  0  0
    7.8526  -13.4973   27.4194 C   0  0  0  0  0  0  0  0  0  0  0  0
    7.3511  -14.5485   26.6649 C   0  0  0  0  0  0  0  0  0  0  0  0
    7.5911  -15.9565   27.0054 C   0  0  0  0  0  0  0  0  0  0  0  0
    8.8311  -16.5496   26.3855 C   0  0  2  0  0  0  0  0  0  0  0  0
    8.6117  -16.8202   24.9701 N   0  0  0  0  0  0  0  0  0  0  0  0
    9.2220  -17.7687   27.0975 C   0  0  0  0  0  0  0  0  0  0  0  0
    9.7517  -17.6466   28.3820 O   0  0  0  0  0  0  0  0  0  0  0  0
    6.6091  -14.2170   25.5405 C   0  0  0  0  0  0  0  0  0  0  0  0
    6.3934  -12.9116   25.2092 C   0  0  0  0  0  0  0  0  0  0  0  0
    9.1105  -18.9173   26.6248 O   0  0  0  0  0  0  0  0  0  0  0  0
  2  1  1  6
  2  3  1  0
  4  3  1  0
  4  8  1  0
  5  4  2  0
  6  5  1  0
  6  7  1  0
  7  8  2  0
  9 10  2  0
  9  2  1  0
 12 11  1  6
 12 14  1  0
 13 12  1  0
 14 15  1  6
 15  9  1  0
 16 25  1  0
 16 14  1  0
 17 16  2  0
 18 19  1  0
 19 29  2  0
 20 19  1  0
 20 21  2  0
 21 22  1  0
 22 28  2  0
 22 23  1  0
 24 23  1  1
 24 25  1  0
 24 26  1  0
 26 27  1  0
 29 28  1  0
 30 26  2  0
M  END
$$$$
