HTY.pdb
     RDKit          3D

 30 31  0  0  1  0  0  0  0  0999 V2000
    9.5473  -15.4020   18.1941 N   0  0  0  0  0  0  0  0  0  0  0  0
    8.4216  -15.0969   19.0371 C   0  0  1  0  0  0  0  0  0  0  0  0
    7.1681  -15.3301   18.1885 C   0  0  0  0  0  0  0  0  0  0  0  0
    7.3980  -14.6296   16.8987 C   0  0  0  0  0  0  0  0  0  0  0  0
    7.2804  -13.2824   16.6267 C   0  0  0  0  0  0  0  0  0  0  0  0
    7.5764  -13.0646   15.3385 N   0  0  0  0  0  0  0  0  0  0  0  0
    7.8808  -14.2634   14.7914 C   0  0  0  0  0  0  0  0  0  0  0  0
    7.7735  -15.2107   15.7335 N   0  0  0  0  0  0  0  0  0  0  0  0
    8.4111  -15.9516   20.2497 C   0  0  0  0  0  0  0  0  0  0  0  0
    7.3864  -15.9590   20.9633 O   0  0  0  0  0  0  0  0  0  0  0  0
    9.1354  -19.7790   20.4547 C   0  0  0  0  0  0  0  0  0  0  0  0
   10.0329  -19.0313   21.4356 C   0  0  1  0  0  0  0  0  0  0  0  0
   11.3618  -19.0871   21.0666 O   0  0  0  0  0  0  0  0  0  0  0  0
    9.5329  -17.6607   21.7296 C   0  0  2  0  0  0  0  0  0  0  0  0
    9.4891  -16.7502   20.6360 N   0  0  0  0  0  0  0  0  0  0  0  0
   10.3634  -17.0848   22.8213 C   0  0  0  0  0  0  0  0  0  0  0  0
   10.8753  -15.9394   22.7504 O   0  0  0  0  0  0  0  0  0  0  0  0
   10.4882  -13.7035   30.7142 O   0  0  0  0  0  0  0  0  0  0  0  0
   10.3373  -14.3110   29.4675 C   0  0  0  0  0  0  0  0  0  0  0  0
   10.9144  -13.7708   28.3476 C   0  0  0  0  0  0  0  0  0  0  0  0
   10.7792  -14.3523   27.1078 C   0  0  0  0  0  0  0  0  0  0  0  0
   10.0478  -15.5191   26.9358 C   0  0  0  0  0  0  0  0  0  0  0  0
    9.8691  -16.1592   25.6264 C   0  0  0  0  0  0  0  0  0  0  0  0
   10.9511  -17.1416   25.2551 C   0  0  2  0  0  0  0  0  0  0  0  0
   10.6150  -17.8207   24.0099 N   0  0  0  0  0  0  0  0  0  0  0  0
   11.1561  -18.1055   26.3388 C   0  0  0  0  0  0  0  0  0  0  0  0
   12.3127  -18.0001   27.1114 O   0  0  0  0  0  0  0  0  0  0  0  0
    9.4629  -16.0668   28.0683 C   0  0  0  0  0  0  0  0  0  0  0  0
    9.6122  -15.4708   29.2860 C   0  0  0  0  0  0  0  0  0  0  0  0
   10.3565  -19.0213   26.6168 O   0  0  0  0  0  0  0  0  0  0  0  0
  2  1  1  6
  2  3  1  0
  4  3  1  0
  4  8  1  0
  5  4  2  0
  6  5  1  0
  6  7  1  0
  7  8  2  0
  9 10  2  0
  9  2  1  0
 12 11  1  6
 12 14  1  0
 13 12  1  0
 14 15  1  6
 15  9  1  0
 16 25  1  0
 16 14  1  0
 17 16  2  0
 18 19  1  0
 19 29  2  0
 20 19  1  0
 20 21  2  0
 21 22  1  0
 22 28  2  0
 22 23  1  0
 24 23  1  1
 24 25  1  0
 24 26  1  0
 26 27  1  0
 29 28  1  0
 30 26  2  0
M  END
$$$$
