HTY.pdb
     RDKit          3D

 30 31  0  0  1  0  0  0  0  0999 V2000
   10.5420  -17.7393   17.1301 N   0  0  0  0  0  0  0  0  0  0  0  0
    9.2563  -17.3185   17.6209 C   0  0  1  0  0  0  0  0  0  0  0  0
    8.4129  -18.5880   17.7728 C   0  0  0  0  0  0  0  0  0  0  0  0
    7.8278  -18.8657   16.4357 C   0  0  0  0  0  0  0  0  0  0  0  0
    8.0477  -18.1929   15.2517 C   0  0  0  0  0  0  0  0  0  0  0  0
    7.3252  -18.7638   14.2789 N   0  0  0  0  0  0  0  0  0  0  0  0
    6.6487  -19.7934   14.8367 C   0  0  0  0  0  0  0  0  0  0  0  0
    6.9515  -19.8565   16.1408 N   0  0  0  0  0  0  0  0  0  0  0  0
    9.3825  -16.6044   18.9151 C   0  0  0  0  0  0  0  0  0  0  0  0
   10.3814  -16.8364   19.6275 O   0  0  0  0  0  0  0  0  0  0  0  0
    8.5431  -12.6397   19.6209 C   0  0  0  0  0  0  0  0  0  0  0  0
    7.8550  -13.6005   20.5853 C   0  0  1  0  0  0  0  0  0  0  0  0
    6.4861  -13.6186   20.4088 O   0  0  0  0  0  0  0  0  0  0  0  0
    8.4918  -14.9457   20.5959 C   0  0  2  0  0  0  0  0  0  0  0  0
    8.4409  -15.6843   19.3798 N   0  0  0  0  0  0  0  0  0  0  0  0
    7.8752  -15.7457   21.6881 C   0  0  0  0  0  0  0  0  0  0  0  0
    7.1347  -16.7364   21.4666 O   0  0  0  0  0  0  0  0  0  0  0  0
   13.2605  -19.0582   24.3219 O   0  0  0  0  0  0  0  0  0  0  0  0
   11.9106  -18.7184   24.2301 C   0  0  0  0  0  0  0  0  0  0  0  0
   11.2954  -18.6052   23.0104 C   0  0  0  0  0  0  0  0  0  0  0  0
    9.9653  -18.2714   22.8954 C   0  0  0  0  0  0  0  0  0  0  0  0
    9.1833  -18.0332   24.0168 C   0  0  0  0  0  0  0  0  0  0  0  0
    7.7657  -17.6600   23.9322 C   0  0  0  0  0  0  0  0  0  0  0  0
    7.4912  -16.1896   24.1227 C   0  0  2  0  0  0  0  0  0  0  0  0
    8.1041  -15.4154   23.0505 N   0  0  0  0  0  0  0  0  0  0  0  0
    7.9770  -15.7473   25.4320 C   0  0  0  0  0  0  0  0  0  0  0  0
    7.4555  -16.3555   26.5739 O   0  0  0  0  0  0  0  0  0  0  0  0
    9.8046  -18.1471   25.2519 C   0  0  0  0  0  0  0  0  0  0  0  0
   11.1246  -18.4795   25.3388 C   0  0  0  0  0  0  0  0  0  0  0  0
    8.8334  -14.8551   25.5920 O   0  0  0  0  0  0  0  0  0  0  0  0
  2  1  1  1
  2  3  1  0
  4  3  1  0
  4  8  1  0
  5  4  2  0
  6  5  1  0
  6  7  1  0
  7  8  2  0
  9 10  2  0
  9  2  1  0
 12 11  1  6
 12 14  1  0
 13 12  1  0
 14 15  1  6
 15  9  1  0
 16 25  1  0
 16 14  1  0
 17 16  2  0
 18 19  1  0
 19 29  2  0
 20 19  1  0
 20 21  2  0
 21 22  1  0
 22 28  2  0
 22 23  1  0
 24 23  1  6
 24 25  1  0
 24 26  1  0
 26 27  1  0
 29 28  1  0
 30 26  2  0
M  END
$$$$
