HTY.pdb
     RDKit          3D

 30 31  0  0  1  0  0  0  0  0999 V2000
   11.2909  -14.8774   17.5297 N   0  0  0  0  0  0  0  0  0  0  0  0
   11.6315  -15.0325   18.9193 C   0  0  1  0  0  0  0  0  0  0  0  0
   12.7624  -14.0392   19.2025 C   0  0  0  0  0  0  0  0  0  0  0  0
   14.0055  -14.6556   18.6715 C   0  0  0  0  0  0  0  0  0  0  0  0
   14.5981  -15.8425   19.0498 C   0  0  0  0  0  0  0  0  0  0  0  0
   15.7070  -16.0335   18.3229 N   0  0  0  0  0  0  0  0  0  0  0  0
   15.8223  -14.9769   17.4867 C   0  0  0  0  0  0  0  0  0  0  0  0
   14.7942  -14.1429   17.6962 N   0  0  0  0  0  0  0  0  0  0  0  0
   10.4608  -14.7705   19.7920 C   0  0  0  0  0  0  0  0  0  0  0  0
    9.8329  -13.7020   19.6400 O   0  0  0  0  0  0  0  0  0  0  0  0
    6.9596  -15.6615   20.3961 C   0  0  0  0  0  0  0  0  0  0  0  0
    7.7414  -16.1310   21.6189 C   0  0  1  0  0  0  0  0  0  0  0  0
    7.8413  -17.5067   21.6720 O   0  0  0  0  0  0  0  0  0  0  0  0
    9.0362  -15.4136   21.7735 C   0  0  2  0  0  0  0  0  0  0  0  0
   10.0230  -15.6579   20.7768 N   0  0  0  0  0  0  0  0  0  0  0  0
    9.5937  -15.7398   23.1137 C   0  0  0  0  0  0  0  0  0  0  0  0
   10.6239  -16.4430   23.2656 O   0  0  0  0  0  0  0  0  0  0  0  0
    4.8305  -11.4813   27.3560 O   0  0  0  0  0  0  0  0  0  0  0  0
    6.0203  -12.1742   27.1318 C   0  0  0  0  0  0  0  0  0  0  0  0
    6.2702  -12.7695   25.9226 C   0  0  0  0  0  0  0  0  0  0  0  0
    7.4365  -13.4579   25.6787 C   0  0  0  0  0  0  0  0  0  0  0  0
    8.4174  -13.5805   26.6526 C   0  0  0  0  0  0  0  0  0  0  0  0
    9.6668  -14.3201   26.4335 C   0  0  0  0  0  0  0  0  0  0  0  0
    9.5173  -15.5753   25.6115 C   0  0  2  0  0  0  0  0  0  0  0  0
    8.9719  -15.2597   24.2971 N   0  0  0  0  0  0  0  0  0  0  0  0
    8.6698  -16.5435   26.3116 C   0  0  0  0  0  0  0  0  0  0  0  0
    7.4987  -16.9741   25.6882 O   0  0  0  0  0  0  0  0  0  0  0  0
    8.1658  -12.9787   27.8770 C   0  0  0  0  0  0  0  0  0  0  0  0
    7.0016  -12.3018   28.0935 C   0  0  0  0  0  0  0  0  0  0  0  0
    8.9307  -17.0109   27.4380 O   0  0  0  0  0  0  0  0  0  0  0  0
  2  1  1  6
  2  3  1  0
  4  3  1  0
  4  8  1  0
  5  4  2  0
  6  5  1  0
  6  7  1  0
  7  8  2  0
  9 10  2  0
  9  2  1  0
 12 11  1  6
 12 14  1  0
 13 12  1  0
 14 15  1  6
 15  9  1  0
 16 25  1  0
 16 14  1  0
 17 16  2  0
 18 19  1  0
 19 29  2  0
 20 19  1  0
 20 21  2  0
 21 22  1  0
 22 28  2  0
 22 23  1  0
 24 23  1  1
 24 25  1  0
 24 26  1  0
 26 27  1  0
 29 28  1  0
 30 26  2  0
M  END
$$$$
