RWK.pdb
     RDKit          3D

 35 36  0  0  1  0  0  0  0  0999 V2000
    6.9919  -14.6185   18.2804 N   0  0  0  0  0  0  0  0  0  0  0  0
    8.0046  -13.6273   18.3932 C   0  0  0  0  0  0  0  0  0  0  0  0
    7.7346  -12.3714   18.3818 N   0  0  0  0  0  0  0  0  0  0  0  0
    9.3757  -14.0204   18.5239 N   0  0  0  0  0  0  0  0  0  0  0  0
    9.8672  -15.3576   18.4344 C   0  0  0  0  0  0  0  0  0  0  0  0
    9.5079  -16.1458   19.6429 C   0  0  0  0  0  0  0  0  0  0  0  0
   10.4535  -16.1773   20.7706 C   0  0  0  0  0  0  0  0  0  0  0  0
   10.4101  -17.3114   21.7203 C   0  0  2  0  0  0  0  0  0  0  0  0
    9.6009  -18.4217   21.4124 N   0  0  0  0  0  0  0  0  0  0  0  0
   10.1570  -16.8434   23.1236 C   0  0  0  0  0  0  0  0  0  0  0  0
   11.0137  -16.0859   23.6860 O   0  0  0  0  0  0  0  0  0  0  0  0
    8.4882  -11.6762   18.4682 N   0  0  0  0  0  0  0  0  0  0  0  0
    8.9856  -17.2374   23.8136 C   0  0  1  0  0  0  0  0  0  0  0  0
    8.7180  -16.9085   25.1635 C   0  0  0  0  0  0  0  0  0  0  0  0
    7.3339  -16.4371   25.4491 C   0  0  0  0  0  0  0  0  0  0  0  0
    7.0814  -15.0492   25.0231 C   0  0  0  0  0  0  0  0  0  0  0  0
    6.9010  -14.6422   23.7116 N   0  0  0  0  0  0  0  0  0  0  0  0
    6.6669  -13.3095   23.6946 C   0  0  0  0  0  0  0  0  0  0  0  0
    6.6879  -12.8291   24.9452 C   0  0  0  0  0  0  0  0  0  0  0  0
    6.5091  -11.5578   25.4157 C   0  0  0  0  0  0  0  0  0  0  0  0
    6.5945  -11.3607   26.7835 C   0  0  0  0  0  0  0  0  0  0  0  0
    6.8482  -12.3894   27.6485 C   0  0  0  0  0  0  0  0  0  0  0  0
    7.0222  -13.6660   27.1188 C   0  0  0  0  0  0  0  0  0  0  0  0
    6.9474  -13.9158   25.7770 C   0  0  0  0  0  0  0  0  0  0  0  0
    9.2275  -17.9392   26.1205 O   0  0  0  0  0  0  0  0  0  0  0  0
    8.5288  -18.9260   26.4608 N   0  0  0  0  0  0  0  0  0  0  0  0
   10.5115  -17.8546   26.6846 C   0  0  1  0  0  0  0  0  0  0  0  0
   10.9712  -18.8951   27.7094 C   0  0  0  0  0  0  0  0  0  0  0  0
   12.2208  -19.4706   27.1925 C   0  0  0  0  0  0  0  0  0  0  0  0
   12.5997  -19.5570   25.8005 C   0  0  0  0  0  0  0  0  0  0  0  0
   13.8337  -20.0720   25.2375 C   0  0  0  0  0  0  0  0  0  0  0  0
   13.9857  -19.9954   23.7316 N   0  0  0  0  0  0  0  0  0  0  0  0
   15.2750  -20.4836   23.2972 C   0  0  0  0  0  0  0  0  0  0  0  0
   11.1721  -18.0446   28.9387 O   0  0  0  0  0  0  0  0  0  0  0  0
   11.3988  -18.7199   30.1562 O   0  0  0  0  0  0  0  0  0  0  0  0
  2  1  1  0
  3  2  2  0
  4  2  1  0
  5  4  1  0
  6  5  1  0
  7  6  1  0
  8 10  1  0
  8  7  1  0
  8  9  1  6
 10 12  1  0
 11 10  2  0
 12 13  1  0
 13 24  1  0
 14 15  1  0
 13 14  1  1
 15 23  1  0
 16 15  2  0
 16 17  1  0
 17 18  1  0
 18 19  1  0
 19 20  2  0
 21 20  1  0
 22 21  2  0
 23 18  2  0
 23 22  1  0
 24 26  1  0
 24 25  2  0
 26 27  1  0
 27 28  1  1
 27 33  1  0
 29 30  1  0
 29 28  1  0
 31 32  1  0
 31 30  1  0
 33 34  1  0
 35 33  2  0
M  END
$$$$
