RWK.pdb
     RDKit          3D

 35 36  0  0  1  0  0  0  0  0999 V2000
    8.3807  -13.1116   16.0801 N   0  0  0  0  0  0  0  0  0  0  0  0
    8.6778  -14.0094   15.0188 C   0  0  0  0  0  0  0  0  0  0  0  0
    8.3798  -13.7449   13.7975 N   0  0  0  0  0  0  0  0  0  0  0  0
    9.3291  -15.2540   15.2989 N   0  0  0  0  0  0  0  0  0  0  0  0
    9.7751  -15.6857   16.5843 C   0  0  0  0  0  0  0  0  0  0  0  0
    8.6430  -16.1895   17.4063 C   0  0  0  0  0  0  0  0  0  0  0  0
    8.4331  -15.6138   18.7447 C   0  0  0  0  0  0  0  0  0  0  0  0
    8.2266  -16.5183   19.8976 C   0  0  2  0  0  0  0  0  0  0  0  0
    6.9097  -16.8125   20.2998 N   0  0  0  0  0  0  0  0  0  0  0  0
    9.0615  -16.1072   21.0749 C   0  0  0  0  0  0  0  0  0  0  0  0
   10.3167  -15.9522   20.9178 O   0  0  0  0  0  0  0  0  0  0  0  0
    8.6972  -14.3631   13.0386 N   0  0  0  0  0  0  0  0  0  0  0  0
    8.4656  -15.8956   22.3413 C   0  0  1  0  0  0  0  0  0  0  0  0
    9.1850  -15.5034   23.4949 C   0  0  0  0  0  0  0  0  0  0  0  0
    8.9581  -14.1029   23.9498 C   0  0  0  0  0  0  0  0  0  0  0  0
    7.7578  -13.9401   24.7889 C   0  0  0  0  0  0  0  0  0  0  0  0
    6.7641  -14.8921   24.9454 N   0  0  0  0  0  0  0  0  0  0  0  0
    5.8324  -14.4161   25.8037 C   0  0  0  0  0  0  0  0  0  0  0  0
    6.1788  -13.1886   26.2143 C   0  0  0  0  0  0  0  0  0  0  0  0
    5.5530  -12.3242   27.0690 C   0  0  0  0  0  0  0  0  0  0  0  0
    6.1573  -11.1004   27.3019 C   0  0  0  0  0  0  0  0  0  0  0  0
    7.3383  -10.7514   26.7067 C   0  0  0  0  0  0  0  0  0  0  0  0
    7.9358  -11.6678   25.8444 C   0  0  0  0  0  0  0  0  0  0  0  0
    7.3824  -12.8894   25.5802 C   0  0  0  0  0  0  0  0  0  0  0  0
    9.1243  -16.5234   24.5874 O   0  0  0  0  0  0  0  0  0  0  0  0
    8.1568  -17.3171   24.6958 N   0  0  0  0  0  0  0  0  0  0  0  0
   10.1459  -16.6443   25.5444 C   0  0  1  0  0  0  0  0  0  0  0  0
   10.6952  -18.0252   25.9124 C   0  0  0  0  0  0  0  0  0  0  0  0
   11.8239  -18.2835   25.0072 C   0  0  0  0  0  0  0  0  0  0  0  0
   12.2684  -19.5838   24.5595 C   0  0  0  0  0  0  0  0  0  0  0  0
   13.3287  -19.8940   23.6192 C   0  0  0  0  0  0  0  0  0  0  0  0
   13.6371  -21.3602   23.3916 N   0  0  0  0  0  0  0  0  0  0  0  0
   13.2051  -21.8025   22.0850 C   0  0  0  0  0  0  0  0  0  0  0  0
   11.1181  -17.8136   27.3446 O   0  0  0  0  0  0  0  0  0  0  0  0
   11.3865  -16.4880   27.7453 O   0  0  0  0  0  0  0  0  0  0  0  0
  2  1  1  0
  3  2  2  0
  4  2  1  0
  5  4  1  0
  6  5  1  0
  7  6  1  0
  8 10  1  0
  8  7  1  0
  8  9  1  1
 10 12  1  0
 11 10  2  0
 12 13  1  0
 13 24  1  0
 14 15  1  0
 13 14  1  1
 15 23  1  0
 16 15  2  0
 16 17  1  0
 17 18  1  0
 18 19  1  0
 19 20  2  0
 21 20  1  0
 22 21  2  0
 23 18  2  0
 23 22  1  0
 24 26  1  0
 24 25  2  0
 26 27  1  0
 27 28  1  1
 27 33  1  0
 29 30  1  0
 29 28  1  0
 31 32  1  0
 31 30  1  0
 33 34  1  0
 35 33  2  0
M  END
$$$$
