RWK.pdb
     RDKit          3D

 35 36  0  0  1  0  0  0  0  0999 V2000
    7.5434  -12.2669   15.1531 N   0  0  0  0  0  0  0  0  0  0  0  0
    7.8610  -13.5625   15.6442 C   0  0  0  0  0  0  0  0  0  0  0  0
    7.8025  -14.6078   14.8997 N   0  0  0  0  0  0  0  0  0  0  0  0
    8.2604  -13.7294   17.0096 N   0  0  0  0  0  0  0  0  0  0  0  0
    7.8819  -14.8133   17.8578 C   0  0  0  0  0  0  0  0  0  0  0  0
    7.0146  -14.3478   18.9724 C   0  0  0  0  0  0  0  0  0  0  0  0
    7.5222  -14.4502   20.3503 C   0  0  0  0  0  0  0  0  0  0  0  0
    7.9983  -15.7588   20.8511 C   0  0  2  0  0  0  0  0  0  0  0  0
    7.0906  -16.8338   20.9053 N   0  0  0  0  0  0  0  0  0  0  0  0
    8.7293  -15.6156   22.1539 C   0  0  0  0  0  0  0  0  0  0  0  0
    9.5934  -14.6872   22.2784 O   0  0  0  0  0  0  0  0  0  0  0  0
    8.0046  -15.5377   15.2912 N   0  0  0  0  0  0  0  0  0  0  0  0
    8.4650  -16.4982   23.2285 C   0  0  1  0  0  0  0  0  0  0  0  0
    9.2003  -16.5102   24.4373 C   0  0  0  0  0  0  0  0  0  0  0  0
    8.3912  -16.4075   25.6841 C   0  0  0  0  0  0  0  0  0  0  0  0
    7.4119  -15.3064   25.6653 C   0  0  0  0  0  0  0  0  0  0  0  0
    6.0599  -15.4516   25.4027 N   0  0  0  0  0  0  0  0  0  0  0  0
    5.4630  -14.2407   25.4951 C   0  0  0  0  0  0  0  0  0  0  0  0
    6.3735  -13.3087   25.8077 C   0  0  0  0  0  0  0  0  0  0  0  0
    6.2413  -11.9616   26.0004 C   0  0  0  0  0  0  0  0  0  0  0  0
    7.3819  -11.2420   26.3137 C   0  0  0  0  0  0  0  0  0  0  0  0
    8.6061  -11.8408   26.4303 C   0  0  0  0  0  0  0  0  0  0  0  0
    8.6875  -13.2162   26.2246 C   0  0  0  0  0  0  0  0  0  0  0  0
    7.5928  -13.9736   25.9141 C   0  0  0  0  0  0  0  0  0  0  0  0
   10.2443  -17.5811   24.4671 O   0  0  0  0  0  0  0  0  0  0  0  0
    9.9485  -18.7947   24.3353 N   0  0  0  0  0  0  0  0  0  0  0  0
   11.6059  -17.2822   24.6428 C   0  0  1  0  0  0  0  0  0  0  0  0
   12.6446  -18.4070   24.6550 C   0  0  0  0  0  0  0  0  0  0  0  0
   13.9074  -17.8181   24.1877 C   0  0  0  0  0  0  0  0  0  0  0  0
   15.1747  -18.5057   24.0863 C   0  0  0  0  0  0  0  0  0  0  0  0
   16.4464  -17.9787   23.6283 C   0  0  0  0  0  0  0  0  0  0  0  0
   17.6408  -18.9086   23.7008 N   0  0  0  0  0  0  0  0  0  0  0  0
   18.8661  -18.2379   23.3289 C   0  0  0  0  0  0  0  0  0  0  0  0
   12.6689  -18.7840   26.1153 O   0  0  0  0  0  0  0  0  0  0  0  0
   13.2265  -20.0370   26.4454 O   0  0  0  0  0  0  0  0  0  0  0  0
  2  1  1  0
  3  2  2  0
  4  2  1  0
  5  4  1  0
  6  5  1  0
  7  6  1  0
  8 10  1  0
  8  7  1  0
  8  9  1  1
 10 12  1  0
 11 10  2  0
 12 13  1  0
 13 24  1  0
 14 15  1  0
 13 14  1  6
 15 23  1  0
 16 15  2  0
 16 17  1  0
 17 18  1  0
 18 19  1  0
 19 20  2  0
 21 20  1  0
 22 21  2  0
 23 18  2  0
 23 22  1  0
 24 26  1  0
 24 25  2  0
 26 27  1  0
 27 28  1  1
 27 33  1  0
 29 30  1  0
 29 28  1  0
 31 32  1  0
 31 30  1  0
 33 34  1  0
 35 33  2  0
M  END
$$$$
