RWK.pdb
     RDKit          3D

 35 36  0  0  1  0  0  0  0  0999 V2000
    9.3459  -14.6848   18.0420 N   0  0  0  0  0  0  0  0  0  0  0  0
    8.4701  -13.6304   17.6652 C   0  0  0  0  0  0  0  0  0  0  0  0
    8.4263  -13.1757   16.4646 N   0  0  0  0  0  0  0  0  0  0  0  0
    7.6014  -13.0422   18.6404 N   0  0  0  0  0  0  0  0  0  0  0  0
    6.9451  -13.7430   19.6966 C   0  0  0  0  0  0  0  0  0  0  0  0
    7.2275  -15.2016   19.6326 C   0  0  0  0  0  0  0  0  0  0  0  0
    7.9770  -15.8234   20.7363 C   0  0  0  0  0  0  0  0  0  0  0  0
    7.2731  -16.7330   21.6674 C   0  0  2  0  0  0  0  0  0  0  0  0
    5.8708  -16.8309   21.5874 N   0  0  0  0  0  0  0  0  0  0  0  0
    7.7094  -16.5121   23.0862 C   0  0  0  0  0  0  0  0  0  0  0  0
    7.1718  -15.5722   23.7584 O   0  0  0  0  0  0  0  0  0  0  0  0
    7.8016  -12.3935   16.2267 N   0  0  0  0  0  0  0  0  0  0  0  0
    8.7035  -17.3335   23.6699 C   0  0  1  0  0  0  0  0  0  0  0  0
    9.1624  -17.1902   25.0007 C   0  0  0  0  0  0  0  0  0  0  0  0
    8.1023  -17.0010   26.0303 C   0  0  0  0  0  0  0  0  0  0  0  0
    7.3550  -15.7392   25.8858 C   0  0  0  0  0  0  0  0  0  0  0  0
    6.0620  -15.6341   25.4009 N   0  0  0  0  0  0  0  0  0  0  0  0
    5.6866  -14.3343   25.4320 C   0  0  0  0  0  0  0  0  0  0  0  0
    6.6853  -13.5852   25.9184 C   0  0  0  0  0  0  0  0  0  0  0  0
    6.7682  -12.2367   26.1287 C   0  0  0  0  0  0  0  0  0  0  0  0
    7.9516  -11.7385   26.6469 C   0  0  0  0  0  0  0  0  0  0  0  0
    9.0108  -12.5515   26.9436 C   0  0  0  0  0  0  0  0  0  0  0  0
    8.8756  -13.9184   26.7113 C   0  0  0  0  0  0  0  0  0  0  0  0
    7.7295  -14.4622   26.2022 C   0  0  0  0  0  0  0  0  0  0  0  0
   10.2013  -18.2029   25.3650 O   0  0  0  0  0  0  0  0  0  0  0  0
   10.0287  -19.4294   25.1564 N   0  0  0  0  0  0  0  0  0  0  0  0
   11.4203  -17.8321   25.9571 C   0  0  1  0  0  0  0  0  0  0  0  0
   12.3972  -18.9063   26.4430 C   0  0  0  0  0  0  0  0  0  0  0  0
   13.7476  -18.4211   26.1252 C   0  0  0  0  0  0  0  0  0  0  0  0
   14.9108  -19.2476   25.8956 C   0  0  0  0  0  0  0  0  0  0  0  0
   16.3074  -18.8549   25.9141 C   0  0  0  0  0  0  0  0  0  0  0  0
   17.3278  -19.9337   25.6115 N   0  0  0  0  0  0  0  0  0  0  0  0
   18.6771  -19.4156   25.6282 C   0  0  0  0  0  0  0  0  0  0  0  0
   12.1085  -18.9342   27.9231 O   0  0  0  0  0  0  0  0  0  0  0  0
   12.6581  -20.0013   28.6641 O   0  0  0  0  0  0  0  0  0  0  0  0
  2  1  1  0
  3  2  2  0
  4  2  1  0
  5  4  1  0
  6  5  1  0
  7  6  1  0
  8 10  1  0
  8  7  1  0
  8  9  1  1
 10 12  1  0
 11 10  2  0
 12 13  1  0
 13 24  1  0
 14 15  1  0
 13 14  1  1
 15 23  1  0
 16 15  2  0
 16 17  1  0
 17 18  1  0
 18 19  1  0
 19 20  2  0
 21 20  1  0
 22 21  2  0
 23 18  2  0
 23 22  1  0
 24 26  1  0
 24 25  2  0
 26 27  1  0
 27 28  1  1
 27 33  1  0
 29 30  1  0
 29 28  1  0
 31 32  1  0
 31 30  1  0
 33 34  1  0
 35 33  2  0
M  END
$$$$
