RWK.pdb
     RDKit          3D

 35 36  0  0  1  0  0  0  0  0999 V2000
    9.9629  -13.2899   18.3336 N   0  0  0  0  0  0  0  0  0  0  0  0
    8.6823  -12.9575   17.8137 C   0  0  0  0  0  0  0  0  0  0  0  0
    8.0934  -11.8534   18.1041 N   0  0  0  0  0  0  0  0  0  0  0  0
    8.0100  -13.8694   16.9372 N   0  0  0  0  0  0  0  0  0  0  0  0
    8.4549  -15.1856   16.6100 C   0  0  0  0  0  0  0  0  0  0  0  0
    8.4144  -16.0791   17.7979 C   0  0  0  0  0  0  0  0  0  0  0  0
    9.6816  -16.4288   18.4602 C   0  0  0  0  0  0  0  0  0  0  0  0
    9.6646  -17.3604   19.6098 C   0  0  2  0  0  0  0  0  0  0  0  0
    8.7554  -18.4355   19.5965 N   0  0  0  0  0  0  0  0  0  0  0  0
    9.5938  -16.6220   20.9144 C   0  0  0  0  0  0  0  0  0  0  0  0
   10.4716  -15.7342   21.1699 O   0  0  0  0  0  0  0  0  0  0  0  0
    7.1746  -11.6309   17.6977 N   0  0  0  0  0  0  0  0  0  0  0  0
    8.5690  -16.9071   21.8483 C   0  0  1  0  0  0  0  0  0  0  0  0
    8.4300  -16.2462   23.0917 C   0  0  0  0  0  0  0  0  0  0  0  0
    7.1121  -15.5935   23.3300 C   0  0  0  0  0  0  0  0  0  0  0  0
    6.9518  -15.0644   24.6959 C   0  0  0  0  0  0  0  0  0  0  0  0
    6.6211  -15.8228   25.8066 N   0  0  0  0  0  0  0  0  0  0  0  0
    6.5858  -15.0166   26.8930 C   0  0  0  0  0  0  0  0  0  0  0  0
    6.8805  -13.7596   26.5349 C   0  0  0  0  0  0  0  0  0  0  0  0
    6.9623  -12.6158   27.2795 C   0  0  0  0  0  0  0  0  0  0  0  0
    7.2874  -11.4420   26.6210 C   0  0  0  0  0  0  0  0  0  0  0  0
    7.5215  -11.4089   25.2738 C   0  0  0  0  0  0  0  0  0  0  0  0
    7.4259  -12.6016   24.5604 C   0  0  0  0  0  0  0  0  0  0  0  0
    7.1091  -13.7878   25.1612 C   0  0  0  0  0  0  0  0  0  0  0  0
    8.9281  -17.0657   24.2397 O   0  0  0  0  0  0  0  0  0  0  0  0
    8.4322  -18.1865   24.5143 N   0  0  0  0  0  0  0  0  0  0  0  0
    9.9747  -16.6227   25.0659 C   0  0  1  0  0  0  0  0  0  0  0  0
   10.8472  -17.6360   25.8115 C   0  0  0  0  0  0  0  0  0  0  0  0
   12.2406  -17.2059   25.6287 C   0  0  0  0  0  0  0  0  0  0  0  0
   13.4134  -18.0188   25.8579 C   0  0  0  0  0  0  0  0  0  0  0  0
   14.0877  -18.9028   24.9259 C   0  0  0  0  0  0  0  0  0  0  0  0
   15.3461  -19.5886   25.4183 N   0  0  0  0  0  0  0  0  0  0  0  0
   16.0123  -20.3120   24.3590 C   0  0  0  0  0  0  0  0  0  0  0  0
   10.3567  -17.4763   27.2289 O   0  0  0  0  0  0  0  0  0  0  0  0
    9.3146  -16.5510   27.4469 O   0  0  0  0  0  0  0  0  0  0  0  0
  2  1  1  0
  3  2  2  0
  4  2  1  0
  5  4  1  0
  6  5  1  0
  7  6  1  0
  8 10  1  0
  8  7  1  0
  8  9  1  6
 10 12  1  0
 11 10  2  0
 12 13  1  0
 13 24  1  0
 14 15  1  0
 13 14  1  1
 15 23  1  0
 16 15  2  0
 16 17  1  0
 17 18  1  0
 18 19  1  0
 19 20  2  0
 21 20  1  0
 22 21  2  0
 23 18  2  0
 23 22  1  0
 24 26  1  0
 24 25  2  0
 26 27  1  0
 27 28  1  1
 27 33  1  0
 29 30  1  0
 29 28  1  0
 31 32  1  0
 31 30  1  0
 33 34  1  0
 35 33  2  0
M  END
$$$$
