RWK.pdb
     RDKit          3D

 35 36  0  0  1  0  0  0  0  0999 V2000
    8.6630  -12.8498   18.1643 N   0  0  0  0  0  0  0  0  0  0  0  0
    8.1683  -13.5461   17.0281 C   0  0  0  0  0  0  0  0  0  0  0  0
    8.1766  -13.0275   15.8528 N   0  0  0  0  0  0  0  0  0  0  0  0
    7.6387  -14.8686   17.1771 N   0  0  0  0  0  0  0  0  0  0  0  0
    7.7839  -15.6948   18.3320 C   0  0  0  0  0  0  0  0  0  0  0  0
    7.3072  -14.9983   19.5562 C   0  0  0  0  0  0  0  0  0  0  0  0
    8.1357  -15.0622   20.7712 C   0  0  0  0  0  0  0  0  0  0  0  0
    8.3538  -16.3689   21.4308 C   0  0  2  0  0  0  0  0  0  0  0  0
    7.3024  -17.3053   21.4422 N   0  0  0  0  0  0  0  0  0  0  0  0
    8.9292  -16.2005   22.8067 C   0  0  0  0  0  0  0  0  0  0  0  0
    9.8861  -15.3768   22.9793 O   0  0  0  0  0  0  0  0  0  0  0  0
    7.8515  -13.5709   15.0417 N   0  0  0  0  0  0  0  0  0  0  0  0
    8.4186  -16.9455   23.8966 C   0  0  1  0  0  0  0  0  0  0  0  0
    8.9072  -16.8407   25.2203 C   0  0  0  0  0  0  0  0  0  0  0  0
    7.8930  -16.4946   26.2554 C   0  0  0  0  0  0  0  0  0  0  0  0
    7.0865  -15.3076   25.9205 C   0  0  0  0  0  0  0  0  0  0  0  0
    5.7832  -15.3402   25.4532 N   0  0  0  0  0  0  0  0  0  0  0  0
    5.3490  -14.0706   25.2771 C   0  0  0  0  0  0  0  0  0  0  0  0
    6.3191  -13.2089   25.6111 C   0  0  0  0  0  0  0  0  0  0  0  0
    6.3429  -11.8419   25.5937 C   0  0  0  0  0  0  0  0  0  0  0  0
    7.5095  -11.2142   25.9965 C   0  0  0  0  0  0  0  0  0  0  0  0
    8.6090  -11.9204   26.4005 C   0  0  0  0  0  0  0  0  0  0  0  0
    8.5334  -13.3114   26.4004 C   0  0  0  0  0  0  0  0  0  0  0  0
    7.4064  -13.9810   26.0132 C   0  0  0  0  0  0  0  0  0  0  0  0
    9.8071  -17.9754   25.5948 O   0  0  0  0  0  0  0  0  0  0  0  0
    9.3567  -19.1232   25.8342 N   0  0  0  0  0  0  0  0  0  0  0  0
   11.1991  -17.8133   25.6963 C   0  0  1  0  0  0  0  0  0  0  0  0
   12.0887  -19.0087   26.0481 C   0  0  0  0  0  0  0  0  0  0  0  0
   13.4191  -18.7199   25.4946 C   0  0  0  0  0  0  0  0  0  0  0  0
   13.8233  -18.9123   24.1204 C   0  0  0  0  0  0  0  0  0  0  0  0
   15.1232  -18.6652   23.5252 C   0  0  0  0  0  0  0  0  0  0  0  0
   15.2295  -18.8171   22.0212 N   0  0  0  0  0  0  0  0  0  0  0  0
   16.5625  -18.5237   21.5454 C   0  0  0  0  0  0  0  0  0  0  0  0
   12.0533  -18.9821   27.5558 O   0  0  0  0  0  0  0  0  0  0  0  0
   11.5219  -17.8261   28.1649 O   0  0  0  0  0  0  0  0  0  0  0  0
  2  1  1  0
  3  2  2  0
  4  2  1  0
  5  4  1  0
  6  5  1  0
  7  6  1  0
  8 10  1  0
  8  7  1  0
  8  9  1  1
 10 12  1  0
 11 10  2  0
 12 13  1  0
 13 24  1  0
 14 15  1  0
 13 14  1  1
 15 23  1  0
 16 15  2  0
 16 17  1  0
 17 18  1  0
 18 19  1  0
 19 20  2  0
 21 20  1  0
 22 21  2  0
 23 18  2  0
 23 22  1  0
 24 26  1  0
 24 25  2  0
 26 27  1  0
 27 28  1  1
 27 33  1  0
 29 30  1  0
 29 28  1  0
 31 32  1  0
 31 30  1  0
 33 34  1  0
 35 33  2  0
M  END
$$$$
