RWK.pdb
     RDKit          3D

 35 36  0  0  1  0  0  0  0  0999 V2000
    8.4209  -11.9741   18.7546 N   0  0  0  0  0  0  0  0  0  0  0  0
    7.8792  -13.1207   18.1122 C   0  0  0  0  0  0  0  0  0  0  0  0
    8.1471  -13.4081   16.8892 N   0  0  0  0  0  0  0  0  0  0  0  0
    7.0044  -13.9957   18.8338 N   0  0  0  0  0  0  0  0  0  0  0  0
    6.6882  -13.8924   20.2219 C   0  0  0  0  0  0  0  0  0  0  0  0
    7.2382  -15.0429   20.9869 C   0  0  0  0  0  0  0  0  0  0  0  0
    8.6728  -15.3488   20.8653 C   0  0  0  0  0  0  0  0  0  0  0  0
    9.2309  -16.5063   21.5992 C   0  0  2  0  0  0  0  0  0  0  0  0
    8.4605  -17.6807   21.6979 N   0  0  0  0  0  0  0  0  0  0  0  0
    9.7563  -16.1018   22.9455 C   0  0  0  0  0  0  0  0  0  0  0  0
   10.5845  -15.1363   23.0206 O   0  0  0  0  0  0  0  0  0  0  0  0
    7.7575  -14.2565   16.4565 N   0  0  0  0  0  0  0  0  0  0  0  0
    9.3399  -16.7822   24.1149 C   0  0  1  0  0  0  0  0  0  0  0  0
    9.7910  -16.4601   25.4167 C   0  0  0  0  0  0  0  0  0  0  0  0
    8.7325  -16.3727   26.4615 C   0  0  0  0  0  0  0  0  0  0  0  0
    7.6356  -15.4508   26.1175 C   0  0  0  0  0  0  0  0  0  0  0  0
    6.3738  -15.8399   25.7000 N   0  0  0  0  0  0  0  0  0  0  0  0
    5.6189  -14.7351   25.4980 C   0  0  0  0  0  0  0  0  0  0  0  0
    6.3393  -13.6380   25.7672 C   0  0  0  0  0  0  0  0  0  0  0  0
    6.0054  -12.3136   25.7037 C   0  0  0  0  0  0  0  0  0  0  0  0
    6.9783  -11.3884   26.0421 C   0  0  0  0  0  0  0  0  0  0  0  0
    8.2344  -11.7675   26.4283 C   0  0  0  0  0  0  0  0  0  0  0  0
    8.5243  -13.1292   26.4771 C   0  0  0  0  0  0  0  0  0  0  0  0
    7.6008  -14.0839   26.1543 C   0  0  0  0  0  0  0  0  0  0  0  0
   10.9937  -17.2512   25.8230 O   0  0  0  0  0  0  0  0  0  0  0  0
   11.4775  -17.1693   26.9792 N   0  0  0  0  0  0  0  0  0  0  0  0
   11.6402  -18.1247   24.9323 C   0  0  1  0  0  0  0  0  0  0  0  0
   12.7863  -19.0135   25.4229 C   0  0  0  0  0  0  0  0  0  0  0  0
   12.6862  -20.2771   24.6792 C   0  0  0  0  0  0  0  0  0  0  0  0
   11.4853  -21.0617   24.5029 C   0  0  0  0  0  0  0  0  0  0  0  0
   10.8683  -21.9798   25.4416 C   0  0  0  0  0  0  0  0  0  0  0  0
    9.5591  -22.6159   25.0199 N   0  0  0  0  0  0  0  0  0  0  0  0
    9.0360  -23.4946   26.0414 C   0  0  0  0  0  0  0  0  0  0  0  0
   13.9933  -18.1932   25.0415 O   0  0  0  0  0  0  0  0  0  0  0  0
   15.2556  -18.6924   25.4250 O   0  0  0  0  0  0  0  0  0  0  0  0
  2  1  1  0
  3  2  2  0
  4  2  1  0
  5  4  1  0
  6  5  1  0
  7  6  1  0
  8 10  1  0
  8  7  1  0
  8  9  1  1
 10 12  1  0
 11 10  2  0
 12 13  1  0
 13 24  1  0
 14 15  1  0
 13 14  1  1
 15 23  1  0
 16 15  2  0
 16 17  1  0
 17 18  1  0
 18 19  1  0
 19 20  2  0
 21 20  1  0
 22 21  2  0
 23 18  2  0
 23 22  1  0
 24 26  1  0
 24 25  2  0
 26 27  1  0
 27 28  1  1
 27 33  1  0
 29 30  1  0
 29 28  1  0
 31 32  1  0
 31 30  1  0
 33 34  1  0
 35 33  2  0
M  END
$$$$
