RWK.pdb
     RDKit          3D

 35 36  0  0  1  0  0  0  0  0999 V2000
    7.0439  -13.0670   16.0749 N   0  0  0  0  0  0  0  0  0  0  0  0
    7.7282  -14.2057   15.5692 C   0  0  0  0  0  0  0  0  0  0  0  0
    8.3194  -14.1959   14.4287 N   0  0  0  0  0  0  0  0  0  0  0  0
    7.7711  -15.4123   16.3400 N   0  0  0  0  0  0  0  0  0  0  0  0
    7.3116  -15.5547   17.6838 C   0  0  0  0  0  0  0  0  0  0  0  0
    7.7022  -14.3844   18.5138 C   0  0  0  0  0  0  0  0  0  0  0  0
    8.6970  -14.5780   19.5813 C   0  0  0  0  0  0  0  0  0  0  0  0
    8.5947  -15.7647   20.4596 C   0  0  2  0  0  0  0  0  0  0  0  0
    7.3173  -16.2088   20.8514 N   0  0  0  0  0  0  0  0  0  0  0  0
    9.5036  -15.6485   21.6481 C   0  0  0  0  0  0  0  0  0  0  0  0
   10.7239  -15.3307   21.4636 O   0  0  0  0  0  0  0  0  0  0  0  0
    8.8369  -15.0237   14.1036 N   0  0  0  0  0  0  0  0  0  0  0  0
    9.0147  -15.8891   22.9546 C   0  0  1  0  0  0  0  0  0  0  0  0
    9.8227  -15.8609   24.1158 C   0  0  0  0  0  0  0  0  0  0  0  0
    9.6308  -14.6810   25.0050 C   0  0  0  0  0  0  0  0  0  0  0  0
    8.2474  -14.5218   25.4872 C   0  0  0  0  0  0  0  0  0  0  0  0
    7.2936  -15.5257   25.5063 N   0  0  0  0  0  0  0  0  0  0  0  0
    6.1495  -15.0332   26.0353 C   0  0  0  0  0  0  0  0  0  0  0  0
    6.3188  -13.7450   26.3625 C   0  0  0  0  0  0  0  0  0  0  0  0
    5.4523  -12.8439   26.9164 C   0  0  0  0  0  0  0  0  0  0  0  0
    5.9166  -11.5586   27.1385 C   0  0  0  0  0  0  0  0  0  0  0  0
    7.1937  -11.1854   26.8213 C   0  0  0  0  0  0  0  0  0  0  0  0
    8.0374  -12.1410   26.2595 C   0  0  0  0  0  0  0  0  0  0  0  0
    7.6301  -13.4236   26.0199 C   0  0  0  0  0  0  0  0  0  0  0  0
    9.8501  -17.1739   24.8318 O   0  0  0  0  0  0  0  0  0  0  0  0
    8.8303  -17.9027   24.9124 N   0  0  0  0  0  0  0  0  0  0  0  0
   11.0169  -17.6565   25.4480 C   0  0  1  0  0  0  0  0  0  0  0  0
   10.9795  -18.9586   26.2524 C   0  0  0  0  0  0  0  0  0  0  0  0
   12.1231  -19.7642   25.8017 C   0  0  0  0  0  0  0  0  0  0  0  0
   12.4942  -21.0649   26.3108 C   0  0  0  0  0  0  0  0  0  0  0  0
   13.5569  -21.9384   25.8496 C   0  0  0  0  0  0  0  0  0  0  0  0
   13.6442  -23.3097   26.4887 N   0  0  0  0  0  0  0  0  0  0  0  0
   14.7149  -24.0983   25.9221 C   0  0  0  0  0  0  0  0  0  0  0  0
   11.1303  -18.4496   27.6642 O   0  0  0  0  0  0  0  0  0  0  0  0
   10.7860  -19.3360   28.7061 O   0  0  0  0  0  0  0  0  0  0  0  0
  2  1  1  0
  3  2  2  0
  4  2  1  0
  5  4  1  0
  6  5  1  0
  7  6  1  0
  8 10  1  0
  8  7  1  0
  8  9  1  1
 10 12  1  0
 11 10  2  0
 12 13  1  0
 13 24  1  0
 14 15  1  0
 13 14  1  1
 15 23  1  0
 16 15  2  0
 16 17  1  0
 17 18  1  0
 18 19  1  0
 19 20  2  0
 21 20  1  0
 22 21  2  0
 23 18  2  0
 23 22  1  0
 24 26  1  0
 24 25  2  0
 26 27  1  0
 27 28  1  1
 27 33  1  0
 29 30  1  0
 29 28  1  0
 31 32  1  0
 31 30  1  0
 33 34  1  0
 35 33  2  0
M  END
$$$$
