RWK.pdb
     RDKit          3D

 35 36  0  0  1  0  0  0  0  0999 V2000
    8.0742  -12.4888   16.2586 N   0  0  0  0  0  0  0  0  0  0  0  0
    7.9297  -13.8535   16.6292 C   0  0  0  0  0  0  0  0  0  0  0  0
    8.3423  -14.8117   15.8796 N   0  0  0  0  0  0  0  0  0  0  0  0
    7.3065  -14.1923   17.8737 N   0  0  0  0  0  0  0  0  0  0  0  0
    7.9261  -14.1220   19.1577 C   0  0  0  0  0  0  0  0  0  0  0  0
    9.0477  -15.0919   19.2686 C   0  0  0  0  0  0  0  0  0  0  0  0
    9.7633  -15.1982   20.5505 C   0  0  0  0  0  0  0  0  0  0  0  0
    9.8174  -16.5048   21.2432 C   0  0  2  0  0  0  0  0  0  0  0  0
    8.9078  -17.5104   20.8637 N   0  0  0  0  0  0  0  0  0  0  0  0
    9.8296  -16.3360   22.7344 C   0  0  0  0  0  0  0  0  0  0  0  0
   10.6383  -15.4996   23.2546 O   0  0  0  0  0  0  0  0  0  0  0  0
    8.2556  -15.7892   16.1892 N   0  0  0  0  0  0  0  0  0  0  0  0
    8.9576  -17.0942   23.5519 C   0  0  1  0  0  0  0  0  0  0  0  0
    8.9082  -16.9879   24.9620 C   0  0  0  0  0  0  0  0  0  0  0  0
    7.5767  -16.6443   25.5354 C   0  0  0  0  0  0  0  0  0  0  0  0
    7.1168  -15.2870   25.1924 C   0  0  0  0  0  0  0  0  0  0  0  0
    6.4450  -14.9472   24.0299 N   0  0  0  0  0  0  0  0  0  0  0  0
    6.1558  -13.6256   24.0612 C   0  0  0  0  0  0  0  0  0  0  0  0
    6.6134  -13.0879   25.2000 C   0  0  0  0  0  0  0  0  0  0  0  0
    6.5586  -11.8033   25.6651 C   0  0  0  0  0  0  0  0  0  0  0  0
    7.1333  -11.5408   26.8972 C   0  0  0  0  0  0  0  0  0  0  0  0
    7.7388  -12.5193   27.6366 C   0  0  0  0  0  0  0  0  0  0  0  0
    7.7676  -13.8120   27.1184 C   0  0  0  0  0  0  0  0  0  0  0  0
    7.2150  -14.1255   25.9082 C   0  0  0  0  0  0  0  0  0  0  0  0
    9.6019  -18.1201   25.6508 O   0  0  0  0  0  0  0  0  0  0  0  0
    9.2714  -19.3154   25.4514 N   0  0  0  0  0  0  0  0  0  0  0  0
   10.6568  -17.9025   26.5530 C   0  0  1  0  0  0  0  0  0  0  0  0
   11.3077  -19.0855   27.2748 C   0  0  0  0  0  0  0  0  0  0  0  0
   12.7213  -19.0970   26.8729 C   0  0  0  0  0  0  0  0  0  0  0  0
   13.4475  -20.2399   26.3677 C   0  0  0  0  0  0  0  0  0  0  0  0
   14.8390  -20.3107   25.9634 C   0  0  0  0  0  0  0  0  0  0  0  0
   15.3072  -21.6098   25.3392 N   0  0  0  0  0  0  0  0  0  0  0  0
   16.6915  -21.5396   24.9291 C   0  0  0  0  0  0  0  0  0  0  0  0
   11.1038  -18.7100   28.7213 O   0  0  0  0  0  0  0  0  0  0  0  0
   11.4975  -19.6554   29.6914 O   0  0  0  0  0  0  0  0  0  0  0  0
  2  1  1  0
  3  2  2  0
  4  2  1  0
  5  4  1  0
  6  5  1  0
  7  6  1  0
  8 10  1  0
  8  7  1  0
  8  9  1  1
 10 12  1  0
 11 10  2  0
 12 13  1  0
 13 24  1  0
 14 15  1  0
 13 14  1  1
 15 23  1  0
 16 15  2  0
 16 17  1  0
 17 18  1  0
 18 19  1  0
 19 20  2  0
 21 20  1  0
 22 21  2  0
 23 18  2  0
 23 22  1  0
 24 26  1  0
 24 25  2  0
 26 27  1  0
 27 28  1  1
 27 33  1  0
 29 30  1  0
 29 28  1  0
 31 32  1  0
 31 30  1  0
 33 34  1  0
 35 33  2  0
M  END
$$$$
