RWK.pdb
     RDKit          3D

 35 36  0  0  1  0  0  0  0  0999 V2000
    8.7244  -12.3839   17.3641 N   0  0  0  0  0  0  0  0  0  0  0  0
    7.8650  -12.8786   18.3826 C   0  0  0  0  0  0  0  0  0  0  0  0
    7.6758  -12.2444   19.4836 N   0  0  0  0  0  0  0  0  0  0  0  0
    7.1794  -14.1222   18.1951 N   0  0  0  0  0  0  0  0  0  0  0  0
    7.7274  -15.4168   18.4424 C   0  0  0  0  0  0  0  0  0  0  0  0
    8.9780  -15.6298   17.6666 C   0  0  0  0  0  0  0  0  0  0  0  0
   10.0940  -16.3417   18.3104 C   0  0  0  0  0  0  0  0  0  0  0  0
    9.8114  -17.2753   19.4233 C   0  0  2  0  0  0  0  0  0  0  0  0
    8.7614  -18.2023   19.2792 N   0  0  0  0  0  0  0  0  0  0  0  0
    9.7041  -16.5516   20.7336 C   0  0  0  0  0  0  0  0  0  0  0  0
   10.6269  -15.7385   21.0674 O   0  0  0  0  0  0  0  0  0  0  0  0
    7.0488  -12.6276   20.2039 N   0  0  0  0  0  0  0  0  0  0  0  0
    8.5961  -16.7687   21.5873 C   0  0  1  0  0  0  0  0  0  0  0  0
    8.4686  -16.1948   22.8743 C   0  0  0  0  0  0  0  0  0  0  0  0
    7.1670  -15.5265   23.1551 C   0  0  0  0  0  0  0  0  0  0  0  0
    7.0153  -15.0900   24.5544 C   0  0  0  0  0  0  0  0  0  0  0  0
    6.7090  -15.9241   25.6168 N   0  0  0  0  0  0  0  0  0  0  0  0
    6.6749  -15.1910   26.7538 C   0  0  0  0  0  0  0  0  0  0  0  0
    6.9469  -13.9090   26.4753 C   0  0  0  0  0  0  0  0  0  0  0  0
    7.0211  -12.8150   27.2921 C   0  0  0  0  0  0  0  0  0  0  0  0
    7.3212  -11.5960   26.7081 C   0  0  0  0  0  0  0  0  0  0  0  0
    7.5387  -11.4716   25.3635 C   0  0  0  0  0  0  0  0  0  0  0  0
    7.4519  -12.6166   24.5749 C   0  0  0  0  0  0  0  0  0  0  0  0
    7.1596  -13.8442   25.1003 C   0  0  0  0  0  0  0  0  0  0  0  0
    8.9402  -17.1068   23.9622 O   0  0  0  0  0  0  0  0  0  0  0  0
    8.3898  -18.2148   24.1789 N   0  0  0  0  0  0  0  0  0  0  0  0
   10.0214  -16.7695   24.7936 C   0  0  1  0  0  0  0  0  0  0  0  0
   10.6192  -17.8145   25.7395 C   0  0  0  0  0  0  0  0  0  0  0  0
   12.0514  -17.8993   25.4211 C   0  0  0  0  0  0  0  0  0  0  0  0
   13.0123  -18.7622   26.0699 C   0  0  0  0  0  0  0  0  0  0  0  0
   14.4155  -18.9429   25.7487 C   0  0  0  0  0  0  0  0  0  0  0  0
   15.2031  -19.8960   26.6249 N   0  0  0  0  0  0  0  0  0  0  0  0
   16.1046  -20.7172   25.8488 C   0  0  0  0  0  0  0  0  0  0  0  0
   10.3455  -17.1973   27.0883 O   0  0  0  0  0  0  0  0  0  0  0  0
   10.4342  -18.0453   28.2120 O   0  0  0  0  0  0  0  0  0  0  0  0
  2  1  1  0
  3  2  2  0
  4  2  1  0
  5  4  1  0
  6  5  1  0
  7  6  1  0
  8 10  1  0
  8  7  1  0
  8  9  1  6
 10 12  1  0
 11 10  2  0
 12 13  1  0
 13 24  1  0
 14 15  1  0
 13 14  1  1
 15 23  1  0
 16 15  2  0
 16 17  1  0
 17 18  1  0
 18 19  1  0
 19 20  2  0
 21 20  1  0
 22 21  2  0
 23 18  2  0
 23 22  1  0
 24 26  1  0
 24 25  2  0
 26 27  1  0
 27 28  1  1
 27 33  1  0
 29 30  1  0
 29 28  1  0
 31 32  1  0
 31 30  1  0
 33 34  1  0
 35 33  2  0
M  END
$$$$
