RWK.pdb
     RDKit          3D

 35 36  0  0  1  0  0  0  0  0999 V2000
    7.5893  -12.7575   18.5393 N   0  0  0  0  0  0  0  0  0  0  0  0
    7.8088  -13.7141   17.5110 C   0  0  0  0  0  0  0  0  0  0  0  0
    8.5052  -13.4447   16.4657 N   0  0  0  0  0  0  0  0  0  0  0  0
    7.2439  -15.0254   17.6246 N   0  0  0  0  0  0  0  0  0  0  0  0
    7.8727  -16.2381   17.2104 C   0  0  0  0  0  0  0  0  0  0  0  0
    8.1788  -17.1113   18.3744 C   0  0  0  0  0  0  0  0  0  0  0  0
    9.5838  -17.2763   18.7813 C   0  0  0  0  0  0  0  0  0  0  0  0
   10.3252  -16.1111   19.3127 C   0  0  2  0  0  0  0  0  0  0  0  0
   11.6898  -15.9741   18.9935 N   0  0  0  0  0  0  0  0  0  0  0  0
   10.1066  -15.9471   20.7883 C   0  0  0  0  0  0  0  0  0  0  0  0
   10.9393  -16.4713   21.5981 O   0  0  0  0  0  0  0  0  0  0  0  0
    8.7402  -14.1858   15.7916 N   0  0  0  0  0  0  0  0  0  0  0  0
    8.9921  -15.2224   21.2747 C   0  0  2  0  0  0  0  0  0  0  0  0
    8.6419  -15.1406   22.6432 C   0  0  0  0  0  0  0  0  0  0  0  0
    7.3198  -14.5181   22.9332 C   0  0  0  0  0  0  0  0  0  0  0  0
    7.0149  -14.4187   24.3715 C   0  0  0  0  0  0  0  0  0  0  0  0
    6.4248  -15.4173   25.1282 N   0  0  0  0  0  0  0  0  0  0  0  0
    6.3200  -14.9928   26.4088 C   0  0  0  0  0  0  0  0  0  0  0  0
    6.8188  -13.7541   26.5184 C   0  0  0  0  0  0  0  0  0  0  0  0
    6.9236  -12.9272   27.6023 C   0  0  0  0  0  0  0  0  0  0  0  0
    7.4888  -11.6786   27.4059 C   0  0  0  0  0  0  0  0  0  0  0  0
    7.9320  -11.2697   26.1783 C   0  0  0  0  0  0  0  0  0  0  0  0
    7.8030  -12.1498   25.1062 C   0  0  0  0  0  0  0  0  0  0  0  0
    7.2534  -13.3936   25.2451 C   0  0  0  0  0  0  0  0  0  0  0  0
    8.8974  -16.4162   23.3816 O   0  0  0  0  0  0  0  0  0  0  0  0
    8.3737  -17.5008   23.0254 N   0  0  0  0  0  0  0  0  0  0  0  0
    9.7357  -16.4638   24.5081 C   0  0  1  0  0  0  0  0  0  0  0  0
    9.9954  -17.7955   25.2175 C   0  0  0  0  0  0  0  0  0  0  0  0
   11.3958  -18.1499   24.9467 C   0  0  0  0  0  0  0  0  0  0  0  0
   12.0983  -19.2923   25.4855 C   0  0  0  0  0  0  0  0  0  0  0  0
   13.4645  -19.7074   25.2288 C   0  0  0  0  0  0  0  0  0  0  0  0
   13.9828  -20.8907   26.0211 N   0  0  0  0  0  0  0  0  0  0  0  0
   15.3617  -21.1861   25.7039 C   0  0  0  0  0  0  0  0  0  0  0  0
    9.7431  -17.4280   26.6584 O   0  0  0  0  0  0  0  0  0  0  0  0
    9.5640  -18.4898   27.5696 O   0  0  0  0  0  0  0  0  0  0  0  0
  2  1  1  0
  3  2  2  0
  4  2  1  0
  5  4  1  0
  6  5  1  0
  7  6  1  0
  8 10  1  0
  8  7  1  0
  8  9  1  1
 10 12  1  0
 11 10  2  0
 12 13  1  0
 13 24  1  0
 14 15  1  0
 13 14  1  1
 15 23  1  0
 16 15  2  0
 16 17  1  0
 17 18  1  0
 18 19  1  0
 19 20  2  0
 21 20  1  0
 22 21  2  0
 23 18  2  0
 23 22  1  0
 24 26  1  0
 24 25  2  0
 26 27  1  0
 27 28  1  1
 27 33  1  0
 29 30  1  0
 29 28  1  0
 31 32  1  0
 31 30  1  0
 33 34  1  0
 35 33  2  0
M  END
$$$$
