RWK.pdb
     RDKit          3D

 35 36  0  0  1  0  0  0  0  0999 V2000
    9.9472  -14.6737   16.3917 N   0  0  0  0  0  0  0  0  0  0  0  0
    8.7340  -14.0170   16.0485 C   0  0  0  0  0  0  0  0  0  0  0  0
    8.2344  -14.0804   14.8667 N   0  0  0  0  0  0  0  0  0  0  0  0
    8.0314  -13.2549   17.0370 N   0  0  0  0  0  0  0  0  0  0  0  0
    8.4051  -13.1314   18.4091 C   0  0  0  0  0  0  0  0  0  0  0  0
    8.3304  -14.4418   19.1080 C   0  0  0  0  0  0  0  0  0  0  0  0
    8.7720  -14.5189   20.5100 C   0  0  0  0  0  0  0  0  0  0  0  0
    9.0874  -15.8397   21.0981 C   0  0  2  0  0  0  0  0  0  0  0  0
    8.2922  -16.9461   20.7430 N   0  0  0  0  0  0  0  0  0  0  0  0
    9.2428  -15.7546   22.5884 C   0  0  0  0  0  0  0  0  0  0  0  0
   10.0017  -14.8566   23.0799 O   0  0  0  0  0  0  0  0  0  0  0  0
    7.3198  -13.6542   14.6647 N   0  0  0  0  0  0  0  0  0  0  0  0
    8.5584  -16.6581   23.4363 C   0  0  1  0  0  0  0  0  0  0  0  0
    8.7526  -16.7258   24.8362 C   0  0  0  0  0  0  0  0  0  0  0  0
    7.5564  -16.4143   25.6679 C   0  0  0  0  0  0  0  0  0  0  0  0
    7.0083  -15.0663   25.4352 C   0  0  0  0  0  0  0  0  0  0  0  0
    6.0704  -14.7475   24.4674 N   0  0  0  0  0  0  0  0  0  0  0  0
    5.7791  -13.4290   24.5568 C   0  0  0  0  0  0  0  0  0  0  0  0
    6.4913  -12.8732   25.5463 C   0  0  0  0  0  0  0  0  0  0  0  0
    6.5330  -11.5841   26.0002 C   0  0  0  0  0  0  0  0  0  0  0  0
    7.3852  -11.3010   27.0541 C   0  0  0  0  0  0  0  0  0  0  0  0
    8.1652  -12.2639   27.6329 C   0  0  0  0  0  0  0  0  0  0  0  0
    8.0856  -13.5621   27.1339 C   0  0  0  0  0  0  0  0  0  0  0  0
    7.2608  -13.8957   26.0962 C   0  0  0  0  0  0  0  0  0  0  0  0
    9.4923  -17.9559   25.2574 O   0  0  0  0  0  0  0  0  0  0  0  0
    9.0567  -19.1065   25.0046 N   0  0  0  0  0  0  0  0  0  0  0  0
   10.7098  -17.8846   25.9550 C   0  0  1  0  0  0  0  0  0  0  0  0
   11.4204  -19.1676   26.3945 C   0  0  0  0  0  0  0  0  0  0  0  0
   12.8493  -18.9756   26.1095 C   0  0  0  0  0  0  0  0  0  0  0  0
   13.7539  -19.9837   25.6054 C   0  0  0  0  0  0  0  0  0  0  0  0
   15.1252  -20.2382   26.0050 C   0  0  0  0  0  0  0  0  0  0  0  0
   15.8630  -21.3364   25.2659 N   0  0  0  0  0  0  0  0  0  0  0  0
   17.2846  -21.0815   25.2066 C   0  0  0  0  0  0  0  0  0  0  0  0
   11.1074  -19.1997   27.8696 O   0  0  0  0  0  0  0  0  0  0  0  0
   11.2400  -20.4407   28.5269 O   0  0  0  0  0  0  0  0  0  0  0  0
  2  1  1  0
  3  2  2  0
  4  2  1  0
  5  4  1  0
  6  5  1  0
  7  6  1  0
  8 10  1  0
  8  7  1  0
  8  9  1  1
 10 12  1  0
 11 10  2  0
 12 13  1  0
 13 24  1  0
 14 15  1  0
 13 14  1  1
 15 23  1  0
 16 15  2  0
 16 17  1  0
 17 18  1  0
 18 19  1  0
 19 20  2  0
 21 20  1  0
 22 21  2  0
 23 18  2  0
 23 22  1  0
 24 26  1  0
 24 25  2  0
 26 27  1  0
 27 28  1  1
 27 33  1  0
 29 30  1  0
 29 28  1  0
 31 32  1  0
 31 30  1  0
 33 34  1  0
 35 33  2  0
M  END
$$$$
