RWK.pdb
     RDKit          3D

 35 36  0  0  1  0  0  0  0  0999 V2000
   11.1544  -19.7093   20.7062 N   0  0  0  0  0  0  0  0  0  0  0  0
   11.2521  -19.3131   19.3445 C   0  0  0  0  0  0  0  0  0  0  0  0
   12.3804  -19.2374   18.7350 N   0  0  0  0  0  0  0  0  0  0  0  0
   10.0668  -18.9829   18.6112 N   0  0  0  0  0  0  0  0  0  0  0  0
    8.7626  -18.8267   19.1698 C   0  0  0  0  0  0  0  0  0  0  0  0
    8.5987  -17.4848   19.7891 C   0  0  0  0  0  0  0  0  0  0  0  0
    7.2871  -17.1235   20.3512 C   0  0  0  0  0  0  0  0  0  0  0  0
    7.1144  -15.8021   20.9946 C   0  0  2  0  0  0  0  0  0  0  0  0
    6.9719  -14.6645   20.1772 N   0  0  0  0  0  0  0  0  0  0  0  0
    8.1508  -15.5674   22.0544 C   0  0  0  0  0  0  0  0  0  0  0  0
    9.1201  -14.7782   21.8062 O   0  0  0  0  0  0  0  0  0  0  0  0
   12.4217  -18.9381   17.7514 N   0  0  0  0  0  0  0  0  0  0  0  0
    8.0550  -16.2129   23.3105 C   0  0  1  0  0  0  0  0  0  0  0  0
    8.9668  -16.0084   24.3730 C   0  0  0  0  0  0  0  0  0  0  0  0
    8.3597  -15.8892   25.7283 C   0  0  0  0  0  0  0  0  0  0  0  0
    7.2966  -14.8722   25.8135 C   0  0  0  0  0  0  0  0  0  0  0  0
    5.9390  -15.1357   25.7397 N   0  0  0  0  0  0  0  0  0  0  0  0
    5.2589  -13.9743   25.8805 C   0  0  0  0  0  0  0  0  0  0  0  0
    6.1203  -12.9610   26.0431 C   0  0  0  0  0  0  0  0  0  0  0  0
    5.9008  -11.6227   26.2170 C   0  0  0  0  0  0  0  0  0  0  0  0
    7.0076  -10.8024   26.3547 C   0  0  0  0  0  0  0  0  0  0  0  0
    8.2828  -11.2956   26.3202 C   0  0  0  0  0  0  0  0  0  0  0  0
    8.4528  -12.6666   26.1412 C   0  0  0  0  0  0  0  0  0  0  0  0
    7.3950  -13.5209   26.0010 C   0  0  0  0  0  0  0  0  0  0  0  0
   10.1470  -16.9249   24.3051 O   0  0  0  0  0  0  0  0  0  0  0  0
   10.0506  -18.0922   23.8514 N   0  0  0  0  0  0  0  0  0  0  0  0
   11.4204  -16.5252   24.7443 C   0  0  1  0  0  0  0  0  0  0  0  0
   12.5847  -17.5195   24.7331 C   0  0  0  0  0  0  0  0  0  0  0  0
   13.7976  -16.7431   24.4401 C   0  0  0  0  0  0  0  0  0  0  0  0
   15.1493  -17.2547   24.4383 C   0  0  0  0  0  0  0  0  0  0  0  0
   16.3821  -16.5295   24.1951 C   0  0  0  0  0  0  0  0  0  0  0  0
   17.6739  -17.3132   24.3121 N   0  0  0  0  0  0  0  0  0  0  0  0
   18.8256  -16.4991   23.9953 C   0  0  0  0  0  0  0  0  0  0  0  0
   12.5455  -18.0512   26.1441 O   0  0  0  0  0  0  0  0  0  0  0  0
   11.8935  -17.2576   27.1110 O   0  0  0  0  0  0  0  0  0  0  0  0
  2  1  1  0
  3  2  2  0
  4  2  1  0
  5  4  1  0
  6  5  1  0
  7  6  1  0
  8 10  1  0
  8  7  1  0
  8  9  1  6
 10 12  1  0
 11 10  2  0
 12 13  1  0
 13 24  1  0
 14 15  1  0
 13 14  1  1
 15 23  1  0
 16 15  2  0
 16 17  1  0
 17 18  1  0
 18 19  1  0
 19 20  2  0
 21 20  1  0
 22 21  2  0
 23 18  2  0
 23 22  1  0
 24 26  1  0
 24 25  2  0
 26 27  1  0
 27 28  1  1
 27 33  1  0
 29 30  1  0
 29 28  1  0
 31 32  1  0
 31 30  1  0
 33 34  1  0
 35 33  2  0
M  END
$$$$
