RWK.pdb
     RDKit          3D

 35 36  0  0  1  0  0  0  0  0999 V2000
    8.6744  -12.8671   17.5225 N   0  0  0  0  0  0  0  0  0  0  0  0
    8.2617  -13.8240   16.5556 C   0  0  0  0  0  0  0  0  0  0  0  0
    7.2675  -13.6147   15.7695 N   0  0  0  0  0  0  0  0  0  0  0  0
    8.9628  -15.0675   16.4387 N   0  0  0  0  0  0  0  0  0  0  0  0
   10.1808  -15.3987   17.1053 C   0  0  0  0  0  0  0  0  0  0  0  0
    9.9236  -16.2016   18.3302 C   0  0  0  0  0  0  0  0  0  0  0  0
    8.5297  -16.4970   18.6994 C   0  0  0  0  0  0  0  0  0  0  0  0
    8.2575  -17.3258   19.8949 C   0  0  2  0  0  0  0  0  0  0  0  0
    6.9475  -17.7953   20.1091 N   0  0  0  0  0  0  0  0  0  0  0  0
    8.8035  -16.6902   21.1399 C   0  0  0  0  0  0  0  0  0  0  0  0
   10.0568  -16.7465   21.3634 O   0  0  0  0  0  0  0  0  0  0  0  0
    7.0393  -14.2902   15.0276 N   0  0  0  0  0  0  0  0  0  0  0  0
    7.9406  -16.0388   22.0535 C   0  0  1  0  0  0  0  0  0  0  0  0
    8.3727  -15.4620   23.2711 C   0  0  0  0  0  0  0  0  0  0  0  0
    7.6092  -14.2652   23.7233 C   0  0  0  0  0  0  0  0  0  0  0  0
    7.7635  -13.9721   25.1591 C   0  0  0  0  0  0  0  0  0  0  0  0
    8.6268  -14.6348   26.0157 N   0  0  0  0  0  0  0  0  0  0  0  0
    8.5250  -14.0884   27.2496 C   0  0  0  0  0  0  0  0  0  0  0  0
    7.6274  -13.0938   27.2326 C   0  0  0  0  0  0  0  0  0  0  0  0
    7.1940  -12.2662   28.2310 C   0  0  0  0  0  0  0  0  0  0  0  0
    6.2364  -11.3190   27.9103 C   0  0  0  0  0  0  0  0  0  0  0  0
    5.7303  -11.2010   26.6451 C   0  0  0  0  0  0  0  0  0  0  0  0
    6.2052  -12.0680   25.6637 C   0  0  0  0  0  0  0  0  0  0  0  0
    7.1500  -13.0202   25.9262 C   0  0  0  0  0  0  0  0  0  0  0  0
    8.6104  -16.4810   24.3401 O   0  0  0  0  0  0  0  0  0  0  0  0
    7.6900  -17.2276   24.7562 N   0  0  0  0  0  0  0  0  0  0  0  0
    9.8739  -16.6535   24.9300 C   0  0  1  0  0  0  0  0  0  0  0  0
   10.2006  -17.9456   25.6837 C   0  0  0  0  0  0  0  0  0  0  0  0
   11.4306  -18.4822   25.0845 C   0  0  0  0  0  0  0  0  0  0  0  0
   11.8666  -19.8590   25.1386 C   0  0  0  0  0  0  0  0  0  0  0  0
   13.0446  -20.4508   24.5329 C   0  0  0  0  0  0  0  0  0  0  0  0
   13.2626  -21.9331   24.7609 N   0  0  0  0  0  0  0  0  0  0  0  0
   14.3736  -22.4373   23.9858 C   0  0  0  0  0  0  0  0  0  0  0  0
   10.3970  -17.4371   27.0901 O   0  0  0  0  0  0  0  0  0  0  0  0
   10.0384  -18.3054   28.1423 O   0  0  0  0  0  0  0  0  0  0  0  0
  2  1  1  0
  3  2  2  0
  4  2  1  0
  5  4  1  0
  6  5  1  0
  7  6  1  0
  8 10  1  0
  8  7  1  0
  8  9  1  1
 10 12  1  0
 11 10  2  0
 12 13  1  0
 13 24  1  0
 14 15  1  0
 13 14  1  6
 15 23  1  0
 16 15  2  0
 16 17  1  0
 17 18  1  0
 18 19  1  0
 19 20  2  0
 21 20  1  0
 22 21  2  0
 23 18  2  0
 23 22  1  0
 24 26  1  0
 24 25  2  0
 26 27  1  0
 27 28  1  1
 27 33  1  0
 29 30  1  0
 29 28  1  0
 31 32  1  0
 31 30  1  0
 33 34  1  0
 35 33  2  0
M  END
$$$$
