RWK.pdb
     RDKit          3D

 35 36  0  0  1  0  0  0  0  0999 V2000
    8.4281  -13.8057   13.3687 N   0  0  0  0  0  0  0  0  0  0  0  0
    8.0556  -14.9096   14.1832 C   0  0  0  0  0  0  0  0  0  0  0  0
    7.8018  -16.0677   13.6887 N   0  0  0  0  0  0  0  0  0  0  0  0
    7.9535  -14.7460   15.6026 N   0  0  0  0  0  0  0  0  0  0  0  0
    8.1509  -13.5237   16.3128 C   0  0  0  0  0  0  0  0  0  0  0  0
    7.9119  -13.7023   17.7696 C   0  0  0  0  0  0  0  0  0  0  0  0
    9.0739  -13.7884   18.6691 C   0  0  0  0  0  0  0  0  0  0  0  0
    9.3216  -15.0430   19.4136 C   0  0  2  0  0  0  0  0  0  0  0  0
    8.5479  -16.1779   19.1041 N   0  0  0  0  0  0  0  0  0  0  0  0
    9.3475  -14.8066   20.8954 C   0  0  0  0  0  0  0  0  0  0  0  0
   10.0785  -13.8712   21.3588 O   0  0  0  0  0  0  0  0  0  0  0  0
    7.5842  -16.8613   14.3066 N   0  0  0  0  0  0  0  0  0  0  0  0
    8.5733  -15.6102   21.7663 C   0  0  2  0  0  0  0  0  0  0  0  0
    8.4682  -15.3869   23.1595 C   0  0  0  0  0  0  0  0  0  0  0  0
    7.0805  -15.2948   23.6939 C   0  0  0  0  0  0  0  0  0  0  0  0
    7.0104  -14.7845   25.0745 C   0  0  0  0  0  0  0  0  0  0  0  0
    6.7090  -15.5497   26.1888 N   0  0  0  0  0  0  0  0  0  0  0  0
    6.7597  -14.7621   27.2881 C   0  0  0  0  0  0  0  0  0  0  0  0
    7.0824  -13.5106   26.9350 C   0  0  0  0  0  0  0  0  0  0  0  0
    7.2450  -12.3838   27.6923 C   0  0  0  0  0  0  0  0  0  0  0  0
    7.5796  -11.2113   27.0363 C   0  0  0  0  0  0  0  0  0  0  0  0
    7.7453  -11.1630   25.6795 C   0  0  0  0  0  0  0  0  0  0  0  0
    7.5687  -12.3386   24.9534 C   0  0  0  0  0  0  0  0  0  0  0  0
    7.2390  -13.5229   25.5510 C   0  0  0  0  0  0  0  0  0  0  0  0
    9.3776  -16.2685   23.9554 O   0  0  0  0  0  0  0  0  0  0  0  0
    9.3156  -16.3201   25.2089 N   0  0  0  0  0  0  0  0  0  0  0  0
   10.3441  -17.0821   23.3405 C   0  0  1  0  0  0  0  0  0  0  0  0
   11.2177  -18.0119   24.1870 C   0  0  0  0  0  0  0  0  0  0  0  0
   11.2954  -19.2891   23.4641 C   0  0  0  0  0  0  0  0  0  0  0  0
   10.4721  -20.4513   23.7099 C   0  0  0  0  0  0  0  0  0  0  0  0
   10.4997  -21.7304   23.0258 C   0  0  0  0  0  0  0  0  0  0  0  0
    9.3656  -22.6912   23.3210 N   0  0  0  0  0  0  0  0  0  0  0  0
    8.2045  -22.4176   22.5046 C   0  0  0  0  0  0  0  0  0  0  0  0
   12.5263  -17.2622   24.2119 O   0  0  0  0  0  0  0  0  0  0  0  0
   13.4776  -17.6637   25.1729 O   0  0  0  0  0  0  0  0  0  0  0  0
  2  1  1  0
  3  2  2  0
  4  2  1  0
  5  4  1  0
  6  5  1  0
  7  6  1  0
  8 10  1  0
  8  7  1  0
  8  9  1  1
 10 12  1  0
 11 10  2  0
 12 13  1  0
 13 24  1  0
 14 15  1  0
 13 14  1  6
 15 23  1  0
 16 15  2  0
 16 17  1  0
 17 18  1  0
 18 19  1  0
 19 20  2  0
 21 20  1  0
 22 21  2  0
 23 18  2  0
 23 22  1  0
 24 26  1  0
 24 25  2  0
 26 27  1  0
 27 28  1  1
 27 33  1  0
 29 30  1  0
 29 28  1  0
 31 32  1  0
 31 30  1  0
 33 34  1  0
 35 33  2  0
M  END
$$$$
