LAC.pdb
     RDKit          3D

 20 19  0  0  1  0  0  0  0  0999 V2000
   15.4414  -10.3336  -10.2138 C   0  0  0  0  0  0  0  0  0  0  0  0
   15.5143  -10.7177  -11.6701 C   0  0  1  0  0  0  0  0  0  0  0  0
   14.2306  -10.2661  -12.3275 C   0  0  0  0  0  0  0  0  0  0  0  0
   16.6663  -10.0537  -12.3692 C   0  0  0  0  0  0  0  0  0  0  0  0
   16.7574  -10.4053  -13.8366 C   0  0  2  0  0  0  0  0  0  0  0  0
   17.1729  -11.7699  -13.9989 N   0  0  0  0  0  0  0  0  0  0  0  0
   17.7023   -9.4584  -14.4879 C   0  0  0  0  0  0  0  0  0  0  0  0
   18.9329   -9.4900  -14.2187 O   0  0  0  0  0  0  0  0  0  0  0  0
   17.6350   -6.9345  -17.3076 C   0  0  0  0  0  0  0  0  0  0  0  0
   18.2332   -7.6064  -16.0907 C   0  0  2  0  0  0  0  0  0  0  0  0
   17.2939   -8.4787  -15.4333 N   0  0  0  0  0  0  0  0  0  0  0  0
   18.8766   -6.6544  -15.1803 C   0  0  0  0  0  0  0  0  0  0  0  0
   18.2453   -6.2143  -14.1952 O   0  0  0  0  0  0  0  0  0  0  0  0
   20.1948   -6.2347  -15.4074 N   0  0  0  0  0  0  0  0  0  0  0  0
   20.9018   -5.2789  -14.5862 C   0  0  1  0  0  0  0  0  0  0  0  0
   22.1725   -5.9442  -14.0985 C   0  0  0  0  0  0  0  0  0  0  0  0
   23.0197   -4.8040  -12.9930 S   0  0  0  0  0  0  0  0  0  0  0  0
   21.1799   -4.0185  -15.2805 C   0  0  0  0  0  0  0  0  0  0  0  0
   21.4629   -4.0692  -16.5052 O   0  0  0  0  0  0  0  0  0  0  0  0
   21.1555   -2.7630  -14.6888 O   0  0  0  0  0  0  0  0  0  0  0  0
  2  4  1  0
  2  1  1  1
  3  2  1  0
  4  5  1  0
  5  7  1  0
  5  6  1  1
  7  8  2  0
 10  9  1  6
 10 12  1  0
 11 10  1  0
 11  7  1  0
 12 14  1  0
 13 12  2  0
 14 15  1  0
 15 16  1  6
 16 17  1  0
 18 20  1  0
 18 15  1  0
 19 18  2  0
M  END
$$$$
