LAC.pdb
     RDKit          3D

 20 19  0  0  1  0  0  0  0  0999 V2000
   19.9905  -16.7882  -13.1721 C   0  0  0  0  0  0  0  0  0  0  0  0
   19.1337  -16.5322  -14.3862 C   0  0  1  0  0  0  0  0  0  0  0  0
   17.6890  -16.6659  -13.9634 C   0  0  0  0  0  0  0  0  0  0  0  0
   19.3419  -15.1512  -14.9394 C   0  0  0  0  0  0  0  0  0  0  0  0
   18.4751  -14.8522  -16.1413 C   0  0  2  0  0  0  0  0  0  0  0  0
   18.8245  -15.7127  -17.2361 N   0  0  0  0  0  0  0  0  0  0  0  0
   18.6398  -13.4159  -16.4926 C   0  0  0  0  0  0  0  0  0  0  0  0
   19.7486  -12.9755  -16.8981 O   0  0  0  0  0  0  0  0  0  0  0  0
   16.3995  -10.5070  -17.2736 C   0  0  0  0  0  0  0  0  0  0  0  0
   17.7267  -11.1130  -16.8720 C   0  0  2  0  0  0  0  0  0  0  0  0
   17.5865  -12.4661  -16.3978 N   0  0  0  0  0  0  0  0  0  0  0  0
   18.4855  -10.2533  -15.9584 C   0  0  0  0  0  0  0  0  0  0  0  0
   18.4496  -10.4713  -14.7280 O   0  0  0  0  0  0  0  0  0  0  0  0
   19.2505   -9.1891  -16.4558 N   0  0  0  0  0  0  0  0  0  0  0  0
   19.9915   -8.2602  -15.6336 C   0  0  1  0  0  0  0  0  0  0  0  0
   21.0815   -7.6545  -16.4940 C   0  0  0  0  0  0  0  0  0  0  0  0
   22.0355   -6.5145  -15.4790 S   0  0  0  0  0  0  0  0  0  0  0  0
   19.1455   -7.2307  -15.0233 C   0  0  0  0  0  0  0  0  0  0  0  0
   18.2592   -6.6953  -15.7376 O   0  0  0  0  0  0  0  0  0  0  0  0
   19.2457   -6.7963  -13.7087 O   0  0  0  0  0  0  0  0  0  0  0  0
  2  4  1  0
  2  1  1  1
  3  2  1  0
  4  5  1  0
  5  7  1  0
  5  6  1  6
  7  8  2  0
 10  9  1  1
 10 12  1  0
 11 10  1  0
 11  7  1  0
 12 14  1  0
 13 12  2  0
 14 15  1  0
 15 16  1  6
 16 17  1  0
 18 20  1  0
 18 15  1  0
 19 18  2  0
M  END
$$$$
