LAC.pdb
     RDKit          3D

 20 19  0  0  1  0  0  0  0  0999 V2000
   11.9522  -12.6354  -10.1900 C   0  0  0  0  0  0  0  0  0  0  0  0
   12.9625  -12.1706  -11.2084 C   0  0  1  0  0  0  0  0  0  0  0  0
   12.2072  -11.4793  -12.3200 C   0  0  0  0  0  0  0  0  0  0  0  0
   13.9438  -11.1961  -10.6219 C   0  0  0  0  0  0  0  0  0  0  0  0
   14.9707  -10.7094  -11.6187 C   0  0  2  0  0  0  0  0  0  0  0  0
   16.0052  -11.6902  -11.7899 N   0  0  0  0  0  0  0  0  0  0  0  0
   15.5141   -9.4112  -11.1363 C   0  0  0  0  0  0  0  0  0  0  0  0
   16.1328   -9.3396  -10.0408 O   0  0  0  0  0  0  0  0  0  0  0  0
   16.3996   -6.0725  -12.5408 C   0  0  0  0  0  0  0  0  0  0  0  0
   15.9557   -6.9580  -11.3968 C   0  0  2  0  0  0  0  0  0  0  0  0
   15.3769   -8.1941  -11.8577 N   0  0  0  0  0  0  0  0  0  0  0  0
   15.1141   -6.2485  -10.4285 C   0  0  0  0  0  0  0  0  0  0  0  0
   13.8694   -6.3206  -10.5182 O   0  0  0  0  0  0  0  0  0  0  0  0
   15.6963   -5.4901   -9.4032 N   0  0  0  0  0  0  0  0  0  0  0  0
   14.9528   -4.7252   -8.4285 C   0  0  1  0  0  0  0  0  0  0  0  0
   15.4220   -5.1544   -7.0535 C   0  0  0  0  0  0  0  0  0  0  0  0
   14.4635   -4.2563   -5.8228 S   0  0  0  0  0  0  0  0  0  0  0  0
   15.0766   -3.2771   -8.6178 C   0  0  0  0  0  0  0  0  0  0  0  0
   16.1972   -2.8205   -8.9615 O   0  0  0  0  0  0  0  0  0  0  0  0
   14.0468   -2.3622   -8.4464 O   0  0  0  0  0  0  0  0  0  0  0  0
  2  4  1  0
  2  1  1  1
  3  2  1  0
  4  5  1  0
  5  7  1  0
  5  6  1  1
  7  8  2  0
 10  9  1  6
 10 12  1  0
 11 10  1  0
 11  7  1  0
 12 14  1  0
 13 12  2  0
 14 15  1  0
 15 16  1  1
 16 17  1  0
 18 20  1  0
 18 15  1  0
 19 18  2  0
M  END
$$$$
