LAC.pdb
     RDKit          3D

 20 19  0  0  1  0  0  0  0  0999 V2000
   27.3749  -15.2124  -15.8121 C   0  0  0  0  0  0  0  0  0  0  0  0
   25.9223  -15.5998  -15.9293 C   0  0  1  0  0  0  0  0  0  0  0  0
   25.4744  -16.1110  -14.5795 C   0  0  0  0  0  0  0  0  0  0  0  0
   25.0578  -14.4305  -16.3063 C   0  0  0  0  0  0  0  0  0  0  0  0
   23.5982  -14.7922  -16.4615 C   0  0  2  0  0  0  0  0  0  0  0  0
   23.4361  -15.7898  -17.4812 N   0  0  0  0  0  0  0  0  0  0  0  0
   22.8387  -13.5521  -16.7757 C   0  0  0  0  0  0  0  0  0  0  0  0
   23.2018  -12.7956  -17.7158 O   0  0  0  0  0  0  0  0  0  0  0  0
   19.4813  -12.0637  -16.0158 C   0  0  0  0  0  0  0  0  0  0  0  0
   20.9410  -11.9585  -16.4008 C   0  0  2  0  0  0  0  0  0  0  0  0
   21.6820  -13.1452  -16.0567 N   0  0  0  0  0  0  0  0  0  0  0  0
   21.5645  -10.7237  -15.9152 C   0  0  0  0  0  0  0  0  0  0  0  0
   22.3649  -10.7684  -14.9561 O   0  0  0  0  0  0  0  0  0  0  0  0
   21.2688   -9.4938  -16.5195 N   0  0  0  0  0  0  0  0  0  0  0  0
   21.8929   -8.2389  -16.1681 C   0  0  1  0  0  0  0  0  0  0  0  0
   22.1956   -7.5005  -17.4559 C   0  0  0  0  0  0  0  0  0  0  0  0
   22.9799   -5.9349  -17.0395 S   0  0  0  0  0  0  0  0  0  0  0  0
   21.0819   -7.4289  -15.2547 C   0  0  0  0  0  0  0  0  0  0  0  0
   19.8373   -7.4031  -15.4356 O   0  0  0  0  0  0  0  0  0  0  0  0
   21.5826   -6.6821  -14.1972 O   0  0  0  0  0  0  0  0  0  0  0  0
  2  4  1  0
  2  1  1  1
  3  2  1  0
  4  5  1  0
  5  7  1  0
  5  6  1  6
  7  8  2  0
 10  9  1  1
 10 12  1  0
 11 10  1  0
 11  7  1  0
 12 14  1  0
 13 12  2  0
 14 15  1  0
 15 16  1  6
 16 17  1  0
 18 20  1  0
 18 15  1  0
 19 18  2  0
M  END
$$$$
