LAC.pdb
     RDKit          3D

 20 19  0  0  1  0  0  0  0  0999 V2000
   29.0188  -20.2786   -4.3884 C   0  0  0  0  0  0  0  0  0  0  0  0
   27.7777  -19.7974   -5.0968 C   0  0  1  0  0  0  0  0  0  0  0  0
   27.8559  -18.2907   -5.1848 C   0  0  0  0  0  0  0  0  0  0  0  0
   27.6756  -20.3509   -6.4896 C   0  0  0  0  0  0  0  0  0  0  0  0
   26.4528  -19.8685   -7.2360 C   0  0  2  0  0  0  0  0  0  0  0  0
   25.2652  -20.1334   -6.4740 N   0  0  0  0  0  0  0  0  0  0  0  0
   26.4188  -20.5392   -8.5636 C   0  0  0  0  0  0  0  0  0  0  0  0
   27.4293  -21.1517   -9.0014 O   0  0  0  0  0  0  0  0  0  0  0  0
   23.9063  -21.2631  -11.3081 C   0  0  0  0  0  0  0  0  0  0  0  0
   25.2965  -21.1008  -10.7330 C   0  0  2  0  0  0  0  0  0  0  0  0
   25.2753  -20.5359   -9.4079 N   0  0  0  0  0  0  0  0  0  0  0  0
   26.2067  -20.4035  -11.6467 C   0  0  0  0  0  0  0  0  0  0  0  0
   26.3024  -19.1582  -11.5965 O   0  0  0  0  0  0  0  0  0  0  0  0
   26.9698  -21.1244  -12.5758 N   0  0  0  0  0  0  0  0  0  0  0  0
   27.8814  -20.5270  -13.5245 C   0  0  1  0  0  0  0  0  0  0  0  0
   29.0775  -21.4478  -13.6539 C   0  0  0  0  0  0  0  0  0  0  0  0
   29.8748  -21.5691  -12.0447 S   0  0  0  0  0  0  0  0  0  0  0  0
   27.2618  -20.2547  -14.8245 C   0  0  0  0  0  0  0  0  0  0  0  0
   26.1545  -20.7962  -15.0756 O   0  0  0  0  0  0  0  0  0  0  0  0
   27.8046  -19.4398  -15.8085 O   0  0  0  0  0  0  0  0  0  0  0  0
  2  4  1  0
  2  1  1  6
  3  2  1  0
  4  5  1  0
  5  7  1  0
  5  6  1  1
  7  8  2  0
 10  9  1  6
 10 12  1  0
 11 10  1  0
 11  7  1  0
 12 14  1  0
 13 12  2  0
 14 15  1  0
 15 16  1  6
 16 17  1  0
 18 20  1  0
 18 15  1  0
 19 18  2  0
M  END
$$$$
