LAC.pdb
     RDKit          3D

 20 19  0  0  1  0  0  0  0  0999 V2000
   25.3886  -13.8213  -18.0504 C   0  0  0  0  0  0  0  0  0  0  0  0
   24.2166  -13.5751  -17.1340 C   0  0  1  0  0  0  0  0  0  0  0  0
   24.5397  -14.2041  -15.7984 C   0  0  0  0  0  0  0  0  0  0  0  0
   23.9678  -12.1088  -16.9220 C   0  0  0  0  0  0  0  0  0  0  0  0
   22.6823  -11.8222  -16.1801 C   0  0  2  0  0  0  0  0  0  0  0  0
   21.6662  -12.7632  -16.5587 N   0  0  0  0  0  0  0  0  0  0  0  0
   22.2748  -10.4214  -16.4719 C   0  0  0  0  0  0  0  0  0  0  0  0
   23.0459   -9.4593  -16.2117 O   0  0  0  0  0  0  0  0  0  0  0  0
   19.3213   -8.6097  -18.0296 C   0  0  0  0  0  0  0  0  0  0  0  0
   20.6171   -8.7126  -17.2548 C   0  0  2  0  0  0  0  0  0  0  0  0
   21.0214  -10.0799  -17.0487 N   0  0  0  0  0  0  0  0  0  0  0  0
   20.6010   -7.9198  -16.0217 C   0  0  0  0  0  0  0  0  0  0  0  0
   20.2002   -8.4373  -14.9567 O   0  0  0  0  0  0  0  0  0  0  0  0
   21.0321   -6.5859  -16.0295 N   0  0  0  0  0  0  0  0  0  0  0  0
   21.0644   -5.7300  -14.8658 C   0  0  1  0  0  0  0  0  0  0  0  0
   22.5169   -5.4293  -14.5576 C   0  0  0  0  0  0  0  0  0  0  0  0
   22.5780   -4.3466  -13.1209 S   0  0  0  0  0  0  0  0  0  0  0  0
   20.2787   -4.5039  -15.0315 C   0  0  0  0  0  0  0  0  0  0  0  0
   20.2558   -3.9668  -16.1688 O   0  0  0  0  0  0  0  0  0  0  0  0
   19.5518   -3.8837  -14.0247 O   0  0  0  0  0  0  0  0  0  0  0  0
  2  4  1  0
  2  1  1  6
  3  2  1  0
  4  5  1  0
  5  7  1  0
  5  6  1  6
  7  8  2  0
 10  9  1  1
 10 12  1  0
 11 10  1  0
 11  7  1  0
 12 14  1  0
 13 12  2  0
 14 15  1  0
 15 16  1  6
 16 17  1  0
 18 20  1  0
 18 15  1  0
 19 18  2  0
M  END
$$$$
