LAC.pdb
     RDKit          3D

 20 19  0  0  1  0  0  0  0  0999 V2000
   24.4595  -13.3654  -14.7792 C   0  0  0  0  0  0  0  0  0  0  0  0
   23.3188  -13.3761  -15.7653 C   0  0  1  0  0  0  0  0  0  0  0  0
   22.2097  -14.2149  -15.1734 C   0  0  0  0  0  0  0  0  0  0  0  0
   22.7858  -11.9954  -16.0227 C   0  0  0  0  0  0  0  0  0  0  0  0
   21.6522  -11.9694  -17.0225 C   0  0  2  0  0  0  0  0  0  0  0  0
   22.0996  -12.4528  -18.2982 N   0  0  0  0  0  0  0  0  0  0  0  0
   21.1353  -10.5770  -17.1092 C   0  0  0  0  0  0  0  0  0  0  0  0
   21.8505   -9.6531  -17.5812 O   0  0  0  0  0  0  0  0  0  0  0  0
   17.8763   -8.7250  -16.6808 C   0  0  0  0  0  0  0  0  0  0  0  0
   19.3858   -8.8328  -16.6872 C   0  0  2  0  0  0  0  0  0  0  0  0
   19.8341  -10.2019  -16.6773 N   0  0  0  0  0  0  0  0  0  0  0  0
   20.0142   -8.0087  -15.6503 C   0  0  0  0  0  0  0  0  0  0  0  0
   20.5388   -8.5559  -14.6562 O   0  0  0  0  0  0  0  0  0  0  0  0
   20.0306   -6.6118  -15.7666 N   0  0  0  0  0  0  0  0  0  0  0  0
   20.6453   -5.7187  -14.8114 C   0  0  1  0  0  0  0  0  0  0  0  0
   22.1389   -5.9706  -14.8430 C   0  0  0  0  0  0  0  0  0  0  0  0
   22.9336   -4.8009  -13.7294 S   0  0  0  0  0  0  0  0  0  0  0  0
   20.3264   -4.3089  -15.0542 C   0  0  0  0  0  0  0  0  0  0  0  0
   20.1894   -3.9316  -16.2463 O   0  0  0  0  0  0  0  0  0  0  0  0
   20.1623   -3.3495  -14.0646 O   0  0  0  0  0  0  0  0  0  0  0  0
  2  4  1  0
  2  1  1  1
  3  2  1  0
  4  5  1  0
  5  7  1  0
  5  6  1  6
  7  8  2  0
 10  9  1  1
 10 12  1  0
 11 10  1  0
 11  7  1  0
 12 14  1  0
 13 12  2  0
 14 15  1  0
 15 16  1  6
 16 17  1  0
 18 20  1  0
 18 15  1  0
 19 18  2  0
M  END
$$$$
