LAC.pdb
     RDKit          3D

 20 19  0  0  1  0  0  0  0  0999 V2000
   13.4192  -11.8590  -15.9372 C   0  0  0  0  0  0  0  0  0  0  0  0
   14.9206  -11.7532  -15.8461 C   0  0  1  0  0  0  0  0  0  0  0  0
   15.4017  -11.0037  -17.0670 C   0  0  0  0  0  0  0  0  0  0  0  0
   15.3573  -10.9996  -14.6221 C   0  0  0  0  0  0  0  0  0  0  0  0
   16.8588  -10.8708  -14.5040 C   0  0  2  0  0  0  0  0  0  0  0  0
   17.4527  -12.1541  -14.2557 N   0  0  0  0  0  0  0  0  0  0  0  0
   17.1622   -9.9015  -13.4167 C   0  0  0  0  0  0  0  0  0  0  0  0
   17.0404  -10.2325  -12.2070 O   0  0  0  0  0  0  0  0  0  0  0  0
   18.8404   -6.5486  -13.0418 C   0  0  0  0  0  0  0  0  0  0  0  0
   17.9151   -7.6581  -12.5915 C   0  0  2  0  0  0  0  0  0  0  0  0
   17.5987   -8.5709  -13.6602 N   0  0  0  0  0  0  0  0  0  0  0  0
   16.7311   -7.1543  -11.8888 C   0  0  0  0  0  0  0  0  0  0  0  0
   15.6619   -6.9884  -12.5149 O   0  0  0  0  0  0  0  0  0  0  0  0
   16.7906   -6.8576  -10.5200 N   0  0  0  0  0  0  0  0  0  0  0  0
   15.7085   -6.2719   -9.7623 C   0  0  1  0  0  0  0  0  0  0  0  0
   15.8417   -6.7471   -8.3300 C   0  0  0  0  0  0  0  0  0  0  0  0
   15.5344   -8.5202   -8.2912 S   0  0  0  0  0  0  0  0  0  0  0  0
   15.6715   -4.8093   -9.8488 C   0  0  0  0  0  0  0  0  0  0  0  0
   16.6697   -4.2216  -10.3392 O   0  0  0  0  0  0  0  0  0  0  0  0
   14.6134   -4.0149   -9.4289 O   0  0  0  0  0  0  0  0  0  0  0  0
  2  4  1  0
  2  1  1  6
  3  2  1  0
  4  5  1  0
  5  7  1  0
  5  6  1  1
  7  8  2  0
 10  9  1  6
 10 12  1  0
 11 10  1  0
 11  7  1  0
 12 14  1  0
 13 12  2  0
 14 15  1  0
 15 16  1  1
 16 17  1  0
 18 20  1  0
 18 15  1  0
 19 18  2  0
M  END
$$$$
