LAC.pdb
     RDKit          3D

 20 19  0  0  1  0  0  0  0  0999 V2000
   20.8219  -17.1135  -13.8826 C   0  0  0  0  0  0  0  0  0  0  0  0
   19.8492  -16.8272  -14.9987 C   0  0  1  0  0  0  0  0  0  0  0  0
   18.4537  -16.9354  -14.4287 C   0  0  0  0  0  0  0  0  0  0  0  0
   20.0286  -15.4450  -15.5592 C   0  0  0  0  0  0  0  0  0  0  0  0
   19.0244  -15.1022  -16.6360 C   0  0  2  0  0  0  0  0  0  0  0  0
   19.3181  -15.8243  -17.8416 N   0  0  0  0  0  0  0  0  0  0  0  0
   19.0528  -13.6304  -16.8522 C   0  0  0  0  0  0  0  0  0  0  0  0
   20.1127  -13.0535  -17.2151 O   0  0  0  0  0  0  0  0  0  0  0  0
   16.5647  -10.8378  -17.2632 C   0  0  0  0  0  0  0  0  0  0  0  0
   17.9438  -11.3860  -16.9673 C   0  0  2  0  0  0  0  0  0  0  0  0
   17.9173  -12.7952  -16.6694 N   0  0  0  0  0  0  0  0  0  0  0  0
   18.6619  -10.5939  -15.9641 C   0  0  0  0  0  0  0  0  0  0  0  0
   18.6271  -10.9362  -14.7624 O   0  0  0  0  0  0  0  0  0  0  0  0
   19.3869   -9.4559  -16.3441 N   0  0  0  0  0  0  0  0  0  0  0  0
   20.1465   -8.6288  -15.4348 C   0  0  1  0  0  0  0  0  0  0  0  0
   21.5615   -8.5397  -15.9688 C   0  0  0  0  0  0  0  0  0  0  0  0
   22.5113   -7.4679  -14.8783 S   0  0  0  0  0  0  0  0  0  0  0  0
   19.5565   -7.3022  -15.2344 C   0  0  0  0  0  0  0  0  0  0  0  0
   19.0520   -6.7239  -16.2311 O   0  0  0  0  0  0  0  0  0  0  0  0
   19.5100   -6.6280  -14.0219 O   0  0  0  0  0  0  0  0  0  0  0  0
  2  4  1  0
  2  1  1  1
  3  2  1  0
  4  5  1  0
  5  7  1  0
  5  6  1  6
  7  8  2  0
 10  9  1  1
 10 12  1  0
 11 10  1  0
 11  7  1  0
 12 14  1  0
 13 12  2  0
 14 15  1  0
 15 16  1  6
 16 17  1  0
 18 20  1  0
 18 15  1  0
 19 18  2  0
M  END
$$$$
