LAC.pdb
     RDKit          3D

 20 19  0  0  1  0  0  0  0  0999 V2000
   12.8662   -9.4188  -13.9095 C   0  0  0  0  0  0  0  0  0  0  0  0
   13.7254  -10.0792  -14.9580 C   0  0  1  0  0  0  0  0  0  0  0  0
   13.3323   -9.5058  -16.2998 C   0  0  0  0  0  0  0  0  0  0  0  0
   15.1870   -9.8123  -14.7360 C   0  0  0  0  0  0  0  0  0  0  0  0
   16.0717  -10.4006  -15.8114 C   0  0  2  0  0  0  0  0  0  0  0  0
   16.1443  -11.8278  -15.6736 N   0  0  0  0  0  0  0  0  0  0  0  0
   17.4141   -9.7666  -15.7131 C   0  0  0  0  0  0  0  0  0  0  0  0
   18.1643   -9.9976  -14.7274 O   0  0  0  0  0  0  0  0  0  0  0  0
   19.7789   -7.8908  -17.9685 C   0  0  0  0  0  0  0  0  0  0  0  0
   19.2600   -8.3329  -16.6175 C   0  0  2  0  0  0  0  0  0  0  0  0
   17.9298   -8.8804  -16.6974 N   0  0  0  0  0  0  0  0  0  0  0  0
   19.3996   -7.2941  -15.5925 C   0  0  0  0  0  0  0  0  0  0  0  0
   18.4342   -6.5430  -15.3349 O   0  0  0  0  0  0  0  0  0  0  0  0
   20.6083   -7.1380  -14.8998 N   0  0  0  0  0  0  0  0  0  0  0  0
   20.8421   -6.1453  -13.8762 C   0  0  1  0  0  0  0  0  0  0  0  0
   21.8279   -6.7307  -12.8859 C   0  0  0  0  0  0  0  0  0  0  0  0
   21.0160   -8.0753  -12.0069 S   0  0  0  0  0  0  0  0  0  0  0  0
   21.3073   -4.8635  -14.4135 C   0  0  0  0  0  0  0  0  0  0  0  0
   21.8803   -4.8660  -15.5333 O   0  0  0  0  0  0  0  0  0  0  0  0
   21.1645   -3.6371  -13.7792 O   0  0  0  0  0  0  0  0  0  0  0  0
  2  4  1  0
  2  1  1  1
  3  2  1  0
  4  5  1  0
  5  7  1  0
  5  6  1  1
  7  8  2  0
 10  9  1  6
 10 12  1  0
 11 10  1  0
 11  7  1  0
 12 14  1  0
 13 12  2  0
 14 15  1  0
 15 16  1  1
 16 17  1  0
 18 20  1  0
 18 15  1  0
 19 18  2  0
M  END
$$$$
