LAC.pdb
     RDKit          3D

 20 19  0  0  1  0  0  0  0  0999 V2000
   24.5552  -15.2742  -21.8832 C   0  0  0  0  0  0  0  0  0  0  0  0
   25.6895  -15.9894  -21.1936 C   0  0  1  0  0  0  0  0  0  0  0  0
   26.6383  -16.4806  -22.2624 C   0  0  0  0  0  0  0  0  0  0  0  0
   26.4458  -15.0805  -20.2669 C   0  0  0  0  0  0  0  0  0  0  0  0
   27.6510  -15.7395  -19.6357 C   0  0  2  0  0  0  0  0  0  0  0  0
   27.2386  -16.6733  -18.6262 N   0  0  0  0  0  0  0  0  0  0  0  0
   28.5294  -14.6755  -19.0790 C   0  0  0  0  0  0  0  0  0  0  0  0
   28.0848  -13.8478  -18.2393 O   0  0  0  0  0  0  0  0  0  0  0  0
   32.2138  -13.8061  -19.0992 C   0  0  0  0  0  0  0  0  0  0  0  0
   30.7485  -13.5367  -18.8344 C   0  0  2  0  0  0  0  0  0  0  0  0
   29.8942  -14.5227  -19.4456 N   0  0  0  0  0  0  0  0  0  0  0  0
   30.3626  -12.1581  -19.1506 C   0  0  0  0  0  0  0  0  0  0  0  0
   29.9402  -11.8788  -20.2935 O   0  0  0  0  0  0  0  0  0  0  0  0
   30.4643  -11.1519  -18.1799 N   0  0  0  0  0  0  0  0  0  0  0  0
   30.1274   -9.7644  -18.4017 C   0  0  1  0  0  0  0  0  0  0  0  0
   29.1023   -9.3688  -17.3588 C   0  0  0  0  0  0  0  0  0  0  0  0
   28.5903   -7.6739  -17.6831 S   0  0  0  0  0  0  0  0  0  0  0  0
   31.2948   -8.8784  -18.3802 C   0  0  0  0  0  0  0  0  0  0  0  0
   32.2340   -9.1588  -17.5918 O   0  0  0  0  0  0  0  0  0  0  0  0
   31.4471   -7.7453  -19.1673 O   0  0  0  0  0  0  0  0  0  0  0  0
  2  4  1  0
  2  1  1  6
  3  2  1  0
  4  5  1  0
  5  7  1  0
  5  6  1  1
  7  8  2  0
 10  9  1  6
 10 12  1  0
 11 10  1  0
 11  7  1  0
 12 14  1  0
 13 12  2  0
 14 15  1  0
 15 16  1  1
 16 17  1  0
 18 20  1  0
 18 15  1  0
 19 18  2  0
M  END
$$$$
