LAC.pdb
     RDKit          3D

 20 19  0  0  1  0  0  0  0  0999 V2000
   14.9128  -12.4495  -15.3462 C   0  0  0  0  0  0  0  0  0  0  0  0
   15.1255  -10.9741  -15.1187 C   0  0  1  0  0  0  0  0  0  0  0  0
   14.2897  -10.5695  -13.9264 C   0  0  0  0  0  0  0  0  0  0  0  0
   16.5630  -10.6529  -14.8233 C   0  0  0  0  0  0  0  0  0  0  0  0
   17.4765  -10.8556  -16.0106 C   0  0  2  0  0  0  0  0  0  0  0  0
   18.0448  -12.1737  -15.9848 N   0  0  0  0  0  0  0  0  0  0  0  0
   18.5252   -9.8006  -15.9808 C   0  0  0  0  0  0  0  0  0  0  0  0
   19.4771   -9.8625  -15.1574 O   0  0  0  0  0  0  0  0  0  0  0  0
   19.7288   -7.0513  -18.2392 C   0  0  0  0  0  0  0  0  0  0  0  0
   19.6153   -7.7375  -16.8953 C   0  0  2  0  0  0  0  0  0  0  0  0
   18.5264   -8.6800  -16.8551 N   0  0  0  0  0  0  0  0  0  0  0  0
   19.6038   -6.7892  -15.7772 C   0  0  0  0  0  0  0  0  0  0  0  0
   18.5137   -6.3943  -15.3100 O   0  0  0  0  0  0  0  0  0  0  0  0
   20.8069   -6.3230  -15.2293 N   0  0  0  0  0  0  0  0  0  0  0  0
   20.9045   -5.2586  -14.2569 C   0  0  1  0  0  0  0  0  0  0  0  0
   22.1982   -5.4525  -13.4927 C   0  0  0  0  0  0  0  0  0  0  0  0
   22.0258   -6.9087  -12.4488 S   0  0  0  0  0  0  0  0  0  0  0  0
   20.8214   -3.9233  -14.8554 C   0  0  0  0  0  0  0  0  0  0  0  0
   21.2916   -3.7643  -16.0112 O   0  0  0  0  0  0  0  0  0  0  0  0
   20.2604   -2.8113  -14.2426 O   0  0  0  0  0  0  0  0  0  0  0  0
  2  4  1  0
  2  1  1  1
  3  2  1  0
  4  5  1  0
  5  7  1  0
  5  6  1  1
  7  8  2  0
 10  9  1  6
 10 12  1  0
 11 10  1  0
 11  7  1  0
 12 14  1  0
 13 12  2  0
 14 15  1  0
 15 16  1  6
 16 17  1  0
 18 20  1  0
 18 15  1  0
 19 18  2  0
M  END
$$$$
