LAC.pdb
     RDKit          3D

 20 19  0  0  1  0  0  0  0  0999 V2000
   28.0707  -10.9422  -15.8778 C   0  0  0  0  0  0  0  0  0  0  0  0
   26.8590  -11.3279  -16.6882 C   0  0  1  0  0  0  0  0  0  0  0  0
   26.2202  -12.5217  -16.0168 C   0  0  0  0  0  0  0  0  0  0  0  0
   25.8478  -10.2186  -16.7494 C   0  0  0  0  0  0  0  0  0  0  0  0
   24.6347  -10.5615  -17.5837 C   0  0  2  0  0  0  0  0  0  0  0  0
   25.0216  -10.8387  -18.9382 N   0  0  0  0  0  0  0  0  0  0  0  0
   23.6750   -9.4275  -17.5039 C   0  0  0  0  0  0  0  0  0  0  0  0
   24.0326   -8.2588  -17.8107 O   0  0  0  0  0  0  0  0  0  0  0  0
   19.9665   -8.9512  -17.3322 C   0  0  0  0  0  0  0  0  0  0  0  0
   21.3877   -8.4847  -17.1030 C   0  0  2  0  0  0  0  0  0  0  0  0
   22.3245   -9.5791  -17.0874 N   0  0  0  0  0  0  0  0  0  0  0  0
   21.5100   -7.5994  -15.9408 C   0  0  0  0  0  0  0  0  0  0  0  0
   21.6275   -8.0899  -14.7970 O   0  0  0  0  0  0  0  0  0  0  0  0
   21.4959   -6.2072  -16.1041 N   0  0  0  0  0  0  0  0  0  0  0  0
   21.7060   -5.2563  -15.0367 C   0  0  1  0  0  0  0  0  0  0  0  0
   22.7550   -4.2676  -15.5028 C   0  0  0  0  0  0  0  0  0  0  0  0
   24.3305   -5.1296  -15.6244 S   0  0  0  0  0  0  0  0  0  0  0  0
   20.4741   -4.5836  -14.6149 C   0  0  0  0  0  0  0  0  0  0  0  0
   19.5457   -4.4705  -15.4560 O   0  0  0  0  0  0  0  0  0  0  0  0
   20.2491   -4.0571  -13.3503 O   0  0  0  0  0  0  0  0  0  0  0  0
  2  4  1  0
  2  1  1  1
  3  2  1  0
  4  5  1  0
  5  7  1  0
  5  6  1  6
  7  8  2  0
 10  9  1  1
 10 12  1  0
 11 10  1  0
 11  7  1  0
 12 14  1  0
 13 12  2  0
 14 15  1  0
 15 16  1  6
 16 17  1  0
 18 20  1  0
 18 15  1  0
 19 18  2  0
M  END
$$$$
