CKI.pdb
     RDKit          3D

 24 23  0  0  1  0  0  0  0  0999 V2000
    6.6110  -13.9723   18.9433 N   0  0  0  0  0  0  0  0  0  0  0  0
    7.7273  -14.7835   19.4052 C   0  0  1  0  0  0  0  0  0  0  0  0
    8.9438  -13.8641   19.4109 C   0  0  0  0  0  0  0  0  0  0  0  0
    8.5772  -12.3164   20.2838 S   0  0  0  0  0  0  0  0  0  0  0  0
    7.4578  -15.1775   20.8161 C   0  0  0  0  0  0  0  0  0  0  0  0
    6.6853  -14.4800   21.5575 O   0  0  0  0  0  0  0  0  0  0  0  0
    8.0233  -16.3218   21.4192 N   0  0  0  0  0  0  0  0  0  0  0  0
    7.6578  -16.7773   22.7473 C   0  0  1  0  0  0  0  0  0  0  0  0
    7.9134  -18.2844   22.8801 C   0  0  0  0  0  0  0  0  0  0  0  0
    7.5031  -18.7848   24.2435 C   0  0  0  0  0  0  0  0  0  0  0  0
    7.7155  -20.2881   24.2385 C   0  0  0  0  0  0  0  0  0  0  0  0
    7.4073  -20.8930   25.5915 C   0  0  0  0  0  0  0  0  0  0  0  0
    5.9998  -21.1733   25.7400 N   0  0  0  0  0  0  0  0  0  0  0  0
    8.3845  -16.0461   23.8137 C   0  0  0  0  0  0  0  0  0  0  0  0
    9.6048  -15.8950   23.6980 O   0  0  0  0  0  0  0  0  0  0  0  0
    6.2952  -11.5454   25.7347 C   0  0  0  0  0  0  0  0  0  0  0  0
    7.2498  -12.6103   25.3387 C   0  0  0  0  0  0  0  0  0  0  0  0
    7.6644  -13.5648   26.4190 C   0  0  2  0  0  0  0  0  0  0  0  0
    8.2447  -12.7437   27.5360 C   0  0  0  0  0  0  0  0  0  0  0  0
    8.3753  -14.7850   26.0246 C   0  0  2  0  0  0  0  0  0  0  0  0
    7.7391  -15.5199   24.9479 N   0  0  0  0  0  0  0  0  0  0  0  0
    8.8651  -15.7101   27.0276 C   0  0  0  0  0  0  0  0  0  0  0  0
    8.2504  -16.8220   27.5576 O   0  0  0  0  0  0  0  0  0  0  0  0
   10.0356  -15.4940   27.5205 O   0  0  0  0  0  0  0  0  0  0  0  0
  2  5  1  0
  2  1  1  1
  3  2  1  0
  4  3  1  0
  5  6  2  0
  7  5  1  0
  7  8  1  0
  8  9  1  6
  9 10  1  0
 10 11  1  0
 11 12  1  0
 13 12  1  0
 14  8  1  0
 14 15  2  0
 16 17  1  0
 17 18  1  0
 18 19  1  1
 18 20  1  0
 20 21  1  6
 20 22  1  0
 21 14  1  0
 22 24  2  0
 22 23  1  0
M  END
$$$$
