CKI.pdb
     RDKit          3D

 24 23  0  0  1  0  0  0  0  0999 V2000
    6.9481  -13.8322   18.4920 N   0  0  0  0  0  0  0  0  0  0  0  0
    8.0716  -14.5178   19.1128 C   0  0  1  0  0  0  0  0  0  0  0  0
    9.1617  -13.4666   19.2912 C   0  0  0  0  0  0  0  0  0  0  0  0
    8.5402  -12.0485   20.2369 S   0  0  0  0  0  0  0  0  0  0  0  0
    7.6488  -14.9588   20.4712 C   0  0  0  0  0  0  0  0  0  0  0  0
    6.6098  -14.4663   21.0287 O   0  0  0  0  0  0  0  0  0  0  0  0
    8.3494  -15.9288   21.2204 N   0  0  0  0  0  0  0  0  0  0  0  0
    7.8459  -16.4821   22.4635 C   0  0  1  0  0  0  0  0  0  0  0  0
    8.0751  -17.9988   22.5001 C   0  0  0  0  0  0  0  0  0  0  0  0
    7.5386  -18.5965   23.7778 C   0  0  0  0  0  0  0  0  0  0  0  0
    7.7669  -20.0949   23.6880 C   0  0  0  0  0  0  0  0  0  0  0  0
    7.1622  -20.8167   24.8731 C   0  0  0  0  0  0  0  0  0  0  0  0
    5.7676  -21.1172   24.6572 N   0  0  0  0  0  0  0  0  0  0  0  0
    8.4649  -15.8492   23.6536 C   0  0  0  0  0  0  0  0  0  0  0  0
    9.6777  -15.6166   23.6335 O   0  0  0  0  0  0  0  0  0  0  0  0
    5.8885  -11.7295   25.8408 C   0  0  0  0  0  0  0  0  0  0  0  0
    6.9112  -12.7049   25.3883 C   0  0  0  0  0  0  0  0  0  0  0  0
    7.3829  -13.6945   26.4120 C   0  0  2  0  0  0  0  0  0  0  0  0
    7.8280  -12.9097   27.6138 C   0  0  0  0  0  0  0  0  0  0  0  0
    8.2351  -14.7992   25.9608 C   0  0  2  0  0  0  0  0  0  0  0  0
    7.7258  -15.5050   24.8004 N   0  0  0  0  0  0  0  0  0  0  0  0
    8.7782  -15.7481   26.9129 C   0  0  0  0  0  0  0  0  0  0  0  0
    8.5760  -17.1071   26.9962 O   0  0  0  0  0  0  0  0  0  0  0  0
    9.5625  -15.2946   27.8289 O   0  0  0  0  0  0  0  0  0  0  0  0
  2  5  1  0
  2  1  1  1
  3  2  1  0
  4  3  1  0
  5  6  2  0
  7  5  1  0
  7  8  1  0
  8  9  1  6
  9 10  1  0
 10 11  1  0
 11 12  1  0
 13 12  1  0
 14  8  1  0
 14 15  2  0
 16 17  1  0
 17 18  1  0
 18 19  1  1
 18 20  1  0
 20 21  1  6
 20 22  1  0
 21 14  1  0
 22 24  2  0
 22 23  1  0
M  END
$$$$
