CKI.pdb
     RDKit          3D

 24 23  0  0  1  0  0  0  0  0999 V2000
    7.1976  -15.1631   18.7734 N   0  0  0  0  0  0  0  0  0  0  0  0
    8.2052  -14.5998   19.6594 C   0  0  1  0  0  0  0  0  0  0  0  0
    7.7930  -13.1519   19.9016 C   0  0  0  0  0  0  0  0  0  0  0  0
    8.4484  -12.0696   18.6012 S   0  0  0  0  0  0  0  0  0  0  0  0
    8.1218  -15.3130   20.9643 C   0  0  0  0  0  0  0  0  0  0  0  0
    6.9912  -15.6150   21.4776 O   0  0  0  0  0  0  0  0  0  0  0  0
    9.2588  -15.6963   21.7082 N   0  0  0  0  0  0  0  0  0  0  0  0
    9.1747  -16.4125   22.9671 C   0  0  1  0  0  0  0  0  0  0  0  0
   10.1017  -17.6350   22.9447 C   0  0  0  0  0  0  0  0  0  0  0  0
   10.1142  -18.3294   24.2845 C   0  0  0  0  0  0  0  0  0  0  0  0
   11.0260  -19.5351   24.1425 C   0  0  0  0  0  0  0  0  0  0  0  0
   11.0640  -20.3508   25.4171 C   0  0  0  0  0  0  0  0  0  0  0  0
   11.8208  -21.5673   25.2469 N   0  0  0  0  0  0  0  0  0  0  0  0
    9.5035  -15.5509   24.1288 C   0  0  0  0  0  0  0  0  0  0  0  0
   10.5683  -14.9253   24.1157 O   0  0  0  0  0  0  0  0  0  0  0  0
    6.1247  -12.0154   26.0962 C   0  0  0  0  0  0  0  0  0  0  0  0
    7.2899  -12.8527   25.7176 C   0  0  0  0  0  0  0  0  0  0  0  0
    7.8772  -13.7029   26.8049 C   0  0  2  0  0  0  0  0  0  0  0  0
    8.1174  -12.8061   27.9867 C   0  0  0  0  0  0  0  0  0  0  0  0
    8.9316  -14.6547   26.4414 C   0  0  2  0  0  0  0  0  0  0  0  0
    8.6517  -15.4195   25.2410 N   0  0  0  0  0  0  0  0  0  0  0  0
    9.5252  -15.5165   27.4449 C   0  0  0  0  0  0  0  0  0  0  0  0
   10.4574  -15.2110   28.4106 O   0  0  0  0  0  0  0  0  0  0  0  0
    9.1574  -16.7510   27.4669 O   0  0  0  0  0  0  0  0  0  0  0  0
  2  5  1  0
  2  1  1  6
  3  2  1  0
  4  3  1  0
  5  6  2  0
  7  5  1  0
  7  8  1  0
  8  9  1  6
  9 10  1  0
 10 11  1  0
 11 12  1  0
 13 12  1  0
 14  8  1  0
 14 15  2  0
 16 17  1  0
 17 18  1  0
 18 19  1  1
 18 20  1  0
 20 21  1  6
 20 22  1  0
 21 14  1  0
 22 24  2  0
 22 23  1  0
M  END
$$$$
