CKI.pdb
     RDKit          3D

 24 23  0  0  1  0  0  0  0  0999 V2000
   11.0194  -14.3944   18.2136 N   0  0  0  0  0  0  0  0  0  0  0  0
   11.3712  -15.0632   19.4572 C   0  0  1  0  0  0  0  0  0  0  0  0
   12.4705  -14.2200   20.0941 C   0  0  0  0  0  0  0  0  0  0  0  0
   14.0608  -14.5052   19.2685 S   0  0  0  0  0  0  0  0  0  0  0  0
   10.1874  -15.0105   20.3595 C   0  0  0  0  0  0  0  0  0  0  0  0
    9.3861  -14.0154   20.3356 O   0  0  0  0  0  0  0  0  0  0  0  0
    9.8748  -16.0317   21.2828 N   0  0  0  0  0  0  0  0  0  0  0  0
    8.6608  -16.0341   22.0773 C   0  0  1  0  0  0  0  0  0  0  0  0
    7.9803  -17.4071   22.0018 C   0  0  0  0  0  0  0  0  0  0  0  0
    7.4904  -17.6921   20.6031 C   0  0  0  0  0  0  0  0  0  0  0  0
    6.9617  -19.1154   20.6075 C   0  0  0  0  0  0  0  0  0  0  0  0
    6.3714  -19.4886   19.2645 C   0  0  0  0  0  0  0  0  0  0  0  0
    5.8423  -20.8308   19.2711 N   0  0  0  0  0  0  0  0  0  0  0  0
    8.9136  -15.6732   23.4936 C   0  0  0  0  0  0  0  0  0  0  0  0
   10.0105  -15.9546   23.9866 O   0  0  0  0  0  0  0  0  0  0  0  0
    6.2623  -11.3078   25.7077 C   0  0  0  0  0  0  0  0  0  0  0  0
    7.3294  -12.2968   25.4161 C   0  0  0  0  0  0  0  0  0  0  0  0
    7.2456  -13.6001   26.1539 C   0  0  2  0  0  0  0  0  0  0  0  0
    7.2342  -13.2777   27.6217 C   0  0  0  0  0  0  0  0  0  0  0  0
    8.0981  -14.7039   25.7013 C   0  0  2  0  0  0  0  0  0  0  0  0
    7.9550  -15.0248   24.2939 N   0  0  0  0  0  0  0  0  0  0  0  0
    8.1957  -15.9257   26.4756 C   0  0  0  0  0  0  0  0  0  0  0  0
    7.4713  -17.0901   26.3558 O   0  0  0  0  0  0  0  0  0  0  0  0
    9.0695  -15.9666   27.4215 O   0  0  0  0  0  0  0  0  0  0  0  0
  2  5  1  0
  2  1  1  6
  3  2  1  0
  4  3  1  0
  5  6  2  0
  7  5  1  0
  7  8  1  0
  8  9  1  1
  9 10  1  0
 10 11  1  0
 11 12  1  0
 13 12  1  0
 14  8  1  0
 14 15  2  0
 16 17  1  0
 17 18  1  0
 18 19  1  1
 18 20  1  0
 20 21  1  6
 20 22  1  0
 21 14  1  0
 22 24  2  0
 22 23  1  0
M  END
$$$$
