CKI.pdb
     RDKit          3D

 24 23  0  0  1  0  0  0  0  0999 V2000
    6.7322  -15.2827   18.4042 N   0  0  0  0  0  0  0  0  0  0  0  0
    7.7537  -14.8899   19.3633 C   0  0  1  0  0  0  0  0  0  0  0  0
    7.8558  -13.3711   19.2737 C   0  0  0  0  0  0  0  0  0  0  0  0
    9.3016  -12.8797   18.2940 S   0  0  0  0  0  0  0  0  0  0  0  0
    7.2582  -15.2253   20.7273 C   0  0  0  0  0  0  0  0  0  0  0  0
    6.2272  -14.6472   21.2130 O   0  0  0  0  0  0  0  0  0  0  0  0
    7.8778  -16.1825   21.5597 N   0  0  0  0  0  0  0  0  0  0  0  0
    7.4128  -16.4826   22.9008 C   0  0  1  0  0  0  0  0  0  0  0  0
    7.4671  -17.9948   23.1550 C   0  0  0  0  0  0  0  0  0  0  0  0
    6.9344  -18.3326   24.5259 C   0  0  0  0  0  0  0  0  0  0  0  0
    7.0177  -19.8421   24.6665 C   0  0  0  0  0  0  0  0  0  0  0  0
    8.3726  -20.3621   24.2362 C   0  0  0  0  0  0  0  0  0  0  0  0
    9.1951  -20.7048   25.3709 N   0  0  0  0  0  0  0  0  0  0  0  0
    8.1922  -15.7676   23.9407 C   0  0  0  0  0  0  0  0  0  0  0  0
    9.4164  -15.6800   23.8033 O   0  0  0  0  0  0  0  0  0  0  0  0
    5.8275  -11.7283   27.5505 C   0  0  0  0  0  0  0  0  0  0  0  0
    6.3265  -13.0544   27.1095 C   0  0  0  0  0  0  0  0  0  0  0  0
    7.5664  -13.0494   26.2654 C   0  0  2  0  0  0  0  0  0  0  0  0
    7.2855  -12.1807   25.0716 C   0  0  0  0  0  0  0  0  0  0  0  0
    8.2501  -14.3264   26.0379 C   0  0  2  0  0  0  0  0  0  0  0  0
    7.5922  -15.1874   25.0735 N   0  0  0  0  0  0  0  0  0  0  0  0
    8.7277  -15.1167   27.1555 C   0  0  0  0  0  0  0  0  0  0  0  0
    9.6037  -14.7640   28.1571 O   0  0  0  0  0  0  0  0  0  0  0  0
    8.2981  -16.3268   27.2598 O   0  0  0  0  0  0  0  0  0  0  0  0
  2  5  1  0
  2  1  1  6
  3  2  1  0
  4  3  1  0
  5  6  2  0
  7  5  1  0
  7  8  1  0
  8  9  1  1
  9 10  1  0
 10 11  1  0
 11 12  1  0
 13 12  1  0
 14  8  1  0
 14 15  2  0
 16 17  1  0
 17 18  1  0
 18 19  1  6
 18 20  1  0
 20 21  1  1
 20 22  1  0
 21 14  1  0
 22 24  2  0
 22 23  1  0
M  END
$$$$
