CKI.pdb
     RDKit          3D

 24 23  0  0  1  0  0  0  0  0999 V2000
    7.5578  -13.4882   17.8910 N   0  0  0  0  0  0  0  0  0  0  0  0
    8.6489  -13.9818   18.7178 C   0  0  1  0  0  0  0  0  0  0  0  0
    9.4998  -12.7651   19.0650 C   0  0  0  0  0  0  0  0  0  0  0  0
   10.9832  -13.2584   19.9859 S   0  0  0  0  0  0  0  0  0  0  0  0
    8.0672  -14.4981   19.9880 C   0  0  0  0  0  0  0  0  0  0  0  0
    7.0860  -13.9040   20.5513 O   0  0  0  0  0  0  0  0  0  0  0  0
    8.5474  -15.6526   20.6435 N   0  0  0  0  0  0  0  0  0  0  0  0
    7.9486  -16.1798   21.8553 C   0  0  1  0  0  0  0  0  0  0  0  0
    8.1283  -17.7024   21.9166 C   0  0  0  0  0  0  0  0  0  0  0  0
    7.3367  -18.3850   20.8280 C   0  0  0  0  0  0  0  0  0  0  0  0
    7.6523  -19.8671   20.9230 C   0  0  0  0  0  0  0  0  0  0  0  0
    6.8202  -20.6717   19.9477 C   0  0  0  0  0  0  0  0  0  0  0  0
    7.1191  -22.0808   20.0304 N   0  0  0  0  0  0  0  0  0  0  0  0
    8.5092  -15.5557   23.0785 C   0  0  0  0  0  0  0  0  0  0  0  0
    9.7365  -15.4720   23.1878 O   0  0  0  0  0  0  0  0  0  0  0  0
    6.9464  -11.1757   27.1373 C   0  0  0  0  0  0  0  0  0  0  0  0
    7.7820  -12.3629   26.8303 C   0  0  0  0  0  0  0  0  0  0  0  0
    7.3207  -13.2220   25.6905 C   0  0  2  0  0  0  0  0  0  0  0  0
    5.8536  -13.4765   25.8939 C   0  0  0  0  0  0  0  0  0  0  0  0
    8.1644  -14.3544   25.2959 C   0  0  2  0  0  0  0  0  0  0  0  0
    7.6990  -15.0572   24.1153 N   0  0  0  0  0  0  0  0  0  0  0  0
    8.6277  -15.3086   26.2841 C   0  0  0  0  0  0  0  0  0  0  0  0
    9.5985  -15.1580   27.2485 O   0  0  0  0  0  0  0  0  0  0  0  0
    8.0815  -16.4754   26.2916 O   0  0  0  0  0  0  0  0  0  0  0  0
  2  5  1  0
  2  1  1  6
  3  2  1  0
  4  3  1  0
  5  6  2  0
  7  5  1  0
  7  8  1  0
  8  9  1  1
  9 10  1  0
 10 11  1  0
 11 12  1  0
 13 12  1  0
 14  8  1  0
 14 15  2  0
 16 17  1  0
 17 18  1  0
 18 19  1  1
 18 20  1  0
 20 21  1  6
 20 22  1  0
 21 14  1  0
 22 24  2  0
 22 23  1  0
M  END
$$$$
