CKI.pdb
     RDKit          3D

 24 23  0  0  1  0  0  0  0  0999 V2000
    7.1398  -14.8201   18.4380 N   0  0  0  0  0  0  0  0  0  0  0  0
    8.1431  -14.4033   19.4062 C   0  0  1  0  0  0  0  0  0  0  0  0
    7.9081  -12.9157   19.6444 C   0  0  0  0  0  0  0  0  0  0  0  0
    8.4981  -11.9369   18.2352 S   0  0  0  0  0  0  0  0  0  0  0  0
    7.8682  -15.1105   20.6879 C   0  0  0  0  0  0  0  0  0  0  0  0
    6.6918  -15.1350   21.1863 O   0  0  0  0  0  0  0  0  0  0  0  0
    8.8642  -15.7872   21.4248 N   0  0  0  0  0  0  0  0  0  0  0  0
    8.5960  -16.4632   22.6803 C   0  0  1  0  0  0  0  0  0  0  0  0
    9.2649  -17.8440   22.6926 C   0  0  0  0  0  0  0  0  0  0  0  0
    8.4955  -18.8257   21.8429 C   0  0  0  0  0  0  0  0  0  0  0  0
    9.1996  -20.1642   21.9769 C   0  0  0  0  0  0  0  0  0  0  0  0
    8.5175  -21.2314   21.1481 C   0  0  0  0  0  0  0  0  0  0  0  0
    9.1109  -22.5292   21.3605 N   0  0  0  0  0  0  0  0  0  0  0  0
    9.0460  -15.6739   23.8526 C   0  0  0  0  0  0  0  0  0  0  0  0
   10.1807  -15.1868   23.8346 O   0  0  0  0  0  0  0  0  0  0  0  0
    6.0341  -11.8759   26.0022 C   0  0  0  0  0  0  0  0  0  0  0  0
    7.0977  -12.8103   25.5576 C   0  0  0  0  0  0  0  0  0  0  0  0
    7.6612  -13.7218   26.6072 C   0  0  2  0  0  0  0  0  0  0  0  0
    8.0252  -12.8657   27.7875 C   0  0  0  0  0  0  0  0  0  0  0  0
    8.6178  -14.7499   26.1854 C   0  0  2  0  0  0  0  0  0  0  0  0
    8.2322  -15.4595   24.9804 N   0  0  0  0  0  0  0  0  0  0  0  0
    9.1709  -15.6821   27.1480 C   0  0  0  0  0  0  0  0  0  0  0  0
   10.1508  -15.4760   28.0926 O   0  0  0  0  0  0  0  0  0  0  0  0
    8.7095  -16.8850   27.1496 O   0  0  0  0  0  0  0  0  0  0  0  0
  2  5  1  0
  2  1  1  6
  3  2  1  0
  4  3  1  0
  5  6  2  0
  7  5  1  0
  7  8  1  0
  8  9  1  6
  9 10  1  0
 10 11  1  0
 11 12  1  0
 13 12  1  0
 14  8  1  0
 14 15  2  0
 16 17  1  0
 17 18  1  0
 18 19  1  1
 18 20  1  0
 20 21  1  6
 20 22  1  0
 21 14  1  0
 22 24  2  0
 22 23  1  0
M  END
$$$$
