CKI.pdb
     RDKit          3D

 24 23  0  0  1  0  0  0  0  0999 V2000
    6.8831  -15.3050   18.5330 N   0  0  0  0  0  0  0  0  0  0  0  0
    7.9520  -14.9183   19.4416 C   0  0  1  0  0  0  0  0  0  0  0  0
    7.9279  -13.3947   19.4982 C   0  0  0  0  0  0  0  0  0  0  0  0
    8.7299  -12.6832   18.0344 S   0  0  0  0  0  0  0  0  0  0  0  0
    7.6067  -15.4219   20.8002 C   0  0  0  0  0  0  0  0  0  0  0  0
    6.4293  -15.2776   21.2754 O   0  0  0  0  0  0  0  0  0  0  0  0
    8.5337  -16.0784   21.6384 N   0  0  0  0  0  0  0  0  0  0  0  0
    8.1861  -16.5950   22.9488 C   0  0  1  0  0  0  0  0  0  0  0  0
    8.6919  -18.0354   23.1023 C   0  0  0  0  0  0  0  0  0  0  0  0
    8.4646  -18.5423   24.5055 C   0  0  0  0  0  0  0  0  0  0  0  0
    7.5990  -19.7839   24.3860 C   0  0  0  0  0  0  0  0  0  0  0  0
    7.2127  -20.3199   25.7479 C   0  0  0  0  0  0  0  0  0  0  0  0
    6.2856  -21.4204   25.6424 N   0  0  0  0  0  0  0  0  0  0  0  0
    8.7205  -15.7527   24.0465 C   0  0  0  0  0  0  0  0  0  0  0  0
    9.8900  -15.3624   23.9739 O   0  0  0  0  0  0  0  0  0  0  0  0
    5.8641  -11.6995   26.0021 C   0  0  0  0  0  0  0  0  0  0  0  0
    6.9332  -12.6450   25.5959 C   0  0  0  0  0  0  0  0  0  0  0  0
    7.4961  -13.5154   26.6801 C   0  0  2  0  0  0  0  0  0  0  0  0
    7.9188  -12.6081   27.8011 C   0  0  0  0  0  0  0  0  0  0  0  0
    8.4081  -14.5960   26.2922 C   0  0  2  0  0  0  0  0  0  0  0  0
    7.9487  -15.3828   25.1634 N   0  0  0  0  0  0  0  0  0  0  0  0
    8.9868  -15.4684   27.2952 C   0  0  0  0  0  0  0  0  0  0  0  0
   10.0421  -15.2323   28.1469 O   0  0  0  0  0  0  0  0  0  0  0  0
    8.4715  -16.6404   27.4382 O   0  0  0  0  0  0  0  0  0  0  0  0
  2  5  1  0
  2  1  1  6
  3  2  1  0
  4  3  1  0
  5  6  2  0
  7  5  1  0
  7  8  1  0
  8  9  1  1
  9 10  1  0
 10 11  1  0
 11 12  1  0
 13 12  1  0
 14  8  1  0
 14 15  2  0
 16 17  1  0
 17 18  1  0
 18 19  1  1
 18 20  1  0
 20 21  1  6
 20 22  1  0
 21 14  1  0
 22 24  2  0
 22 23  1  0
M  END
$$$$
