CKI.pdb
     RDKit          3D

 24 23  0  0  1  0  0  0  0  0999 V2000
    6.9969  -20.8080   24.4056 N   0  0  0  0  0  0  0  0  0  0  0  0
    6.5999  -19.4426   24.0963 C   0  0  1  0  0  0  0  0  0  0  0  0
    5.9640  -18.8894   25.3671 C   0  0  0  0  0  0  0  0  0  0  0  0
    7.0816  -19.0825   26.7832 S   0  0  0  0  0  0  0  0  0  0  0  0
    7.8346  -18.6521   23.8333 C   0  0  0  0  0  0  0  0  0  0  0  0
    8.9698  -19.0395   24.2739 O   0  0  0  0  0  0  0  0  0  0  0  0
    7.8375  -17.4480   23.0963 N   0  0  0  0  0  0  0  0  0  0  0  0
    9.0053  -16.5948   22.9814 C   0  0  1  0  0  0  0  0  0  0  0  0
    9.1038  -16.0189   21.5626 C   0  0  0  0  0  0  0  0  0  0  0  0
   10.4058  -15.2813   21.3671 C   0  0  0  0  0  0  0  0  0  0  0  0
   10.4609  -14.8734   19.9057 C   0  0  0  0  0  0  0  0  0  0  0  0
   11.7561  -14.1605   19.5807 C   0  0  0  0  0  0  0  0  0  0  0  0
   11.8453  -13.8336   18.1783 N   0  0  0  0  0  0  0  0  0  0  0  0
    8.9980  -15.4929   23.9741 C   0  0  0  0  0  0  0  0  0  0  0  0
    9.0389  -14.3290   23.5629 O   0  0  0  0  0  0  0  0  0  0  0  0
    5.9650  -12.7018   26.0810 C   0  0  0  0  0  0  0  0  0  0  0  0
    7.2300  -13.3568   25.6654 C   0  0  0  0  0  0  0  0  0  0  0  0
    8.0815  -13.9143   26.7673 C   0  0  2  0  0  0  0  0  0  0  0  0
    8.3072  -12.8054   27.7562 C   0  0  0  0  0  0  0  0  0  0  0  0
    9.2306  -14.7460   26.3963 C   0  0  2  0  0  0  0  0  0  0  0  0
    8.9464  -15.7220   25.3615 N   0  0  0  0  0  0  0  0  0  0  0  0
   10.0690  -15.3433   27.4171 C   0  0  0  0  0  0  0  0  0  0  0  0
   10.8594  -14.7280   28.3614 O   0  0  0  0  0  0  0  0  0  0  0  0
   10.1107  -16.6294   27.4804 O   0  0  0  0  0  0  0  0  0  0  0  0
  2  5  1  0
  2  1  1  1
  3  2  1  0
  4  3  1  0
  5  6  2  0
  7  5  1  0
  7  8  1  0
  8  9  1  6
  9 10  1  0
 10 11  1  0
 11 12  1  0
 13 12  1  0
 14  8  1  0
 14 15  2  0
 16 17  1  0
 17 18  1  0
 18 19  1  6
 18 20  1  0
 20 21  1  1
 20 22  1  0
 21 14  1  0
 22 24  2  0
 22 23  1  0
M  END
$$$$
