CKI.pdb
     RDKit          3D

 24 23  0  0  1  0  0  0  0  0999 V2000
   12.6122  -17.8131   20.5349 N   0  0  0  0  0  0  0  0  0  0  0  0
   11.6955  -18.1641   21.6092 C   0  0  1  0  0  0  0  0  0  0  0  0
   12.5671  -18.5774   22.7902 C   0  0  0  0  0  0  0  0  0  0  0  0
   12.8192  -20.3741   22.8068 S   0  0  0  0  0  0  0  0  0  0  0  0
   10.9583  -16.9324   22.0066 C   0  0  0  0  0  0  0  0  0  0  0  0
   11.5726  -15.9329   22.5130 O   0  0  0  0  0  0  0  0  0  0  0  0
    9.5623  -16.7861   21.8554 N   0  0  0  0  0  0  0  0  0  0  0  0
    8.8374  -15.6131   22.3067 C   0  0  1  0  0  0  0  0  0  0  0  0
    7.4380  -15.5804   21.6785 C   0  0  0  0  0  0  0  0  0  0  0  0
    7.1494  -14.2299   21.0698 C   0  0  0  0  0  0  0  0  0  0  0  0
    7.7160  -14.2560   19.6614 C   0  0  0  0  0  0  0  0  0  0  0  0
    7.5210  -12.9268   18.9639 C   0  0  0  0  0  0  0  0  0  0  0  0
    8.1126  -12.9255   17.6480 N   0  0  0  0  0  0  0  0  0  0  0  0
    8.7288  -15.5518   23.7847 C   0  0  0  0  0  0  0  0  0  0  0  0
    8.7349  -16.6107   24.4203 O   0  0  0  0  0  0  0  0  0  0  0  0
    5.9102  -11.3192   25.6618 C   0  0  0  0  0  0  0  0  0  0  0  0
    7.1893  -12.0435   25.4587 C   0  0  0  0  0  0  0  0  0  0  0  0
    7.4110  -13.2522   26.3188 C   0  0  2  0  0  0  0  0  0  0  0  0
    7.3867  -12.7886   27.7481 C   0  0  0  0  0  0  0  0  0  0  0  0
    8.4602  -14.1967   25.9225 C   0  0  2  0  0  0  0  0  0  0  0  0
    8.6196  -14.3378   24.4876 N   0  0  0  0  0  0  0  0  0  0  0  0
    8.5611  -15.4961   26.5574 C   0  0  0  0  0  0  0  0  0  0  0  0
    9.2595  -15.8590   27.6868 O   0  0  0  0  0  0  0  0  0  0  0  0
    7.9247  -16.4773   26.0171 O   0  0  0  0  0  0  0  0  0  0  0  0
  2  5  1  0
  2  1  1  6
  3  2  1  0
  4  3  1  0
  5  6  2  0
  7  5  1  0
  7  8  1  0
  8  9  1  6
  9 10  1  0
 10 11  1  0
 11 12  1  0
 13 12  1  0
 14  8  1  0
 14 15  2  0
 16 17  1  0
 17 18  1  0
 18 19  1  1
 18 20  1  0
 20 21  1  6
 20 22  1  0
 21 14  1  0
 22 24  2  0
 22 23  1  0
M  END
$$$$
