CKI.pdb
     RDKit          3D

 24 23  0  0  1  0  0  0  0  0999 V2000
    6.8597  -16.0607   18.4261 N   0  0  0  0  0  0  0  0  0  0  0  0
    7.8728  -15.5049   19.3106 C   0  0  1  0  0  0  0  0  0  0  0  0
    7.8471  -13.9967   19.0874 C   0  0  0  0  0  0  0  0  0  0  0  0
    9.0178  -13.1620   20.1942 S   0  0  0  0  0  0  0  0  0  0  0  0
    7.4463  -15.7566   20.7153 C   0  0  0  0  0  0  0  0  0  0  0  0
    6.2780  -15.4293   21.1165 O   0  0  0  0  0  0  0  0  0  0  0  0
    8.2827  -16.3600   21.6793 N   0  0  0  0  0  0  0  0  0  0  0  0
    7.8436  -16.6611   23.0290 C   0  0  1  0  0  0  0  0  0  0  0  0
    8.1430  -18.1268   23.3695 C   0  0  0  0  0  0  0  0  0  0  0  0
    7.9053  -18.4016   24.8343 C   0  0  0  0  0  0  0  0  0  0  0  0
    6.9680  -19.5938   24.9080 C   0  0  0  0  0  0  0  0  0  0  0  0
    6.6539  -19.9603   26.3427 C   0  0  0  0  0  0  0  0  0  0  0  0
    7.6449  -20.8535   26.8921 N   0  0  0  0  0  0  0  0  0  0  0  0
    8.4691  -15.7707   24.0369 C   0  0  0  0  0  0  0  0  0  0  0  0
    9.6562  -15.4614   23.8940 O   0  0  0  0  0  0  0  0  0  0  0  0
    5.3771  -11.8696   26.4351 C   0  0  0  0  0  0  0  0  0  0  0  0
    6.5041  -12.6174   25.8246 C   0  0  0  0  0  0  0  0  0  0  0  0
    7.3099  -13.4772   26.7528 C   0  0  2  0  0  0  0  0  0  0  0  0
    7.7477  -12.6050   27.8957 C   0  0  0  0  0  0  0  0  0  0  0  0
    8.3000  -14.3853   26.1654 C   0  0  2  0  0  0  0  0  0  0  0  0
    7.7643  -15.2668   25.1455 N   0  0  0  0  0  0  0  0  0  0  0  0
    9.2227  -15.1170   27.0109 C   0  0  0  0  0  0  0  0  0  0  0  0
   10.3947  -14.6884   27.5920 O   0  0  0  0  0  0  0  0  0  0  0  0
    8.9444  -16.3465   27.2769 O   0  0  0  0  0  0  0  0  0  0  0  0
  2  5  1  0
  2  1  1  6
  3  2  1  0
  4  3  1  0
  5  6  2  0
  7  5  1  0
  7  8  1  0
  8  9  1  1
  9 10  1  0
 10 11  1  0
 11 12  1  0
 13 12  1  0
 14  8  1  0
 14 15  2  0
 16 17  1  0
 17 18  1  0
 18 19  1  1
 18 20  1  0
 20 21  1  1
 20 22  1  0
 21 14  1  0
 22 24  2  0
 22 23  1  0
M  END
$$$$
