CKI.pdb
     RDKit          3D

 24 23  0  0  1  0  0  0  0  0999 V2000
    6.9260  -15.6397   18.3886 N   0  0  0  0  0  0  0  0  0  0  0  0
    7.8155  -15.0963   19.4040 C   0  0  1  0  0  0  0  0  0  0  0  0
    7.6533  -13.5814   19.3409 C   0  0  0  0  0  0  0  0  0  0  0  0
    9.0958  -12.8116   18.5544 S   0  0  0  0  0  0  0  0  0  0  0  0
    7.3220  -15.5439   20.7362 C   0  0  0  0  0  0  0  0  0  0  0  0
    6.1238  -15.3023   21.1087 O   0  0  0  0  0  0  0  0  0  0  0  0
    8.1242  -16.2497   21.6589 N   0  0  0  0  0  0  0  0  0  0  0  0
    7.6605  -16.6299   22.9800 C   0  0  1  0  0  0  0  0  0  0  0  0
    7.8665  -18.1340   23.2019 C   0  0  0  0  0  0  0  0  0  0  0  0
    7.4043  -18.5464   24.5780 C   0  0  0  0  0  0  0  0  0  0  0  0
    7.7321  -20.0217   24.7244 C   0  0  0  0  0  0  0  0  0  0  0  0
    7.2368  -20.5680   26.0464 C   0  0  0  0  0  0  0  0  0  0  0  0
    7.5331  -21.9732   26.1851 N   0  0  0  0  0  0  0  0  0  0  0  0
    8.3352  -15.8638   24.0561 C   0  0  0  0  0  0  0  0  0  0  0  0
    9.5537  -15.6805   23.9737 O   0  0  0  0  0  0  0  0  0  0  0  0
    5.7752  -11.5758   26.1315 C   0  0  0  0  0  0  0  0  0  0  0  0
    6.8063  -12.5329   25.6592 C   0  0  0  0  0  0  0  0  0  0  0  0
    7.3858  -13.4488   26.6961 C   0  0  2  0  0  0  0  0  0  0  0  0
    7.9105  -12.5835   27.8072 C   0  0  0  0  0  0  0  0  0  0  0  0
    8.2240  -14.5623   26.2407 C   0  0  2  0  0  0  0  0  0  0  0  0
    7.6424  -15.3399   25.1631 N   0  0  0  0  0  0  0  0  0  0  0  0
    8.8582  -15.4476   27.1977 C   0  0  0  0  0  0  0  0  0  0  0  0
    8.5112  -16.7304   27.5566 O   0  0  0  0  0  0  0  0  0  0  0  0
    9.8941  -15.0077   27.8248 O   0  0  0  0  0  0  0  0  0  0  0  0
  2  5  1  0
  2  1  1  6
  3  2  1  0
  4  3  1  0
  5  6  2  0
  7  5  1  0
  7  8  1  0
  8  9  1  1
  9 10  1  0
 10 11  1  0
 11 12  1  0
 13 12  1  0
 14  8  1  0
 14 15  2  0
 16 17  1  0
 17 18  1  0
 18 19  1  1
 18 20  1  0
 20 21  1  6
 20 22  1  0
 21 14  1  0
 22 24  2  0
 22 23  1  0
M  END
$$$$
