FDC.pdb
     RDKit          3D

 26 26  0  0  1  0  0  0  0  0999 V2000
   22.7041  -30.7206  -17.4320 N   0  0  0  0  0  0  0  0  0  0  0  0
   23.5063  -31.3906  -16.4096 C   0  0  1  0  0  0  0  0  0  0  0  0
   24.5057  -30.4499  -15.8294 C   0  0  0  0  0  0  0  0  0  0  0  0
   25.8459  -30.9867  -15.6277 C   0  0  0  0  0  0  0  0  0  0  0  0
   26.1960  -31.7015  -14.5090 C   0  0  0  0  0  0  0  0  0  0  0  0
   27.4807  -32.1860  -14.3703 C   0  0  0  0  0  0  0  0  0  0  0  0
   28.4473  -31.9709  -15.3406 C   0  0  0  0  0  0  0  0  0  0  0  0
   28.1009  -31.2528  -16.4673 C   0  0  0  0  0  0  0  0  0  0  0  0
   26.8067  -30.7720  -16.5938 C   0  0  0  0  0  0  0  0  0  0  0  0
   22.5919  -32.0203  -15.4550 C   0  0  0  0  0  0  0  0  0  0  0  0
   21.4987  -31.4650  -15.1018 O   0  0  0  0  0  0  0  0  0  0  0  0
   22.8347  -33.3018  -14.8368 N   0  0  0  0  0  0  0  0  0  0  0  0
   21.9590  -33.8562  -13.8533 C   0  0  1  0  0  0  0  0  0  0  0  0
   21.6609  -35.3099  -14.1497 C   0  0  0  0  0  0  0  0  0  0  0  0
   20.5055  -35.7697  -13.3698 C   0  0  0  0  0  0  0  0  0  0  0  0
   19.5138  -35.0034  -13.2514 O   0  0  0  0  0  0  0  0  0  0  0  0
   22.4756  -33.7973  -12.4742 C   0  0  0  0  0  0  0  0  0  0  0  0
   23.6766  -33.9246  -12.1453 O   0  0  0  0  0  0  0  0  0  0  0  0
   20.4522  -37.0011  -12.7584 O   0  0  0  0  0  0  0  0  0  0  0  0
   21.5181  -33.5761  -11.4351 N   0  0  0  0  0  0  0  0  0  0  0  0
   21.9057  -33.4779  -10.0401 C   0  0  1  0  0  0  0  0  0  0  0  0
   21.1177  -32.3351   -9.3940 C   0  0  0  0  0  0  0  0  0  0  0  0
   19.6872  -31.9920  -10.4653 S   0  0  0  0  0  0  0  0  0  0  0  0
   21.6488  -34.7548   -9.3300 C   0  0  0  0  0  0  0  0  0  0  0  0
   22.2169  -34.9539   -8.0817 O   0  0  0  0  0  0  0  0  0  0  0  0
   20.9395  -35.6660   -9.8072 O   0  0  0  0  0  0  0  0  0  0  0  0
  2  1  1  6
  2 10  1  0
  3  2  1  0
  4  3  1  0
  5  4  2  0
  6  5  1  0
  7  6  2  0
  7  8  1  0
  8  9  2  0
  9  4  1  0
 10 12  1  0
 11 10  2  0
 12 13  1  0
 13 14  1  6
 14 15  1  0
 15 16  2  0
 17 13  1  0
 17 18  2  0
 19 15  1  0
 20 17  1  0
 21 20  1  0
 21 24  1  0
 21 22  1  1
 23 22  1  0
 24 25  1  0
 26 24  2  0
M  END
$$$$
