FDC.pdb
     RDKit          3D

 26 26  0  0  1  0  0  0  0  0999 V2000
   18.0063   -8.9141  -13.2678 N   0  0  0  0  0  0  0  0  0  0  0  0
   18.1341   -8.2263  -14.5516 C   0  0  1  0  0  0  0  0  0  0  0  0
   17.2999   -8.8959  -15.5890 C   0  0  0  0  0  0  0  0  0  0  0  0
   17.5716  -10.3107  -15.8114 C   0  0  0  0  0  0  0  0  0  0  0  0
   18.6605  -10.7523  -16.5216 C   0  0  0  0  0  0  0  0  0  0  0  0
   18.8682  -12.1046  -16.7017 C   0  0  0  0  0  0  0  0  0  0  0  0
   17.9980  -13.0494  -16.1798 C   0  0  0  0  0  0  0  0  0  0  0  0
   16.9017  -12.6111  -15.4651 C   0  0  0  0  0  0  0  0  0  0  0  0
   16.7052  -11.2498  -15.2917 C   0  0  0  0  0  0  0  0  0  0  0  0
   17.8634   -6.8039  -14.3340 C   0  0  0  0  0  0  0  0  0  0  0  0
   17.4872   -6.3550  -13.2003 O   0  0  0  0  0  0  0  0  0  0  0  0
   17.9943   -5.7960  -15.3589 N   0  0  0  0  0  0  0  0  0  0  0  0
   17.7129   -4.4163  -15.1170 C   0  0  1  0  0  0  0  0  0  0  0  0
   18.3045   -3.5433  -16.2023 C   0  0  0  0  0  0  0  0  0  0  0  0
   19.7588   -3.4301  -16.0388 C   0  0  0  0  0  0  0  0  0  0  0  0
   20.2137   -3.0561  -14.9262 O   0  0  0  0  0  0  0  0  0  0  0  0
   16.2775   -4.0910  -15.0404 C   0  0  0  0  0  0  0  0  0  0  0  0
   15.3890   -4.5566  -15.7892 O   0  0  0  0  0  0  0  0  0  0  0  0
   20.6534   -3.7125  -17.0452 O   0  0  0  0  0  0  0  0  0  0  0  0
   15.8782   -3.1673  -14.0240 N   0  0  0  0  0  0  0  0  0  0  0  0
   14.4929   -2.7754  -13.8421 C   0  0  1  0  0  0  0  0  0  0  0  0
   13.8991   -3.5997  -12.6966 C   0  0  0  0  0  0  0  0  0  0  0  0
   12.1670   -3.0782  -12.4970 S   0  0  0  0  0  0  0  0  0  0  0  0
   14.3892   -1.3248  -13.5486 C   0  0  0  0  0  0  0  0  0  0  0  0
   13.2413   -0.6452  -13.9242 O   0  0  0  0  0  0  0  0  0  0  0  0
   15.2940   -0.6820  -12.9749 O   0  0  0  0  0  0  0  0  0  0  0  0
  2  1  1  1
  2 10  1  0
  3  2  1  0
  4  3  1  0
  5  4  2  0
  6  5  1  0
  7  6  2  0
  7  8  1  0
  8  9  2  0
  9  4  1  0
 10 12  1  0
 11 10  2  0
 12 13  1  0
 13 14  1  6
 14 15  1  0
 15 16  2  0
 17 13  1  0
 17 18  2  0
 19 15  1  0
 20 17  1  0
 21 20  1  0
 21 24  1  0
 21 22  1  1
 23 22  1  0
 24 25  1  0
 26 24  2  0
M  END
$$$$
