FDC.pdb
     RDKit          3D

 26 26  0  0  1  0  0  0  0  0999 V2000
   24.7635  -13.7725  -17.5493 N   0  0  0  0  0  0  0  0  0  0  0  0
   24.8720  -13.1654  -16.2236 C   0  0  1  0  0  0  0  0  0  0  0  0
   26.2395  -13.3663  -15.6668 C   0  0  0  0  0  0  0  0  0  0  0  0
   26.7655  -14.7239  -15.7399 C   0  0  0  0  0  0  0  0  0  0  0  0
   27.7286  -15.0965  -16.6448 C   0  0  0  0  0  0  0  0  0  0  0  0
   28.1899  -16.3968  -16.6696 C   0  0  0  0  0  0  0  0  0  0  0  0
   27.7043  -17.3571  -15.7953 C   0  0  0  0  0  0  0  0  0  0  0  0
   26.7361  -16.9881  -14.8836 C   0  0  0  0  0  0  0  0  0  0  0  0
   26.2817  -15.6783  -14.8696 C   0  0  0  0  0  0  0  0  0  0  0  0
   24.4195  -11.7764  -16.3215 C   0  0  0  0  0  0  0  0  0  0  0  0
   24.4286  -10.9919  -15.3151 O   0  0  0  0  0  0  0  0  0  0  0  0
   23.9314  -11.1752  -17.5395 N   0  0  0  0  0  0  0  0  0  0  0  0
   23.4679   -9.8248  -17.5952 C   0  0  1  0  0  0  0  0  0  0  0  0
   23.5789   -9.2703  -18.9989 C   0  0  0  0  0  0  0  0  0  0  0  0
   23.1997   -7.8525  -19.0257 C   0  0  0  0  0  0  0  0  0  0  0  0
   23.7242   -7.0717  -18.1892 O   0  0  0  0  0  0  0  0  0  0  0  0
   22.0680   -9.6426  -17.1721 C   0  0  0  0  0  0  0  0  0  0  0  0
   21.0959  -10.3201  -17.5758 O   0  0  0  0  0  0  0  0  0  0  0  0
   22.2953   -7.3323  -19.9226 O   0  0  0  0  0  0  0  0  0  0  0  0
   21.8104   -8.6046  -16.2224 N   0  0  0  0  0  0  0  0  0  0  0  0
   20.4806   -8.3541  -15.6984 C   0  0  1  0  0  0  0  0  0  0  0  0
   20.0856   -9.5226  -14.7912 C   0  0  0  0  0  0  0  0  0  0  0  0
   21.1399   -9.4372  -13.3103 S   0  0  0  0  0  0  0  0  0  0  0  0
   20.4416   -7.0751  -14.9477 C   0  0  0  0  0  0  0  0  0  0  0  0
   19.2584   -6.6924  -14.3361 O   0  0  0  0  0  0  0  0  0  0  0  0
   21.4320   -6.3210  -14.8398 O   0  0  0  0  0  0  0  0  0  0  0  0
  2  1  1  6
  2 10  1  0
  3  2  1  0
  4  3  1  0
  5  4  2  0
  6  5  1  0
  7  6  2  0
  7  8  1  0
  8  9  2  0
  9  4  1  0
 10 12  1  0
 11 10  2  0
 12 13  1  0
 13 14  1  6
 14 15  1  0
 15 16  2  0
 17 13  1  0
 17 18  2  0
 19 15  1  0
 20 17  1  0
 21 20  1  0
 21 24  1  0
 21 22  1  1
 23 22  1  0
 24 25  1  0
 26 24  2  0
M  END
$$$$
