FDC.pdb
     RDKit          3D

 26 26  0  0  1  0  0  0  0  0999 V2000
   19.2338  -14.0569  -16.0954 N   0  0  0  0  0  0  0  0  0  0  0  0
   19.4883  -12.9505  -17.0167 C   0  0  1  0  0  0  0  0  0  0  0  0
   18.5958  -13.0448  -18.2063 C   0  0  0  0  0  0  0  0  0  0  0  0
   18.7942  -14.2076  -19.0627 C   0  0  0  0  0  0  0  0  0  0  0  0
   19.8932  -14.3507  -19.8733 C   0  0  0  0  0  0  0  0  0  0  0  0
   20.0292  -15.4733  -20.6643 C   0  0  0  0  0  0  0  0  0  0  0  0
   19.0756  -16.4797  -20.6680 C   0  0  0  0  0  0  0  0  0  0  0  0
   17.9688  -16.3410  -19.8551 C   0  0  0  0  0  0  0  0  0  0  0  0
   17.8449  -15.2083  -19.0655 C   0  0  0  0  0  0  0  0  0  0  0  0
   19.4119  -11.7006  -16.2579 C   0  0  0  0  0  0  0  0  0  0  0  0
   18.4765  -11.4773  -15.4192 O   0  0  0  0  0  0  0  0  0  0  0  0
   20.3672  -10.6259  -16.3834 N   0  0  0  0  0  0  0  0  0  0  0  0
   20.2680   -9.4201  -15.6233 C   0  0  1  0  0  0  0  0  0  0  0  0
   21.6358   -8.8243  -15.3697 C   0  0  0  0  0  0  0  0  0  0  0  0
   21.5424   -7.6944  -14.4375 C   0  0  0  0  0  0  0  0  0  0  0  0
   21.4808   -6.5281  -14.9071 O   0  0  0  0  0  0  0  0  0  0  0  0
   19.4523   -8.3671  -16.2540 C   0  0  0  0  0  0  0  0  0  0  0  0
   19.5102   -8.0307  -17.4583 O   0  0  0  0  0  0  0  0  0  0  0  0
   21.5195   -7.8468  -13.0703 O   0  0  0  0  0  0  0  0  0  0  0  0
   18.5220   -7.6802  -15.4124 N   0  0  0  0  0  0  0  0  0  0  0  0
   17.7076   -6.5830  -15.9010 C   0  0  1  0  0  0  0  0  0  0  0  0
   16.2477   -6.8554  -15.5283 C   0  0  0  0  0  0  0  0  0  0  0  0
   15.2788   -5.4035  -16.0431 S   0  0  0  0  0  0  0  0  0  0  0  0
   18.1604   -5.2928  -15.3255 C   0  0  0  0  0  0  0  0  0  0  0  0
   18.1132   -4.1538  -16.1135 O   0  0  0  0  0  0  0  0  0  0  0  0
   18.5854   -5.1834  -14.1557 O   0  0  0  0  0  0  0  0  0  0  0  0
  2  1  1  1
  2 10  1  0
  3  2  1  0
  4  3  1  0
  5  4  2  0
  6  5  1  0
  7  6  2  0
  7  8  1  0
  8  9  2  0
  9  4  1  0
 10 12  1  0
 11 10  2  0
 12 13  1  0
 13 14  1  6
 14 15  1  0
 15 16  2  0
 17 13  1  0
 17 18  2  0
 19 15  1  0
 20 17  1  0
 21 20  1  0
 21 24  1  0
 21 22  1  1
 23 22  1  0
 24 25  1  0
 26 24  2  0
M  END
$$$$
