FDC.pdb
     RDKit          3D

 26 26  0  0  1  0  0  0  0  0999 V2000
   24.6688   -7.9799  -15.6750 N   0  0  0  0  0  0  0  0  0  0  0  0
   23.9243   -9.2195  -15.8915 C   0  0  1  0  0  0  0  0  0  0  0  0
   24.5879  -10.3566  -15.1937 C   0  0  0  0  0  0  0  0  0  0  0  0
   25.8229  -10.8427  -15.7967 C   0  0  0  0  0  0  0  0  0  0  0  0
   25.8466  -11.5197  -16.9910 C   0  0  0  0  0  0  0  0  0  0  0  0
   27.0455  -11.9578  -17.5153 C   0  0  0  0  0  0  0  0  0  0  0  0
   28.2489  -11.7331  -16.8644 C   0  0  0  0  0  0  0  0  0  0  0  0
   28.2309  -11.0531  -15.6635 C   0  0  0  0  0  0  0  0  0  0  0  0
   27.0194  -10.6185  -15.1482 C   0  0  0  0  0  0  0  0  0  0  0  0
   22.5255   -8.9781  -15.5327 C   0  0  0  0  0  0  0  0  0  0  0  0
   22.1861   -8.0416  -14.7353 O   0  0  0  0  0  0  0  0  0  0  0  0
   21.4214   -9.7592  -16.0368 N   0  0  0  0  0  0  0  0  0  0  0  0
   20.0596   -9.4336  -15.7522 C   0  0  1  0  0  0  0  0  0  0  0  0
   19.7222   -8.0400  -16.2360 C   0  0  0  0  0  0  0  0  0  0  0  0
   19.7667   -7.0824  -15.1245 C   0  0  0  0  0  0  0  0  0  0  0  0
   19.4727   -7.4853  -13.9687 O   0  0  0  0  0  0  0  0  0  0  0  0
   19.0747  -10.3476  -16.3578 C   0  0  0  0  0  0  0  0  0  0  0  0
   19.0045  -10.6325  -17.5747 O   0  0  0  0  0  0  0  0  0  0  0  0
   20.1143   -5.7607  -15.2833 O   0  0  0  0  0  0  0  0  0  0  0  0
   18.1268  -10.9527  -15.4742 N   0  0  0  0  0  0  0  0  0  0  0  0
   17.1014  -11.8618  -15.9517 C   0  0  1  0  0  0  0  0  0  0  0  0
   16.4512  -12.5417  -14.7438 C   0  0  0  0  0  0  0  0  0  0  0  0
   17.6786  -13.6886  -14.0438 S   0  0  0  0  0  0  0  0  0  0  0  0
   16.0841  -11.1363  -16.7515 C   0  0  0  0  0  0  0  0  0  0  0  0
   15.1694  -11.8662  -17.4938 O   0  0  0  0  0  0  0  0  0  0  0  0
   16.0123   -9.8894  -16.7881 O   0  0  0  0  0  0  0  0  0  0  0  0
  2  1  1  1
  2 10  1  0
  3  2  1  0
  4  3  1  0
  5  4  2  0
  6  5  1  0
  7  6  2  0
  7  8  1  0
  8  9  2  0
  9  4  1  0
 10 12  1  0
 11 10  2  0
 12 13  1  0
 13 14  1  6
 14 15  1  0
 15 16  2  0
 17 13  1  0
 17 18  2  0
 19 15  1  0
 20 17  1  0
 21 20  1  0
 21 24  1  0
 21 22  1  1
 23 22  1  0
 24 25  1  0
 26 24  2  0
M  END
$$$$
