FDC.pdb
     RDKit          3D

 26 26  0  0  1  0  0  0  0  0999 V2000
   23.7381   -9.0338  -18.3789 N   0  0  0  0  0  0  0  0  0  0  0  0
   23.2097   -8.7009  -17.0569 C   0  0  1  0  0  0  0  0  0  0  0  0
   24.2565   -8.0416  -16.2262 C   0  0  0  0  0  0  0  0  0  0  0  0
   25.4811   -8.8048  -16.0183 C   0  0  0  0  0  0  0  0  0  0  0  0
   26.6420   -8.5417  -16.7025 C   0  0  0  0  0  0  0  0  0  0  0  0
   27.7722   -9.2972  -16.4657 C   0  0  0  0  0  0  0  0  0  0  0  0
   27.7744  -10.3322  -15.5431 C   0  0  0  0  0  0  0  0  0  0  0  0
   26.6101  -10.6011  -14.8525 C   0  0  0  0  0  0  0  0  0  0  0  0
   25.4821   -9.8341  -15.1002 C   0  0  0  0  0  0  0  0  0  0  0  0
   21.9695   -7.9447  -17.2404 C   0  0  0  0  0  0  0  0  0  0  0  0
   21.8116   -7.1345  -18.2135 O   0  0  0  0  0  0  0  0  0  0  0  0
   20.8317   -8.0425  -16.3576 N   0  0  0  0  0  0  0  0  0  0  0  0
   19.6158   -7.3301  -16.5931 C   0  0  1  0  0  0  0  0  0  0  0  0
   18.4639   -7.9584  -15.8390 C   0  0  0  0  0  0  0  0  0  0  0  0
   18.1403   -9.2774  -16.3957 C   0  0  0  0  0  0  0  0  0  0  0  0
   17.7849  -10.1937  -15.6092 O   0  0  0  0  0  0  0  0  0  0  0  0
   19.6569   -5.9087  -16.2057 C   0  0  0  0  0  0  0  0  0  0  0  0
   20.3117   -5.4383  -15.2482 O   0  0  0  0  0  0  0  0  0  0  0  0
   18.2070   -9.5639  -17.7398 O   0  0  0  0  0  0  0  0  0  0  0  0
   18.8823   -5.0018  -16.9950 N   0  0  0  0  0  0  0  0  0  0  0  0
   18.9231   -3.5672  -16.7805 C   0  0  1  0  0  0  0  0  0  0  0  0
   18.7772   -2.8671  -18.1343 C   0  0  0  0  0  0  0  0  0  0  0  0
   18.8319   -1.0747  -17.8243 S   0  0  0  0  0  0  0  0  0  0  0  0
   17.8449   -3.1413  -15.8546 C   0  0  0  0  0  0  0  0  0  0  0  0
   18.1686   -2.3376  -14.7731 O   0  0  0  0  0  0  0  0  0  0  0  0
   16.6503   -3.4752  -16.0046 O   0  0  0  0  0  0  0  0  0  0  0  0
  2  1  1  6
  2 10  1  0
  3  2  1  0
  4  3  1  0
  5  4  2  0
  6  5  1  0
  7  6  2  0
  7  8  1  0
  8  9  2  0
  9  4  1  0
 10 12  1  0
 11 10  2  0
 12 13  1  0
 13 14  1  1
 14 15  1  0
 15 16  2  0
 17 13  1  0
 17 18  2  0
 19 15  1  0
 20 17  1  0
 21 20  1  0
 21 24  1  0
 21 22  1  6
 23 22  1  0
 24 25  1  0
 26 24  2  0
M  END
$$$$
