FDC.pdb
     RDKit          3D

 26 26  0  0  1  0  0  0  0  0999 V2000
   26.7966  -18.3881   -8.4492 N   0  0  0  0  0  0  0  0  0  0  0  0
   26.6681  -19.7517   -8.9607 C   0  0  1  0  0  0  0  0  0  0  0  0
   26.5699  -20.7248   -7.8365 C   0  0  0  0  0  0  0  0  0  0  0  0
   27.6256  -20.6509   -6.8340 C   0  0  0  0  0  0  0  0  0  0  0  0
   28.8835  -21.1590   -7.0453 C   0  0  0  0  0  0  0  0  0  0  0  0
   29.8447  -21.0615   -6.0598 C   0  0  0  0  0  0  0  0  0  0  0  0
   29.5774  -20.4565   -4.8413 C   0  0  0  0  0  0  0  0  0  0  0  0
   28.3146  -19.9440   -4.6235 C   0  0  0  0  0  0  0  0  0  0  0  0
   27.3586  -20.0488   -5.6221 C   0  0  0  0  0  0  0  0  0  0  0  0
   25.5652  -19.7739   -9.9234 C   0  0  0  0  0  0  0  0  0  0  0  0
   24.4888  -19.1163   -9.7306 O   0  0  0  0  0  0  0  0  0  0  0  0
   25.5904  -20.5250  -11.1557 N   0  0  0  0  0  0  0  0  0  0  0  0
   24.5932  -20.3712  -12.1673 C   0  0  1  0  0  0  0  0  0  0  0  0
   25.1918  -20.5294  -13.5481 C   0  0  0  0  0  0  0  0  0  0  0  0
   24.1899  -20.2418  -14.5816 C   0  0  0  0  0  0  0  0  0  0  0  0
   23.7555  -19.0653  -14.6900 O   0  0  0  0  0  0  0  0  0  0  0  0
   23.4758  -21.3275  -12.0725 C   0  0  0  0  0  0  0  0  0  0  0  0
   23.5932  -22.5675  -11.9484 O   0  0  0  0  0  0  0  0  0  0  0  0
   23.6991  -21.1978  -15.4407 O   0  0  0  0  0  0  0  0  0  0  0  0
   22.1541  -20.7837  -12.1278 N   0  0  0  0  0  0  0  0  0  0  0  0
   20.9744  -21.6286  -12.1329 C   0  0  1  0  0  0  0  0  0  0  0  0
   19.7903  -20.8165  -11.6010 C   0  0  0  0  0  0  0  0  0  0  0  0
   20.2053  -20.3037   -9.9050 S   0  0  0  0  0  0  0  0  0  0  0  0
   20.6903  -22.1299  -13.5000 C   0  0  0  0  0  0  0  0  0  0  0  0
   20.4006  -23.4738  -13.6746 O   0  0  0  0  0  0  0  0  0  0  0  0
   20.7001  -21.3928  -14.5088 O   0  0  0  0  0  0  0  0  0  0  0  0
  2  1  1  1
  2 10  1  0
  3  2  1  0
  4  3  1  0
  5  4  2  0
  6  5  1  0
  7  6  2  0
  7  8  1  0
  8  9  2  0
  9  4  1  0
 10 12  1  0
 11 10  2  0
 12 13  1  0
 13 14  1  6
 14 15  1  0
 15 16  2  0
 17 13  1  0
 17 18  2  0
 19 15  1  0
 20 17  1  0
 21 20  1  0
 21 24  1  0
 21 22  1  6
 23 22  1  0
 24 25  1  0
 26 24  2  0
M  END
$$$$
