FDC.pdb
     RDKit          3D

 26 26  0  0  1  0  0  0  0  0999 V2000
   21.3093   -8.4219  -13.7435 N   0  0  0  0  0  0  0  0  0  0  0  0
   20.0784   -7.9913  -14.4046 C   0  0  1  0  0  0  0  0  0  0  0  0
   19.3380   -9.1651  -14.9471 C   0  0  0  0  0  0  0  0  0  0  0  0
   19.9131   -9.7912  -16.1312 C   0  0  0  0  0  0  0  0  0  0  0  0
   20.6056  -10.9757  -16.0795 C   0  0  0  0  0  0  0  0  0  0  0  0
   21.1293  -11.5229  -17.2330 C   0  0  0  0  0  0  0  0  0  0  0  0
   20.9769  -10.9052  -18.4648 C   0  0  0  0  0  0  0  0  0  0  0  0
   20.2817   -9.7143  -18.5226 C   0  0  0  0  0  0  0  0  0  0  0  0
   19.7608   -9.1757  -17.3562 C   0  0  0  0  0  0  0  0  0  0  0  0
   19.3350   -7.1419  -13.4721 C   0  0  0  0  0  0  0  0  0  0  0  0
   19.4277   -7.2868  -12.2077 O   0  0  0  0  0  0  0  0  0  0  0  0
   18.4463   -6.0823  -13.8856 N   0  0  0  0  0  0  0  0  0  0  0  0
   17.7835   -5.2295  -12.9502 C   0  0  1  0  0  0  0  0  0  0  0  0
   17.1776   -4.0293  -13.6448 C   0  0  0  0  0  0  0  0  0  0  0  0
   16.6623   -3.0691  -12.6615 C   0  0  0  0  0  0  0  0  0  0  0  0
   15.4361   -2.7850  -12.6807 O   0  0  0  0  0  0  0  0  0  0  0  0
   16.6985   -5.8801  -12.1943 C   0  0  0  0  0  0  0  0  0  0  0  0
   15.8505   -6.6648  -12.6760 O   0  0  0  0  0  0  0  0  0  0  0  0
   17.4558   -2.4608  -11.7164 O   0  0  0  0  0  0  0  0  0  0  0  0
   16.6171   -5.5839  -10.7974 N   0  0  0  0  0  0  0  0  0  0  0  0
   15.6698   -6.2509   -9.9236 C   0  0  1  0  0  0  0  0  0  0  0  0
   16.3777   -6.5985   -8.6113 C   0  0  0  0  0  0  0  0  0  0  0  0
   15.1649   -7.4451   -7.5510 S   0  0  0  0  0  0  0  0  0  0  0  0
   14.4907   -5.3878   -9.6670 C   0  0  0  0  0  0  0  0  0  0  0  0
   13.2688   -5.9843   -9.3994 O   0  0  0  0  0  0  0  0  0  0  0  0
   14.5473   -4.1397   -9.6809 O   0  0  0  0  0  0  0  0  0  0  0  0
  2  1  1  1
  2 10  1  0
  3  2  1  0
  4  3  1  0
  5  4  2  0
  6  5  1  0
  7  6  2  0
  7  8  1  0
  8  9  2  0
  9  4  1  0
 10 12  1  0
 11 10  2  0
 12 13  1  0
 13 14  1  6
 14 15  1  0
 15 16  2  0
 17 13  1  0
 17 18  2  0
 19 15  1  0
 20 17  1  0
 21 20  1  0
 21 24  1  0
 21 22  1  1
 23 22  1  0
 24 25  1  0
 26 24  2  0
M  END
$$$$
