FDC.pdb
     RDKit          3D

 26 26  0  0  1  0  0  0  0  0999 V2000
   16.3003  -13.7255    7.0213 N   0  0  0  0  0  0  0  0  0  0  0  0
   17.0687  -14.8683    6.5304 C   0  0  1  0  0  0  0  0  0  0  0  0
   18.4552  -14.4529    6.1763 C   0  0  0  0  0  0  0  0  0  0  0  0
   18.6017  -13.7169    4.9265 C   0  0  0  0  0  0  0  0  0  0  0  0
   19.0085  -12.4063    4.8830 C   0  0  0  0  0  0  0  0  0  0  0  0
   19.1294  -11.7583    3.6706 C   0  0  0  0  0  0  0  0  0  0  0  0
   18.8486  -12.3983    2.4733 C   0  0  0  0  0  0  0  0  0  0  0  0
   18.4392  -13.7158    2.5111 C   0  0  0  0  0  0  0  0  0  0  0  0
   18.3221  -14.3547    3.7359 C   0  0  0  0  0  0  0  0  0  0  0  0
   16.9563  -15.9475    7.5135 C   0  0  0  0  0  0  0  0  0  0  0  0
   16.7557  -15.7133    8.7517 O   0  0  0  0  0  0  0  0  0  0  0  0
   17.0587  -17.3487    7.1824 N   0  0  0  0  0  0  0  0  0  0  0  0
   17.1165  -18.3695    8.1804 C   0  0  1  0  0  0  0  0  0  0  0  0
   16.9383  -19.7407    7.5653 C   0  0  0  0  0  0  0  0  0  0  0  0
   15.5421  -19.9489    7.1629 C   0  0  0  0  0  0  0  0  0  0  0  0
   15.2662  -20.9333    6.4285 O   0  0  0  0  0  0  0  0  0  0  0  0
   18.3755  -18.4036    8.9457 C   0  0  0  0  0  0  0  0  0  0  0  0
   19.5187  -18.5334    8.4527 O   0  0  0  0  0  0  0  0  0  0  0  0
   14.5158  -19.1180    7.5493 O   0  0  0  0  0  0  0  0  0  0  0  0
   18.2710  -18.2771   10.3665 N   0  0  0  0  0  0  0  0  0  0  0  0
   19.4390  -18.2880   11.2276 C   0  0  1  0  0  0  0  0  0  0  0  0
   19.2609  -17.2148   12.3050 C   0  0  0  0  0  0  0  0  0  0  0  0
   19.6772  -15.6137   11.5468 S   0  0  0  0  0  0  0  0  0  0  0  0
   19.6249  -19.6230   11.8475 C   0  0  0  0  0  0  0  0  0  0  0  0
   20.7032  -19.8246   12.6944 O   0  0  0  0  0  0  0  0  0  0  0  0
   18.8501  -20.5811   11.6408 O   0  0  0  0  0  0  0  0  0  0  0  0
  2  1  1  1
  2 10  1  0
  3  2  1  0
  4  3  1  0
  5  4  2  0
  6  5  1  0
  7  6  2  0
  7  8  1  0
  8  9  2  0
  9  4  1  0
 10 12  1  0
 11 10  2  0
 12 13  1  0
 13 14  1  6
 14 15  1  0
 15 16  2  0
 17 13  1  0
 17 18  2  0
 19 15  1  0
 20 17  1  0
 21 20  1  0
 21 24  1  0
 21 22  1  1
 23 22  1  0
 24 25  1  0
 26 24  2  0
M  END
$$$$
