FDC.pdb
     RDKit          3D

 26 26  0  0  1  0  0  0  0  0999 V2000
   25.0807  -34.6289   -4.7036 N   0  0  0  0  0  0  0  0  0  0  0  0
   26.4361  -34.1542   -4.4290 C   0  0  1  0  0  0  0  0  0  0  0  0
   26.5793  -32.7245   -4.8237 C   0  0  0  0  0  0  0  0  0  0  0  0
   26.4843  -32.4435   -6.2509 C   0  0  0  0  0  0  0  0  0  0  0  0
   27.5287  -32.6528   -7.1173 C   0  0  0  0  0  0  0  0  0  0  0  0
   27.3829  -32.3684   -8.4598 C   0  0  0  0  0  0  0  0  0  0  0  0
   26.1952  -31.8692   -8.9721 C   0  0  0  0  0  0  0  0  0  0  0  0
   25.1421  -31.6567   -8.1057 C   0  0  0  0  0  0  0  0  0  0  0  0
   25.3023  -31.9468   -6.7595 C   0  0  0  0  0  0  0  0  0  0  0  0
   26.7534  -34.4671   -3.0343 C   0  0  0  0  0  0  0  0  0  0  0  0
   25.8825  -34.3700   -2.1067 O   0  0  0  0  0  0  0  0  0  0  0  0
   28.0532  -34.9064   -2.5861 N   0  0  0  0  0  0  0  0  0  0  0  0
   28.3537  -35.1271   -1.2068 C   0  0  1  0  0  0  0  0  0  0  0  0
   29.7264  -35.7424   -1.0421 C   0  0  0  0  0  0  0  0  0  0  0  0
   29.9696  -36.0944    0.3620 C   0  0  0  0  0  0  0  0  0  0  0  0
   30.8664  -35.4757    0.9926 O   0  0  0  0  0  0  0  0  0  0  0  0
   28.3265  -33.9110   -0.3746 C   0  0  0  0  0  0  0  0  0  0  0  0
   28.9847  -32.8692   -0.5941 O   0  0  0  0  0  0  0  0  0  0  0  0
   29.2642  -37.0714    1.0259 O   0  0  0  0  0  0  0  0  0  0  0  0
   27.4754  -33.9340    0.7746 N   0  0  0  0  0  0  0  0  0  0  0  0
   27.3074  -32.7744    1.6306 C   0  0  1  0  0  0  0  0  0  0  0  0
   25.8145  -32.5912    1.9166 C   0  0  0  0  0  0  0  0  0  0  0  0
   25.2144  -34.1368    2.6669 S   0  0  0  0  0  0  0  0  0  0  0  0
   28.0641  -32.9386    2.8961 C   0  0  0  0  0  0  0  0  0  0  0  0
   28.1818  -31.8554    3.7523 O   0  0  0  0  0  0  0  0  0  0  0  0
   28.6043  -34.0150    3.2290 O   0  0  0  0  0  0  0  0  0  0  0  0
  2  1  1  1
  2 10  1  0
  3  2  1  0
  4  3  1  0
  5  4  2  0
  6  5  1  0
  7  6  2  0
  7  8  1  0
  8  9  2  0
  9  4  1  0
 10 12  1  0
 11 10  2  0
 12 13  1  0
 13 14  1  6
 14 15  1  0
 15 16  2  0
 17 13  1  0
 17 18  2  0
 19 15  1  0
 20 17  1  0
 21 20  1  0
 21 24  1  0
 21 22  1  1
 23 22  1  0
 24 25  1  0
 26 24  2  0
M  END
$$$$
