FDC.pdb
     RDKit          3D

 26 26  0  0  1  0  0  0  0  0999 V2000
   27.8700  -21.4997   -9.9014 N   0  0  0  0  0  0  0  0  0  0  0  0
   26.5799  -20.8232   -9.7763 C   0  0  1  0  0  0  0  0  0  0  0  0
   26.7463  -19.4980   -9.1156 C   0  0  0  0  0  0  0  0  0  0  0  0
   27.0926  -19.5294   -7.6999 C   0  0  0  0  0  0  0  0  0  0  0  0
   28.0975  -18.7606   -7.1667 C   0  0  0  0  0  0  0  0  0  0  0  0
   28.3826  -18.8311   -5.8183 C   0  0  0  0  0  0  0  0  0  0  0  0
   27.6753  -19.6677   -4.9687 C   0  0  0  0  0  0  0  0  0  0  0  0
   26.6641  -20.4428   -5.4993 C   0  0  0  0  0  0  0  0  0  0  0  0
   26.3881  -20.3621   -6.8555 C   0  0  0  0  0  0  0  0  0  0  0  0
   25.9469  -20.8041  -11.0964 C   0  0  0  0  0  0  0  0  0  0  0  0
   26.6267  -20.9054  -12.1716 O   0  0  0  0  0  0  0  0  0  0  0  0
   24.5244  -20.6725  -11.3026 N   0  0  0  0  0  0  0  0  0  0  0  0
   23.9348  -20.6810  -12.6040 C   0  0  1  0  0  0  0  0  0  0  0  0
   22.4241  -20.6742  -12.5155 C   0  0  0  0  0  0  0  0  0  0  0  0
   21.8281  -20.8888  -13.8396 C   0  0  0  0  0  0  0  0  0  0  0  0
   21.0085  -20.0396  -14.2774 O   0  0  0  0  0  0  0  0  0  0  0  0
   24.3192  -19.5409  -13.4551 C   0  0  0  0  0  0  0  0  0  0  0  0
   24.0080  -18.3462  -13.2485 O   0  0  0  0  0  0  0  0  0  0  0  0
   22.1209  -21.9769  -14.6292 O   0  0  0  0  0  0  0  0  0  0  0  0
   25.1126  -19.8347  -14.6083 N   0  0  0  0  0  0  0  0  0  0  0  0
   25.5145  -18.8048  -15.5483 C   0  0  1  0  0  0  0  0  0  0  0  0
   27.0424  -18.7065  -15.5406 C   0  0  0  0  0  0  0  0  0  0  0  0
   27.5205  -17.8414  -14.0125 S   0  0  0  0  0  0  0  0  0  0  0  0
   25.0189  -19.1129  -16.9123 C   0  0  0  0  0  0  0  0  0  0  0  0
   24.2078  -20.2214  -17.0964 O   0  0  0  0  0  0  0  0  0  0  0  0
   25.3001  -18.4156  -17.9101 O   0  0  0  0  0  0  0  0  0  0  0  0
  2  1  1  6
  2 10  1  0
  3  2  1  0
  4  3  1  0
  5  4  2  0
  6  5  1  0
  7  6  2  0
  7  8  1  0
  8  9  2  0
  9  4  1  0
 10 12  1  0
 11 10  2  0
 12 13  1  0
 13 14  1  1
 14 15  1  0
 15 16  2  0
 17 13  1  0
 17 18  2  0
 19 15  1  0
 20 17  1  0
 21 20  1  0
 21 24  1  0
 21 22  1  6
 23 22  1  0
 24 25  1  0
 26 24  2  0
M  END
$$$$
