FDC.pdb
     RDKit          3D

 26 26  0  0  1  0  0  0  0  0999 V2000
   22.7994  -10.1820  -13.6440 N   0  0  0  0  0  0  0  0  0  0  0  0
   22.3726   -8.8638  -14.1108 C   0  0  1  0  0  0  0  0  0  0  0  0
   22.5314   -8.7557  -15.5884 C   0  0  0  0  0  0  0  0  0  0  0  0
   23.8998   -8.8032  -16.0887 C   0  0  0  0  0  0  0  0  0  0  0  0
   24.5353   -9.9813  -16.3944 C   0  0  0  0  0  0  0  0  0  0  0  0
   25.8328   -9.9669  -16.8644 C   0  0  0  0  0  0  0  0  0  0  0  0
   26.5286   -8.7808  -17.0412 C   0  0  0  0  0  0  0  0  0  0  0  0
   25.8946   -7.5936  -16.7354 C   0  0  0  0  0  0  0  0  0  0  0  0
   24.5911   -7.6226  -16.2643 C   0  0  0  0  0  0  0  0  0  0  0  0
   21.0266   -8.6121  -13.5925 C   0  0  0  0  0  0  0  0  0  0  0  0
   20.0314   -9.3411  -13.9186 O   0  0  0  0  0  0  0  0  0  0  0  0
   20.7046   -7.5389  -12.6826 N   0  0  0  0  0  0  0  0  0  0  0  0
   19.3645   -7.2549  -12.2765 C   0  0  1  0  0  0  0  0  0  0  0  0
   19.3223   -6.7749  -10.8419 C   0  0  0  0  0  0  0  0  0  0  0  0
   17.9355   -6.6727  -10.3720 C   0  0  0  0  0  0  0  0  0  0  0  0
   17.0066   -6.9946  -11.1583 O   0  0  0  0  0  0  0  0  0  0  0  0
   18.6844   -6.2319  -13.0907 C   0  0  0  0  0  0  0  0  0  0  0  0
   19.1675   -5.1221  -13.4097 O   0  0  0  0  0  0  0  0  0  0  0  0
   17.5985   -6.2402   -9.1101 O   0  0  0  0  0  0  0  0  0  0  0  0
   17.3656   -6.5430  -13.5486 N   0  0  0  0  0  0  0  0  0  0  0  0
   16.6129   -5.6385  -14.3977 C   0  0  1  0  0  0  0  0  0  0  0  0
   15.8217   -6.4674  -15.4132 C   0  0  0  0  0  0  0  0  0  0  0  0
   14.9202   -5.2997  -16.4787 S   0  0  0  0  0  0  0  0  0  0  0  0
   15.6994   -4.7938  -13.5898 C   0  0  0  0  0  0  0  0  0  0  0  0
   15.6851   -3.4250  -13.8059 O   0  0  0  0  0  0  0  0  0  0  0  0
   14.9368   -5.2611  -12.7173 O   0  0  0  0  0  0  0  0  0  0  0  0
  2  1  1  6
  2 10  1  0
  3  2  1  0
  4  3  1  0
  5  4  2  0
  6  5  1  0
  7  6  2  0
  7  8  1  0
  8  9  2  0
  9  4  1  0
 10 12  1  0
 11 10  2  0
 12 13  1  0
 13 14  1  1
 14 15  1  0
 15 16  2  0
 17 13  1  0
 17 18  2  0
 19 15  1  0
 20 17  1  0
 21 20  1  0
 21 24  1  0
 21 22  1  6
 23 22  1  0
 24 25  1  0
 26 24  2  0
M  END
$$$$
