SAR.pdb
     RDKit          3D

 23 22  0  0  1  0  0  0  0  0999 V2000
    6.1091  -16.4806   21.1146 O   0  0  0  0  0  0  0  0  0  0  0  0
    5.4932  -15.3208   20.7040 C   0  0  0  0  0  0  0  0  0  0  0  0
    6.3934  -14.1232   20.6639 C   0  0  2  0  0  0  0  0  0  0  0  0
    7.2194  -14.2298   19.4675 N   0  0  0  0  0  0  0  0  0  0  0  0
    7.2361  -14.1075   21.8888 C   0  0  0  0  0  0  0  0  0  0  0  0
    8.4204  -14.5158   21.8494 O   0  0  0  0  0  0  0  0  0  0  0  0
    6.8758  -12.8299   25.4508 C   0  0  0  0  0  0  0  0  0  0  0  0
    7.5590  -13.5157   24.3187 C   0  0  2  0  0  0  0  0  0  0  0  0
    6.7523  -13.6387   23.1384 N   0  0  0  0  0  0  0  0  0  0  0  0
    8.0784  -14.8618   24.7527 C   0  0  0  0  0  0  0  0  0  0  0  0
    7.3095  -15.8561   24.7745 O   0  0  0  0  0  0  0  0  0  0  0  0
   11.7013  -20.4792   23.2140 N   0  0  0  0  0  0  0  0  0  0  0  0
   11.4751  -20.0009   21.8883 C   0  0  0  0  0  0  0  0  0  0  0  0
   11.0730  -20.7931   20.9223 N   0  0  0  0  0  0  0  0  0  0  0  0
   11.6747  -18.6327   21.5383 N   0  0  0  0  0  0  0  0  0  0  0  0
   11.7804  -17.6008   22.5180 C   0  0  0  0  0  0  0  0  0  0  0  0
   11.2011  -17.9150   23.8584 C   0  0  0  0  0  0  0  0  0  0  0  0
   11.2233  -16.6207   24.6656 C   0  0  0  0  0  0  0  0  0  0  0  0
    9.9234  -16.3777   25.3674 C   0  0  2  0  0  0  0  0  0  0  0  0
    9.4319  -15.0186   25.1394 N   0  0  0  0  0  0  0  0  0  0  0  0
   10.1650  -16.4838   26.8487 C   0  0  0  0  0  0  0  0  0  0  0  0
   10.1835  -17.7296   27.4544 O   0  0  0  0  0  0  0  0  0  0  0  0
   10.3543  -15.4799   27.5794 O   0  0  0  0  0  0  0  0  0  0  0  0
  1  2  1  0
  3  4  1  6
  3  5  1  0
  3  2  1  0
  5  9  1  0
  5  6  2  0
  8  7  1  1
  8 10  1  0
  9  8  1  0
 10 20  1  0
 10 11  2  0
 13 12  1  0
 13 14  2  0
 15 16  1  0
 15 13  1  0
 16 17  1  0
 17 18  1  0
 19 18  1  6
 20 19  1  0
 21 19  1  0
 21 22  1  0
 23 21  2  0
M  END
$$$$
