SAR.pdb
     RDKit          3D

 23 22  0  0  1  0  0  0  0  0999 V2000
   12.2836  -18.8177   18.1718 O   0  0  0  0  0  0  0  0  0  0  0  0
   12.4241  -20.0742   17.6292 C   0  0  0  0  0  0  0  0  0  0  0  0
   11.1804  -20.9093   17.6724 C   0  0  2  0  0  0  0  0  0  0  0  0
   10.0964  -20.1193   17.1014 N   0  0  0  0  0  0  0  0  0  0  0  0
   10.8855  -21.2691   19.0846 C   0  0  0  0  0  0  0  0  0  0  0  0
    9.9408  -20.7171   19.6960 O   0  0  0  0  0  0  0  0  0  0  0  0
   12.1624  -23.8455   21.5732 C   0  0  0  0  0  0  0  0  0  0  0  0
   11.2936  -22.7333   21.0966 C   0  0  2  0  0  0  0  0  0  0  0  0
   11.6427  -22.2359   19.7967 N   0  0  0  0  0  0  0  0  0  0  0  0
   11.2659  -21.6152   22.1061 C   0  0  0  0  0  0  0  0  0  0  0  0
   12.0264  -20.6238   21.9685 O   0  0  0  0  0  0  0  0  0  0  0  0
    5.0014  -21.5001   22.0657 N   0  0  0  0  0  0  0  0  0  0  0  0
    4.8943  -22.1180   23.3479 C   0  0  0  0  0  0  0  0  0  0  0  0
    4.2641  -23.2561   23.5211 N   0  0  0  0  0  0  0  0  0  0  0  0
    5.4666  -21.5315   24.5153 N   0  0  0  0  0  0  0  0  0  0  0  0
    6.5423  -20.5963   24.4519 C   0  0  0  0  0  0  0  0  0  0  0  0
    7.9122  -21.1857   24.3690 C   0  0  0  0  0  0  0  0  0  0  0  0
    8.8885  -20.0215   24.2325 C   0  0  0  0  0  0  0  0  0  0  0  0
   10.3012  -20.4923   24.0779 C   0  0  2  0  0  0  0  0  0  0  0  0
   10.3868  -21.6709   23.2153 N   0  0  0  0  0  0  0  0  0  0  0  0
   10.7967  -20.9348   25.4280 C   0  0  0  0  0  0  0  0  0  0  0  0
   10.9554  -20.0031   26.4410 O   0  0  0  0  0  0  0  0  0  0  0  0
   11.0800  -22.1303   25.6889 O   0  0  0  0  0  0  0  0  0  0  0  0
  1  2  1  0
  3  4  1  1
  3  5  1  0
  3  2  1  0
  5  9  1  0
  5  6  2  0
  8  7  1  1
  8 10  1  0
  9  8  1  0
 10 20  1  0
 10 11  2  0
 13 12  1  0
 13 14  2  0
 15 16  1  0
 15 13  1  0
 16 17  1  0
 17 18  1  0
 19 18  1  1
 20 19  1  0
 21 19  1  0
 21 22  1  0
 23 21  2  0
M  END
$$$$
