SAR.pdb
     RDKit          3D

 23 22  0  0  1  0  0  0  0  0999 V2000
    5.7068  -18.2806   20.5620 O   0  0  0  0  0  0  0  0  0  0  0  0
    5.5204  -17.6493   19.3538 C   0  0  0  0  0  0  0  0  0  0  0  0
    6.7804  -17.1439   18.7190 C   0  0  2  0  0  0  0  0  0  0  0  0
    7.5608  -18.3019   18.3006 N   0  0  0  0  0  0  0  0  0  0  0  0
    7.5318  -16.3302   19.7111 C   0  0  0  0  0  0  0  0  0  0  0  0
    8.3565  -16.8734   20.4828 O   0  0  0  0  0  0  0  0  0  0  0  0
    7.7563  -12.6594   20.6781 C   0  0  0  0  0  0  0  0  0  0  0  0
    7.9738  -14.1232   20.8478 C   0  0  2  0  0  0  0  0  0  0  0  0
    7.3570  -14.9266   19.8314 N   0  0  0  0  0  0  0  0  0  0  0  0
    7.5339  -14.5669   22.2188 C   0  0  0  0  0  0  0  0  0  0  0  0
    6.3366  -14.8917   22.4215 O   0  0  0  0  0  0  0  0  0  0  0  0
    6.8967  -21.7253   25.2545 N   0  0  0  0  0  0  0  0  0  0  0  0
    6.6839  -21.0203   26.4772 C   0  0  0  0  0  0  0  0  0  0  0  0
    6.2926  -21.6292   27.5721 N   0  0  0  0  0  0  0  0  0  0  0  0
    6.8842  -19.6118   26.5778 N   0  0  0  0  0  0  0  0  0  0  0  0
    7.1790  -18.7988   25.4429 C   0  0  0  0  0  0  0  0  0  0  0  0
    7.4397  -17.3558   25.7269 C   0  0  0  0  0  0  0  0  0  0  0  0
    7.7452  -16.6886   24.3895 C   0  0  0  0  0  0  0  0  0  0  0  0
    8.0191  -15.2250   24.5450 C   0  0  2  0  0  0  0  0  0  0  0  0
    8.4615  -14.6214   23.2878 N   0  0  0  0  0  0  0  0  0  0  0  0
    9.1671  -15.0638   25.5042 C   0  0  0  0  0  0  0  0  0  0  0  0
    8.9294  -15.0779   26.8690 O   0  0  0  0  0  0  0  0  0  0  0  0
   10.3544  -14.9135   25.1230 O   0  0  0  0  0  0  0  0  0  0  0  0
  1  2  1  0
  3  4  1  1
  3  5  1  0
  3  2  1  0
  5  9  1  0
  5  6  2  0
  8  7  1  6
  8 10  1  0
  9  8  1  0
 10 20  1  0
 10 11  2  0
 13 12  1  0
 13 14  2  0
 15 16  1  0
 15 13  1  0
 16 17  1  0
 17 18  1  0
 19 18  1  6
 20 19  1  0
 21 19  1  0
 21 22  1  0
 23 21  2  0
M  END
$$$$
