SAR.pdb
     RDKit          3D

 23 22  0  0  1  0  0  0  0  0999 V2000
    7.1167  -17.7490   17.4820 O   0  0  0  0  0  0  0  0  0  0  0  0
    6.4734  -16.6827   16.8967 C   0  0  0  0  0  0  0  0  0  0  0  0
    7.3895  -15.6119   16.3865 C   0  0  2  0  0  0  0  0  0  0  0  0
    8.2179  -16.1991   15.3406 N   0  0  0  0  0  0  0  0  0  0  0  0
    8.2284  -15.1147   17.5090 C   0  0  0  0  0  0  0  0  0  0  0  0
    9.3010  -15.6923   17.8037 O   0  0  0  0  0  0  0  0  0  0  0  0
    8.0690  -12.2614   20.0208 C   0  0  0  0  0  0  0  0  0  0  0  0
    8.6220  -13.5000   19.4054 C   0  0  2  0  0  0  0  0  0  0  0  0
    7.8648  -13.9843   18.2869 N   0  0  0  0  0  0  0  0  0  0  0  0
    8.7869  -14.5780   20.4451 C   0  0  0  0  0  0  0  0  0  0  0  0
    7.9430  -15.5059   20.5292 O   0  0  0  0  0  0  0  0  0  0  0  0
   10.8754  -21.8492   19.6774 N   0  0  0  0  0  0  0  0  0  0  0  0
   10.9637  -21.8455   21.1020 C   0  0  0  0  0  0  0  0  0  0  0  0
   11.1893  -22.9416   21.7877 N   0  0  0  0  0  0  0  0  0  0  0  0
   10.8105  -20.6482   21.8617 N   0  0  0  0  0  0  0  0  0  0  0  0
   10.5876  -19.3784   21.2504 C   0  0  0  0  0  0  0  0  0  0  0  0
   10.5692  -18.2058   22.1754 C   0  0  0  0  0  0  0  0  0  0  0  0
   10.2846  -16.9730   21.3230 C   0  0  0  0  0  0  0  0  0  0  0  0
   10.1253  -15.7409   22.1585 C   0  0  2  0  0  0  0  0  0  0  0  0
    9.8894  -14.5556   21.3340 N   0  0  0  0  0  0  0  0  0  0  0  0
   11.4247  -15.4908   22.8749 C   0  0  0  0  0  0  0  0  0  0  0  0
   11.7966  -16.3090   23.9292 O   0  0  0  0  0  0  0  0  0  0  0  0
   12.2052  -14.5587   22.5597 O   0  0  0  0  0  0  0  0  0  0  0  0
  1  2  1  0
  3  4  1  6
  3  5  1  0
  3  2  1  0
  5  9  1  0
  5  6  2  0
  8  7  1  1
  8 10  1  0
  9  8  1  0
 10 20  1  0
 10 11  2  0
 13 12  1  0
 13 14  2  0
 15 16  1  0
 15 13  1  0
 16 17  1  0
 17 18  1  0
 19 18  1  6
 20 19  1  0
 21 19  1  0
 21 22  1  0
 23 21  2  0
M  END
$$$$
