SAR.pdb
     RDKit          3D

 23 22  0  0  1  0  0  0  0  0999 V2000
    5.3570  -18.4398   17.9086 O   0  0  0  0  0  0  0  0  0  0  0  0
    6.1687  -17.7521   18.7813 C   0  0  0  0  0  0  0  0  0  0  0  0
    7.1691  -16.8543   18.1185 C   0  0  2  0  0  0  0  0  0  0  0  0
    8.1508  -17.7010   17.4519 N   0  0  0  0  0  0  0  0  0  0  0  0
    7.8182  -16.0041   19.1513 C   0  0  0  0  0  0  0  0  0  0  0  0
    8.6885  -16.4854   19.9139 O   0  0  0  0  0  0  0  0  0  0  0  0
    7.5682  -12.3859   20.3022 C   0  0  0  0  0  0  0  0  0  0  0  0
    8.0396  -13.7979   20.3523 C   0  0  2  0  0  0  0  0  0  0  0  0
    7.4922  -14.6330   19.3218 N   0  0  0  0  0  0  0  0  0  0  0  0
    7.7836  -14.3922   21.7130 C   0  0  0  0  0  0  0  0  0  0  0  0
    6.6046  -14.5886   22.1024 O   0  0  0  0  0  0  0  0  0  0  0  0
    7.5677  -21.5471   26.1272 N   0  0  0  0  0  0  0  0  0  0  0  0
    6.5548  -20.8152   25.4373 C   0  0  0  0  0  0  0  0  0  0  0  0
    5.7189  -21.3964   24.6090 N   0  0  0  0  0  0  0  0  0  0  0  0
    6.3947  -19.4085   25.6091 N   0  0  0  0  0  0  0  0  0  0  0  0
    6.6914  -18.4733   24.5731 C   0  0  0  0  0  0  0  0  0  0  0  0
    8.0000  -17.7633   24.6934 C   0  0  0  0  0  0  0  0  0  0  0  0
    8.1573  -16.9078   23.4402 C   0  0  0  0  0  0  0  0  0  0  0  0
    8.5667  -15.5057   23.7687 C   0  0  2  0  0  0  0  0  0  0  0  0
    8.8644  -14.7329   22.5626 N   0  0  0  0  0  0  0  0  0  0  0  0
    9.8534  -15.5647   24.5465 C   0  0  0  0  0  0  0  0  0  0  0  0
   11.0352  -15.1531   23.9520 O   0  0  0  0  0  0  0  0  0  0  0  0
    9.9123  -15.9770   25.7314 O   0  0  0  0  0  0  0  0  0  0  0  0
  1  2  1  0
  3  4  1  1
  3  5  1  0
  3  2  1  0
  5  9  1  0
  5  6  2  0
  8  7  1  1
  8 10  1  0
  9  8  1  0
 10 20  1  0
 10 11  2  0
 13 12  1  0
 13 14  2  0
 15 16  1  0
 15 13  1  0
 16 17  1  0
 17 18  1  0
 19 18  1  6
 20 19  1  0
 21 19  1  0
 21 22  1  0
 23 21  2  0
M  END
$$$$
