SAR.pdb
     RDKit          3D

 23 22  0  0  1  0  0  0  0  0999 V2000
   13.1464  -17.1787   17.2480 O   0  0  0  0  0  0  0  0  0  0  0  0
   13.0603  -18.5124   16.9212 C   0  0  0  0  0  0  0  0  0  0  0  0
   11.6625  -19.0519   16.8873 C   0  0  2  0  0  0  0  0  0  0  0  0
   10.8912  -18.2261   15.9663 N   0  0  0  0  0  0  0  0  0  0  0  0
   11.0866  -18.9958   18.2570 C   0  0  0  0  0  0  0  0  0  0  0  0
   10.1638  -18.1911   18.5248 O   0  0  0  0  0  0  0  0  0  0  0  0
   11.4243  -21.0164   21.4538 C   0  0  0  0  0  0  0  0  0  0  0  0
   10.9501  -19.8811   20.6141 C   0  0  2  0  0  0  0  0  0  0  0  0
   11.5429  -19.8336   19.3082 N   0  0  0  0  0  0  0  0  0  0  0  0
   11.1443  -18.5731   21.3363 C   0  0  0  0  0  0  0  0  0  0  0  0
   12.1600  -17.8700   21.1032 O   0  0  0  0  0  0  0  0  0  0  0  0
    7.2261  -14.4210   18.4155 N   0  0  0  0  0  0  0  0  0  0  0  0
    7.9967  -13.3579   18.9754 C   0  0  0  0  0  0  0  0  0  0  0  0
    7.9961  -12.1515   18.4586 N   0  0  0  0  0  0  0  0  0  0  0  0
    8.8128  -13.5478   20.1296 N   0  0  0  0  0  0  0  0  0  0  0  0
    8.6738  -14.6805   20.9859 C   0  0  0  0  0  0  0  0  0  0  0  0
    9.4944  -14.6568   22.2337 C   0  0  0  0  0  0  0  0  0  0  0  0
    9.2359  -15.9735   22.9596 C   0  0  0  0  0  0  0  0  0  0  0  0
   10.4449  -16.8566   22.9622 C   0  0  2  0  0  0  0  0  0  0  0  0
   10.1886  -18.1257   22.2810 N   0  0  0  0  0  0  0  0  0  0  0  0
   10.7600  -17.2131   24.3897 C   0  0  0  0  0  0  0  0  0  0  0  0
   11.4485  -16.3131   25.1868 O   0  0  0  0  0  0  0  0  0  0  0  0
   10.4245  -18.3077   24.9060 O   0  0  0  0  0  0  0  0  0  0  0  0
  1  2  1  0
  3  4  1  6
  3  5  1  0
  3  2  1  0
  5  9  1  0
  5  6  2  0
  8  7  1  1
  8 10  1  0
  9  8  1  0
 10 20  1  0
 10 11  2  0
 13 12  1  0
 13 14  2  0
 15 16  1  0
 15 13  1  0
 16 17  1  0
 17 18  1  0
 19 18  1  1
 20 19  1  0
 21 19  1  0
 21 22  1  0
 23 21  2  0
M  END
$$$$
