SAR.pdb
     RDKit          3D

 23 22  0  0  1  0  0  0  0  0999 V2000
    8.3475  -17.3557   16.2341 O   0  0  0  0  0  0  0  0  0  0  0  0
    7.6668  -16.3187   15.6386 C   0  0  0  0  0  0  0  0  0  0  0  0
    8.3955  -15.0092   15.6569 C   0  0  2  0  0  0  0  0  0  0  0  0
    9.5579  -15.1369   14.7864 N   0  0  0  0  0  0  0  0  0  0  0  0
    8.8102  -14.7033   17.0516 C   0  0  0  0  0  0  0  0  0  0  0  0
    9.9002  -15.1317   17.4978 O   0  0  0  0  0  0  0  0  0  0  0  0
    7.3774  -12.7650   19.9954 C   0  0  0  0  0  0  0  0  0  0  0  0
    8.3464  -13.6556   19.2979 C   0  0  2  0  0  0  0  0  0  0  0  0
    8.0097  -13.9265   17.9296 N   0  0  0  0  0  0  0  0  0  0  0  0
    8.5318  -14.9386   20.0659 C   0  0  0  0  0  0  0  0  0  0  0  0
    8.3834  -16.0451   19.4882 O   0  0  0  0  0  0  0  0  0  0  0  0
   16.2625  -14.1467   21.3977 N   0  0  0  0  0  0  0  0  0  0  0  0
   16.1062  -15.5655   21.3991 C   0  0  0  0  0  0  0  0  0  0  0  0
   17.1175  -16.3769   21.1956 N   0  0  0  0  0  0  0  0  0  0  0  0
   14.8395  -16.1821   21.6214 N   0  0  0  0  0  0  0  0  0  0  0  0
   13.6561  -15.4270   21.8764 C   0  0  0  0  0  0  0  0  0  0  0  0
   12.3974  -16.2187   22.0173 C   0  0  0  0  0  0  0  0  0  0  0  0
   11.2763  -15.3812   21.4099 C   0  0  0  0  0  0  0  0  0  0  0  0
    9.9289  -15.8117   21.9003 C   0  0  2  0  0  0  0  0  0  0  0  0
    8.8727  -14.9098   21.4403 N   0  0  0  0  0  0  0  0  0  0  0  0
    9.9255  -15.7158   23.4019 C   0  0  0  0  0  0  0  0  0  0  0  0
   10.2106  -16.8379   24.1628 O   0  0  0  0  0  0  0  0  0  0  0  0
    9.6716  -14.6485   24.0135 O   0  0  0  0  0  0  0  0  0  0  0  0
  1  2  1  0
  3  4  1  6
  3  5  1  0
  3  2  1  0
  5  9  1  0
  5  6  2  0
  8  7  1  1
  8 10  1  0
  9  8  1  0
 10 20  1  0
 10 11  2  0
 13 12  1  0
 13 14  2  0
 15 16  1  0
 15 13  1  0
 16 17  1  0
 17 18  1  0
 19 18  1  6
 20 19  1  0
 21 19  1  0
 21 22  1  0
 23 21  2  0
M  END
$$$$
