SAR.pdb
     RDKit          3D

 23 22  0  0  1  0  0  0  0  0999 V2000
    7.8524  -17.4971   16.0627 O   0  0  0  0  0  0  0  0  0  0  0  0
    7.1533  -16.3717   15.6914 C   0  0  0  0  0  0  0  0  0  0  0  0
    7.9979  -15.1444   15.5291 C   0  0  2  0  0  0  0  0  0  0  0  0
    9.0497  -15.4543   14.5686 N   0  0  0  0  0  0  0  0  0  0  0  0
    8.5776  -14.7756   16.8477 C   0  0  0  0  0  0  0  0  0  0  0  0
    9.7191  -15.1775   17.1737 O   0  0  0  0  0  0  0  0  0  0  0  0
    7.5522  -12.6309   19.8149 C   0  0  0  0  0  0  0  0  0  0  0  0
    8.3884  -13.6219   19.0820 C   0  0  2  0  0  0  0  0  0  0  0  0
    7.8824  -13.9663   17.7841 N   0  0  0  0  0  0  0  0  0  0  0  0
    8.5976  -14.8577   19.9183 C   0  0  0  0  0  0  0  0  0  0  0  0
    7.8234  -15.8402   19.7943 O   0  0  0  0  0  0  0  0  0  0  0  0
   15.5175  -19.4296   22.2448 N   0  0  0  0  0  0  0  0  0  0  0  0
   14.4436  -20.1181   22.8852 C   0  0  0  0  0  0  0  0  0  0  0  0
   14.5830  -21.3323   23.3636 N   0  0  0  0  0  0  0  0  0  0  0  0
   13.1562  -19.5243   23.0405 N   0  0  0  0  0  0  0  0  0  0  0  0
   12.8230  -18.2611   22.4671 C   0  0  0  0  0  0  0  0  0  0  0  0
   11.3773  -17.8881   22.5112 C   0  0  0  0  0  0  0  0  0  0  0  0
   11.2318  -16.5839   21.7333 C   0  0  0  0  0  0  0  0  0  0  0  0
    9.8034  -16.1448   21.6413 C   0  0  2  0  0  0  0  0  0  0  0  0
    9.6636  -14.9230   20.8486 N   0  0  0  0  0  0  0  0  0  0  0  0
    9.3330  -15.7917   23.0262 C   0  0  0  0  0  0  0  0  0  0  0  0
    9.1433  -16.7939   23.9638 O   0  0  0  0  0  0  0  0  0  0  0  0
    9.0981  -14.6106   23.3830 O   0  0  0  0  0  0  0  0  0  0  0  0
  1  2  1  0
  3  4  1  6
  3  5  1  0
  3  2  1  0
  5  9  1  0
  5  6  2  0
  8  7  1  1
  8 10  1  0
  9  8  1  0
 10 20  1  0
 10 11  2  0
 13 12  1  0
 13 14  2  0
 15 16  1  0
 15 13  1  0
 16 17  1  0
 17 18  1  0
 19 18  1  1
 20 19  1  0
 21 19  1  0
 21 22  1  0
 23 21  2  0
M  END
$$$$
