SAR.pdb
     RDKit          3D

 23 22  0  0  1  0  0  0  0  0999 V2000
   16.2862  -18.1906   20.1907 O   0  0  0  0  0  0  0  0  0  0  0  0
   15.9101  -19.3126   19.4887 C   0  0  0  0  0  0  0  0  0  0  0  0
   14.4858  -19.3021   19.0226 C   0  0  2  0  0  0  0  0  0  0  0  0
   14.2887  -18.0958   18.2281 N   0  0  0  0  0  0  0  0  0  0  0  0
   13.5869  -19.3081   20.2070 C   0  0  0  0  0  0  0  0  0  0  0  0
   12.9445  -18.2788   20.5212 O   0  0  0  0  0  0  0  0  0  0  0  0
   12.3046  -21.9042   22.6638 C   0  0  0  0  0  0  0  0  0  0  0  0
   12.4975  -20.5286   22.1259 C   0  0  2  0  0  0  0  0  0  0  0  0
   13.4140  -20.4559   21.0242 N   0  0  0  0  0  0  0  0  0  0  0  0
   12.9091  -19.5845   23.2256 C   0  0  0  0  0  0  0  0  0  0  0  0
   14.0821  -19.1342   23.2626 O   0  0  0  0  0  0  0  0  0  0  0  0
   11.4253  -14.6726   29.9848 N   0  0  0  0  0  0  0  0  0  0  0  0
   10.5281  -14.2721   28.9494 C   0  0  0  0  0  0  0  0  0  0  0  0
    9.2608  -14.0248   29.1845 N   0  0  0  0  0  0  0  0  0  0  0  0
   10.9593  -14.1187   27.5986 N   0  0  0  0  0  0  0  0  0  0  0  0
   10.7555  -15.1291   26.6119 C   0  0  0  0  0  0  0  0  0  0  0  0
   11.7608  -16.2337   26.5953 C   0  0  0  0  0  0  0  0  0  0  0  0
   11.4042  -17.1402   25.4213 C   0  0  0  0  0  0  0  0  0  0  0  0
   12.4209  -18.2208   25.2210 C   0  0  2  0  0  0  0  0  0  0  0  0
   11.9821  -19.1978   24.2243 N   0  0  0  0  0  0  0  0  0  0  0  0
   12.5538  -18.9825   26.5118 C   0  0  0  0  0  0  0  0  0  0  0  0
   12.0728  -20.2789   26.5972 O   0  0  0  0  0  0  0  0  0  0  0  0
   13.0890  -18.4929   27.5371 O   0  0  0  0  0  0  0  0  0  0  0  0
  1  2  1  0
  3  4  1  1
  3  5  1  0
  3  2  1  0
  5  9  1  0
  5  6  2  0
  8  7  1  1
  8 10  1  0
  9  8  1  0
 10 20  1  0
 10 11  2  0
 13 12  1  0
 13 14  2  0
 15 16  1  0
 15 13  1  0
 16 17  1  0
 17 18  1  0
 19 18  1  1
 20 19  1  0
 21 19  1  0
 21 22  1  0
 23 21  2  0
M  END
$$$$
