SAR.pdb
     RDKit          3D

 23 22  0  0  1  0  0  0  0  0999 V2000
    7.1712  -21.1422   23.2490 O   0  0  0  0  0  0  0  0  0  0  0  0
    6.0127  -21.0809   23.9889 C   0  0  0  0  0  0  0  0  0  0  0  0
    5.1664  -19.8750   23.7142 C   0  0  2  0  0  0  0  0  0  0  0  0
    4.5739  -20.0414   22.3927 N   0  0  0  0  0  0  0  0  0  0  0  0
    6.0222  -18.6599   23.7609 C   0  0  0  0  0  0  0  0  0  0  0  0
    6.3054  -18.0425   22.7077 O   0  0  0  0  0  0  0  0  0  0  0  0
    7.4241  -16.3957   26.4521 C   0  0  0  0  0  0  0  0  0  0  0  0
    7.3276  -16.9461   25.0714 C   0  0  2  0  0  0  0  0  0  0  0  0
    6.5501  -18.1483   24.9753 N   0  0  0  0  0  0  0  0  0  0  0  0
    8.7013  -17.1509   24.4873 C   0  0  0  0  0  0  0  0  0  0  0  0
    9.2730  -18.2650   24.5984 O   0  0  0  0  0  0  0  0  0  0  0  0
    8.0458  -11.9944   19.6130 N   0  0  0  0  0  0  0  0  0  0  0  0
    8.2295  -13.1513   18.7974 C   0  0  0  0  0  0  0  0  0  0  0  0
    7.8260  -13.1935   17.5492 N   0  0  0  0  0  0  0  0  0  0  0  0
    8.8622  -14.3289   19.2944 N   0  0  0  0  0  0  0  0  0  0  0  0
    9.5257  -14.3652   20.5570 C   0  0  0  0  0  0  0  0  0  0  0  0
   10.2106  -15.6488   20.8950 C   0  0  0  0  0  0  0  0  0  0  0  0
   11.0271  -15.3966   22.1587 C   0  0  0  0  0  0  0  0  0  0  0  0
   10.6824  -16.3633   23.2487 C   0  0  2  0  0  0  0  0  0  0  0  0
    9.3589  -16.0942   23.8112 N   0  0  0  0  0  0  0  0  0  0  0  0
   11.6569  -16.1618   24.3773 C   0  0  0  0  0  0  0  0  0  0  0  0
   12.9924  -16.4836   24.1978 O   0  0  0  0  0  0  0  0  0  0  0  0
   11.3143  -15.7080   25.4972 O   0  0  0  0  0  0  0  0  0  0  0  0
  1  2  1  0
  3  4  1  6
  3  5  1  0
  3  2  1  0
  5  9  1  0
  5  6  2  0
  8  7  1  1
  8 10  1  0
  9  8  1  0
 10 20  1  0
 10 11  2  0
 13 12  1  0
 13 14  2  0
 15 16  1  0
 15 13  1  0
 16 17  1  0
 17 18  1  0
 19 18  1  6
 20 19  1  0
 21 19  1  0
 21 22  1  0
 23 21  2  0
M  END
$$$$
