SAR.pdb
     RDKit          3D

 23 22  0  0  1  0  0  0  0  0999 V2000
   10.5303  -12.7377   19.0144 O   0  0  0  0  0  0  0  0  0  0  0  0
   10.0207  -13.6477   18.1170 C   0  0  0  0  0  0  0  0  0  0  0  0
    8.5509  -13.9024   18.2614 C   0  0  2  0  0  0  0  0  0  0  0  0
    7.8775  -12.6097   18.2837 N   0  0  0  0  0  0  0  0  0  0  0  0
    8.3087  -14.6468   19.5255 C   0  0  0  0  0  0  0  0  0  0  0  0
    8.0013  -14.0332   20.5743 O   0  0  0  0  0  0  0  0  0  0  0  0
    8.1956  -18.2946   20.5959 C   0  0  0  0  0  0  0  0  0  0  0  0
    8.1454  -16.8194   20.7952 C   0  0  2  0  0  0  0  0  0  0  0  0
    8.4107  -16.0604   19.6067 N   0  0  0  0  0  0  0  0  0  0  0  0
    9.0703  -16.4054   21.9103 C   0  0  0  0  0  0  0  0  0  0  0  0
   10.2579  -16.0813   21.6557 O   0  0  0  0  0  0  0  0  0  0  0  0
   10.0521  -16.4158   29.8066 N   0  0  0  0  0  0  0  0  0  0  0  0
   10.1933  -14.9996   29.9148 C   0  0  0  0  0  0  0  0  0  0  0  0
   10.7647  -14.4349   30.9527 N   0  0  0  0  0  0  0  0  0  0  0  0
    9.7196  -14.1169   28.8996 N   0  0  0  0  0  0  0  0  0  0  0  0
    8.9885  -14.5794   27.7649 C   0  0  0  0  0  0  0  0  0  0  0  0
    9.8095  -15.0911   26.6269 C   0  0  0  0  0  0  0  0  0  0  0  0
    8.8359  -15.4965   25.5246 C   0  0  0  0  0  0  0  0  0  0  0  0
    9.5487  -15.9330   24.2825 C   0  0  2  0  0  0  0  0  0  0  0  0
    8.6124  -16.3785   23.2503 N   0  0  0  0  0  0  0  0  0  0  0  0
   10.3870  -17.1353   24.6229 C   0  0  0  0  0  0  0  0  0  0  0  0
   11.6363  -16.9620   25.1961 O   0  0  0  0  0  0  0  0  0  0  0  0
   10.0044  -18.3123   24.4090 O   0  0  0  0  0  0  0  0  0  0  0  0
  1  2  1  0
  3  4  1  1
  3  5  1  0
  3  2  1  0
  5  9  1  0
  5  6  2  0
  8  7  1  6
  8 10  1  0
  9  8  1  0
 10 20  1  0
 10 11  2  0
 13 12  1  0
 13 14  2  0
 15 16  1  0
 15 13  1  0
 16 17  1  0
 17 18  1  0
 19 18  1  1
 20 19  1  0
 21 19  1  0
 21 22  1  0
 23 21  2  0
M  END
$$$$
