SAR.pdb
     RDKit          3D

 23 22  0  0  1  0  0  0  0  0999 V2000
    8.3014  -17.3737   16.5238 O   0  0  0  0  0  0  0  0  0  0  0  0
    7.3853  -16.4559   16.0639 C   0  0  0  0  0  0  0  0  0  0  0  0
    7.9637  -15.1101   15.7469 C   0  0  2  0  0  0  0  0  0  0  0  0
    8.7337  -15.2378   14.5157 N   0  0  0  0  0  0  0  0  0  0  0  0
    8.8337  -14.6778   16.8725 C   0  0  0  0  0  0  0  0  0  0  0  0
   10.0577  -14.9475   16.8681 O   0  0  0  0  0  0  0  0  0  0  0  0
    8.4182  -12.6729   20.0761 C   0  0  0  0  0  0  0  0  0  0  0  0
    9.1258  -13.5662   19.1170 C   0  0  2  0  0  0  0  0  0  0  0  0
    8.3328  -13.9526   17.9852 N   0  0  0  0  0  0  0  0  0  0  0  0
    9.6688  -14.7791   19.8271 C   0  0  0  0  0  0  0  0  0  0  0  0
    8.9008  -15.7264   20.1320 O   0  0  0  0  0  0  0  0  0  0  0  0
   10.7164  -18.8001   15.9761 N   0  0  0  0  0  0  0  0  0  0  0  0
   11.3542  -17.5420   15.7574 C   0  0  0  0  0  0  0  0  0  0  0  0
   10.9959  -16.7410   14.7814 N   0  0  0  0  0  0  0  0  0  0  0  0
   12.4192  -17.0843   16.5884 N   0  0  0  0  0  0  0  0  0  0  0  0
   12.6990  -17.6649   17.8613 C   0  0  0  0  0  0  0  0  0  0  0  0
   11.6555  -17.4639   18.9110 C   0  0  0  0  0  0  0  0  0  0  0  0
   12.3679  -16.9231   20.1468 C   0  0  0  0  0  0  0  0  0  0  0  0
   11.4878  -16.0123   20.9451 C   0  0  2  0  0  0  0  0  0  0  0  0
   11.0437  -14.8623   20.1571 N   0  0  0  0  0  0  0  0  0  0  0  0
   12.3043  -15.4452   22.0746 C   0  0  0  0  0  0  0  0  0  0  0  0
   12.5132  -14.0778   22.1525 O   0  0  0  0  0  0  0  0  0  0  0  0
   12.8171  -16.1629   22.9687 O   0  0  0  0  0  0  0  0  0  0  0  0
  1  2  1  0
  3  4  1  6
  3  5  1  0
  3  2  1  0
  5  9  1  0
  5  6  2  0
  8  7  1  1
  8 10  1  0
  9  8  1  0
 10 20  1  0
 10 11  2  0
 13 12  1  0
 13 14  2  0
 15 16  1  0
 15 13  1  0
 16 17  1  0
 17 18  1  0
 19 18  1  6
 20 19  1  0
 21 19  1  0
 21 22  1  0
 23 21  2  0
M  END
$$$$
