SAR.pdb
     RDKit          3D

 23 22  0  0  1  0  0  0  0  0999 V2000
    6.4683  -23.4617   22.4633 O   0  0  0  0  0  0  0  0  0  0  0  0
    6.7657  -22.2640   23.0718 C   0  0  0  0  0  0  0  0  0  0  0  0
    5.5906  -21.5839   23.7063 C   0  0  2  0  0  0  0  0  0  0  0  0
    4.5541  -21.4505   22.6900 N   0  0  0  0  0  0  0  0  0  0  0  0
    6.0140  -20.2499   24.2083 C   0  0  0  0  0  0  0  0  0  0  0  0
    5.8591  -19.2273   23.5005 O   0  0  0  0  0  0  0  0  0  0  0  0
    7.2145  -18.7907   27.4886 C   0  0  0  0  0  0  0  0  0  0  0  0
    7.0165  -18.8011   26.0123 C   0  0  2  0  0  0  0  0  0  0  0  0
    6.6021  -20.0708   25.4879 N   0  0  0  0  0  0  0  0  0  0  0  0
    8.2567  -18.3126   25.3098 C   0  0  0  0  0  0  0  0  0  0  0  0
    9.1245  -19.1344   24.9201 O   0  0  0  0  0  0  0  0  0  0  0  0
    7.8496  -11.7941   20.0978 N   0  0  0  0  0  0  0  0  0  0  0  0
    7.8134  -13.0952   19.5121 C   0  0  0  0  0  0  0  0  0  0  0  0
    7.5456  -13.2783   18.2403 N   0  0  0  0  0  0  0  0  0  0  0  0
    8.0659  -14.2718   20.2777 N   0  0  0  0  0  0  0  0  0  0  0  0
    8.6361  -14.2253   21.5848 C   0  0  0  0  0  0  0  0  0  0  0  0
    8.9092  -15.5481   22.2224 C   0  0  0  0  0  0  0  0  0  0  0  0
    9.4800  -15.2632   23.6081 C   0  0  0  0  0  0  0  0  0  0  0  0
    9.6816  -16.5187   24.3982 C   0  0  2  0  0  0  0  0  0  0  0  0
    8.4558  -16.9287   25.0837 N   0  0  0  0  0  0  0  0  0  0  0  0
   10.6829  -16.2318   25.4841 C   0  0  0  0  0  0  0  0  0  0  0  0
   12.0171  -16.0505   25.1581 O   0  0  0  0  0  0  0  0  0  0  0  0
   10.3645  -16.1471   26.6961 O   0  0  0  0  0  0  0  0  0  0  0  0
  1  2  1  0
  3  4  1  6
  3  5  1  0
  3  2  1  0
  5  9  1  0
  5  6  2  0
  8  7  1  1
  8 10  1  0
  9  8  1  0
 10 20  1  0
 10 11  2  0
 13 12  1  0
 13 14  2  0
 15 16  1  0
 15 13  1  0
 16 17  1  0
 17 18  1  0
 19 18  1  1
 20 19  1  0
 21 19  1  0
 21 22  1  0
 23 21  2  0
M  END
$$$$
