SAR.pdb
     RDKit          3D

 23 22  0  0  1  0  0  0  0  0999 V2000
   -0.1134  -20.7214   24.2577 O   0  0  0  0  0  0  0  0  0  0  0  0
   -0.2478  -19.5065   23.6257 C   0  0  0  0  0  0  0  0  0  0  0  0
    0.0598  -19.5348   22.1593 C   0  0  2  0  0  0  0  0  0  0  0  0
   -0.7112  -20.6203   21.5658 N   0  0  0  0  0  0  0  0  0  0  0  0
    1.5179  -19.7583   21.9729 C   0  0  0  0  0  0  0  0  0  0  0  0
    1.9706  -20.9201   21.8459 O   0  0  0  0  0  0  0  0  0  0  0  0
    4.6203  -17.5938   21.5959 C   0  0  0  0  0  0  0  0  0  0  0  0
    3.8691  -18.8646   21.7944 C   0  0  2  0  0  0  0  0  0  0  0  0
    2.4514  -18.6897   21.9296 N   0  0  0  0  0  0  0  0  0  0  0  0
    4.4266  -19.6300   22.9664 C   0  0  0  0  0  0  0  0  0  0  0  0
    4.0519  -19.3540   24.1342 O   0  0  0  0  0  0  0  0  0  0  0  0
    2.9326  -25.6750   27.2218 N   0  0  0  0  0  0  0  0  0  0  0  0
    4.2982  -25.6749   27.6371 C   0  0  0  0  0  0  0  0  0  0  0  0
    4.6973  -26.3078   28.7155 N   0  0  0  0  0  0  0  0  0  0  0  0
    5.3074  -24.9850   26.9025 N   0  0  0  0  0  0  0  0  0  0  0  0
    5.0063  -24.1680   25.7722 C   0  0  0  0  0  0  0  0  0  0  0  0
    6.1829  -23.5979   25.0501 C   0  0  0  0  0  0  0  0  0  0  0  0
    5.6389  -22.8484   23.8379 C   0  0  0  0  0  0  0  0  0  0  0  0
    5.8715  -21.3731   23.9427 C   0  0  2  0  0  0  0  0  0  0  0  0
    5.3747  -20.6626   22.7641 N   0  0  0  0  0  0  0  0  0  0  0  0
    7.3570  -21.1350   23.9697 C   0  0  0  0  0  0  0  0  0  0  0  0
    7.9583  -20.4276   22.9414 O   0  0  0  0  0  0  0  0  0  0  0  0
    8.0950  -21.5539   24.8956 O   0  0  0  0  0  0  0  0  0  0  0  0
  1  2  1  0
  3  4  1  6
  3  5  1  0
  3  2  1  0
  5  9  1  0
  5  6  2  0
  8  7  1  1
  8 10  1  0
  9  8  1  0
 10 20  1  0
 10 11  2  0
 13 12  1  0
 13 14  2  0
 15 16  1  0
 15 13  1  0
 16 17  1  0
 17 18  1  0
 19 18  1  6
 20 19  1  0
 21 19  1  0
 21 22  1  0
 23 21  2  0
M  END
$$$$
