SAR.pdb
     RDKit          3D

 23 22  0  0  1  0  0  0  0  0999 V2000
    9.2201  -17.2941   16.0811 O   0  0  0  0  0  0  0  0  0  0  0  0
    8.3069  -16.4125   15.5501 C   0  0  0  0  0  0  0  0  0  0  0  0
    8.7495  -14.9808   15.5631 C   0  0  2  0  0  0  0  0  0  0  0  0
    9.8764  -14.8573   14.6466 N   0  0  0  0  0  0  0  0  0  0  0  0
    9.1492  -14.6082   16.9459 C   0  0  0  0  0  0  0  0  0  0  0  0
   10.3290  -14.7786   17.3331 O   0  0  0  0  0  0  0  0  0  0  0  0
    7.4851  -12.9689   19.9473 C   0  0  0  0  0  0  0  0  0  0  0  0
    8.5884  -13.6417   19.2064 C   0  0  2  0  0  0  0  0  0  0  0  0
    8.2342  -14.0520   17.8778 N   0  0  0  0  0  0  0  0  0  0  0  0
    9.1240  -14.8055   19.9994 C   0  0  0  0  0  0  0  0  0  0  0  0
    8.6388  -15.9538   19.8381 O   0  0  0  0  0  0  0  0  0  0  0  0
   12.3973  -14.6319   17.9747 N   0  0  0  0  0  0  0  0  0  0  0  0
   13.7839  -14.8061   18.2649 C   0  0  0  0  0  0  0  0  0  0  0  0
   14.7167  -14.1333   17.6327 N   0  0  0  0  0  0  0  0  0  0  0  0
   14.2344  -15.7236   19.2596 N   0  0  0  0  0  0  0  0  0  0  0  0
   13.4224  -16.1092   20.3676 C   0  0  0  0  0  0  0  0  0  0  0  0
   12.8970  -14.9922   21.2086 C   0  0  0  0  0  0  0  0  0  0  0  0
   11.9775  -15.6177   22.2528 C   0  0  0  0  0  0  0  0  0  0  0  0
   10.5756  -15.7625   21.7476 C   0  0  2  0  0  0  0  0  0  0  0  0
   10.1745  -14.6171   20.9306 N   0  0  0  0  0  0  0  0  0  0  0  0
    9.6495  -15.7654   22.9335 C   0  0  0  0  0  0  0  0  0  0  0  0
    9.6856  -16.8201   23.8311 O   0  0  0  0  0  0  0  0  0  0  0  0
    8.8281  -14.8416   23.1557 O   0  0  0  0  0  0  0  0  0  0  0  0
  1  2  1  0
  3  4  1  6
  3  5  1  0
  3  2  1  0
  5  9  1  0
  5  6  2  0
  8  7  1  1
  8 10  1  0
  9  8  1  0
 10 20  1  0
 10 11  2  0
 13 12  1  0
 13 14  2  0
 15 16  1  0
 15 13  1  0
 16 17  1  0
 17 18  1  0
 19 18  1  1
 20 19  1  0
 21 19  1  0
 21 22  1  0
 23 21  2  0
M  END
$$$$
