WQK.pdb
     RDKit          3D

 33 34  0  0  1  0  0  0  0  0999 V2000
   23.8546  -18.9449  -18.4885 N   0  0  0  0  0  0  0  0  0  0  0  0
   22.6810  -18.4821  -17.7880 C   0  0  1  0  0  0  0  0  0  0  0  0
   21.5487  -18.1892  -18.7394 C   0  0  0  0  0  0  0  0  0  0  0  0
   21.8617  -16.9935  -19.5596 C   0  0  0  0  0  0  0  0  0  0  0  0
   22.3194  -16.9248  -20.8576 C   0  0  0  0  0  0  0  0  0  0  0  0
   22.4603  -15.6384  -21.1873 N   0  0  0  0  0  0  0  0  0  0  0  0
   22.1152  -14.8408  -20.1611 C   0  0  0  0  0  0  0  0  0  0  0  0
   22.0858  -13.4584  -20.0035 C   0  0  0  0  0  0  0  0  0  0  0  0
   21.6757  -12.8980  -18.8081 C   0  0  0  0  0  0  0  0  0  0  0  0
   21.2964  -13.7278  -17.7749 C   0  0  0  0  0  0  0  0  0  0  0  0
   21.3282  -15.0961  -17.9384 C   0  0  0  0  0  0  0  0  0  0  0  0
   21.7357  -15.6878  -19.1284 C   0  0  0  0  0  0  0  0  0  0  0  0
   22.2968  -19.5204  -16.7818 C   0  0  0  0  0  0  0  0  0  0  0  0
   22.2365  -20.6987  -17.1899 O   0  0  0  0  0  0  0  0  0  0  0  0
   19.7381  -18.5336  -11.2751 N   0  0  0  0  0  0  0  0  0  0  0  0
   20.5148  -19.6813  -10.9492 C   0  0  0  0  0  0  0  0  0  0  0  0
   20.2929  -20.2494   -9.8551 O   0  0  0  0  0  0  0  0  0  0  0  0
   21.5632  -20.1911  -11.8862 C   0  0  0  0  0  0  0  0  0  0  0  0
   21.6101  -19.2699  -13.0556 C   0  0  0  0  0  0  0  0  0  0  0  0
   21.4743  -20.0019  -14.4037 C   0  0  2  0  0  0  0  0  0  0  0  0
   22.0136  -19.2245  -15.4489 N   0  0  0  0  0  0  0  0  0  0  0  0
   20.1263  -20.5379  -14.5990 C   0  0  0  0  0  0  0  0  0  0  0  0
   19.1474  -19.8363  -14.9956 O   0  0  0  0  0  0  0  0  0  0  0  0
   19.8715  -21.9050  -14.3411 N   0  0  0  0  0  0  0  0  0  0  0  0
   18.4831  -22.4155  -14.4704 C   0  0  1  0  0  0  0  0  0  0  0  0
   18.4972  -23.8470  -14.8391 C   0  0  0  0  0  0  0  0  0  0  0  0
   17.2239  -24.5755  -14.9319 C   0  0  0  0  0  0  0  0  0  0  0  0
   16.2818  -24.2484  -16.0200 C   0  0  0  0  0  0  0  0  0  0  0  0
   15.0056  -25.0205  -16.0574 C   0  0  0  0  0  0  0  0  0  0  0  0
   14.0418  -24.6881  -17.0282 N   0  0  0  0  0  0  0  0  0  0  0  0
   17.7774  -22.0569  -13.2661 C   0  0  0  0  0  0  0  0  0  0  0  0
   16.5112  -22.0527  -13.2382 O   0  0  0  0  0  0  0  0  0  0  0  0
   18.4095  -21.7105  -12.0947 O   0  0  0  0  0  0  0  0  0  0  0  0
  2  1  1  6
  3  2  1  0
  4  3  1  0
  4  5  2  0
  6  5  1  0
  7  6  1  0
  8  7  2  0
  9  8  1  0
 10  9  2  0
 10 11  1  0
 11 12  2  0
 12  7  1  0
 12  4  1  0
 13  2  1  0
 13 14  2  0
 15 16  1  0
 16 17  2  0
 18 19  1  0
 18 16  1  0
 20 19  1  1
 20 21  1  0
 21 13  1  0
 22 23  2  0
 22 20  1  0
 24 22  1  0
 25 26  1  1
 25 24  1  0
 26 27  1  0
 27 28  1  0
 28 29  1  0
 29 30  1  0
 31 33  1  0
 31 25  1  0
 32 31  2  0
M  END
$$$$
