WQK.pdb
     RDKit          3D

 33 34  0  0  1  0  0  0  0  0999 V2000
   27.2071  -22.0243   -9.7763 N   0  0  0  0  0  0  0  0  0  0  0  0
   26.8670  -20.6230   -9.7225 C   0  0  1  0  0  0  0  0  0  0  0  0
   28.0937  -19.7624   -9.5560 C   0  0  0  0  0  0  0  0  0  0  0  0
   28.8547  -20.1781   -8.3525 C   0  0  0  0  0  0  0  0  0  0  0  0
   29.9303  -21.0342   -8.2566 C   0  0  0  0  0  0  0  0  0  0  0  0
   30.2937  -21.1123   -6.9739 N   0  0  0  0  0  0  0  0  0  0  0  0
   29.5039  -20.3420   -6.2051 C   0  0  0  0  0  0  0  0  0  0  0  0
   29.4724  -20.0845   -4.8378 C   0  0  0  0  0  0  0  0  0  0  0  0
   28.5265  -19.2269   -4.3078 C   0  0  0  0  0  0  0  0  0  0  0  0
   27.6152  -18.6306   -5.1528 C   0  0  0  0  0  0  0  0  0  0  0  0
   27.6525  -18.8905   -6.5060 C   0  0  0  0  0  0  0  0  0  0  0  0
   28.5918  -19.7480   -7.0670 C   0  0  0  0  0  0  0  0  0  0  0  0
   26.1184  -20.2750  -10.9702 C   0  0  0  0  0  0  0  0  0  0  0  0
   26.2087  -19.0940  -11.3650 O   0  0  0  0  0  0  0  0  0  0  0  0
   25.1594  -24.5341  -15.3348 N   0  0  0  0  0  0  0  0  0  0  0  0
   24.3794  -24.7005  -14.1554 C   0  0  0  0  0  0  0  0  0  0  0  0
   23.8639  -25.8227  -13.9456 O   0  0  0  0  0  0  0  0  0  0  0  0
   24.1830  -23.5685  -13.1978 C   0  0  0  0  0  0  0  0  0  0  0  0
   24.8942  -22.3819  -13.7496 C   0  0  0  0  0  0  0  0  0  0  0  0
   24.6732  -21.1065  -12.9152 C   0  0  2  0  0  0  0  0  0  0  0  0
   25.3495  -21.1954  -11.6814 N   0  0  0  0  0  0  0  0  0  0  0  0
   23.2620  -20.7197  -12.8752 C   0  0  0  0  0  0  0  0  0  0  0  0
   22.4657  -21.0802  -11.9567 O   0  0  0  0  0  0  0  0  0  0  0  0
   22.7303  -19.9018  -13.8992 N   0  0  0  0  0  0  0  0  0  0  0  0
   21.3448  -19.3855  -13.7618 C   0  0  1  0  0  0  0  0  0  0  0  0
   21.1156  -18.2773  -14.7130 C   0  0  0  0  0  0  0  0  0  0  0  0
   19.8273  -17.5701  -14.6923 C   0  0  0  0  0  0  0  0  0  0  0  0
   19.5989  -16.4564  -15.6337 C   0  0  0  0  0  0  0  0  0  0  0  0
   18.2483  -15.8229  -15.6089 C   0  0  0  0  0  0  0  0  0  0  0  0
   17.9690  -14.7891  -16.5226 N   0  0  0  0  0  0  0  0  0  0  0  0
   20.4531  -20.5146  -13.8455 C   0  0  0  0  0  0  0  0  0  0  0  0
   20.6785  -21.4543  -14.6640 O   0  0  0  0  0  0  0  0  0  0  0  0
   19.3311  -20.6510  -13.0617 O   0  0  0  0  0  0  0  0  0  0  0  0
  2  1  1  6
  3  2  1  0
  4  3  1  0
  4  5  2  0
  6  5  1  0
  7  6  1  0
  8  7  2  0
  9  8  1  0
 10  9  2  0
 10 11  1  0
 11 12  2  0
 12  7  1  0
 12  4  1  0
 13  2  1  0
 13 14  2  0
 15 16  1  0
 16 17  2  0
 18 19  1  0
 18 16  1  0
 20 19  1  1
 20 21  1  0
 21 13  1  0
 22 23  2  0
 22 20  1  0
 24 22  1  0
 25 26  1  6
 25 24  1  0
 26 27  1  0
 27 28  1  0
 28 29  1  0
 29 30  1  0
 31 33  1  0
 31 25  1  0
 32 31  2  0
M  END
$$$$
