WQK.pdb
     RDKit          3D

 33 34  0  0  1  0  0  0  0  0999 V2000
   26.8363  -19.3748  -18.7033 N   0  0  0  0  0  0  0  0  0  0  0  0
   26.8752  -18.8996  -17.3414 C   0  0  1  0  0  0  0  0  0  0  0  0
   26.6564  -17.4096  -17.2692 C   0  0  0  0  0  0  0  0  0  0  0  0
   27.7435  -16.6946  -17.9813 C   0  0  0  0  0  0  0  0  0  0  0  0
   27.6600  -15.6248  -18.8461 C   0  0  0  0  0  0  0  0  0  0  0  0
   28.8944  -15.3095  -19.2467 N   0  0  0  0  0  0  0  0  0  0  0  0
   29.8031  -16.1259  -18.6848 C   0  0  0  0  0  0  0  0  0  0  0  0
   31.1893  -16.2077  -18.7773 C   0  0  0  0  0  0  0  0  0  0  0  0
   31.8833  -17.1712  -18.0693 C   0  0  0  0  0  0  0  0  0  0  0  0
   31.1828  -18.0493  -17.2705 C   0  0  0  0  0  0  0  0  0  0  0  0
   29.8099  -17.9622  -17.1837 C   0  0  0  0  0  0  0  0  0  0  0  0
   29.0856  -17.0043  -17.8839 C   0  0  0  0  0  0  0  0  0  0  0  0
   25.8419  -19.6440  -16.5563 C   0  0  0  0  0  0  0  0  0  0  0  0
   24.9179  -20.1726  -17.2088 O   0  0  0  0  0  0  0  0  0  0  0  0
   26.8024  -20.8038  -10.4789 N   0  0  0  0  0  0  0  0  0  0  0  0
   25.4577  -21.2586  -10.5878 C   0  0  0  0  0  0  0  0  0  0  0  0
   24.9303  -21.7797   -9.5782 O   0  0  0  0  0  0  0  0  0  0  0  0
   24.7001  -21.1173  -11.8697 C   0  0  0  0  0  0  0  0  0  0  0  0
   25.6176  -20.5065  -12.8714 C   0  0  0  0  0  0  0  0  0  0  0  0
   24.9505  -20.2850  -14.2416 C   0  0  2  0  0  0  0  0  0  0  0  0
   25.8764  -19.7622  -15.1674 N   0  0  0  0  0  0  0  0  0  0  0  0
   23.6682  -19.5902  -14.1169 C   0  0  0  0  0  0  0  0  0  0  0  0
   23.5640  -18.3758  -13.7672 O   0  0  0  0  0  0  0  0  0  0  0  0
   22.4663  -20.2820  -14.3949 N   0  0  0  0  0  0  0  0  0  0  0  0
   21.1876  -19.5272  -14.4081 C   0  0  1  0  0  0  0  0  0  0  0  0
   20.4605  -19.7759  -15.6710 C   0  0  0  0  0  0  0  0  0  0  0  0
   19.1264  -19.1877  -15.8574 C   0  0  0  0  0  0  0  0  0  0  0  0
   18.4051  -19.4192  -17.1242 C   0  0  0  0  0  0  0  0  0  0  0  0
   17.0946  -18.7248  -17.2868 C   0  0  0  0  0  0  0  0  0  0  0  0
   16.2717  -19.0783  -18.3729 N   0  0  0  0  0  0  0  0  0  0  0  0
   20.4936  -19.8322  -13.1825 C   0  0  0  0  0  0  0  0  0  0  0  0
   20.6602  -20.9487  -12.6083 O   0  0  0  0  0  0  0  0  0  0  0  0
   19.6317  -18.9566  -12.5642 O   0  0  0  0  0  0  0  0  0  0  0  0
  2  1  1  6
  3  2  1  0
  4  3  1  0
  4  5  2  0
  6  5  1  0
  7  6  1  0
  8  7  2  0
  9  8  1  0
 10  9  2  0
 10 11  1  0
 11 12  2  0
 12  7  1  0
 12  4  1  0
 13  2  1  0
 13 14  2  0
 15 16  1  0
 16 17  2  0
 18 19  1  0
 18 16  1  0
 20 19  1  1
 20 21  1  0
 21 13  1  0
 22 23  2  0
 22 20  1  0
 24 22  1  0
 25 26  1  6
 25 24  1  0
 26 27  1  0
 27 28  1  0
 28 29  1  0
 29 30  1  0
 31 33  1  0
 31 25  1  0
 32 31  2  0
M  END
$$$$
