WQK.pdb
     RDKit          3D

 33 34  0  0  1  0  0  0  0  0999 V2000
   25.4032  -19.4362  -17.6300 N   0  0  0  0  0  0  0  0  0  0  0  0
   25.7391  -18.9084  -16.3297 C   0  0  1  0  0  0  0  0  0  0  0  0
   25.5003  -17.4216  -16.2579 C   0  0  0  0  0  0  0  0  0  0  0  0
   26.4260  -16.7068  -17.1703 C   0  0  0  0  0  0  0  0  0  0  0  0
   26.1367  -15.8028  -18.1694 C   0  0  0  0  0  0  0  0  0  0  0  0
   27.2843  -15.4144  -18.7314 N   0  0  0  0  0  0  0  0  0  0  0  0
   28.3324  -16.0224  -18.1486 C   0  0  0  0  0  0  0  0  0  0  0  0
   29.7058  -15.9577  -18.3644 C   0  0  0  0  0  0  0  0  0  0  0  0
   30.5723  -16.7118  -17.5952 C   0  0  0  0  0  0  0  0  0  0  0  0
   30.0567  -17.5284  -16.6117 C   0  0  0  0  0  0  0  0  0  0  0  0
   28.6954  -17.5873  -16.4038 C   0  0  0  0  0  0  0  0  0  0  0  0
   27.8003  -16.8409  -17.1614 C   0  0  0  0  0  0  0  0  0  0  0  0
   24.9345  -19.6430  -15.3045 C   0  0  0  0  0  0  0  0  0  0  0  0
   23.8997  -20.2123  -15.7092 O   0  0  0  0  0  0  0  0  0  0  0  0
   26.6590  -21.9664  -10.4771 N   0  0  0  0  0  0  0  0  0  0  0  0
   25.4805  -21.5267   -9.8102 C   0  0  0  0  0  0  0  0  0  0  0  0
   25.1031  -22.1664   -8.8015 O   0  0  0  0  0  0  0  0  0  0  0  0
   24.7182  -20.3371  -10.3009 C   0  0  0  0  0  0  0  0  0  0  0  0
   25.3909  -19.8482  -11.5366 C   0  0  0  0  0  0  0  0  0  0  0  0
   24.5878  -20.1459  -12.8164 C   0  0  2  0  0  0  0  0  0  0  0  0
   25.2907  -19.7097  -13.9580 N   0  0  0  0  0  0  0  0  0  0  0  0
   23.1911  -19.7257  -12.6930 C   0  0  0  0  0  0  0  0  0  0  0  0
   22.7976  -18.5401  -12.9103 O   0  0  0  0  0  0  0  0  0  0  0  0
   22.2066  -20.6680  -12.3143 N   0  0  0  0  0  0  0  0  0  0  0  0
   20.8345  -20.5370  -12.8666 C   0  0  1  0  0  0  0  0  0  0  0  0
   20.8785  -20.5125  -14.3441 C   0  0  0  0  0  0  0  0  0  0  0  0
   19.6187  -20.4341  -15.0973 C   0  0  0  0  0  0  0  0  0  0  0  0
   19.6574  -20.4390  -16.5728 C   0  0  0  0  0  0  0  0  0  0  0  0
   18.3460  -20.3502  -17.2788 C   0  0  0  0  0  0  0  0  0  0  0  0
   18.3399  -20.1657  -18.6743 N   0  0  0  0  0  0  0  0  0  0  0  0
   20.0229  -21.5577  -12.2531 C   0  0  0  0  0  0  0  0  0  0  0  0
   20.3247  -22.7816  -12.3764 O   0  0  0  0  0  0  0  0  0  0  0  0
   18.9003  -21.2836  -11.5072 O   0  0  0  0  0  0  0  0  0  0  0  0
  2  1  1  6
  3  2  1  0
  4  3  1  0
  4  5  2  0
  6  5  1  0
  7  6  1  0
  8  7  2  0
  9  8  1  0
 10  9  2  0
 10 11  1  0
 11 12  2  0
 12  7  1  0
 12  4  1  0
 13  2  1  0
 13 14  2  0
 15 16  1  0
 16 17  2  0
 18 19  1  0
 18 16  1  0
 20 19  1  1
 20 21  1  0
 21 13  1  0
 22 23  2  0
 22 20  1  0
 24 22  1  0
 25 26  1  6
 25 24  1  0
 26 27  1  0
 27 28  1  0
 28 29  1  0
 29 30  1  0
 31 33  1  0
 31 25  1  0
 32 31  2  0
M  END
$$$$
