WQK.pdb
     RDKit          3D

 33 34  0  0  1  0  0  0  0  0999 V2000
   25.2551  -19.3708  -11.4615 N   0  0  0  0  0  0  0  0  0  0  0  0
   25.9006  -20.6117  -11.8158 C   0  0  1  0  0  0  0  0  0  0  0  0
   25.8449  -21.6067  -10.6845 C   0  0  0  0  0  0  0  0  0  0  0  0
   26.4183  -21.0159   -9.4506 C   0  0  0  0  0  0  0  0  0  0  0  0
   25.7808  -20.3415   -8.4319 C   0  0  0  0  0  0  0  0  0  0  0  0
   26.6940  -19.9904   -7.5229 N   0  0  0  0  0  0  0  0  0  0  0  0
   27.9195  -20.4027   -7.8917 C   0  0  0  0  0  0  0  0  0  0  0  0
   29.1752  -20.2883   -7.3026 C   0  0  0  0  0  0  0  0  0  0  0  0
   30.2907  -20.8217   -7.9210 C   0  0  0  0  0  0  0  0  0  0  0  0
   30.1413  -21.4683   -9.1292 C   0  0  0  0  0  0  0  0  0  0  0  0
   28.8945  -21.5777   -9.7067 C   0  0  0  0  0  0  0  0  0  0  0  0
   27.7555  -21.0514   -9.1083 C   0  0  0  0  0  0  0  0  0  0  0  0
   25.2427  -21.1460  -13.0487 C   0  0  0  0  0  0  0  0  0  0  0  0
   23.9948  -21.1149  -13.0743 O   0  0  0  0  0  0  0  0  0  0  0  0
   29.3671  -22.7214  -15.6659 N   0  0  0  0  0  0  0  0  0  0  0  0
   28.9524  -21.5602  -16.3777 C   0  0  0  0  0  0  0  0  0  0  0  0
   29.8291  -20.7278  -16.7053 O   0  0  0  0  0  0  0  0  0  0  0  0
   27.5133  -21.3434  -16.7224 C   0  0  0  0  0  0  0  0  0  0  0  0
   26.7519  -22.5338  -16.2518 C   0  0  0  0  0  0  0  0  0  0  0  0
   25.5367  -22.1647  -15.3809 C   0  0  2  0  0  0  0  0  0  0  0  0
   25.9538  -21.6599  -14.1324 N   0  0  0  0  0  0  0  0  0  0  0  0
   24.5329  -23.2300  -15.3671 C   0  0  0  0  0  0  0  0  0  0  0  0
   24.5809  -24.2236  -14.5808 O   0  0  0  0  0  0  0  0  0  0  0  0
   23.4412  -23.1759  -16.2647 N   0  0  0  0  0  0  0  0  0  0  0  0
   22.2519  -24.0259  -16.0039 C   0  0  1  0  0  0  0  0  0  0  0  0
   21.4019  -23.4098  -14.9630 C   0  0  0  0  0  0  0  0  0  0  0  0
   20.1585  -24.0834  -14.5620 C   0  0  0  0  0  0  0  0  0  0  0  0
   19.3239  -23.4878  -13.5002 C   0  0  0  0  0  0  0  0  0  0  0  0
   18.1074  -24.2509  -13.0954 C   0  0  0  0  0  0  0  0  0  0  0  0
   17.3791  -23.8168  -11.9717 N   0  0  0  0  0  0  0  0  0  0  0  0
   21.6321  -24.3031  -17.2751 C   0  0  0  0  0  0  0  0  0  0  0  0
   21.6033  -23.4214  -18.1838 O   0  0  0  0  0  0  0  0  0  0  0  0
   21.0510  -25.5105  -17.5850 O   0  0  0  0  0  0  0  0  0  0  0  0
  2  1  1  1
  3  2  1  0
  4  3  1  0
  4  5  2  0
  6  5  1  0
  7  6  1  0
  8  7  2  0
  9  8  1  0
 10  9  2  0
 10 11  1  0
 11 12  2  0
 12  7  1  0
 12  4  1  0
 13  2  1  0
 13 14  2  0
 15 16  1  0
 16 17  2  0
 18 19  1  0
 18 16  1  0
 20 19  1  1
 20 21  1  0
 21 13  1  0
 22 23  2  0
 22 20  1  0
 24 22  1  0
 25 26  1  1
 25 24  1  0
 26 27  1  0
 27 28  1  0
 28 29  1  0
 29 30  1  0
 31 33  1  0
 31 25  1  0
 32 31  2  0
M  END
$$$$
