WQK.pdb
     RDKit          3D

 33 34  0  0  1  0  0  0  0  0999 V2000
   27.5797  -19.7605  -11.2419 N   0  0  0  0  0  0  0  0  0  0  0  0
   26.5925  -20.8072  -11.1313 C   0  0  1  0  0  0  0  0  0  0  0  0
   26.2603  -21.1040   -9.6910 C   0  0  0  0  0  0  0  0  0  0  0  0
   27.4133  -20.7736   -8.8181 C   0  0  0  0  0  0  0  0  0  0  0  0
   27.5080  -19.8227   -7.8252 C   0  0  0  0  0  0  0  0  0  0  0  0
   28.7354  -19.8805   -7.3021 N   0  0  0  0  0  0  0  0  0  0  0  0
   29.4683  -20.8329   -7.9052 C   0  0  0  0  0  0  0  0  0  0  0  0
   30.7753  -21.2771   -7.7285 C   0  0  0  0  0  0  0  0  0  0  0  0
   31.2793  -22.3004   -8.5094 C   0  0  0  0  0  0  0  0  0  0  0  0
   30.4689  -22.8745   -9.4653 C   0  0  0  0  0  0  0  0  0  0  0  0
   29.1754  -22.4294   -9.6346 C   0  0  0  0  0  0  0  0  0  0  0  0
   28.6417  -21.4026   -8.8643 C   0  0  0  0  0  0  0  0  0  0  0  0
   25.3785  -20.3883  -11.8988 C   0  0  0  0  0  0  0  0  0  0  0  0
   24.6966  -19.4659  -11.4060 O   0  0  0  0  0  0  0  0  0  0  0  0
   25.2811  -19.6603  -17.8123 N   0  0  0  0  0  0  0  0  0  0  0  0
   23.8869  -19.4981  -17.5737 C   0  0  0  0  0  0  0  0  0  0  0  0
   23.1786  -19.0568  -18.5077 O   0  0  0  0  0  0  0  0  0  0  0  0
   23.2889  -19.8448  -16.2473 C   0  0  0  0  0  0  0  0  0  0  0  0
   24.3981  -20.2721  -15.3498 C   0  0  0  0  0  0  0  0  0  0  0  0
   23.9069  -20.7379  -13.9665 C   0  0  2  0  0  0  0  0  0  0  0  0
   24.9974  -20.9750  -13.1049 N   0  0  0  0  0  0  0  0  0  0  0  0
   22.9002  -21.7950  -14.0737 C   0  0  0  0  0  0  0  0  0  0  0  0
   23.0620  -22.8446  -14.7665 O   0  0  0  0  0  0  0  0  0  0  0  0
   21.6743  -21.6683  -13.3798 N   0  0  0  0  0  0  0  0  0  0  0  0
   20.5239  -22.5126  -13.7906 C   0  0  1  0  0  0  0  0  0  0  0  0
   20.2433  -23.5318  -12.7572 C   0  0  0  0  0  0  0  0  0  0  0  0
   20.8881  -24.8490  -12.8561 C   0  0  0  0  0  0  0  0  0  0  0  0
   20.6380  -25.8567  -11.8070 C   0  0  0  0  0  0  0  0  0  0  0  0
   21.2639  -27.1971  -12.0011 C   0  0  0  0  0  0  0  0  0  0  0  0
   21.1216  -28.1635  -10.9874 N   0  0  0  0  0  0  0  0  0  0  0  0
   19.4440  -21.6273  -14.1467 C   0  0  0  0  0  0  0  0  0  0  0  0
   18.3295  -22.0917  -14.5292 O   0  0  0  0  0  0  0  0  0  0  0  0
   19.5415  -20.2564  -14.0921 O   0  0  0  0  0  0  0  0  0  0  0  0
  2  1  1  1
  3  2  1  0
  4  3  1  0
  4  5  2  0
  6  5  1  0
  7  6  1  0
  8  7  2  0
  9  8  1  0
 10  9  2  0
 10 11  1  0
 11 12  2  0
 12  7  1  0
 12  4  1  0
 13  2  1  0
 13 14  2  0
 15 16  1  0
 16 17  2  0
 18 19  1  0
 18 16  1  0
 20 19  1  6
 20 21  1  0
 21 13  1  0
 22 23  2  0
 22 20  1  0
 24 22  1  0
 25 26  1  1
 25 24  1  0
 26 27  1  0
 27 28  1  0
 28 29  1  0
 29 30  1  0
 31 33  1  0
 31 25  1  0
 32 31  2  0
M  END
$$$$
