WQK.pdb
     RDKit          3D

 33 34  0  0  1  0  0  0  0  0999 V2000
   24.4252  -19.7700  -15.0592 N   0  0  0  0  0  0  0  0  0  0  0  0
   24.1626  -21.0107  -14.3707 C   0  0  1  0  0  0  0  0  0  0  0  0
   25.4083  -21.5560  -13.7196 C   0  0  0  0  0  0  0  0  0  0  0  0
   26.2991  -22.1619  -14.7392 C   0  0  0  0  0  0  0  0  0  0  0  0
   27.4329  -21.6403  -15.3236 C   0  0  0  0  0  0  0  0  0  0  0  0
   27.9133  -22.5389  -16.1870 N   0  0  0  0  0  0  0  0  0  0  0  0
   27.1462  -23.6431  -16.2049 C   0  0  0  0  0  0  0  0  0  0  0  0
   27.2197  -24.8367  -16.9167 C   0  0  0  0  0  0  0  0  0  0  0  0
   26.2704  -25.8240  -16.7293 C   0  0  0  0  0  0  0  0  0  0  0  0
   25.2503  -25.6094  -15.8274 C   0  0  0  0  0  0  0  0  0  0  0  0
   25.1840  -24.4246  -15.1260 C   0  0  0  0  0  0  0  0  0  0  0  0
   26.1240  -23.4143  -15.2936 C   0  0  0  0  0  0  0  0  0  0  0  0
   23.0802  -20.7687  -13.3667 C   0  0  0  0  0  0  0  0  0  0  0  0
   23.4193  -20.2087  -12.3036 O   0  0  0  0  0  0  0  0  0  0  0  0
   18.1375  -17.8903  -14.1895 N   0  0  0  0  0  0  0  0  0  0  0  0
   17.7773  -18.4564  -12.9338 C   0  0  0  0  0  0  0  0  0  0  0  0
   16.7922  -17.9708  -12.3315 O   0  0  0  0  0  0  0  0  0  0  0  0
   18.5531  -19.5960  -12.3538 C   0  0  0  0  0  0  0  0  0  0  0  0
   19.7211  -19.8462  -13.2434 C   0  0  0  0  0  0  0  0  0  0  0  0
   20.6023  -21.0150  -12.7647 C   0  0  2  0  0  0  0  0  0  0  0  0
   21.7511  -21.1360  -13.5730 N   0  0  0  0  0  0  0  0  0  0  0  0
   19.8182  -22.2295  -12.5350 C   0  0  0  0  0  0  0  0  0  0  0  0
   19.5766  -23.0852  -13.4390 O   0  0  0  0  0  0  0  0  0  0  0  0
   19.2904  -22.4901  -11.2490 N   0  0  0  0  0  0  0  0  0  0  0  0
   18.5539  -23.7585  -11.0165 C   0  0  1  0  0  0  0  0  0  0  0  0
   18.3037  -23.9467   -9.5717 C   0  0  0  0  0  0  0  0  0  0  0  0
   17.6084  -25.1591   -9.1169 C   0  0  0  0  0  0  0  0  0  0  0  0
   17.3527  -25.3480   -7.6755 C   0  0  0  0  0  0  0  0  0  0  0  0
   18.3883  -24.8268   -6.7364 C   0  0  0  0  0  0  0  0  0  0  0  0
   18.1877  -24.9854   -5.3521 N   0  0  0  0  0  0  0  0  0  0  0  0
   17.4037  -23.7552  -11.8848 C   0  0  0  0  0  0  0  0  0  0  0  0
   17.1264  -24.7695  -12.5907 O   0  0  0  0  0  0  0  0  0  0  0  0
   16.5474  -22.6851  -12.0005 O   0  0  0  0  0  0  0  0  0  0  0  0
  2  1  1  1
  3  2  1  0
  4  3  1  0
  4  5  2  0
  6  5  1  0
  7  6  1  0
  8  7  2  0
  9  8  1  0
 10  9  2  0
 10 11  1  0
 11 12  2  0
 12  7  1  0
 12  4  1  0
 13  2  1  0
 13 14  2  0
 15 16  1  0
 16 17  2  0
 18 19  1  0
 18 16  1  0
 20 19  1  6
 20 21  1  0
 21 13  1  0
 22 23  2  0
 22 20  1  0
 24 22  1  0
 25 26  1  1
 25 24  1  0
 26 27  1  0
 27 28  1  0
 28 29  1  0
 29 30  1  0
 31 33  1  0
 31 25  1  0
 32 31  2  0
M  END
$$$$
