WQK.pdb
     RDKit          3D

 33 34  0  0  1  0  0  0  0  0999 V2000
   16.4753  -18.0406    1.6638 N   0  0  0  0  0  0  0  0  0  0  0  0
   16.9401  -18.0733    3.0294 C   0  0  1  0  0  0  0  0  0  0  0  0
   18.2116  -18.8725    3.1617 C   0  0  0  0  0  0  0  0  0  0  0  0
   18.8640  -19.0248    1.8383 C   0  0  0  0  0  0  0  0  0  0  0  0
   18.4537  -19.7576    0.7457 C   0  0  0  0  0  0  0  0  0  0  0  0
   19.3529  -19.6000   -0.2291 N   0  0  0  0  0  0  0  0  0  0  0  0
   20.3508  -18.7901    0.1666 C   0  0  0  0  0  0  0  0  0  0  0  0
   21.4999  -18.3238   -0.4649 C   0  0  0  0  0  0  0  0  0  0  0  0
   22.3705  -17.4794    0.1985 C   0  0  0  0  0  0  0  0  0  0  0  0
   22.0842  -17.1061    1.4942 C   0  0  0  0  0  0  0  0  0  0  0  0
   20.9442  -17.5720    2.1132 C   0  0  0  0  0  0  0  0  0  0  0  0
   20.0508  -18.4218    1.4713 C   0  0  0  0  0  0  0  0  0  0  0  0
   17.1279  -16.6635    3.4936 C   0  0  0  0  0  0  0  0  0  0  0  0
   17.4887  -15.8350    2.6322 O   0  0  0  0  0  0  0  0  0  0  0  0
   13.6599  -11.8210    7.5816 N   0  0  0  0  0  0  0  0  0  0  0  0
   14.0841  -13.0831    7.0773 C   0  0  0  0  0  0  0  0  0  0  0  0
   13.2602  -14.0265    7.0873 O   0  0  0  0  0  0  0  0  0  0  0  0
   15.4715  -13.2740    6.5525 C   0  0  0  0  0  0  0  0  0  0  0  0
   15.5928  -14.6881    6.1009 C   0  0  0  0  0  0  0  0  0  0  0  0
   16.9429  -14.9897    5.4243 C   0  0  2  0  0  0  0  0  0  0  0  0
   16.9203  -16.2594    4.8119 N   0  0  0  0  0  0  0  0  0  0  0  0
   18.0724  -14.6960    6.3078 C   0  0  0  0  0  0  0  0  0  0  0  0
   18.7150  -15.5887    6.9386 O   0  0  0  0  0  0  0  0  0  0  0  0
   18.4928  -13.3574    6.4866 N   0  0  0  0  0  0  0  0  0  0  0  0
   19.6705  -13.0816    7.3479 C   0  0  1  0  0  0  0  0  0  0  0  0
   20.2654  -11.7746    6.9970 C   0  0  0  0  0  0  0  0  0  0  0  0
   21.4604  -11.3144    7.7184 C   0  0  0  0  0  0  0  0  0  0  0  0
   22.0307   -9.9903    7.4017 C   0  0  0  0  0  0  0  0  0  0  0  0
   23.1171   -9.4959    8.2969 C   0  0  0  0  0  0  0  0  0  0  0  0
   23.7199   -8.2569    8.0088 N   0  0  0  0  0  0  0  0  0  0  0  0
   19.2574  -13.2663    8.7162 C   0  0  0  0  0  0  0  0  0  0  0  0
   18.1228  -12.8612    9.1070 O   0  0  0  0  0  0  0  0  0  0  0  0
   20.0395  -13.8825    9.6650 O   0  0  0  0  0  0  0  0  0  0  0  0
  2  1  1  6
  3  2  1  0
  4  3  1  0
  4  5  2  0
  6  5  1  0
  7  6  1  0
  8  7  2  0
  9  8  1  0
 10  9  2  0
 10 11  1  0
 11 12  2  0
 12  7  1  0
 12  4  1  0
 13  2  1  0
 13 14  2  0
 15 16  1  0
 16 17  2  0
 18 19  1  0
 18 16  1  0
 20 19  1  1
 20 21  1  0
 21 13  1  0
 22 23  2  0
 22 20  1  0
 24 22  1  0
 25 26  1  1
 25 24  1  0
 26 27  1  0
 27 28  1  0
 28 29  1  0
 29 30  1  0
 31 33  1  0
 31 25  1  0
 32 31  2  0
M  END
$$$$
