WQK.pdb
     RDKit          3D

 33 34  0  0  1  0  0  0  0  0999 V2000
   26.8922  -11.1448  -15.1324 N   0  0  0  0  0  0  0  0  0  0  0  0
   26.2453  -10.3384  -16.1392 C   0  0  1  0  0  0  0  0  0  0  0  0
   26.2193  -11.0374  -17.4748 C   0  0  0  0  0  0  0  0  0  0  0  0
   27.6013  -11.2918  -17.9497 C   0  0  0  0  0  0  0  0  0  0  0  0
   28.1710  -12.4721  -18.3759 C   0  0  0  0  0  0  0  0  0  0  0  0
   29.4406  -12.2299  -18.7118 N   0  0  0  0  0  0  0  0  0  0  0  0
   29.7455  -10.9333  -18.5277 C   0  0  0  0  0  0  0  0  0  0  0  0
   30.9088  -10.1958  -18.7262 C   0  0  0  0  0  0  0  0  0  0  0  0
   30.9369   -8.8423  -18.4462 C   0  0  0  0  0  0  0  0  0  0  0  0
   29.7962   -8.2338  -17.9678 C   0  0  0  0  0  0  0  0  0  0  0  0
   28.6477   -8.9708  -17.7737 C   0  0  0  0  0  0  0  0  0  0  0  0
   28.5899  -10.3327  -18.0464 C   0  0  0  0  0  0  0  0  0  0  0  0
   24.8646  -10.0144  -15.6630 C   0  0  0  0  0  0  0  0  0  0  0  0
   24.2911  -10.8858  -14.9772 O   0  0  0  0  0  0  0  0  0  0  0  0
   23.1907   -4.1133  -15.0517 N   0  0  0  0  0  0  0  0  0  0  0  0
   21.9785   -4.7346  -14.6377 C   0  0  0  0  0  0  0  0  0  0  0  0
   21.0726   -4.0041  -14.1744 O   0  0  0  0  0  0  0  0  0  0  0  0
   21.7949   -6.2144  -14.7533 C   0  0  0  0  0  0  0  0  0  0  0  0
   23.0408   -6.7792  -15.3425 C   0  0  0  0  0  0  0  0  0  0  0  0
   22.9627   -8.3004  -15.5695 C   0  0  2  0  0  0  0  0  0  0  0  0
   24.2199   -8.8120  -15.9510 N   0  0  0  0  0  0  0  0  0  0  0  0
   21.8140   -8.6690  -16.3984 C   0  0  0  0  0  0  0  0  0  0  0  0
   21.7906   -8.5321  -17.6588 O   0  0  0  0  0  0  0  0  0  0  0  0
   20.6562   -9.2090  -15.7913 N   0  0  0  0  0  0  0  0  0  0  0  0
   19.5012   -9.5807  -16.6473 C   0  0  1  0  0  0  0  0  0  0  0  0
   18.8484  -10.7993  -16.1238 C   0  0  0  0  0  0  0  0  0  0  0  0
   18.7094  -11.9708  -17.0006 C   0  0  0  0  0  0  0  0  0  0  0  0
   18.1817  -13.2318  -16.4437 C   0  0  0  0  0  0  0  0  0  0  0  0
   18.1169  -14.3995  -17.3703 C   0  0  0  0  0  0  0  0  0  0  0  0
   17.8078  -15.6668  -16.8412 N   0  0  0  0  0  0  0  0  0  0  0  0
   18.6766   -8.4078  -16.7929 C   0  0  0  0  0  0  0  0  0  0  0  0
   18.2008   -8.0909  -17.9231 O   0  0  0  0  0  0  0  0  0  0  0  0
   18.3520   -7.5776  -15.7455 O   0  0  0  0  0  0  0  0  0  0  0  0
  2  1  1  1
  3  2  1  0
  4  3  1  0
  4  5  2  0
  6  5  1  0
  7  6  1  0
  8  7  2  0
  9  8  1  0
 10  9  2  0
 10 11  1  0
 11 12  2  0
 12  7  1  0
 12  4  1  0
 13  2  1  0
 13 14  2  0
 15 16  1  0
 16 17  2  0
 18 19  1  0
 18 16  1  0
 20 19  1  6
 20 21  1  0
 21 13  1  0
 22 23  2  0
 22 20  1  0
 24 22  1  0
 25 26  1  1
 25 24  1  0
 26 27  1  0
 27 28  1  0
 28 29  1  0
 29 30  1  0
 31 33  1  0
 31 25  1  0
 32 31  2  0
M  END
$$$$
