WQK.pdb
     RDKit          3D

 33 34  0  0  1  0  0  0  0  0999 V2000
   28.7171  -21.1399  -10.1980 N   0  0  0  0  0  0  0  0  0  0  0  0
   27.3464  -20.9382   -9.7944 C   0  0  1  0  0  0  0  0  0  0  0  0
   27.2461  -19.9725   -8.6411 C   0  0  0  0  0  0  0  0  0  0  0  0
   28.2506  -20.3057   -7.6017 C   0  0  0  0  0  0  0  0  0  0  0  0
   29.3473  -21.1358   -7.6867 C   0  0  0  0  0  0  0  0  0  0  0  0
   29.9693  -21.1346   -6.5049 N   0  0  0  0  0  0  0  0  0  0  0  0
   29.3328  -20.3363   -5.6299 C   0  0  0  0  0  0  0  0  0  0  0  0
   29.5762  -20.0024   -4.3010 C   0  0  0  0  0  0  0  0  0  0  0  0
   28.7351  -19.1332   -3.6314 C   0  0  0  0  0  0  0  0  0  0  0  0
   27.6523  -18.6020   -4.2988 C   0  0  0  0  0  0  0  0  0  0  0  0
   27.4176  -18.9374   -5.6150 C   0  0  0  0  0  0  0  0  0  0  0  0
   28.2457  -19.8083   -6.3136 C   0  0  0  0  0  0  0  0  0  0  0  0
   26.5752  -20.4558  -10.9821 C   0  0  0  0  0  0  0  0  0  0  0  0
   27.2271  -19.8707  -11.8717 O   0  0  0  0  0  0  0  0  0  0  0  0
   25.1830  -24.1532  -14.3988 N   0  0  0  0  0  0  0  0  0  0  0  0
   24.2807  -23.2480  -15.0260 C   0  0  0  0  0  0  0  0  0  0  0  0
   23.6651  -23.6424  -16.0430 O   0  0  0  0  0  0  0  0  0  0  0  0
   24.0759  -21.8687  -14.4850 C   0  0  0  0  0  0  0  0  0  0  0  0
   24.9270  -21.7290  -13.2707 C   0  0  0  0  0  0  0  0  0  0  0  0
   24.3688  -20.7109  -12.2590 C   0  0  2  0  0  0  0  0  0  0  0  0
   25.1991  -20.6322  -11.1223 N   0  0  0  0  0  0  0  0  0  0  0  0
   22.9367  -20.9039  -12.0260 C   0  0  0  0  0  0  0  0  0  0  0  0
   22.4263  -22.0194  -11.7050 O   0  0  0  0  0  0  0  0  0  0  0  0
   22.0515  -19.8086  -12.1572 N   0  0  0  0  0  0  0  0  0  0  0  0
   20.6835  -20.0476  -12.6830 C   0  0  1  0  0  0  0  0  0  0  0  0
   20.7518  -20.6091  -14.0488 C   0  0  0  0  0  0  0  0  0  0  0  0
   19.5038  -20.8598  -14.7837 C   0  0  0  0  0  0  0  0  0  0  0  0
   19.1150  -22.2493  -15.0949 C   0  0  0  0  0  0  0  0  0  0  0  0
   17.8228  -22.4391  -15.8161 C   0  0  0  0  0  0  0  0  0  0  0  0
   17.3666  -23.7495  -16.0538 N   0  0  0  0  0  0  0  0  0  0  0  0
   19.9692  -20.8158  -11.6948 C   0  0  0  0  0  0  0  0  0  0  0  0
   20.1448  -22.0665  -11.6005 O   0  0  0  0  0  0  0  0  0  0  0  0
   19.0776  -20.2613  -10.8063 O   0  0  0  0  0  0  0  0  0  0  0  0
  2  1  1  6
  3  2  1  0
  4  3  1  0
  4  5  2  0
  6  5  1  0
  7  6  1  0
  8  7  2  0
  9  8  1  0
 10  9  2  0
 10 11  1  0
 11 12  2  0
 12  7  1  0
 12  4  1  0
 13  2  1  0
 13 14  2  0
 15 16  1  0
 16 17  2  0
 18 19  1  0
 18 16  1  0
 20 19  1  6
 20 21  1  0
 21 13  1  0
 22 23  2  0
 22 20  1  0
 24 22  1  0
 25 26  1  6
 25 24  1  0
 26 27  1  0
 27 28  1  0
 28 29  1  0
 29 30  1  0
 31 33  1  0
 31 25  1  0
 32 31  2  0
M  END
$$$$
