WQK.pdb
     RDKit          3D

 33 34  0  0  1  0  0  0  0  0999 V2000
   24.1883  -19.9241   -9.2788 N   0  0  0  0  0  0  0  0  0  0  0  0
   25.5528  -20.0179   -9.7386 C   0  0  1  0  0  0  0  0  0  0  0  0
   26.2986  -21.1232   -9.0350 C   0  0  0  0  0  0  0  0  0  0  0  0
   26.4200  -20.8222   -7.5876 C   0  0  0  0  0  0  0  0  0  0  0  0
   25.4859  -20.9758   -6.5862 C   0  0  0  0  0  0  0  0  0  0  0  0
   26.0332  -20.5777   -5.4348 N   0  0  0  0  0  0  0  0  0  0  0  0
   27.2980  -20.1628   -5.6244 C   0  0  0  0  0  0  0  0  0  0  0  0
   28.2716  -19.6658   -4.7631 C   0  0  0  0  0  0  0  0  0  0  0  0
   29.5178  -19.3101   -5.2446 C   0  0  0  0  0  0  0  0  0  0  0  0
   29.7820  -19.4548   -6.5897 C   0  0  0  0  0  0  0  0  0  0  0  0
   28.8128  -19.9477   -7.4368 C   0  0  0  0  0  0  0  0  0  0  0  0
   27.5513  -20.3134   -6.9812 C   0  0  0  0  0  0  0  0  0  0  0  0
   25.5340  -20.2258  -11.2200 C   0  0  0  0  0  0  0  0  0  0  0  0
   24.6458  -20.9807  -11.6671 O   0  0  0  0  0  0  0  0  0  0  0  0
   29.0398  -16.5029  -14.8029 N   0  0  0  0  0  0  0  0  0  0  0  0
   28.5790  -17.3989  -15.8088 C   0  0  0  0  0  0  0  0  0  0  0  0
   28.9243  -17.1805  -16.9928 O   0  0  0  0  0  0  0  0  0  0  0  0
   27.7091  -18.5644  -15.4597 C   0  0  0  0  0  0  0  0  0  0  0  0
   27.5666  -18.5935  -13.9774 C   0  0  0  0  0  0  0  0  0  0  0  0
   26.5953  -19.6837  -13.4879 C   0  0  2  0  0  0  0  0  0  0  0  0
   26.4453  -19.6245  -12.0873 N   0  0  0  0  0  0  0  0  0  0  0  0
   26.9052  -20.9904  -14.0702 C   0  0  0  0  0  0  0  0  0  0  0  0
   27.8137  -21.7547  -13.6250 O   0  0  0  0  0  0  0  0  0  0  0  0
   26.1702  -21.4521  -15.1870 N   0  0  0  0  0  0  0  0  0  0  0  0
   26.4919  -22.7837  -15.7600 C   0  0  1  0  0  0  0  0  0  0  0  0
   25.2528  -23.5613  -15.9730 C   0  0  0  0  0  0  0  0  0  0  0  0
   24.5912  -24.1853  -14.8183 C   0  0  0  0  0  0  0  0  0  0  0  0
   23.3802  -25.0013  -15.0332 C   0  0  0  0  0  0  0  0  0  0  0  0
   22.7402  -25.5854  -13.8186 C   0  0  0  0  0  0  0  0  0  0  0  0
   21.6034  -26.4002  -13.9782 N   0  0  0  0  0  0  0  0  0  0  0  0
   27.3341  -22.5671  -16.9093 C   0  0  0  0  0  0  0  0  0  0  0  0
   27.2855  -21.4738  -17.5468 O   0  0  0  0  0  0  0  0  0  0  0  0
   28.2282  -23.5013  -17.3777 O   0  0  0  0  0  0  0  0  0  0  0  0
  2  1  1  1
  3  2  1  0
  4  3  1  0
  4  5  2  0
  6  5  1  0
  7  6  1  0
  8  7  2  0
  9  8  1  0
 10  9  2  0
 10 11  1  0
 11 12  2  0
 12  7  1  0
 12  4  1  0
 13  2  1  0
 13 14  2  0
 15 16  1  0
 16 17  2  0
 18 19  1  0
 18 16  1  0
 20 19  1  1
 20 21  1  0
 21 13  1  0
 22 23  2  0
 22 20  1  0
 24 22  1  0
 25 26  1  6
 25 24  1  0
 26 27  1  0
 27 28  1  0
 28 29  1  0
 29 30  1  0
 31 33  1  0
 31 25  1  0
 32 31  2  0
M  END
$$$$
