VGQ.pdb
     RDKit          3D

 21 20  0  0  1  0  0  0  0  0999 V2000
    8.3267  -12.9065   17.1737 C   0  0  0  0  0  0  0  0  0  0  0  0
    7.5068  -13.7260   18.1275 C   0  0  2  0  0  0  0  0  0  0  0  0
    7.5704  -13.2190   19.5320 C   0  0  0  0  0  0  0  0  0  0  0  0
    7.8002  -15.2072   18.0276 C   0  0  2  0  0  0  0  0  0  0  0  0
    7.4437  -15.5684   16.6427 N   0  0  0  0  0  0  0  0  0  0  0  0
    7.0144  -16.0463   18.9328 C   0  0  0  0  0  0  0  0  0  0  0  0
    5.7596  -15.8188   19.0298 O   0  0  0  0  0  0  0  0  0  0  0  0
    7.5172  -17.1057   19.7256 N   0  0  0  0  0  0  0  0  0  0  0  0
    6.7248  -17.6617   20.7612 C   0  0  0  0  0  0  0  0  0  0  0  0
    7.3688  -17.9041   22.0450 C   0  0  0  0  0  0  0  0  0  0  0  0
    8.5544  -18.3811   21.9863 O   0  0  0  0  0  0  0  0  0  0  0  0
   10.9232  -15.1173   24.6247 N   0  0  0  0  0  0  0  0  0  0  0  0
    9.6766  -14.6967   24.1236 C   0  0  0  0  0  0  0  0  0  0  0  0
    9.6174  -13.4937   23.6975 O   0  0  0  0  0  0  0  0  0  0  0  0
    8.4770  -15.5727   24.0768 C   0  0  0  0  0  0  0  0  0  0  0  0
    8.7813  -16.9404   24.6833 C   0  0  0  0  0  0  0  0  0  0  0  0
    7.6037  -17.8676   24.5543 C   0  0  2  0  0  0  0  0  0  0  0  0
    6.8654  -17.6876   23.3363 N   0  0  0  0  0  0  0  0  0  0  0  0
    6.7304  -17.8102   25.7508 C   0  0  0  0  0  0  0  0  0  0  0  0
    5.5660  -17.3605   25.6194 O   0  0  0  0  0  0  0  0  0  0  0  0
    7.1170  -18.2231   27.0135 O   0  0  0  0  0  0  0  0  0  0  0  0
  2  1  1  6
  2  3  1  0
  4  2  1  0
  4  5  1  6
  6  4  1  0
  6  7  2  0
  8  6  1  0
  9  8  1  0
  9 10  1  0
 10 18  1  0
 11 10  2  0
 13 15  1  0
 13 12  1  0
 14 13  2  0
 17 16  1  1
 16 15  1  0
 17 19  1  0
 18 17  1  0
 19 20  2  0
 19 21  1  0
M  END
$$$$
