VGQ.pdb
     RDKit          3D

 21 20  0  0  1  0  0  0  0  0999 V2000
    7.6023  -15.5647   19.7869 C   0  0  0  0  0  0  0  0  0  0  0  0
    7.2260  -14.1273   20.0011 C   0  0  2  0  0  0  0  0  0  0  0  0
    6.4325  -13.5597   18.8688 C   0  0  0  0  0  0  0  0  0  0  0  0
    8.4099  -13.2624   20.3756 C   0  0  2  0  0  0  0  0  0  0  0  0
    9.2588  -13.2445   19.1695 N   0  0  0  0  0  0  0  0  0  0  0  0
    9.2110  -13.7748   21.4876 C   0  0  0  0  0  0  0  0  0  0  0  0
   10.3085  -14.3725   21.2156 O   0  0  0  0  0  0  0  0  0  0  0  0
    8.8838  -13.6707   22.8609 N   0  0  0  0  0  0  0  0  0  0  0  0
    9.7568  -14.1977   23.8455 C   0  0  0  0  0  0  0  0  0  0  0  0
    9.5868  -15.5960   24.2166 C   0  0  0  0  0  0  0  0  0  0  0  0
    8.3914  -16.0454   24.1418 O   0  0  0  0  0  0  0  0  0  0  0  0
   13.8039  -18.7788   21.6620 N   0  0  0  0  0  0  0  0  0  0  0  0
   13.0795  -18.2784   22.7607 C   0  0  0  0  0  0  0  0  0  0  0  0
   13.7469  -17.6024   23.6149 O   0  0  0  0  0  0  0  0  0  0  0  0
   11.6226  -18.5031   22.9496 C   0  0  0  0  0  0  0  0  0  0  0  0
   11.3113  -18.8423   24.4053 C   0  0  0  0  0  0  0  0  0  0  0  0
   10.3017  -17.8883   24.9828 C   0  0  2  0  0  0  0  0  0  0  0  0
   10.5547  -16.5158   24.6465 N   0  0  0  0  0  0  0  0  0  0  0  0
   10.1382  -18.0849   26.4430 C   0  0  0  0  0  0  0  0  0  0  0  0
   10.3375  -17.1064   27.2035 O   0  0  0  0  0  0  0  0  0  0  0  0
    9.7775  -19.2855   27.0283 O   0  0  0  0  0  0  0  0  0  0  0  0
  2  1  1  6
  2  3  1  0
  4  2  1  0
  4  5  1  6
  6  4  1  0
  6  7  2  0
  8  6  1  0
  9  8  1  0
  9 10  1  0
 10 18  1  0
 11 10  2  0
 13 15  1  0
 13 12  1  0
 14 13  2  0
 17 16  1  1
 16 15  1  0
 17 19  1  0
 18 17  1  0
 19 20  2  0
 19 21  1  0
M  END
$$$$
