VGQ.pdb
     RDKit          3D

 21 20  0  0  1  0  0  0  0  0999 V2000
    8.0655  -12.5783   20.5231 C   0  0  0  0  0  0  0  0  0  0  0  0
    8.4582  -13.2823   19.2567 C   0  0  2  0  0  0  0  0  0  0  0  0
    7.7439  -12.7559   18.0540 C   0  0  0  0  0  0  0  0  0  0  0  0
    8.3721  -14.7885   19.3741 C   0  0  2  0  0  0  0  0  0  0  0  0
    6.9377  -15.0687   19.5726 N   0  0  0  0  0  0  0  0  0  0  0  0
    9.1065  -15.3542   20.5063 C   0  0  0  0  0  0  0  0  0  0  0  0
   10.3210  -15.7094   20.3209 O   0  0  0  0  0  0  0  0  0  0  0  0
    8.5940  -15.5494   21.8112 N   0  0  0  0  0  0  0  0  0  0  0  0
    9.3551  -16.2500   22.7805 C   0  0  0  0  0  0  0  0  0  0  0  0
    8.7906  -16.3754   24.1174 C   0  0  0  0  0  0  0  0  0  0  0  0
    7.9740  -17.3463   24.2828 O   0  0  0  0  0  0  0  0  0  0  0  0
    9.8551  -13.6349   29.7775 N   0  0  0  0  0  0  0  0  0  0  0  0
   10.2880  -14.8603   29.2363 C   0  0  0  0  0  0  0  0  0  0  0  0
   11.2475  -15.4395   29.8495 O   0  0  0  0  0  0  0  0  0  0  0  0
    9.6880  -15.4756   28.0238 C   0  0  0  0  0  0  0  0  0  0  0  0
    8.5842  -14.5869   27.4554 C   0  0  0  0  0  0  0  0  0  0  0  0
    8.0157  -15.1674   26.1893 C   0  0  2  0  0  0  0  0  0  0  0  0
    9.0187  -15.5758   25.2470 N   0  0  0  0  0  0  0  0  0  0  0  0
    7.0099  -14.2653   25.5792 C   0  0  0  0  0  0  0  0  0  0  0  0
    5.9239  -14.0866   26.1824 O   0  0  0  0  0  0  0  0  0  0  0  0
    7.1904  -13.6017   24.3786 O   0  0  0  0  0  0  0  0  0  0  0  0
  2  1  1  1
  2  3  1  0
  4  2  1  0
  4  5  1  1
  6  4  1  0
  6  7  2  0
  8  6  1  0
  9  8  1  0
  9 10  1  0
 10 18  1  0
 11 10  2  0
 13 15  1  0
 13 12  1  0
 14 13  2  0
 17 16  1  1
 16 15  1  0
 17 19  1  0
 18 17  1  0
 19 20  2  0
 19 21  1  0
M  END
$$$$
