VGQ.pdb
     RDKit          3D

 21 20  0  0  1  0  0  0  0  0999 V2000
    7.8660  -12.1819   26.7267 C   0  0  0  0  0  0  0  0  0  0  0  0
    6.7247  -12.3618   25.7683 C   0  0  2  0  0  0  0  0  0  0  0  0
    5.4214  -11.8818   26.3204 C   0  0  0  0  0  0  0  0  0  0  0  0
    6.6419  -13.7678   25.2149 C   0  0  2  0  0  0  0  0  0  0  0  0
    6.3465  -14.6156   26.3851 N   0  0  0  0  0  0  0  0  0  0  0  0
    7.8779  -14.2547   24.6015 C   0  0  0  0  0  0  0  0  0  0  0  0
    8.9184  -14.3554   25.3383 O   0  0  0  0  0  0  0  0  0  0  0  0
    8.0367  -14.6331   23.2467 N   0  0  0  0  0  0  0  0  0  0  0  0
    9.3259  -14.9186   22.7309 C   0  0  0  0  0  0  0  0  0  0  0  0
   10.1234  -15.9183   23.4281 C   0  0  0  0  0  0  0  0  0  0  0  0
   11.3778  -15.8964   23.1776 O   0  0  0  0  0  0  0  0  0  0  0  0
   10.4310  -14.3990   28.5573 N   0  0  0  0  0  0  0  0  0  0  0  0
   11.1382  -15.5970   28.7738 C   0  0  0  0  0  0  0  0  0  0  0  0
   11.5321  -15.8105   29.9701 O   0  0  0  0  0  0  0  0  0  0  0  0
   11.4285  -16.5803   27.6979 C   0  0  0  0  0  0  0  0  0  0  0  0
   10.8409  -16.1162   26.3672 C   0  0  0  0  0  0  0  0  0  0  0  0
   10.4061  -17.2856   25.5266 C   0  0  2  0  0  0  0  0  0  0  0  0
    9.7032  -16.9027   24.3348 N   0  0  0  0  0  0  0  0  0  0  0  0
    9.6515  -18.2808   26.3251 C   0  0  0  0  0  0  0  0  0  0  0  0
    8.3973  -18.2479   26.2898 O   0  0  0  0  0  0  0  0  0  0  0  0
   10.2429  -19.2519   27.1134 O   0  0  0  0  0  0  0  0  0  0  0  0
  2  1  1  1
  2  3  1  0
  4  2  1  0
  4  5  1  1
  6  4  1  0
  6  7  2  0
  8  6  1  0
  9  8  1  0
  9 10  1  0
 10 18  1  0
 11 10  2  0
 13 15  1  0
 13 12  1  0
 14 13  2  0
 17 16  1  1
 16 15  1  0
 17 19  1  0
 18 17  1  0
 19 20  2  0
 19 21  1  0
M  END
$$$$
