VGQ.pdb
     RDKit          3D

 21 20  0  0  1  0  0  0  0  0999 V2000
    8.5143  -14.6302   19.5559 C   0  0  0  0  0  0  0  0  0  0  0  0
    7.2325  -14.2443   20.2354 C   0  0  2  0  0  0  0  0  0  0  0  0
    6.5188  -13.1306   19.5397 C   0  0  0  0  0  0  0  0  0  0  0  0
    7.4095  -13.9893   21.7164 C   0  0  2  0  0  0  0  0  0  0  0  0
    8.2536  -12.7820   21.7917 N   0  0  0  0  0  0  0  0  0  0  0  0
    8.0872  -15.0636   22.4429 C   0  0  0  0  0  0  0  0  0  0  0  0
    7.3913  -16.0665   22.8243 O   0  0  0  0  0  0  0  0  0  0  0  0
    9.4639  -15.1018   22.7698 N   0  0  0  0  0  0  0  0  0  0  0  0
    9.9807  -16.1559   23.5643 C   0  0  0  0  0  0  0  0  0  0  0  0
   10.1469  -15.9052   24.9896 C   0  0  0  0  0  0  0  0  0  0  0  0
   11.2418  -16.3263   25.4999 O   0  0  0  0  0  0  0  0  0  0  0  0
    6.2197  -13.7008   26.3432 N   0  0  0  0  0  0  0  0  0  0  0  0
    7.1482  -12.6583   26.1614 C   0  0  0  0  0  0  0  0  0  0  0  0
    6.7833  -11.7067   25.3910 O   0  0  0  0  0  0  0  0  0  0  0  0
    8.4845  -12.6316   26.8112 C   0  0  0  0  0  0  0  0  0  0  0  0
    8.6478  -13.8148   27.7623 C   0  0  0  0  0  0  0  0  0  0  0  0
    9.6048  -14.8331   27.2053 C   0  0  2  0  0  0  0  0  0  0  0  0
    9.2695  -15.2668   25.8785 N   0  0  0  0  0  0  0  0  0  0  0  0
    9.7913  -15.9725   28.1353 C   0  0  0  0  0  0  0  0  0  0  0  0
    9.3332  -17.0936   27.8058 O   0  0  0  0  0  0  0  0  0  0  0  0
   10.4425  -15.8813   29.3526 O   0  0  0  0  0  0  0  0  0  0  0  0
  2  1  1  6
  2  3  1  0
  4  2  1  0
  4  5  1  6
  6  4  1  0
  6  7  2  0
  8  6  1  0
  9  8  1  0
  9 10  1  0
 10 18  1  0
 11 10  2  0
 13 15  1  0
 13 12  1  0
 14 13  2  0
 17 16  1  1
 16 15  1  0
 17 19  1  0
 18 17  1  0
 19 20  2  0
 19 21  1  0
M  END
$$$$
