VGQ.pdb
     RDKit          3D

 21 20  0  0  1  0  0  0  0  0999 V2000
    4.3253  -18.7850   19.9032 C   0  0  0  0  0  0  0  0  0  0  0  0
    3.8978  -20.0469   20.5947 C   0  0  2  0  0  0  0  0  0  0  0  0
    2.6950  -20.6742   19.9673 C   0  0  0  0  0  0  0  0  0  0  0  0
    3.7523  -19.8734   22.0909 C   0  0  2  0  0  0  0  0  0  0  0  0
    2.4987  -19.1151   22.2612 N   0  0  0  0  0  0  0  0  0  0  0  0
    4.8317  -19.1150   22.7240 C   0  0  0  0  0  0  0  0  0  0  0  0
    5.9288  -19.7222   22.9755 O   0  0  0  0  0  0  0  0  0  0  0  0
    4.7790  -17.7490   23.0912 N   0  0  0  0  0  0  0  0  0  0  0  0
    5.9032  -17.1257   23.6886 C   0  0  0  0  0  0  0  0  0  0  0  0
    6.3247  -17.6091   24.9965 C   0  0  0  0  0  0  0  0  0  0  0  0
    5.5994  -17.2369   25.9824 O   0  0  0  0  0  0  0  0  0  0  0  0
    5.8191  -22.5511   28.8065 N   0  0  0  0  0  0  0  0  0  0  0  0
    6.9262  -21.9447   28.1831 C   0  0  0  0  0  0  0  0  0  0  0  0
    8.0762  -22.2770   28.6294 O   0  0  0  0  0  0  0  0  0  0  0  0
    6.8035  -20.9701   27.0679 C   0  0  0  0  0  0  0  0  0  0  0  0
    8.1090  -20.2027   26.8732 C   0  0  0  0  0  0  0  0  0  0  0  0
    7.8517  -18.7368   26.6547 C   0  0  2  0  0  0  0  0  0  0  0  0
    7.4182  -18.4251   25.3221 N   0  0  0  0  0  0  0  0  0  0  0  0
    9.0096  -17.9112   27.0732 C   0  0  0  0  0  0  0  0  0  0  0  0
    9.6429  -17.2803   26.1922 O   0  0  0  0  0  0  0  0  0  0  0  0
    9.4423  -17.7889   28.3817 O   0  0  0  0  0  0  0  0  0  0  0  0
  2  1  1  6
  2  3  1  0
  4  2  1  0
  4  5  1  6
  6  4  1  0
  6  7  2  0
  8  6  1  0
  9  8  1  0
  9 10  1  0
 10 18  1  0
 11 10  2  0
 13 15  1  0
 13 12  1  0
 14 13  2  0
 17 16  1  6
 16 15  1  0
 17 19  1  0
 18 17  1  0
 19 20  2  0
 19 21  1  0
M  END
$$$$
