VGQ.pdb
     RDKit          3D

 21 20  0  0  1  0  0  0  0  0999 V2000
    7.1901  -14.8859   19.5499 C   0  0  0  0  0  0  0  0  0  0  0  0
    7.1024  -16.3845   19.5650 C   0  0  2  0  0  0  0  0  0  0  0  0
    5.7523  -16.8913   19.1726 C   0  0  0  0  0  0  0  0  0  0  0  0
    7.5975  -16.9861   20.8623 C   0  0  2  0  0  0  0  0  0  0  0  0
    6.6230  -16.5443   21.8775 N   0  0  0  0  0  0  0  0  0  0  0  0
    8.9245  -16.5307   21.2777 C   0  0  0  0  0  0  0  0  0  0  0  0
    9.9467  -17.1191   20.7832 O   0  0  0  0  0  0  0  0  0  0  0  0
    9.1920  -15.4819   22.1900 N   0  0  0  0  0  0  0  0  0  0  0  0
   10.5278  -15.1656   22.5435 C   0  0  0  0  0  0  0  0  0  0  0  0
   10.9676  -15.5105   23.8886 C   0  0  0  0  0  0  0  0  0  0  0  0
   12.1936  -15.2555   24.1508 O   0  0  0  0  0  0  0  0  0  0  0  0
   11.6256  -15.4111   30.2946 N   0  0  0  0  0  0  0  0  0  0  0  0
   10.6698  -14.7211   29.5250 C   0  0  0  0  0  0  0  0  0  0  0  0
    9.6701  -14.2452   30.1624 O   0  0  0  0  0  0  0  0  0  0  0  0
   10.7831  -14.5370   28.0546 C   0  0  0  0  0  0  0  0  0  0  0  0
    9.9158  -15.5517   27.3134 C   0  0  0  0  0  0  0  0  0  0  0  0
   10.7113  -16.2901   26.2718 C   0  0  2  0  0  0  0  0  0  0  0  0
   10.2308  -16.0857   24.9345 N   0  0  0  0  0  0  0  0  0  0  0  0
   10.8432  -17.7287   26.6045 C   0  0  0  0  0  0  0  0  0  0  0  0
    9.9805  -18.5257   26.1619 O   0  0  0  0  0  0  0  0  0  0  0  0
   11.8629  -18.2557   27.3770 O   0  0  0  0  0  0  0  0  0  0  0  0
  2  1  1  1
  2  3  1  0
  4  2  1  0
  4  5  1  1
  6  4  1  0
  6  7  2  0
  8  6  1  0
  9  8  1  0
  9 10  1  0
 10 18  1  0
 11 10  2  0
 13 15  1  0
 13 12  1  0
 14 13  2  0
 17 16  1  1
 16 15  1  0
 17 19  1  0
 18 17  1  0
 19 20  2  0
 19 21  1  0
M  END
$$$$
