VGQ.pdb
     RDKit          3D

 21 20  0  0  1  0  0  0  0  0999 V2000
    6.1287  -11.9069   26.9970 C   0  0  0  0  0  0  0  0  0  0  0  0
    6.8952  -12.4818   25.8413 C   0  0  2  0  0  0  0  0  0  0  0  0
    6.7629  -11.6684   24.5945 C   0  0  0  0  0  0  0  0  0  0  0  0
    6.5998  -13.9487   25.6156 C   0  0  2  0  0  0  0  0  0  0  0  0
    6.9034  -14.5961   26.9056 N   0  0  0  0  0  0  0  0  0  0  0  0
    7.4208  -14.5837   24.5841 C   0  0  0  0  0  0  0  0  0  0  0  0
    6.8291  -15.2552   23.6705 O   0  0  0  0  0  0  0  0  0  0  0  0
    8.8324  -14.5252   24.4972 N   0  0  0  0  0  0  0  0  0  0  0  0
    9.5175  -15.2572   23.4951 C   0  0  0  0  0  0  0  0  0  0  0  0
   10.4476  -16.2893   23.9328 C   0  0  0  0  0  0  0  0  0  0  0  0
   10.4992  -17.3341   23.1964 O   0  0  0  0  0  0  0  0  0  0  0  0
   12.0520  -17.4718   30.3856 N   0  0  0  0  0  0  0  0  0  0  0  0
   10.9986  -16.8372   29.7003 C   0  0  0  0  0  0  0  0  0  0  0  0
   10.6554  -15.6863   30.1359 O   0  0  0  0  0  0  0  0  0  0  0  0
   10.3021  -17.4401   28.5340 C   0  0  0  0  0  0  0  0  0  0  0  0
   10.3742  -16.5138   27.3223 C   0  0  0  0  0  0  0  0  0  0  0  0
   11.1459  -17.1479   26.1973 C   0  0  2  0  0  0  0  0  0  0  0  0
   11.2925  -16.2942   25.0525 N   0  0  0  0  0  0  0  0  0  0  0  0
   10.5937  -18.4757   25.8373 C   0  0  0  0  0  0  0  0  0  0  0  0
   11.3420  -19.4791   25.9308 O   0  0  0  0  0  0  0  0  0  0  0  0
    9.2973  -18.6842   25.4015 O   0  0  0  0  0  0  0  0  0  0  0  0
  2  1  1  1
  2  3  1  0
  4  2  1  0
  4  5  1  1
  6  4  1  0
  6  7  2  0
  8  6  1  0
  9  8  1  0
  9 10  1  0
 10 18  1  0
 11 10  2  0
 13 15  1  0
 13 12  1  0
 14 13  2  0
 17 16  1  1
 16 15  1  0
 17 19  1  0
 18 17  1  0
 19 20  2  0
 19 21  1  0
M  END
$$$$
