VGQ.pdb
     RDKit          3D

 21 20  0  0  1  0  0  0  0  0999 V2000
    7.7148  -19.7737   19.9970 C   0  0  0  0  0  0  0  0  0  0  0  0
    7.8117  -19.0699   18.6746 C   0  0  2  0  0  0  0  0  0  0  0  0
    8.1935  -19.9849   17.5562 C   0  0  0  0  0  0  0  0  0  0  0  0
    8.6758  -17.8290   18.7345 C   0  0  2  0  0  0  0  0  0  0  0  0
   10.0249  -18.3259   19.0641 N   0  0  0  0  0  0  0  0  0  0  0  0
    8.2840  -16.8629   19.7613 C   0  0  0  0  0  0  0  0  0  0  0  0
    7.1618  -16.2639   19.6294 O   0  0  0  0  0  0  0  0  0  0  0  0
    9.0400  -16.5212   20.9082 N   0  0  0  0  0  0  0  0  0  0  0  0
    8.5182  -15.6131   21.8635 C   0  0  0  0  0  0  0  0  0  0  0  0
    9.3199  -15.3517   23.0513 C   0  0  0  0  0  0  0  0  0  0  0  0
    9.9525  -16.3587   23.5229 O   0  0  0  0  0  0  0  0  0  0  0  0
    5.9035  -11.0105   27.1174 N   0  0  0  0  0  0  0  0  0  0  0  0
    6.0583  -12.3777   26.8191 C   0  0  0  0  0  0  0  0  0  0  0  0
    4.9810  -13.0418   26.6443 O   0  0  0  0  0  0  0  0  0  0  0  0
    7.3816  -13.0446   26.7058 C   0  0  0  0  0  0  0  0  0  0  0  0
    7.8038  -13.1652   25.2435 C   0  0  0  0  0  0  0  0  0  0  0  0
    9.1007  -13.9159   25.1113 C   0  0  2  0  0  0  0  0  0  0  0  0
    9.4910  -14.1470   23.7493 N   0  0  0  0  0  0  0  0  0  0  0  0
    9.0919  -15.1649   25.9097 C   0  0  0  0  0  0  0  0  0  0  0  0
    9.8067  -15.2202   26.9400 O   0  0  0  0  0  0  0  0  0  0  0  0
    8.3418  -16.2832   25.5920 O   0  0  0  0  0  0  0  0  0  0  0  0
  2  1  1  1
  2  3  1  0
  4  2  1  0
  4  5  1  1
  6  4  1  0
  6  7  2  0
  8  6  1  0
  9  8  1  0
  9 10  1  0
 10 18  1  0
 11 10  2  0
 13 15  1  0
 13 12  1  0
 14 13  2  0
 17 16  1  6
 16 15  1  0
 17 19  1  0
 18 17  1  0
 19 20  2  0
 19 21  1  0
M  END
$$$$
