VGQ.pdb
     RDKit          3D

 21 20  0  0  1  0  0  0  0  0999 V2000
    7.4029  -12.5864   20.2898 C   0  0  0  0  0  0  0  0  0  0  0  0
    8.3406  -13.5542   19.6283 C   0  0  2  0  0  0  0  0  0  0  0  0
    7.9838  -13.8264   18.2027 C   0  0  0  0  0  0  0  0  0  0  0  0
    8.5374  -14.8206   20.4329 C   0  0  2  0  0  0  0  0  0  0  0  0
    7.2344  -15.5093   20.3745 N   0  0  0  0  0  0  0  0  0  0  0  0
    8.8732  -14.6021   21.8403 C   0  0  0  0  0  0  0  0  0  0  0  0
   10.0644  -14.2352   22.1265 O   0  0  0  0  0  0  0  0  0  0  0  0
    7.9910  -14.7595   22.9361 N   0  0  0  0  0  0  0  0  0  0  0  0
    8.3873  -14.3567   24.2361 C   0  0  0  0  0  0  0  0  0  0  0  0
    8.9745  -15.3682   25.1043 C   0  0  0  0  0  0  0  0  0  0  0  0
    8.2274  -16.3738   25.3639 O   0  0  0  0  0  0  0  0  0  0  0  0
    8.6637  -13.4368   27.7975 N   0  0  0  0  0  0  0  0  0  0  0  0
    9.9328  -13.9504   28.1254 C   0  0  0  0  0  0  0  0  0  0  0  0
   10.9353  -13.2352   27.7856 O   0  0  0  0  0  0  0  0  0  0  0  0
   10.1340  -15.2457   28.8258 C   0  0  0  0  0  0  0  0  0  0  0  0
    9.8417  -16.4175   27.8916 C   0  0  0  0  0  0  0  0  0  0  0  0
   10.6978  -16.3557   26.6561 C   0  0  2  0  0  0  0  0  0  0  0  0
   10.2463  -15.3889   25.6957 N   0  0  0  0  0  0  0  0  0  0  0  0
   10.8837  -17.6973   26.0535 C   0  0  0  0  0  0  0  0  0  0  0  0
   10.5130  -17.8761   24.8678 O   0  0  0  0  0  0  0  0  0  0  0  0
   11.4436  -18.7746   26.7170 O   0  0  0  0  0  0  0  0  0  0  0  0
  2  1  1  1
  2  3  1  0
  4  2  1  0
  4  5  1  1
  6  4  1  0
  6  7  2  0
  8  6  1  0
  9  8  1  0
  9 10  1  0
 10 18  1  0
 11 10  2  0
 13 15  1  0
 13 12  1  0
 14 13  2  0
 17 16  1  1
 16 15  1  0
 17 19  1  0
 18 17  1  0
 19 20  2  0
 19 21  1  0
M  END
$$$$
