VGQ.pdb
     RDKit          3D

 21 20  0  0  1  0  0  0  0  0999 V2000
    7.6851  -12.5983   20.9823 C   0  0  0  0  0  0  0  0  0  0  0  0
    8.2318  -13.2994   19.7727 C   0  0  2  0  0  0  0  0  0  0  0  0
    8.0145  -12.5319   18.5088 C   0  0  0  0  0  0  0  0  0  0  0  0
    7.7682  -14.7363   19.6703 C   0  0  2  0  0  0  0  0  0  0  0  0
    6.3743  -14.6486   19.1963 N   0  0  0  0  0  0  0  0  0  0  0  0
    7.7724  -15.4694   20.9366 C   0  0  0  0  0  0  0  0  0  0  0  0
    6.8201  -15.2529   21.7624 O   0  0  0  0  0  0  0  0  0  0  0  0
    8.7456  -16.4132   21.3437 N   0  0  0  0  0  0  0  0  0  0  0  0
    8.6726  -17.0056   22.6295 C   0  0  0  0  0  0  0  0  0  0  0  0
    9.5184  -16.4480   23.6762 C   0  0  0  0  0  0  0  0  0  0  0  0
   10.5162  -15.7579   23.2704 O   0  0  0  0  0  0  0  0  0  0  0  0
   10.8809  -14.1161   30.5927 N   0  0  0  0  0  0  0  0  0  0  0  0
   10.2121  -14.2781   29.3645 C   0  0  0  0  0  0  0  0  0  0  0  0
    9.0193  -13.8240   29.3082 O   0  0  0  0  0  0  0  0  0  0  0  0
   10.8255  -14.9340   28.1804 C   0  0  0  0  0  0  0  0  0  0  0  0
    9.7492  -15.4214   27.2133 C   0  0  0  0  0  0  0  0  0  0  0  0
   10.3577  -16.1246   26.0308 C   0  0  2  0  0  0  0  0  0  0  0  0
    9.3889  -16.5664   25.0679 N   0  0  0  0  0  0  0  0  0  0  0  0
   11.2643  -17.2185   26.4538 C   0  0  0  0  0  0  0  0  0  0  0  0
   12.4744  -16.9492   26.6498 O   0  0  0  0  0  0  0  0  0  0  0  0
   10.8617  -18.5279   26.6484 O   0  0  0  0  0  0  0  0  0  0  0  0
  2  1  1  1
  2  3  1  0
  4  2  1  0
  4  5  1  1
  6  4  1  0
  6  7  2  0
  8  6  1  0
  9  8  1  0
  9 10  1  0
 10 18  1  0
 11 10  2  0
 13 15  1  0
 13 12  1  0
 14 13  2  0
 17 16  1  1
 16 15  1  0
 17 19  1  0
 18 17  1  0
 19 20  2  0
 19 21  1  0
M  END
$$$$
