VGQ.pdb
     RDKit          3D

 21 20  0  0  1  0  0  0  0  0999 V2000
    6.5202  -14.1215   18.3425 C   0  0  0  0  0  0  0  0  0  0  0  0
    7.8922  -13.5154   18.4048 C   0  0  2  0  0  0  0  0  0  0  0  0
    8.9392  -14.3833   17.7849 C   0  0  0  0  0  0  0  0  0  0  0  0
    8.2652  -13.0543   19.7969 C   0  0  2  0  0  0  0  0  0  0  0  0
    9.5646  -12.3761   19.6327 N   0  0  0  0  0  0  0  0  0  0  0  0
    8.4355  -14.1331   20.7708 C   0  0  0  0  0  0  0  0  0  0  0  0
    7.3879  -14.7206   21.2100 O   0  0  0  0  0  0  0  0  0  0  0  0
    9.6702  -14.5989   21.2828 N   0  0  0  0  0  0  0  0  0  0  0  0
    9.7112  -15.7436   22.1180 C   0  0  0  0  0  0  0  0  0  0  0  0
    9.6120  -15.5316   23.5557 C   0  0  0  0  0  0  0  0  0  0  0  0
   10.7257  -15.4623   24.1814 O   0  0  0  0  0  0  0  0  0  0  0  0
    6.3228  -11.3051   25.9139 N   0  0  0  0  0  0  0  0  0  0  0  0
    6.7261  -12.5731   26.3738 C   0  0  0  0  0  0  0  0  0  0  0  0
    7.4053  -12.5904   27.4557 O   0  0  0  0  0  0  0  0  0  0  0  0
    6.3995  -13.8400   25.6687 C   0  0  0  0  0  0  0  0  0  0  0  0
    7.0792  -15.0275   26.3462 C   0  0  0  0  0  0  0  0  0  0  0  0
    8.4509  -15.2673   25.7771 C   0  0  2  0  0  0  0  0  0  0  0  0
    8.4621  -15.3952   24.3473 N   0  0  0  0  0  0  0  0  0  0  0  0
    9.1277  -16.4045   26.4452 C   0  0  0  0  0  0  0  0  0  0  0  0
    9.2314  -17.4883   25.8207 O   0  0  0  0  0  0  0  0  0  0  0  0
    9.6571  -16.3501   27.7223 O   0  0  0  0  0  0  0  0  0  0  0  0
  2  1  1  1
  2  3  1  0
  4  2  1  0
  4  5  1  6
  6  4  1  0
  6  7  2  0
  8  6  1  0
  9  8  1  0
  9 10  1  0
 10 18  1  0
 11 10  2  0
 13 15  1  0
 13 12  1  0
 14 13  2  0
 17 16  1  1
 16 15  1  0
 17 19  1  0
 18 17  1  0
 19 20  2  0
 19 21  1  0
M  END
$$$$
