VGQ.pdb
     RDKit          3D

 21 20  0  0  1  0  0  0  0  0999 V2000
    7.7469  -12.6173   20.4243 C   0  0  0  0  0  0  0  0  0  0  0  0
    8.5208  -13.4269   19.4245 C   0  0  2  0  0  0  0  0  0  0  0  0
    8.4653  -12.8538   18.0453 C   0  0  0  0  0  0  0  0  0  0  0  0
    8.1640  -14.8970   19.4607 C   0  0  2  0  0  0  0  0  0  0  0  0
    6.8344  -14.9768   18.8271 N   0  0  0  0  0  0  0  0  0  0  0  0
    8.0617  -15.4661   20.8048 C   0  0  0  0  0  0  0  0  0  0  0  0
    6.9417  -15.3746   21.4153 O   0  0  0  0  0  0  0  0  0  0  0  0
    9.1011  -16.1212   21.5079 N   0  0  0  0  0  0  0  0  0  0  0  0
    8.8612  -16.6649   22.7948 C   0  0  0  0  0  0  0  0  0  0  0  0
    9.2518  -15.8641   23.9472 C   0  0  0  0  0  0  0  0  0  0  0  0
   10.5092  -15.6732   24.0859 O   0  0  0  0  0  0  0  0  0  0  0  0
    5.6090  -10.8547   26.2960 N   0  0  0  0  0  0  0  0  0  0  0  0
    6.1820  -12.0644   26.7322 C   0  0  0  0  0  0  0  0  0  0  0  0
    5.6307  -12.6167   27.7437 O   0  0  0  0  0  0  0  0  0  0  0  0
    7.3600  -12.6928   26.0792 C   0  0  0  0  0  0  0  0  0  0  0  0
    7.8388  -13.9038   26.8763 C   0  0  0  0  0  0  0  0  0  0  0  0
    8.9082  -14.6567   26.1329 C   0  0  2  0  0  0  0  0  0  0  0  0
    8.4375  -15.2757   24.9261 N   0  0  0  0  0  0  0  0  0  0  0  0
    9.6131  -15.6170   27.0153 C   0  0  0  0  0  0  0  0  0  0  0  0
   10.4238  -15.1667   27.8612 O   0  0  0  0  0  0  0  0  0  0  0  0
    9.4352  -16.9882   26.9680 O   0  0  0  0  0  0  0  0  0  0  0  0
  2  1  1  1
  2  3  1  0
  4  2  1  0
  4  5  1  1
  6  4  1  0
  6  7  2  0
  8  6  1  0
  9  8  1  0
  9 10  1  0
 10 18  1  0
 11 10  2  0
 13 15  1  0
 13 12  1  0
 14 13  2  0
 17 16  1  1
 16 15  1  0
 17 19  1  0
 18 17  1  0
 19 20  2  0
 19 21  1  0
M  END
$$$$
