HTH.pdb
     RDKit          3D

 28 29  0  0  1  0  0  0  0  0999 V2000
   12.0580  -15.8723   16.4449 N   0  0  0  0  0  0  0  0  0  0  0  0
   10.8514  -16.2859   17.0906 C   0  0  1  0  0  0  0  0  0  0  0  0
   10.8667  -17.7811   17.3281 C   0  0  0  0  0  0  0  0  0  0  0  0
   10.8208  -18.5143   16.0446 C   0  0  0  0  0  0  0  0  0  0  0  0
    9.7687  -18.6179   15.1481 C   0  0  0  0  0  0  0  0  0  0  0  0
   10.2066  -19.3820   14.1425 N   0  0  0  0  0  0  0  0  0  0  0  0
   11.4770  -19.7558   14.3731 C   0  0  0  0  0  0  0  0  0  0  0  0
   11.8553  -19.2251   15.5383 N   0  0  0  0  0  0  0  0  0  0  0  0
   10.6534  -15.5988   18.4073 C   0  0  0  0  0  0  0  0  0  0  0  0
   11.6372  -15.5087   19.1859 O   0  0  0  0  0  0  0  0  0  0  0  0
    8.1442  -12.4134   19.1528 C   0  0  0  0  0  0  0  0  0  0  0  0
    7.9876  -13.5852   20.1080 C   0  0  1  0  0  0  0  0  0  0  0  0
    6.9111  -14.3508   19.6952 O   0  0  0  0  0  0  0  0  0  0  0  0
    9.2569  -14.4524   20.0984 C   0  0  2  0  0  0  0  0  0  0  0  0
    9.3991  -15.0598   18.7807 N   0  0  0  0  0  0  0  0  0  0  0  0
    9.2553  -15.4516   21.1629 C   0  0  0  0  0  0  0  0  0  0  0  0
    8.8939  -16.6577   20.9989 O   0  0  0  0  0  0  0  0  0  0  0  0
    9.6751  -15.0961   22.4661 N   0  0  0  0  0  0  0  0  0  0  0  0
    9.7225  -16.0908   23.5495 C   0  0  1  0  0  0  0  0  0  0  0  0
   11.0588  -15.8625   24.2185 C   0  0  0  0  0  0  0  0  0  0  0  0
   12.1989  -16.4507   23.4602 C   0  0  0  0  0  0  0  0  0  0  0  0
   12.1052  -17.1786   22.3145 C   0  0  0  0  0  0  0  0  0  0  0  0
   13.3433  -17.5358   21.9484 N   0  0  0  0  0  0  0  0  0  0  0  0
   14.2017  -17.0466   22.8403 C   0  0  0  0  0  0  0  0  0  0  0  0
   13.5082  -16.3777   23.7742 N   0  0  0  0  0  0  0  0  0  0  0  0
    8.6498  -15.7336   24.5045 C   0  0  0  0  0  0  0  0  0  0  0  0
    7.9776  -14.6664   24.4185 O   0  0  0  0  0  0  0  0  0  0  0  0
    8.3081  -16.5599   25.5714 O   0  0  0  0  0  0  0  0  0  0  0  0
  2  1  1  1
  2  9  1  0
  3  2  1  0
  3  4  1  0
  4  5  2  0
  5  6  1  0
  7  6  1  0
  8  4  1  0
  8  7  2  0
  9 10  2  0
 12 11  1  6
 12 14  1  0
 13 12  1  0
 14 16  1  0
 14 15  1  6
 15  9  1  0
 16 17  2  0
 16 18  1  0
 18 19  1  0
 19 26  1  0
 19 20  1  1
 21 20  1  0
 21 22  2  0
 23 22  1  0
 24 23  1  0
 25 24  2  0
 25 21  1  0
 26 27  2  0
 26 28  1  0
M  END
$$$$
