HTH.pdb
     RDKit          3D

 28 29  0  0  1  0  0  0  0  0999 V2000
    9.3938  -14.7663   14.7464 N   0  0  0  0  0  0  0  0  0  0  0  0
    8.9037  -15.6129   15.7890 C   0  0  1  0  0  0  0  0  0  0  0  0
    9.3850  -17.0337   15.5841 C   0  0  0  0  0  0  0  0  0  0  0  0
    8.7678  -17.6252   14.3773 C   0  0  0  0  0  0  0  0  0  0  0  0
    9.2030  -17.5539   13.0632 C   0  0  0  0  0  0  0  0  0  0  0  0
    8.3171  -18.2424   12.3367 N   0  0  0  0  0  0  0  0  0  0  0  0
    7.3560  -18.7357   13.1366 C   0  0  0  0  0  0  0  0  0  0  0  0
    7.6304  -18.3587   14.3876 N   0  0  0  0  0  0  0  0  0  0  0  0
    9.3484  -15.1525   17.1438 C   0  0  0  0  0  0  0  0  0  0  0  0
   10.5485  -14.8052   17.2905 O   0  0  0  0  0  0  0  0  0  0  0  0
    7.3088  -12.7685   19.4862 C   0  0  0  0  0  0  0  0  0  0  0  0
    7.8133  -13.9560   20.2895 C   0  0  1  0  0  0  0  0  0  0  0  0
    6.7678  -14.8450   20.4678 O   0  0  0  0  0  0  0  0  0  0  0  0
    8.9530  -14.6616   19.5368 C   0  0  2  0  0  0  0  0  0  0  0  0
    8.4546  -15.1037   18.2401 N   0  0  0  0  0  0  0  0  0  0  0  0
    9.5284  -15.7621   20.3047 C   0  0  0  0  0  0  0  0  0  0  0  0
    9.3382  -16.9877   20.0333 O   0  0  0  0  0  0  0  0  0  0  0  0
   10.3523  -15.4892   21.4216 N   0  0  0  0  0  0  0  0  0  0  0  0
   10.8783  -16.5749   22.2642 C   0  0  1  0  0  0  0  0  0  0  0  0
   12.3510  -16.2662   22.4086 C   0  0  0  0  0  0  0  0  0  0  0  0
   13.0574  -17.2070   23.3234 C   0  0  0  0  0  0  0  0  0  0  0  0
   12.4865  -18.2348   24.0080 C   0  0  0  0  0  0  0  0  0  0  0  0
   13.4441  -18.8371   24.7255 N   0  0  0  0  0  0  0  0  0  0  0  0
   14.5947  -18.2065   24.5017 C   0  0  0  0  0  0  0  0  0  0  0  0
   14.3679  -17.2024   23.6409 N   0  0  0  0  0  0  0  0  0  0  0  0
   10.2351  -16.4364   23.5899 C   0  0  0  0  0  0  0  0  0  0  0  0
    9.5854  -15.4090   23.9369 O   0  0  0  0  0  0  0  0  0  0  0  0
   10.3053  -17.4408   24.5513 O   0  0  0  0  0  0  0  0  0  0  0  0
  2  1  1  6
  2  9  1  0
  3  2  1  0
  3  4  1  0
  4  5  2  0
  5  6  1  0
  7  6  1  0
  8  4  1  0
  8  7  2  0
  9 10  2  0
 12 11  1  6
 12 14  1  0
 13 12  1  0
 14 16  1  0
 14 15  1  6
 15  9  1  0
 16 17  2  0
 16 18  1  0
 18 19  1  0
 19 26  1  0
 19 20  1  1
 21 20  1  0
 21 22  2  0
 23 22  1  0
 24 23  1  0
 25 24  2  0
 25 21  1  0
 26 27  2  0
 26 28  1  0
M  END
$$$$
