HTH.pdb
     RDKit          3D

 28 29  0  0  1  0  0  0  0  0999 V2000
    8.3799  -17.2041   18.1386 N   0  0  0  0  0  0  0  0  0  0  0  0
    8.7512  -16.3622   19.2328 C   0  0  1  0  0  0  0  0  0  0  0  0
    7.7829  -15.2053   19.3596 C   0  0  0  0  0  0  0  0  0  0  0  0
    7.8790  -14.3125   18.1846 C   0  0  0  0  0  0  0  0  0  0  0  0
    8.6282  -13.1553   18.0401 C   0  0  0  0  0  0  0  0  0  0  0  0
    8.3867  -12.7037   16.8054 N   0  0  0  0  0  0  0  0  0  0  0  0
    7.5254  -13.5244   16.1797 C   0  0  0  0  0  0  0  0  0  0  0  0
    7.2130  -14.5109   17.0231 N   0  0  0  0  0  0  0  0  0  0  0  0
    8.7738  -17.1062   20.5332 C   0  0  0  0  0  0  0  0  0  0  0  0
    7.8286  -17.8977   20.7829 O   0  0  0  0  0  0  0  0  0  0  0  0
   10.4162  -19.8198   21.2950 C   0  0  0  0  0  0  0  0  0  0  0  0
   10.8816  -18.9097   22.4197 C   0  0  1  0  0  0  0  0  0  0  0  0
   12.0975  -18.3531   22.0632 O   0  0  0  0  0  0  0  0  0  0  0  0
    9.8598  -17.7846   22.6508 C   0  0  2  0  0  0  0  0  0  0  0  0
    9.8235  -16.9346   21.4669 N   0  0  0  0  0  0  0  0  0  0  0  0
   10.1392  -17.0205   23.8631 C   0  0  0  0  0  0  0  0  0  0  0  0
   10.9581  -16.0516   23.9142 O   0  0  0  0  0  0  0  0  0  0  0  0
    9.4789  -17.3458   25.0711 N   0  0  0  0  0  0  0  0  0  0  0  0
    9.6601  -16.5302   26.2824 C   0  0  1  0  0  0  0  0  0  0  0  0
    8.2603  -16.3181   26.8122 C   0  0  0  0  0  0  0  0  0  0  0  0
    7.5327  -15.2201   26.1150 C   0  0  0  0  0  0  0  0  0  0  0  0
    8.0449  -14.4101   25.1493 C   0  0  0  0  0  0  0  0  0  0  0  0
    7.0881  -13.5475   24.7818 N   0  0  0  0  0  0  0  0  0  0  0  0
    5.9954  -13.8039   25.4972 C   0  0  0  0  0  0  0  0  0  0  0  0
    6.2582  -14.8308   26.3202 N   0  0  0  0  0  0  0  0  0  0  0  0
   10.4095  -17.3628   27.2497 C   0  0  0  0  0  0  0  0  0  0  0  0
   10.6868  -18.5787   27.0429 O   0  0  0  0  0  0  0  0  0  0  0  0
   10.8624  -16.8541   28.4637 O   0  0  0  0  0  0  0  0  0  0  0  0
  2  1  1  6
  2  9  1  0
  3  2  1  0
  3  4  1  0
  4  5  2  0
  5  6  1  0
  7  6  1  0
  8  4  1  0
  8  7  2  0
  9 10  2  0
 12 11  1  6
 12 14  1  0
 13 12  1  0
 14 16  1  0
 14 15  1  6
 15  9  1  0
 16 17  2  0
 16 18  1  0
 18 19  1  0
 19 26  1  0
 19 20  1  1
 21 20  1  0
 21 22  2  0
 23 22  1  0
 24 23  1  0
 25 24  2  0
 25 21  1  0
 26 27  2  0
 26 28  1  0
M  END
$$$$
