HTH.pdb
     RDKit          3D

 28 29  0  0  1  0  0  0  0  0999 V2000
   10.3604  -14.3342   19.5727 N   0  0  0  0  0  0  0  0  0  0  0  0
    9.1377  -14.3712   20.3127 C   0  0  1  0  0  0  0  0  0  0  0  0
    8.1668  -15.3440   19.6778 C   0  0  0  0  0  0  0  0  0  0  0  0
    7.8501  -14.9363   18.2920 C   0  0  0  0  0  0  0  0  0  0  0  0
    7.4841  -13.6839   17.8241 C   0  0  0  0  0  0  0  0  0  0  0  0
    7.3032  -13.8139   16.5061 N   0  0  0  0  0  0  0  0  0  0  0  0
    7.5392  -15.0844   16.1362 C   0  0  0  0  0  0  0  0  0  0  0  0
    7.8745  -15.7740   17.2292 N   0  0  0  0  0  0  0  0  0  0  0  0
    9.3544  -14.7798   21.7379 C   0  0  0  0  0  0  0  0  0  0  0  0
   10.4691  -15.2695   22.0541 O   0  0  0  0  0  0  0  0  0  0  0  0
    7.5895  -12.6175   24.6508 C   0  0  0  0  0  0  0  0  0  0  0  0
    7.6292  -14.1001   24.9830 C   0  0  1  0  0  0  0  0  0  0  0  0
    6.3848  -14.6454   24.7194 O   0  0  0  0  0  0  0  0  0  0  0  0
    8.6847  -14.8105   24.1201 C   0  0  2  0  0  0  0  0  0  0  0  0
    8.3422  -14.6258   22.7151 N   0  0  0  0  0  0  0  0  0  0  0  0
    8.8275  -16.2216   24.4664 C   0  0  0  0  0  0  0  0  0  0  0  0
    8.0074  -17.1228   24.1095 O   0  0  0  0  0  0  0  0  0  0  0  0
    9.9303  -16.6507   25.2413 N   0  0  0  0  0  0  0  0  0  0  0  0
   10.0324  -18.0389   25.7186 C   0  0  1  0  0  0  0  0  0  0  0  0
   11.4613  -18.4378   25.4282 C   0  0  0  0  0  0  0  0  0  0  0  0
   11.7231  -18.6541   23.9771 C   0  0  0  0  0  0  0  0  0  0  0  0
   10.7920  -18.9662   23.0355 C   0  0  0  0  0  0  0  0  0  0  0  0
   11.4186  -19.0877   21.8577 N   0  0  0  0  0  0  0  0  0  0  0  0
   12.7159  -18.8586   22.0475 C   0  0  0  0  0  0  0  0  0  0  0  0
   12.9138  -18.5910   23.3476 N   0  0  0  0  0  0  0  0  0  0  0  0
    9.8422  -18.0011   27.1859 C   0  0  0  0  0  0  0  0  0  0  0  0
    9.8480  -19.0383   27.9087 O   0  0  0  0  0  0  0  0  0  0  0  0
    9.6423  -16.8067   27.8723 O   0  0  0  0  0  0  0  0  0  0  0  0
  2  1  1  6
  2  9  1  0
  3  2  1  0
  3  4  1  0
  4  5  2  0
  5  6  1  0
  7  6  1  0
  8  4  1  0
  8  7  2  0
  9 10  2  0
 12 11  1  6
 12 14  1  0
 13 12  1  0
 14 16  1  0
 14 15  1  6
 15  9  1  0
 16 17  2  0
 16 18  1  0
 18 19  1  0
 19 26  1  0
 19 20  1  1
 21 20  1  0
 21 22  2  0
 23 22  1  0
 24 23  1  0
 25 24  2  0
 25 21  1  0
 26 27  2  0
 26 28  1  0
M  END
$$$$
