HTH.pdb
     RDKit          3D

 28 29  0  0  1  0  0  0  0  0999 V2000
   12.2314  -15.1870   17.4600 N   0  0  0  0  0  0  0  0  0  0  0  0
   11.1125  -15.8486   18.0553 C   0  0  1  0  0  0  0  0  0  0  0  0
   11.3540  -17.3420   18.1147 C   0  0  0  0  0  0  0  0  0  0  0  0
   11.3787  -17.9216   16.7543 C   0  0  0  0  0  0  0  0  0  0  0  0
   11.0678  -17.3089   15.5505 C   0  0  0  0  0  0  0  0  0  0  0  0
   11.2396  -18.2356   14.6025 N   0  0  0  0  0  0  0  0  0  0  0  0
   11.6412  -19.3905   15.1608 C   0  0  0  0  0  0  0  0  0  0  0  0
   11.7271  -19.2002   16.4795 N   0  0  0  0  0  0  0  0  0  0  0  0
   10.8413  -15.3566   19.4444 C   0  0  0  0  0  0  0  0  0  0  0  0
   11.8221  -15.1425   20.2023 O   0  0  0  0  0  0  0  0  0  0  0  0
    7.9772  -12.7562   20.4204 C   0  0  0  0  0  0  0  0  0  0  0  0
    7.9822  -13.9432   21.3695 C   0  0  1  0  0  0  0  0  0  0  0  0
    6.9596  -14.8026   21.0074 O   0  0  0  0  0  0  0  0  0  0  0  0
    9.3235  -14.6891   21.2814 C   0  0  2  0  0  0  0  0  0  0  0  0
    9.5226  -15.1336   19.9072 N   0  0  0  0  0  0  0  0  0  0  0  0
    9.4077  -15.7951   22.2307 C   0  0  0  0  0  0  0  0  0  0  0  0
    9.2164  -17.0106   21.9175 O   0  0  0  0  0  0  0  0  0  0  0  0
    9.7199  -15.5401   23.5865 N   0  0  0  0  0  0  0  0  0  0  0  0
    9.7933  -16.6320   24.5702 C   0  0  1  0  0  0  0  0  0  0  0  0
   11.1544  -16.4785   25.2096 C   0  0  0  0  0  0  0  0  0  0  0  0
   12.2521  -17.0716   24.3946 C   0  0  0  0  0  0  0  0  0  0  0  0
   12.1181  -17.6328   23.1625 C   0  0  0  0  0  0  0  0  0  0  0  0
   13.3255  -18.0581   22.7676 N   0  0  0  0  0  0  0  0  0  0  0  0
   14.2042  -17.7738   23.7261 C   0  0  0  0  0  0  0  0  0  0  0  0
   13.5543  -17.1671   24.7313 N   0  0  0  0  0  0  0  0  0  0  0  0
    8.7584  -16.3567   25.5919 C   0  0  0  0  0  0  0  0  0  0  0  0
    8.0398  -15.3166   25.5823 O   0  0  0  0  0  0  0  0  0  0  0  0
    8.5071  -17.2359   26.6414 O   0  0  0  0  0  0  0  0  0  0  0  0
  2  1  1  1
  2  9  1  0
  3  2  1  0
  3  4  1  0
  4  5  2  0
  5  6  1  0
  7  6  1  0
  8  4  1  0
  8  7  2  0
  9 10  2  0
 12 11  1  6
 12 14  1  0
 13 12  1  0
 14 16  1  0
 14 15  1  6
 15  9  1  0
 16 17  2  0
 16 18  1  0
 18 19  1  0
 19 26  1  0
 19 20  1  1
 21 20  1  0
 21 22  2  0
 23 22  1  0
 24 23  1  0
 25 24  2  0
 25 21  1  0
 26 27  2  0
 26 28  1  0
M  END
$$$$
