HTH.pdb
     RDKit          3D

 28 29  0  0  1  0  0  0  0  0999 V2000
   10.2229  -15.3734   14.4358 N   0  0  0  0  0  0  0  0  0  0  0  0
    9.6400  -15.9610   15.6015 C   0  0  1  0  0  0  0  0  0  0  0  0
   10.0271  -17.4210   15.7053 C   0  0  0  0  0  0  0  0  0  0  0  0
    9.3933  -18.2074   14.6250 C   0  0  0  0  0  0  0  0  0  0  0  0
    8.0647  -18.2154   14.2302 C   0  0  0  0  0  0  0  0  0  0  0  0
    7.9796  -19.0829   13.2168 N   0  0  0  0  0  0  0  0  0  0  0  0
    9.1898  -19.6115   12.9658 C   0  0  0  0  0  0  0  0  0  0  0  0
   10.0576  -19.0762   13.8277 N   0  0  0  0  0  0  0  0  0  0  0  0
   10.0702  -15.2661   16.8573 C   0  0  0  0  0  0  0  0  0  0  0  0
   11.2517  -14.8401   16.9274 O   0  0  0  0  0  0  0  0  0  0  0  0
    7.8568  -12.7099   18.9260 C   0  0  0  0  0  0  0  0  0  0  0  0
    8.4883  -13.7378   19.8504 C   0  0  1  0  0  0  0  0  0  0  0  0
    7.5346  -14.6878   20.1718 O   0  0  0  0  0  0  0  0  0  0  0  0
    9.6712  -14.4267   19.1509 C   0  0  2  0  0  0  0  0  0  0  0  0
    9.1832  -15.0854   17.9453 N   0  0  0  0  0  0  0  0  0  0  0  0
   10.3751  -15.3534   20.0325 C   0  0  0  0  0  0  0  0  0  0  0  0
   10.2152  -16.6126   20.0060 O   0  0  0  0  0  0  0  0  0  0  0  0
   11.2984  -14.8599   20.9838 N   0  0  0  0  0  0  0  0  0  0  0  0
   12.0059  -15.7672   21.9012 C   0  0  1  0  0  0  0  0  0  0  0  0
   13.2114  -14.9799   22.3618 C   0  0  0  0  0  0  0  0  0  0  0  0
   14.3015  -14.9349   21.3466 C   0  0  0  0  0  0  0  0  0  0  0  0
   14.3690  -15.6850   20.2136 C   0  0  0  0  0  0  0  0  0  0  0  0
   15.4998  -15.3639   19.5711 N   0  0  0  0  0  0  0  0  0  0  0  0
   16.1344  -14.4327   20.2794 C   0  0  0  0  0  0  0  0  0  0  0  0
   15.4059  -14.1618   21.3734 N   0  0  0  0  0  0  0  0  0  0  0  0
   11.1126  -15.9838   23.0611 C   0  0  0  0  0  0  0  0  0  0  0  0
   10.0315  -15.3496   23.2264 O   0  0  0  0  0  0  0  0  0  0  0  0
   11.4091  -16.9108   24.0563 O   0  0  0  0  0  0  0  0  0  0  0  0
  2  1  1  6
  2  9  1  0
  3  2  1  0
  3  4  1  0
  4  5  2  0
  5  6  1  0
  7  6  1  0
  8  4  1  0
  8  7  2  0
  9 10  2  0
 12 11  1  6
 12 14  1  0
 13 12  1  0
 14 16  1  0
 14 15  1  6
 15  9  1  0
 16 17  2  0
 16 18  1  0
 18 19  1  0
 19 26  1  0
 19 20  1  1
 21 20  1  0
 21 22  2  0
 23 22  1  0
 24 23  1  0
 25 24  2  0
 25 21  1  0
 26 27  2  0
 26 28  1  0
M  END
$$$$
