HTH.pdb
     RDKit          3D

 28 29  0  0  1  0  0  0  0  0999 V2000
    8.0739  -17.0127   19.6817 N   0  0  0  0  0  0  0  0  0  0  0  0
    8.5252  -16.0118   20.5973 C   0  0  1  0  0  0  0  0  0  0  0  0
    7.6594  -14.7740   20.4936 C   0  0  0  0  0  0  0  0  0  0  0  0
    7.8195  -14.1340   19.1701 C   0  0  0  0  0  0  0  0  0  0  0  0
    8.5724  -13.0189   18.8371 C   0  0  0  0  0  0  0  0  0  0  0  0
    8.4000  -12.8278   17.5254 N   0  0  0  0  0  0  0  0  0  0  0  0
    7.5780  -13.7695   17.0312 C   0  0  0  0  0  0  0  0  0  0  0  0
    7.2211  -14.5710   18.0375 N   0  0  0  0  0  0  0  0  0  0  0  0
    8.4968  -16.4927   22.0161 C   0  0  0  0  0  0  0  0  0  0  0  0
    7.3935  -16.8541   22.5004 O   0  0  0  0  0  0  0  0  0  0  0  0
    9.7689  -19.4547   23.1092 C   0  0  0  0  0  0  0  0  0  0  0  0
   10.4049  -18.4804   24.0870 C   0  0  1  0  0  0  0  0  0  0  0  0
   11.6981  -18.2170   23.6701 O   0  0  0  0  0  0  0  0  0  0  0  0
    9.6084  -17.1660   24.1220 C   0  0  2  0  0  0  0  0  0  0  0  0
    9.6710  -16.5452   22.8044 N   0  0  0  0  0  0  0  0  0  0  0  0
   10.0704  -16.2641   25.1730 C   0  0  0  0  0  0  0  0  0  0  0  0
   10.9564  -15.3715   24.9986 O   0  0  0  0  0  0  0  0  0  0  0  0
    9.5231  -16.3564   26.4741 N   0  0  0  0  0  0  0  0  0  0  0  0
    9.9597  -15.4529   27.5505 C   0  0  1  0  0  0  0  0  0  0  0  0
    8.6765  -14.9739   28.1902 C   0  0  0  0  0  0  0  0  0  0  0  0
    7.9946  -13.9082   27.4028 C   0  0  0  0  0  0  0  0  0  0  0  0
    8.5013  -13.2740   26.3110 C   0  0  0  0  0  0  0  0  0  0  0  0
    7.5957  -12.3790   25.8944 N   0  0  0  0  0  0  0  0  0  0  0  0
    6.5400  -12.4437   26.7025 C   0  0  0  0  0  0  0  0  0  0  0  0
    6.7752  -13.3810   27.6336 N   0  0  0  0  0  0  0  0  0  0  0  0
   10.6951  -16.2818   28.5317 C   0  0  0  0  0  0  0  0  0  0  0  0
   10.7219  -17.5448   28.4844 O   0  0  0  0  0  0  0  0  0  0  0  0
   11.4129  -15.7168   29.5821 O   0  0  0  0  0  0  0  0  0  0  0  0
  2  1  1  6
  2  9  1  0
  3  2  1  0
  3  4  1  0
  4  5  2  0
  5  6  1  0
  7  6  1  0
  8  4  1  0
  8  7  2  0
  9 10  2  0
 12 11  1  6
 12 14  1  0
 13 12  1  0
 14 16  1  0
 14 15  1  6
 15  9  1  0
 16 17  2  0
 16 18  1  0
 18 19  1  0
 19 26  1  0
 19 20  1  1
 21 20  1  0
 21 22  2  0
 23 22  1  0
 24 23  1  0
 25 24  2  0
 25 21  1  0
 26 27  2  0
 26 28  1  0
M  END
$$$$
