HTH.pdb
     RDKit          3D

 28 29  0  0  1  0  0  0  0  0999 V2000
   11.3384  -16.3083   16.3139 N   0  0  0  0  0  0  0  0  0  0  0  0
   10.0810  -16.5080   16.9643 C   0  0  1  0  0  0  0  0  0  0  0  0
    9.7921  -17.9871   17.1097 C   0  0  0  0  0  0  0  0  0  0  0  0
    9.5745  -18.6094   15.7859 C   0  0  0  0  0  0  0  0  0  0  0  0
   10.5095  -19.1850   14.9398 C   0  0  0  0  0  0  0  0  0  0  0  0
    9.8342  -19.6070   13.8662 N   0  0  0  0  0  0  0  0  0  0  0  0
    8.5284  -19.3208   14.0068 C   0  0  0  0  0  0  0  0  0  0  0  0
    8.3672  -18.7094   15.1826 N   0  0  0  0  0  0  0  0  0  0  0  0
   10.0453  -15.8820   18.3251 C   0  0  0  0  0  0  0  0  0  0  0  0
   11.1019  -15.8804   19.0077 O   0  0  0  0  0  0  0  0  0  0  0  0
    7.9998  -12.6011   19.2095 C   0  0  0  0  0  0  0  0  0  0  0  0
    7.7946  -13.6561   20.2841 C   0  0  1  0  0  0  0  0  0  0  0  0
    6.5561  -14.2442   20.0952 O   0  0  0  0  0  0  0  0  0  0  0  0
    8.8857  -14.7346   20.1860 C   0  0  2  0  0  0  0  0  0  0  0  0
    8.8624  -15.3035   18.8439 N   0  0  0  0  0  0  0  0  0  0  0  0
    8.7478  -15.7600   21.2161 C   0  0  0  0  0  0  0  0  0  0  0  0
    7.9056  -16.7084   21.1602 O   0  0  0  0  0  0  0  0  0  0  0  0
    9.5831  -15.7316   22.3573 N   0  0  0  0  0  0  0  0  0  0  0  0
    9.4076  -16.6963   23.4545 C   0  0  1  0  0  0  0  0  0  0  0  0
    9.8156  -18.0259   22.8621 C   0  0  0  0  0  0  0  0  0  0  0  0
   11.2577  -18.0812   22.4905 C   0  0  0  0  0  0  0  0  0  0  0  0
   12.1352  -17.0426   22.5393 C   0  0  0  0  0  0  0  0  0  0  0  0
   13.3270  -17.4872   22.1190 N   0  0  0  0  0  0  0  0  0  0  0  0
   13.2084  -18.7766   21.8108 C   0  0  0  0  0  0  0  0  0  0  0  0
   11.9397  -19.1517   22.0356 N   0  0  0  0  0  0  0  0  0  0  0  0
   10.3825  -16.3294   24.5059 C   0  0  0  0  0  0  0  0  0  0  0  0
   10.5081  -16.9754   25.5853 O   0  0  0  0  0  0  0  0  0  0  0  0
   11.2338  -15.2362   24.3719 O   0  0  0  0  0  0  0  0  0  0  0  0
  2  1  1  1
  2  9  1  0
  3  2  1  0
  3  4  1  0
  4  5  2  0
  5  6  1  0
  7  6  1  0
  8  4  1  0
  8  7  2  0
  9 10  2  0
 12 11  1  6
 12 14  1  0
 13 12  1  0
 14 16  1  0
 14 15  1  6
 15  9  1  0
 16 17  2  0
 16 18  1  0
 18 19  1  0
 19 26  1  0
 19 20  1  6
 21 20  1  0
 21 22  2  0
 23 22  1  0
 24 23  1  0
 25 24  2  0
 25 21  1  0
 26 27  2  0
 26 28  1  0
M  END
$$$$
