HTH.pdb
     RDKit          3D

 28 29  0  0  1  0  0  0  0  0999 V2000
    9.8366  -15.3716   14.4083 N   0  0  0  0  0  0  0  0  0  0  0  0
    9.1973  -15.9375   15.5551 C   0  0  1  0  0  0  0  0  0  0  0  0
    9.3744  -17.4411   15.5687 C   0  0  0  0  0  0  0  0  0  0  0  0
    8.6255  -18.0653   14.4566 C   0  0  0  0  0  0  0  0  0  0  0  0
    7.2720  -18.3553   14.3844 C   0  0  0  0  0  0  0  0  0  0  0  0
    7.0710  -18.9121   13.1860 N   0  0  0  0  0  0  0  0  0  0  0  0
    8.2331  -18.9806   12.5139 C   0  0  0  0  0  0  0  0  0  0  0  0
    9.1870  -18.4622   13.2909 N   0  0  0  0  0  0  0  0  0  0  0  0
    9.7449  -15.3841   16.8353 C   0  0  0  0  0  0  0  0  0  0  0  0
   10.9914  -15.2539   16.9428 O   0  0  0  0  0  0  0  0  0  0  0  0
    7.9599  -12.5230   19.0613 C   0  0  0  0  0  0  0  0  0  0  0  0
    8.4333  -13.6978   19.9014 C   0  0  1  0  0  0  0  0  0  0  0  0
    7.3479  -14.5125   20.1730 O   0  0  0  0  0  0  0  0  0  0  0  0
    9.4925  -14.5069   19.1355 C   0  0  2  0  0  0  0  0  0  0  0  0
    8.8960  -15.0127   17.9051 N   0  0  0  0  0  0  0  0  0  0  0  0
   10.0660  -15.5782   19.9448 C   0  0  0  0  0  0  0  0  0  0  0  0
    9.7548  -16.8026   19.8185 O   0  0  0  0  0  0  0  0  0  0  0  0
   11.0285  -15.2765   20.9365 N   0  0  0  0  0  0  0  0  0  0  0  0
   11.7148  -16.3434   21.6822 C   0  0  1  0  0  0  0  0  0  0  0  0
   12.6628  -16.9604   20.6794 C   0  0  0  0  0  0  0  0  0  0  0  0
   12.1202  -18.1961   20.0473 C   0  0  0  0  0  0  0  0  0  0  0  0
   11.0616  -18.9236   20.4957 C   0  0  0  0  0  0  0  0  0  0  0  0
   10.8913  -19.9616   19.6661 N   0  0  0  0  0  0  0  0  0  0  0  0
   11.8195  -19.8944   18.7145 C   0  0  0  0  0  0  0  0  0  0  0  0
   12.5805  -18.8122   18.9398 N   0  0  0  0  0  0  0  0  0  0  0  0
   12.5116  -15.6811   22.7391 C   0  0  0  0  0  0  0  0  0  0  0  0
   12.3678  -15.9316   23.9698 O   0  0  0  0  0  0  0  0  0  0  0  0
   13.4822  -14.7285   22.4420 O   0  0  0  0  0  0  0  0  0  0  0  0
  2  1  1  6
  2  9  1  0
  3  2  1  0
  3  4  1  0
  4  5  2  0
  5  6  1  0
  7  6  1  0
  8  4  1  0
  8  7  2  0
  9 10  2  0
 12 11  1  6
 12 14  1  0
 13 12  1  0
 14 16  1  0
 14 15  1  6
 15  9  1  0
 16 17  2  0
 16 18  1  0
 18 19  1  0
 19 26  1  0
 19 20  1  6
 21 20  1  0
 21 22  2  0
 23 22  1  0
 24 23  1  0
 25 24  2  0
 25 21  1  0
 26 27  2  0
 26 28  1  0
M  END
$$$$
