HTH.pdb
     RDKit          3D

 28 29  0  0  1  0  0  0  0  0999 V2000
   10.8952  -15.1762   15.6441 N   0  0  0  0  0  0  0  0  0  0  0  0
   10.0034  -15.8057   16.5673 C   0  0  1  0  0  0  0  0  0  0  0  0
   10.3058  -17.2859   16.6661 C   0  0  0  0  0  0  0  0  0  0  0  0
    9.7783  -18.0066   15.4873 C   0  0  0  0  0  0  0  0  0  0  0  0
    9.0994  -17.4909   14.3943 C   0  0  0  0  0  0  0  0  0  0  0  0
    8.8303  -18.5288   13.5961 N   0  0  0  0  0  0  0  0  0  0  0  0
    9.3090  -19.6602   14.1416 C   0  0  0  0  0  0  0  0  0  0  0  0
    9.8904  -19.3423   15.3006 N   0  0  0  0  0  0  0  0  0  0  0  0
   10.0997  -15.2096   17.9386 C   0  0  0  0  0  0  0  0  0  0  0  0
   11.2271  -14.8252   18.3430 O   0  0  0  0  0  0  0  0  0  0  0  0
    7.5771  -12.6250   19.5646 C   0  0  0  0  0  0  0  0  0  0  0  0
    7.8331  -13.7921   20.5039 C   0  0  1  0  0  0  0  0  0  0  0  0
    6.7703  -14.6739   20.4129 O   0  0  0  0  0  0  0  0  0  0  0  0
    9.1280  -14.5197   20.1075 C   0  0  2  0  0  0  0  0  0  0  0  0
    8.9621  -15.0754   18.7699 N   0  0  0  0  0  0  0  0  0  0  0  0
    9.5119  -15.5398   21.0788 C   0  0  0  0  0  0  0  0  0  0  0  0
    9.3607  -16.7864   20.8909 O   0  0  0  0  0  0  0  0  0  0  0  0
   10.0908  -15.1588   22.3120 N   0  0  0  0  0  0  0  0  0  0  0  0
   10.4717  -16.1631   23.3178 C   0  0  1  0  0  0  0  0  0  0  0  0
   11.8432  -15.7329   23.7858 C   0  0  0  0  0  0  0  0  0  0  0  0
   12.9331  -16.1476   22.8578 C   0  0  0  0  0  0  0  0  0  0  0  0
   12.7738  -16.8422   21.6988 C   0  0  0  0  0  0  0  0  0  0  0  0
   13.9851  -17.0289   21.1580 N   0  0  0  0  0  0  0  0  0  0  0  0
   14.8910  -16.4666   21.9547 C   0  0  0  0  0  0  0  0  0  0  0  0
   14.2545  -15.9219   23.0030 N   0  0  0  0  0  0  0  0  0  0  0  0
    9.5227  -16.0205   24.4444 C   0  0  0  0  0  0  0  0  0  0  0  0
    8.6207  -15.1353   24.4780 O   0  0  0  0  0  0  0  0  0  0  0  0
    9.5629  -16.8620   25.5525 O   0  0  0  0  0  0  0  0  0  0  0  0
  2  1  1  6
  2  9  1  0
  3  2  1  0
  3  4  1  0
  4  5  2  0
  5  6  1  0
  7  6  1  0
  8  4  1  0
  8  7  2  0
  9 10  2  0
 12 11  1  6
 12 14  1  0
 13 12  1  0
 14 16  1  0
 14 15  1  6
 15  9  1  0
 16 17  2  0
 16 18  1  0
 18 19  1  0
 19 26  1  0
 19 20  1  1
 21 20  1  0
 21 22  2  0
 23 22  1  0
 24 23  1  0
 25 24  2  0
 25 21  1  0
 26 27  2  0
 26 28  1  0
M  END
$$$$
