HTH.pdb
     RDKit          3D

 28 29  0  0  1  0  0  0  0  0999 V2000
    7.6161  -16.8742   20.5618 N   0  0  0  0  0  0  0  0  0  0  0  0
    8.5311  -16.1838   21.4162 C   0  0  1  0  0  0  0  0  0  0  0  0
    8.0397  -14.7778   21.6880 C   0  0  0  0  0  0  0  0  0  0  0  0
    8.1259  -13.9491   20.4661 C   0  0  0  0  0  0  0  0  0  0  0  0
    8.6188  -14.3004   19.2192 C   0  0  0  0  0  0  0  0  0  0  0  0
    8.4853  -13.2192   18.4447 N   0  0  0  0  0  0  0  0  0  0  0  0
    7.9343  -12.2171   19.1511 C   0  0  0  0  0  0  0  0  0  0  0  0
    7.7133  -12.6623   20.3902 N   0  0  0  0  0  0  0  0  0  0  0  0
    8.7140  -16.8839   22.7282 C   0  0  0  0  0  0  0  0  0  0  0  0
    7.6944  -17.3392   23.3074 O   0  0  0  0  0  0  0  0  0  0  0  0
   10.1965  -19.9672   23.4154 C   0  0  0  0  0  0  0  0  0  0  0  0
   10.9302  -19.0276   24.3582 C   0  0  1  0  0  0  0  0  0  0  0  0
   12.1462  -18.6915   23.7891 O   0  0  0  0  0  0  0  0  0  0  0  0
   10.1070  -17.7487   24.5818 C   0  0  2  0  0  0  0  0  0  0  0  0
    9.9931  -17.0376   23.3143 N   0  0  0  0  0  0  0  0  0  0  0  0
   10.6665  -16.9044   25.6333 C   0  0  0  0  0  0  0  0  0  0  0  0
   11.5132  -15.9820   25.4226 O   0  0  0  0  0  0  0  0  0  0  0  0
   10.2669  -17.0916   26.9772 N   0  0  0  0  0  0  0  0  0  0  0  0
   10.8753  -16.3145   28.0687 C   0  0  1  0  0  0  0  0  0  0  0  0
    9.7138  -15.6016   28.7227 C   0  0  0  0  0  0  0  0  0  0  0  0
    9.1399  -14.5201   27.8730 C   0  0  0  0  0  0  0  0  0  0  0  0
    9.6276  -14.1037   26.6731 C   0  0  0  0  0  0  0  0  0  0  0  0
    8.8450  -13.1107   26.2300 N   0  0  0  0  0  0  0  0  0  0  0  0
    7.8843  -12.9021   27.1273 C   0  0  0  0  0  0  0  0  0  0  0  0
    8.0566  -13.7636   28.1416 N   0  0  0  0  0  0  0  0  0  0  0  0
   11.4309  -17.2922   29.0309 C   0  0  0  0  0  0  0  0  0  0  0  0
   11.2806  -18.5415   28.9085 O   0  0  0  0  0  0  0  0  0  0  0  0
   12.1632  -16.8941   30.1457 O   0  0  0  0  0  0  0  0  0  0  0  0
  2  1  1  6
  2  9  1  0
  3  2  1  0
  3  4  1  0
  4  5  2  0
  5  6  1  0
  7  6  1  0
  8  4  1  0
  8  7  2  0
  9 10  2  0
 12 11  1  6
 12 14  1  0
 13 12  1  0
 14 16  1  0
 14 15  1  6
 15  9  1  0
 16 17  2  0
 16 18  1  0
 18 19  1  0
 19 26  1  0
 19 20  1  1
 21 20  1  0
 21 22  2  0
 23 22  1  0
 24 23  1  0
 25 24  2  0
 25 21  1  0
 26 27  2  0
 26 28  1  0
M  END
$$$$
