HTH.pdb
     RDKit          3D

 28 29  0  0  1  0  0  0  0  0999 V2000
    7.1173  -16.4527   20.0670 N   0  0  0  0  0  0  0  0  0  0  0  0
    8.2929  -16.0816   20.7910 C   0  0  1  0  0  0  0  0  0  0  0  0
    8.4808  -14.5797   20.7565 C   0  0  0  0  0  0  0  0  0  0  0  0
    8.3267  -14.0656   19.3784 C   0  0  0  0  0  0  0  0  0  0  0  0
    8.0681  -14.7765   18.2170 C   0  0  0  0  0  0  0  0  0  0  0  0
    8.0175  -13.8768   17.2298 N   0  0  0  0  0  0  0  0  0  0  0  0
    8.2321  -12.6451   17.7234 C   0  0  0  0  0  0  0  0  0  0  0  0
    8.4218  -12.7586   19.0401 N   0  0  0  0  0  0  0  0  0  0  0  0
    8.2339  -16.5192   22.2228 C   0  0  0  0  0  0  0  0  0  0  0  0
    7.1486  -16.3807   22.8435 O   0  0  0  0  0  0  0  0  0  0  0  0
    8.9806  -19.9034   23.4529 C   0  0  0  0  0  0  0  0  0  0  0  0
    9.7761  -18.9683   24.3488 C   0  0  1  0  0  0  0  0  0  0  0  0
   11.0958  -18.9736   23.9321 O   0  0  0  0  0  0  0  0  0  0  0  0
    9.2215  -17.5379   24.2503 C   0  0  2  0  0  0  0  0  0  0  0  0
    9.3602  -17.0755   22.8747 N   0  0  0  0  0  0  0  0  0  0  0  0
    9.8581  -16.6286   25.1988 C   0  0  0  0  0  0  0  0  0  0  0  0
   10.9514  -16.0241   24.9725 O   0  0  0  0  0  0  0  0  0  0  0  0
    9.2529  -16.3784   26.4526 N   0  0  0  0  0  0  0  0  0  0  0  0
    9.8562  -15.4456   27.4176 C   0  0  1  0  0  0  0  0  0  0  0  0
    8.6790  -14.8211   28.1313 C   0  0  0  0  0  0  0  0  0  0  0  0
    7.9169  -13.8679   27.2761 C   0  0  0  0  0  0  0  0  0  0  0  0
    8.2687  -13.4589   26.0270 C   0  0  0  0  0  0  0  0  0  0  0  0
    7.3376  -12.5977   25.5957 N   0  0  0  0  0  0  0  0  0  0  0  0
    6.4175  -12.4634   26.5480 C   0  0  0  0  0  0  0  0  0  0  0  0
    6.7644  -13.2402   27.5858 N   0  0  0  0  0  0  0  0  0  0  0  0
   10.6148  -16.2663   28.3878 C   0  0  0  0  0  0  0  0  0  0  0  0
   10.5750  -17.5298   28.4017 O   0  0  0  0  0  0  0  0  0  0  0  0
   11.4306  -15.6926   29.3589 O   0  0  0  0  0  0  0  0  0  0  0  0
  2  1  1  6
  2  9  1  0
  3  2  1  0
  3  4  1  0
  4  5  2  0
  5  6  1  0
  7  6  1  0
  8  4  1  0
  8  7  2  0
  9 10  2  0
 12 11  1  6
 12 14  1  0
 13 12  1  0
 14 16  1  0
 14 15  1  6
 15  9  1  0
 16 17  2  0
 16 18  1  0
 18 19  1  0
 19 26  1  0
 19 20  1  1
 21 20  1  0
 21 22  2  0
 23 22  1  0
 24 23  1  0
 25 24  2  0
 25 21  1  0
 26 27  2  0
 26 28  1  0
M  END
$$$$
