HTH.pdb
     RDKit          3D

 28 29  0  0  1  0  0  0  0  0999 V2000
    9.9361  -15.4149   13.1378 N   0  0  0  0  0  0  0  0  0  0  0  0
   10.1255  -16.1904   14.3238 C   0  0  1  0  0  0  0  0  0  0  0  0
   11.1262  -17.2989   14.0743 C   0  0  0  0  0  0  0  0  0  0  0  0
   10.5669  -18.3092   13.1504 C   0  0  0  0  0  0  0  0  0  0  0  0
   10.7960  -18.4549   11.7911 C   0  0  0  0  0  0  0  0  0  0  0  0
   10.0700  -19.5065   11.3989 N   0  0  0  0  0  0  0  0  0  0  0  0
    9.4037  -20.0179   12.4483 C   0  0  0  0  0  0  0  0  0  0  0  0
    9.7068  -19.2856   13.5227 N   0  0  0  0  0  0  0  0  0  0  0  0
   10.6162  -15.3576   15.4687 C   0  0  0  0  0  0  0  0  0  0  0  0
   11.6413  -14.6498   15.2937 O   0  0  0  0  0  0  0  0  0  0  0  0
    8.4020  -13.1539   17.8768 C   0  0  0  0  0  0  0  0  0  0  0  0
    9.3285  -14.0527   18.6791 C   0  0  1  0  0  0  0  0  0  0  0  0
    8.6075  -15.1481   19.1214 O   0  0  0  0  0  0  0  0  0  0  0  0
   10.4930  -14.5365   17.7999 C   0  0  2  0  0  0  0  0  0  0  0  0
    9.9557  -15.3558   16.7204 N   0  0  0  0  0  0  0  0  0  0  0  0
   11.5121  -15.2456   18.5682 C   0  0  0  0  0  0  0  0  0  0  0  0
   11.6238  -16.5100   18.5949 O   0  0  0  0  0  0  0  0  0  0  0  0
   12.4491  -14.5183   19.3389 N   0  0  0  0  0  0  0  0  0  0  0  0
   13.5554  -15.1965   20.0328 C   0  0  1  0  0  0  0  0  0  0  0  0
   14.5844  -14.1127   20.2601 C   0  0  0  0  0  0  0  0  0  0  0  0
   15.4172  -13.8370   19.0554 C   0  0  0  0  0  0  0  0  0  0  0  0
   15.4242  -14.5649   17.9059 C   0  0  0  0  0  0  0  0  0  0  0  0
   16.3084  -14.0072   17.0680 N   0  0  0  0  0  0  0  0  0  0  0  0
   16.8494  -12.9514   17.6714 C   0  0  0  0  0  0  0  0  0  0  0  0
   16.3082  -12.8379   18.8942 N   0  0  0  0  0  0  0  0  0  0  0  0
   13.0319  -15.6330   21.3466 C   0  0  0  0  0  0  0  0  0  0  0  0
   13.6997  -16.3399   22.1544 O   0  0  0  0  0  0  0  0  0  0  0  0
   11.7554  -15.2888   21.7821 O   0  0  0  0  0  0  0  0  0  0  0  0
  2  1  1  6
  2  9  1  0
  3  2  1  0
  3  4  1  0
  4  5  2  0
  5  6  1  0
  7  6  1  0
  8  4  1  0
  8  7  2  0
  9 10  2  0
 12 11  1  6
 12 14  1  0
 13 12  1  0
 14 16  1  0
 14 15  1  6
 15  9  1  0
 16 17  2  0
 16 18  1  0
 18 19  1  0
 19 26  1  0
 19 20  1  1
 21 20  1  0
 21 22  2  0
 23 22  1  0
 24 23  1  0
 25 24  2  0
 25 21  1  0
 26 27  2  0
 26 28  1  0
M  END
$$$$
