HTH.pdb
     RDKit          3D

 28 29  0  0  1  0  0  0  0  0999 V2000
   11.5730  -14.1897   17.7387 N   0  0  0  0  0  0  0  0  0  0  0  0
   11.5371  -15.0907   18.8481 C   0  0  1  0  0  0  0  0  0  0  0  0
   12.9427  -15.4330   19.2946 C   0  0  0  0  0  0  0  0  0  0  0  0
   13.6391  -16.2305   18.2620 C   0  0  0  0  0  0  0  0  0  0  0  0
   13.1023  -16.8520   17.1453 C   0  0  0  0  0  0  0  0  0  0  0  0
   14.1231  -17.4468   16.5200 N   0  0  0  0  0  0  0  0  0  0  0  0
   15.2641  -17.2236   17.1948 C   0  0  0  0  0  0  0  0  0  0  0  0
   14.9696  -16.4784   18.2627 N   0  0  0  0  0  0  0  0  0  0  0  0
   10.7953  -14.5162   20.0163 C   0  0  0  0  0  0  0  0  0  0  0  0
   11.2082  -13.4358   20.5109 O   0  0  0  0  0  0  0  0  0  0  0  0
    6.9323  -14.0593   20.4802 C   0  0  0  0  0  0  0  0  0  0  0  0
    7.5118  -14.8225   21.6599 C   0  0  1  0  0  0  0  0  0  0  0  0
    7.2663  -16.1722   21.4764 O   0  0  0  0  0  0  0  0  0  0  0  0
    9.0293  -14.5930   21.7482 C   0  0  2  0  0  0  0  0  0  0  0  0
    9.6584  -15.1593   20.5611 N   0  0  0  0  0  0  0  0  0  0  0  0
    9.6020  -15.1307   22.9788 C   0  0  0  0  0  0  0  0  0  0  0  0
   10.3886  -16.1267   23.0153 O   0  0  0  0  0  0  0  0  0  0  0  0
    9.2888  -14.5351   24.2229 N   0  0  0  0  0  0  0  0  0  0  0  0
    9.8486  -15.0563   25.4800 C   0  0  1  0  0  0  0  0  0  0  0  0
    9.3396  -14.1116   26.5447 C   0  0  0  0  0  0  0  0  0  0  0  0
    9.6847  -14.5497   27.9267 C   0  0  0  0  0  0  0  0  0  0  0  0
    9.9084  -15.8310   28.3258 C   0  0  0  0  0  0  0  0  0  0  0  0
   10.1791  -15.8149   29.6377 N   0  0  0  0  0  0  0  0  0  0  0  0
   10.1282  -14.5539   30.0608 C   0  0  0  0  0  0  0  0  0  0  0  0
    9.8249  -13.7678   29.0163 N   0  0  0  0  0  0  0  0  0  0  0  0
    9.2390  -16.3870   25.6996 C   0  0  0  0  0  0  0  0  0  0  0  0
    9.8370  -17.3297   26.2928 O   0  0  0  0  0  0  0  0  0  0  0  0
    7.9527  -16.6893   25.2617 O   0  0  0  0  0  0  0  0  0  0  0  0
  2  1  1  6
  2  9  1  0
  3  2  1  0
  3  4  1  0
  4  5  2  0
  5  6  1  0
  7  6  1  0
  8  4  1  0
  8  7  2  0
  9 10  2  0
 12 11  1  6
 12 14  1  0
 13 12  1  0
 14 16  1  0
 14 15  1  6
 15  9  1  0
 16 17  2  0
 16 18  1  0
 18 19  1  0
 19 26  1  0
 19 20  1  1
 21 20  1  0
 21 22  2  0
 23 22  1  0
 24 23  1  0
 25 24  2  0
 25 21  1  0
 26 27  2  0
 26 28  1  0
M  END
$$$$
