YCE.pdb
     RDKit          3D

 28 28  0  0  1  0  0  0  0  0999 V2000
   31.9978   -4.8937  -20.6273 O   0  0  0  0  0  0  0  0  0  0  0  0
   30.9122   -5.6508  -20.1498 C   0  0  0  0  0  0  0  0  0  0  0  0
   30.6700   -6.9282  -20.6144 C   0  0  0  0  0  0  0  0  0  0  0  0
   29.6030   -7.6653  -20.1390 C   0  0  0  0  0  0  0  0  0  0  0  0
   28.7318   -7.1675  -19.1836 C   0  0  0  0  0  0  0  0  0  0  0  0
   27.5819   -7.9520  -18.6666 C   0  0  0  0  0  0  0  0  0  0  0  0
   27.9523   -8.9294  -17.5882 C   0  0  2  0  0  0  0  0  0  0  0  0
   28.9238   -9.9059  -17.9766 N   0  0  0  0  0  0  0  0  0  0  0  0
   26.6988   -9.6111  -17.1498 C   0  0  0  0  0  0  0  0  0  0  0  0
   26.5816  -10.8820  -17.2688 O   0  0  0  0  0  0  0  0  0  0  0  0
   28.9895   -5.8884  -18.7305 C   0  0  0  0  0  0  0  0  0  0  0  0
   30.0547   -5.1460  -19.2017 C   0  0  0  0  0  0  0  0  0  0  0  0
   25.6013   -8.9383  -16.5984 N   0  0  0  0  0  0  0  0  0  0  0  0
   24.4039   -9.5410  -16.0951 C   0  0  1  0  0  0  0  0  0  0  0  0
   24.7307  -10.5299  -14.9803 C   0  0  0  0  0  0  0  0  0  0  0  0
   23.2512  -11.1772  -14.1710 S   0  0  0  0  0  0  0  0  0  0  0  0
   23.4177   -8.5857  -15.6003 C   0  0  0  0  0  0  0  0  0  0  0  0
   23.6947   -7.7046  -14.7591 O   0  0  0  0  0  0  0  0  0  0  0  0
   22.0838   -8.6454  -16.0833 N   0  0  0  0  0  0  0  0  0  0  0  0
   21.0735   -7.6412  -15.7123 C   0  0  1  0  0  0  0  0  0  0  0  0
   20.9401   -6.6310  -16.8349 C   0  0  0  0  0  0  0  0  0  0  0  0
   19.8540   -5.6228  -16.5996 C   0  0  0  0  0  0  0  0  0  0  0  0
   19.8633   -4.6734  -17.7595 C   0  0  0  0  0  0  0  0  0  0  0  0
   20.6690   -4.9975  -18.6874 O   0  0  0  0  0  0  0  0  0  0  0  0
   19.7746   -8.2816  -15.4799 C   0  0  0  0  0  0  0  0  0  0  0  0
   19.5326   -9.3962  -15.9947 O   0  0  0  0  0  0  0  0  0  0  0  0
   19.0803   -3.5528  -17.8245 O   0  0  0  0  0  0  0  0  0  0  0  0
   18.8124   -7.6864  -14.7059 O   0  0  0  0  0  0  0  0  0  0  0  0
  2  1  1  0
  3  2  2  0
  4  3  1  0
  5 11  1  0
  5  4  2  0
  6  7  1  0
  6  5  1  0
  7  8  1  6
  9  7  1  0
  9 10  2  0
 11 12  2  0
 12  2  1  0
 13 14  1  0
 13  9  1  0
 14 15  1  1
 16 15  1  0
 17 18  2  0
 17 14  1  0
 19 17  1  0
 20 19  1  0
 20 25  1  0
 20 21  1  6
 22 21  1  0
 23 22  1  0
 24 23  2  0
 25 28  1  0
 26 25  2  0
 27 23  1  0
M  END
$$$$
