YCE.pdb
     RDKit          3D

 28 28  0  0  1  0  0  0  0  0999 V2000
   30.8498  -11.0046  -16.2499 O   0  0  0  0  0  0  0  0  0  0  0  0
   29.5206  -10.5436  -16.2759 C   0  0  0  0  0  0  0  0  0  0  0  0
   28.5683  -11.0540  -15.4164 C   0  0  0  0  0  0  0  0  0  0  0  0
   27.2660  -10.5946  -15.4473 C   0  0  0  0  0  0  0  0  0  0  0  0
   26.8533   -9.6106  -16.3312 C   0  0  0  0  0  0  0  0  0  0  0  0
   25.4557   -9.1105  -16.3722 C   0  0  0  0  0  0  0  0  0  0  0  0
   24.4662  -10.1209  -16.8777 C   0  0  2  0  0  0  0  0  0  0  0  0
   24.9382  -10.9266  -17.9622 N   0  0  0  0  0  0  0  0  0  0  0  0
   23.2405   -9.3789  -17.2963 C   0  0  0  0  0  0  0  0  0  0  0  0
   23.0931   -9.0157  -18.5167 O   0  0  0  0  0  0  0  0  0  0  0  0
   27.8193   -9.1119  -17.1832 C   0  0  0  0  0  0  0  0  0  0  0  0
   29.1232   -9.5668  -17.1574 C   0  0  0  0  0  0  0  0  0  0  0  0
   22.2024   -9.0379  -16.4204 N   0  0  0  0  0  0  0  0  0  0  0  0
   20.9729   -8.3948  -16.7738 C   0  0  1  0  0  0  0  0  0  0  0  0
   19.7976   -9.3498  -16.5890 C   0  0  0  0  0  0  0  0  0  0  0  0
   18.2032   -8.5534  -16.8836 S   0  0  0  0  0  0  0  0  0  0  0  0
   20.7040   -7.1702  -16.0268 C   0  0  0  0  0  0  0  0  0  0  0  0
   20.9170   -7.0676  -14.8001 O   0  0  0  0  0  0  0  0  0  0  0  0
   20.1782   -6.0392  -16.7054 N   0  0  0  0  0  0  0  0  0  0  0  0
   19.9549   -4.7538  -16.0237 C   0  0  1  0  0  0  0  0  0  0  0  0
   20.0974   -3.6266  -17.0275 C   0  0  0  0  0  0  0  0  0  0  0  0
   19.9722   -2.2643  -16.4112 C   0  0  0  0  0  0  0  0  0  0  0  0
   20.1517   -1.2573  -17.5069 C   0  0  0  0  0  0  0  0  0  0  0  0
   21.3313   -0.7923  -17.5946 O   0  0  0  0  0  0  0  0  0  0  0  0
   18.6121   -4.7116  -15.4351 C   0  0  0  0  0  0  0  0  0  0  0  0
   17.6513   -5.2305  -16.0463 O   0  0  0  0  0  0  0  0  0  0  0  0
   19.1428   -0.8636  -18.3436 O   0  0  0  0  0  0  0  0  0  0  0  0
   18.3815   -4.1150  -14.2226 O   0  0  0  0  0  0  0  0  0  0  0  0
  2  1  1  0
  3  2  2  0
  4  3  1  0
  5 11  1  0
  5  4  2  0
  6  7  1  0
  6  5  1  0
  7  8  1  6
  9  7  1  0
  9 10  2  0
 11 12  2  0
 12  2  1  0
 13 14  1  0
 13  9  1  0
 14 15  1  1
 16 15  1  0
 17 18  2  0
 17 14  1  0
 19 17  1  0
 20 19  1  0
 20 25  1  0
 20 21  1  6
 22 21  1  0
 23 22  1  0
 24 23  2  0
 25 28  1  0
 26 25  2  0
 27 23  1  0
M  END
$$$$
