YCE.pdb
     RDKit          3D

 28 28  0  0  1  0  0  0  0  0999 V2000
   28.3170  -13.6911  -17.7443 O   0  0  0  0  0  0  0  0  0  0  0  0
   27.7080  -14.7939  -17.1174 C   0  0  0  0  0  0  0  0  0  0  0  0
   27.1120  -15.7979  -17.8542 C   0  0  0  0  0  0  0  0  0  0  0  0
   26.5179  -16.8779  -17.2309 C   0  0  0  0  0  0  0  0  0  0  0  0
   26.4897  -17.0079  -15.8518 C   0  0  0  0  0  0  0  0  0  0  0  0
   25.8533  -18.1650  -15.1726 C   0  0  0  0  0  0  0  0  0  0  0  0
   26.8328  -19.0930  -14.5132 C   0  0  2  0  0  0  0  0  0  0  0  0
   27.7867  -19.6827  -15.4023 N   0  0  0  0  0  0  0  0  0  0  0  0
   26.0478  -20.1647  -13.8322 C   0  0  0  0  0  0  0  0  0  0  0  0
   25.5383  -21.1223  -14.5151 O   0  0  0  0  0  0  0  0  0  0  0  0
   27.0907  -15.9944  -15.1311 C   0  0  0  0  0  0  0  0  0  0  0  0
   27.6866  -14.9118  -15.7482 C   0  0  0  0  0  0  0  0  0  0  0  0
   25.8189  -20.2007  -12.4511 N   0  0  0  0  0  0  0  0  0  0  0  0
   24.7746  -20.9182  -11.7841 C   0  0  1  0  0  0  0  0  0  0  0  0
   24.9761  -20.8733  -10.2725 C   0  0  0  0  0  0  0  0  0  0  0  0
   26.7155  -20.9933   -9.8003 S   0  0  0  0  0  0  0  0  0  0  0  0
   23.4309  -20.4394  -12.0925 C   0  0  0  0  0  0  0  0  0  0  0  0
   23.2179  -19.3528  -12.6709 O   0  0  0  0  0  0  0  0  0  0  0  0
   22.3076  -21.2275  -11.7272 N   0  0  0  0  0  0  0  0  0  0  0  0
   21.0030  -21.0835  -12.3936 C   0  0  1  0  0  0  0  0  0  0  0  0
   21.1742  -21.3237  -13.8806 C   0  0  0  0  0  0  0  0  0  0  0  0
   20.8886  -20.1094  -14.7143 C   0  0  0  0  0  0  0  0  0  0  0  0
   20.9929  -20.5173  -16.1530 C   0  0  0  0  0  0  0  0  0  0  0  0
   22.0630  -21.1410  -16.4380 O   0  0  0  0  0  0  0  0  0  0  0  0
   20.0416  -22.0510  -11.8540 C   0  0  0  0  0  0  0  0  0  0  0  0
   20.3970  -23.2352  -11.6606 O   0  0  0  0  0  0  0  0  0  0  0  0
   20.0295  -20.2464  -17.0865 O   0  0  0  0  0  0  0  0  0  0  0  0
   18.7546  -21.6879  -11.5526 O   0  0  0  0  0  0  0  0  0  0  0  0
  2  1  1  0
  3  2  2  0
  4  3  1  0
  5 11  1  0
  5  4  2  0
  6  7  1  0
  6  5  1  0
  7  8  1  6
  9  7  1  0
  9 10  2  0
 11 12  2  0
 12  2  1  0
 13 14  1  0
 13  9  1  0
 14 15  1  1
 16 15  1  0
 17 18  2  0
 17 14  1  0
 19 17  1  0
 20 19  1  0
 20 25  1  0
 20 21  1  6
 22 21  1  0
 23 22  1  0
 24 23  2  0
 25 28  1  0
 26 25  2  0
 27 23  1  0
M  END
$$$$
