YCE.pdb
     RDKit          3D

 28 28  0  0  1  0  0  0  0  0999 V2000
   12.1976  -16.2564  -10.1368 O   0  0  0  0  0  0  0  0  0  0  0  0
   12.9409  -15.3857  -10.9548 C   0  0  0  0  0  0  0  0  0  0  0  0
   13.9883  -15.8472  -11.7269 C   0  0  0  0  0  0  0  0  0  0  0  0
   14.7118  -14.9860  -12.5286 C   0  0  0  0  0  0  0  0  0  0  0  0
   14.4276  -13.6317  -12.5985 C   0  0  0  0  0  0  0  0  0  0  0  0
   15.1997  -12.6979  -13.4570 C   0  0  0  0  0  0  0  0  0  0  0  0
   14.5508  -12.4174  -14.7820 C   0  0  2  0  0  0  0  0  0  0  0  0
   14.2849  -13.5797  -15.5736 N   0  0  0  0  0  0  0  0  0  0  0  0
   15.4463  -11.4891  -15.5333 C   0  0  0  0  0  0  0  0  0  0  0  0
   15.9155  -11.8311  -16.6760 O   0  0  0  0  0  0  0  0  0  0  0  0
   13.3768  -13.1880  -11.8196 C   0  0  0  0  0  0  0  0  0  0  0  0
   12.6492  -14.0439  -11.0159 C   0  0  0  0  0  0  0  0  0  0  0  0
   15.8253  -10.2257  -15.0627 N   0  0  0  0  0  0  0  0  0  0  0  0
   16.4841   -9.2031  -15.8181 C   0  0  1  0  0  0  0  0  0  0  0  0
   15.6264   -8.7799  -17.0068 C   0  0  0  0  0  0  0  0  0  0  0  0
   16.3658   -7.4282  -17.9498 S   0  0  0  0  0  0  0  0  0  0  0  0
   16.8281   -8.0161  -15.0419 C   0  0  0  0  0  0  0  0  0  0  0  0
   16.0352   -7.4829  -14.2371 O   0  0  0  0  0  0  0  0  0  0  0  0
   18.1119   -7.4292  -15.1950 N   0  0  0  0  0  0  0  0  0  0  0  0
   18.5641   -6.3096  -14.3531 C   0  0  1  0  0  0  0  0  0  0  0  0
   20.0666   -6.3982  -14.1717 C   0  0  0  0  0  0  0  0  0  0  0  0
   20.6317   -5.2789  -13.3477 C   0  0  0  0  0  0  0  0  0  0  0  0
   22.1202   -5.4524  -13.3145 C   0  0  0  0  0  0  0  0  0  0  0  0
   22.5034   -6.5331  -12.7664 O   0  0  0  0  0  0  0  0  0  0  0  0
   18.2265   -5.0272  -14.9798 C   0  0  0  0  0  0  0  0  0  0  0  0
   18.1088   -4.9578  -16.2238 O   0  0  0  0  0  0  0  0  0  0  0  0
   22.9990   -4.5350  -13.8236 O   0  0  0  0  0  0  0  0  0  0  0  0
   18.0337   -3.8948  -14.2318 O   0  0  0  0  0  0  0  0  0  0  0  0
  2  1  1  0
  3  2  2  0
  4  3  1  0
  5 11  1  0
  5  4  2  0
  6  7  1  0
  6  5  1  0
  7  8  1  6
  9  7  1  0
  9 10  2  0
 11 12  2  0
 12  2  1  0
 13 14  1  0
 13  9  1  0
 14 15  1  6
 16 15  1  0
 17 18  2  0
 17 14  1  0
 19 17  1  0
 20 19  1  0
 20 25  1  0
 20 21  1  6
 22 21  1  0
 23 22  1  0
 24 23  2  0
 25 28  1  0
 26 25  2  0
 27 23  1  0
M  END
$$$$
