YCE.pdb
     RDKit          3D

 28 28  0  0  1  0  0  0  0  0999 V2000
   19.5406  -19.2540  -15.8692 O   0  0  0  0  0  0  0  0  0  0  0  0
   19.4936  -17.8627  -16.0741 C   0  0  0  0  0  0  0  0  0  0  0  0
   18.5547  -17.0760  -15.4372 C   0  0  0  0  0  0  0  0  0  0  0  0
   18.5167  -15.7106  -15.6425 C   0  0  0  0  0  0  0  0  0  0  0  0
   19.4072  -15.0681  -16.4874 C   0  0  0  0  0  0  0  0  0  0  0  0
   19.3740  -13.6011  -16.7148 C   0  0  0  0  0  0  0  0  0  0  0  0
   18.3176  -13.1635  -17.6884 C   0  0  2  0  0  0  0  0  0  0  0  0
   18.4524  -13.7149  -19.0022 N   0  0  0  0  0  0  0  0  0  0  0  0
   18.3618  -11.6731  -17.7596 C   0  0  0  0  0  0  0  0  0  0  0  0
   19.1550  -11.0910  -18.5811 O   0  0  0  0  0  0  0  0  0  0  0  0
   20.3391  -15.8709  -17.1158 C   0  0  0  0  0  0  0  0  0  0  0  0
   20.3827  -17.2367  -16.9148 C   0  0  0  0  0  0  0  0  0  0  0  0
   17.5709  -10.8342  -16.9646 N   0  0  0  0  0  0  0  0  0  0  0  0
   17.5145   -9.4053  -17.0366 C   0  0  1  0  0  0  0  0  0  0  0  0
   16.0909   -8.9403  -17.3276 C   0  0  0  0  0  0  0  0  0  0  0  0
   14.8946   -9.5791  -16.1343 S   0  0  0  0  0  0  0  0  0  0  0  0
   17.9927   -8.7282  -15.8354 C   0  0  0  0  0  0  0  0  0  0  0  0
   17.9778   -9.2646  -14.7073 O   0  0  0  0  0  0  0  0  0  0  0  0
   18.4986   -7.4051  -15.9339 N   0  0  0  0  0  0  0  0  0  0  0  0
   18.9168   -6.6389  -14.7487 C   0  0  1  0  0  0  0  0  0  0  0  0
   20.3482   -6.1755  -14.9350 C   0  0  0  0  0  0  0  0  0  0  0  0
   20.8920   -5.4375  -13.7472 C   0  0  0  0  0  0  0  0  0  0  0  0
   22.3209   -5.0965  -14.0457 C   0  0  0  0  0  0  0  0  0  0  0  0
   22.8452   -5.8134  -14.9547 O   0  0  0  0  0  0  0  0  0  0  0  0
   18.0499   -5.4708  -14.5606 C   0  0  0  0  0  0  0  0  0  0  0  0
   17.4526   -4.9781  -15.5438 O   0  0  0  0  0  0  0  0  0  0  0  0
   23.0111   -4.1053  -13.4022 O   0  0  0  0  0  0  0  0  0  0  0  0
   17.8749   -4.9018  -13.3259 O   0  0  0  0  0  0  0  0  0  0  0  0
  2  1  1  0
  3  2  2  0
  4  3  1  0
  5 11  1  0
  5  4  2  0
  6  7  1  0
  6  5  1  0
  7  8  1  6
  9  7  1  0
  9 10  2  0
 11 12  2  0
 12  2  1  0
 13 14  1  0
 13  9  1  0
 14 15  1  1
 16 15  1  0
 17 18  2  0
 17 14  1  0
 19 17  1  0
 20 19  1  0
 20 25  1  0
 20 21  1  6
 22 21  1  0
 23 22  1  0
 24 23  2  0
 25 28  1  0
 26 25  2  0
 27 23  1  0
M  END
$$$$
