YCE.pdb
     RDKit          3D

 28 28  0  0  1  0  0  0  0  0999 V2000
   30.0837  -19.4981   -3.6584 O   0  0  0  0  0  0  0  0  0  0  0  0
   29.1658  -19.6975   -4.7060 C   0  0  0  0  0  0  0  0  0  0  0  0
   28.7111  -18.6419   -5.4709 C   0  0  0  0  0  0  0  0  0  0  0  0
   27.8113  -18.8468   -6.4987 C   0  0  0  0  0  0  0  0  0  0  0  0
   27.3247  -20.1058   -6.8111 C   0  0  0  0  0  0  0  0  0  0  0  0
   26.3570  -20.3360   -7.9138 C   0  0  0  0  0  0  0  0  0  0  0  0
   26.9296  -21.1031   -9.0709 C   0  0  2  0  0  0  0  0  0  0  0  0
   28.3584  -21.1847   -9.0835 N   0  0  0  0  0  0  0  0  0  0  0  0
   26.4503  -20.4496  -10.3245 C   0  0  0  0  0  0  0  0  0  0  0  0
   26.3978  -19.1714  -10.4048 O   0  0  0  0  0  0  0  0  0  0  0  0
   27.7904  -21.1495   -6.0356 C   0  0  0  0  0  0  0  0  0  0  0  0
   28.6903  -20.9516   -5.0065 C   0  0  0  0  0  0  0  0  0  0  0  0
   26.0382  -21.1576  -11.4604 N   0  0  0  0  0  0  0  0  0  0  0  0
   25.5690  -20.5898  -12.6882 C   0  0  1  0  0  0  0  0  0  0  0  0
   26.7429  -20.2268  -13.5926 C   0  0  0  0  0  0  0  0  0  0  0  0
   28.3209  -20.8375  -12.9601 S   0  0  0  0  0  0  0  0  0  0  0  0
   24.6530  -21.4494  -13.4312 C   0  0  0  0  0  0  0  0  0  0  0  0
   24.7686  -22.6929  -13.4605 O   0  0  0  0  0  0  0  0  0  0  0  0
   23.5809  -20.8658  -14.1567 N   0  0  0  0  0  0  0  0  0  0  0  0
   22.3269  -21.5919  -14.4157 C   0  0  1  0  0  0  0  0  0  0  0  0
   21.6328  -21.8727  -13.0975 C   0  0  0  0  0  0  0  0  0  0  0  0
   20.4367  -20.9989  -12.8590 C   0  0  0  0  0  0  0  0  0  0  0  0
   19.4491  -21.7967  -12.0620 C   0  0  0  0  0  0  0  0  0  0  0  0
   18.8857  -22.7278  -12.7185 O   0  0  0  0  0  0  0  0  0  0  0  0
   21.4399  -20.7954  -15.2703 C   0  0  0  0  0  0  0  0  0  0  0  0
   21.6001  -19.5566  -15.3451 O   0  0  0  0  0  0  0  0  0  0  0  0
   19.1686  -21.5527  -10.7450 O   0  0  0  0  0  0  0  0  0  0  0  0
   20.4334  -21.3783  -15.9958 O   0  0  0  0  0  0  0  0  0  0  0  0
  2  1  1  0
  3  2  2  0
  4  3  1  0
  5 11  1  0
  5  4  2  0
  6  7  1  0
  6  5  1  0
  7  8  1  1
  9  7  1  0
  9 10  2  0
 11 12  2  0
 12  2  1  0
 13 14  1  0
 13  9  1  0
 14 15  1  6
 16 15  1  0
 17 18  2  0
 17 14  1  0
 19 17  1  0
 20 19  1  0
 20 25  1  0
 20 21  1  1
 22 21  1  0
 23 22  1  0
 24 23  2  0
 25 28  1  0
 26 25  2  0
 27 23  1  0
M  END
$$$$
