YCE.pdb
     RDKit          3D

 28 28  0  0  1  0  0  0  0  0999 V2000
   28.2442  -14.5070  -17.9157 O   0  0  0  0  0  0  0  0  0  0  0  0
   27.7700  -15.5989  -17.1655 C   0  0  0  0  0  0  0  0  0  0  0  0
   27.5981  -15.5084  -15.7986 C   0  0  0  0  0  0  0  0  0  0  0  0
   27.1304  -16.5845  -15.0698 C   0  0  0  0  0  0  0  0  0  0  0  0
   26.8137  -17.7949  -15.6651 C   0  0  0  0  0  0  0  0  0  0  0  0
   26.3106  -18.9574  -14.8902 C   0  0  0  0  0  0  0  0  0  0  0  0
   27.3903  -19.9037  -14.4495 C   0  0  2  0  0  0  0  0  0  0  0  0
   28.0530  -20.5904  -15.5160 N   0  0  0  0  0  0  0  0  0  0  0  0
   26.7687  -20.8936  -13.5210 C   0  0  0  0  0  0  0  0  0  0  0  0
   26.2706  -21.9820  -13.9797 O   0  0  0  0  0  0  0  0  0  0  0  0
   26.9918  -17.8670  -17.0329 C   0  0  0  0  0  0  0  0  0  0  0  0
   27.4590  -16.7947  -17.7675 C   0  0  0  0  0  0  0  0  0  0  0  0
   26.6868  -20.7125  -12.1348 N   0  0  0  0  0  0  0  0  0  0  0  0
   25.5755  -21.0564  -11.2999 C   0  0  1  0  0  0  0  0  0  0  0  0
   25.8568  -20.6730   -9.8503 C   0  0  0  0  0  0  0  0  0  0  0  0
   24.4199  -20.9032   -8.7801 S   0  0  0  0  0  0  0  0  0  0  0  0
   24.3123  -20.4504  -11.7086 C   0  0  0  0  0  0  0  0  0  0  0  0
   24.1790  -19.2205  -11.8824 O   0  0  0  0  0  0  0  0  0  0  0  0
   23.1776  -21.2770  -11.9215 N   0  0  0  0  0  0  0  0  0  0  0  0
   21.8760  -20.7256  -12.3321 C   0  0  1  0  0  0  0  0  0  0  0  0
   21.7663  -20.7804  -13.8431 C   0  0  0  0  0  0  0  0  0  0  0  0
   21.8032  -22.1771  -14.3902 C   0  0  0  0  0  0  0  0  0  0  0  0
   21.6271  -22.0825  -15.8758 C   0  0  0  0  0  0  0  0  0  0  0  0
   21.7255  -23.1959  -16.4807 O   0  0  0  0  0  0  0  0  0  0  0  0
   20.7805  -21.4994  -11.7384 C   0  0  0  0  0  0  0  0  0  0  0  0
   19.6029  -21.0904  -11.8480 O   0  0  0  0  0  0  0  0  0  0  0  0
   21.3838  -20.9077  -16.5342 O   0  0  0  0  0  0  0  0  0  0  0  0
   21.0155  -22.6688  -11.0628 O   0  0  0  0  0  0  0  0  0  0  0  0
  2  1  1  0
  3  2  2  0
  4  3  1  0
  5 11  1  0
  5  4  2  0
  6  7  1  0
  6  5  1  0
  7  8  1  6
  9  7  1  0
  9 10  2  0
 11 12  2  0
 12  2  1  0
 13 14  1  0
 13  9  1  0
 14 15  1  1
 16 15  1  0
 17 18  2  0
 17 14  1  0
 19 17  1  0
 20 19  1  0
 20 25  1  0
 20 21  1  6
 22 21  1  0
 23 22  1  0
 24 23  2  0
 25 28  1  0
 26 25  2  0
 27 23  1  0
M  END
$$$$
