YCE.pdb
     RDKit          3D

 28 28  0  0  1  0  0  0  0  0999 V2000
   21.4259  -12.5030  -25.5271 O   0  0  0  0  0  0  0  0  0  0  0  0
   21.4033  -11.9753  -24.2229 C   0  0  0  0  0  0  0  0  0  0  0  0
   22.5422  -11.9428  -23.4433 C   0  0  0  0  0  0  0  0  0  0  0  0
   22.5117  -11.4214  -22.1645 C   0  0  0  0  0  0  0  0  0  0  0  0
   21.3515  -10.9106  -21.6053 C   0  0  0  0  0  0  0  0  0  0  0  0
   21.3086  -10.3484  -20.2316 C   0  0  0  0  0  0  0  0  0  0  0  0
   21.3820  -11.3876  -19.1500 C   0  0  2  0  0  0  0  0  0  0  0  0
   20.2875  -12.3096  -19.1338 N   0  0  0  0  0  0  0  0  0  0  0  0
   21.4575  -10.6709  -17.8427 C   0  0  0  0  0  0  0  0  0  0  0  0
   20.3843  -10.3790  -17.2055 O   0  0  0  0  0  0  0  0  0  0  0  0
   20.2222  -10.9514  -22.3996 C   0  0  0  0  0  0  0  0  0  0  0  0
   20.2460  -11.4713  -23.6791 C   0  0  0  0  0  0  0  0  0  0  0  0
   22.6597  -10.2797  -17.2402 N   0  0  0  0  0  0  0  0  0  0  0  0
   22.8077   -9.7181  -15.9315 C   0  0  1  0  0  0  0  0  0  0  0  0
   23.9904  -10.3540  -15.2073 C   0  0  0  0  0  0  0  0  0  0  0  0
   23.7406  -12.1133  -14.8823 S   0  0  0  0  0  0  0  0  0  0  0  0
   22.9753   -8.2683  -15.9200 C   0  0  0  0  0  0  0  0  0  0  0  0
   23.6568   -7.6611  -16.7729 O   0  0  0  0  0  0  0  0  0  0  0  0
   22.3457   -7.5004  -14.9052 N   0  0  0  0  0  0  0  0  0  0  0  0
   22.3739   -6.0286  -14.9090 C   0  0  1  0  0  0  0  0  0  0  0  0
   21.2257   -5.5109  -15.7528 C   0  0  0  0  0  0  0  0  0  0  0  0
   19.8775   -5.9095  -15.2286 C   0  0  0  0  0  0  0  0  0  0  0  0
   18.8461   -5.2445  -16.0893 C   0  0  0  0  0  0  0  0  0  0  0  0
   18.5168   -5.9173  -17.1161 O   0  0  0  0  0  0  0  0  0  0  0  0
   22.2442   -5.5093  -13.5434 C   0  0  0  0  0  0  0  0  0  0  0  0
   21.9341   -6.2858  -12.6123 O   0  0  0  0  0  0  0  0  0  0  0  0
   18.3015   -4.0212  -15.8068 O   0  0  0  0  0  0  0  0  0  0  0  0
   22.4572   -4.1854  -13.2588 O   0  0  0  0  0  0  0  0  0  0  0  0
  2  1  1  0
  3  2  2  0
  4  3  1  0
  5 11  1  0
  5  4  2  0
  6  7  1  0
  6  5  1  0
  7  8  1  1
  9  7  1  0
  9 10  2  0
 11 12  2  0
 12  2  1  0
 13 14  1  0
 13  9  1  0
 14 15  1  6
 16 15  1  0
 17 18  2  0
 17 14  1  0
 19 17  1  0
 20 19  1  0
 20 25  1  0
 20 21  1  6
 22 21  1  0
 23 22  1  0
 24 23  2  0
 25 28  1  0
 26 25  2  0
 27 23  1  0
M  END
$$$$
