YCE.pdb
     RDKit          3D

 28 28  0  0  1  0  0  0  0  0999 V2000
   27.5922  -16.5363  -15.3370 O   0  0  0  0  0  0  0  0  0  0  0  0
   26.4896  -15.7658  -15.7498 C   0  0  0  0  0  0  0  0  0  0  0  0
   26.2276  -15.5491  -17.0880 C   0  0  0  0  0  0  0  0  0  0  0  0
   25.1419  -14.7929  -17.4847 C   0  0  0  0  0  0  0  0  0  0  0  0
   24.2709  -14.2200  -16.5722 C   0  0  0  0  0  0  0  0  0  0  0  0
   23.1015  -13.4053  -16.9889 C   0  0  0  0  0  0  0  0  0  0  0  0
   21.8142  -14.1771  -17.0413 C   0  0  2  0  0  0  0  0  0  0  0  0
   21.8294  -15.3024  -17.9255 N   0  0  0  0  0  0  0  0  0  0  0  0
   20.7375  -13.2278  -17.4510 C   0  0  0  0  0  0  0  0  0  0  0  0
   20.4980  -13.0232  -18.6935 O   0  0  0  0  0  0  0  0  0  0  0  0
   24.5485  -14.4473  -15.2384 C   0  0  0  0  0  0  0  0  0  0  0  0
   25.6324  -15.2026  -14.8349 C   0  0  0  0  0  0  0  0  0  0  0  0
   19.9415  -12.5183  -16.5432 N   0  0  0  0  0  0  0  0  0  0  0  0
   18.8550  -11.6454  -16.8717 C   0  0  1  0  0  0  0  0  0  0  0  0
   17.5191  -12.3503  -16.6573 C   0  0  0  0  0  0  0  0  0  0  0  0
   17.4967  -13.3530  -15.1549 S   0  0  0  0  0  0  0  0  0  0  0  0
   18.8495  -10.3924  -16.1234 C   0  0  0  0  0  0  0  0  0  0  0  0
   19.3110  -10.2952  -14.9666 O   0  0  0  0  0  0  0  0  0  0  0  0
   18.3006   -9.2258  -16.7184 N   0  0  0  0  0  0  0  0  0  0  0  0
   18.3452   -7.9143  -16.0516 C   0  0  1  0  0  0  0  0  0  0  0  0
   18.7760   -6.8609  -17.0531 C   0  0  0  0  0  0  0  0  0  0  0  0
   18.7782   -5.4710  -16.4881 C   0  0  0  0  0  0  0  0  0  0  0  0
   19.1399   -4.5341  -17.6009 C   0  0  0  0  0  0  0  0  0  0  0  0
   19.4071   -5.1141  -18.6998 O   0  0  0  0  0  0  0  0  0  0  0  0
   17.0244   -7.5645  -15.5184 C   0  0  0  0  0  0  0  0  0  0  0  0
   16.9095   -6.5952  -14.7353 O   0  0  0  0  0  0  0  0  0  0  0  0
   19.1841   -3.1737  -17.4585 O   0  0  0  0  0  0  0  0  0  0  0  0
   15.9040   -8.2768  -15.8599 O   0  0  0  0  0  0  0  0  0  0  0  0
  2  1  1  0
  3  2  2  0
  4  3  1  0
  5 11  1  0
  5  4  2  0
  6  7  1  0
  6  5  1  0
  7  8  1  6
  9  7  1  0
  9 10  2  0
 11 12  2  0
 12  2  1  0
 13 14  1  0
 13  9  1  0
 14 15  1  1
 16 15  1  0
 17 18  2  0
 17 14  1  0
 19 17  1  0
 20 19  1  0
 20 25  1  0
 20 21  1  6
 22 21  1  0
 23 22  1  0
 24 23  2  0
 25 28  1  0
 26 25  2  0
 27 23  1  0
M  END
$$$$
