YCE.pdb
     RDKit          3D

 28 28  0  0  1  0  0  0  0  0999 V2000
   29.7204  -18.8968   -4.2899 O   0  0  0  0  0  0  0  0  0  0  0  0
   29.0124  -19.2996   -5.4372 C   0  0  0  0  0  0  0  0  0  0  0  0
   28.1727  -18.4293   -6.1032 C   0  0  0  0  0  0  0  0  0  0  0  0
   27.4827  -18.8323   -7.2299 C   0  0  0  0  0  0  0  0  0  0  0  0
   27.5959  -20.1142   -7.7433 C   0  0  0  0  0  0  0  0  0  0  0  0
   26.8581  -20.5568   -8.9536 C   0  0  0  0  0  0  0  0  0  0  0  0
   25.3697  -20.6222   -8.7645 C   0  0  2  0  0  0  0  0  0  0  0  0
   24.9382  -21.5178   -7.7350 N   0  0  0  0  0  0  0  0  0  0  0  0
   24.7683  -21.0263  -10.0697 C   0  0  0  0  0  0  0  0  0  0  0  0
   24.9581  -22.2084  -10.5275 O   0  0  0  0  0  0  0  0  0  0  0  0
   28.4401  -20.9708   -7.0642 C   0  0  0  0  0  0  0  0  0  0  0  0
   29.1331  -20.5742   -5.9371 C   0  0  0  0  0  0  0  0  0  0  0  0
   23.9837  -20.1764  -10.8592 N   0  0  0  0  0  0  0  0  0  0  0  0
   23.4453  -20.4781  -12.1512 C   0  0  1  0  0  0  0  0  0  0  0  0
   22.0485  -19.8830  -12.3007 C   0  0  0  0  0  0  0  0  0  0  0  0
   21.2807  -20.3028  -13.8810 S   0  0  0  0  0  0  0  0  0  0  0  0
   24.2716  -20.0202  -13.2636 C   0  0  0  0  0  0  0  0  0  0  0  0
   25.1604  -19.1523  -13.1313 O   0  0  0  0  0  0  0  0  0  0  0  0
   24.0710  -20.5721  -14.5563 N   0  0  0  0  0  0  0  0  0  0  0  0
   24.9771  -20.2803  -15.6791 C   0  0  1  0  0  0  0  0  0  0  0  0
   26.2047  -21.1632  -15.5706 C   0  0  0  0  0  0  0  0  0  0  0  0
   27.1626  -20.9901  -16.7124 C   0  0  0  0  0  0  0  0  0  0  0  0
   28.3363  -21.8860  -16.4540 C   0  0  0  0  0  0  0  0  0  0  0  0
   28.4529  -22.2500  -15.2419 O   0  0  0  0  0  0  0  0  0  0  0  0
   24.3076  -20.5366  -16.9588 C   0  0  0  0  0  0  0  0  0  0  0  0
   23.3706  -21.3644  -17.0127 O   0  0  0  0  0  0  0  0  0  0  0  0
   29.2128  -22.2820  -17.4275 O   0  0  0  0  0  0  0  0  0  0  0  0
   24.6839  -19.8863  -18.1053 O   0  0  0  0  0  0  0  0  0  0  0  0
  2  1  1  0
  3  2  2  0
  4  3  1  0
  5 11  1  0
  5  4  2  0
  6  7  1  0
  6  5  1  0
  7  8  1  1
  9  7  1  0
  9 10  2  0
 11 12  2  0
 12  2  1  0
 13 14  1  0
 13  9  1  0
 14 15  1  6
 16 15  1  0
 17 18  2  0
 17 14  1  0
 19 17  1  0
 20 19  1  0
 20 25  1  0
 20 21  1  1
 22 21  1  0
 23 22  1  0
 24 23  2  0
 25 28  1  0
 26 25  2  0
 27 23  1  0
M  END
$$$$
