YCE.pdb
     RDKit          3D

 28 28  0  0  1  0  0  0  0  0999 V2000
   26.1496  -38.9480   -8.4147 O   0  0  0  0  0  0  0  0  0  0  0  0
   26.2405  -38.1389   -9.5622 C   0  0  0  0  0  0  0  0  0  0  0  0
   27.1820  -37.1335   -9.6573 C   0  0  0  0  0  0  0  0  0  0  0  0
   27.2657  -36.3449  -10.7882 C   0  0  0  0  0  0  0  0  0  0  0  0
   26.4200  -36.5196  -11.8717 C   0  0  0  0  0  0  0  0  0  0  0  0
   26.5019  -35.6768  -13.0915 C   0  0  0  0  0  0  0  0  0  0  0  0
   25.5005  -34.5580  -13.1223 C   0  0  2  0  0  0  0  0  0  0  0  0
   25.5474  -33.7482  -14.3013 N   0  0  0  0  0  0  0  0  0  0  0  0
   25.7377  -33.7094  -11.9174 C   0  0  0  0  0  0  0  0  0  0  0  0
   26.7636  -32.9430  -11.8615 O   0  0  0  0  0  0  0  0  0  0  0  0
   25.4847  -37.5297  -11.7589 C   0  0  0  0  0  0  0  0  0  0  0  0
   25.3959  -38.3220  -10.6309 C   0  0  0  0  0  0  0  0  0  0  0  0
   24.8901  -33.6896  -10.8027 N   0  0  0  0  0  0  0  0  0  0  0  0
   25.0953  -32.9472   -9.5957 C   0  0  1  0  0  0  0  0  0  0  0  0
   23.9805  -31.9240   -9.4012 C   0  0  0  0  0  0  0  0  0  0  0  0
   24.1405  -31.0096   -7.8515 S   0  0  0  0  0  0  0  0  0  0  0  0
   25.1885  -33.7730   -8.3960 C   0  0  0  0  0  0  0  0  0  0  0  0
   24.2725  -34.5406   -8.0324 O   0  0  0  0  0  0  0  0  0  0  0  0
   26.3608  -33.7143   -7.5969 N   0  0  0  0  0  0  0  0  0  0  0  0
   26.4873  -34.4695   -6.3398 C   0  0  1  0  0  0  0  0  0  0  0  0
   27.9066  -34.3411   -5.8226 C   0  0  0  0  0  0  0  0  0  0  0  0
   28.1859  -35.2130   -4.6339 C   0  0  0  0  0  0  0  0  0  0  0  0
   29.6457  -35.0872   -4.3174 C   0  0  0  0  0  0  0  0  0  0  0  0
   30.3773  -34.8577   -5.3309 O   0  0  0  0  0  0  0  0  0  0  0  0
   25.5559  -33.9498   -5.3329 C   0  0  0  0  0  0  0  0  0  0  0  0
   25.3569  -32.7170   -5.2511 O   0  0  0  0  0  0  0  0  0  0  0  0
   30.1577  -35.2089   -3.0540 O   0  0  0  0  0  0  0  0  0  0  0  0
   24.8918  -34.7866   -4.4740 O   0  0  0  0  0  0  0  0  0  0  0  0
  2  1  1  0
  3  2  2  0
  4  3  1  0
  5 11  1  0
  5  4  2  0
  6  7  1  0
  6  5  1  0
  7  8  1  6
  9  7  1  0
  9 10  2  0
 11 12  2  0
 12  2  1  0
 13 14  1  0
 13  9  1  0
 14 15  1  1
 16 15  1  0
 17 18  2  0
 17 14  1  0
 19 17  1  0
 20 19  1  0
 20 25  1  0
 20 21  1  1
 22 21  1  0
 23 22  1  0
 24 23  2  0
 25 28  1  0
 26 25  2  0
 27 23  1  0
M  END
$$$$
