YCE.pdb
     RDKit          3D

 28 28  0  0  1  0  0  0  0  0999 V2000
   25.2604  -15.1850  -20.6049 O   0  0  0  0  0  0  0  0  0  0  0  0
   24.5176  -16.0161  -19.7462 C   0  0  0  0  0  0  0  0  0  0  0  0
   24.3093  -17.3486  -20.0419 C   0  0  0  0  0  0  0  0  0  0  0  0
   23.5803  -18.1579  -19.1926 C   0  0  0  0  0  0  0  0  0  0  0  0
   23.0274  -17.6808  -18.0152 C   0  0  0  0  0  0  0  0  0  0  0  0
   22.2420  -18.5429  -17.0959 C   0  0  0  0  0  0  0  0  0  0  0  0
   23.0574  -19.1481  -15.9895 C   0  0  2  0  0  0  0  0  0  0  0  0
   24.0671  -20.0640  -16.4253 N   0  0  0  0  0  0  0  0  0  0  0  0
   22.1138  -19.8405  -15.0630 C   0  0  0  0  0  0  0  0  0  0  0  0
   21.9288  -21.1052  -15.1593 O   0  0  0  0  0  0  0  0  0  0  0  0
   23.2459  -16.3459  -17.7358 C   0  0  0  0  0  0  0  0  0  0  0  0
   23.9741  -15.5311  -18.5807 C   0  0  0  0  0  0  0  0  0  0  0  0
   21.3893  -19.1846  -14.0600 N   0  0  0  0  0  0  0  0  0  0  0  0
   20.5176  -19.7996  -13.1049 C   0  0  1  0  0  0  0  0  0  0  0  0
   20.6530  -19.1231  -11.7441 C   0  0  0  0  0  0  0  0  0  0  0  0
   19.5891  -19.8692  -10.4893 S   0  0  0  0  0  0  0  0  0  0  0  0
   19.1106  -19.7960  -13.4924 C   0  0  0  0  0  0  0  0  0  0  0  0
   18.4870  -18.7471  -13.7595 O   0  0  0  0  0  0  0  0  0  0  0  0
   18.4055  -21.0258  -13.5742 N   0  0  0  0  0  0  0  0  0  0  0  0
   16.9575  -21.0797  -13.8335 C   0  0  1  0  0  0  0  0  0  0  0  0
   16.5382  -22.5250  -14.0173 C   0  0  0  0  0  0  0  0  0  0  0  0
   17.2763  -23.4753  -13.1211 C   0  0  0  0  0  0  0  0  0  0  0  0
   16.6571  -24.8293  -13.2945 C   0  0  0  0  0  0  0  0  0  0  0  0
   15.6755  -24.8502  -14.1015 O   0  0  0  0  0  0  0  0  0  0  0  0
   16.2132  -20.4982  -12.7115 C   0  0  0  0  0  0  0  0  0  0  0  0
   16.6787  -20.5764  -11.5525 O   0  0  0  0  0  0  0  0  0  0  0  0
   17.0987  -25.9505  -12.6456 O   0  0  0  0  0  0  0  0  0  0  0  0
   15.0122  -19.8652  -12.9017 O   0  0  0  0  0  0  0  0  0  0  0  0
  2  1  1  0
  3  2  2  0
  4  3  1  0
  5 11  1  0
  5  4  2  0
  6  7  1  0
  6  5  1  0
  7  8  1  6
  9  7  1  0
  9 10  2  0
 11 12  2  0
 12  2  1  0
 13 14  1  0
 13  9  1  0
 14 15  1  1
 16 15  1  0
 17 18  2  0
 17 14  1  0
 19 17  1  0
 20 19  1  0
 20 25  1  0
 20 21  1  1
 22 21  1  0
 23 22  1  0
 24 23  2  0
 25 28  1  0
 26 25  2  0
 27 23  1  0
M  END
$$$$
