TDS.pdb
     RDKit          3D

 22 21  0  0  1  0  0  0  0  0999 V2000
    7.8126  -12.4401   18.3206 C   0  0  0  0  0  0  0  0  0  0  0  0
    8.1919  -13.7576   18.9092 C   0  0  1  0  0  0  0  0  0  0  0  0
    8.3798  -14.6463   17.8466 O   0  0  0  0  0  0  0  0  0  0  0  0
    9.4329  -13.6488   19.7527 C   0  0  2  0  0  0  0  0  0  0  0  0
   10.5712  -13.3460   18.9574 N   0  0  0  0  0  0  0  0  0  0  0  0
    9.6495  -14.9429   20.4921 C   0  0  0  0  0  0  0  0  0  0  0  0
    8.7382  -15.4824   21.1756 O   0  0  0  0  0  0  0  0  0  0  0  0
   10.9191  -15.5705   20.4140 N   0  0  0  0  0  0  0  0  0  0  0  0
   11.1408  -16.8058   21.1715 C   0  0  1  0  0  0  0  0  0  0  0  0
   12.2523  -17.6026   20.5458 C   0  0  0  0  0  0  0  0  0  0  0  0
   11.9638  -18.1031   19.1959 C   0  0  0  0  0  0  0  0  0  0  0  0
   10.8949  -18.7375   18.9707 O   0  0  0  0  0  0  0  0  0  0  0  0
   11.4270  -16.4364   22.5897 C   0  0  0  0  0  0  0  0  0  0  0  0
   12.4095  -15.7375   22.8715 O   0  0  0  0  0  0  0  0  0  0  0  0
   12.8235  -17.9126   18.1360 O   0  0  0  0  0  0  0  0  0  0  0  0
    8.4978  -16.7478   25.3301 O   0  0  0  0  0  0  0  0  0  0  0  0
    9.6107  -15.9674   25.6405 C   0  0  0  0  0  0  0  0  0  0  0  0
   10.8399  -16.5816   25.0290 C   0  0  2  0  0  0  0  0  0  0  0  0
   10.5826  -16.8786   23.6306 N   0  0  0  0  0  0  0  0  0  0  0  0
   11.2247  -17.8315   25.7237 C   0  0  0  0  0  0  0  0  0  0  0  0
   11.2558  -18.9459   25.1323 O   0  0  0  0  0  0  0  0  0  0  0  0
   11.5580  -17.7578   27.0633 O   0  0  0  0  0  0  0  0  0  0  0  0
  2  1  1  6
  2  4  1  0
  3  2  1  0
  4  5  1  6
  4  6  1  0
  6  8  1  0
  7  6  2  0
  8  9  1  0
  9 13  1  0
 10 11  1  0
  9 10  1  6
 11 15  1  0
 12 11  2  0
 13 14  2  0
 13 19  1  0
 16 17  1  0
 18 17  1  1
 18 20  1  0
 19 18  1  0
 20 22  1  0
 21 20  2  0
M  END
$$$$
