TDS.pdb
     RDKit          3D

 22 21  0  0  1  0  0  0  0  0999 V2000
    8.1556  -11.8080   18.8192 C   0  0  0  0  0  0  0  0  0  0  0  0
    9.0026  -12.8873   19.4057 C   0  0  1  0  0  0  0  0  0  0  0  0
    8.3505  -13.3464   20.5539 O   0  0  0  0  0  0  0  0  0  0  0  0
    9.2290  -14.0057   18.4253 C   0  0  2  0  0  0  0  0  0  0  0  0
    7.9970  -14.5315   17.9503 N   0  0  0  0  0  0  0  0  0  0  0  0
   10.0340  -15.0939   19.0858 C   0  0  0  0  0  0  0  0  0  0  0  0
    9.5347  -16.2160   19.3691 O   0  0  0  0  0  0  0  0  0  0  0  0
   11.3953  -14.8444   19.3964 N   0  0  0  0  0  0  0  0  0  0  0  0
   12.1920  -15.9252   19.9845 C   0  0  1  0  0  0  0  0  0  0  0  0
   13.6090  -15.8523   19.4857 C   0  0  0  0  0  0  0  0  0  0  0  0
   14.4718  -16.9559   19.9254 C   0  0  0  0  0  0  0  0  0  0  0  0
   13.9671  -18.0763   20.2185 O   0  0  0  0  0  0  0  0  0  0  0  0
   12.1001  -15.8145   21.4708 C   0  0  0  0  0  0  0  0  0  0  0  0
   12.7821  -14.9818   22.0828 O   0  0  0  0  0  0  0  0  0  0  0  0
   15.8389  -16.8270   20.0394 O   0  0  0  0  0  0  0  0  0  0  0  0
    9.0095  -15.3470   23.2813 O   0  0  0  0  0  0  0  0  0  0  0  0
    9.5590  -16.4564   23.9226 C   0  0  0  0  0  0  0  0  0  0  0  0
   11.0333  -16.5236   23.6330 C   0  0  2  0  0  0  0  0  0  0  0  0
   11.2352  -16.6577   22.2007 N   0  0  0  0  0  0  0  0  0  0  0  0
   11.6690  -17.6722   24.3183 C   0  0  0  0  0  0  0  0  0  0  0  0
   11.6441  -17.8028   25.5731 O   0  0  0  0  0  0  0  0  0  0  0  0
   12.3061  -18.6235   23.5434 O   0  0  0  0  0  0  0  0  0  0  0  0
  2  1  1  6
  2  4  1  0
  3  2  1  0
  4  5  1  1
  4  6  1  0
  6  8  1  0
  7  6  2  0
  8  9  1  0
  9 13  1  0
 10 11  1  0
  9 10  1  1
 11 15  1  0
 12 11  2  0
 13 14  2  0
 13 19  1  0
 16 17  1  0
 18 17  1  6
 18 20  1  0
 19 18  1  0
 20 22  1  0
 21 20  2  0
M  END
$$$$
