TDS.pdb
     RDKit          3D

 22 21  0  0  1  0  0  0  0  0999 V2000
   10.6649  -13.2914   19.1107 C   0  0  0  0  0  0  0  0  0  0  0  0
    9.2877  -12.7198   19.0568 C   0  0  1  0  0  0  0  0  0  0  0  0
    9.3331  -11.6120   18.2054 O   0  0  0  0  0  0  0  0  0  0  0  0
    8.2871  -13.7349   18.5754 C   0  0  2  0  0  0  0  0  0  0  0  0
    6.9777  -13.1844   18.5269 N   0  0  0  0  0  0  0  0  0  0  0  0
    8.3102  -14.9317   19.4894 C   0  0  0  0  0  0  0  0  0  0  0  0
    7.5210  -15.0417   20.4660 O   0  0  0  0  0  0  0  0  0  0  0  0
    9.2499  -15.9644   19.2398 N   0  0  0  0  0  0  0  0  0  0  0  0
    9.3246  -17.0890   20.1772 C   0  0  1  0  0  0  0  0  0  0  0  0
    9.8958  -18.2979   19.4886 C   0  0  0  0  0  0  0  0  0  0  0  0
   10.0245  -19.4862   20.3414 C   0  0  0  0  0  0  0  0  0  0  0  0
   10.9941  -19.5872   21.1448 O   0  0  0  0  0  0  0  0  0  0  0  0
   10.1382  -16.6603   21.3535 C   0  0  0  0  0  0  0  0  0  0  0  0
   11.2167  -16.0739   21.1922 O   0  0  0  0  0  0  0  0  0  0  0  0
    9.1189  -20.5241   20.3068 O   0  0  0  0  0  0  0  0  0  0  0  0
   10.1045  -15.8347   26.1109 O   0  0  0  0  0  0  0  0  0  0  0  0
    9.4415  -16.3489   24.9973 C   0  0  0  0  0  0  0  0  0  0  0  0
   10.4016  -16.4480   23.8439 C   0  0  2  0  0  0  0  0  0  0  0  0
    9.6908  -16.9173   22.6672 N   0  0  0  0  0  0  0  0  0  0  0  0
   11.5113  -17.3826   24.1405 C   0  0  0  0  0  0  0  0  0  0  0  0
   11.5800  -18.5300   23.6197 O   0  0  0  0  0  0  0  0  0  0  0  0
   12.4960  -16.9691   25.0183 O   0  0  0  0  0  0  0  0  0  0  0  0
  2  1  1  6
  2  4  1  0
  3  2  1  0
  4  5  1  1
  4  6  1  0
  6  8  1  0
  7  6  2  0
  8  9  1  0
  9 13  1  0
 10 11  1  0
  9 10  1  6
 11 15  1  0
 12 11  2  0
 13 14  2  0
 13 19  1  0
 16 17  1  0
 18 17  1  1
 18 20  1  0
 19 18  1  0
 20 22  1  0
 21 20  2  0
M  END
$$$$
