TDS.pdb
     RDKit          3D

 22 21  0  0  1  0  0  0  0  0999 V2000
    8.0245  -11.9997   18.8798 C   0  0  0  0  0  0  0  0  0  0  0  0
    8.7962  -13.0478   19.6093 C   0  0  1  0  0  0  0  0  0  0  0  0
    8.1151  -13.3074   20.8022 O   0  0  0  0  0  0  0  0  0  0  0  0
    8.9452  -14.2976   18.7853 C   0  0  2  0  0  0  0  0  0  0  0  0
    7.6809  -14.7858   18.3570 N   0  0  0  0  0  0  0  0  0  0  0  0
    9.6566  -15.3488   19.5960 C   0  0  0  0  0  0  0  0  0  0  0  0
    9.0437  -16.3199   20.1158 O   0  0  0  0  0  0  0  0  0  0  0  0
   11.0590  -15.2392   19.7773 N   0  0  0  0  0  0  0  0  0  0  0  0
   11.7453  -16.2527   20.5840 C   0  0  1  0  0  0  0  0  0  0  0  0
   13.1601  -16.4238   20.1035 C   0  0  0  0  0  0  0  0  0  0  0  0
   13.9306  -17.4498   20.8173 C   0  0  0  0  0  0  0  0  0  0  0  0
   15.1915  -17.3820   20.8565 O   0  0  0  0  0  0  0  0  0  0  0  0
   11.6717  -15.8352   22.0158 C   0  0  0  0  0  0  0  0  0  0  0  0
   11.7374  -14.6383   22.3260 O   0  0  0  0  0  0  0  0  0  0  0  0
   13.3324  -18.5112   21.4610 O   0  0  0  0  0  0  0  0  0  0  0  0
    8.6623  -15.8808   25.0769 O   0  0  0  0  0  0  0  0  0  0  0  0
    9.3717  -16.1567   23.9087 C   0  0  0  0  0  0  0  0  0  0  0  0
   10.7832  -16.5406   24.2583 C   0  0  2  0  0  0  0  0  0  0  0  0
   11.5266  -16.7983   23.0372 N   0  0  0  0  0  0  0  0  0  0  0  0
   10.8210  -17.7518   25.1095 C   0  0  0  0  0  0  0  0  0  0  0  0
   10.3758  -17.7567   26.2903 O   0  0  0  0  0  0  0  0  0  0  0  0
   11.3647  -18.9065   24.5780 O   0  0  0  0  0  0  0  0  0  0  0  0
  2  1  1  6
  2  4  1  0
  3  2  1  0
  4  5  1  1
  4  6  1  0
  6  8  1  0
  7  6  2  0
  8  9  1  0
  9 13  1  0
 10 11  1  0
  9 10  1  6
 11 15  1  0
 12 11  2  0
 13 14  2  0
 13 19  1  0
 16 17  1  0
 18 17  1  6
 18 20  1  0
 19 18  1  0
 20 22  1  0
 21 20  2  0
M  END
$$$$
