TDS.pdb
     RDKit          3D

 22 21  0  0  1  0  0  0  0  0999 V2000
   -6.2089  -26.4043   23.5485 C   0  0  0  0  0  0  0  0  0  0  0  0
   -6.6158  -26.1819   24.9666 C   0  0  1  0  0  0  0  0  0  0  0  0
   -6.7770  -27.4409   25.5526 O   0  0  0  0  0  0  0  0  0  0  0  0
   -5.5975  -25.3622   25.7112 C   0  0  2  0  0  0  0  0  0  0  0  0
   -4.3130  -25.9688   25.6629 N   0  0  0  0  0  0  0  0  0  0  0  0
   -6.0374  -25.1986   27.1423 C   0  0  0  0  0  0  0  0  0  0  0  0
   -5.7056  -26.0177   28.0410 O   0  0  0  0  0  0  0  0  0  0  0  0
   -6.8494  -24.0872   27.4850 N   0  0  0  0  0  0  0  0  0  0  0  0
   -7.1387  -23.8374   28.9002 C   0  0  1  0  0  0  0  0  0  0  0  0
   -6.7764  -22.4225   29.2592 C   0  0  0  0  0  0  0  0  0  0  0  0
   -5.3382  -22.1826   29.4328 C   0  0  0  0  0  0  0  0  0  0  0  0
   -4.8662  -21.0216   29.2749 O   0  0  0  0  0  0  0  0  0  0  0  0
   -8.5812  -24.1392   29.1401 C   0  0  0  0  0  0  0  0  0  0  0  0
   -9.4338  -23.8514   28.2896 O   0  0  0  0  0  0  0  0  0  0  0  0
   -4.4549  -23.1864   29.7655 O   0  0  0  0  0  0  0  0  0  0  0  0
   -9.6891  -25.6762   32.7922 O   0  0  0  0  0  0  0  0  0  0  0  0
  -10.4165  -26.1498   31.7010 C   0  0  0  0  0  0  0  0  0  0  0  0
  -10.3747  -25.1347   30.5921 C   0  0  2  0  0  0  0  0  0  0  0  0
   -8.9951  -24.7564   30.3399 N   0  0  0  0  0  0  0  0  0  0  0  0
  -11.1510  -23.9218   30.9373 C   0  0  0  0  0  0  0  0  0  0  0  0
  -10.5993  -22.8024   31.1245 O   0  0  0  0  0  0  0  0  0  0  0  0
  -12.5237  -24.0366   31.0543 O   0  0  0  0  0  0  0  0  0  0  0  0
  2  1  1  6
  2  4  1  0
  3  2  1  0
  4  5  1  1
  4  6  1  0
  6  8  1  0
  7  6  2  0
  8  9  1  0
  9 13  1  0
 10 11  1  0
  9 10  1  6
 11 15  1  0
 12 11  2  0
 13 14  2  0
 13 19  1  0
 16 17  1  0
 18 17  1  1
 18 20  1  0
 19 18  1  0
 20 22  1  0
 21 20  2  0
M  END
$$$$
