TDS.pdb
     RDKit          3D

 22 21  0  0  1  0  0  0  0  0999 V2000
    7.4284  -12.0510   18.6506 C   0  0  0  0  0  0  0  0  0  0  0  0
    8.4779  -13.0044   19.1152 C   0  0  1  0  0  0  0  0  0  0  0  0
    7.8724  -13.8728   20.0282 O   0  0  0  0  0  0  0  0  0  0  0  0
    9.0844  -13.7612   17.9652 C   0  0  2  0  0  0  0  0  0  0  0  0
    8.1113  -14.5571   17.3020 N   0  0  0  0  0  0  0  0  0  0  0  0
   10.2030  -14.6317   18.4743 C   0  0  0  0  0  0  0  0  0  0  0  0
   10.0824  -15.8821   18.5777 O   0  0  0  0  0  0  0  0  0  0  0  0
   11.4281  -14.0219   18.8474 N   0  0  0  0  0  0  0  0  0  0  0  0
   12.5336  -14.8772   19.2892 C   0  0  1  0  0  0  0  0  0  0  0  0
   13.8505  -14.2290   18.9615 C   0  0  0  0  0  0  0  0  0  0  0  0
   15.0320  -14.9986   19.3711 C   0  0  0  0  0  0  0  0  0  0  0  0
   16.1096  -14.4027   19.6529 O   0  0  0  0  0  0  0  0  0  0  0  0
   12.3677  -15.1333   20.7509 C   0  0  0  0  0  0  0  0  0  0  0  0
   12.3752  -14.1949   21.5586 O   0  0  0  0  0  0  0  0  0  0  0  0
   15.0247  -16.3734   19.4634 O   0  0  0  0  0  0  0  0  0  0  0  0
   10.5663  -18.0103   24.0790 O   0  0  0  0  0  0  0  0  0  0  0  0
   10.7664  -17.6665   22.7427 C   0  0  0  0  0  0  0  0  0  0  0  0
   11.9493  -16.7441   22.6341 C   0  0  2  0  0  0  0  0  0  0  0  0
   12.2003  -16.4488   21.2341 N   0  0  0  0  0  0  0  0  0  0  0  0
   13.1653  -17.3495   23.2238 C   0  0  0  0  0  0  0  0  0  0  0  0
   14.1731  -17.6476   22.5254 O   0  0  0  0  0  0  0  0  0  0  0  0
   13.1806  -17.5892   24.5852 O   0  0  0  0  0  0  0  0  0  0  0  0
  2  1  1  6
  2  4  1  0
  3  2  1  0
  4  5  1  1
  4  6  1  0
  6  8  1  0
  7  6  2  0
  8  9  1  0
  9 13  1  0
 10 11  1  0
  9 10  1  1
 11 15  1  0
 12 11  2  0
 13 14  2  0
 13 19  1  0
 16 17  1  0
 18 17  1  6
 18 20  1  0
 19 18  1  0
 20 22  1  0
 21 20  2  0
M  END
$$$$
