TDS.pdb
     RDKit          3D

 22 21  0  0  1  0  0  0  0  0999 V2000
    8.2833  -12.3447   16.9156 C   0  0  0  0  0  0  0  0  0  0  0  0
    8.4671  -13.4655   17.8831 C   0  0  1  0  0  0  0  0  0  0  0  0
    7.2612  -13.6174   18.5737 O   0  0  0  0  0  0  0  0  0  0  0  0
    8.8576  -14.7395   17.1846 C   0  0  2  0  0  0  0  0  0  0  0  0
    7.8604  -15.1445   16.2564 N   0  0  0  0  0  0  0  0  0  0  0  0
    9.0805  -15.8222   18.2076 C   0  0  0  0  0  0  0  0  0  0  0  0
    8.2236  -16.7200   18.4276 O   0  0  0  0  0  0  0  0  0  0  0  0
   10.2930  -15.8281   18.9435 N   0  0  0  0  0  0  0  0  0  0  0  0
   10.4453  -16.7885   20.0405 C   0  0  1  0  0  0  0  0  0  0  0  0
   11.7395  -17.5402   19.8927 C   0  0  0  0  0  0  0  0  0  0  0  0
   11.7401  -18.5588   18.8351 C   0  0  0  0  0  0  0  0  0  0  0  0
   12.4353  -18.3904   17.7939 O   0  0  0  0  0  0  0  0  0  0  0  0
   10.3604  -16.0392   21.3293 C   0  0  0  0  0  0  0  0  0  0  0  0
   11.0015  -14.9924   21.4915 O   0  0  0  0  0  0  0  0  0  0  0  0
   10.9997  -19.7176   18.9227 O   0  0  0  0  0  0  0  0  0  0  0  0
    7.6451  -14.9068   25.0271 O   0  0  0  0  0  0  0  0  0  0  0  0
    7.8615  -15.6996   23.9008 C   0  0  0  0  0  0  0  0  0  0  0  0
    9.3351  -15.7614   23.6069 C   0  0  2  0  0  0  0  0  0  0  0  0
    9.5489  -16.5130   22.3824 N   0  0  0  0  0  0  0  0  0  0  0  0
   10.0810  -16.4130   24.7079 C   0  0  0  0  0  0  0  0  0  0  0  0
   10.1115  -15.9326   25.8744 O   0  0  0  0  0  0  0  0  0  0  0  0
   10.7603  -17.5850   24.4322 O   0  0  0  0  0  0  0  0  0  0  0  0
  2  1  1  6
  2  4  1  0
  3  2  1  0
  4  5  1  6
  4  6  1  0
  6  8  1  0
  7  6  2  0
  8  9  1  0
  9 13  1  0
 10 11  1  0
  9 10  1  6
 11 15  1  0
 12 11  2  0
 13 14  2  0
 13 19  1  0
 16 17  1  0
 18 17  1  1
 18 20  1  0
 19 18  1  0
 20 22  1  0
 21 20  2  0
M  END
$$$$
