TDS.pdb
     RDKit          3D

 22 21  0  0  1  0  0  0  0  0999 V2000
    7.5054  -12.6859   18.7937 C   0  0  0  0  0  0  0  0  0  0  0  0
    8.3346  -13.6459   19.5793 C   0  0  1  0  0  0  0  0  0  0  0  0
    7.7607  -13.7439   20.8502 O   0  0  0  0  0  0  0  0  0  0  0  0
    8.4052  -14.9911   18.9095 C   0  0  2  0  0  0  0  0  0  0  0  0
    7.1067  -15.4895   18.6168 N   0  0  0  0  0  0  0  0  0  0  0  0
    9.1390  -15.9563   19.8029 C   0  0  0  0  0  0  0  0  0  0  0  0
    8.5439  -16.8816   20.4182 O   0  0  0  0  0  0  0  0  0  0  0  0
   10.5424  -15.8166   19.9536 N   0  0  0  0  0  0  0  0  0  0  0  0
   11.2624  -16.7943   20.7748 C   0  0  1  0  0  0  0  0  0  0  0  0
   12.6120  -17.0782   20.1748 C   0  0  0  0  0  0  0  0  0  0  0  0
   13.4635  -17.9688   20.9735 C   0  0  0  0  0  0  0  0  0  0  0  0
   12.9620  -18.9735   21.5522 O   0  0  0  0  0  0  0  0  0  0  0  0
   11.3536  -16.2566   22.1648 C   0  0  0  0  0  0  0  0  0  0  0  0
   11.9964  -15.2245   22.3989 O   0  0  0  0  0  0  0  0  0  0  0  0
   14.8160  -17.7568   21.1294 O   0  0  0  0  0  0  0  0  0  0  0  0
    8.3928  -16.3604   24.6247 O   0  0  0  0  0  0  0  0  0  0  0  0
    9.5345  -15.6009   24.8772 C   0  0  0  0  0  0  0  0  0  0  0  0
   10.7589  -16.4293   24.6004 C   0  0  2  0  0  0  0  0  0  0  0  0
   10.7091  -16.9166   23.2329 N   0  0  0  0  0  0  0  0  0  0  0  0
   10.8507  -17.5859   25.5206 C   0  0  0  0  0  0  0  0  0  0  0  0
   10.8152  -18.7775   25.1066 O   0  0  0  0  0  0  0  0  0  0  0  0
   10.9795  -17.3349   26.8739 O   0  0  0  0  0  0  0  0  0  0  0  0
  2  1  1  6
  2  4  1  0
  3  2  1  0
  4  5  1  1
  4  6  1  0
  6  8  1  0
  7  6  2  0
  8  9  1  0
  9 13  1  0
 10 11  1  0
  9 10  1  6
 11 15  1  0
 12 11  2  0
 13 14  2  0
 13 19  1  0
 16 17  1  0
 18 17  1  1
 18 20  1  0
 19 18  1  0
 20 22  1  0
 21 20  2  0
M  END
$$$$
