TDS.pdb
     RDKit          3D

 22 21  0  0  1  0  0  0  0  0999 V2000
    7.6686  -12.3446   19.1609 C   0  0  0  0  0  0  0  0  0  0  0  0
    8.7929  -13.2552   19.5255 C   0  0  1  0  0  0  0  0  0  0  0  0
    8.2995  -14.1657   20.4645 O   0  0  0  0  0  0  0  0  0  0  0  0
    9.3430  -13.9640   18.3178 C   0  0  2  0  0  0  0  0  0  0  0  0
    8.3237  -14.6773   17.6306 N   0  0  0  0  0  0  0  0  0  0  0  0
   10.4343  -14.9091   18.7472 C   0  0  0  0  0  0  0  0  0  0  0  0
   10.2637  -16.1576   18.7760 O   0  0  0  0  0  0  0  0  0  0  0  0
   11.6908  -14.3737   19.1296 N   0  0  0  0  0  0  0  0  0  0  0  0
   12.7146  -15.2848   19.6499 C   0  0  1  0  0  0  0  0  0  0  0  0
   14.0852  -14.7199   19.3966 C   0  0  0  0  0  0  0  0  0  0  0  0
   14.5795  -14.9006   18.0258 C   0  0  0  0  0  0  0  0  0  0  0  0
   14.5515  -13.9364   17.2102 O   0  0  0  0  0  0  0  0  0  0  0  0
   12.4445  -15.5070   21.1016 C   0  0  0  0  0  0  0  0  0  0  0  0
   12.5553  -14.5770   21.9115 O   0  0  0  0  0  0  0  0  0  0  0  0
   15.0831  -16.1003   17.5723 O   0  0  0  0  0  0  0  0  0  0  0  0
   10.1915  -18.6468   22.0555 O   0  0  0  0  0  0  0  0  0  0  0  0
   10.2725  -17.5978   22.9705 C   0  0  0  0  0  0  0  0  0  0  0  0
   11.6608  -17.0199   22.9490 C   0  0  2  0  0  0  0  0  0  0  0  0
   12.0594  -16.7804   21.5728 N   0  0  0  0  0  0  0  0  0  0  0  0
   12.6390  -17.9346   23.5811 C   0  0  0  0  0  0  0  0  0  0  0  0
   13.5631  -18.4877   22.9234 O   0  0  0  0  0  0  0  0  0  0  0  0
   12.5223  -18.1795   24.9366 O   0  0  0  0  0  0  0  0  0  0  0  0
  2  1  1  6
  2  4  1  0
  3  2  1  0
  4  5  1  1
  4  6  1  0
  6  8  1  0
  7  6  2  0
  8  9  1  0
  9 13  1  0
 10 11  1  0
  9 10  1  1
 11 15  1  0
 12 11  2  0
 13 14  2  0
 13 19  1  0
 16 17  1  0
 18 17  1  6
 18 20  1  0
 19 18  1  0
 20 22  1  0
 21 20  2  0
M  END
$$$$
