TDS.pdb
     RDKit          3D

 22 21  0  0  1  0  0  0  0  0999 V2000
    8.9108  -12.1189   19.4208 C   0  0  0  0  0  0  0  0  0  0  0  0
    8.1488  -13.0300   18.5178 C   0  0  1  0  0  0  0  0  0  0  0  0
    7.5316  -12.2317   17.5503 O   0  0  0  0  0  0  0  0  0  0  0  0
    9.0470  -14.0566   17.8833 C   0  0  2  0  0  0  0  0  0  0  0  0
    8.3344  -14.8588   16.9513 N   0  0  0  0  0  0  0  0  0  0  0  0
    9.6499  -14.9246   18.9563 C   0  0  0  0  0  0  0  0  0  0  0  0
    9.0271  -15.9008   19.4542 O   0  0  0  0  0  0  0  0  0  0  0  0
   10.9588  -14.6314   19.4175 N   0  0  0  0  0  0  0  0  0  0  0  0
   11.5872  -15.5441   20.3772 C   0  0  1  0  0  0  0  0  0  0  0  0
   13.0820  -15.3821   20.3409 C   0  0  0  0  0  0  0  0  0  0  0  0
   13.7234  -15.8787   19.1170 C   0  0  0  0  0  0  0  0  0  0  0  0
   14.4126  -15.0982   18.4017 O   0  0  0  0  0  0  0  0  0  0  0  0
   11.0122  -15.2670   21.7271 C   0  0  0  0  0  0  0  0  0  0  0  0
   11.2345  -14.1902   22.2964 O   0  0  0  0  0  0  0  0  0  0  0  0
   13.6064  -17.1860   18.6977 O   0  0  0  0  0  0  0  0  0  0  0  0
    7.4786  -15.7322   22.8419 O   0  0  0  0  0  0  0  0  0  0  0  0
    8.2331  -16.4930   23.7341 C   0  0  0  0  0  0  0  0  0  0  0  0
    9.6626  -16.0266   23.7064 C   0  0  2  0  0  0  0  0  0  0  0  0
   10.2073  -16.2284   22.3750 N   0  0  0  0  0  0  0  0  0  0  0  0
   10.4936  -16.7663   24.6837 C   0  0  0  0  0  0  0  0  0  0  0  0
   11.4565  -17.4998   24.3269 O   0  0  0  0  0  0  0  0  0  0  0  0
   10.1917  -16.6382   26.0266 O   0  0  0  0  0  0  0  0  0  0  0  0
  2  1  1  1
  2  4  1  0
  3  2  1  0
  4  5  1  6
  4  6  1  0
  6  8  1  0
  7  6  2  0
  8  9  1  0
  9 13  1  0
 10 11  1  0
  9 10  1  1
 11 15  1  0
 12 11  2  0
 13 14  2  0
 13 19  1  0
 16 17  1  0
 18 17  1  6
 18 20  1  0
 19 18  1  0
 20 22  1  0
 21 20  2  0
M  END
$$$$
