TDS.pdb
     RDKit          3D

 22 21  0  0  1  0  0  0  0  0999 V2000
    7.6631  -12.4455   19.0926 C   0  0  0  0  0  0  0  0  0  0  0  0
    8.2936  -13.4559   19.9914 C   0  0  1  0  0  0  0  0  0  0  0  0
    7.6468  -13.3700   21.2278 O   0  0  0  0  0  0  0  0  0  0  0  0
    8.1911  -14.8437   19.4197 C   0  0  2  0  0  0  0  0  0  0  0  0
    6.8516  -15.1555   19.0613 N   0  0  0  0  0  0  0  0  0  0  0  0
    8.7001  -15.8389   20.4292 C   0  0  0  0  0  0  0  0  0  0  0  0
    7.9247  -16.6070   21.0597 O   0  0  0  0  0  0  0  0  0  0  0  0
   10.0952  -15.9109   20.6746 N   0  0  0  0  0  0  0  0  0  0  0  0
   10.5878  -16.8846   21.6535 C   0  0  1  0  0  0  0  0  0  0  0  0
   11.9721  -17.3377   21.2792 C   0  0  0  0  0  0  0  0  0  0  0  0
   12.5674  -18.3152   22.1989 C   0  0  0  0  0  0  0  0  0  0  0  0
   11.8361  -19.1672   22.7778 O   0  0  0  0  0  0  0  0  0  0  0  0
   10.5366  -16.2517   23.0049 C   0  0  0  0  0  0  0  0  0  0  0  0
   11.4159  -15.4557   23.3604 O   0  0  0  0  0  0  0  0  0  0  0  0
   13.9178  -18.3493   22.4710 O   0  0  0  0  0  0  0  0  0  0  0  0
    7.6339  -14.5402   24.5466 O   0  0  0  0  0  0  0  0  0  0  0  0
    7.9811  -15.5204   25.4754 C   0  0  0  0  0  0  0  0  0  0  0  0
    9.3946  -15.9694   25.2258 C   0  0  2  0  0  0  0  0  0  0  0  0
    9.4856  -16.5514   23.8980 N   0  0  0  0  0  0  0  0  0  0  0  0
    9.8286  -16.9747   26.2228 C   0  0  0  0  0  0  0  0  0  0  0  0
   10.3060  -18.0928   25.8846 O   0  0  0  0  0  0  0  0  0  0  0  0
    9.7000  -16.6623   27.5633 O   0  0  0  0  0  0  0  0  0  0  0  0
  2  1  1  6
  2  4  1  0
  3  2  1  0
  4  5  1  1
  4  6  1  0
  6  8  1  0
  7  6  2  0
  8  9  1  0
  9 13  1  0
 10 11  1  0
  9 10  1  6
 11 15  1  0
 12 11  2  0
 13 14  2  0
 13 19  1  0
 16 17  1  0
 18 17  1  1
 18 20  1  0
 19 18  1  0
 20 22  1  0
 21 20  2  0
M  END
$$$$
