TDS.pdb
     RDKit          3D

 22 21  0  0  1  0  0  0  0  0999 V2000
    9.3145  -12.6986   19.4797 C   0  0  0  0  0  0  0  0  0  0  0  0
    8.3019  -13.2195   18.5156 C   0  0  1  0  0  0  0  0  0  0  0  0
    7.8015  -12.1223   17.8086 O   0  0  0  0  0  0  0  0  0  0  0  0
    8.8993  -14.2394   17.5848 C   0  0  2  0  0  0  0  0  0  0  0  0
    7.9668  -14.6357   16.5881 N   0  0  0  0  0  0  0  0  0  0  0  0
    9.3472  -15.4385   18.3784 C   0  0  0  0  0  0  0  0  0  0  0  0
    8.6544  -16.4891   18.4498 O   0  0  0  0  0  0  0  0  0  0  0  0
   10.5871  -15.3797   19.0646 N   0  0  0  0  0  0  0  0  0  0  0  0
   10.9819  -16.5161   19.9023 C   0  0  1  0  0  0  0  0  0  0  0  0
   12.2862  -17.0865   19.4171 C   0  0  0  0  0  0  0  0  0  0  0  0
   12.7535  -18.2654   20.1573 C   0  0  0  0  0  0  0  0  0  0  0  0
   11.9191  -19.0808   20.6417 O   0  0  0  0  0  0  0  0  0  0  0  0
   11.0514  -16.0477   21.3183 C   0  0  0  0  0  0  0  0  0  0  0  0
   11.8015  -15.1153   21.6363 O   0  0  0  0  0  0  0  0  0  0  0  0
   14.0905  -18.5324   20.3570 O   0  0  0  0  0  0  0  0  0  0  0  0
    8.3326  -14.9155   23.5260 O   0  0  0  0  0  0  0  0  0  0  0  0
    8.8790  -16.0175   24.1824 C   0  0  0  0  0  0  0  0  0  0  0  0
   10.2883  -16.2371   23.7054 C   0  0  2  0  0  0  0  0  0  0  0  0
   10.2639  -16.6609   22.3162 N   0  0  0  0  0  0  0  0  0  0  0  0
   10.9793  -17.2694   24.5115 C   0  0  0  0  0  0  0  0  0  0  0  0
   11.4399  -18.3257   23.9972 O   0  0  0  0  0  0  0  0  0  0  0  0
   11.1160  -17.0534   25.8701 O   0  0  0  0  0  0  0  0  0  0  0  0
  2  1  1  1
  2  4  1  0
  3  2  1  0
  4  5  1  6
  4  6  1  0
  6  8  1  0
  7  6  2  0
  8  9  1  0
  9 13  1  0
 10 11  1  0
  9 10  1  6
 11 15  1  0
 12 11  2  0
 13 14  2  0
 13 19  1  0
 16 17  1  0
 18 17  1  1
 18 20  1  0
 19 18  1  0
 20 22  1  0
 21 20  2  0
M  END
$$$$
