TDS.pdb
     RDKit          3D

 22 21  0  0  1  0  0  0  0  0999 V2000
    7.5000  -12.3081   19.7063 C   0  0  0  0  0  0  0  0  0  0  0  0
    8.2537  -13.3896   20.4053 C   0  0  1  0  0  0  0  0  0  0  0  0
    7.9916  -13.2590   21.7722 O   0  0  0  0  0  0  0  0  0  0  0  0
    7.8577  -14.7515   19.9036 C   0  0  2  0  0  0  0  0  0  0  0  0
    6.4558  -14.9551   20.0183 N   0  0  0  0  0  0  0  0  0  0  0  0
    8.5978  -15.8060   20.6837 C   0  0  0  0  0  0  0  0  0  0  0  0
    8.0233  -16.5280   21.5425 O   0  0  0  0  0  0  0  0  0  0  0  0
    9.9832  -15.9893   20.4413 N   0  0  0  0  0  0  0  0  0  0  0  0
   10.7016  -17.0132   21.2058 C   0  0  1  0  0  0  0  0  0  0  0  0
   11.9896  -17.3654   20.5138 C   0  0  0  0  0  0  0  0  0  0  0  0
   12.7519  -18.4472   21.1497 C   0  0  0  0  0  0  0  0  0  0  0  0
   12.2286  -19.1332   22.0723 O   0  0  0  0  0  0  0  0  0  0  0  0
   10.9163  -16.4948   22.5895 C   0  0  0  0  0  0  0  0  0  0  0  0
   11.5512  -15.4485   22.7777 O   0  0  0  0  0  0  0  0  0  0  0  0
   14.0432  -18.7580   20.7828 O   0  0  0  0  0  0  0  0  0  0  0  0
    9.1816  -15.4448   26.6492 O   0  0  0  0  0  0  0  0  0  0  0  0
    9.1187  -16.0260   25.3834 C   0  0  0  0  0  0  0  0  0  0  0  0
   10.4453  -16.6528   25.0531 C   0  0  2  0  0  0  0  0  0  0  0  0
   10.3996  -17.1896   23.7041 N   0  0  0  0  0  0  0  0  0  0  0  0
   10.7783  -17.7459   25.9950 C   0  0  0  0  0  0  0  0  0  0  0  0
   10.9116  -17.5471   27.2341 O   0  0  0  0  0  0  0  0  0  0  0  0
   10.9450  -19.0197   25.4842 O   0  0  0  0  0  0  0  0  0  0  0  0
  2  1  1  6
  2  4  1  0
  3  2  1  0
  4  5  1  1
  4  6  1  0
  6  8  1  0
  7  6  2  0
  8  9  1  0
  9 13  1  0
 10 11  1  0
  9 10  1  6
 11 15  1  0
 12 11  2  0
 13 14  2  0
 13 19  1  0
 16 17  1  0
 18 17  1  1
 18 20  1  0
 19 18  1  0
 20 22  1  0
 21 20  2  0
M  END
$$$$
