TDS.pdb
     RDKit          3D

 22 21  0  0  1  0  0  0  0  0999 V2000
    9.2673  -12.5577   19.4075 C   0  0  0  0  0  0  0  0  0  0  0  0
    8.2174  -13.2549   18.6089 C   0  0  1  0  0  0  0  0  0  0  0  0
    7.5342  -12.2765   17.8808 O   0  0  0  0  0  0  0  0  0  0  0  0
    8.8148  -14.2924   17.6979 C   0  0  2  0  0  0  0  0  0  0  0  0
    7.8111  -14.9429   16.9300 N   0  0  0  0  0  0  0  0  0  0  0  0
    9.5716  -15.3027   18.5194 C   0  0  0  0  0  0  0  0  0  0  0  0
    8.9863  -16.2219   19.1529 O   0  0  0  0  0  0  0  0  0  0  0  0
   10.9859  -15.2136   18.5792 N   0  0  0  0  0  0  0  0  0  0  0  0
   11.7125  -16.1384   19.4543 C   0  0  1  0  0  0  0  0  0  0  0  0
   13.1515  -16.2305   19.0269 C   0  0  0  0  0  0  0  0  0  0  0  0
   13.9161  -17.3044   19.6735 C   0  0  0  0  0  0  0  0  0  0  0  0
   13.6817  -17.6133   20.8758 O   0  0  0  0  0  0  0  0  0  0  0  0
   11.5608  -15.6627   20.8615 C   0  0  0  0  0  0  0  0  0  0  0  0
   11.9581  -14.5373   21.1913 O   0  0  0  0  0  0  0  0  0  0  0  0
   14.9030  -18.0085   19.0187 O   0  0  0  0  0  0  0  0  0  0  0  0
    9.0594  -15.6729   24.8238 O   0  0  0  0  0  0  0  0  0  0  0  0
    9.2739  -16.1004   23.5141 C   0  0  0  0  0  0  0  0  0  0  0  0
   10.7453  -16.0540   23.2063 C   0  0  2  0  0  0  0  0  0  0  0  0
   10.9629  -16.4886   21.8374 N   0  0  0  0  0  0  0  0  0  0  0  0
   11.5180  -16.9289   24.1176 C   0  0  0  0  0  0  0  0  0  0  0  0
   11.5518  -16.7367   25.3644 O   0  0  0  0  0  0  0  0  0  0  0  0
   12.2193  -17.9862   23.5687 O   0  0  0  0  0  0  0  0  0  0  0  0
  2  1  1  6
  2  4  1  0
  3  2  1  0
  4  5  1  1
  4  6  1  0
  6  8  1  0
  7  6  2  0
  8  9  1  0
  9 13  1  0
 10 11  1  0
  9 10  1  6
 11 15  1  0
 12 11  2  0
 13 14  2  0
 13 19  1  0
 16 17  1  0
 18 17  1  1
 18 20  1  0
 19 18  1  0
 20 22  1  0
 21 20  2  0
M  END
$$$$
