TDS.pdb
     RDKit          3D

 22 21  0  0  1  0  0  0  0  0999 V2000
    7.5631  -12.4968   18.9556 C   0  0  0  0  0  0  0  0  0  0  0  0
    8.6956  -13.3620   19.3971 C   0  0  1  0  0  0  0  0  0  0  0  0
    8.1667  -14.3275   20.2586 O   0  0  0  0  0  0  0  0  0  0  0  0
    9.3913  -14.0009   18.2261 C   0  0  2  0  0  0  0  0  0  0  0  0
    8.4818  -14.7538   17.4349 N   0  0  0  0  0  0  0  0  0  0  0  0
   10.4983  -14.8907   18.7273 C   0  0  0  0  0  0  0  0  0  0  0  0
   10.4212  -16.1477   18.6733 O   0  0  0  0  0  0  0  0  0  0  0  0
   11.6613  -14.2920   19.2757 N   0  0  0  0  0  0  0  0  0  0  0  0
   12.7276  -15.1611   19.7822 C   0  0  1  0  0  0  0  0  0  0  0  0
   14.0697  -14.5286   19.5361 C   0  0  0  0  0  0  0  0  0  0  0  0
   14.5135  -14.5558   18.1368 C   0  0  0  0  0  0  0  0  0  0  0  0
   14.2737  -15.5651   17.4158 O   0  0  0  0  0  0  0  0  0  0  0  0
   12.4702  -15.4167   21.2306 C   0  0  0  0  0  0  0  0  0  0  0  0
   13.3817  -15.8078   21.9719 O   0  0  0  0  0  0  0  0  0  0  0  0
   15.1980  -13.5102   17.5564 O   0  0  0  0  0  0  0  0  0  0  0  0
    8.5759  -15.0651   22.7626 O   0  0  0  0  0  0  0  0  0  0  0  0
    9.6560  -14.7247   23.5760 C   0  0  0  0  0  0  0  0  0  0  0  0
   10.8649  -15.5177   23.1617 C   0  0  2  0  0  0  0  0  0  0  0  0
   11.1842  -15.2171   21.7768 N   0  0  0  0  0  0  0  0  0  0  0  0
   10.6309  -16.9737   23.2965 C   0  0  0  0  0  0  0  0  0  0  0  0
   10.4858  -17.7260   22.2938 O   0  0  0  0  0  0  0  0  0  0  0  0
   10.5725  -17.5104   24.5692 O   0  0  0  0  0  0  0  0  0  0  0  0
  2  1  1  6
  2  4  1  0
  3  2  1  0
  4  5  1  1
  4  6  1  0
  6  8  1  0
  7  6  2  0
  8  9  1  0
  9 13  1  0
 10 11  1  0
  9 10  1  1
 11 15  1  0
 12 11  2  0
 13 14  2  0
 13 19  1  0
 16 17  1  0
 18 17  1  6
 18 20  1  0
 19 18  1  0
 20 22  1  0
 21 20  2  0
M  END
$$$$
