CFS.pdb
     RDKit          3D

 24 24  0  0  1  0  0  0  0  0999 V2000
   19.2331  -12.2140  -15.5907 N   0  0  0  0  0  0  0  0  0  0  0  0
   18.9945  -10.9788  -16.2642 C   0  0  1  0  0  0  0  0  0  0  0  0
   17.6365  -10.9440  -16.9411 C   0  0  0  0  0  0  0  0  0  0  0  0
   17.7209  -11.9500  -18.4458 S   0  0  0  0  0  0  0  0  0  0  0  0
   19.1005   -9.7948  -15.3778 C   0  0  0  0  0  0  0  0  0  0  0  0
   18.5158   -9.8461  -14.2671 O   0  0  0  0  0  0  0  0  0  0  0  0
   19.8317   -8.6427  -15.7598 N   0  0  0  0  0  0  0  0  0  0  0  0
   19.9596   -7.4706  -14.9063 C   0  0  1  0  0  0  0  0  0  0  0  0
   21.3757   -7.2140  -14.5217 C   0  0  0  0  0  0  0  0  0  0  0  0
   21.8522   -8.2048  -13.5351 C   0  0  0  0  0  0  0  0  0  0  0  0
   21.4663   -8.1134  -12.1954 C   0  0  0  0  0  0  0  0  0  0  0  0
   21.8888   -9.0426  -11.2882 C   0  0  0  0  0  0  0  0  0  0  0  0
   22.6974  -10.0970  -11.6251 C   0  0  0  0  0  0  0  0  0  0  0  0
   23.0819  -10.1946  -12.9422 C   0  0  0  0  0  0  0  0  0  0  0  0
   22.6687   -9.2765  -13.8569 C   0  0  0  0  0  0  0  0  0  0  0  0
   19.4199   -6.3070  -15.6464 C   0  0  0  0  0  0  0  0  0  0  0  0
   19.8418   -5.9125  -16.7659 O   0  0  0  0  0  0  0  0  0  0  0  0
   15.9227   -4.5342  -14.3724 O   0  0  0  0  0  0  0  0  0  0  0  0
   16.2497   -4.4413  -15.7109 C   0  0  0  0  0  0  0  0  0  0  0  0
   17.7575   -4.4217  -15.8571 C   0  0  2  0  0  0  0  0  0  0  0  0
   18.3370   -5.5209  -15.1149 N   0  0  0  0  0  0  0  0  0  0  0  0
   18.3116   -3.1341  -15.3880 C   0  0  0  0  0  0  0  0  0  0  0  0
   17.9750   -2.0601  -15.9312 O   0  0  0  0  0  0  0  0  0  0  0  0
   19.2057   -3.1264  -14.3429 O   0  0  0  0  0  0  0  0  0  0  0  0
  2  5  1  0
  2  1  1  1
  3  2  1  0
  4  3  1  0
  5  6  2  0
  7  8  1  0
  7  5  1  0
  9 10  1  0
  8  9  1  6
 10 11  2  0
 11 12  1  0
 13 12  2  0
 14 13  1  0
 15 14  2  0
 15 10  1  0
 16  8  1  0
 16 17  2  0
 18 19  1  0
 20 19  1  1
 20 22  1  0
 21 20  1  0
 21 16  1  0
 22 23  2  0
 22 24  1  0
M  END
$$$$
