CFS.pdb
     RDKit          3D

 24 24  0  0  1  0  0  0  0  0999 V2000
   34.4856  -35.9377   -6.4180 N   0  0  0  0  0  0  0  0  0  0  0  0
   33.2502  -36.5834   -6.1127 C   0  0  1  0  0  0  0  0  0  0  0  0
   33.4517  -37.8928   -5.3719 C   0  0  0  0  0  0  0  0  0  0  0  0
   34.6210  -37.6099   -4.0169 S   0  0  0  0  0  0  0  0  0  0  0  0
   32.3253  -35.7396   -5.3184 C   0  0  0  0  0  0  0  0  0  0  0  0
   32.7425  -34.6165   -4.9407 O   0  0  0  0  0  0  0  0  0  0  0  0
   31.0168  -36.1745   -4.9917 N   0  0  0  0  0  0  0  0  0  0  0  0
   30.0192  -35.2968   -4.3973 C   0  0  1  0  0  0  0  0  0  0  0  0
   29.6500  -34.1769   -5.3074 C   0  0  0  0  0  0  0  0  0  0  0  0
   28.4409  -33.4743   -4.8314 C   0  0  0  0  0  0  0  0  0  0  0  0
   28.3648  -33.0044   -3.5179 C   0  0  0  0  0  0  0  0  0  0  0  0
   27.2560  -32.3351   -3.0851 C   0  0  0  0  0  0  0  0  0  0  0  0
   26.1748  -32.0879   -3.8906 C   0  0  0  0  0  0  0  0  0  0  0  0
   26.2414  -32.5469   -5.1855 C   0  0  0  0  0  0  0  0  0  0  0  0
   27.3396  -33.2150   -5.6306 C   0  0  0  0  0  0  0  0  0  0  0  0
   28.8215  -36.1113   -4.0892 C   0  0  0  0  0  0  0  0  0  0  0  0
   28.1430  -36.7386   -4.9453 O   0  0  0  0  0  0  0  0  0  0  0  0
   27.3203  -36.4377   -0.1489 O   0  0  0  0  0  0  0  0  0  0  0  0
   27.3034  -37.5451   -0.9738 C   0  0  0  0  0  0  0  0  0  0  0  0
   27.2084  -37.0926   -2.4166 C   0  0  2  0  0  0  0  0  0  0  0  0
   28.3358  -36.2445   -2.7403 N   0  0  0  0  0  0  0  0  0  0  0  0
   25.9383  -36.3756   -2.6571 C   0  0  0  0  0  0  0  0  0  0  0  0
   25.9334  -35.1462   -2.8816 O   0  0  0  0  0  0  0  0  0  0  0  0
   24.7546  -37.0756   -2.6318 O   0  0  0  0  0  0  0  0  0  0  0  0
  2  5  1  0
  2  1  1  1
  3  2  1  0
  4  3  1  0
  5  6  2  0
  7  8  1  0
  7  5  1  0
  9 10  1  0
  8  9  1  6
 10 11  2  0
 11 12  1  0
 13 12  2  0
 14 13  1  0
 15 14  2  0
 15 10  1  0
 16  8  1  0
 16 17  2  0
 18 19  1  0
 20 19  1  1
 20 22  1  0
 21 20  1  0
 21 16  1  0
 22 23  2  0
 22 24  1  0
M  END
$$$$
