CFS.pdb
     RDKit          3D

 24 24  0  0  1  0  0  0  0  0999 V2000
   28.3770  -21.5575  -17.9987 N   0  0  0  0  0  0  0  0  0  0  0  0
   27.5602  -20.5693  -17.3724 C   0  0  1  0  0  0  0  0  0  0  0  0
   26.3715  -20.1756  -18.2302 C   0  0  0  0  0  0  0  0  0  0  0  0
   26.9848  -19.2876  -19.6857 S   0  0  0  0  0  0  0  0  0  0  0  0
   27.0542  -20.9811  -16.0409 C   0  0  0  0  0  0  0  0  0  0  0  0
   26.7207  -22.1832  -15.8923 O   0  0  0  0  0  0  0  0  0  0  0  0
   26.9466  -20.0608  -14.9688 N   0  0  0  0  0  0  0  0  0  0  0  0
   26.4788  -20.4434  -13.6446 C   0  0  1  0  0  0  0  0  0  0  0  0
   26.9885  -19.5259  -12.5876 C   0  0  0  0  0  0  0  0  0  0  0  0
   26.5689  -19.9702  -11.2427 C   0  0  0  0  0  0  0  0  0  0  0  0
   25.5241  -19.3247  -10.5766 C   0  0  0  0  0  0  0  0  0  0  0  0
   25.1217  -19.7503   -9.3430 C   0  0  0  0  0  0  0  0  0  0  0  0
   25.7020  -20.8104   -8.6961 C   0  0  0  0  0  0  0  0  0  0  0  0
   26.7314  -21.4518   -9.3450 C   0  0  0  0  0  0  0  0  0  0  0  0
   27.1427  -21.0390  -10.5741 C   0  0  0  0  0  0  0  0  0  0  0  0
   24.9983  -20.4208  -13.6603 C   0  0  0  0  0  0  0  0  0  0  0  0
   24.3018  -19.4833  -14.1326 O   0  0  0  0  0  0  0  0  0  0  0  0
   20.8748  -22.8407  -12.7395 O   0  0  0  0  0  0  0  0  0  0  0  0
   22.2556  -22.8660  -12.7372 C   0  0  0  0  0  0  0  0  0  0  0  0
   22.7816  -21.4996  -13.1264 C   0  0  2  0  0  0  0  0  0  0  0  0
   24.2289  -21.5096  -13.1163 N   0  0  0  0  0  0  0  0  0  0  0  0
   22.2669  -20.4606  -12.2094 C   0  0  0  0  0  0  0  0  0  0  0  0
   22.9756  -20.0273  -11.2757 O   0  0  0  0  0  0  0  0  0  0  0  0
   20.9946  -19.9713  -12.3922 O   0  0  0  0  0  0  0  0  0  0  0  0
  2  5  1  0
  2  1  1  6
  3  2  1  0
  4  3  1  0
  5  6  2  0
  7  8  1  0
  7  5  1  0
  9 10  1  0
  8  9  1  1
 10 11  2  0
 11 12  1  0
 13 12  2  0
 14 13  1  0
 15 14  2  0
 15 10  1  0
 16  8  1  0
 16 17  2  0
 18 19  1  0
 20 19  1  1
 20 22  1  0
 21 20  1  0
 21 16  1  0
 22 23  2  0
 22 24  1  0
M  END
$$$$
