CFS.pdb
     RDKit          3D

 24 24  0  0  1  0  0  0  0  0999 V2000
   13.2642  -12.3758    4.6834 N   0  0  0  0  0  0  0  0  0  0  0  0
   13.3818  -13.4102    5.6593 C   0  0  1  0  0  0  0  0  0  0  0  0
   12.0625  -14.1168    5.9123 C   0  0  0  0  0  0  0  0  0  0  0  0
   12.2386  -15.1450    7.3940 S   0  0  0  0  0  0  0  0  0  0  0  0
   14.3965  -14.4343    5.3126 C   0  0  0  0  0  0  0  0  0  0  0  0
   14.4319  -14.8380    4.1235 O   0  0  0  0  0  0  0  0  0  0  0  0
   15.2977  -14.9454    6.2792 N   0  0  0  0  0  0  0  0  0  0  0  0
   16.3500  -15.8963    5.9517 C   0  0  1  0  0  0  0  0  0  0  0  0
   17.6983  -15.3850    6.3254 C   0  0  0  0  0  0  0  0  0  0  0  0
   18.1576  -14.3433    5.3841 C   0  0  0  0  0  0  0  0  0  0  0  0
   18.3539  -14.6444    4.0340 C   0  0  0  0  0  0  0  0  0  0  0  0
   18.7567  -13.6755    3.1600 C   0  0  0  0  0  0  0  0  0  0  0  0
   18.9880  -12.3794    3.5413 C   0  0  0  0  0  0  0  0  0  0  0  0
   18.7969  -12.0742    4.8688 C   0  0  0  0  0  0  0  0  0  0  0  0
   18.3957  -13.0289    5.7508 C   0  0  0  0  0  0  0  0  0  0  0  0
   16.0692  -17.1551    6.6792 C   0  0  0  0  0  0  0  0  0  0  0  0
   15.5090  -17.2211    7.8056 O   0  0  0  0  0  0  0  0  0  0  0  0
   15.4092  -20.9398    5.0668 O   0  0  0  0  0  0  0  0  0  0  0  0
   16.4649  -20.8521    5.9528 C   0  0  0  0  0  0  0  0  0  0  0  0
   16.2522  -19.6638    6.8682 C   0  0  2  0  0  0  0  0  0  0  0  0
   16.4318  -18.4341    6.1261 N   0  0  0  0  0  0  0  0  0  0  0  0
   17.1832  -19.7143    8.0153 C   0  0  0  0  0  0  0  0  0  0  0  0
   18.1274  -18.9006    8.1057 O   0  0  0  0  0  0  0  0  0  0  0  0
   17.0016  -20.6690    8.9885 O   0  0  0  0  0  0  0  0  0  0  0  0
  2  5  1  0
  2  1  1  6
  3  2  1  0
  4  3  1  0
  5  6  2  0
  7  8  1  0
  7  5  1  0
  9 10  1  0
  8  9  1  1
 10 11  2  0
 11 12  1  0
 13 12  2  0
 14 13  1  0
 15 14  2  0
 15 10  1  0
 16  8  1  0
 16 17  2  0
 18 19  1  0
 20 19  1  6
 20 22  1  0
 21 20  1  0
 21 16  1  0
 22 23  2  0
 22 24  1  0
M  END
$$$$
