CFS.pdb
     RDKit          3D

 24 24  0  0  1  0  0  0  0  0999 V2000
   20.6516   -9.4610  -18.4816 N   0  0  0  0  0  0  0  0  0  0  0  0
   21.3820   -8.2363  -18.5351 C   0  0  1  0  0  0  0  0  0  0  0  0
   20.9229   -7.3404  -19.6710 C   0  0  0  0  0  0  0  0  0  0  0  0
   19.1476   -7.0339  -19.4768 S   0  0  0  0  0  0  0  0  0  0  0  0
   21.3174   -7.4568  -17.2755 C   0  0  0  0  0  0  0  0  0  0  0  0
   20.4766   -7.8142  -16.4132 O   0  0  0  0  0  0  0  0  0  0  0  0
   22.1682   -6.3478  -17.0426 N   0  0  0  0  0  0  0  0  0  0  0  0
   22.1787   -5.6114  -15.7871 C   0  0  1  0  0  0  0  0  0  0  0  0
   23.4879   -5.7255  -15.0858 C   0  0  0  0  0  0  0  0  0  0  0  0
   23.9261   -7.1331  -14.9921 C   0  0  0  0  0  0  0  0  0  0  0  0
   24.9659   -7.6070  -15.7960 C   0  0  0  0  0  0  0  0  0  0  0  0
   25.3856   -8.9024  -15.6928 C   0  0  0  0  0  0  0  0  0  0  0  0
   24.8282   -9.7973  -14.8168 C   0  0  0  0  0  0  0  0  0  0  0  0
   23.8039   -9.3389  -14.0213 C   0  0  0  0  0  0  0  0  0  0  0  0
   23.3755   -8.0512  -14.1131 C   0  0  0  0  0  0  0  0  0  0  0  0
   21.8916   -4.1906  -16.0898 C   0  0  0  0  0  0  0  0  0  0  0  0
   21.9584   -3.2525  -15.2516 O   0  0  0  0  0  0  0  0  0  0  0  0
   22.6672   -2.5775  -19.6467 O   0  0  0  0  0  0  0  0  0  0  0  0
   21.4117   -2.1764  -19.2342 C   0  0  0  0  0  0  0  0  0  0  0  0
   21.2886   -2.3787  -17.7378 C   0  0  2  0  0  0  0  0  0  0  0  0
   21.5027   -3.7725  -17.4116 N   0  0  0  0  0  0  0  0  0  0  0  0
   19.9630   -1.9346  -17.2575 C   0  0  0  0  0  0  0  0  0  0  0  0
   18.9910   -2.7200  -17.2534 O   0  0  0  0  0  0  0  0  0  0  0  0
   19.8061   -0.6427  -16.8124 O   0  0  0  0  0  0  0  0  0  0  0  0
  2  5  1  0
  2  1  1  1
  3  2  1  0
  4  3  1  0
  5  6  2  0
  7  8  1  0
  7  5  1  0
  9 10  1  0
  8  9  1  6
 10 11  2  0
 11 12  1  0
 13 12  2  0
 14 13  1  0
 15 14  2  0
 15 10  1  0
 16  8  1  0
 16 17  2  0
 18 19  1  0
 20 19  1  6
 20 22  1  0
 21 20  1  0
 21 16  1  0
 22 23  2  0
 22 24  1  0
M  END
$$$$
