CFS.pdb
     RDKit          3D

 24 24  0  0  1  0  0  0  0  0999 V2000
   29.1371  -20.4097  -14.4962 N   0  0  0  0  0  0  0  0  0  0  0  0
   28.1185  -19.6431  -13.8551 C   0  0  1  0  0  0  0  0  0  0  0  0
   27.4781  -18.6364  -14.7932 C   0  0  0  0  0  0  0  0  0  0  0  0
   28.6845  -17.3299  -15.1411 S   0  0  0  0  0  0  0  0  0  0  0  0
   27.0424  -20.4729  -13.2619 C   0  0  0  0  0  0  0  0  0  0  0  0
   26.7522  -21.5492  -13.8412 O   0  0  0  0  0  0  0  0  0  0  0  0
   26.3601  -20.0759  -12.0851 N   0  0  0  0  0  0  0  0  0  0  0  0
   25.3699  -20.9150  -11.4262 C   0  0  1  0  0  0  0  0  0  0  0  0
   25.1588  -20.5166  -10.0065 C   0  0  0  0  0  0  0  0  0  0  0  0
   26.4154  -20.5956   -9.2339 C   0  0  0  0  0  0  0  0  0  0  0  0
   26.5880  -19.8267   -8.0802 C   0  0  0  0  0  0  0  0  0  0  0  0
   27.7409  -19.9171   -7.3539 C   0  0  0  0  0  0  0  0  0  0  0  0
   28.7756  -20.7463   -7.7013 C   0  0  0  0  0  0  0  0  0  0  0  0
   28.6140  -21.5071   -8.8358 C   0  0  0  0  0  0  0  0  0  0  0  0
   27.4710  -21.4276   -9.5690 C   0  0  0  0  0  0  0  0  0  0  0  0
   24.0992  -20.7956  -12.1772 C   0  0  0  0  0  0  0  0  0  0  0  0
   23.5890  -19.7065  -12.5519 O   0  0  0  0  0  0  0  0  0  0  0  0
   22.8088  -23.5728  -14.7438 O   0  0  0  0  0  0  0  0  0  0  0  0
   21.7669  -23.1913  -13.9214 C   0  0  0  0  0  0  0  0  0  0  0  0
   22.0962  -21.8572  -13.2832 C   0  0  2  0  0  0  0  0  0  0  0  0
   23.3350  -21.9602  -12.5418 N   0  0  0  0  0  0  0  0  0  0  0  0
   20.9992  -21.4174  -12.3954 C   0  0  0  0  0  0  0  0  0  0  0  0
   21.1942  -21.2617  -11.1709 O   0  0  0  0  0  0  0  0  0  0  0  0
   19.7545  -21.1793  -12.9300 O   0  0  0  0  0  0  0  0  0  0  0  0
  2  5  1  0
  2  1  1  6
  3  2  1  0
  4  3  1  0
  5  6  2  0
  7  8  1  0
  7  5  1  0
  9 10  1  0
  8  9  1  1
 10 11  2  0
 11 12  1  0
 13 12  2  0
 14 13  1  0
 15 14  2  0
 15 10  1  0
 16  8  1  0
 16 17  2  0
 18 19  1  0
 20 19  1  1
 20 22  1  0
 21 20  1  0
 21 16  1  0
 22 23  2  0
 22 24  1  0
M  END
$$$$
