CFS.pdb
     RDKit          3D

 24 24  0  0  1  0  0  0  0  0999 V2000
   19.5055  -10.7636  -17.1719 N   0  0  0  0  0  0  0  0  0  0  0  0
   19.2034   -9.4188  -17.5415 C   0  0  1  0  0  0  0  0  0  0  0  0
   17.8381   -9.2926  -18.1924 C   0  0  0  0  0  0  0  0  0  0  0  0
   18.0078   -9.6691  -19.9567 S   0  0  0  0  0  0  0  0  0  0  0  0
   19.2644   -8.4680  -16.4054 C   0  0  0  0  0  0  0  0  0  0  0  0
   18.6549   -8.7808  -15.3524 O   0  0  0  0  0  0  0  0  0  0  0  0
   19.9810   -7.2487  -16.4936 N   0  0  0  0  0  0  0  0  0  0  0  0
   20.0670   -6.3027  -15.3907 C   0  0  1  0  0  0  0  0  0  0  0  0
   21.4514   -6.2024  -14.8501 C   0  0  0  0  0  0  0  0  0  0  0  0
   21.8550   -7.4513  -14.1721 C   0  0  0  0  0  0  0  0  0  0  0  0
   22.7541   -8.3301  -14.7813 C   0  0  0  0  0  0  0  0  0  0  0  0
   23.1443   -9.4733  -14.1443 C   0  0  0  0  0  0  0  0  0  0  0  0
   22.6905   -9.8227  -12.8989 C   0  0  0  0  0  0  0  0  0  0  0  0
   21.8050   -8.9629  -12.2917 C   0  0  0  0  0  0  0  0  0  0  0  0
   21.4077   -7.8205  -12.9142 C   0  0  0  0  0  0  0  0  0  0  0  0
   19.6238   -4.9805  -15.8889 C   0  0  0  0  0  0  0  0  0  0  0  0
   20.1255   -4.3836  -16.8784 O   0  0  0  0  0  0  0  0  0  0  0  0
   16.2145   -1.5271  -15.7156 O   0  0  0  0  0  0  0  0  0  0  0  0
   16.6537   -2.7534  -15.2568 C   0  0  0  0  0  0  0  0  0  0  0  0
   18.0536   -3.0096  -15.7763 C   0  0  2  0  0  0  0  0  0  0  0  0
   18.5503   -4.2636  -15.2511 N   0  0  0  0  0  0  0  0  0  0  0  0
   18.9594   -1.9013  -15.4069 C   0  0  0  0  0  0  0  0  0  0  0  0
   19.5796   -1.9201  -14.3222 O   0  0  0  0  0  0  0  0  0  0  0  0
   19.1155   -0.8427  -16.2711 O   0  0  0  0  0  0  0  0  0  0  0  0
  2  5  1  0
  2  1  1  1
  3  2  1  0
  4  3  1  0
  5  6  2  0
  7  8  1  0
  7  5  1  0
  9 10  1  0
  8  9  1  6
 10 11  2  0
 11 12  1  0
 13 12  2  0
 14 13  1  0
 15 14  2  0
 15 10  1  0
 16  8  1  0
 16 17  2  0
 18 19  1  0
 20 19  1  1
 20 22  1  0
 21 20  1  0
 21 16  1  0
 22 23  2  0
 22 24  1  0
M  END
$$$$
