CFS.pdb
     RDKit          3D

 24 24  0  0  1  0  0  0  0  0999 V2000
   26.9509  -21.3386  -13.3202 N   0  0  0  0  0  0  0  0  0  0  0  0
   26.0206  -20.6062  -12.5237 C   0  0  1  0  0  0  0  0  0  0  0  0
   24.5844  -20.8336  -12.9590 C   0  0  0  0  0  0  0  0  0  0  0  0
   24.2471  -19.7789  -14.3933 S   0  0  0  0  0  0  0  0  0  0  0  0
   26.1189  -20.9090  -11.0756 C   0  0  0  0  0  0  0  0  0  0  0  0
   26.1406  -22.1180  -10.7347 O   0  0  0  0  0  0  0  0  0  0  0  0
   26.1865  -19.8802  -10.1035 N   0  0  0  0  0  0  0  0  0  0  0  0
   26.3052  -20.1486   -8.6777 C   0  0  1  0  0  0  0  0  0  0  0  0
   26.8582  -18.9813   -7.9358 C   0  0  0  0  0  0  0  0  0  0  0  0
   27.4516  -19.3956   -6.6480 C   0  0  0  0  0  0  0  0  0  0  0  0
   26.7506  -19.2140   -5.4532 C   0  0  0  0  0  0  0  0  0  0  0  0
   27.2902  -19.6179   -4.2656 C   0  0  0  0  0  0  0  0  0  0  0  0
   28.5221  -20.2118   -4.1720 C   0  0  0  0  0  0  0  0  0  0  0  0
   29.2191  -20.3945   -5.3437 C   0  0  0  0  0  0  0  0  0  0  0  0
   28.6940  -19.9974   -6.5341 C   0  0  0  0  0  0  0  0  0  0  0  0
   24.9569  -20.4800   -8.1627 C   0  0  0  0  0  0  0  0  0  0  0  0
   23.9139  -19.8178   -8.4091 O   0  0  0  0  0  0  0  0  0  0  0  0
   24.4268  -23.8158   -5.7384 O   0  0  0  0  0  0  0  0  0  0  0  0
   23.3575  -23.4546   -6.5343 C   0  0  0  0  0  0  0  0  0  0  0  0
   23.4260  -21.9683   -6.8197 C   0  0  2  0  0  0  0  0  0  0  0  0
   24.7417  -21.6236   -7.3147 N   0  0  0  0  0  0  0  0  0  0  0  0
   23.1118  -21.1876   -5.6044 C   0  0  0  0  0  0  0  0  0  0  0  0
   23.9563  -20.4099   -5.1107 O   0  0  0  0  0  0  0  0  0  0  0  0
   21.8755  -21.3241   -5.0172 O   0  0  0  0  0  0  0  0  0  0  0  0
  2  5  1  0
  2  1  1  6
  3  2  1  0
  4  3  1  0
  5  6  2  0
  7  8  1  0
  7  5  1  0
  9 10  1  0
  8  9  1  1
 10 11  2  0
 11 12  1  0
 13 12  2  0
 14 13  1  0
 15 14  2  0
 15 10  1  0
 16  8  1  0
 16 17  2  0
 18 19  1  0
 20 19  1  1
 20 22  1  0
 21 20  1  0
 21 16  1  0
 22 23  2  0
 22 24  1  0
M  END
$$$$
