CFS.pdb
     RDKit          3D

 24 24  0  0  1  0  0  0  0  0999 V2000
   24.8246  -12.5856  -19.2991 N   0  0  0  0  0  0  0  0  0  0  0  0
   24.0011  -11.4284  -19.4365 C   0  0  1  0  0  0  0  0  0  0  0  0
   22.7070  -11.7256  -20.1717 C   0  0  0  0  0  0  0  0  0  0  0  0
   23.1151  -12.2797  -21.8479 S   0  0  0  0  0  0  0  0  0  0  0  0
   23.6620  -10.7899  -18.1419 C   0  0  0  0  0  0  0  0  0  0  0  0
   23.1776  -11.5211  -17.2425 O   0  0  0  0  0  0  0  0  0  0  0  0
   23.8725   -9.4068  -17.9170 N   0  0  0  0  0  0  0  0  0  0  0  0
   23.6456   -8.7740  -16.6259 C   0  0  1  0  0  0  0  0  0  0  0  0
   24.8803   -8.1301  -16.0969 C   0  0  0  0  0  0  0  0  0  0  0  0
   25.9786   -9.1081  -15.9579 C   0  0  0  0  0  0  0  0  0  0  0  0
   27.0738   -9.0723  -16.8247 C   0  0  0  0  0  0  0  0  0  0  0  0
   28.0996   -9.9623  -16.6815 C   0  0  0  0  0  0  0  0  0  0  0  0
   28.1199  -10.9228  -15.7037 C   0  0  0  0  0  0  0  0  0  0  0  0
   27.0456  -10.9650  -14.8458 C   0  0  0  0  0  0  0  0  0  0  0  0
   26.0167  -10.0848  -14.9763 C   0  0  0  0  0  0  0  0  0  0  0  0
   22.5816   -7.7583  -16.7971 C   0  0  0  0  0  0  0  0  0  0  0  0
   22.7227   -6.6719  -17.4190 O   0  0  0  0  0  0  0  0  0  0  0  0
   18.8721   -8.3486  -15.0495 O   0  0  0  0  0  0  0  0  0  0  0  0
   18.8547   -7.7133  -16.2756 C   0  0  0  0  0  0  0  0  0  0  0  0
   20.1859   -7.0263  -16.5019 C   0  0  2  0  0  0  0  0  0  0  0  0
   21.2670   -7.9533  -16.2431 N   0  0  0  0  0  0  0  0  0  0  0  0
   20.3120   -5.8333  -15.6381 C   0  0  0  0  0  0  0  0  0  0  0  0
   21.2137   -5.7637  -14.7756 O   0  0  0  0  0  0  0  0  0  0  0  0
   19.4243   -4.7940  -15.7914 O   0  0  0  0  0  0  0  0  0  0  0  0
  2  5  1  0
  2  1  1  1
  3  2  1  0
  4  3  1  0
  5  6  2  0
  7  8  1  0
  7  5  1  0
  9 10  1  0
  8  9  1  6
 10 11  2  0
 11 12  1  0
 13 12  2  0
 14 13  1  0
 15 14  2  0
 15 10  1  0
 16  8  1  0
 16 17  2  0
 18 19  1  0
 20 19  1  1
 20 22  1  0
 21 20  1  0
 21 16  1  0
 22 23  2  0
 22 24  1  0
M  END
$$$$
