CFS.pdb
     RDKit          3D

 24 24  0  0  1  0  0  0  0  0999 V2000
   22.1345  -11.3775  -18.3704 N   0  0  0  0  0  0  0  0  0  0  0  0
   22.0075   -9.9827  -18.6435 C   0  0  1  0  0  0  0  0  0  0  0  0
   20.8545   -9.6819  -19.5837 C   0  0  0  0  0  0  0  0  0  0  0  0
   21.3844  -10.0527  -21.2764 S   0  0  0  0  0  0  0  0  0  0  0  0
   21.8378   -9.1570  -17.4238 C   0  0  0  0  0  0  0  0  0  0  0  0
   21.2452   -9.6787  -16.4465 O   0  0  0  0  0  0  0  0  0  0  0  0
   22.3222   -7.8273  -17.3524 N   0  0  0  0  0  0  0  0  0  0  0  0
   22.1303   -6.9793  -16.1850 C   0  0  1  0  0  0  0  0  0  0  0  0
   23.4259   -6.5810  -15.5672 C   0  0  0  0  0  0  0  0  0  0  0  0
   24.2322   -7.7633  -15.2009 C   0  0  0  0  0  0  0  0  0  0  0  0
   23.8226   -8.6079  -14.1661 C   0  0  0  0  0  0  0  0  0  0  0  0
   24.5565   -9.7133  -13.8430 C   0  0  0  0  0  0  0  0  0  0  0  0
   25.7118  -10.0560  -14.4961 C   0  0  0  0  0  0  0  0  0  0  0  0
   26.1223   -9.2299  -15.5164 C   0  0  0  0  0  0  0  0  0  0  0  0
   25.4013   -8.1255  -15.8495 C   0  0  0  0  0  0  0  0  0  0  0  0
   21.3856   -5.7737  -16.6150 C   0  0  0  0  0  0  0  0  0  0  0  0
   21.6785   -5.0719  -17.6192 O   0  0  0  0  0  0  0  0  0  0  0  0
   17.4832   -5.5025  -16.1096 O   0  0  0  0  0  0  0  0  0  0  0  0
   18.0397   -4.2843  -15.7728 C   0  0  0  0  0  0  0  0  0  0  0  0
   19.4361   -4.1946  -16.3538 C   0  0  2  0  0  0  0  0  0  0  0  0
   20.2348   -5.3073  -15.8860 N   0  0  0  0  0  0  0  0  0  0  0  0
   20.0736   -2.9123  -15.9870 C   0  0  0  0  0  0  0  0  0  0  0  0
   21.1559   -2.8948  -15.3624 O   0  0  0  0  0  0  0  0  0  0  0  0
   19.4632   -1.7315  -16.3401 O   0  0  0  0  0  0  0  0  0  0  0  0
  2  5  1  0
  2  1  1  1
  3  2  1  0
  4  3  1  0
  5  6  2  0
  7  8  1  0
  7  5  1  0
  9 10  1  0
  8  9  1  6
 10 11  2  0
 11 12  1  0
 13 12  2  0
 14 13  1  0
 15 14  2  0
 15 10  1  0
 16  8  1  0
 16 17  2  0
 18 19  1  0
 20 19  1  1
 20 22  1  0
 21 20  1  0
 21 16  1  0
 22 23  2  0
 22 24  1  0
M  END
$$$$
