CFS.pdb
     RDKit          3D

 24 24  0  0  1  0  0  0  0  0999 V2000
   20.2073  -13.0914  -17.7171 N   0  0  0  0  0  0  0  0  0  0  0  0
   19.6491  -11.9064  -17.1512 C   0  0  1  0  0  0  0  0  0  0  0  0
   19.3427  -12.0624  -15.6728 C   0  0  0  0  0  0  0  0  0  0  0  0
   17.8974  -13.1413  -15.4984 S   0  0  0  0  0  0  0  0  0  0  0  0
   20.5091  -10.7106  -17.3221 C   0  0  0  0  0  0  0  0  0  0  0  0
   21.7429  -10.8501  -17.1314 O   0  0  0  0  0  0  0  0  0  0  0  0
   19.9693   -9.4522  -17.6868 N   0  0  0  0  0  0  0  0  0  0  0  0
   20.7905   -8.2639  -17.8670 C   0  0  1  0  0  0  0  0  0  0  0  0
   20.4428   -7.5314  -19.1166 C   0  0  0  0  0  0  0  0  0  0  0  0
   20.8486   -8.2925  -20.3159 C   0  0  0  0  0  0  0  0  0  0  0  0
   19.9238   -9.0873  -20.9978 C   0  0  0  0  0  0  0  0  0  0  0  0
   20.2939   -9.7727  -22.1194 C   0  0  0  0  0  0  0  0  0  0  0  0
   21.5632   -9.7260  -22.6347 C   0  0  0  0  0  0  0  0  0  0  0  0
   22.4800   -8.9455  -21.9696 C   0  0  0  0  0  0  0  0  0  0  0  0
   22.1257   -8.2571  -20.8512 C   0  0  0  0  0  0  0  0  0  0  0  0
   20.5834   -7.3847  -16.6936 C   0  0  0  0  0  0  0  0  0  0  0  0
   19.4892   -7.2506  -16.0840 O   0  0  0  0  0  0  0  0  0  0  0  0
   21.5199   -6.1955  -12.5506 O   0  0  0  0  0  0  0  0  0  0  0  0
   21.5357   -6.8833  -13.7481 C   0  0  0  0  0  0  0  0  0  0  0  0
   21.5305   -5.8923  -14.8941 C   0  0  2  0  0  0  0  0  0  0  0  0
   21.6596   -6.5961  -16.1522 N   0  0  0  0  0  0  0  0  0  0  0  0
   22.6227   -4.9083  -14.7394 C   0  0  0  0  0  0  0  0  0  0  0  0
   22.4801   -3.9088  -14.0029 O   0  0  0  0  0  0  0  0  0  0  0  0
   23.8044   -5.1019  -15.4161 O   0  0  0  0  0  0  0  0  0  0  0  0
  2  5  1  0
  2  1  1  1
  3  2  1  0
  4  3  1  0
  5  6  2  0
  7  8  1  0
  7  5  1  0
  9 10  1  0
  8  9  1  6
 10 11  2  0
 11 12  1  0
 13 12  2  0
 14 13  1  0
 15 14  2  0
 15 10  1  0
 16  8  1  0
 16 17  2  0
 18 19  1  0
 20 19  1  1
 20 22  1  0
 21 20  1  0
 21 16  1  0
 22 23  2  0
 22 24  1  0
M  END
$$$$
