IGE.pdb
     RDKit          3D

 22 21  0  0  1  0  0  0  0  0999 V2000
    8.5554  -12.2156   27.1984 C   0  0  0  0  0  0  0  0  0  0  0  0
    8.0941  -13.5631   26.7245 C   0  0  0  0  0  0  0  0  0  0  0  0
    7.0447  -13.3961   25.6157 C   0  0  2  0  0  0  0  0  0  0  0  0
    5.9069  -12.6461   26.2187 C   0  0  0  0  0  0  0  0  0  0  0  0
    6.7076  -14.8045   25.1754 C   0  0  2  0  0  0  0  0  0  0  0  0
    6.4493  -15.5420   26.4171 N   0  0  0  0  0  0  0  0  0  0  0  0
    7.7618  -15.4641   24.4002 C   0  0  0  0  0  0  0  0  0  0  0  0
    8.4520  -16.3733   24.9571 O   0  0  0  0  0  0  0  0  0  0  0  0
    8.0708  -15.1578   23.0562 N   0  0  0  0  0  0  0  0  0  0  0  0
    9.0643  -15.9345   22.3650 C   0  0  0  0  0  0  0  0  0  0  0  0
   10.4230  -15.7430   22.9528 C   0  0  0  0  0  0  0  0  0  0  0  0
   11.3268  -15.1806   22.2831 O   0  0  0  0  0  0  0  0  0  0  0  0
   10.7434  -16.1780   24.2619 N   0  0  0  0  0  0  0  0  0  0  0  0
   12.0781  -16.0322   24.8362 C   0  0  1  0  0  0  0  0  0  0  0  0
   11.9633  -16.5040   26.2811 C   0  0  0  0  0  0  0  0  0  0  0  0
   11.1017  -15.5050   27.0176 C   0  0  0  0  0  0  0  0  0  0  0  0
   11.0022  -15.8621   28.4604 C   0  0  0  0  0  0  0  0  0  0  0  0
   11.3959  -16.9785   28.9135 O   0  0  0  0  0  0  0  0  0  0  0  0
   13.0731  -16.8037   24.0846 C   0  0  0  0  0  0  0  0  0  0  0  0
   14.4112  -16.4930   24.1633 O   0  0  0  0  0  0  0  0  0  0  0  0
   10.4647  -14.9575   29.3503 O   0  0  0  0  0  0  0  0  0  0  0  0
   12.7060  -17.7546   23.3633 O   0  0  0  0  0  0  0  0  0  0  0  0
  2  3  1  0
  2  1  1  0
  3  5  1  0
  3  4  1  1
  5  7  1  0
  5  6  1  1
  7  8  2  0
  9 10  1  0
  9  7  1  0
 10 11  1  0
 11 12  2  0
 11 13  1  0
 13 14  1  0
 14 15  1  1
 15 16  1  0
 17 21  1  0
 17 16  1  0
 18 17  2  0
 19 20  1  0
 19 14  1  0
 22 19  2  0
M  END
$$$$
