IGE.pdb
     RDKit          3D

 22 21  0  0  1  0  0  0  0  0999 V2000
    6.5534  -12.4310   19.8915 C   0  0  0  0  0  0  0  0  0  0  0  0
    7.6637  -13.4236   19.7042 C   0  0  0  0  0  0  0  0  0  0  0  0
    8.9957  -12.8099   20.1599 C   0  0  2  0  0  0  0  0  0  0  0  0
    9.2909  -11.6922   19.2194 C   0  0  0  0  0  0  0  0  0  0  0  0
    9.9912  -13.9493   20.1159 C   0  0  2  0  0  0  0  0  0  0  0  0
   10.0200  -14.3783   18.7132 N   0  0  0  0  0  0  0  0  0  0  0  0
    9.6564  -15.0784   20.9880 C   0  0  0  0  0  0  0  0  0  0  0  0
    9.2933  -16.1738   20.4573 O   0  0  0  0  0  0  0  0  0  0  0  0
    9.7097  -15.0368   22.3990 N   0  0  0  0  0  0  0  0  0  0  0  0
    9.2858  -16.1836   23.1561 C   0  0  0  0  0  0  0  0  0  0  0  0
   10.4459  -17.0070   23.6082 C   0  0  0  0  0  0  0  0  0  0  0  0
   10.2585  -18.0154   24.3360 O   0  0  0  0  0  0  0  0  0  0  0  0
   11.7778  -16.6928   23.2435 N   0  0  0  0  0  0  0  0  0  0  0  0
   12.9143  -17.5336   23.6095 C   0  0  1  0  0  0  0  0  0  0  0  0
   14.0309  -17.1701   22.6377 C   0  0  0  0  0  0  0  0  0  0  0  0
   14.7034  -15.9241   23.1647 C   0  0  0  0  0  0  0  0  0  0  0  0
   15.7338  -15.4389   22.2045 C   0  0  0  0  0  0  0  0  0  0  0  0
   15.5201  -15.3647   20.9573 O   0  0  0  0  0  0  0  0  0  0  0  0
   13.3111  -17.3219   25.0052 C   0  0  0  0  0  0  0  0  0  0  0  0
   12.9105  -16.1966   25.6882 O   0  0  0  0  0  0  0  0  0  0  0  0
   16.9713  -15.0519   22.6715 O   0  0  0  0  0  0  0  0  0  0  0  0
   14.0210  -18.1703   25.5845 O   0  0  0  0  0  0  0  0  0  0  0  0
  2  3  1  0
  2  1  1  0
  3  5  1  0
  3  4  1  6
  5  7  1  0
  5  6  1  6
  7  8  2  0
  9 10  1  0
  9  7  1  0
 10 11  1  0
 11 12  2  0
 11 13  1  0
 13 14  1  0
 14 15  1  6
 15 16  1  0
 17 21  1  0
 17 16  1  0
 18 17  2  0
 19 20  1  0
 19 14  1  0
 22 19  2  0
M  END
$$$$
