IGE.pdb
     RDKit          3D

 22 21  0  0  1  0  0  0  0  0999 V2000
    8.2498  -11.2394   26.8336 C   0  0  0  0  0  0  0  0  0  0  0  0
    7.9248  -12.6885   26.6151 C   0  0  0  0  0  0  0  0  0  0  0  0
    6.7499  -12.8186   25.6347 C   0  0  2  0  0  0  0  0  0  0  0  0
    5.5601  -12.2395   26.3202 C   0  0  0  0  0  0  0  0  0  0  0  0
    6.6462  -14.2989   25.3365 C   0  0  2  0  0  0  0  0  0  0  0  0
    6.5968  -14.9512   26.6497 N   0  0  0  0  0  0  0  0  0  0  0  0
    7.7550  -14.8346   24.5421 C   0  0  0  0  0  0  0  0  0  0  0  0
    7.7408  -14.6687   23.2830 O   0  0  0  0  0  0  0  0  0  0  0  0
    8.8570  -15.5330   25.0839 N   0  0  0  0  0  0  0  0  0  0  0  0
    9.9200  -15.9593   24.2143 C   0  0  0  0  0  0  0  0  0  0  0  0
   10.1559  -17.4302   24.3098 C   0  0  0  0  0  0  0  0  0  0  0  0
    9.3330  -18.1633   24.9156 O   0  0  0  0  0  0  0  0  0  0  0  0
   11.2929  -18.0477   23.7340 N   0  0  0  0  0  0  0  0  0  0  0  0
   11.7574  -19.3731   24.1343 C   0  0  1  0  0  0  0  0  0  0  0  0
   13.0853  -19.5833   23.4159 C   0  0  0  0  0  0  0  0  0  0  0  0
   12.9228  -19.0723   22.0034 C   0  0  0  0  0  0  0  0  0  0  0  0
   14.1780  -19.2724   21.2264 C   0  0  0  0  0  0  0  0  0  0  0  0
   15.1775  -19.8939   21.6968 O   0  0  0  0  0  0  0  0  0  0  0  0
   11.8990  -19.4751   25.5903 C   0  0  0  0  0  0  0  0  0  0  0  0
   11.8103  -20.6939   26.2227 O   0  0  0  0  0  0  0  0  0  0  0  0
   14.2740  -18.7700   19.9467 O   0  0  0  0  0  0  0  0  0  0  0  0
   12.1028  -18.4463   26.2679 O   0  0  0  0  0  0  0  0  0  0  0  0
  2  3  1  0
  2  1  1  0
  3  5  1  0
  3  4  1  1
  5  7  1  0
  5  6  1  1
  7  8  2  0
  9 10  1  0
  9  7  1  0
 10 11  1  0
 11 12  2  0
 11 13  1  0
 13 14  1  0
 14 15  1  6
 15 16  1  0
 17 21  1  0
 17 16  1  0
 18 17  2  0
 19 20  1  0
 19 14  1  0
 22 19  2  0
M  END
$$$$
