IGE.pdb
     RDKit          3D

 22 21  0  0  1  0  0  0  0  0999 V2000
    6.6294  -11.6605   27.5652 C   0  0  0  0  0  0  0  0  0  0  0  0
    6.1188  -12.5937   26.5061 C   0  0  0  0  0  0  0  0  0  0  0  0
    7.2827  -13.4071   25.9211 C   0  0  2  0  0  0  0  0  0  0  0  0
    8.1772  -12.4331   25.2342 C   0  0  0  0  0  0  0  0  0  0  0  0
    6.6340  -14.4215   25.0039 C   0  0  2  0  0  0  0  0  0  0  0  0
    5.6690  -15.1369   25.8462 N   0  0  0  0  0  0  0  0  0  0  0  0
    7.5705  -15.3648   24.3872 C   0  0  0  0  0  0  0  0  0  0  0  0
    8.0275  -16.3195   25.0892 O   0  0  0  0  0  0  0  0  0  0  0  0
    8.0089  -15.2887   23.0464 N   0  0  0  0  0  0  0  0  0  0  0  0
    8.9897  -16.2260   22.5695 C   0  0  0  0  0  0  0  0  0  0  0  0
   10.3128  -16.0263   23.2312 C   0  0  0  0  0  0  0  0  0  0  0  0
   10.4835  -15.0645   24.0231 O   0  0  0  0  0  0  0  0  0  0  0  0
   11.4076  -16.8941   22.9988 N   0  0  0  0  0  0  0  0  0  0  0  0
   12.7478  -16.6273   23.5140 C   0  0  1  0  0  0  0  0  0  0  0  0
   13.1216  -17.8446   24.3518 C   0  0  0  0  0  0  0  0  0  0  0  0
   12.1854  -17.8845   25.5370 C   0  0  0  0  0  0  0  0  0  0  0  0
   12.6329  -18.9067   26.5239 C   0  0  0  0  0  0  0  0  0  0  0  0
   13.6138  -19.6793   26.3056 O   0  0  0  0  0  0  0  0  0  0  0  0
   13.7041  -16.3947   22.4270 C   0  0  0  0  0  0  0  0  0  0  0  0
   14.9620  -15.9024   22.6892 O   0  0  0  0  0  0  0  0  0  0  0  0
   11.9676  -19.0313   27.7243 O   0  0  0  0  0  0  0  0  0  0  0  0
   13.3772  -16.6449   21.2481 O   0  0  0  0  0  0  0  0  0  0  0  0
  2  3  1  0
  2  1  1  0
  3  5  1  0
  3  4  1  6
  5  7  1  0
  5  6  1  1
  7  8  2  0
  9 10  1  0
  9  7  1  0
 10 11  1  0
 11 12  2  0
 11 13  1  0
 13 14  1  0
 14 15  1  6
 15 16  1  0
 17 21  1  0
 17 16  1  0
 18 17  2  0
 19 20  1  0
 19 14  1  0
 22 19  2  0
M  END
$$$$
