IGE.pdb
     RDKit          3D

 22 21  0  0  1  0  0  0  0  0999 V2000
    8.7211  -11.8746   26.6960 C   0  0  0  0  0  0  0  0  0  0  0  0
    8.1476  -13.1489   26.1477 C   0  0  0  0  0  0  0  0  0  0  0  0
    6.8833  -12.8441   25.3309 C   0  0  2  0  0  0  0  0  0  0  0  0
    5.8566  -12.3690   26.3009 C   0  0  0  0  0  0  0  0  0  0  0  0
    6.5391  -14.1440   24.6360 C   0  0  2  0  0  0  0  0  0  0  0  0
    6.4514  -15.1402   25.7094 N   0  0  0  0  0  0  0  0  0  0  0  0
    7.5137  -14.5662   23.6264 C   0  0  0  0  0  0  0  0  0  0  0  0
    7.7750  -13.7808   22.6631 O   0  0  0  0  0  0  0  0  0  0  0  0
    8.1954  -15.8033   23.6473 N   0  0  0  0  0  0  0  0  0  0  0  0
    9.2248  -16.0593   22.6763 C   0  0  0  0  0  0  0  0  0  0  0  0
   10.5557  -16.2603   23.3216 C   0  0  0  0  0  0  0  0  0  0  0  0
   11.5838  -16.4128   22.6136 O   0  0  0  0  0  0  0  0  0  0  0  0
   10.7119  -16.2869   24.7290 N   0  0  0  0  0  0  0  0  0  0  0  0
   12.0134  -16.4344   25.3747 C   0  0  1  0  0  0  0  0  0  0  0  0
   11.8066  -16.0207   26.8272 C   0  0  0  0  0  0  0  0  0  0  0  0
   11.1878  -17.1944   27.5497 C   0  0  0  0  0  0  0  0  0  0  0  0
   10.9725  -16.8701   28.9876 C   0  0  0  0  0  0  0  0  0  0  0  0
   11.5429  -15.8919   29.5571 O   0  0  0  0  0  0  0  0  0  0  0  0
   12.5162  -17.8073   25.2616 C   0  0  0  0  0  0  0  0  0  0  0  0
   13.8269  -18.1037   25.5574 O   0  0  0  0  0  0  0  0  0  0  0  0
   10.1249  -17.6518   29.7424 O   0  0  0  0  0  0  0  0  0  0  0  0
   11.7491  -18.7211   24.8929 O   0  0  0  0  0  0  0  0  0  0  0  0
  2  3  1  0
  2  1  1  0
  3  5  1  0
  3  4  1  1
  5  7  1  0
  5  6  1  1
  7  8  2  0
  9 10  1  0
  9  7  1  0
 10 11  1  0
 11 12  2  0
 11 13  1  0
 13 14  1  0
 14 15  1  1
 15 16  1  0
 17 21  1  0
 17 16  1  0
 18 17  2  0
 19 20  1  0
 19 14  1  0
 22 19  2  0
M  END
$$$$
