IGE.pdb
     RDKit          3D

 22 21  0  0  1  0  0  0  0  0999 V2000
    7.4955  -11.7705   18.9794 C   0  0  0  0  0  0  0  0  0  0  0  0
    7.9484  -13.0965   18.4409 C   0  0  0  0  0  0  0  0  0  0  0  0
    8.2380  -14.0603   19.6010 C   0  0  2  0  0  0  0  0  0  0  0  0
    9.2867  -13.4123   20.4383 C   0  0  0  0  0  0  0  0  0  0  0  0
    8.6682  -15.3533   18.9422 C   0  0  2  0  0  0  0  0  0  0  0  0
    7.6284  -15.6405   17.9478 N   0  0  0  0  0  0  0  0  0  0  0  0
    8.8169  -16.4817   19.8652 C   0  0  0  0  0  0  0  0  0  0  0  0
    7.7881  -17.1607   20.1713 O   0  0  0  0  0  0  0  0  0  0  0  0
   10.0415  -16.8762   20.4486 N   0  0  0  0  0  0  0  0  0  0  0  0
   10.0407  -17.8653   21.4924 C   0  0  0  0  0  0  0  0  0  0  0  0
   11.4265  -18.2177   21.9211 C   0  0  0  0  0  0  0  0  0  0  0  0
   11.6170  -18.8179   23.0096 O   0  0  0  0  0  0  0  0  0  0  0  0
   12.5604  -17.8969   21.1354 N   0  0  0  0  0  0  0  0  0  0  0  0
   13.5858  -16.9565   21.5788 C   0  0  1  0  0  0  0  0  0  0  0  0
   13.3004  -15.6522   20.8433 C   0  0  0  0  0  0  0  0  0  0  0  0
   14.5649  -15.2538   20.1187 C   0  0  0  0  0  0  0  0  0  0  0  0
   14.2454  -14.4128   18.9314 C   0  0  0  0  0  0  0  0  0  0  0  0
   13.0592  -14.0814   18.6318 O   0  0  0  0  0  0  0  0  0  0  0  0
   13.5610  -16.7823   23.0345 C   0  0  0  0  0  0  0  0  0  0  0  0
   13.3492  -17.8559   23.8687 O   0  0  0  0  0  0  0  0  0  0  0  0
   15.2648  -13.9694   18.1169 O   0  0  0  0  0  0  0  0  0  0  0  0
   13.7336  -15.6479   23.5272 O   0  0  0  0  0  0  0  0  0  0  0  0
  2  3  1  0
  2  1  1  0
  3  5  1  0
  3  4  1  1
  5  7  1  0
  5  6  1  6
  7  8  2  0
  9 10  1  0
  9  7  1  0
 10 11  1  0
 11 12  2  0
 11 13  1  0
 13 14  1  0
 14 15  1  6
 15 16  1  0
 17 21  1  0
 17 16  1  0
 18 17  2  0
 19 20  1  0
 19 14  1  0
 22 19  2  0
M  END
$$$$
