IGE.pdb
     RDKit          3D

 22 21  0  0  1  0  0  0  0  0999 V2000
    7.3230  -11.2959   27.5577 C   0  0  0  0  0  0  0  0  0  0  0  0
    6.7952  -12.6516   27.1877 C   0  0  0  0  0  0  0  0  0  0  0  0
    7.4301  -13.1176   25.8693 C   0  0  2  0  0  0  0  0  0  0  0  0
    7.0828  -12.0917   24.8459 C   0  0  0  0  0  0  0  0  0  0  0  0
    6.8429  -14.4886   25.6111 C   0  0  2  0  0  0  0  0  0  0  0  0
    7.2926  -15.3156   26.7364 N   0  0  0  0  0  0  0  0  0  0  0  0
    7.2517  -15.0915   24.3396 C   0  0  0  0  0  0  0  0  0  0  0  0
    6.5077  -14.9354   23.3220 O   0  0  0  0  0  0  0  0  0  0  0  0
    8.4326  -15.8457   24.1600 N   0  0  0  0  0  0  0  0  0  0  0  0
    8.7634  -16.3395   22.8505 C   0  0  0  0  0  0  0  0  0  0  0  0
   10.1066  -16.9902   22.8283 C   0  0  0  0  0  0  0  0  0  0  0  0
   10.4679  -17.6579   21.8256 O   0  0  0  0  0  0  0  0  0  0  0  0
   11.0107  -16.8845   23.9132 N   0  0  0  0  0  0  0  0  0  0  0  0
   12.3315  -17.5074   23.9019 C   0  0  1  0  0  0  0  0  0  0  0  0
   13.2864  -16.4483   23.3633 C   0  0  0  0  0  0  0  0  0  0  0  0
   14.6749  -17.0439   23.3697 C   0  0  0  0  0  0  0  0  0  0  0  0
   15.6623  -16.0769   22.8136 C   0  0  0  0  0  0  0  0  0  0  0  0
   16.1944  -16.2282   21.6732 O   0  0  0  0  0  0  0  0  0  0  0  0
   12.7197  -17.9670   25.2392 C   0  0  0  0  0  0  0  0  0  0  0  0
   13.7638  -18.8476   25.4055 O   0  0  0  0  0  0  0  0  0  0  0  0
   16.0226  -14.9709   23.5525 O   0  0  0  0  0  0  0  0  0  0  0  0
   12.0980  -17.5569   26.2415 O   0  0  0  0  0  0  0  0  0  0  0  0
  2  3  1  0
  2  1  1  0
  3  5  1  0
  3  4  1  6
  5  7  1  0
  5  6  1  1
  7  8  2  0
  9 10  1  0
  9  7  1  0
 10 11  1  0
 11 12  2  0
 11 13  1  0
 13 14  1  0
 14 15  1  1
 15 16  1  0
 17 21  1  0
 17 16  1  0
 18 17  2  0
 19 20  1  0
 19 14  1  0
 22 19  2  0
M  END
$$$$
