IGE.pdb
     RDKit          3D

 22 21  0  0  1  0  0  0  0  0999 V2000
    7.5583  -11.3443   27.0292 C   0  0  0  0  0  0  0  0  0  0  0  0
    7.6003  -12.8289   26.8114 C   0  0  0  0  0  0  0  0  0  0  0  0
    6.5484  -13.2340   25.7684 C   0  0  2  0  0  0  0  0  0  0  0  0
    5.2175  -13.0181   26.4031 C   0  0  0  0  0  0  0  0  0  0  0  0
    6.8596  -14.6769   25.4333 C   0  0  2  0  0  0  0  0  0  0  0  0
    6.9305  -15.3636   26.7278 N   0  0  0  0  0  0  0  0  0  0  0  0
    8.1049  -14.8686   24.6852 C   0  0  0  0  0  0  0  0  0  0  0  0
    9.2032  -14.8936   25.3227 O   0  0  0  0  0  0  0  0  0  0  0  0
    8.1740  -15.0311   23.2836 N   0  0  0  0  0  0  0  0  0  0  0  0
    9.4595  -15.1164   22.6447 C   0  0  0  0  0  0  0  0  0  0  0  0
   10.2666  -16.2540   23.1765 C   0  0  0  0  0  0  0  0  0  0  0  0
    9.8007  -17.4219   23.1567 O   0  0  0  0  0  0  0  0  0  0  0  0
   11.5636  -16.0683   23.7142 N   0  0  0  0  0  0  0  0  0  0  0  0
   12.3806  -17.1763   24.2017 C   0  0  1  0  0  0  0  0  0  0  0  0
   13.8270  -16.7100   24.0836 C   0  0  0  0  0  0  0  0  0  0  0  0
   14.1011  -16.4468   22.6213 C   0  0  0  0  0  0  0  0  0  0  0  0
   15.5050  -15.9888   22.4256 C   0  0  0  0  0  0  0  0  0  0  0  0
   16.2985  -15.7946   23.3947 O   0  0  0  0  0  0  0  0  0  0  0  0
   12.0306  -17.5356   25.5796 C   0  0  0  0  0  0  0  0  0  0  0  0
   12.4186  -18.7434   26.1124 O   0  0  0  0  0  0  0  0  0  0  0  0
   15.9760  -15.7628   21.1504 O   0  0  0  0  0  0  0  0  0  0  0  0
   11.3729  -16.7390   26.2811 O   0  0  0  0  0  0  0  0  0  0  0  0
  2  3  1  0
  2  1  1  0
  3  5  1  0
  3  4  1  1
  5  7  1  0
  5  6  1  1
  7  8  2  0
  9 10  1  0
  9  7  1  0
 10 11  1  0
 11 12  2  0
 11 13  1  0
 13 14  1  0
 14 15  1  1
 15 16  1  0
 17 21  1  0
 17 16  1  0
 18 17  2  0
 19 20  1  0
 19 14  1  0
 22 19  2  0
M  END
$$$$
