IGE.pdb
     RDKit          3D

 22 21  0  0  1  0  0  0  0  0999 V2000
    6.4269  -11.0344   26.9511 C   0  0  0  0  0  0  0  0  0  0  0  0
    5.9086  -12.2702   26.2746 C   0  0  0  0  0  0  0  0  0  0  0  0
    7.0591  -12.9993   25.5653 C   0  0  2  0  0  0  0  0  0  0  0  0
    7.6417  -12.0291   24.5958 C   0  0  0  0  0  0  0  0  0  0  0  0
    6.4232  -14.2179   24.9314 C   0  0  2  0  0  0  0  0  0  0  0  0
    5.8515  -14.9765   26.0496 N   0  0  0  0  0  0  0  0  0  0  0  0
    7.3517  -15.0562   24.1682 C   0  0  0  0  0  0  0  0  0  0  0  0
    8.1365  -15.8301   24.7994 O   0  0  0  0  0  0  0  0  0  0  0  0
    7.4386  -15.0668   22.7582 N   0  0  0  0  0  0  0  0  0  0  0  0
    8.3644  -15.9589   22.1140 C   0  0  0  0  0  0  0  0  0  0  0  0
    9.7084  -15.9232   22.7625 C   0  0  0  0  0  0  0  0  0  0  0  0
   10.4513  -14.9185   22.6203 O   0  0  0  0  0  0  0  0  0  0  0  0
   10.1922  -16.9975   23.5484 N   0  0  0  0  0  0  0  0  0  0  0  0
   11.5627  -17.0526   24.0495 C   0  0  1  0  0  0  0  0  0  0  0  0
   11.6309  -18.2879   24.9399 C   0  0  0  0  0  0  0  0  0  0  0  0
   11.5138  -17.8219   26.3723 C   0  0  0  0  0  0  0  0  0  0  0  0
   11.6315  -18.9739   27.3093 C   0  0  0  0  0  0  0  0  0  0  0  0
   12.6168  -19.7710   27.2870 O   0  0  0  0  0  0  0  0  0  0  0  0
   12.5335  -17.1129   22.9521 C   0  0  0  0  0  0  0  0  0  0  0  0
   13.8203  -16.6572   23.1245 O   0  0  0  0  0  0  0  0  0  0  0  0
   10.6418  -19.1970   28.2420 O   0  0  0  0  0  0  0  0  0  0  0  0
   12.1924  -17.5827   21.8466 O   0  0  0  0  0  0  0  0  0  0  0  0
  2  3  1  0
  2  1  1  0
  3  5  1  0
  3  4  1  6
  5  7  1  0
  5  6  1  1
  7  8  2  0
  9 10  1  0
  9  7  1  0
 10 11  1  0
 11 12  2  0
 11 13  1  0
 13 14  1  0
 14 15  1  1
 15 16  1  0
 17 21  1  0
 17 16  1  0
 18 17  2  0
 19 20  1  0
 19 14  1  0
 22 19  2  0
M  END
$$$$
