IGE.pdb
     RDKit          3D

 22 21  0  0  1  0  0  0  0  0999 V2000
    5.2590  -11.8442   26.7389 C   0  0  0  0  0  0  0  0  0  0  0  0
    5.7529  -12.8679   25.7584 C   0  0  0  0  0  0  0  0  0  0  0  0
    7.2463  -12.6451   25.4780 C   0  0  2  0  0  0  0  0  0  0  0  0
    7.3430  -11.4038   24.6592 C   0  0  0  0  0  0  0  0  0  0  0  0
    7.7076  -13.9023   24.7725 C   0  0  2  0  0  0  0  0  0  0  0  0
    6.8602  -14.0043   23.5792 N   0  0  0  0  0  0  0  0  0  0  0  0
    7.6020  -15.1213   25.5788 C   0  0  0  0  0  0  0  0  0  0  0  0
    8.2606  -15.1963   26.6623 O   0  0  0  0  0  0  0  0  0  0  0  0
    6.8076  -16.2372   25.2335 N   0  0  0  0  0  0  0  0  0  0  0  0
    6.7478  -17.3647   26.1242 C   0  0  0  0  0  0  0  0  0  0  0  0
    7.9736  -18.2111   26.0275 C   0  0  0  0  0  0  0  0  0  0  0  0
    7.8711  -19.4584   25.9046 O   0  0  0  0  0  0  0  0  0  0  0  0
    9.2755  -17.6553   26.0695 N   0  0  0  0  0  0  0  0  0  0  0  0
   10.4725  -18.4666   26.2733 C   0  0  1  0  0  0  0  0  0  0  0  0
   11.6064  -17.7159   25.5846 C   0  0  0  0  0  0  0  0  0  0  0  0
   11.1479  -17.3883   24.1827 C   0  0  0  0  0  0  0  0  0  0  0  0
   12.2354  -16.7138   23.4201 C   0  0  0  0  0  0  0  0  0  0  0  0
   13.3416  -16.3953   23.9506 O   0  0  0  0  0  0  0  0  0  0  0  0
   10.7411  -18.6782   27.6993 C   0  0  0  0  0  0  0  0  0  0  0  0
   10.2212  -17.8274   28.6475 O   0  0  0  0  0  0  0  0  0  0  0  0
   12.0495  -16.4171   22.0872 O   0  0  0  0  0  0  0  0  0  0  0  0
   11.4496  -19.6405   28.0617 O   0  0  0  0  0  0  0  0  0  0  0  0
  2  3  1  0
  2  1  1  0
  3  5  1  0
  3  4  1  6
  5  7  1  0
  5  6  1  6
  7  8  2  0
  9 10  1  0
  9  7  1  0
 10 11  1  0
 11 12  2  0
 11 13  1  0
 13 14  1  0
 14 15  1  1
 15 16  1  0
 17 21  1  0
 17 16  1  0
 18 17  2  0
 19 20  1  0
 19 14  1  0
 22 19  2  0
M  END
$$$$
