IGE.pdb
     RDKit          3D

 22 21  0  0  1  0  0  0  0  0999 V2000
    7.4582  -10.7353   25.8841 C   0  0  0  0  0  0  0  0  0  0  0  0
    7.7614  -12.1742   26.1858 C   0  0  0  0  0  0  0  0  0  0  0  0
    6.5791  -13.0576   25.7612 C   0  0  2  0  0  0  0  0  0  0  0  0
    5.4613  -12.7476   26.6966 C   0  0  0  0  0  0  0  0  0  0  0  0
    7.0963  -14.4776   25.8467 C   0  0  2  0  0  0  0  0  0  0  0  0
    8.2163  -14.4205   26.7927 N   0  0  0  0  0  0  0  0  0  0  0  0
    7.5377  -15.0383   24.5668 C   0  0  0  0  0  0  0  0  0  0  0  0
    6.8520  -15.9673   24.0377 O   0  0  0  0  0  0  0  0  0  0  0  0
    8.6888  -14.6134   23.8669 N   0  0  0  0  0  0  0  0  0  0  0  0
    9.0122  -15.2207   22.6041 C   0  0  0  0  0  0  0  0  0  0  0  0
    9.9184  -16.3951   22.7716 C   0  0  0  0  0  0  0  0  0  0  0  0
   10.3193  -17.0316   21.7639 O   0  0  0  0  0  0  0  0  0  0  0  0
   10.3547  -16.8315   24.0463 N   0  0  0  0  0  0  0  0  0  0  0  0
   11.6604  -17.4486   24.2636 C   0  0  1  0  0  0  0  0  0  0  0  0
   12.6860  -16.3449   24.0320 C   0  0  0  0  0  0  0  0  0  0  0  0
   13.8007  -16.9295   23.1963 C   0  0  0  0  0  0  0  0  0  0  0  0
   14.9559  -15.9911   23.1338 C   0  0  0  0  0  0  0  0  0  0  0  0
   15.2511  -15.3445   22.0843 O   0  0  0  0  0  0  0  0  0  0  0  0
   11.7658  -18.0220   25.6091 C   0  0  0  0  0  0  0  0  0  0  0  0
   12.7423  -18.9446   25.9067 O   0  0  0  0  0  0  0  0  0  0  0  0
   15.7443  -15.8065   24.2490 O   0  0  0  0  0  0  0  0  0  0  0  0
   10.9620  -17.6717   26.4981 O   0  0  0  0  0  0  0  0  0  0  0  0
  2  3  1  0
  2  1  1  0
  3  5  1  0
  3  4  1  1
  5  7  1  0
  5  6  1  1
  7  8  2  0
  9 10  1  0
  9  7  1  0
 10 11  1  0
 11 12  2  0
 11 13  1  0
 13 14  1  0
 14 15  1  1
 15 16  1  0
 17 21  1  0
 17 16  1  0
 18 17  2  0
 19 20  1  0
 19 14  1  0
 22 19  2  0
M  END
$$$$
