IGE.pdb
     RDKit          3D

 22 21  0  0  1  0  0  0  0  0999 V2000
    8.4292  -12.3004   26.9701 C   0  0  0  0  0  0  0  0  0  0  0  0
    7.7879  -13.5462   26.4314 C   0  0  0  0  0  0  0  0  0  0  0  0
    6.7016  -13.1755   25.4111 C   0  0  2  0  0  0  0  0  0  0  0  0
    5.6831  -12.3758   26.1485 C   0  0  0  0  0  0  0  0  0  0  0  0
    6.1962  -14.4975   24.8744 C   0  0  2  0  0  0  0  0  0  0  0  0
    6.0838  -15.3695   26.0489 N   0  0  0  0  0  0  0  0  0  0  0  0
    7.0631  -15.1110   23.8646 C   0  0  0  0  0  0  0  0  0  0  0  0
    7.7190  -16.1537   24.1743 O   0  0  0  0  0  0  0  0  0  0  0  0
    7.2246  -14.6194   22.5501 N   0  0  0  0  0  0  0  0  0  0  0  0
    8.0335  -15.3543   21.6155 C   0  0  0  0  0  0  0  0  0  0  0  0
    9.4555  -15.4381   22.0617 C   0  0  0  0  0  0  0  0  0  0  0  0
   10.2999  -14.6080   21.6379 O   0  0  0  0  0  0  0  0  0  0  0  0
    9.9028  -16.4354   22.9622 N   0  0  0  0  0  0  0  0  0  0  0  0
   11.3118  -16.6169   23.3006 C   0  0  1  0  0  0  0  0  0  0  0  0
   11.3386  -17.6243   24.4443 C   0  0  0  0  0  0  0  0  0  0  0  0
   10.6386  -16.9906   25.6237 C   0  0  0  0  0  0  0  0  0  0  0  0
   10.5754  -17.9419   26.7684 C   0  0  0  0  0  0  0  0  0  0  0  0
   11.4086  -18.8857   26.9153 O   0  0  0  0  0  0  0  0  0  0  0  0
   12.0864  -17.0787   22.1444 C   0  0  0  0  0  0  0  0  0  0  0  0
   13.4618  -17.0919   22.1782 O   0  0  0  0  0  0  0  0  0  0  0  0
    9.5808  -17.8060   27.7125 O   0  0  0  0  0  0  0  0  0  0  0  0
   11.4947  -17.4653   21.1149 O   0  0  0  0  0  0  0  0  0  0  0  0
  2  3  1  0
  2  1  1  0
  3  5  1  0
  3  4  1  1
  5  7  1  0
  5  6  1  1
  7  8  2  0
  9 10  1  0
  9  7  1  0
 10 11  1  0
 11 12  2  0
 11 13  1  0
 13 14  1  0
 14 15  1  1
 15 16  1  0
 17 21  1  0
 17 16  1  0
 18 17  2  0
 19 20  1  0
 19 14  1  0
 22 19  2  0
M  END
$$$$
