FML.pdb
     RDKit          3D

 28 28  0  0  1  0  0  0  0  0999 V2000
   26.5462  -19.6923  -11.0644 N   0  0  0  0  0  0  0  0  0  0  0  0
   25.5527  -20.5190  -10.3820 C   0  0  1  0  0  0  0  0  0  0  0  0
   25.5527  -20.2020   -8.9252 C   0  0  0  0  0  0  0  0  0  0  0  0
   26.8761  -20.0458   -8.3268 C   0  0  0  0  0  0  0  0  0  0  0  0
   27.1748  -18.8886   -7.6017 C   0  0  0  0  0  0  0  0  0  0  0  0
   28.4215  -18.7589   -7.0314 C   0  0  0  0  0  0  0  0  0  0  0  0
   29.3649  -19.7728   -7.1810 C   0  0  0  0  0  0  0  0  0  0  0  0
   29.0810  -20.9246   -7.8972 C   0  0  0  0  0  0  0  0  0  0  0  0
   27.8267  -21.0360   -8.4610 C   0  0  0  0  0  0  0  0  0  0  0  0
   24.2154  -20.2704  -10.9508 C   0  0  0  0  0  0  0  0  0  0  0  0
   23.7820  -19.1007  -11.0101 O   0  0  0  0  0  0  0  0  0  0  0  0
   23.3238  -19.6549  -15.9899 C   0  0  0  0  0  0  0  0  0  0  0  0
   21.5873  -20.1142  -15.9321 S   0  0  0  0  0  0  0  0  0  0  0  0
   21.0577  -20.5644  -14.2605 C   0  0  0  0  0  0  0  0  0  0  0  0
   22.2311  -20.7922  -13.4080 C   0  0  0  0  0  0  0  0  0  0  0  0
   22.0758  -21.1660  -11.9904 C   0  0  2  0  0  0  0  0  0  0  0  0
   23.4449  -21.3484  -11.4191 N   0  0  0  0  0  0  0  0  0  0  0  0
   21.3309  -22.3423  -11.6135 C   0  0  0  0  0  0  0  0  0  0  0  0
   21.8313  -23.5307  -11.6720 O   0  0  0  0  0  0  0  0  0  0  0  0
   18.4560  -25.6941   -8.5363 C   0  0  0  0  0  0  0  0  0  0  0  0
   17.8621  -24.3966   -8.9121 C   0  0  1  0  0  0  0  0  0  0  0  0
   17.2526  -23.8161   -7.6097 C   0  0  0  0  0  0  0  0  0  0  0  0
   18.6610  -23.3659   -9.5435 C   0  0  0  0  0  0  0  0  0  0  0  0
   19.2316  -23.5531  -10.9195 C   0  0  2  0  0  0  0  0  0  0  0  0
   20.0033  -22.3022  -11.1384 N   0  0  0  0  0  0  0  0  0  0  0  0
   18.2956  -23.6750  -12.0097 C   0  0  0  0  0  0  0  0  0  0  0  0
   17.9516  -24.9247  -12.5033 O   0  0  0  0  0  0  0  0  0  0  0  0
   17.7663  -22.6962  -12.5525 O   0  0  0  0  0  0  0  0  0  0  0  0
  2  3  1  0
  2  1  1  6
  4  3  1  0
  4  5  2  0
  6  5  1  0
  7  6  2  0
  8  9  2  0
  8  7  1  0
  9  4  1  0
 10  2  1  0
 11 10  2  0
 13 12  1  0
 13 14  1  0
 16 15  1  6
 15 14  1  0
 16 17  1  0
 17 10  1  0
 18 25  1  0
 18 16  1  0
 19 18  2  0
 21 20  1  1
 21 23  1  0
 21 22  1  0
 24 23  1  1
 24 26  1  0
 24 25  1  0
 26 27  1  0
 28 26  2  0
M  END
$$$$
