FML.pdb
     RDKit          3D

 28 28  0  0  1  0  0  0  0  0999 V2000
   23.4615  -10.8265  -16.0158 N   0  0  0  0  0  0  0  0  0  0  0  0
   22.6223  -10.0109  -16.8914 C   0  0  1  0  0  0  0  0  0  0  0  0
   21.2663  -10.6214  -16.9965 C   0  0  0  0  0  0  0  0  0  0  0  0
   21.2109  -11.8801  -17.7359 C   0  0  0  0  0  0  0  0  0  0  0  0
   21.0452  -13.0825  -17.0426 C   0  0  0  0  0  0  0  0  0  0  0  0
   20.9814  -14.2611  -17.7519 C   0  0  0  0  0  0  0  0  0  0  0  0
   21.0815  -14.2444  -19.1411 C   0  0  0  0  0  0  0  0  0  0  0  0
   21.2459  -13.0591  -19.8400 C   0  0  0  0  0  0  0  0  0  0  0  0
   21.3075  -11.8890  -19.1116 C   0  0  0  0  0  0  0  0  0  0  0  0
   22.5173   -8.6417  -16.3548 C   0  0  0  0  0  0  0  0  0  0  0  0
   22.6681   -8.4499  -15.1300 O   0  0  0  0  0  0  0  0  0  0  0  0
   24.9133   -2.2907  -15.4323 C   0  0  0  0  0  0  0  0  0  0  0  0
   24.8524   -3.3045  -16.9150 S   0  0  0  0  0  0  0  0  0  0  0  0
   23.1789   -3.9009  -17.2634 C   0  0  0  0  0  0  0  0  0  0  0  0
   23.1790   -5.3662  -17.3560 C   0  0  0  0  0  0  0  0  0  0  0  0
   22.1029   -6.1638  -16.7400 C   0  0  2  0  0  0  0  0  0  0  0  0
   22.2499   -7.5702  -17.2240 N   0  0  0  0  0  0  0  0  0  0  0  0
   20.7173   -5.8186  -16.9446 C   0  0  0  0  0  0  0  0  0  0  0  0
   20.1511   -5.8724  -18.1033 O   0  0  0  0  0  0  0  0  0  0  0  0
   15.3915   -5.4019  -16.9278 C   0  0  0  0  0  0  0  0  0  0  0  0
   16.1396   -5.5975  -15.6710 C   0  0  1  0  0  0  0  0  0  0  0  0
   15.4483   -6.7811  -14.9458 C   0  0  0  0  0  0  0  0  0  0  0  0
   17.5682   -5.8389  -15.6835 C   0  0  0  0  0  0  0  0  0  0  0  0
   18.5297   -4.8094  -16.2027 C   0  0  2  0  0  0  0  0  0  0  0  0
   19.8575   -5.4066  -15.9050 N   0  0  0  0  0  0  0  0  0  0  0  0
   18.4977   -3.5071  -15.5843 C   0  0  0  0  0  0  0  0  0  0  0  0
   17.7309   -2.4889  -16.1310 O   0  0  0  0  0  0  0  0  0  0  0  0
   19.1398   -3.2338  -14.5616 O   0  0  0  0  0  0  0  0  0  0  0  0
  2  3  1  0
  2  1  1  1
  4  3  1  0
  4  5  2  0
  6  5  1  0
  7  6  2  0
  8  9  2  0
  8  7  1  0
  9  4  1  0
 10  2  1  0
 11 10  2  0
 13 12  1  0
 13 14  1  0
 16 15  1  6
 15 14  1  0
 16 17  1  0
 17 10  1  0
 18 25  1  0
 18 16  1  0
 19 18  2  0
 21 20  1  6
 21 23  1  0
 21 22  1  0
 24 23  1  1
 24 26  1  0
 24 25  1  0
 26 27  1  0
 28 26  2  0
M  END
$$$$
