FML.pdb
     RDKit          3D

 28 28  0  0  1  0  0  0  0  0999 V2000
   28.0210  -20.4999  -14.6140 N   0  0  0  0  0  0  0  0  0  0  0  0
   27.2549  -19.7190  -13.6447 C   0  0  1  0  0  0  0  0  0  0  0  0
   26.2266  -18.9072  -14.3562 C   0  0  0  0  0  0  0  0  0  0  0  0
   26.7587  -17.8811  -15.2494 C   0  0  0  0  0  0  0  0  0  0  0  0
   26.7318  -18.0863  -16.6319 C   0  0  0  0  0  0  0  0  0  0  0  0
   27.2244  -17.1059  -17.4640 C   0  0  0  0  0  0  0  0  0  0  0  0
   27.7404  -15.9295  -16.9255 C   0  0  0  0  0  0  0  0  0  0  0  0
   27.7726  -15.7141  -15.5570 C   0  0  0  0  0  0  0  0  0  0  0  0
   27.2745  -16.7079  -14.7398 C   0  0  0  0  0  0  0  0  0  0  0  0
   26.6033  -20.6194  -12.6761 C   0  0  0  0  0  0  0  0  0  0  0  0
   26.5135  -21.8377  -12.9357 O   0  0  0  0  0  0  0  0  0  0  0  0
   26.2054  -19.6179   -6.2775 C   0  0  0  0  0  0  0  0  0  0  0  0
   27.7115  -20.0609   -7.1522 S   0  0  0  0  0  0  0  0  0  0  0  0
   27.3691  -20.7532   -8.7896 C   0  0  0  0  0  0  0  0  0  0  0  0
   25.9535  -20.5609   -9.1282 C   0  0  0  0  0  0  0  0  0  0  0  0
   25.4297  -20.9597  -10.4473 C   0  0  2  0  0  0  0  0  0  0  0  0
   26.0918  -20.0995  -11.4748 N   0  0  0  0  0  0  0  0  0  0  0  0
   24.0168  -20.8973  -10.7312 C   0  0  0  0  0  0  0  0  0  0  0  0
   23.1209  -21.3018   -9.8947 O   0  0  0  0  0  0  0  0  0  0  0  0
   19.9536  -18.9900  -14.6623 C   0  0  0  0  0  0  0  0  0  0  0  0
   20.5372  -18.6004  -13.3642 C   0  0  1  0  0  0  0  0  0  0  0  0
   19.5117  -19.0428  -12.2883 C   0  0  0  0  0  0  0  0  0  0  0  0
   21.8496  -19.0679  -12.9663 C   0  0  0  0  0  0  0  0  0  0  0  0
   22.0202  -20.3218  -12.1585 C   0  0  2  0  0  0  0  0  0  0  0  0
   23.4878  -20.3813  -11.9328 N   0  0  0  0  0  0  0  0  0  0  0  0
   21.6319  -21.5637  -12.7799 C   0  0  0  0  0  0  0  0  0  0  0  0
   20.3844  -22.1150  -12.5280 O   0  0  0  0  0  0  0  0  0  0  0  0
   22.3736  -22.1906  -13.5480 O   0  0  0  0  0  0  0  0  0  0  0  0
  2  3  1  0
  2  1  1  6
  4  3  1  0
  4  5  2  0
  6  5  1  0
  7  6  2  0
  8  9  2  0
  8  7  1  0
  9  4  1  0
 10  2  1  0
 11 10  2  0
 13 12  1  0
 13 14  1  0
 16 15  1  1
 15 14  1  0
 16 17  1  0
 17 10  1  0
 18 25  1  0
 18 16  1  0
 19 18  2  0
 21 20  1  6
 21 23  1  0
 21 22  1  0
 24 23  1  6
 24 26  1  0
 24 25  1  0
 26 27  1  0
 28 26  2  0
M  END
$$$$
