FML.pdb
     RDKit          3D

 28 28  0  0  1  0  0  0  0  0999 V2000
   28.1991  -21.1202  -15.4251 N   0  0  0  0  0  0  0  0  0  0  0  0
   27.5993  -20.1756  -14.4848 C   0  0  1  0  0  0  0  0  0  0  0  0
   26.7313  -19.2153  -15.2245 C   0  0  0  0  0  0  0  0  0  0  0  0
   27.4437  -18.2785  -16.0897 C   0  0  0  0  0  0  0  0  0  0  0  0
   27.6694  -18.6090  -17.4291 C   0  0  0  0  0  0  0  0  0  0  0  0
   28.3306  -17.7118  -18.2379 C   0  0  0  0  0  0  0  0  0  0  0  0
   28.7646  -16.4943  -17.7188 C   0  0  0  0  0  0  0  0  0  0  0  0
   28.5470  -16.1549  -16.3929 C   0  0  0  0  0  0  0  0  0  0  0  0
   27.8829  -17.0668  -15.5987 C   0  0  0  0  0  0  0  0  0  0  0  0
   26.8023  -20.9034  -13.4805 C   0  0  0  0  0  0  0  0  0  0  0  0
   26.2465  -21.9756  -13.7984 O   0  0  0  0  0  0  0  0  0  0  0  0
   27.8651  -20.6111   -7.2448 C   0  0  0  0  0  0  0  0  0  0  0  0
   26.1103  -20.2283   -7.1798 S   0  0  0  0  0  0  0  0  0  0  0  0
   25.2467  -20.7358   -8.6879 C   0  0  0  0  0  0  0  0  0  0  0  0
   26.1042  -20.5055   -9.8573 C   0  0  0  0  0  0  0  0  0  0  0  0
   25.6630  -20.8970  -11.2084 C   0  0  2  0  0  0  0  0  0  0  0  0
   26.6766  -20.3852  -12.1802 N   0  0  0  0  0  0  0  0  0  0  0  0
   24.3805  -20.4768  -11.7178 C   0  0  0  0  0  0  0  0  0  0  0  0
   24.1902  -19.3171  -12.2515 O   0  0  0  0  0  0  0  0  0  0  0  0
   20.8133  -21.7844  -15.8892 C   0  0  0  0  0  0  0  0  0  0  0  0
   20.8150  -21.1968  -14.5357 C   0  0  1  0  0  0  0  0  0  0  0  0
   19.5429  -21.7412  -13.8354 C   0  0  0  0  0  0  0  0  0  0  0  0
   21.9427  -21.3801  -13.6446 C   0  0  0  0  0  0  0  0  0  0  0  0
   21.9405  -20.8121  -12.2549 C   0  0  2  0  0  0  0  0  0  0  0  0
   23.2293  -21.2916  -11.6917 N   0  0  0  0  0  0  0  0  0  0  0  0
   20.8944  -21.2520  -11.3652 C   0  0  0  0  0  0  0  0  0  0  0  0
   19.8105  -20.4299  -11.0951 O   0  0  0  0  0  0  0  0  0  0  0  0
   20.9095  -22.3564  -10.8057 O   0  0  0  0  0  0  0  0  0  0  0  0
  2  3  1  0
  2  1  1  6
  4  3  1  0
  4  5  2  0
  6  5  1  0
  7  6  2  0
  8  9  2  0
  8  7  1  0
  9  4  1  0
 10  2  1  0
 11 10  2  0
 13 12  1  0
 13 14  1  0
 16 15  1  1
 15 14  1  0
 16 17  1  0
 17 10  1  0
 18 25  1  0
 18 16  1  0
 19 18  2  0
 21 20  1  6
 21 23  1  0
 21 22  1  0
 24 23  1  6
 24 26  1  0
 24 25  1  0
 26 27  1  0
 28 26  2  0
M  END
$$$$
