FML.pdb
     RDKit          3D

 28 28  0  0  1  0  0  0  0  0999 V2000
   14.5308  -12.7062    5.6431 N   0  0  0  0  0  0  0  0  0  0  0  0
   15.9490  -13.0491    5.5577 C   0  0  1  0  0  0  0  0  0  0  0  0
   16.7317  -12.1761    6.4785 C   0  0  0  0  0  0  0  0  0  0  0  0
   18.1717  -12.4212    6.4873 C   0  0  0  0  0  0  0  0  0  0  0  0
   18.7213  -13.2788    7.4446 C   0  0  0  0  0  0  0  0  0  0  0  0
   20.0784  -13.5120    7.4343 C   0  0  0  0  0  0  0  0  0  0  0  0
   20.8838  -12.8969    6.4788 C   0  0  0  0  0  0  0  0  0  0  0  0
   20.3512  -12.0448    5.5245 C   0  0  0  0  0  0  0  0  0  0  0  0
   18.9896  -11.8238    5.5511 C   0  0  0  0  0  0  0  0  0  0  0  0
   16.1466  -14.4650    5.9177 C   0  0  0  0  0  0  0  0  0  0  0  0
   15.5828  -14.9240    6.9332 O   0  0  0  0  0  0  0  0  0  0  0  0
   17.3034  -20.1835    2.1240 C   0  0  0  0  0  0  0  0  0  0  0  0
   17.2115  -18.4550    1.6408 S   0  0  0  0  0  0  0  0  0  0  0  0
   17.7569  -17.3480    2.9654 C   0  0  0  0  0  0  0  0  0  0  0  0
   16.8452  -17.4519    4.1116 C   0  0  0  0  0  0  0  0  0  0  0  0
   17.1310  -16.7442    5.3729 C   0  0  2  0  0  0  0  0  0  0  0  0
   16.9642  -15.2811    5.1173 N   0  0  0  0  0  0  0  0  0  0  0  0
   18.4083  -16.8874    6.0277 C   0  0  0  0  0  0  0  0  0  0  0  0
   19.4669  -16.2644    5.6309 O   0  0  0  0  0  0  0  0  0  0  0  0
   21.8061  -15.3148    9.8448 C   0  0  0  0  0  0  0  0  0  0  0  0
   21.3161  -16.0039    8.6355 C   0  0  1  0  0  0  0  0  0  0  0  0
   22.5336  -16.7764    8.0648 C   0  0  0  0  0  0  0  0  0  0  0  0
   20.1873  -16.9100    8.6995 C   0  0  0  0  0  0  0  0  0  0  0  0
   19.9842  -17.9788    7.6648 C   0  0  2  0  0  0  0  0  0  0  0  0
   18.6141  -17.7039    7.1595 N   0  0  0  0  0  0  0  0  0  0  0  0
   20.0066  -19.3475    8.1184 C   0  0  0  0  0  0  0  0  0  0  0  0
   21.1563  -20.1120    7.9870 O   0  0  0  0  0  0  0  0  0  0  0  0
   19.0250  -19.9006    8.6317 O   0  0  0  0  0  0  0  0  0  0  0  0
  2  3  1  0
  2  1  1  1
  4  3  1  0
  4  5  2  0
  6  5  1  0
  7  6  2  0
  8  9  2  0
  8  7  1  0
  9  4  1  0
 10  2  1  0
 11 10  2  0
 13 12  1  0
 13 14  1  0
 16 15  1  6
 15 14  1  0
 16 17  1  0
 17 10  1  0
 18 25  1  0
 18 16  1  0
 19 18  2  0
 21 20  1  1
 21 23  1  0
 21 22  1  0
 24 23  1  1
 24 26  1  0
 24 25  1  0
 26 27  1  0
 28 26  2  0
M  END
$$$$
