FML.pdb
     RDKit          3D

 28 28  0  0  1  0  0  0  0  0999 V2000
   22.9417  -12.5404  -17.6816 N   0  0  0  0  0  0  0  0  0  0  0  0
   23.0298  -11.9984  -16.3271 C   0  0  1  0  0  0  0  0  0  0  0  0
   24.4461  -11.6499  -16.0182 C   0  0  0  0  0  0  0  0  0  0  0  0
   25.3632  -12.7854  -15.9602 C   0  0  0  0  0  0  0  0  0  0  0  0
   26.3721  -12.9091  -16.9199 C   0  0  0  0  0  0  0  0  0  0  0  0
   27.2385  -13.9769  -16.8467 C   0  0  0  0  0  0  0  0  0  0  0  0
   27.1030  -14.9154  -15.8265 C   0  0  0  0  0  0  0  0  0  0  0  0
   26.1073  -14.8040  -14.8692 C   0  0  0  0  0  0  0  0  0  0  0  0
   25.2491  -13.7274  -14.9593 C   0  0  0  0  0  0  0  0  0  0  0  0
   22.1796  -10.7997  -16.2089 C   0  0  0  0  0  0  0  0  0  0  0  0
   21.8806  -10.1562  -17.2365 O   0  0  0  0  0  0  0  0  0  0  0  0
   18.3741  -10.0904  -10.7642 C   0  0  0  0  0  0  0  0  0  0  0  0
   17.5413   -9.5514  -12.2628 S   0  0  0  0  0  0  0  0  0  0  0  0
   18.6730   -8.7294  -13.4123 C   0  0  0  0  0  0  0  0  0  0  0  0
   19.7194   -9.6661  -13.8402 C   0  0  0  0  0  0  0  0  0  0  0  0
   20.7843   -9.2399  -14.7664 C   0  0  2  0  0  0  0  0  0  0  0  0
   21.7158  -10.3950  -14.9454 N   0  0  0  0  0  0  0  0  0  0  0  0
   21.6188   -8.1037  -14.4606 C   0  0  0  0  0  0  0  0  0  0  0  0
   22.7758   -8.2212  -13.9007 O   0  0  0  0  0  0  0  0  0  0  0  0
   25.1777   -5.2960  -17.2346 C   0  0  0  0  0  0  0  0  0  0  0  0
   24.2699   -5.0311  -16.1019 C   0  0  1  0  0  0  0  0  0  0  0  0
   23.7102   -3.6033  -16.3319 C   0  0  0  0  0  0  0  0  0  0  0  0
   23.1607   -5.9172  -15.8123 C   0  0  0  0  0  0  0  0  0  0  0  0
   22.2468   -5.6695  -14.6472 C   0  0  2  0  0  0  0  0  0  0  0  0
   21.2566   -6.7723  -14.7540 N   0  0  0  0  0  0  0  0  0  0  0  0
   21.5088   -4.4306  -14.6407 C   0  0  0  0  0  0  0  0  0  0  0  0
   21.9699   -3.3425  -13.9147 O   0  0  0  0  0  0  0  0  0  0  0  0
   20.4493   -4.2772  -15.2626 O   0  0  0  0  0  0  0  0  0  0  0  0
  2  3  1  0
  2  1  1  6
  4  3  1  0
  4  5  2  0
  6  5  1  0
  7  6  2  0
  8  9  2  0
  8  7  1  0
  9  4  1  0
 10  2  1  0
 11 10  2  0
 13 12  1  0
 13 14  1  0
 16 15  1  1
 15 14  1  0
 16 17  1  0
 17 10  1  0
 18 25  1  0
 18 16  1  0
 19 18  2  0
 21 20  1  6
 21 23  1  0
 21 22  1  0
 24 23  1  6
 24 26  1  0
 24 25  1  0
 26 27  1  0
 28 26  2  0
M  END
$$$$
