FML.pdb
     RDKit          3D

 28 28  0  0  1  0  0  0  0  0999 V2000
   26.5854  -18.3453   -8.1495 N   0  0  0  0  0  0  0  0  0  0  0  0
   26.9621  -19.6296   -8.7368 C   0  0  1  0  0  0  0  0  0  0  0  0
   26.9244  -20.6898   -7.6893 C   0  0  0  0  0  0  0  0  0  0  0  0
   27.8135  -20.4664   -6.5519 C   0  0  0  0  0  0  0  0  0  0  0  0
   27.3232  -19.8365   -5.4044 C   0  0  0  0  0  0  0  0  0  0  0  0
   28.1676  -19.6435   -4.3339 C   0  0  0  0  0  0  0  0  0  0  0  0
   29.4906  -20.0738   -4.4037 C   0  0  0  0  0  0  0  0  0  0  0  0
   29.9886  -20.6994   -5.5354 C   0  0  0  0  0  0  0  0  0  0  0  0
   29.1272  -20.8838   -6.5973 C   0  0  0  0  0  0  0  0  0  0  0  0
   26.0371  -19.9721   -9.8326 C   0  0  0  0  0  0  0  0  0  0  0  0
   24.8912  -19.4756   -9.8455 O   0  0  0  0  0  0  0  0  0  0  0  0
   29.4612  -21.4710  -16.7435 C   0  0  0  0  0  0  0  0  0  0  0  0
   29.1099  -21.7930  -15.0106 S   0  0  0  0  0  0  0  0  0  0  0  0
   27.5879  -20.9804  -14.4623 C   0  0  0  0  0  0  0  0  0  0  0  0
   27.4934  -21.0302  -12.9980 C   0  0  0  0  0  0  0  0  0  0  0  0
   26.2962  -20.5287  -12.2991 C   0  0  2  0  0  0  0  0  0  0  0  0
   26.4528  -20.8504  -10.8479 N   0  0  0  0  0  0  0  0  0  0  0  0
   24.9792  -20.9892  -12.6656 C   0  0  0  0  0  0  0  0  0  0  0  0
   24.5636  -21.0064  -13.8876 O   0  0  0  0  0  0  0  0  0  0  0  0
   19.6923  -22.8269  -11.1813 C   0  0  0  0  0  0  0  0  0  0  0  0
   20.4142  -21.5825  -10.8529 C   0  0  1  0  0  0  0  0  0  0  0  0
   19.9267  -21.1695   -9.4399 C   0  0  0  0  0  0  0  0  0  0  0  0
   21.8622  -21.5337  -10.8706 C   0  0  0  0  0  0  0  0  0  0  0  0
   22.6356  -21.7536  -12.1385 C   0  0  2  0  0  0  0  0  0  0  0  0
   24.0369  -21.4708  -11.7329 N   0  0  0  0  0  0  0  0  0  0  0  0
   22.3307  -20.8920  -13.2539 C   0  0  0  0  0  0  0  0  0  0  0  0
   21.6789  -21.3934  -14.3708 O   0  0  0  0  0  0  0  0  0  0  0  0
   22.6305  -19.6910  -13.2759 O   0  0  0  0  0  0  0  0  0  0  0  0
  2  3  1  0
  2  1  1  1
  4  3  1  0
  4  5  2  0
  6  5  1  0
  7  6  2  0
  8  9  2  0
  8  7  1  0
  9  4  1  0
 10  2  1  0
 11 10  2  0
 13 12  1  0
 13 14  1  0
 16 15  1  6
 15 14  1  0
 16 17  1  0
 17 10  1  0
 18 25  1  0
 18 16  1  0
 19 18  2  0
 21 20  1  1
 21 23  1  0
 21 22  1  0
 24 23  1  1
 24 26  1  0
 24 25  1  0
 26 27  1  0
 28 26  2  0
M  END
$$$$
