FML.pdb
     RDKit          3D

 28 28  0  0  1  0  0  0  0  0999 V2000
   24.2817  -22.1620  -10.5644 N   0  0  0  0  0  0  0  0  0  0  0  0
   24.2652  -20.7902  -11.0686 C   0  0  1  0  0  0  0  0  0  0  0  0
   22.8820  -20.2409  -10.9810 C   0  0  0  0  0  0  0  0  0  0  0  0
   21.8778  -20.9697  -11.7520 C   0  0  0  0  0  0  0  0  0  0  0  0
   20.8207  -21.6000  -11.0892 C   0  0  0  0  0  0  0  0  0  0  0  0
   19.8732  -22.2728  -11.8281 C   0  0  0  0  0  0  0  0  0  0  0  0
   19.9759  -22.3186  -13.2165 C   0  0  0  0  0  0  0  0  0  0  0  0
   21.0189  -21.6978  -13.8852 C   0  0  0  0  0  0  0  0  0  0  0  0
   21.9581  -21.0289  -13.1275 C   0  0  0  0  0  0  0  0  0  0  0  0
   25.1894  -19.9539  -10.2811 C   0  0  0  0  0  0  0  0  0  0  0  0
   25.1457  -18.7116  -10.4010 O   0  0  0  0  0  0  0  0  0  0  0  0
   28.7682  -21.4080   -4.7478 C   0  0  0  0  0  0  0  0  0  0  0  0
   27.4898  -20.1600   -4.5532 S   0  0  0  0  0  0  0  0  0  0  0  0
   27.1964  -19.2416   -6.0856 C   0  0  0  0  0  0  0  0  0  0  0  0
   26.9015  -20.1750   -7.1799 C   0  0  0  0  0  0  0  0  0  0  0  0
   27.0754  -19.7712   -8.5870 C   0  0  2  0  0  0  0  0  0  0  0  0
   26.1067  -20.5611   -9.4064 N   0  0  0  0  0  0  0  0  0  0  0  0
   28.3525  -19.9097   -9.2433 C   0  0  0  0  0  0  0  0  0  0  0  0
   29.4667  -19.9577   -8.5934 O   0  0  0  0  0  0  0  0  0  0  0  0
   32.0382  -21.0381   -9.1191 C   0  0  0  0  0  0  0  0  0  0  0  0
   31.2195  -22.1136   -9.7110 C   0  0  1  0  0  0  0  0  0  0  0  0
   31.1641  -23.2394   -8.6459 C   0  0  0  0  0  0  0  0  0  0  0  0
   29.8715  -21.8550  -10.1751 C   0  0  0  0  0  0  0  0  0  0  0  0
   29.5940  -20.8289  -11.2354 C   0  0  2  0  0  0  0  0  0  0  0  0
   28.4996  -20.0174  -10.6421 N   0  0  0  0  0  0  0  0  0  0  0  0
   29.1264  -21.3103  -12.5117 C   0  0  0  0  0  0  0  0  0  0  0  0
   27.7709  -21.4985  -12.7373 O   0  0  0  0  0  0  0  0  0  0  0  0
   29.8900  -21.5788  -13.4485 O   0  0  0  0  0  0  0  0  0  0  0  0
  2  3  1  0
  2  1  1  1
  4  3  1  0
  4  5  2  0
  6  5  1  0
  7  6  2  0
  8  9  2  0
  8  7  1  0
  9  4  1  0
 10  2  1  0
 11 10  2  0
 13 12  1  0
 13 14  1  0
 16 15  1  1
 15 14  1  0
 16 17  1  0
 17 10  1  0
 18 25  1  0
 18 16  1  0
 19 18  2  0
 21 20  1  1
 21 23  1  0
 21 22  1  0
 24 23  1  1
 24 26  1  0
 24 25  1  0
 26 27  1  0
 28 26  2  0
M  END
$$$$
