FML.pdb
     RDKit          3D

 28 28  0  0  1  0  0  0  0  0999 V2000
   14.0930  -13.6139    5.7622 N   0  0  0  0  0  0  0  0  0  0  0  0
   15.5396  -13.8167    5.8141 C   0  0  1  0  0  0  0  0  0  0  0  0
   16.1964  -12.5994    6.3703 C   0  0  0  0  0  0  0  0  0  0  0  0
   17.6544  -12.5888    6.2817 C   0  0  0  0  0  0  0  0  0  0  0  0
   18.4093  -12.1198    7.3607 C   0  0  0  0  0  0  0  0  0  0  0  0
   19.7834  -12.1271    7.2700 C   0  0  0  0  0  0  0  0  0  0  0  0
   20.4028  -12.5975    6.1146 C   0  0  0  0  0  0  0  0  0  0  0  0
   19.6658  -13.0651    5.0382 C   0  0  0  0  0  0  0  0  0  0  0  0
   18.2905  -13.0498    5.1482 C   0  0  0  0  0  0  0  0  0  0  0  0
   15.8535  -14.9864    6.6549 C   0  0  0  0  0  0  0  0  0  0  0  0
   15.4031  -15.0439    7.8183 O   0  0  0  0  0  0  0  0  0  0  0  0
   14.2358  -20.6319    5.4128 C   0  0  0  0  0  0  0  0  0  0  0  0
   15.8642  -20.9890    6.0839 S   0  0  0  0  0  0  0  0  0  0  0  0
   16.4733  -19.6511    7.1406 C   0  0  0  0  0  0  0  0  0  0  0  0
   16.5554  -18.4034    6.3711 C   0  0  0  0  0  0  0  0  0  0  0  0
   17.1040  -17.1758    6.9756 C   0  0  2  0  0  0  0  0  0  0  0  0
   16.6534  -16.0211    6.1405 N   0  0  0  0  0  0  0  0  0  0  0  0
   18.5265  -17.0081    7.1463 C   0  0  0  0  0  0  0  0  0  0  0  0
   19.2768  -16.4715    6.2434 O   0  0  0  0  0  0  0  0  0  0  0  0
   22.8435  -15.3605   10.2798 C   0  0  0  0  0  0  0  0  0  0  0  0
   22.2382  -15.2957    8.9356 C   0  0  1  0  0  0  0  0  0  0  0  0
   23.2379  -16.0051    7.9857 C   0  0  0  0  0  0  0  0  0  0  0  0
   20.9137  -15.8282    8.6878 C   0  0  0  0  0  0  0  0  0  0  0  0
   20.7002  -17.2847    8.3926 C   0  0  2  0  0  0  0  0  0  0  0  0
   19.2210  -17.3995    8.3101 N   0  0  0  0  0  0  0  0  0  0  0  0
   21.1483  -18.2305    9.3847 C   0  0  0  0  0  0  0  0  0  0  0  0
   22.3555  -18.8949    9.2267 O   0  0  0  0  0  0  0  0  0  0  0  0
   20.4945  -18.4966   10.4018 O   0  0  0  0  0  0  0  0  0  0  0  0
  2  3  1  0
  2  1  1  1
  4  3  1  0
  4  5  2  0
  6  5  1  0
  7  6  2  0
  8  9  2  0
  8  7  1  0
  9  4  1  0
 10  2  1  0
 11 10  2  0
 13 12  1  0
 13 14  1  0
 16 15  1  6
 15 14  1  0
 16 17  1  0
 17 10  1  0
 18 25  1  0
 18 16  1  0
 19 18  2  0
 21 20  1  1
 21 23  1  0
 21 22  1  0
 24 23  1  1
 24 26  1  0
 24 25  1  0
 26 27  1  0
 28 26  2  0
M  END
$$$$
