FML.pdb
     RDKit          3D

 28 28  0  0  1  0  0  0  0  0999 V2000
   22.8061  -18.7474  -16.1082 N   0  0  0  0  0  0  0  0  0  0  0  0
   23.8347  -19.4471  -15.3409 C   0  0  1  0  0  0  0  0  0  0  0  0
   25.1845  -19.0443  -15.8290 C   0  0  0  0  0  0  0  0  0  0  0  0
   25.5017  -19.4695  -17.1901 C   0  0  0  0  0  0  0  0  0  0  0  0
   25.7677  -20.8171  -17.4492 C   0  0  0  0  0  0  0  0  0  0  0  0
   26.0526  -21.2075  -18.7387 C   0  0  0  0  0  0  0  0  0  0  0  0
   26.0728  -20.2645  -19.7637 C   0  0  0  0  0  0  0  0  0  0  0  0
   25.8109  -18.9258  -19.5198 C   0  0  0  0  0  0  0  0  0  0  0  0
   25.5276  -18.5543  -18.2216 C   0  0  0  0  0  0  0  0  0  0  0  0
   23.7005  -19.1240  -13.9087 C   0  0  0  0  0  0  0  0  0  0  0  0
   23.4673  -17.9462  -13.5650 O   0  0  0  0  0  0  0  0  0  0  0  0
   19.6222  -21.8389  -11.2648 C   0  0  0  0  0  0  0  0  0  0  0  0
   20.2307  -21.3387   -9.6495 S   0  0  0  0  0  0  0  0  0  0  0  0
   21.8061  -20.4536   -9.7598 C   0  0  0  0  0  0  0  0  0  0  0  0
   22.2965  -20.4751  -11.1435 C   0  0  0  0  0  0  0  0  0  0  0  0
   23.6095  -19.9012  -11.4904 C   0  0  2  0  0  0  0  0  0  0  0  0
   23.8359  -20.1410  -12.9482 N   0  0  0  0  0  0  0  0  0  0  0  0
   24.8097  -20.3469  -10.8260 C   0  0  0  0  0  0  0  0  0  0  0  0
   25.4266  -21.4312  -11.1579 O   0  0  0  0  0  0  0  0  0  0  0  0
   28.8312  -20.3265   -6.7638 C   0  0  0  0  0  0  0  0  0  0  0  0
   27.6257  -19.4755   -6.7688 C   0  0  1  0  0  0  0  0  0  0  0  0
   28.0687  -18.1091   -6.1845 C   0  0  0  0  0  0  0  0  0  0  0  0
   26.8890  -19.2335   -7.9928 C   0  0  0  0  0  0  0  0  0  0  0  0
   26.2041  -20.3503   -8.7259 C   0  0  2  0  0  0  0  0  0  0  0  0
   25.4219  -19.6393   -9.7704 N   0  0  0  0  0  0  0  0  0  0  0  0
   25.2775  -21.1607   -7.9747 C   0  0  0  0  0  0  0  0  0  0  0  0
   24.0299  -20.6631   -7.6290 O   0  0  0  0  0  0  0  0  0  0  0  0
   25.5408  -22.3121   -7.6037 O   0  0  0  0  0  0  0  0  0  0  0  0
  2  3  1  0
  2  1  1  6
  4  3  1  0
  4  5  2  0
  6  5  1  0
  7  6  2  0
  8  9  2  0
  8  7  1  0
  9  4  1  0
 10  2  1  0
 11 10  2  0
 13 12  1  0
 13 14  1  0
 16 15  1  1
 15 14  1  0
 16 17  1  0
 17 10  1  0
 18 25  1  0
 18 16  1  0
 19 18  2  0
 21 20  1  6
 21 23  1  0
 21 22  1  0
 24 23  1  1
 24 26  1  0
 24 25  1  0
 26 27  1  0
 28 26  2  0
M  END
$$$$
