FML.pdb
     RDKit          3D

 28 28  0  0  1  0  0  0  0  0999 V2000
   28.6222  -21.3075  -13.5393 N   0  0  0  0  0  0  0  0  0  0  0  0
   27.9455  -20.2683  -12.7657 C   0  0  1  0  0  0  0  0  0  0  0  0
   26.9163  -19.6025  -13.6142 C   0  0  0  0  0  0  0  0  0  0  0  0
   27.4467  -18.7284  -14.6574 C   0  0  0  0  0  0  0  0  0  0  0  0
   27.7889  -17.4092  -14.3463 C   0  0  0  0  0  0  0  0  0  0  0  0
   28.3002  -16.5990  -15.3354 C   0  0  0  0  0  0  0  0  0  0  0  0
   28.4702  -17.0968  -16.6252 C   0  0  0  0  0  0  0  0  0  0  0  0
   28.1349  -18.4025  -16.9463 C   0  0  0  0  0  0  0  0  0  0  0  0
   27.6242  -19.1986  -15.9418 C   0  0  0  0  0  0  0  0  0  0  0  0
   27.3092  -20.8616  -11.5754 C   0  0  0  0  0  0  0  0  0  0  0  0
   26.7587  -21.9788  -11.6670 O   0  0  0  0  0  0  0  0  0  0  0  0
   28.2785  -20.9621   -4.4202 C   0  0  0  0  0  0  0  0  0  0  0  0
   27.5468  -19.6126   -5.3548 S   0  0  0  0  0  0  0  0  0  0  0  0
   26.4499  -20.2089   -6.6658 C   0  0  0  0  0  0  0  0  0  0  0  0
   27.1081  -20.0700   -7.9708 C   0  0  0  0  0  0  0  0  0  0  0  0
   26.4528  -20.5440   -9.2035 C   0  0  2  0  0  0  0  0  0  0  0  0
   27.3287  -20.1664  -10.3542 N   0  0  0  0  0  0  0  0  0  0  0  0
   25.1265  -20.0979   -9.5539 C   0  0  0  0  0  0  0  0  0  0  0  0
   24.8984  -18.9426  -10.0825 O   0  0  0  0  0  0  0  0  0  0  0  0
   22.0273  -21.1983  -13.8203 C   0  0  0  0  0  0  0  0  0  0  0  0
   21.7936  -20.8947  -12.3953 C   0  0  1  0  0  0  0  0  0  0  0  0
   20.6681  -21.8574  -11.9356 C   0  0  0  0  0  0  0  0  0  0  0  0
   22.8741  -20.9596  -11.4322 C   0  0  0  0  0  0  0  0  0  0  0  0
   22.6824  -20.5116  -10.0121 C   0  0  2  0  0  0  0  0  0  0  0  0
   23.9682  -20.8805   -9.3649 N   0  0  0  0  0  0  0  0  0  0  0  0
   21.6274  -21.1433   -9.2589 C   0  0  0  0  0  0  0  0  0  0  0  0
   21.8730  -22.3083   -8.5475 O   0  0  0  0  0  0  0  0  0  0  0  0
   20.4747  -20.6939   -9.2117 O   0  0  0  0  0  0  0  0  0  0  0  0
  2  3  1  0
  2  1  1  6
  4  3  1  0
  4  5  2  0
  6  5  1  0
  7  6  2  0
  8  9  2  0
  8  7  1  0
  9  4  1  0
 10  2  1  0
 11 10  2  0
 13 12  1  0
 13 14  1  0
 16 15  1  1
 15 14  1  0
 16 17  1  0
 17 10  1  0
 18 25  1  0
 18 16  1  0
 19 18  2  0
 21 20  1  6
 21 23  1  0
 21 22  1  0
 24 23  1  6
 24 26  1  0
 24 25  1  0
 26 27  1  0
 28 26  2  0
M  END
$$$$
