FML.pdb
     RDKit          3D

 28 28  0  0  1  0  0  0  0  0999 V2000
   26.1382  -17.8997  -13.8607 N   0  0  0  0  0  0  0  0  0  0  0  0
   26.7107  -19.1667  -14.3115 C   0  0  1  0  0  0  0  0  0  0  0  0
   28.0715  -18.9300  -14.8726 C   0  0  0  0  0  0  0  0  0  0  0  0
   28.1097  -18.0913  -16.0680 C   0  0  0  0  0  0  0  0  0  0  0  0
   29.3258  -17.8753  -16.7226 C   0  0  0  0  0  0  0  0  0  0  0  0
   29.3466  -17.0935  -17.8560 C   0  0  0  0  0  0  0  0  0  0  0  0
   28.1664  -16.5301  -18.3355 C   0  0  0  0  0  0  0  0  0  0  0  0
   26.9546  -16.7367  -17.6958 C   0  0  0  0  0  0  0  0  0  0  0  0
   26.9542  -17.5229  -16.5620 C   0  0  0  0  0  0  0  0  0  0  0  0
   26.7893  -20.1127  -13.1834 C   0  0  0  0  0  0  0  0  0  0  0  0
   27.3036  -21.2368  -13.3605 O   0  0  0  0  0  0  0  0  0  0  0  0
   27.9429  -19.2378   -7.3629 C   0  0  0  0  0  0  0  0  0  0  0  0
   26.6488  -20.4143   -6.9492 S   0  0  0  0  0  0  0  0  0  0  0  0
   25.9017  -21.1509   -8.4245 C   0  0  0  0  0  0  0  0  0  0  0  0
   26.2494  -20.3584   -9.6105 C   0  0  0  0  0  0  0  0  0  0  0  0
   25.7573  -20.7398  -10.9469 C   0  0  2  0  0  0  0  0  0  0  0  0
   26.2865  -19.7410  -11.9248 N   0  0  0  0  0  0  0  0  0  0  0  0
   24.3431  -20.8413  -11.2126 C   0  0  0  0  0  0  0  0  0  0  0  0
   23.5267  -21.4420  -10.4133 O   0  0  0  0  0  0  0  0  0  0  0  0
   19.6331  -18.4525  -12.0569 C   0  0  0  0  0  0  0  0  0  0  0  0
   20.4949  -18.6552  -13.2374 C   0  0  1  0  0  0  0  0  0  0  0  0
   20.4439  -17.3251  -14.0332 C   0  0  0  0  0  0  0  0  0  0  0  0
   21.8817  -19.0480  -13.0896 C   0  0  0  0  0  0  0  0  0  0  0  0
   22.2578  -20.4011  -12.5588 C   0  0  2  0  0  0  0  0  0  0  0  0
   23.7251  -20.2876  -12.3534 N   0  0  0  0  0  0  0  0  0  0  0  0
   22.0328  -21.5335  -13.4227 C   0  0  0  0  0  0  0  0  0  0  0  0
   20.9273  -22.3502  -13.2363 O   0  0  0  0  0  0  0  0  0  0  0  0
   22.7967  -21.8325  -14.3500 O   0  0  0  0  0  0  0  0  0  0  0  0
  2  3  1  0
  2  1  1  1
  4  3  1  0
  4  5  2  0
  6  5  1  0
  7  6  2  0
  8  9  2  0
  8  7  1  0
  9  4  1  0
 10  2  1  0
 11 10  2  0
 13 12  1  0
 13 14  1  0
 16 15  1  1
 15 14  1  0
 16 17  1  0
 17 10  1  0
 18 25  1  0
 18 16  1  0
 19 18  2  0
 21 20  1  1
 21 23  1  0
 21 22  1  0
 24 23  1  6
 24 26  1  0
 24 25  1  0
 26 27  1  0
 28 26  2  0
M  END
$$$$
