PES.pdb
     RDKit          3D

 23 23  0  0  1  0  0  0  0  0999 V2000
    7.6727  -15.1055   19.1476 N   0  0  0  0  0  0  0  0  0  0  0  0
    7.1140  -14.1480   18.2389 C   0  0  0  0  0  0  0  0  0  0  0  0
    7.7226  -12.8092   18.5566 C   0  0  0  0  0  0  0  0  0  0  0  0
    8.1710  -12.9648   19.9756 C   0  0  0  0  0  0  0  0  0  0  0  0
    8.5044  -14.4269   20.0889 C   0  0  1  0  0  0  0  0  0  0  0  0
    8.1727  -14.9154   21.4552 C   0  0  0  0  0  0  0  0  0  0  0  0
    6.9856  -14.9170   21.8675 O   0  0  0  0  0  0  0  0  0  0  0  0
    9.2040  -15.3995   22.3418 N   0  0  0  0  0  0  0  0  0  0  0  0
    8.8554  -15.7696   23.6866 C   0  0  1  0  0  0  0  0  0  0  0  0
    9.6307  -16.9435   24.1483 C   0  0  0  0  0  0  0  0  0  0  0  0
    9.4379  -17.4285   25.5275 C   0  0  0  0  0  0  0  0  0  0  0  0
   10.2150  -18.6168   25.8950 C   0  0  0  0  0  0  0  0  0  0  0  0
   10.0957  -19.1013   27.0586 O   0  0  0  0  0  0  0  0  0  0  0  0
    8.9148  -14.6153   24.6177 C   0  0  0  0  0  0  0  0  0  0  0  0
    9.9039  -13.8493   24.6087 O   0  0  0  0  0  0  0  0  0  0  0  0
   11.0874  -19.2531   25.0304 O   0  0  0  0  0  0  0  0  0  0  0  0
    5.5766  -13.2197   26.6308 O   0  0  0  0  0  0  0  0  0  0  0  0
    6.6506  -12.4213   26.2671 C   0  0  0  0  0  0  0  0  0  0  0  0
    7.9458  -13.1952   26.4015 C   0  0  2  0  0  0  0  0  0  0  0  0
    7.8746  -14.3369   25.5395 N   0  0  0  0  0  0  0  0  0  0  0  0
    8.1486  -13.6120   27.8213 C   0  0  0  0  0  0  0  0  0  0  0  0
    8.3106  -12.6745   28.8176 O   0  0  0  0  0  0  0  0  0  0  0  0
    8.1711  -14.8314   28.1064 O   0  0  0  0  0  0  0  0  0  0  0  0
  1  5  1  0
  1  2  1  0
  2  3  1  0
  4  3  1  0
  5  6  1  1
  5  4  1  0
  6  8  1  0
  6  7  2  0
  8  9  1  0
  9 14  1  0
  9 10  1  1
 11 10  1  0
 12 16  1  0
 12 11  1  0
 13 12  2  0
 14 15  2  0
 14 20  1  0
 17 18  1  0
 19 18  1  1
 19 21  1  0
 20 19  1  0
 21 22  1  0
 23 21  2  0
M  END
$$$$
