PES.pdb
     RDKit          3D

 23 23  0  0  1  0  0  0  0  0999 V2000
    9.3962  -14.2590   18.4722 N   0  0  0  0  0  0  0  0  0  0  0  0
    8.6821  -14.1062   17.2388 C   0  0  0  0  0  0  0  0  0  0  0  0
    7.4428  -13.3030   17.5263 C   0  0  0  0  0  0  0  0  0  0  0  0
    7.2306  -13.5136   18.9923 C   0  0  0  0  0  0  0  0  0  0  0  0
    8.6210  -13.7013   19.5335 C   0  0  1  0  0  0  0  0  0  0  0  0
    8.5960  -14.6697   20.6636 C   0  0  0  0  0  0  0  0  0  0  0  0
    7.8007  -14.5169   21.6245 O   0  0  0  0  0  0  0  0  0  0  0  0
    9.4832  -15.8082   20.6861 N   0  0  0  0  0  0  0  0  0  0  0  0
    9.3728  -16.7619   21.7564 C   0  0  1  0  0  0  0  0  0  0  0  0
   10.1666  -17.9819   21.4847 C   0  0  0  0  0  0  0  0  0  0  0  0
   11.5548  -17.8386   21.0082 C   0  0  0  0  0  0  0  0  0  0  0  0
   12.3223  -19.0845   20.9108 C   0  0  0  0  0  0  0  0  0  0  0  0
   11.9923  -19.9512   20.0489 O   0  0  0  0  0  0  0  0  0  0  0  0
    9.6549  -16.1526   23.0800 C   0  0  0  0  0  0  0  0  0  0  0  0
   10.5619  -15.2994   23.1999 O   0  0  0  0  0  0  0  0  0  0  0  0
   13.4064  -19.3758   21.7191 O   0  0  0  0  0  0  0  0  0  0  0  0
    7.5304  -14.3491   24.9815 O   0  0  0  0  0  0  0  0  0  0  0  0
    8.0224  -15.1580   25.9948 C   0  0  0  0  0  0  0  0  0  0  0  0
    9.2392  -15.9194   25.5111 C   0  0  2  0  0  0  0  0  0  0  0  0
    8.9238  -16.5046   24.2423 N   0  0  0  0  0  0  0  0  0  0  0  0
    9.6135  -16.9708   26.5037 C   0  0  0  0  0  0  0  0  0  0  0  0
    9.7275  -18.2910   26.1270 O   0  0  0  0  0  0  0  0  0  0  0  0
    9.8261  -16.6442   27.6940 O   0  0  0  0  0  0  0  0  0  0  0  0
  1  5  1  0
  1  2  1  0
  2  3  1  0
  4  3  1  0
  5  6  1  1
  5  4  1  0
  6  8  1  0
  6  7  2  0
  8  9  1  0
  9 14  1  0
  9 10  1  6
 11 10  1  0
 12 16  1  0
 12 11  1  0
 13 12  2  0
 14 15  2  0
 14 20  1  0
 17 18  1  0
 19 18  1  1
 19 21  1  0
 20 19  1  0
 21 22  1  0
 23 21  2  0
M  END
$$$$
