PES.pdb
     RDKit          3D

 23 23  0  0  1  0  0  0  0  0999 V2000
    9.0890  -13.6523   19.5690 N   0  0  0  0  0  0  0  0  0  0  0  0
    8.5815  -13.5290   18.2342 C   0  0  0  0  0  0  0  0  0  0  0  0
    7.0794  -13.5658   18.3125 C   0  0  0  0  0  0  0  0  0  0  0  0
    6.8212  -14.2617   19.6117 C   0  0  0  0  0  0  0  0  0  0  0  0
    8.0004  -13.8812   20.4638 C   0  0  1  0  0  0  0  0  0  0  0  0
    8.3560  -15.0104   21.3660 C   0  0  0  0  0  0  0  0  0  0  0  0
    7.4881  -15.5445   22.1014 O   0  0  0  0  0  0  0  0  0  0  0  0
    9.7051  -15.5213   21.4206 N   0  0  0  0  0  0  0  0  0  0  0  0
    9.9961  -16.6428   22.2719 C   0  0  1  0  0  0  0  0  0  0  0  0
   11.4097  -17.0669   22.1520 C   0  0  0  0  0  0  0  0  0  0  0  0
   11.8589  -18.2671   22.8817 C   0  0  0  0  0  0  0  0  0  0  0  0
   13.1806  -18.7791   22.5050 C   0  0  0  0  0  0  0  0  0  0  0  0
   14.2114  -18.3174   23.0770 O   0  0  0  0  0  0  0  0  0  0  0  0
    9.5630  -16.4095   23.6721 C   0  0  0  0  0  0  0  0  0  0  0  0
    9.8705  -15.3476   24.2578 O   0  0  0  0  0  0  0  0  0  0  0  0
   13.3731  -19.7552   21.5439 O   0  0  0  0  0  0  0  0  0  0  0  0
    6.6708  -18.6636   25.4029 O   0  0  0  0  0  0  0  0  0  0  0  0
    6.9893  -17.4289   25.9483 C   0  0  0  0  0  0  0  0  0  0  0  0
    8.4660  -17.1437   25.7686 C   0  0  2  0  0  0  0  0  0  0  0  0
    8.7979  -17.3610   24.3923 N   0  0  0  0  0  0  0  0  0  0  0  0
    9.2715  -18.0337   26.6573 C   0  0  0  0  0  0  0  0  0  0  0  0
    9.1912  -17.9246   28.0283 O   0  0  0  0  0  0  0  0  0  0  0  0
   10.0292  -18.8897   26.1458 O   0  0  0  0  0  0  0  0  0  0  0  0
  1  5  1  0
  1  2  1  0
  2  3  1  0
  4  3  1  0
  5  6  1  1
  5  4  1  0
  6  8  1  0
  6  7  2  0
  8  9  1  0
  9 14  1  0
  9 10  1  1
 11 10  1  0
 12 16  1  0
 12 11  1  0
 13 12  2  0
 14 15  2  0
 14 20  1  0
 17 18  1  0
 19 18  1  6
 19 21  1  0
 20 19  1  0
 21 22  1  0
 23 21  2  0
M  END
$$$$
