PES.pdb
     RDKit          3D

 23 23  0  0  1  0  0  0  0  0999 V2000
    8.8540  -14.7668   18.5864 N   0  0  0  0  0  0  0  0  0  0  0  0
    8.2716  -14.3417   17.3476 C   0  0  0  0  0  0  0  0  0  0  0  0
    7.8358  -12.9115   17.5160 C   0  0  0  0  0  0  0  0  0  0  0  0
    7.6853  -12.7717   18.9981 C   0  0  0  0  0  0  0  0  0  0  0  0
    8.7031  -13.7286   19.5547 C   0  0  1  0  0  0  0  0  0  0  0  0
    8.1940  -14.3276   20.8186 C   0  0  0  0  0  0  0  0  0  0  0  0
    7.8705  -13.6001   21.7909 O   0  0  0  0  0  0  0  0  0  0  0  0
    8.0587  -15.7577   20.9612 N   0  0  0  0  0  0  0  0  0  0  0  0
    7.5863  -16.2963   22.2078 C   0  0  1  0  0  0  0  0  0  0  0  0
    7.0685  -17.6741   22.0460 C   0  0  0  0  0  0  0  0  0  0  0  0
    6.6219  -18.4135   23.2412 C   0  0  0  0  0  0  0  0  0  0  0  0
    6.0465  -19.7384   22.9875 C   0  0  0  0  0  0  0  0  0  0  0  0
    6.7486  -20.6201   22.4109 O   0  0  0  0  0  0  0  0  0  0  0  0
    8.5915  -16.1633   23.2915 C   0  0  0  0  0  0  0  0  0  0  0  0
    9.8013  -16.3812   23.0584 O   0  0  0  0  0  0  0  0  0  0  0  0
    4.7579  -20.0901   23.3472 O   0  0  0  0  0  0  0  0  0  0  0  0
    7.5387  -14.2703   26.5990 O   0  0  0  0  0  0  0  0  0  0  0  0
    8.9085  -14.3794   26.4124 C   0  0  0  0  0  0  0  0  0  0  0  0
    9.2303  -15.6332   25.6257 C   0  0  2  0  0  0  0  0  0  0  0  0
    8.2316  -15.7917   24.6112 N   0  0  0  0  0  0  0  0  0  0  0  0
    9.2564  -16.8167   26.5364 C   0  0  0  0  0  0  0  0  0  0  0  0
   10.1691  -16.8979   27.5651 O   0  0  0  0  0  0  0  0  0  0  0  0
    8.4359  -17.7463   26.3595 O   0  0  0  0  0  0  0  0  0  0  0  0
  1  5  1  0
  1  2  1  0
  2  3  1  0
  4  3  1  0
  5  6  1  1
  5  4  1  0
  6  8  1  0
  6  7  2  0
  8  9  1  0
  9 14  1  0
  9 10  1  6
 11 10  1  0
 12 16  1  0
 12 11  1  0
 13 12  2  0
 14 15  2  0
 14 20  1  0
 17 18  1  0
 19 18  1  1
 19 21  1  0
 20 19  1  0
 21 22  1  0
 23 21  2  0
M  END
$$$$
