PES.pdb
     RDKit          3D

 23 23  0  0  1  0  0  0  0  0999 V2000
    9.2231  -13.5701   19.0275 N   0  0  0  0  0  0  0  0  0  0  0  0
    8.3684  -13.1653   17.9504 C   0  0  0  0  0  0  0  0  0  0  0  0
    6.9714  -13.0482   18.4965 C   0  0  0  0  0  0  0  0  0  0  0  0
    7.0037  -13.9226   19.7102 C   0  0  0  0  0  0  0  0  0  0  0  0
    8.4274  -13.8263   20.1849 C   0  0  1  0  0  0  0  0  0  0  0  0
    8.8513  -15.1252   20.7753 C   0  0  0  0  0  0  0  0  0  0  0  0
    8.1514  -15.6929   21.6512 O   0  0  0  0  0  0  0  0  0  0  0  0
   10.0756  -15.7664   20.3585 N   0  0  0  0  0  0  0  0  0  0  0  0
   10.5215  -16.9441   21.0522 C   0  0  1  0  0  0  0  0  0  0  0  0
   11.5696  -17.6620   20.2915 C   0  0  0  0  0  0  0  0  0  0  0  0
   12.0378  -18.9711   20.7830 C   0  0  0  0  0  0  0  0  0  0  0  0
   13.0914  -19.6067   19.9850 C   0  0  0  0  0  0  0  0  0  0  0  0
   13.5415  -20.7362   20.3380 O   0  0  0  0  0  0  0  0  0  0  0  0
   10.9006  -16.6557   22.4578 C   0  0  0  0  0  0  0  0  0  0  0  0
   11.4761  -15.5833   22.7474 O   0  0  0  0  0  0  0  0  0  0  0  0
   13.6338  -19.0361   18.8476 O   0  0  0  0  0  0  0  0  0  0  0  0
   10.2048  -17.2025   27.0765 O   0  0  0  0  0  0  0  0  0  0  0  0
    9.8301  -17.3459   25.7490 C   0  0  0  0  0  0  0  0  0  0  0  0
   11.0485  -17.2759   24.8518 C   0  0  2  0  0  0  0  0  0  0  0  0
   10.6328  -17.5649   23.5119 N   0  0  0  0  0  0  0  0  0  0  0  0
   12.0800  -18.2534   25.3115 C   0  0  0  0  0  0  0  0  0  0  0  0
   12.7861  -18.0420   26.4754 O   0  0  0  0  0  0  0  0  0  0  0  0
   12.3036  -19.2782   24.6270 O   0  0  0  0  0  0  0  0  0  0  0  0
  1  5  1  0
  1  2  1  0
  2  3  1  0
  4  3  1  0
  5  6  1  6
  5  4  1  0
  6  8  1  0
  6  7  2  0
  8  9  1  0
  9 14  1  0
  9 10  1  6
 11 10  1  0
 12 16  1  0
 12 11  1  0
 13 12  2  0
 14 15  2  0
 14 20  1  0
 17 18  1  0
 19 18  1  1
 19 21  1  0
 20 19  1  0
 21 22  1  0
 23 21  2  0
M  END
$$$$
