PES.pdb
     RDKit          3D

 23 23  0  0  1  0  0  0  0  0999 V2000
   -2.2873  -26.3498   26.2544 N   0  0  0  0  0  0  0  0  0  0  0  0
   -1.0105  -26.9906   26.1379 C   0  0  0  0  0  0  0  0  0  0  0  0
   -1.2521  -28.4718   26.0302 C   0  0  0  0  0  0  0  0  0  0  0  0
   -2.6050  -28.6437   26.6459 C   0  0  0  0  0  0  0  0  0  0  0  0
   -3.3047  -27.3473   26.3438 C   0  0  1  0  0  0  0  0  0  0  0  0
   -4.2191  -26.9947   27.4641 C   0  0  0  0  0  0  0  0  0  0  0  0
   -5.2064  -27.7209   27.7419 O   0  0  0  0  0  0  0  0  0  0  0  0
   -3.9968  -25.8112   28.2601 N   0  0  0  0  0  0  0  0  0  0  0  0
   -4.9115  -25.5006   29.3250 C   0  0  1  0  0  0  0  0  0  0  0  0
   -4.2262  -25.4519   30.6367 C   0  0  0  0  0  0  0  0  0  0  0  0
   -3.7791  -26.7136   31.2555 C   0  0  0  0  0  0  0  0  0  0  0  0
   -2.9462  -26.5703   32.4541 C   0  0  0  0  0  0  0  0  0  0  0  0
   -1.8416  -25.9570   32.3727 O   0  0  0  0  0  0  0  0  0  0  0  0
   -5.7205  -24.2912   29.0327 C   0  0  0  0  0  0  0  0  0  0  0  0
   -5.5899  -23.6951   27.9405 O   0  0  0  0  0  0  0  0  0  0  0  0
   -3.3013  -27.0742   33.6924 O   0  0  0  0  0  0  0  0  0  0  0  0
   -9.4069  -22.4325   28.0397 O   0  0  0  0  0  0  0  0  0  0  0  0
   -8.4358  -23.3438   28.4264 C   0  0  0  0  0  0  0  0  0  0  0  0
   -7.6077  -22.7752   29.5601 C   0  0  2  0  0  0  0  0  0  0  0  0
   -6.6570  -23.7692   29.9600 N   0  0  0  0  0  0  0  0  0  0  0  0
   -8.4934  -22.3962   30.7014 C   0  0  0  0  0  0  0  0  0  0  0  0
   -9.0832  -21.1525   30.7565 O   0  0  0  0  0  0  0  0  0  0  0  0
   -8.7006  -23.2230   31.6192 O   0  0  0  0  0  0  0  0  0  0  0  0
  1  5  1  0
  1  2  1  0
  2  3  1  0
  4  3  1  0
  5  6  1  1
  5  4  1  0
  6  8  1  0
  6  7  2  0
  8  9  1  0
  9 14  1  0
  9 10  1  1
 11 10  1  0
 12 16  1  0
 12 11  1  0
 13 12  2  0
 14 15  2  0
 14 20  1  0
 17 18  1  0
 19 18  1  6
 19 21  1  0
 20 19  1  0
 21 22  1  0
 23 21  2  0
M  END
$$$$
