PES.pdb
     RDKit          3D

 23 23  0  0  1  0  0  0  0  0999 V2000
    9.4957  -13.8822   18.5513 N   0  0  0  0  0  0  0  0  0  0  0  0
    8.5248  -13.6484   17.5232 C   0  0  0  0  0  0  0  0  0  0  0  0
    7.2254  -13.2962   18.1951 C   0  0  0  0  0  0  0  0  0  0  0  0
    7.3756  -13.8866   19.5617 C   0  0  0  0  0  0  0  0  0  0  0  0
    8.8543  -13.8124   19.8249 C   0  0  1  0  0  0  0  0  0  0  0  0
    9.2815  -14.9842   20.6372 C   0  0  0  0  0  0  0  0  0  0  0  0
    8.6019  -15.3660   21.6230 O   0  0  0  0  0  0  0  0  0  0  0  0
   10.4859  -15.7120   20.3152 N   0  0  0  0  0  0  0  0  0  0  0  0
   10.8578  -16.8433   21.1208 C   0  0  1  0  0  0  0  0  0  0  0  0
   11.9078  -17.6575   20.4672 C   0  0  0  0  0  0  0  0  0  0  0  0
   11.6672  -18.1734   19.1068 C   0  0  0  0  0  0  0  0  0  0  0  0
   12.7846  -18.9045   18.5004 C   0  0  0  0  0  0  0  0  0  0  0  0
   13.9408  -18.3886   18.5074 O   0  0  0  0  0  0  0  0  0  0  0  0
   11.1902  -16.4532   22.5137 C   0  0  0  0  0  0  0  0  0  0  0  0
   11.9484  -15.4823   22.7318 O   0  0  0  0  0  0  0  0  0  0  0  0
   12.6494  -20.1482   17.9100 O   0  0  0  0  0  0  0  0  0  0  0  0
    8.7618  -17.2713   25.4882 O   0  0  0  0  0  0  0  0  0  0  0  0
    9.7636  -16.3326   25.6841 C   0  0  0  0  0  0  0  0  0  0  0  0
   11.0274  -16.7599   24.9666 C   0  0  2  0  0  0  0  0  0  0  0  0
   10.6737  -17.1503   23.6347 N   0  0  0  0  0  0  0  0  0  0  0  0
   11.6747  -17.8897   25.6983 C   0  0  0  0  0  0  0  0  0  0  0  0
   12.1139  -17.7338   26.9947 O   0  0  0  0  0  0  0  0  0  0  0  0
   11.8185  -18.9925   25.1223 O   0  0  0  0  0  0  0  0  0  0  0  0
  1  5  1  0
  1  2  1  0
  2  3  1  0
  4  3  1  0
  5  6  1  1
  5  4  1  0
  6  8  1  0
  6  7  2  0
  8  9  1  0
  9 14  1  0
  9 10  1  6
 11 10  1  0
 12 16  1  0
 12 11  1  0
 13 12  2  0
 14 15  2  0
 14 20  1  0
 17 18  1  0
 19 18  1  1
 19 21  1  0
 20 19  1  0
 21 22  1  0
 23 21  2  0
M  END
$$$$
