PES.pdb
     RDKit          3D

 23 23  0  0  1  0  0  0  0  0999 V2000
    9.2026  -14.3282   18.0470 N   0  0  0  0  0  0  0  0  0  0  0  0
    8.2164  -14.0753   17.0380 C   0  0  0  0  0  0  0  0  0  0  0  0
    7.1952  -13.1383   17.6236 C   0  0  0  0  0  0  0  0  0  0  0  0
    7.3465  -13.3448   19.0978 C   0  0  0  0  0  0  0  0  0  0  0  0
    8.7982  -13.7004   19.2638 C   0  0  1  0  0  0  0  0  0  0  0  0
    8.9545  -14.6760   20.3769 C   0  0  0  0  0  0  0  0  0  0  0  0
    8.3998  -14.4797   21.4874 O   0  0  0  0  0  0  0  0  0  0  0  0
    9.7460  -15.8718   20.2112 N   0  0  0  0  0  0  0  0  0  0  0  0
    9.7968  -16.8326   21.2795 C   0  0  1  0  0  0  0  0  0  0  0  0
   10.4583  -18.0873   20.8545 C   0  0  0  0  0  0  0  0  0  0  0  0
   10.0810  -18.6909   19.5630 C   0  0  0  0  0  0  0  0  0  0  0  0
   10.8239  -19.8984   19.1877 C   0  0  0  0  0  0  0  0  0  0  0  0
   12.0538  -19.8068   18.9014 O   0  0  0  0  0  0  0  0  0  0  0  0
   10.3622  -16.2556   22.5245 C   0  0  0  0  0  0  0  0  0  0  0  0
   11.4084  -15.5708   22.4827 O   0  0  0  0  0  0  0  0  0  0  0  0
   10.2513  -21.1562   19.1267 O   0  0  0  0  0  0  0  0  0  0  0  0
    8.0805  -15.5122   25.6421 O   0  0  0  0  0  0  0  0  0  0  0  0
    9.3362  -14.9272   25.5778 C   0  0  0  0  0  0  0  0  0  0  0  0
   10.3333  -15.8953   24.9754 C   0  0  2  0  0  0  0  0  0  0  0  0
    9.7538  -16.4520   23.7897 N   0  0  0  0  0  0  0  0  0  0  0  0
   10.6646  -16.9682   25.9602 C   0  0  0  0  0  0  0  0  0  0  0  0
   11.2301  -16.6606   27.1782 O   0  0  0  0  0  0  0  0  0  0  0  0
   10.4238  -18.1630   25.6714 O   0  0  0  0  0  0  0  0  0  0  0  0
  1  5  1  0
  1  2  1  0
  2  3  1  0
  4  3  1  0
  5  6  1  1
  5  4  1  0
  6  8  1  0
  6  7  2  0
  8  9  1  0
  9 14  1  0
  9 10  1  6
 11 10  1  0
 12 16  1  0
 12 11  1  0
 13 12  2  0
 14 15  2  0
 14 20  1  0
 17 18  1  0
 19 18  1  1
 19 21  1  0
 20 19  1  0
 21 22  1  0
 23 21  2  0
M  END
$$$$
