PES.pdb
     RDKit          3D

 23 23  0  0  1  0  0  0  0  0999 V2000
    8.0564  -14.3064   18.1777 N   0  0  0  0  0  0  0  0  0  0  0  0
    7.1833  -13.1721   18.1044 C   0  0  0  0  0  0  0  0  0  0  0  0
    7.6007  -12.2055   19.1791 C   0  0  0  0  0  0  0  0  0  0  0  0
    8.3235  -13.0745   20.1594 C   0  0  0  0  0  0  0  0  0  0  0  0
    8.9185  -14.1608   19.3064 C   0  0  1  0  0  0  0  0  0  0  0  0
    8.9341  -15.4434   20.0614 C   0  0  0  0  0  0  0  0  0  0  0  0
    8.3040  -16.4458   19.6402 O   0  0  0  0  0  0  0  0  0  0  0  0
    9.6720  -15.5700   21.2957 N   0  0  0  0  0  0  0  0  0  0  0  0
   10.0418  -16.8794   21.7602 C   0  0  1  0  0  0  0  0  0  0  0  0
   10.7587  -17.6468   20.7163 C   0  0  0  0  0  0  0  0  0  0  0  0
   11.0867  -19.0620   20.9697 C   0  0  0  0  0  0  0  0  0  0  0  0
   11.8196  -19.7436   19.8977 C   0  0  0  0  0  0  0  0  0  0  0  0
   12.8216  -19.1755   19.3721 O   0  0  0  0  0  0  0  0  0  0  0  0
   10.7586  -16.8306   23.0588 C   0  0  0  0  0  0  0  0  0  0  0  0
   11.7868  -16.1291   23.1844 O   0  0  0  0  0  0  0  0  0  0  0  0
   11.4761  -20.9942   19.4167 O   0  0  0  0  0  0  0  0  0  0  0  0
   10.6098  -17.5197   27.7872 O   0  0  0  0  0  0  0  0  0  0  0  0
   10.0107  -17.7159   26.5520 C   0  0  0  0  0  0  0  0  0  0  0  0
   11.0088  -17.4627   25.4411 C   0  0  2  0  0  0  0  0  0  0  0  0
   10.3185  -17.5626   24.1900 N   0  0  0  0  0  0  0  0  0  0  0  0
   12.1214  -18.4563   25.5159 C   0  0  0  0  0  0  0  0  0  0  0  0
   13.1499  -18.3001   26.4190 O   0  0  0  0  0  0  0  0  0  0  0  0
   12.1161  -19.4438   24.7455 O   0  0  0  0  0  0  0  0  0  0  0  0
  1  5  1  0
  1  2  1  0
  2  3  1  0
  4  3  1  0
  5  6  1  1
  5  4  1  0
  6  8  1  0
  6  7  2  0
  8  9  1  0
  9 14  1  0
  9 10  1  6
 11 10  1  0
 12 16  1  0
 12 11  1  0
 13 12  2  0
 14 15  2  0
 14 20  1  0
 17 18  1  0
 19 18  1  1
 19 21  1  0
 20 19  1  0
 21 22  1  0
 23 21  2  0
M  END
$$$$
