PES.pdb
     RDKit          3D

 23 23  0  0  1  0  0  0  0  0999 V2000
    9.2700  -14.0197   17.8335 N   0  0  0  0  0  0  0  0  0  0  0  0
    8.1963  -13.7214   16.9320 C   0  0  0  0  0  0  0  0  0  0  0  0
    7.1162  -13.0333   17.7218 C   0  0  0  0  0  0  0  0  0  0  0  0
    7.3882  -13.4700   19.1268 C   0  0  0  0  0  0  0  0  0  0  0  0
    8.8789  -13.6658   19.1601 C   0  0  1  0  0  0  0  0  0  0  0  0
    9.2195  -14.7914   20.0724 C   0  0  0  0  0  0  0  0  0  0  0  0
    8.7269  -14.8559   21.2268 O   0  0  0  0  0  0  0  0  0  0  0  0
   10.1234  -15.8373   19.6566 N   0  0  0  0  0  0  0  0  0  0  0  0
   10.3872  -16.9323   20.5503 C   0  0  1  0  0  0  0  0  0  0  0  0
   11.1297  -18.0212   19.8754 C   0  0  0  0  0  0  0  0  0  0  0  0
   12.4445  -17.7242   19.2772 C   0  0  0  0  0  0  0  0  0  0  0  0
   13.1163  -18.8567   18.6315 C   0  0  0  0  0  0  0  0  0  0  0  0
   14.2378  -18.6765   18.0722 O   0  0  0  0  0  0  0  0  0  0  0  0
   11.0155  -16.4815   21.8170 C   0  0  0  0  0  0  0  0  0  0  0  0
   11.8666  -15.5646   21.8064 O   0  0  0  0  0  0  0  0  0  0  0  0
   12.5890  -20.1350   18.5961 O   0  0  0  0  0  0  0  0  0  0  0  0
    9.1541  -16.7146   25.2582 O   0  0  0  0  0  0  0  0  0  0  0  0
   10.2759  -15.9110   25.1206 C   0  0  0  0  0  0  0  0  0  0  0  0
   11.3184  -16.6098   24.2725 C   0  0  2  0  0  0  0  0  0  0  0  0
   10.6856  -17.0593   23.0687 N   0  0  0  0  0  0  0  0  0  0  0  0
   11.9057  -17.7580   25.0258 C   0  0  0  0  0  0  0  0  0  0  0  0
   12.6469  -17.5497   26.1682 O   0  0  0  0  0  0  0  0  0  0  0  0
   11.7199  -18.9249   24.6103 O   0  0  0  0  0  0  0  0  0  0  0  0
  1  5  1  0
  1  2  1  0
  2  3  1  0
  4  3  1  0
  5  6  1  1
  5  4  1  0
  6  8  1  0
  6  7  2  0
  8  9  1  0
  9 14  1  0
  9 10  1  6
 11 10  1  0
 12 16  1  0
 12 11  1  0
 13 12  2  0
 14 15  2  0
 14 20  1  0
 17 18  1  0
 19 18  1  1
 19 21  1  0
 20 19  1  0
 21 22  1  0
 23 21  2  0
M  END
$$$$
