PES.pdb
     RDKit          3D

 23 23  0  0  1  0  0  0  0  0999 V2000
    9.1613  -14.5218   19.9301 N   0  0  0  0  0  0  0  0  0  0  0  0
    8.2512  -14.5274   18.8227 C   0  0  0  0  0  0  0  0  0  0  0  0
    7.2000  -13.4850   19.0916 C   0  0  0  0  0  0  0  0  0  0  0  0
    7.2451  -13.3288   20.5790 C   0  0  0  0  0  0  0  0  0  0  0  0
    8.6781  -13.6224   20.9280 C   0  0  1  0  0  0  0  0  0  0  0  0
    8.7462  -14.2998   22.2516 C   0  0  0  0  0  0  0  0  0  0  0  0
    8.1564  -13.8190   23.2517 O   0  0  0  0  0  0  0  0  0  0  0  0
    9.4906  -15.5249   22.4218 N   0  0  0  0  0  0  0  0  0  0  0  0
    9.4839  -16.1770   23.7031 C   0  0  1  0  0  0  0  0  0  0  0  0
   10.0132  -17.5571   23.6161 C   0  0  0  0  0  0  0  0  0  0  0  0
   10.1380  -18.3527   24.8515 C   0  0  0  0  0  0  0  0  0  0  0  0
   10.7466  -19.6775   24.6923 C   0  0  0  0  0  0  0  0  0  0  0  0
   10.9075  -20.4132   25.7100 O   0  0  0  0  0  0  0  0  0  0  0  0
   10.1375  -15.3556   24.7523 C   0  0  0  0  0  0  0  0  0  0  0  0
   11.2966  -14.9179   24.5784 O   0  0  0  0  0  0  0  0  0  0  0  0
   11.1634  -20.1822   23.4736 O   0  0  0  0  0  0  0  0  0  0  0  0
    7.9158  -13.3144   27.3340 O   0  0  0  0  0  0  0  0  0  0  0  0
    9.2217  -12.9331   27.0651 C   0  0  0  0  0  0  0  0  0  0  0  0
   10.1035  -14.1561   26.9197 C   0  0  2  0  0  0  0  0  0  0  0  0
    9.4899  -15.0383   25.9727 N   0  0  0  0  0  0  0  0  0  0  0  0
   10.2695  -14.8282   28.2431 C   0  0  0  0  0  0  0  0  0  0  0  0
    9.9035  -16.1446   28.4190 O   0  0  0  0  0  0  0  0  0  0  0  0
   10.7484  -14.1832   29.2041 O   0  0  0  0  0  0  0  0  0  0  0  0
  1  5  1  0
  1  2  1  0
  2  3  1  0
  4  3  1  0
  5  6  1  1
  5  4  1  0
  6  8  1  0
  6  7  2  0
  8  9  1  0
  9 14  1  0
  9 10  1  6
 11 10  1  0
 12 16  1  0
 12 11  1  0
 13 12  2  0
 14 15  2  0
 14 20  1  0
 17 18  1  0
 19 18  1  1
 19 21  1  0
 20 19  1  0
 21 22  1  0
 23 21  2  0
M  END
$$$$
