PES.pdb
     RDKit          3D

 23 23  0  0  1  0  0  0  0  0999 V2000
    9.4228  -14.1551   18.2457 N   0  0  0  0  0  0  0  0  0  0  0  0
    8.7095  -13.9608   17.0177 C   0  0  0  0  0  0  0  0  0  0  0  0
    7.4727  -13.1631   17.3305 C   0  0  0  0  0  0  0  0  0  0  0  0
    7.2595  -13.4197   18.7891 C   0  0  0  0  0  0  0  0  0  0  0  0
    8.6493  -13.6291   19.3241 C   0  0  1  0  0  0  0  0  0  0  0  0
    8.6209  -14.6328   20.4228 C   0  0  0  0  0  0  0  0  0  0  0  0
    7.8001  -14.5286   21.3688 O   0  0  0  0  0  0  0  0  0  0  0  0
    9.5338  -15.7510   20.4313 N   0  0  0  0  0  0  0  0  0  0  0  0
    9.6122  -16.5832   21.6011 C   0  0  1  0  0  0  0  0  0  0  0  0
   10.5315  -17.7260   21.3977 C   0  0  0  0  0  0  0  0  0  0  0  0
   10.7214  -18.6931   22.4946 C   0  0  0  0  0  0  0  0  0  0  0  0
   11.6770  -19.7732   22.2277 C   0  0  0  0  0  0  0  0  0  0  0  0
   11.9377  -20.6110   23.1404 O   0  0  0  0  0  0  0  0  0  0  0  0
    9.9024  -15.7988   22.8272 C   0  0  0  0  0  0  0  0  0  0  0  0
   10.8397  -14.9702   22.8375 O   0  0  0  0  0  0  0  0  0  0  0  0
   12.3232  -19.9355   21.0155 O   0  0  0  0  0  0  0  0  0  0  0  0
    7.1309  -15.0319   25.5938 O   0  0  0  0  0  0  0  0  0  0  0  0
    8.3023  -14.2941   25.5117 C   0  0  0  0  0  0  0  0  0  0  0  0
    9.4711  -15.2033   25.1930 C   0  0  2  0  0  0  0  0  0  0  0  0
    9.1457  -15.9520   24.0160 N   0  0  0  0  0  0  0  0  0  0  0  0
    9.7406  -16.1142   26.3455 C   0  0  0  0  0  0  0  0  0  0  0  0
   10.1170  -15.6115   27.5717 O   0  0  0  0  0  0  0  0  0  0  0  0
    9.6217  -17.3516   26.1917 O   0  0  0  0  0  0  0  0  0  0  0  0
  1  5  1  0
  1  2  1  0
  2  3  1  0
  4  3  1  0
  5  6  1  1
  5  4  1  0
  6  8  1  0
  6  7  2  0
  8  9  1  0
  9 14  1  0
  9 10  1  6
 11 10  1  0
 12 16  1  0
 12 11  1  0
 13 12  2  0
 14 15  2  0
 14 20  1  0
 17 18  1  0
 19 18  1  1
 19 21  1  0
 20 19  1  0
 21 22  1  0
 23 21  2  0
M  END
$$$$
