WIA.pdb
     RDKit          3D

 28 29  0  0  1  0  0  0  0  0999 V2000
    5.8810  -18.1370   24.3741 N   0  0  0  0  0  0  0  0  0  0  0  0
    6.5574  -16.8680   24.2437 C   0  0  1  0  0  0  0  0  0  0  0  0
    7.3025  -16.4517   25.4901 C   0  0  0  0  0  0  0  0  0  0  0  0
    6.7459  -15.1731   25.9985 C   0  0  0  0  0  0  0  0  0  0  0  0
    5.4556  -14.9367   26.4050 C   0  0  0  0  0  0  0  0  0  0  0  0
    5.3349  -13.6581   26.7674 N   0  0  0  0  0  0  0  0  0  0  0  0
    6.5009  -13.0321   26.6175 C   0  0  0  0  0  0  0  0  0  0  0  0
    6.8816  -11.7106   26.8640 C   0  0  0  0  0  0  0  0  0  0  0  0
    8.1629  -11.3239   26.6297 C   0  0  0  0  0  0  0  0  0  0  0  0
    9.0808  -12.2313   26.1519 C   0  0  0  0  0  0  0  0  0  0  0  0
    8.7006  -13.5461   25.9067 C   0  0  0  0  0  0  0  0  0  0  0  0
    7.4097  -13.9504   26.1378 C   0  0  0  0  0  0  0  0  0  0  0  0
    7.4290  -16.9281   23.0572 C   0  0  0  0  0  0  0  0  0  0  0  0
    7.8143  -18.0162   22.5888 O   0  0  0  0  0  0  0  0  0  0  0  0
    6.9099  -12.7639   19.6088 C   0  0  0  0  0  0  0  0  0  0  0  0
    7.1005  -14.1987   20.1185 C   0  0  0  0  0  0  0  0  0  0  0  0
    8.4950  -14.3746   20.6158 C   0  0  2  0  0  0  0  0  0  0  0  0
    9.4640  -14.1105   19.4957 C   0  0  0  0  0  0  0  0  0  0  0  0
    8.7429  -15.6942   21.3086 C   0  0  2  0  0  0  0  0  0  0  0  0
    7.8312  -15.7203   22.4412 N   0  0  0  0  0  0  0  0  0  0  0  0
   10.1422  -15.9249   21.6833 C   0  0  0  0  0  0  0  0  0  0  0  0
   11.0347  -16.0898   20.8002 O   0  0  0  0  0  0  0  0  0  0  0  0
   12.2970  -15.4521   24.7214 C   0  0  0  0  0  0  0  0  0  0  0  0
   11.9539  -16.1415   23.4342 C   0  0  2  0  0  0  0  0  0  0  0  0
   10.5720  -15.9750   23.0380 N   0  0  0  0  0  0  0  0  0  0  0  0
   12.2445  -17.6109   23.5734 C   0  0  0  0  0  0  0  0  0  0  0  0
   13.3907  -18.0077   23.8223 O   0  0  0  0  0  0  0  0  0  0  0  0
   11.2385  -18.5558   23.4270 O   0  0  0  0  0  0  0  0  0  0  0  0
  2  1  1  1
  3  2  1  0
  4  3  1  0
  4  5  2  0
  6  5  1  0
  7  6  1  0
  8  7  2  0
  9  8  1  0
 10  9  2  0
 10 11  1  0
 11 12  2  0
 12  7  1  0
 12  4  1  0
 13 20  1  0
 13  2  1  0
 14 13  2  0
 15 16  1  0
 16 17  1  0
 17 19  1  0
 17 18  1  6
 19 21  1  0
 19 20  1  1
 21 22  2  0
 24 23  1  1
 25 24  1  0
 25 21  1  0
 26 24  1  0
 26 28  1  0
 27 26  2  0
M  END
$$$$
