WIA.pdb
     RDKit          3D

 28 29  0  0  1  0  0  0  0  0999 V2000
    5.6823  -18.2150   24.4832 N   0  0  0  0  0  0  0  0  0  0  0  0
    6.4124  -16.9722   24.3999 C   0  0  1  0  0  0  0  0  0  0  0  0
    7.0889  -16.5831   25.6934 C   0  0  0  0  0  0  0  0  0  0  0  0
    6.5647  -15.2732   26.1544 C   0  0  0  0  0  0  0  0  0  0  0  0
    5.2549  -14.9513   26.4125 C   0  0  0  0  0  0  0  0  0  0  0  0
    5.1796  -13.6704   26.7789 N   0  0  0  0  0  0  0  0  0  0  0  0
    6.3949  -13.1254   26.7750 C   0  0  0  0  0  0  0  0  0  0  0  0
    6.8328  -11.8354   27.0850 C   0  0  0  0  0  0  0  0  0  0  0  0
    8.1560  -11.5364   27.0068 C   0  0  0  0  0  0  0  0  0  0  0  0
    9.0597  -12.5012   26.6240 C   0  0  0  0  0  0  0  0  0  0  0  0
    8.6225  -13.7846   26.3155 C   0  0  0  0  0  0  0  0  0  0  0  0
    7.2891  -14.1005   26.3891 C   0  0  0  0  0  0  0  0  0  0  0  0
    7.3574  -17.0652   23.2733 C   0  0  0  0  0  0  0  0  0  0  0  0
    7.8497  -18.1559   22.9270 O   0  0  0  0  0  0  0  0  0  0  0  0
    7.0233  -12.8159   19.8187 C   0  0  0  0  0  0  0  0  0  0  0  0
    7.0956  -14.2470   20.3677 C   0  0  0  0  0  0  0  0  0  0  0  0
    8.4928  -14.5548   20.7872 C   0  0  2  0  0  0  0  0  0  0  0  0
    9.4185  -14.3812   19.6140 C   0  0  0  0  0  0  0  0  0  0  0  0
    8.6533  -15.8932   21.4696 C   0  0  2  0  0  0  0  0  0  0  0  0
    7.7067  -15.8870   22.5735 N   0  0  0  0  0  0  0  0  0  0  0  0
   10.0272  -16.1979   21.8836 C   0  0  0  0  0  0  0  0  0  0  0  0
   10.6503  -15.4391   22.6833 O   0  0  0  0  0  0  0  0  0  0  0  0
   12.5717  -18.9768   21.2737 C   0  0  0  0  0  0  0  0  0  0  0  0
   12.0970  -17.6469   21.7795 C   0  0  2  0  0  0  0  0  0  0  0  0
   10.7282  -17.3449   21.4195 N   0  0  0  0  0  0  0  0  0  0  0  0
   12.9912  -16.5678   21.2328 C   0  0  0  0  0  0  0  0  0  0  0  0
   12.7606  -16.0544   20.1299 O   0  0  0  0  0  0  0  0  0  0  0  0
   14.0937  -16.1218   21.9484 O   0  0  0  0  0  0  0  0  0  0  0  0
  2  1  1  1
  3  2  1  0
  4  3  1  0
  4  5  2  0
  6  5  1  0
  7  6  1  0
  8  7  2  0
  9  8  1  0
 10  9  2  0
 10 11  1  0
 11 12  2  0
 12  7  1  0
 12  4  1  0
 13 20  1  0
 13  2  1  0
 14 13  2  0
 15 16  1  0
 16 17  1  0
 17 19  1  0
 17 18  1  6
 19 21  1  0
 19 20  1  1
 21 22  2  0
 24 23  1  6
 25 24  1  0
 25 21  1  0
 26 24  1  0
 26 28  1  0
 27 26  2  0
M  END
$$$$
