WIA.pdb
     RDKit          3D

 28 29  0  0  1  0  0  0  0  0999 V2000
    6.7704  -19.1557   26.6069 N   0  0  0  0  0  0  0  0  0  0  0  0
    7.6225  -17.9910   26.6536 C   0  0  1  0  0  0  0  0  0  0  0  0
    9.0866  -18.3223   26.8239 C   0  0  0  0  0  0  0  0  0  0  0  0
    9.6060  -17.6645   28.0489 C   0  0  0  0  0  0  0  0  0  0  0  0
    9.9769  -18.2756   29.2215 C   0  0  0  0  0  0  0  0  0  0  0  0
   10.3643  -17.3477   30.0988 N   0  0  0  0  0  0  0  0  0  0  0  0
   10.2653  -16.1372   29.5521 C   0  0  0  0  0  0  0  0  0  0  0  0
   10.5536  -14.8665   30.0562 C   0  0  0  0  0  0  0  0  0  0  0  0
   10.3685  -13.7727   29.2715 C   0  0  0  0  0  0  0  0  0  0  0  0
    9.8995  -13.9176   27.9858 C   0  0  0  0  0  0  0  0  0  0  0  0
    9.6128  -15.1829   27.4854 C   0  0  0  0  0  0  0  0  0  0  0  0
    9.7938  -16.2962   28.2669 C   0  0  0  0  0  0  0  0  0  0  0  0
    7.3625  -17.1789   25.4520 C   0  0  0  0  0  0  0  0  0  0  0  0
    6.9831  -17.6996   24.3858 O   0  0  0  0  0  0  0  0  0  0  0  0
    6.3492  -11.8741   26.5407 C   0  0  0  0  0  0  0  0  0  0  0  0
    6.1297  -13.2147   25.8270 C   0  0  0  0  0  0  0  0  0  0  0  0
    7.2873  -13.5041   24.9332 C   0  0  2  0  0  0  0  0  0  0  0  0
    7.3695  -12.4510   23.8620 C   0  0  0  0  0  0  0  0  0  0  0  0
    7.3045  -14.9094   24.3786 C   0  0  2  0  0  0  0  0  0  0  0  0
    7.5479  -15.7785   25.5188 N   0  0  0  0  0  0  0  0  0  0  0  0
    8.2548  -15.1122   23.2797 C   0  0  0  0  0  0  0  0  0  0  0  0
    7.9771  -14.7417   22.1010 O   0  0  0  0  0  0  0  0  0  0  0  0
   11.5369  -15.0158   22.2356 C   0  0  0  0  0  0  0  0  0  0  0  0
   10.4387  -16.0256   22.3901 C   0  0  2  0  0  0  0  0  0  0  0  0
    9.5235  -15.7259   23.4704 N   0  0  0  0  0  0  0  0  0  0  0  0
   11.0488  -17.3790   22.6333 C   0  0  0  0  0  0  0  0  0  0  0  0
   11.8806  -17.8482   21.8451 O   0  0  0  0  0  0  0  0  0  0  0  0
   10.6962  -18.1333   23.7437 O   0  0  0  0  0  0  0  0  0  0  0  0
  2  1  1  6
  3  2  1  0
  4  3  1  0
  4  5  2  0
  6  5  1  0
  7  6  1  0
  8  7  2  0
  9  8  1  0
 10  9  2  0
 10 11  1  0
 11 12  2  0
 12  7  1  0
 12  4  1  0
 13 20  1  0
 13  2  1  0
 14 13  2  0
 15 16  1  0
 16 17  1  0
 17 19  1  0
 17 18  1  6
 19 21  1  0
 19 20  1  1
 21 22  2  0
 24 23  1  1
 25 24  1  0
 25 21  1  0
 26 24  1  0
 26 28  1  0
 27 26  2  0
M  END
$$$$
