WIA.pdb
     RDKit          3D

 28 29  0  0  1  0  0  0  0  0999 V2000
    6.8222  -18.3422   25.8492 N   0  0  0  0  0  0  0  0  0  0  0  0
    6.4299  -17.4299   24.8011 C   0  0  1  0  0  0  0  0  0  0  0  0
    5.8542  -16.1319   25.3167 C   0  0  0  0  0  0  0  0  0  0  0  0
    6.8482  -15.4591   26.1899 C   0  0  0  0  0  0  0  0  0  0  0  0
    7.9098  -16.0428   26.8365 C   0  0  0  0  0  0  0  0  0  0  0  0
    8.5558  -15.1170   27.5479 N   0  0  0  0  0  0  0  0  0  0  0  0
    7.9623  -13.9341   27.3982 C   0  0  0  0  0  0  0  0  0  0  0  0
    8.2604  -12.6746   27.9244 C   0  0  0  0  0  0  0  0  0  0  0  0
    7.4839  -11.6080   27.5995 C   0  0  0  0  0  0  0  0  0  0  0  0
    6.4088  -11.7690   26.7554 C   0  0  0  0  0  0  0  0  0  0  0  0
    6.1132  -13.0231   26.2326 C   0  0  0  0  0  0  0  0  0  0  0  0
    6.8880  -14.1094   26.5529 C   0  0  0  0  0  0  0  0  0  0  0  0
    7.5862  -17.2221   23.9119 C   0  0  0  0  0  0  0  0  0  0  0  0
    8.4876  -18.0757   23.8083 O   0  0  0  0  0  0  0  0  0  0  0  0
    6.8340  -12.7106   20.7445 C   0  0  0  0  0  0  0  0  0  0  0  0
    6.9826  -14.1859   21.1399 C   0  0  0  0  0  0  0  0  0  0  0  0
    8.3903  -14.4573   21.5493 C   0  0  2  0  0  0  0  0  0  0  0  0
    9.3190  -14.0974   20.4218 C   0  0  0  0  0  0  0  0  0  0  0  0
    8.6222  -15.8531   22.0791 C   0  0  2  0  0  0  0  0  0  0  0  0
    7.6666  -16.0261   23.1614 N   0  0  0  0  0  0  0  0  0  0  0  0
   10.0076  -16.1241   22.4779 C   0  0  0  0  0  0  0  0  0  0  0  0
   10.5580  -15.4667   23.4099 O   0  0  0  0  0  0  0  0  0  0  0  0
   12.6948  -18.6949   21.6752 C   0  0  0  0  0  0  0  0  0  0  0  0
   12.1804  -17.3880   22.2016 C   0  0  2  0  0  0  0  0  0  0  0  0
   10.8008  -17.1251   21.8524 N   0  0  0  0  0  0  0  0  0  0  0  0
   13.0368  -16.2734   21.6656 C   0  0  0  0  0  0  0  0  0  0  0  0
   12.7599  -15.7244   20.5908 O   0  0  0  0  0  0  0  0  0  0  0  0
   14.1551  -15.8335   22.3600 O   0  0  0  0  0  0  0  0  0  0  0  0
  2  1  1  1
  3  2  1  0
  4  3  1  0
  4  5  2  0
  6  5  1  0
  7  6  1  0
  8  7  2  0
  9  8  1  0
 10  9  2  0
 10 11  1  0
 11 12  2  0
 12  7  1  0
 12  4  1  0
 13 20  1  0
 13  2  1  0
 14 13  2  0
 15 16  1  0
 16 17  1  0
 17 19  1  0
 17 18  1  6
 19 21  1  0
 19 20  1  1
 21 22  2  0
 24 23  1  6
 25 24  1  0
 25 21  1  0
 26 24  1  0
 26 28  1  0
 27 26  2  0
M  END
$$$$
