WIA.pdb
     RDKit          3D

 28 29  0  0  1  0  0  0  0  0999 V2000
    5.7194  -18.3516   24.3643 N   0  0  0  0  0  0  0  0  0  0  0  0
    6.3535  -17.0554   24.4105 C   0  0  1  0  0  0  0  0  0  0  0  0
    6.9171  -16.7086   25.7686 C   0  0  0  0  0  0  0  0  0  0  0  0
    6.4228  -15.3726   26.1858 C   0  0  0  0  0  0  0  0  0  0  0  0
    5.1449  -15.0462   26.5682 C   0  0  0  0  0  0  0  0  0  0  0  0
    5.0864  -13.7415   26.8421 N   0  0  0  0  0  0  0  0  0  0  0  0
    6.2821  -13.1850   26.6562 C   0  0  0  0  0  0  0  0  0  0  0  0
    6.7266  -11.8699   26.8142 C   0  0  0  0  0  0  0  0  0  0  0  0
    8.0259  -11.5632   26.5611 C   0  0  0  0  0  0  0  0  0  0  0  0
    8.8991  -12.5448   26.1511 C   0  0  0  0  0  0  0  0  0  0  0  0
    8.4553  -13.8531   25.9940 C   0  0  0  0  0  0  0  0  0  0  0  0
    7.1456  -14.1772   26.2450 C   0  0  0  0  0  0  0  0  0  0  0  0
    7.3699  -16.9992   23.3454 C   0  0  0  0  0  0  0  0  0  0  0  0
    7.9294  -18.0304   22.9265 O   0  0  0  0  0  0  0  0  0  0  0  0
    7.0093  -12.5777   20.1451 C   0  0  0  0  0  0  0  0  0  0  0  0
    7.2047  -14.0521   20.5232 C   0  0  0  0  0  0  0  0  0  0  0  0
    8.5352  -14.2328   21.1712 C   0  0  2  0  0  0  0  0  0  0  0  0
    9.6210  -13.8486   20.2032 C   0  0  0  0  0  0  0  0  0  0  0  0
    8.7466  -15.5997   21.7792 C   0  0  2  0  0  0  0  0  0  0  0  0
    7.7111  -15.7442   22.7899 N   0  0  0  0  0  0  0  0  0  0  0  0
   10.1001  -15.8263   22.2973 C   0  0  0  0  0  0  0  0  0  0  0  0
   11.1031  -15.8223   21.5242 O   0  0  0  0  0  0  0  0  0  0  0  0
   11.8610  -15.7212   25.6044 C   0  0  0  0  0  0  0  0  0  0  0  0
   11.6886  -16.2621   24.2161 C   0  0  2  0  0  0  0  0  0  0  0  0
   10.3615  -16.0593   23.6757 N   0  0  0  0  0  0  0  0  0  0  0  0
   11.9883  -17.7362   24.2245 C   0  0  0  0  0  0  0  0  0  0  0  0
   11.1498  -18.5540   23.8230 O   0  0  0  0  0  0  0  0  0  0  0  0
   13.2084  -18.2154   24.6810 O   0  0  0  0  0  0  0  0  0  0  0  0
  2  1  1  1
  3  2  1  0
  4  3  1  0
  4  5  2  0
  6  5  1  0
  7  6  1  0
  8  7  2  0
  9  8  1  0
 10  9  2  0
 10 11  1  0
 11 12  2  0
 12  7  1  0
 12  4  1  0
 13 20  1  0
 13  2  1  0
 14 13  2  0
 15 16  1  0
 16 17  1  0
 17 19  1  0
 17 18  1  6
 19 21  1  0
 19 20  1  1
 21 22  2  0
 24 23  1  1
 25 24  1  0
 25 21  1  0
 26 24  1  0
 26 28  1  0
 27 26  2  0
M  END
$$$$
