WIA.pdb
     RDKit          3D

 28 29  0  0  1  0  0  0  0  0999 V2000
    6.8371  -19.5343   26.8958 N   0  0  0  0  0  0  0  0  0  0  0  0
    7.6460  -18.3400   26.9583 C   0  0  1  0  0  0  0  0  0  0  0  0
    9.1259  -18.6203   27.0754 C   0  0  0  0  0  0  0  0  0  0  0  0
    9.6709  -17.9248   28.2680 C   0  0  0  0  0  0  0  0  0  0  0  0
    9.9749  -18.4846   29.4845 C   0  0  0  0  0  0  0  0  0  0  0  0
   10.4142  -17.5330   30.3104 N   0  0  0  0  0  0  0  0  0  0  0  0
   10.4147  -16.3561   29.6868 C   0  0  0  0  0  0  0  0  0  0  0  0
   10.7871  -15.0799   30.1166 C   0  0  0  0  0  0  0  0  0  0  0  0
   10.6973  -14.0282   29.2609 C   0  0  0  0  0  0  0  0  0  0  0  0
   10.2415  -14.2208   27.9767 C   0  0  0  0  0  0  0  0  0  0  0  0
    9.8709  -15.4914   27.5503 C   0  0  0  0  0  0  0  0  0  0  0  0
    9.9554  -16.5626   28.4040 C   0  0  0  0  0  0  0  0  0  0  0  0
    7.3202  -17.4990   25.7932 C   0  0  0  0  0  0  0  0  0  0  0  0
    6.8637  -17.9915   24.7439 O   0  0  0  0  0  0  0  0  0  0  0  0
    6.0467  -11.5772   25.1108 C   0  0  0  0  0  0  0  0  0  0  0  0
    6.4933  -12.8481   24.3757 C   0  0  0  0  0  0  0  0  0  0  0  0
    6.9178  -13.8788   25.3657 C   0  0  2  0  0  0  0  0  0  0  0  0
    8.0117  -13.3197   26.2342 C   0  0  0  0  0  0  0  0  0  0  0  0
    7.2767  -15.2130   24.7544 C   0  0  2  0  0  0  0  0  0  0  0  0
    7.5311  -16.1031   25.8760 N   0  0  0  0  0  0  0  0  0  0  0  0
    8.3837  -15.1577   23.7935 C   0  0  0  0  0  0  0  0  0  0  0  0
    9.5569  -14.8619   24.1672 O   0  0  0  0  0  0  0  0  0  0  0  0
    8.8413  -16.0858   20.1174 C   0  0  0  0  0  0  0  0  0  0  0  0
    9.2786  -15.8552   21.5335 C   0  0  2  0  0  0  0  0  0  0  0  0
    8.2075  -15.4293   22.4087 N   0  0  0  0  0  0  0  0  0  0  0  0
   10.3605  -14.8101   21.5477 C   0  0  0  0  0  0  0  0  0  0  0  0
   10.0779  -13.6067   21.4753 O   0  0  0  0  0  0  0  0  0  0  0  0
   11.6984  -15.1671   21.6420 O   0  0  0  0  0  0  0  0  0  0  0  0
  2  1  1  6
  3  2  1  0
  4  3  1  0
  4  5  2  0
  6  5  1  0
  7  6  1  0
  8  7  2  0
  9  8  1  0
 10  9  2  0
 10 11  1  0
 11 12  2  0
 12  7  1  0
 12  4  1  0
 13 20  1  0
 13  2  1  0
 14 13  2  0
 15 16  1  0
 16 17  1  0
 17 19  1  0
 17 18  1  6
 19 21  1  0
 19 20  1  1
 21 22  2  0
 24 23  1  6
 25 24  1  0
 25 21  1  0
 26 24  1  0
 26 28  1  0
 27 26  2  0
M  END
$$$$
