WIA.pdb
     RDKit          3D

 28 29  0  0  1  0  0  0  0  0999 V2000
    6.0481  -18.1973   24.6940 N   0  0  0  0  0  0  0  0  0  0  0  0
    6.6032  -16.8803   24.4892 C   0  0  1  0  0  0  0  0  0  0  0  0
    7.1600  -16.2588   25.7486 C   0  0  0  0  0  0  0  0  0  0  0  0
    6.3646  -15.0570   26.1037 C   0  0  0  0  0  0  0  0  0  0  0  0
    4.9977  -14.9696   26.2020 C   0  0  0  0  0  0  0  0  0  0  0  0
    4.6573  -13.7179   26.5147 N   0  0  0  0  0  0  0  0  0  0  0  0
    5.7505  -12.9657   26.6293 C   0  0  0  0  0  0  0  0  0  0  0  0
    5.9168  -11.6145   26.9434 C   0  0  0  0  0  0  0  0  0  0  0  0
    7.1672  -11.0863   27.0046 C   0  0  0  0  0  0  0  0  0  0  0  0
    8.2642  -11.8801   26.7583 C   0  0  0  0  0  0  0  0  0  0  0  0
    8.0972  -13.2246   26.4455 C   0  0  0  0  0  0  0  0  0  0  0  0
    6.8403  -13.7713   26.3791 C   0  0  0  0  0  0  0  0  0  0  0  0
    7.6025  -16.9621   23.4095 C   0  0  0  0  0  0  0  0  0  0  0  0
    8.1286  -18.0458   23.0922 O   0  0  0  0  0  0  0  0  0  0  0  0
    7.3118  -12.6118   20.0845 C   0  0  0  0  0  0  0  0  0  0  0  0
    7.3547  -14.0700   20.5607 C   0  0  0  0  0  0  0  0  0  0  0  0
    8.7486  -14.4321   20.9466 C   0  0  2  0  0  0  0  0  0  0  0  0
    9.6590  -14.2552   19.7621 C   0  0  0  0  0  0  0  0  0  0  0  0
    8.8786  -15.7929   21.5899 C   0  0  2  0  0  0  0  0  0  0  0  0
    7.9656  -15.7810   22.7217 N   0  0  0  0  0  0  0  0  0  0  0  0
   10.2516  -16.1587   21.9545 C   0  0  0  0  0  0  0  0  0  0  0  0
   10.9017  -15.4837   22.8062 O   0  0  0  0  0  0  0  0  0  0  0  0
   12.4915  -19.1251   21.8264 C   0  0  0  0  0  0  0  0  0  0  0  0
   12.2830  -17.6445   21.7083 C   0  0  2  0  0  0  0  0  0  0  0  0
   10.9222  -17.2750   21.3828 N   0  0  0  0  0  0  0  0  0  0  0  0
   13.1994  -17.1046   20.6444 C   0  0  0  0  0  0  0  0  0  0  0  0
   12.8367  -17.0589   19.4614 O   0  0  0  0  0  0  0  0  0  0  0  0
   14.4703  -16.6454   20.9610 O   0  0  0  0  0  0  0  0  0  0  0  0
  2  1  1  1
  3  2  1  0
  4  3  1  0
  4  5  2  0
  6  5  1  0
  7  6  1  0
  8  7  2  0
  9  8  1  0
 10  9  2  0
 10 11  1  0
 11 12  2  0
 12  7  1  0
 12  4  1  0
 13 20  1  0
 13  2  1  0
 14 13  2  0
 15 16  1  0
 16 17  1  0
 17 19  1  0
 17 18  1  6
 19 21  1  0
 19 20  1  1
 21 22  2  0
 24 23  1  6
 25 24  1  0
 25 21  1  0
 26 24  1  0
 26 28  1  0
 27 26  2  0
M  END
$$$$
