WIA.pdb
     RDKit          3D

 28 29  0  0  1  0  0  0  0  0999 V2000
   10.4360  -16.7100   21.2534 N   0  0  0  0  0  0  0  0  0  0  0  0
    9.5559  -16.0872   22.2136 C   0  0  1  0  0  0  0  0  0  0  0  0
    8.1149  -16.5205   22.0796 C   0  0  0  0  0  0  0  0  0  0  0  0
    7.4725  -15.7744   20.9689 C   0  0  0  0  0  0  0  0  0  0  0  0
    6.8037  -16.3060   19.8937 C   0  0  0  0  0  0  0  0  0  0  0  0
    6.3938  -15.3174   19.0968 N   0  0  0  0  0  0  0  0  0  0  0  0
    6.7654  -14.1429   19.6032 C   0  0  0  0  0  0  0  0  0  0  0  0
    6.5710  -12.8354   19.1506 C   0  0  0  0  0  0  0  0  0  0  0  0
    7.0546  -11.7929   19.8756 C   0  0  0  0  0  0  0  0  0  0  0  0
    7.7325  -12.0253   21.0505 C   0  0  0  0  0  0  0  0  0  0  0  0
    7.9255  -13.3271   21.4996 C   0  0  0  0  0  0  0  0  0  0  0  0
    7.4436  -14.3897   20.7773 C   0  0  0  0  0  0  0  0  0  0  0  0
   10.0964  -16.3303   23.5626 C   0  0  0  0  0  0  0  0  0  0  0  0
   10.9602  -17.2042   23.7683 O   0  0  0  0  0  0  0  0  0  0  0  0
    9.5481  -13.0534   28.7710 C   0  0  0  0  0  0  0  0  0  0  0  0
   10.1959  -14.2716   28.0993 C   0  0  0  0  0  0  0  0  0  0  0  0
    9.6082  -14.4701   26.7436 C   0  0  2  0  0  0  0  0  0  0  0  0
    8.1114  -14.5719   26.8558 C   0  0  0  0  0  0  0  0  0  0  0  0
   10.2183  -15.6128   25.9661 C   0  0  2  0  0  0  0  0  0  0  0  0
    9.6211  -15.5497   24.6417 N   0  0  0  0  0  0  0  0  0  0  0  0
   10.0728  -16.9240   26.6074 C   0  0  0  0  0  0  0  0  0  0  0  0
    8.9371  -17.3483   26.9730 O   0  0  0  0  0  0  0  0  0  0  0  0
   12.2137  -19.9886   27.2341 C   0  0  0  0  0  0  0  0  0  0  0  0
   11.0706  -19.0608   27.5205 C   0  0  2  0  0  0  0  0  0  0  0  0
   11.1803  -17.7822   26.8516 N   0  0  0  0  0  0  0  0  0  0  0  0
   10.9907  -18.8262   29.0043 C   0  0  0  0  0  0  0  0  0  0  0  0
   10.5282  -19.6935   29.7574 O   0  0  0  0  0  0  0  0  0  0  0  0
   11.4319  -17.6356   29.5648 O   0  0  0  0  0  0  0  0  0  0  0  0
  2  1  1  6
  3  2  1  0
  4  3  1  0
  4  5  2  0
  6  5  1  0
  7  6  1  0
  8  7  2  0
  9  8  1  0
 10  9  2  0
 10 11  1  0
 11 12  2  0
 12  7  1  0
 12  4  1  0
 13 20  1  0
 13  2  1  0
 14 13  2  0
 15 16  1  0
 16 17  1  0
 17 19  1  0
 17 18  1  1
 19 21  1  0
 19 20  1  6
 21 22  2  0
 24 23  1  1
 25 24  1  0
 25 21  1  0
 26 24  1  0
 26 28  1  0
 27 26  2  0
M  END
$$$$
