WIA.pdb
     RDKit          3D

 28 29  0  0  1  0  0  0  0  0999 V2000
    6.0264  -17.1890   24.1915 N   0  0  0  0  0  0  0  0  0  0  0  0
    6.9558  -16.1046   23.9795 C   0  0  1  0  0  0  0  0  0  0  0  0
    7.8169  -15.8051   25.1841 C   0  0  0  0  0  0  0  0  0  0  0  0
    7.0756  -14.9210   26.1179 C   0  0  0  0  0  0  0  0  0  0  0  0
    6.0818  -15.2888   26.9913 C   0  0  0  0  0  0  0  0  0  0  0  0
    5.6423  -14.2083   27.6393 N   0  0  0  0  0  0  0  0  0  0  0  0
    6.3091  -13.1308   27.2289 C   0  0  0  0  0  0  0  0  0  0  0  0
    6.2215  -11.7880   27.6048 C   0  0  0  0  0  0  0  0  0  0  0  0
    7.0406  -10.8717   27.0256 C   0  0  0  0  0  0  0  0  0  0  0  0
    7.9524  -11.2660   26.0731 C   0  0  0  0  0  0  0  0  0  0  0  0
    8.0384  -12.6027   25.6997 C   0  0  0  0  0  0  0  0  0  0  0  0
    7.2167  -13.5389   26.2755 C   0  0  0  0  0  0  0  0  0  0  0  0
    7.7514  -16.4056   22.7764 C   0  0  0  0  0  0  0  0  0  0  0  0
    7.9280  -17.5770   22.3909 O   0  0  0  0  0  0  0  0  0  0  0  0
    7.2738  -12.3118   19.4125 C   0  0  0  0  0  0  0  0  0  0  0  0
    7.3218  -13.7531   19.9370 C   0  0  0  0  0  0  0  0  0  0  0  0
    8.7376  -14.2149   20.0097 C   0  0  2  0  0  0  0  0  0  0  0  0
    9.3344  -14.2222   18.6288 C   0  0  0  0  0  0  0  0  0  0  0  0
    8.9241  -15.5256   20.7376 C   0  0  2  0  0  0  0  0  0  0  0  0
    8.3220  -15.3364   22.0477 N   0  0  0  0  0  0  0  0  0  0  0  0
   10.3146  -15.9888   20.7984 C   0  0  0  0  0  0  0  0  0  0  0  0
   10.9323  -16.3364   19.7490 O   0  0  0  0  0  0  0  0  0  0  0  0
   13.2939  -15.6208   22.9110 C   0  0  0  0  0  0  0  0  0  0  0  0
   12.4102  -16.5278   22.1073 C   0  0  2  0  0  0  0  0  0  0  0  0
   11.0392  -16.0726   22.0193 N   0  0  0  0  0  0  0  0  0  0  0  0
   12.4265  -17.8997   22.7243 C   0  0  0  0  0  0  0  0  0  0  0  0
   13.4899  -18.5197   22.8588 O   0  0  0  0  0  0  0  0  0  0  0  0
   11.2540  -18.5032   23.1572 O   0  0  0  0  0  0  0  0  0  0  0  0
  2  1  1  1
  3  2  1  0
  4  3  1  0
  4  5  2  0
  6  5  1  0
  7  6  1  0
  8  7  2  0
  9  8  1  0
 10  9  2  0
 10 11  1  0
 11 12  2  0
 12  7  1  0
 12  4  1  0
 13 20  1  0
 13  2  1  0
 14 13  2  0
 15 16  1  0
 16 17  1  0
 17 19  1  0
 17 18  1  6
 19 21  1  0
 19 20  1  1
 21 22  2  0
 24 23  1  1
 25 24  1  0
 25 21  1  0
 26 24  1  0
 26 28  1  0
 27 26  2  0
M  END
$$$$
