WIA.pdb
     RDKit          3D

 28 29  0  0  1  0  0  0  0  0999 V2000
    6.1253  -17.2509   25.4026 N   0  0  0  0  0  0  0  0  0  0  0  0
    6.9990  -16.2064   24.9225 C   0  0  1  0  0  0  0  0  0  0  0  0
    8.2161  -15.9924   25.7914 C   0  0  0  0  0  0  0  0  0  0  0  0
    7.9223  -14.9556   26.8122 C   0  0  0  0  0  0  0  0  0  0  0  0
    7.9732  -15.1010   28.1768 C   0  0  0  0  0  0  0  0  0  0  0  0
    7.6142  -13.9538   28.7561 N   0  0  0  0  0  0  0  0  0  0  0  0
    7.3256  -13.0463   27.8248 C   0  0  0  0  0  0  0  0  0  0  0  0
    6.9139  -11.7150   27.9246 C   0  0  0  0  0  0  0  0  0  0  0  0
    6.6910  -10.9925   26.7956 C   0  0  0  0  0  0  0  0  0  0  0  0
    6.8707  -11.5710   25.5598 C   0  0  0  0  0  0  0  0  0  0  0  0
    7.2802  -12.8963   25.4620 C   0  0  0  0  0  0  0  0  0  0  0  0
    7.5080  -13.6382   26.5937 C   0  0  0  0  0  0  0  0  0  0  0  0
    7.3489  -16.5030   23.5223 C   0  0  0  0  0  0  0  0  0  0  0  0
    7.1569  -17.6311   23.0299 O   0  0  0  0  0  0  0  0  0  0  0  0
    7.1225  -12.4011   20.0841 C   0  0  0  0  0  0  0  0  0  0  0  0
    7.0450  -13.8210   20.6607 C   0  0  0  0  0  0  0  0  0  0  0  0
    8.4023  -14.4379   20.6620 C   0  0  2  0  0  0  0  0  0  0  0  0
    8.9062  -14.5447   19.2485 C   0  0  0  0  0  0  0  0  0  0  0  0
    8.4875  -15.7441   21.4166 C   0  0  2  0  0  0  0  0  0  0  0  0
    7.9125  -15.4794   22.7258 N   0  0  0  0  0  0  0  0  0  0  0  0
    9.8363  -16.3173   21.4792 C   0  0  0  0  0  0  0  0  0  0  0  0
   10.7855  -15.6909   22.0363 O   0  0  0  0  0  0  0  0  0  0  0  0
   11.4560  -19.6778   20.7797 C   0  0  0  0  0  0  0  0  0  0  0  0
   11.4633  -18.1960   21.0122 C   0  0  2  0  0  0  0  0  0  0  0  0
   10.1520  -17.5896   20.9278 N   0  0  0  0  0  0  0  0  0  0  0  0
   12.3641  -17.5459   19.9978 C   0  0  0  0  0  0  0  0  0  0  0  0
   11.9173  -17.1659   18.9073 O   0  0  0  0  0  0  0  0  0  0  0  0
   13.7142  -17.3561   20.2578 O   0  0  0  0  0  0  0  0  0  0  0  0
  2  1  1  1
  3  2  1  0
  4  3  1  0
  4  5  2  0
  6  5  1  0
  7  6  1  0
  8  7  2  0
  9  8  1  0
 10  9  2  0
 10 11  1  0
 11 12  2  0
 12  7  1  0
 12  4  1  0
 13 20  1  0
 13  2  1  0
 14 13  2  0
 15 16  1  0
 16 17  1  0
 17 19  1  0
 17 18  1  6
 19 21  1  0
 19 20  1  1
 21 22  2  0
 24 23  1  6
 25 24  1  0
 25 21  1  0
 26 24  1  0
 26 28  1  0
 27 26  2  0
M  END
$$$$
