WIA.pdb
     RDKit          3D

 28 29  0  0  1  0  0  0  0  0999 V2000
    5.8592  -17.6659   24.0154 N   0  0  0  0  0  0  0  0  0  0  0  0
    6.5976  -16.9463   23.0047 C   0  0  1  0  0  0  0  0  0  0  0  0
    5.7158  -16.2712   21.9806 C   0  0  0  0  0  0  0  0  0  0  0  0
    6.5518  -15.7523   20.8693 C   0  0  0  0  0  0  0  0  0  0  0  0
    6.9649  -16.4400   19.7547 C   0  0  0  0  0  0  0  0  0  0  0  0
    7.7242  -15.6425   19.0009 N   0  0  0  0  0  0  0  0  0  0  0  0
    7.8320  -14.4449   19.5737 C   0  0  0  0  0  0  0  0  0  0  0  0
    8.5039  -13.2856   19.1778 C   0  0  0  0  0  0  0  0  0  0  0  0
    8.4449  -12.1738   19.9567 C   0  0  0  0  0  0  0  0  0  0  0  0
    7.7258  -12.1909   21.1300 C   0  0  0  0  0  0  0  0  0  0  0  0
    7.0578  -13.3454   21.5229 C   0  0  0  0  0  0  0  0  0  0  0  0
    7.1095  -14.4760   20.7468 C   0  0  0  0  0  0  0  0  0  0  0  0
    7.5058  -16.0023   23.6792 C   0  0  0  0  0  0  0  0  0  0  0  0
    8.4156  -15.4202   23.0584 O   0  0  0  0  0  0  0  0  0  0  0  0
    6.0946  -12.2230   26.7661 C   0  0  0  0  0  0  0  0  0  0  0  0
    6.8879  -13.1614   25.8469 C   0  0  0  0  0  0  0  0  0  0  0  0
    7.7369  -14.0708   26.6684 C   0  0  2  0  0  0  0  0  0  0  0  0
    8.7245  -13.2568   27.4592 C   0  0  0  0  0  0  0  0  0  0  0  0
    8.3885  -15.1854   25.8838 C   0  0  2  0  0  0  0  0  0  0  0  0
    7.3334  -15.7551   25.0609 N   0  0  0  0  0  0  0  0  0  0  0  0
    9.0816  -16.1794   26.7105 C   0  0  0  0  0  0  0  0  0  0  0  0
    8.5207  -16.6882   27.7255 O   0  0  0  0  0  0  0  0  0  0  0  0
   12.3283  -18.1603   26.5279 C   0  0  0  0  0  0  0  0  0  0  0  0
   11.0891  -17.6394   27.1933 C   0  0  2  0  0  0  0  0  0  0  0  0
   10.4021  -16.6234   26.4250 N   0  0  0  0  0  0  0  0  0  0  0  0
   11.4579  -17.0662   28.5344 C   0  0  0  0  0  0  0  0  0  0  0  0
   11.3523  -15.8521   28.7535 O   0  0  0  0  0  0  0  0  0  0  0  0
   11.9241  -17.8810   29.5566 O   0  0  0  0  0  0  0  0  0  0  0  0
  2  1  1  1
  3  2  1  0
  4  3  1  0
  4  5  2  0
  6  5  1  0
  7  6  1  0
  8  7  2  0
  9  8  1  0
 10  9  2  0
 10 11  1  0
 11 12  2  0
 12  7  1  0
 12  4  1  0
 13 20  1  0
 13  2  1  0
 14 13  2  0
 15 16  1  0
 16 17  1  0
 17 19  1  0
 17 18  1  6
 19 21  1  0
 19 20  1  1
 21 22  2  0
 24 23  1  6
 25 24  1  0
 25 21  1  0
 26 24  1  0
 26 28  1  0
 27 26  2  0
M  END
$$$$
