WIA.pdb
     RDKit          3D

 28 29  0  0  1  0  0  0  0  0999 V2000
    5.9187  -18.2244   24.4084 N   0  0  0  0  0  0  0  0  0  0  0  0
    6.5106  -16.9105   24.3183 C   0  0  1  0  0  0  0  0  0  0  0  0
    7.2817  -16.5112   25.5545 C   0  0  0  0  0  0  0  0  0  0  0  0
    6.6899  -15.2792   26.1334 C   0  0  0  0  0  0  0  0  0  0  0  0
    5.4365  -15.1405   26.6769 C   0  0  0  0  0  0  0  0  0  0  0  0
    5.2614  -13.8757   27.0645 N   0  0  0  0  0  0  0  0  0  0  0  0
    6.3557  -13.1644   26.7989 C   0  0  0  0  0  0  0  0  0  0  0  0
    6.6623  -11.8191   27.0185 C   0  0  0  0  0  0  0  0  0  0  0  0
    7.8795  -11.3376   26.6541 C   0  0  0  0  0  0  0  0  0  0  0  0
    8.8055  -12.1727   26.0716 C   0  0  0  0  0  0  0  0  0  0  0  0
    8.4989  -13.5113   25.8534 C   0  0  0  0  0  0  0  0  0  0  0  0
    7.2732  -14.0111   26.2153 C   0  0  0  0  0  0  0  0  0  0  0  0
    7.3327  -16.8561   23.0969 C   0  0  0  0  0  0  0  0  0  0  0  0
    8.1268  -17.7713   22.8072 O   0  0  0  0  0  0  0  0  0  0  0  0
    7.9085  -12.5118   18.7146 C   0  0  0  0  0  0  0  0  0  0  0  0
    8.4056  -13.8652   19.2401 C   0  0  0  0  0  0  0  0  0  0  0  0
    7.6795  -14.2151   20.4944 C   0  0  2  0  0  0  0  0  0  0  0  0
    7.7729  -13.0690   21.4644 C   0  0  0  0  0  0  0  0  0  0  0  0
    8.0946  -15.5347   21.1019 C   0  0  2  0  0  0  0  0  0  0  0  0
    7.2109  -15.7388   22.2387 N   0  0  0  0  0  0  0  0  0  0  0  0
    9.5173  -15.6174   21.4494 C   0  0  0  0  0  0  0  0  0  0  0  0
   10.0003  -14.9199   22.3895 O   0  0  0  0  0  0  0  0  0  0  0  0
   12.1482  -17.8679   21.8395 C   0  0  0  0  0  0  0  0  0  0  0  0
   11.8226  -16.5995   21.1082 C   0  0  2  0  0  0  0  0  0  0  0  0
   10.4229  -16.4725   20.7629 N   0  0  0  0  0  0  0  0  0  0  0  0
   12.6403  -16.5381   19.8470 C   0  0  0  0  0  0  0  0  0  0  0  0
   13.8757  -16.4717   19.8973 O   0  0  0  0  0  0  0  0  0  0  0  0
   12.0327  -16.5544   18.5992 O   0  0  0  0  0  0  0  0  0  0  0  0
  2  1  1  1
  3  2  1  0
  4  3  1  0
  4  5  2  0
  6  5  1  0
  7  6  1  0
  8  7  2  0
  9  8  1  0
 10  9  2  0
 10 11  1  0
 11 12  2  0
 12  7  1  0
 12  4  1  0
 13 20  1  0
 13  2  1  0
 14 13  2  0
 15 16  1  0
 16 17  1  0
 17 19  1  0
 17 18  1  1
 19 21  1  0
 19 20  1  1
 21 22  2  0
 24 23  1  6
 25 24  1  0
 25 21  1  0
 26 24  1  0
 26 28  1  0
 27 26  2  0
M  END
$$$$
