PQQ.pdb
     RDKit          3D

 26 26  0  0  1  0  0  0  0  0999 V2000
    8.3678  -15.4178   18.9481 N   0  0  0  0  0  0  0  0  0  0  0  0
    8.7977  -14.7573   17.7033 C   0  0  0  0  0  0  0  0  0  0  0  0
    8.0088  -13.4495   17.6879 C   0  0  0  0  0  0  0  0  0  0  0  0
    7.5494  -13.2739   19.1083 C   0  0  0  0  0  0  0  0  0  0  0  0
    8.3849  -14.2842   19.8562 C   0  0  1  0  0  0  0  0  0  0  0  0
    7.8119  -14.6238   21.1780 C   0  0  0  0  0  0  0  0  0  0  0  0
    7.6314  -13.6894   22.0013 O   0  0  0  0  0  0  0  0  0  0  0  0
    7.1860  -20.5374   24.0852 N   0  0  0  0  0  0  0  0  0  0  0  0
    6.0003  -19.9657   23.5514 C   0  0  0  0  0  0  0  0  0  0  0  0
    5.1416  -20.7143   23.0380 O   0  0  0  0  0  0  0  0  0  0  0  0
    5.8079  -18.5308   23.6181 C   0  0  0  0  0  0  0  0  0  0  0  0
    6.3475  -17.6785   22.5505 C   0  0  0  0  0  0  0  0  0  0  0  0
    6.7615  -16.2907   22.7932 C   0  0  2  0  0  0  0  0  0  0  0  0
    7.4792  -15.9363   21.5096 N   0  0  0  0  0  0  0  0  0  0  0  0
    7.6850  -15.9250   23.8351 C   0  0  0  0  0  0  0  0  0  0  0  0
    8.9291  -16.1509   23.6928 O   0  0  0  0  0  0  0  0  0  0  0  0
    6.2274  -11.6271   28.2110 N   0  0  0  0  0  0  0  0  0  0  0  0
    6.3781  -11.6415   26.7665 C   0  0  0  0  0  0  0  0  0  0  0  0
    5.7382  -10.7037   26.2017 O   0  0  0  0  0  0  0  0  0  0  0  0
    7.1675  -12.6403   26.0926 C   0  0  0  0  0  0  0  0  0  0  0  0
    7.9055  -13.6941   26.7586 C   0  0  0  0  0  0  0  0  0  0  0  0
    8.4680  -14.8242   25.9752 C   0  0  2  0  0  0  0  0  0  0  0  0
    7.3560  -15.2932   25.0731 N   0  0  0  0  0  0  0  0  0  0  0  0
    8.6985  -16.0115   26.8144 C   0  0  0  0  0  0  0  0  0  0  0  0
    7.8311  -17.1082   26.7611 O   0  0  0  0  0  0  0  0  0  0  0  0
    9.6406  -16.1198   27.6024 O   0  0  0  0  0  0  0  0  0  0  0  0
  2  1  1  0
  3  4  1  0
  3  2  1  0
  4  5  1  0
  5  1  1  0
  5  6  1  1
  7  6  2  0
  8  9  1  0
  9 10  2  0
  9 11  1  0
 11 12  1  0
 13 12  1  6
 13 15  1  0
 13 14  1  0
 14  6  1  0
 15 23  1  0
 16 15  2  0
 18 17  1  0
 19 18  2  0
 20 18  1  0
 21 20  1  0
 22 21  1  1
 23 22  1  0
 24 25  1  0
 24 22  1  0
 26 24  2  0
M  END
$$$$
