PQQ.pdb
     RDKit          3D

 26 26  0  0  1  0  0  0  0  0999 V2000
    8.3817  -14.9735   19.2720 N   0  0  0  0  0  0  0  0  0  0  0  0
    8.8140  -14.0153   18.2398 C   0  0  0  0  0  0  0  0  0  0  0  0
    7.9211  -12.7975   18.4695 C   0  0  0  0  0  0  0  0  0  0  0  0
    7.3818  -12.9869   19.8597 C   0  0  0  0  0  0  0  0  0  0  0  0
    8.2617  -14.0818   20.4122 C   0  0  1  0  0  0  0  0  0  0  0  0
    7.6567  -14.7563   21.5827 C   0  0  0  0  0  0  0  0  0  0  0  0
    7.4479  -14.0707   22.6170 O   0  0  0  0  0  0  0  0  0  0  0  0
    4.2035  -20.1920   22.2508 N   0  0  0  0  0  0  0  0  0  0  0  0
    3.6812  -18.9841   21.7162 C   0  0  0  0  0  0  0  0  0  0  0  0
    2.4741  -18.9316   21.3977 O   0  0  0  0  0  0  0  0  0  0  0  0
    4.5544  -17.8385   21.5568 C   0  0  0  0  0  0  0  0  0  0  0  0
    5.9461  -17.9201   22.0193 C   0  0  0  0  0  0  0  0  0  0  0  0
    6.6124  -16.7980   22.6925 C   0  0  2  0  0  0  0  0  0  0  0  0
    7.3250  -16.1099   21.5492 N   0  0  0  0  0  0  0  0  0  0  0  0
    7.6313  -16.9843   23.6921 C   0  0  0  0  0  0  0  0  0  0  0  0
    8.8270  -17.2445   23.3432 O   0  0  0  0  0  0  0  0  0  0  0  0
    9.1840  -13.0079   28.0907 N   0  0  0  0  0  0  0  0  0  0  0  0
    9.8972  -14.2169   28.4641 C   0  0  0  0  0  0  0  0  0  0  0  0
   10.7090  -14.0268   29.4194 O   0  0  0  0  0  0  0  0  0  0  0  0
    9.6822  -15.4689   27.7850 C   0  0  0  0  0  0  0  0  0  0  0  0
    8.7112  -15.6777   26.7305 C   0  0  0  0  0  0  0  0  0  0  0  0
    8.6629  -16.9722   26.0030 C   0  0  2  0  0  0  0  0  0  0  0  0
    7.4543  -16.8956   25.1066 N   0  0  0  0  0  0  0  0  0  0  0  0
    8.3087  -18.0888   26.8945 C   0  0  0  0  0  0  0  0  0  0  0  0
    9.2955  -18.7836   27.6026 O   0  0  0  0  0  0  0  0  0  0  0  0
    7.1536  -18.4819   27.0727 O   0  0  0  0  0  0  0  0  0  0  0  0
  2  1  1  0
  3  4  1  0
  3  2  1  0
  4  5  1  0
  5  1  1  0
  5  6  1  1
  7  6  2  0
  8  9  1  0
  9 10  2  0
  9 11  1  0
 11 12  1  0
 13 12  1  6
 13 15  1  0
 13 14  1  0
 14  6  1  0
 15 23  1  0
 16 15  2  0
 18 17  1  0
 19 18  2  0
 20 18  1  0
 21 20  1  0
 22 21  1  1
 23 22  1  0
 24 25  1  0
 24 22  1  0
 26 24  2  0
M  END
$$$$
