PQQ.pdb
     RDKit          3D

 26 26  0  0  1  0  0  0  0  0999 V2000
    7.3013  -12.4682   24.5217 N   0  0  0  0  0  0  0  0  0  0  0  0
    6.6632  -11.2905   25.1354 C   0  0  0  0  0  0  0  0  0  0  0  0
    5.4466  -11.8648   25.8585 C   0  0  0  0  0  0  0  0  0  0  0  0
    5.7377  -13.3353   25.9692 C   0  0  0  0  0  0  0  0  0  0  0  0
    7.2046  -13.4117   25.6218 C   0  0  1  0  0  0  0  0  0  0  0  0
    7.6203  -14.7748   25.2217 C   0  0  0  0  0  0  0  0  0  0  0  0
    7.4832  -15.7040   26.0590 O   0  0  0  0  0  0  0  0  0  0  0  0
    5.2018  -17.6922   23.0527 N   0  0  0  0  0  0  0  0  0  0  0  0
    6.4181  -18.0427   22.4080 C   0  0  0  0  0  0  0  0  0  0  0  0
    6.8662  -19.2013   22.5427 O   0  0  0  0  0  0  0  0  0  0  0  0
    7.1098  -17.0546   21.6046 C   0  0  0  0  0  0  0  0  0  0  0  0
    8.3401  -16.4378   22.1180 C   0  0  0  0  0  0  0  0  0  0  0  0
    8.6541  -16.3978   23.5519 C   0  0  2  0  0  0  0  0  0  0  0  0
    8.1488  -15.0308   23.9573 N   0  0  0  0  0  0  0  0  0  0  0  0
   10.0018  -16.4475   24.0552 C   0  0  0  0  0  0  0  0  0  0  0  0
   10.8534  -15.5777   23.6846 O   0  0  0  0  0  0  0  0  0  0  0  0
   10.6557  -14.1171   29.4461 N   0  0  0  0  0  0  0  0  0  0  0  0
   10.6862  -15.5657   29.3444 C   0  0  0  0  0  0  0  0  0  0  0  0
   11.0481  -16.1213   30.4251 O   0  0  0  0  0  0  0  0  0  0  0  0
   10.3470  -16.2511   28.1237 C   0  0  0  0  0  0  0  0  0  0  0  0
   10.8768  -15.9175   26.8174 C   0  0  0  0  0  0  0  0  0  0  0  0
   11.5469  -16.9567   25.9937 C   0  0  2  0  0  0  0  0  0  0  0  0
   10.5240  -17.4017   24.9808 N   0  0  0  0  0  0  0  0  0  0  0  0
   11.7775  -18.1951   26.7555 C   0  0  0  0  0  0  0  0  0  0  0  0
   10.8235  -19.2187   26.7685 O   0  0  0  0  0  0  0  0  0  0  0  0
   12.7943  -18.4108   27.4188 O   0  0  0  0  0  0  0  0  0  0  0  0
  2  1  1  0
  3  4  1  0
  3  2  1  0
  4  5  1  0
  5  1  1  0
  5  6  1  6
  7  6  2  0
  8  9  1  0
  9 10  2  0
  9 11  1  0
 11 12  1  0
 13 12  1  6
 13 15  1  0
 13 14  1  0
 14  6  1  0
 15 23  1  0
 16 15  2  0
 18 17  1  0
 19 18  2  0
 20 18  1  0
 21 20  1  0
 22 21  1  1
 23 22  1  0
 24 25  1  0
 24 22  1  0
 26 24  2  0
M  END
$$$$
