PQQ.pdb
     RDKit          3D

 26 26  0  0  1  0  0  0  0  0999 V2000
    6.7725  -18.7135   20.3143 N   0  0  0  0  0  0  0  0  0  0  0  0
    5.5364  -19.3348   19.8075 C   0  0  0  0  0  0  0  0  0  0  0  0
    5.7159  -19.3299   18.2906 C   0  0  0  0  0  0  0  0  0  0  0  0
    7.1913  -19.1245   18.0900 C   0  0  0  0  0  0  0  0  0  0  0  0
    7.7529  -19.3722   19.4689 C   0  0  1  0  0  0  0  0  0  0  0  0
    9.1068  -18.7985   19.6391 C   0  0  0  0  0  0  0  0  0  0  0  0
   10.0825  -19.5915   19.6883 O   0  0  0  0  0  0  0  0  0  0  0  0
   10.1211  -13.3254   17.2607 N   0  0  0  0  0  0  0  0  0  0  0  0
   11.3941  -13.5174   17.8611 C   0  0  0  0  0  0  0  0  0  0  0  0
   12.2718  -12.6392   17.7203 O   0  0  0  0  0  0  0  0  0  0  0  0
   11.6468  -14.7211   18.6275 C   0  0  0  0  0  0  0  0  0  0  0  0
   10.5542  -15.6760   18.8554 C   0  0  0  0  0  0  0  0  0  0  0  0
   10.6838  -16.8031   19.7877 C   0  0  2  0  0  0  0  0  0  0  0  0
    9.3044  -17.4224   19.7426 N   0  0  0  0  0  0  0  0  0  0  0  0
   10.9534  -16.6256   21.1905 C   0  0  0  0  0  0  0  0  0  0  0  0
   10.0819  -16.0855   21.9440 O   0  0  0  0  0  0  0  0  0  0  0  0
   11.2171  -20.3767   25.7297 N   0  0  0  0  0  0  0  0  0  0  0  0
   11.8122  -19.1838   26.3064 C   0  0  0  0  0  0  0  0  0  0  0  0
   11.9623  -19.2740   27.5622 O   0  0  0  0  0  0  0  0  0  0  0  0
   12.1642  -18.0424   25.5013 C   0  0  0  0  0  0  0  0  0  0  0  0
   11.9994  -17.9660   24.0641 C   0  0  0  0  0  0  0  0  0  0  0  0
   12.2790  -16.6963   23.3451 C   0  0  2  0  0  0  0  0  0  0  0  0
   12.1427  -17.0152   21.8788 N   0  0  0  0  0  0  0  0  0  0  0  0
   13.6971  -16.3130   23.4412 C   0  0  0  0  0  0  0  0  0  0  0  0
   14.1754  -15.6005   24.5464 O   0  0  0  0  0  0  0  0  0  0  0  0
   14.5379  -16.5808   22.5800 O   0  0  0  0  0  0  0  0  0  0  0  0
  2  1  1  0
  3  4  1  0
  3  2  1  0
  4  5  1  0
  5  1  1  0
  5  6  1  6
  7  6  2  0
  8  9  1  0
  9 10  2  0
  9 11  1  0
 11 12  1  0
 13 12  1  6
 13 15  1  0
 13 14  1  0
 14  6  1  0
 15 23  1  0
 16 15  2  0
 18 17  1  0
 19 18  2  0
 20 18  1  0
 21 20  1  0
 22 21  1  1
 23 22  1  0
 24 25  1  0
 24 22  1  0
 26 24  2  0
M  END
$$$$
