PQQ.pdb
     RDKit          3D

 26 26  0  0  1  0  0  0  0  0999 V2000
    8.8921  -14.8524   18.8596 N   0  0  0  0  0  0  0  0  0  0  0  0
    9.1335  -13.9087   17.7543 C   0  0  0  0  0  0  0  0  0  0  0  0
    7.9246  -12.9760   17.7946 C   0  0  0  0  0  0  0  0  0  0  0  0
    7.3389  -13.1829   19.1633 C   0  0  0  0  0  0  0  0  0  0  0  0
    8.4334  -13.9311   19.8846 C   0  0  1  0  0  0  0  0  0  0  0  0
    7.9369  -14.6399   21.0854 C   0  0  0  0  0  0  0  0  0  0  0  0
    7.3439  -13.9652   21.9667 O   0  0  0  0  0  0  0  0  0  0  0  0
    5.3608  -20.2756   23.9405 N   0  0  0  0  0  0  0  0  0  0  0  0
    6.0958  -19.9787   22.7618 C   0  0  0  0  0  0  0  0  0  0  0  0
    5.6229  -20.3041   21.6518 O   0  0  0  0  0  0  0  0  0  0  0  0
    7.3724  -19.3012   22.8690 C   0  0  0  0  0  0  0  0  0  0  0  0
    7.6691  -18.1722   21.9775 C   0  0  0  0  0  0  0  0  0  0  0  0
    7.5361  -16.7765   22.4140 C   0  0  2  0  0  0  0  0  0  0  0  0
    8.1162  -16.0133   21.2439 N   0  0  0  0  0  0  0  0  0  0  0  0
    8.2251  -16.2516   23.5637 C   0  0  0  0  0  0  0  0  0  0  0  0
    9.4417  -15.8914   23.4686 O   0  0  0  0  0  0  0  0  0  0  0  0
    5.2710  -12.5187   27.5495 N   0  0  0  0  0  0  0  0  0  0  0  0
    6.5427  -12.0526   27.0250 C   0  0  0  0  0  0  0  0  0  0  0  0
    6.6375  -10.7882   27.0325 O   0  0  0  0  0  0  0  0  0  0  0  0
    7.5502  -12.9645   26.5472 C   0  0  0  0  0  0  0  0  0  0  0  0
    7.4316  -14.4081   26.5697 C   0  0  0  0  0  0  0  0  0  0  0  0
    8.4400  -15.2528   25.8791 C   0  0  2  0  0  0  0  0  0  0  0  0
    7.6733  -16.0651   24.8678 N   0  0  0  0  0  0  0  0  0  0  0  0
    8.9767  -16.2995   26.7642 C   0  0  0  0  0  0  0  0  0  0  0  0
   10.0650  -16.0409   27.6048 O   0  0  0  0  0  0  0  0  0  0  0  0
    8.5223  -17.4442   26.8239 O   0  0  0  0  0  0  0  0  0  0  0  0
  2  1  1  0
  3  4  1  0
  3  2  1  0
  4  5  1  0
  5  1  1  0
  5  6  1  1
  7  6  2  0
  8  9  1  0
  9 10  2  0
  9 11  1  0
 11 12  1  0
 13 12  1  6
 13 15  1  0
 13 14  1  0
 14  6  1  0
 15 23  1  0
 16 15  2  0
 18 17  1  0
 19 18  2  0
 20 18  1  0
 21 20  1  0
 22 21  1  1
 23 22  1  0
 24 25  1  0
 24 22  1  0
 26 24  2  0
M  END
$$$$
