PQQ.pdb
     RDKit          3D

 26 26  0  0  1  0  0  0  0  0999 V2000
    8.7231  -14.7812   19.0546 N   0  0  0  0  0  0  0  0  0  0  0  0
    8.8015  -13.7457   18.0094 C   0  0  0  0  0  0  0  0  0  0  0  0
    7.6020  -12.8436   18.2929 C   0  0  0  0  0  0  0  0  0  0  0  0
    7.2128  -13.1733   19.7068 C   0  0  0  0  0  0  0  0  0  0  0  0
    8.4028  -13.9560   20.2062 C   0  0  1  0  0  0  0  0  0  0  0  0
    8.0829  -14.7702   21.4002 C   0  0  0  0  0  0  0  0  0  0  0  0
    7.6357  -14.1781   22.4165 O   0  0  0  0  0  0  0  0  0  0  0  0
    4.8723  -19.1619   22.7015 N   0  0  0  0  0  0  0  0  0  0  0  0
    6.0082  -19.8152   23.2500 C   0  0  0  0  0  0  0  0  0  0  0  0
    5.8483  -20.6374   24.1772 O   0  0  0  0  0  0  0  0  0  0  0  0
    7.3249  -19.5206   22.7211 C   0  0  0  0  0  0  0  0  0  0  0  0
    7.5348  -18.2893   21.9481 C   0  0  0  0  0  0  0  0  0  0  0  0
    7.8826  -17.0147   22.5888 C   0  0  2  0  0  0  0  0  0  0  0  0
    8.2684  -16.1519   21.4077 N   0  0  0  0  0  0  0  0  0  0  0  0
    8.9824  -16.8802   23.5078 C   0  0  0  0  0  0  0  0  0  0  0  0
   10.1686  -16.7463   23.0674 O   0  0  0  0  0  0  0  0  0  0  0  0
    9.0531  -14.3747   29.4632 N   0  0  0  0  0  0  0  0  0  0  0  0
   10.1788  -14.0434   28.6072 C   0  0  0  0  0  0  0  0  0  0  0  0
   10.8207  -13.0304   29.0189 O   0  0  0  0  0  0  0  0  0  0  0  0
   10.4850  -14.8037   27.4227 C   0  0  0  0  0  0  0  0  0  0  0  0
    9.7441  -15.9654   26.9753 C   0  0  0  0  0  0  0  0  0  0  0  0
   10.1545  -16.6856   25.7423 C   0  0  2  0  0  0  0  0  0  0  0  0
    8.8962  -16.8662   24.9333 N   0  0  0  0  0  0  0  0  0  0  0  0
   10.5367  -18.0791   26.0232 C   0  0  0  0  0  0  0  0  0  0  0  0
   11.8466  -18.4042   26.3927 O   0  0  0  0  0  0  0  0  0  0  0  0
    9.7555  -19.0304   25.9518 O   0  0  0  0  0  0  0  0  0  0  0  0
  2  1  1  0
  3  4  1  0
  3  2  1  0
  4  5  1  0
  5  1  1  0
  5  6  1  1
  7  6  2  0
  8  9  1  0
  9 10  2  0
  9 11  1  0
 11 12  1  0
 13 12  1  6
 13 15  1  0
 13 14  1  0
 14  6  1  0
 15 23  1  0
 16 15  2  0
 18 17  1  0
 19 18  2  0
 20 18  1  0
 21 20  1  0
 22 21  1  1
 23 22  1  0
 24 25  1  0
 24 22  1  0
 26 24  2  0
M  END
$$$$
