PQQ.pdb
     RDKit          3D

 26 26  0  0  1  0  0  0  0  0999 V2000
    8.2164  -15.2955   19.0824 N   0  0  0  0  0  0  0  0  0  0  0  0
    8.4747  -14.4706   17.8893 C   0  0  0  0  0  0  0  0  0  0  0  0
    7.6381  -13.2139   18.1213 C   0  0  0  0  0  0  0  0  0  0  0  0
    7.3375  -13.2321   19.5939 C   0  0  0  0  0  0  0  0  0  0  0  0
    8.2922  -14.2780   20.1161 C   0  0  1  0  0  0  0  0  0  0  0  0
    7.8880  -14.8013   21.4403 C   0  0  0  0  0  0  0  0  0  0  0  0
    7.8396  -13.9946   22.4047 O   0  0  0  0  0  0  0  0  0  0  0  0
    5.5260  -20.5576   21.7573 N   0  0  0  0  0  0  0  0  0  0  0  0
    5.6560  -20.2903   23.1464 C   0  0  0  0  0  0  0  0  0  0  0  0
    5.3077  -21.1638   23.9692 O   0  0  0  0  0  0  0  0  0  0  0  0
    6.1939  -19.0164   23.5801 C   0  0  0  0  0  0  0  0  0  0  0  0
    6.5496  -18.0028   22.5783 C   0  0  0  0  0  0  0  0  0  0  0  0
    7.1012  -16.6945   22.9529 C   0  0  2  0  0  0  0  0  0  0  0  0
    7.5687  -16.1461   21.6228 N   0  0  0  0  0  0  0  0  0  0  0  0
    8.2392  -16.5496   23.8224 C   0  0  0  0  0  0  0  0  0  0  0  0
    9.4168  -16.6810   23.3587 O   0  0  0  0  0  0  0  0  0  0  0  0
    9.4029  -12.1810   28.1405 N   0  0  0  0  0  0  0  0  0  0  0  0
    8.2248  -12.8339   27.5971 C   0  0  0  0  0  0  0  0  0  0  0  0
    7.1663  -12.1616   27.7851 O   0  0  0  0  0  0  0  0  0  0  0  0
    8.2981  -14.1121   26.9371 C   0  0  0  0  0  0  0  0  0  0  0  0
    9.5289  -14.7626   26.5365 C   0  0  0  0  0  0  0  0  0  0  0  0
    9.5005  -16.1389   25.9776 C   0  0  2  0  0  0  0  0  0  0  0  0
    8.2039  -16.2478   25.2179 N   0  0  0  0  0  0  0  0  0  0  0  0
    9.3219  -17.1537   27.0289 C   0  0  0  0  0  0  0  0  0  0  0  0
   10.3524  -17.4435   27.9301 O   0  0  0  0  0  0  0  0  0  0  0  0
    8.2853  -17.8032   27.1837 O   0  0  0  0  0  0  0  0  0  0  0  0
  2  1  1  0
  3  4  1  0
  3  2  1  0
  4  5  1  0
  5  1  1  0
  5  6  1  1
  7  6  2  0
  8  9  1  0
  9 10  2  0
  9 11  1  0
 11 12  1  0
 13 12  1  6
 13 15  1  0
 13 14  1  0
 14  6  1  0
 15 23  1  0
 16 15  2  0
 18 17  1  0
 19 18  2  0
 20 18  1  0
 21 20  1  0
 22 21  1  1
 23 22  1  0
 24 25  1  0
 24 22  1  0
 26 24  2  0
M  END
$$$$
