PQQ.pdb
     RDKit          3D

 26 26  0  0  1  0  0  0  0  0999 V2000
    9.1299  -14.5287   18.9841 N   0  0  0  0  0  0  0  0  0  0  0  0
    8.8997  -13.4683   17.9875 C   0  0  0  0  0  0  0  0  0  0  0  0
    7.4188  -13.1291   18.1446 C   0  0  0  0  0  0  0  0  0  0  0  0
    7.0477  -13.6908   19.4886 C   0  0  0  0  0  0  0  0  0  0  0  0
    8.3917  -13.9836   20.1100 C   0  0  1  0  0  0  0  0  0  0  0  0
    8.2985  -14.9463   21.2305 C   0  0  0  0  0  0  0  0  0  0  0  0
    7.5167  -14.6755   22.1786 O   0  0  0  0  0  0  0  0  0  0  0  0
    7.8364  -20.9666   22.0606 N   0  0  0  0  0  0  0  0  0  0  0  0
    8.8584  -20.5832   21.1516 C   0  0  0  0  0  0  0  0  0  0  0  0
    9.5821  -21.4655   20.6425 O   0  0  0  0  0  0  0  0  0  0  0  0
    9.0370  -19.1817   20.8290 C   0  0  0  0  0  0  0  0  0  0  0  0
    9.6651  -18.2880   21.8110 C   0  0  0  0  0  0  0  0  0  0  0  0
    8.9633  -17.1257   22.3703 C   0  0  2  0  0  0  0  0  0  0  0  0
    9.0503  -16.1203   21.2435 N   0  0  0  0  0  0  0  0  0  0  0  0
    9.4380  -16.4125   23.5271 C   0  0  0  0  0  0  0  0  0  0  0  0
   10.5112  -15.7321   23.4607 O   0  0  0  0  0  0  0  0  0  0  0  0
    5.5340  -12.5972   26.2485 N   0  0  0  0  0  0  0  0  0  0  0  0
    6.8069  -12.3656   26.9085 C   0  0  0  0  0  0  0  0  0  0  0  0
    6.8162  -11.2923   27.5835 O   0  0  0  0  0  0  0  0  0  0  0  0
    7.9137  -13.2771   26.7706 C   0  0  0  0  0  0  0  0  0  0  0  0
    7.9509  -14.3939   25.8486 C   0  0  0  0  0  0  0  0  0  0  0  0
    9.1621  -15.2495   25.7577 C   0  0  2  0  0  0  0  0  0  0  0  0
    8.8080  -16.3643   24.8080 N   0  0  0  0  0  0  0  0  0  0  0  0
    9.4089  -15.9844   27.0091 C   0  0  0  0  0  0  0  0  0  0  0  0
    9.1523  -17.3571   27.0986 O   0  0  0  0  0  0  0  0  0  0  0  0
    9.8423  -15.4590   28.0370 O   0  0  0  0  0  0  0  0  0  0  0  0
  2  1  1  0
  3  4  1  0
  3  2  1  0
  4  5  1  0
  5  1  1  0
  5  6  1  1
  7  6  2  0
  8  9  1  0
  9 10  2  0
  9 11  1  0
 11 12  1  0
 13 12  1  6
 13 15  1  0
 13 14  1  0
 14  6  1  0
 15 23  1  0
 16 15  2  0
 18 17  1  0
 19 18  2  0
 20 18  1  0
 21 20  1  0
 22 21  1  1
 23 22  1  0
 24 25  1  0
 24 22  1  0
 26 24  2  0
M  END
$$$$
