PQQ.pdb
     RDKit          3D

 26 26  0  0  1  0  0  0  0  0999 V2000
    8.6879  -15.0419   18.6422 N   0  0  0  0  0  0  0  0  0  0  0  0
    8.7809  -14.0371   17.5688 C   0  0  0  0  0  0  0  0  0  0  0  0
    7.7065  -13.0126   17.9280 C   0  0  0  0  0  0  0  0  0  0  0  0
    7.4075  -13.2778   19.3770 C   0  0  0  0  0  0  0  0  0  0  0  0
    8.5509  -14.1697   19.7955 C   0  0  1  0  0  0  0  0  0  0  0  0
    8.2533  -14.9274   21.0317 C   0  0  0  0  0  0  0  0  0  0  0  0
    8.0728  -14.2775   22.0940 O   0  0  0  0  0  0  0  0  0  0  0  0
    4.7121  -19.5287   22.5863 N   0  0  0  0  0  0  0  0  0  0  0  0
    5.9442  -19.6150   23.2880 C   0  0  0  0  0  0  0  0  0  0  0  0
    5.9295  -19.7102   24.5338 O   0  0  0  0  0  0  0  0  0  0  0  0
    7.1896  -19.5971   22.5470 C   0  0  0  0  0  0  0  0  0  0  0  0
    7.5081  -18.4431   21.6960 C   0  0  0  0  0  0  0  0  0  0  0  0
    7.7706  -17.1104   22.2535 C   0  0  2  0  0  0  0  0  0  0  0  0
    8.1735  -16.3192   21.0287 N   0  0  0  0  0  0  0  0  0  0  0  0
    8.8197  -16.8582   23.2064 C   0  0  0  0  0  0  0  0  0  0  0  0
   10.0187  -16.7050   22.8091 O   0  0  0  0  0  0  0  0  0  0  0  0
    8.3275  -13.3572   28.6880 N   0  0  0  0  0  0  0  0  0  0  0  0
    9.4481  -14.2737   28.8065 C   0  0  0  0  0  0  0  0  0  0  0  0
    9.8919  -14.3480   29.9919 O   0  0  0  0  0  0  0  0  0  0  0  0
    9.9722  -14.9874   27.6704 C   0  0  0  0  0  0  0  0  0  0  0  0
    9.1909  -15.3899   26.5187 C   0  0  0  0  0  0  0  0  0  0  0  0
    9.8107  -16.2036   25.4411 C   0  0  2  0  0  0  0  0  0  0  0  0
    8.6663  -16.7410   24.6215 N   0  0  0  0  0  0  0  0  0  0  0  0
   10.4141  -17.4394   25.9660 C   0  0  0  0  0  0  0  0  0  0  0  0
    9.6315  -18.5732   26.2110 O   0  0  0  0  0  0  0  0  0  0  0  0
   11.6142  -17.5592   26.2228 O   0  0  0  0  0  0  0  0  0  0  0  0
  2  1  1  0
  3  4  1  0
  3  2  1  0
  4  5  1  0
  5  1  1  0
  5  6  1  1
  7  6  2  0
  8  9  1  0
  9 10  2  0
  9 11  1  0
 11 12  1  0
 13 12  1  6
 13 15  1  0
 13 14  1  0
 14  6  1  0
 15 23  1  0
 16 15  2  0
 18 17  1  0
 19 18  2  0
 20 18  1  0
 21 20  1  0
 22 21  1  1
 23 22  1  0
 24 25  1  0
 24 22  1  0
 26 24  2  0
M  END
$$$$
