PQQ.pdb
     RDKit          3D

 26 26  0  0  1  0  0  0  0  0999 V2000
    8.0088  -15.2554   19.4764 N   0  0  0  0  0  0  0  0  0  0  0  0
    8.1470  -14.4407   18.2566 C   0  0  0  0  0  0  0  0  0  0  0  0
    7.3287  -13.1862   18.5560 C   0  0  0  0  0  0  0  0  0  0  0  0
    7.1702  -13.1917   20.0507 C   0  0  0  0  0  0  0  0  0  0  0  0
    8.1769  -14.2275   20.4888 C   0  0  1  0  0  0  0  0  0  0  0  0
    7.9042  -14.7402   21.8503 C   0  0  0  0  0  0  0  0  0  0  0  0
    7.9485  -13.9255   22.8082 O   0  0  0  0  0  0  0  0  0  0  0  0
    5.3331  -20.3538   22.4831 N   0  0  0  0  0  0  0  0  0  0  0  0
    5.6593  -20.1091   23.8438 C   0  0  0  0  0  0  0  0  0  0  0  0
    5.3720  -20.9700   24.7027 O   0  0  0  0  0  0  0  0  0  0  0  0
    6.3221  -18.8725   24.2070 C   0  0  0  0  0  0  0  0  0  0  0  0
    6.6079  -17.8733   23.1689 C   0  0  0  0  0  0  0  0  0  0  0  0
    7.3432  -16.6356   23.4577 C   0  0  2  0  0  0  0  0  0  0  0  0
    7.6065  -16.0836   22.0741 N   0  0  0  0  0  0  0  0  0  0  0  0
    8.6314  -16.6274   24.1000 C   0  0  0  0  0  0  0  0  0  0  0  0
    9.6929  -16.6833   23.4008 O   0  0  0  0  0  0  0  0  0  0  0  0
   10.3682  -13.0901   28.9689 N   0  0  0  0  0  0  0  0  0  0  0  0
   10.2364  -14.4877   29.3419 C   0  0  0  0  0  0  0  0  0  0  0  0
   10.1574  -14.6504   30.5969 O   0  0  0  0  0  0  0  0  0  0  0  0
   10.2162  -15.5401   28.3587 C   0  0  0  0  0  0  0  0  0  0  0  0
   10.3578  -15.3366   26.9314 C   0  0  0  0  0  0  0  0  0  0  0  0
   10.2969  -16.4931   26.0007 C   0  0  2  0  0  0  0  0  0  0  0  0
    8.8750  -16.5479   25.5051 N   0  0  0  0  0  0  0  0  0  0  0  0
   10.4194  -17.7760   26.7122 C   0  0  0  0  0  0  0  0  0  0  0  0
   11.6719  -18.2680   27.0957 O   0  0  0  0  0  0  0  0  0  0  0  0
    9.4576  -18.4883   27.0087 O   0  0  0  0  0  0  0  0  0  0  0  0
  2  1  1  0
  3  4  1  0
  3  2  1  0
  4  5  1  0
  5  1  1  0
  5  6  1  1
  7  6  2  0
  8  9  1  0
  9 10  2  0
  9 11  1  0
 11 12  1  0
 13 12  1  6
 13 15  1  0
 13 14  1  0
 14  6  1  0
 15 23  1  0
 16 15  2  0
 18 17  1  0
 19 18  2  0
 20 18  1  0
 21 20  1  0
 22 21  1  1
 23 22  1  0
 24 25  1  0
 24 22  1  0
 26 24  2  0
M  END
$$$$
