PQQ.pdb
     RDKit          3D

 26 26  0  0  1  0  0  0  0  0999 V2000
    8.3469  -15.2381   19.0434 N   0  0  0  0  0  0  0  0  0  0  0  0
    8.6078  -14.4568   17.8219 C   0  0  0  0  0  0  0  0  0  0  0  0
    7.8111  -13.1703   18.0295 C   0  0  0  0  0  0  0  0  0  0  0  0
    7.5354  -13.1361   19.5067 C   0  0  0  0  0  0  0  0  0  0  0  0
    8.4692  -14.1929   20.0446 C   0  0  1  0  0  0  0  0  0  0  0  0
    8.0733  -14.6649   21.3904 C   0  0  0  0  0  0  0  0  0  0  0  0
    8.1199  -13.8431   22.3421 O   0  0  0  0  0  0  0  0  0  0  0  0
    7.2256  -20.3520   22.9652 N   0  0  0  0  0  0  0  0  0  0  0  0
    6.1810  -19.8455   23.7837 C   0  0  0  0  0  0  0  0  0  0  0  0
    5.6974  -20.5762   24.6745 O   0  0  0  0  0  0  0  0  0  0  0  0
    5.7024  -18.4937   23.5740 C   0  0  0  0  0  0  0  0  0  0  0  0
    6.3559  -17.6427   22.5709 C   0  0  0  0  0  0  0  0  0  0  0  0
    7.1315  -16.4525   22.9425 C   0  0  2  0  0  0  0  0  0  0  0  0
    7.6597  -15.9786   21.6065 N   0  0  0  0  0  0  0  0  0  0  0  0
    8.2946  -16.5143   23.7884 C   0  0  0  0  0  0  0  0  0  0  0  0
    9.4506  -16.6499   23.2742 O   0  0  0  0  0  0  0  0  0  0  0  0
    9.0087  -13.3497   29.3447 N   0  0  0  0  0  0  0  0  0  0  0  0
   10.1333  -14.2634   29.2448 C   0  0  0  0  0  0  0  0  0  0  0  0
   10.9069  -14.1935   30.2470 O   0  0  0  0  0  0  0  0  0  0  0  0
   10.3153  -15.1260   28.1056 C   0  0  0  0  0  0  0  0  0  0  0  0
    9.3564  -15.2852   27.0316 C   0  0  0  0  0  0  0  0  0  0  0  0
    9.6251  -16.2374   25.9232 C   0  0  2  0  0  0  0  0  0  0  0  0
    8.3091  -16.4249   25.2137 N   0  0  0  0  0  0  0  0  0  0  0  0
    9.8967  -17.5957   26.4216 C   0  0  0  0  0  0  0  0  0  0  0  0
   11.2078  -18.0288   26.6484 O   0  0  0  0  0  0  0  0  0  0  0  0
    9.0163  -18.4242   26.6639 O   0  0  0  0  0  0  0  0  0  0  0  0
  2  1  1  0
  3  4  1  0
  3  2  1  0
  4  5  1  0
  5  1  1  0
  5  6  1  1
  7  6  2  0
  8  9  1  0
  9 10  2  0
  9 11  1  0
 11 12  1  0
 13 12  1  6
 13 15  1  0
 13 14  1  0
 14  6  1  0
 15 23  1  0
 16 15  2  0
 18 17  1  0
 19 18  2  0
 20 18  1  0
 21 20  1  0
 22 21  1  1
 23 22  1  0
 24 25  1  0
 24 22  1  0
 26 24  2  0
M  END
$$$$
