PQQ.pdb
     RDKit          3D

 26 26  0  0  1  0  0  0  0  0999 V2000
    8.6199  -15.4507   18.9554 N   0  0  0  0  0  0  0  0  0  0  0  0
    9.0434  -14.7769   17.7155 C   0  0  0  0  0  0  0  0  0  0  0  0
    8.1522  -13.5384   17.6456 C   0  0  0  0  0  0  0  0  0  0  0  0
    7.6246  -13.3786   19.0439 C   0  0  0  0  0  0  0  0  0  0  0  0
    8.5092  -14.3054   19.8419 C   0  0  1  0  0  0  0  0  0  0  0  0
    7.9141  -14.6698   21.1472 C   0  0  0  0  0  0  0  0  0  0  0  0
    7.7139  -13.7503   21.9826 O   0  0  0  0  0  0  0  0  0  0  0  0
    6.3676  -18.5721   25.9780 N   0  0  0  0  0  0  0  0  0  0  0  0
    6.6719  -19.0531   24.6765 C   0  0  0  0  0  0  0  0  0  0  0  0
    7.6069  -19.8694   24.5327 O   0  0  0  0  0  0  0  0  0  0  0  0
    5.8906  -18.5934   23.5457 C   0  0  0  0  0  0  0  0  0  0  0  0
    6.5302  -17.7685   22.5123 C   0  0  0  0  0  0  0  0  0  0  0  0
    6.9448  -16.3828   22.7650 C   0  0  2  0  0  0  0  0  0  0  0  0
    7.5823  -15.9894   21.4508 N   0  0  0  0  0  0  0  0  0  0  0  0
    7.9246  -16.0327   23.7598 C   0  0  0  0  0  0  0  0  0  0  0  0
    9.1644  -16.1748   23.5113 O   0  0  0  0  0  0  0  0  0  0  0  0
    6.8504  -11.6313   28.2221 N   0  0  0  0  0  0  0  0  0  0  0  0
    6.2981  -12.1927   27.0017 C   0  0  0  0  0  0  0  0  0  0  0  0
    5.1920  -11.6628   26.6801 O   0  0  0  0  0  0  0  0  0  0  0  0
    6.9638  -13.2450   26.2777 C   0  0  0  0  0  0  0  0  0  0  0  0
    8.2396  -13.8215   26.6502 C   0  0  0  0  0  0  0  0  0  0  0  0
    8.8002  -14.9604   25.8783 C   0  0  2  0  0  0  0  0  0  0  0  0
    7.6582  -15.5046   25.0598 N   0  0  0  0  0  0  0  0  0  0  0  0
    9.1230  -16.1046   26.7464 C   0  0  0  0  0  0  0  0  0  0  0  0
   10.2635  -16.0922   27.5570 O   0  0  0  0  0  0  0  0  0  0  0  0
    8.4350  -17.1255   26.8165 O   0  0  0  0  0  0  0  0  0  0  0  0
  2  1  1  0
  3  4  1  0
  3  2  1  0
  4  5  1  0
  5  1  1  0
  5  6  1  1
  7  6  2  0
  8  9  1  0
  9 10  2  0
  9 11  1  0
 11 12  1  0
 13 12  1  6
 13 15  1  0
 13 14  1  0
 14  6  1  0
 15 23  1  0
 16 15  2  0
 18 17  1  0
 19 18  2  0
 20 18  1  0
 21 20  1  0
 22 21  1  1
 23 22  1  0
 24 25  1  0
 24 22  1  0
 26 24  2  0
M  END
$$$$
