PQQ.pdb
     RDKit          3D

 26 26  0  0  1  0  0  0  0  0999 V2000
    9.0823  -13.8224   18.8953 N   0  0  0  0  0  0  0  0  0  0  0  0
    8.5813  -12.5715   18.2996 C   0  0  0  0  0  0  0  0  0  0  0  0
    7.0850  -12.5903   18.6056 C   0  0  0  0  0  0  0  0  0  0  0  0
    6.9424  -13.6002   19.7097 C   0  0  0  0  0  0  0  0  0  0  0  0
    8.3683  -13.8052   20.1601 C   0  0  1  0  0  0  0  0  0  0  0  0
    8.5468  -15.0659   20.9149 C   0  0  0  0  0  0  0  0  0  0  0  0
    7.8278  -15.2533   21.9304 O   0  0  0  0  0  0  0  0  0  0  0  0
   12.3213  -20.3686   18.6878 N   0  0  0  0  0  0  0  0  0  0  0  0
   12.2635  -19.7421   19.9613 C   0  0  0  0  0  0  0  0  0  0  0  0
   13.3292  -19.4618   20.5504 O   0  0  0  0  0  0  0  0  0  0  0  0
   10.9739  -19.4360   20.5476 C   0  0  0  0  0  0  0  0  0  0  0  0
   10.3073  -18.1717   20.2089 C   0  0  0  0  0  0  0  0  0  0  0  0
    9.6179  -17.3576   21.2179 C   0  0  2  0  0  0  0  0  0  0  0  0
    9.4810  -16.0225   20.5201 N   0  0  0  0  0  0  0  0  0  0  0  0
   10.2035  -17.0390   22.4937 C   0  0  0  0  0  0  0  0  0  0  0  0
   10.9796  -16.0371   22.6067 O   0  0  0  0  0  0  0  0  0  0  0  0
    8.2799  -18.3344   28.6396 N   0  0  0  0  0  0  0  0  0  0  0  0
    8.3214  -19.1348   27.4283 C   0  0  0  0  0  0  0  0  0  0  0  0
    7.5431  -20.1345   27.4795 O   0  0  0  0  0  0  0  0  0  0  0  0
    9.1792  -18.7979   26.3213 C   0  0  0  0  0  0  0  0  0  0  0  0
    9.7272  -17.4796   26.0757 C   0  0  0  0  0  0  0  0  0  0  0  0
   10.6921  -17.2649   24.9665 C   0  0  2  0  0  0  0  0  0  0  0  0
    9.9975  -17.7444   23.7183 N   0  0  0  0  0  0  0  0  0  0  0  0
   11.8366  -18.1870   25.0496 C   0  0  0  0  0  0  0  0  0  0  0  0
   13.1306  -17.7070   25.2800 O   0  0  0  0  0  0  0  0  0  0  0  0
   11.7405  -19.4097   24.9226 O   0  0  0  0  0  0  0  0  0  0  0  0
  2  1  1  0
  3  4  1  0
  3  2  1  0
  4  5  1  0
  5  1  1  0
  5  6  1  6
  7  6  2  0
  8  9  1  0
  9 10  2  0
  9 11  1  0
 11 12  1  0
 13 12  1  6
 13 15  1  0
 13 14  1  0
 14  6  1  0
 15 23  1  0
 16 15  2  0
 18 17  1  0
 19 18  2  0
 20 18  1  0
 21 20  1  0
 22 21  1  1
 23 22  1  0
 24 25  1  0
 24 22  1  0
 26 24  2  0
M  END
$$$$
