PQQ.pdb
     RDKit          3D

 26 26  0  0  1  0  0  0  0  0999 V2000
    8.7015  -15.3029   18.9453 N   0  0  0  0  0  0  0  0  0  0  0  0
    8.9745  -14.4137   17.8027 C   0  0  0  0  0  0  0  0  0  0  0  0
    7.8279  -13.4053   17.8375 C   0  0  0  0  0  0  0  0  0  0  0  0
    7.2639  -13.5289   19.2253 C   0  0  0  0  0  0  0  0  0  0  0  0
    8.3267  -14.3207   19.9476 C   0  0  1  0  0  0  0  0  0  0  0  0
    7.8161  -14.9562   21.1831 C   0  0  0  0  0  0  0  0  0  0  0  0
    7.3693  -14.2082   22.0910 O   0  0  0  0  0  0  0  0  0  0  0  0
    4.8504  -19.8876   22.0287 N   0  0  0  0  0  0  0  0  0  0  0  0
    5.7412  -20.1861   23.0941 C   0  0  0  0  0  0  0  0  0  0  0  0
    5.4053  -21.0335   23.9487 O   0  0  0  0  0  0  0  0  0  0  0  0
    7.0203  -19.5085   23.1652 C   0  0  0  0  0  0  0  0  0  0  0  0
    7.3280  -18.4417   22.2034 C   0  0  0  0  0  0  0  0  0  0  0  0
    7.2209  -17.0197   22.5536 C   0  0  2  0  0  0  0  0  0  0  0  0
    7.8260  -16.3408   21.3448 N   0  0  0  0  0  0  0  0  0  0  0  0
    7.9118  -16.4404   23.6757 C   0  0  0  0  0  0  0  0  0  0  0  0
    9.1616  -16.2118   23.6062 O   0  0  0  0  0  0  0  0  0  0  0  0
    5.4518  -11.5900   26.7561 N   0  0  0  0  0  0  0  0  0  0  0  0
    6.6258  -11.9373   27.5376 C   0  0  0  0  0  0  0  0  0  0  0  0
    6.9463  -11.0296   28.3629 O   0  0  0  0  0  0  0  0  0  0  0  0
    7.3247  -13.1828   27.3504 C   0  0  0  0  0  0  0  0  0  0  0  0
    6.9933  -14.1698   26.3430 C   0  0  0  0  0  0  0  0  0  0  0  0
    8.0471  -15.0612   25.7933 C   0  0  2  0  0  0  0  0  0  0  0  0
    7.3287  -16.0592   24.9225 N   0  0  0  0  0  0  0  0  0  0  0  0
    8.6281  -15.9279   26.8317 C   0  0  0  0  0  0  0  0  0  0  0  0
    9.7772  -15.5410   27.5301 O   0  0  0  0  0  0  0  0  0  0  0  0
    8.1606  -17.0242   27.1479 O   0  0  0  0  0  0  0  0  0  0  0  0
  2  1  1  0
  3  4  1  0
  3  2  1  0
  4  5  1  0
  5  1  1  0
  5  6  1  1
  7  6  2  0
  8  9  1  0
  9 10  2  0
  9 11  1  0
 11 12  1  0
 13 12  1  6
 13 15  1  0
 13 14  1  0
 14  6  1  0
 15 23  1  0
 16 15  2  0
 18 17  1  0
 19 18  2  0
 20 18  1  0
 21 20  1  0
 22 21  1  1
 23 22  1  0
 24 25  1  0
 24 22  1  0
 26 24  2  0
M  END
$$$$
