PQQ.pdb
     RDKit          3D

 26 26  0  0  1  0  0  0  0  0999 V2000
    8.5746  -14.9277   19.0965 N   0  0  0  0  0  0  0  0  0  0  0  0
    8.7715  -13.9384   18.0227 C   0  0  0  0  0  0  0  0  0  0  0  0
    7.7633  -12.8374   18.3457 C   0  0  0  0  0  0  0  0  0  0  0  0
    7.4031  -13.0719   19.7860 C   0  0  0  0  0  0  0  0  0  0  0  0
    8.4664  -14.0412   20.2420 C   0  0  1  0  0  0  0  0  0  0  0  0
    8.0785  -14.7684   21.4715 C   0  0  0  0  0  0  0  0  0  0  0  0
    7.8750  -14.0966   22.5159 O   0  0  0  0  0  0  0  0  0  0  0  0
    4.2132  -19.1296   22.2361 N   0  0  0  0  0  0  0  0  0  0  0  0
    5.1938  -19.6375   23.1296 C   0  0  0  0  0  0  0  0  0  0  0  0
    4.8299  -20.3386   24.0978 O   0  0  0  0  0  0  0  0  0  0  0  0
    6.5928  -19.3385   22.8978 C   0  0  0  0  0  0  0  0  0  0  0  0
    6.9576  -18.1744   22.0797 C   0  0  0  0  0  0  0  0  0  0  0  0
    7.3979  -16.9073   22.6769 C   0  0  2  0  0  0  0  0  0  0  0  0
    7.9403  -16.1556   21.4815 N   0  0  0  0  0  0  0  0  0  0  0  0
    8.4497  -16.8327   23.6569 C   0  0  0  0  0  0  0  0  0  0  0  0
    9.6670  -16.8283   23.2866 O   0  0  0  0  0  0  0  0  0  0  0  0
    8.6770  -13.3039   28.9663 N   0  0  0  0  0  0  0  0  0  0  0  0
    9.7526  -14.2720   29.0913 C   0  0  0  0  0  0  0  0  0  0  0  0
   10.5166  -14.0255   30.0727 O   0  0  0  0  0  0  0  0  0  0  0  0
    9.9024  -15.3680   28.1687 C   0  0  0  0  0  0  0  0  0  0  0  0
    9.0640  -15.5878   27.0079 C   0  0  0  0  0  0  0  0  0  0  0  0
    9.4927  -16.5308   25.9428 C   0  0  2  0  0  0  0  0  0  0  0  0
    8.2817  -16.7465   25.0726 N   0  0  0  0  0  0  0  0  0  0  0  0
    9.7304  -17.8837   26.4720 C   0  0  0  0  0  0  0  0  0  0  0  0
    8.7347  -18.8648   26.4092 O   0  0  0  0  0  0  0  0  0  0  0  0
   10.7894  -18.2372   26.9954 O   0  0  0  0  0  0  0  0  0  0  0  0
  2  1  1  0
  3  4  1  0
  3  2  1  0
  4  5  1  0
  5  1  1  0
  5  6  1  1
  7  6  2  0
  8  9  1  0
  9 10  2  0
  9 11  1  0
 11 12  1  0
 13 12  1  6
 13 15  1  0
 13 14  1  0
 14  6  1  0
 15 23  1  0
 16 15  2  0
 18 17  1  0
 19 18  2  0
 20 18  1  0
 21 20  1  0
 22 21  1  1
 23 22  1  0
 24 25  1  0
 24 22  1  0
 26 24  2  0
M  END
$$$$
