MCP.pdb
     RDKit          3D

 22 22  0  0  1  0  0  0  0  0999 V2000
    7.2581  -12.1692   18.3189 C   0  0  0  0  0  0  0  0  0  0  0  0
    8.6366  -12.3636   19.4789 S   0  0  0  0  0  0  0  0  0  0  0  0
    8.2491  -13.5911   20.7527 C   0  0  0  0  0  0  0  0  0  0  0  0
    7.2598  -14.6291   20.2386 C   0  0  0  0  0  0  0  0  0  0  0  0
    7.5764  -15.9160   20.9629 C   0  0  2  0  0  0  0  0  0  0  0  0
    6.6864  -16.9268   20.4328 N   0  0  0  0  0  0  0  0  0  0  0  0
    7.4075  -15.8264   22.4112 C   0  0  0  0  0  0  0  0  0  0  0  0
    6.3718  -15.2711   22.8619 O   0  0  0  0  0  0  0  0  0  0  0  0
    8.3061  -16.3090   23.3690 N   0  0  0  0  0  0  0  0  0  0  0  0
    7.9947  -16.3201   24.7802 C   0  0  1  0  0  0  0  0  0  0  0  0
    7.3550  -17.6139   25.2031 C   0  0  0  0  0  0  0  0  0  0  0  0
    7.2366  -17.6748   27.0374 S   0  0  0  0  0  0  0  0  0  0  0  0
    9.2086  -16.1039   25.5965 C   0  0  0  0  0  0  0  0  0  0  0  0
   10.2902  -16.5888   25.1095 O   0  0  0  0  0  0  0  0  0  0  0  0
    9.1926  -15.4177   26.8164 N   0  0  0  0  0  0  0  0  0  0  0  0
    8.1042  -14.8575   27.5576 C   0  0  0  0  0  0  0  0  0  0  0  0
    8.6968  -13.6311   28.2799 C   0  0  0  0  0  0  0  0  0  0  0  0
   10.1637  -13.6561   27.9115 C   0  0  0  0  0  0  0  0  0  0  0  0
   10.3807  -15.1230   27.6043 C   0  0  1  0  0  0  0  0  0  0  0  0
   10.4244  -15.8543   28.8828 C   0  0  0  0  0  0  0  0  0  0  0  0
    9.4524  -16.6203   29.1415 O   0  0  0  0  0  0  0  0  0  0  0  0
   11.4209  -15.7853   29.8253 O   0  0  0  0  0  0  0  0  0  0  0  0
  2  1  1  0
  3  4  1  0
  3  2  1  0
  4  5  1  0
  5  7  1  0
  5  6  1  6
  7  8  2  0
  9  7  1  0
  9 10  1  0
 10 13  1  0
 10 11  1  1
 12 11  1  0
 13 14  2  0
 13 15  1  0
 15 16  1  0
 16 17  1  0
 18 17  1  0
 19 15  1  0
 19 18  1  0
 19 20  1  1
 21 20  2  0
 22 20  1  0
M  END
$$$$
