MCP.pdb
     RDKit          3D

 22 22  0  0  1  0  0  0  0  0999 V2000
    8.4804  -11.9081   19.3990 C   0  0  0  0  0  0  0  0  0  0  0  0
    7.1871  -13.1677   19.2418 S   0  0  0  0  0  0  0  0  0  0  0  0
    7.8556  -14.8274   19.5200 C   0  0  0  0  0  0  0  0  0  0  0  0
    8.9418  -14.8150   20.5880 C   0  0  0  0  0  0  0  0  0  0  0  0
    8.3949  -15.5918   21.7621 C   0  0  2  0  0  0  0  0  0  0  0  0
    7.0221  -15.9226   21.4447 N   0  0  0  0  0  0  0  0  0  0  0  0
    8.4416  -14.8536   23.0220 C   0  0  0  0  0  0  0  0  0  0  0  0
    9.1968  -13.8500   23.1024 O   0  0  0  0  0  0  0  0  0  0  0  0
    7.7112  -15.1608   24.1752 N   0  0  0  0  0  0  0  0  0  0  0  0
    8.0662  -14.6353   25.4739 C   0  0  1  0  0  0  0  0  0  0  0  0
    6.8833  -14.5860   26.4013 C   0  0  0  0  0  0  0  0  0  0  0  0
    5.6579  -13.3651   25.7765 S   0  0  0  0  0  0  0  0  0  0  0  0
    9.1288  -15.4468   26.1058 C   0  0  0  0  0  0  0  0  0  0  0  0
    9.6165  -16.3779   25.3728 O   0  0  0  0  0  0  0  0  0  0  0  0
    9.5817  -15.2232   27.4112 N   0  0  0  0  0  0  0  0  0  0  0  0
    9.1130  -14.3232   28.4202 C   0  0  0  0  0  0  0  0  0  0  0  0
   10.3662  -13.9392   29.2320 C   0  0  0  0  0  0  0  0  0  0  0  0
   11.4759  -14.7590   28.6121 C   0  0  0  0  0  0  0  0  0  0  0  0
   10.7074  -15.9201   28.0166 C   0  0  1  0  0  0  0  0  0  0  0  0
   10.3106  -16.8157   29.1174 C   0  0  0  0  0  0  0  0  0  0  0  0
   11.2347  -17.4395   29.7137 O   0  0  0  0  0  0  0  0  0  0  0  0
    9.0307  -17.0409   29.5612 O   0  0  0  0  0  0  0  0  0  0  0  0
  2  1  1  0
  3  4  1  0
  3  2  1  0
  4  5  1  0
  5  7  1  0
  5  6  1  6
  7  8  2  0
  9  7  1  0
  9 10  1  0
 10 13  1  0
 10 11  1  1
 12 11  1  0
 13 14  2  0
 13 15  1  0
 15 16  1  0
 16 17  1  0
 18 17  1  0
 19 15  1  0
 19 18  1  0
 19 20  1  1
 21 20  2  0
 22 20  1  0
M  END
$$$$
