MCP.pdb
     RDKit          3D

 22 22  0  0  1  0  0  0  0  0999 V2000
    7.4357  -11.0373   26.7251 C   0  0  0  0  0  0  0  0  0  0  0  0
    7.0649  -12.4042   27.8556 S   0  0  0  0  0  0  0  0  0  0  0  0
    6.3526  -13.8115   26.9661 C   0  0  0  0  0  0  0  0  0  0  0  0
    7.2310  -14.2269   25.7928 C   0  0  0  0  0  0  0  0  0  0  0  0
    6.5122  -15.3614   25.1020 C   0  0  2  0  0  0  0  0  0  0  0  0
    6.7381  -16.5489   25.8979 N   0  0  0  0  0  0  0  0  0  0  0  0
    6.9699  -15.5946   23.7344 C   0  0  0  0  0  0  0  0  0  0  0  0
    7.4724  -16.7133   23.4518 O   0  0  0  0  0  0  0  0  0  0  0  0
    6.9026  -14.6736   22.6832 N   0  0  0  0  0  0  0  0  0  0  0  0
    7.5067  -14.9297   21.3955 C   0  0  1  0  0  0  0  0  0  0  0  0
    7.5269  -13.6993   20.5309 C   0  0  0  0  0  0  0  0  0  0  0  0
    8.6004  -13.9901   19.0661 S   0  0  0  0  0  0  0  0  0  0  0  0
    8.8920  -15.4253   21.5448 C   0  0  0  0  0  0  0  0  0  0  0  0
    9.5605  -14.9026   22.5050 O   0  0  0  0  0  0  0  0  0  0  0  0
    9.4463  -16.3983   20.7051 N   0  0  0  0  0  0  0  0  0  0  0  0
    8.9004  -17.0663   19.5634 C   0  0  0  0  0  0  0  0  0  0  0  0
    9.5418  -18.4682   19.5712 C   0  0  0  0  0  0  0  0  0  0  0  0
   10.4960  -18.4336   20.7444 C   0  0  0  0  0  0  0  0  0  0  0  0
   10.7832  -16.9516   20.8660 C   0  0  1  0  0  0  0  0  0  0  0  0
   11.7014  -16.5749   19.7769 C   0  0  0  0  0  0  0  0  0  0  0  0
   12.8894  -17.0010   19.8521 O   0  0  0  0  0  0  0  0  0  0  0  0
   11.3929  -15.8031   18.6837 O   0  0  0  0  0  0  0  0  0  0  0  0
  2  1  1  0
  3  4  1  0
  3  2  1  0
  4  5  1  0
  5  7  1  0
  5  6  1  1
  7  8  2  0
  9  7  1  0
  9 10  1  0
 10 13  1  0
 10 11  1  6
 12 11  1  0
 13 14  2  0
 13 15  1  0
 15 16  1  0
 16 17  1  0
 18 17  1  0
 19 15  1  0
 19 18  1  0
 19 20  1  6
 21 20  2  0
 22 20  1  0
M  END
$$$$
