MCP.pdb
     RDKit          3D

 22 22  0  0  1  0  0  0  0  0999 V2000
    6.6154  -12.0487   26.4645 C   0  0  0  0  0  0  0  0  0  0  0  0
    7.7476  -13.0836   27.4294 S   0  0  0  0  0  0  0  0  0  0  0  0
    7.7171  -14.7991   26.8505 C   0  0  0  0  0  0  0  0  0  0  0  0
    6.4181  -15.1137   26.1194 C   0  0  0  0  0  0  0  0  0  0  0  0
    6.5057  -16.5611   25.6971 C   0  0  2  0  0  0  0  0  0  0  0  0
    7.0762  -17.2900   26.8097 N   0  0  0  0  0  0  0  0  0  0  0  0
    7.3221  -16.7717   24.5040 C   0  0  0  0  0  0  0  0  0  0  0  0
    8.1036  -17.7579   24.4774 O   0  0  0  0  0  0  0  0  0  0  0  0
    7.3200  -15.9648   23.3609 N   0  0  0  0  0  0  0  0  0  0  0  0
    8.1851  -16.2255   22.2330 C   0  0  1  0  0  0  0  0  0  0  0  0
    8.0146  -15.1997   21.1465 C   0  0  0  0  0  0  0  0  0  0  0  0
    7.7606  -13.5400   21.8971 S   0  0  0  0  0  0  0  0  0  0  0  0
    9.6056  -16.2475   22.6436 C   0  0  0  0  0  0  0  0  0  0  0  0
    9.8688  -15.6380   23.7396 O   0  0  0  0  0  0  0  0  0  0  0  0
   10.6029  -16.8874   21.8985 N   0  0  0  0  0  0  0  0  0  0  0  0
   10.5416  -17.5469   20.6300 C   0  0  0  0  0  0  0  0  0  0  0  0
   11.5976  -18.6676   20.7065 C   0  0  0  0  0  0  0  0  0  0  0  0
   12.2398  -18.4808   22.0632 C   0  0  0  0  0  0  0  0  0  0  0  0
   11.9896  -17.0101   22.3242 C   0  0  1  0  0  0  0  0  0  0  0  0
   12.9233  -16.2342   21.4889 C   0  0  0  0  0  0  0  0  0  0  0  0
   12.5182  -15.8876   20.3424 O   0  0  0  0  0  0  0  0  0  0  0  0
   14.1954  -15.8492   21.8342 O   0  0  0  0  0  0  0  0  0  0  0  0
  2  1  1  0
  3  4  1  0
  3  2  1  0
  4  5  1  0
  5  7  1  0
  5  6  1  1
  7  8  2  0
  9  7  1  0
  9 10  1  0
 10 13  1  0
 10 11  1  6
 12 11  1  0
 13 14  2  0
 13 15  1  0
 15 16  1  0
 16 17  1  0
 18 17  1  0
 19 15  1  0
 19 18  1  0
 19 20  1  6
 21 20  2  0
 22 20  1  0
M  END
$$$$
