MCP.pdb
     RDKit          3D

 22 22  0  0  1  0  0  0  0  0999 V2000
    8.8449  -13.8767   29.4041 C   0  0  0  0  0  0  0  0  0  0  0  0
    9.8202  -15.1901   28.6247 S   0  0  0  0  0  0  0  0  0  0  0  0
    9.1981  -16.8266   29.0872 C   0  0  0  0  0  0  0  0  0  0  0  0
    7.8126  -17.0769   28.5055 C   0  0  0  0  0  0  0  0  0  0  0  0
    7.9955  -17.2195   27.0131 C   0  0  2  0  0  0  0  0  0  0  0  0
    9.4162  -17.1264   26.7528 N   0  0  0  0  0  0  0  0  0  0  0  0
    7.2886  -16.2018   26.2394 C   0  0  0  0  0  0  0  0  0  0  0  0
    6.0311  -16.2401   26.2039 O   0  0  0  0  0  0  0  0  0  0  0  0
    7.8874  -15.1639   25.5168 N   0  0  0  0  0  0  0  0  0  0  0  0
    7.2702  -14.5861   24.3447 C   0  0  1  0  0  0  0  0  0  0  0  0
    7.4693  -13.0967   24.2827 C   0  0  0  0  0  0  0  0  0  0  0  0
    7.2031  -12.3670   25.9498 S   0  0  0  0  0  0  0  0  0  0  0  0
    7.8098  -15.1872   23.1060 C   0  0  0  0  0  0  0  0  0  0  0  0
    8.1248  -16.4264   23.1902 O   0  0  0  0  0  0  0  0  0  0  0  0
    7.9685  -14.4657   21.9171 N   0  0  0  0  0  0  0  0  0  0  0  0
    7.7602  -13.0789   21.6323 C   0  0  0  0  0  0  0  0  0  0  0  0
    7.3085  -13.0329   20.1589 C   0  0  0  0  0  0  0  0  0  0  0  0
    7.3745  -14.4744   19.7051 C   0  0  0  0  0  0  0  0  0  0  0  0
    8.4014  -15.0517   20.6568 C   0  0  1  0  0  0  0  0  0  0  0  0
    9.7321  -14.5862   20.2278 C   0  0  0  0  0  0  0  0  0  0  0  0
   10.2507  -13.6395   20.8862 O   0  0  0  0  0  0  0  0  0  0  0  0
   10.4674  -15.0810   19.1789 O   0  0  0  0  0  0  0  0  0  0  0  0
  2  1  1  0
  3  4  1  0
  3  2  1  0
  4  5  1  0
  5  7  1  0
  5  6  1  1
  7  8  2  0
  9  7  1  0
  9 10  1  0
 10 13  1  0
 10 11  1  6
 12 11  1  0
 13 14  2  0
 13 15  1  0
 15 16  1  0
 16 17  1  0
 18 17  1  0
 19 15  1  0
 19 18  1  0
 19 20  1  6
 21 20  2  0
 22 20  1  0
M  END
$$$$
