MCP.pdb
     RDKit          3D

 22 22  0  0  1  0  0  0  0  0999 V2000
    8.3748  -11.5930   19.6499 C   0  0  0  0  0  0  0  0  0  0  0  0
    8.3377  -12.9383   18.4365 S   0  0  0  0  0  0  0  0  0  0  0  0
    8.2195  -14.5503   19.2530 C   0  0  0  0  0  0  0  0  0  0  0  0
    7.5692  -14.4294   20.6252 C   0  0  0  0  0  0  0  0  0  0  0  0
    7.6290  -15.8038   21.2486 C   0  0  2  0  0  0  0  0  0  0  0  0
    6.6294  -16.6113   20.5829 N   0  0  0  0  0  0  0  0  0  0  0  0
    7.3779  -15.8024   22.6878 C   0  0  0  0  0  0  0  0  0  0  0  0
    6.2624  -15.3929   23.1023 O   0  0  0  0  0  0  0  0  0  0  0  0
    8.2779  -16.2219   23.6735 N   0  0  0  0  0  0  0  0  0  0  0  0
    8.0974  -15.8956   25.0698 C   0  0  1  0  0  0  0  0  0  0  0  0
    7.0292  -16.7394   25.7093 C   0  0  0  0  0  0  0  0  0  0  0  0
    7.5594  -18.5004   25.7260 S   0  0  0  0  0  0  0  0  0  0  0  0
    9.3556  -16.0724   25.8264 C   0  0  0  0  0  0  0  0  0  0  0  0
   10.2646  -16.7488   25.2279 O   0  0  0  0  0  0  0  0  0  0  0  0
    9.5544  -15.5417   27.1063 N   0  0  0  0  0  0  0  0  0  0  0  0
    8.6583  -14.8436   27.9765 C   0  0  0  0  0  0  0  0  0  0  0  0
    9.5472  -13.8670   28.7721 C   0  0  0  0  0  0  0  0  0  0  0  0
   10.9508  -14.1718   28.2976 C   0  0  0  0  0  0  0  0  0  0  0  0
   10.8152  -15.6063   27.8313 C   0  0  1  0  0  0  0  0  0  0  0  0
   10.7543  -16.4690   29.0243 C   0  0  0  0  0  0  0  0  0  0  0  0
    9.6300  -16.9678   29.3174 O   0  0  0  0  0  0  0  0  0  0  0  0
   11.8026  -16.7858   29.8530 O   0  0  0  0  0  0  0  0  0  0  0  0
  2  1  1  0
  3  4  1  0
  3  2  1  0
  4  5  1  0
  5  7  1  0
  5  6  1  6
  7  8  2  0
  9  7  1  0
  9 10  1  0
 10 13  1  0
 10 11  1  1
 12 11  1  0
 13 14  2  0
 13 15  1  0
 15 16  1  0
 16 17  1  0
 18 17  1  0
 19 15  1  0
 19 18  1  0
 19 20  1  1
 21 20  2  0
 22 20  1  0
M  END
$$$$
