MCP.pdb
     RDKit          3D

 22 22  0  0  1  0  0  0  0  0999 V2000
   10.9048  -13.7883   27.7712 C   0  0  0  0  0  0  0  0  0  0  0  0
    9.9043  -14.9165   28.7762 S   0  0  0  0  0  0  0  0  0  0  0  0
   10.1789  -16.6396   28.2915 C   0  0  0  0  0  0  0  0  0  0  0  0
    8.8628  -17.3973   28.1713 C   0  0  0  0  0  0  0  0  0  0  0  0
    8.5910  -17.5492   26.6934 C   0  0  2  0  0  0  0  0  0  0  0  0
    9.8286  -17.2496   26.0053 N   0  0  0  0  0  0  0  0  0  0  0  0
    7.5327  -16.6701   26.2021 C   0  0  0  0  0  0  0  0  0  0  0  0
    6.3363  -17.0359   26.3390 O   0  0  0  0  0  0  0  0  0  0  0  0
    7.7241  -15.4318   25.5793 N   0  0  0  0  0  0  0  0  0  0  0  0
    6.8248  -14.9340   24.5634 C   0  0  1  0  0  0  0  0  0  0  0  0
    6.7426  -13.4323   24.5744 C   0  0  0  0  0  0  0  0  0  0  0  0
    5.7504  -12.8776   26.0202 S   0  0  0  0  0  0  0  0  0  0  0  0
    7.2453  -15.3746   23.2159 C   0  0  0  0  0  0  0  0  0  0  0  0
    7.0471  -16.6140   22.9578 O   0  0  0  0  0  0  0  0  0  0  0  0
    7.8187  -14.5090   22.2771 N   0  0  0  0  0  0  0  0  0  0  0  0
    8.0539  -13.0985   22.3300 C   0  0  0  0  0  0  0  0  0  0  0  0
    7.9224  -12.6125   20.8728 C   0  0  0  0  0  0  0  0  0  0  0  0
    7.6794  -13.8776   20.0800 C   0  0  0  0  0  0  0  0  0  0  0  0
    8.3088  -14.9274   20.9717 C   0  0  1  0  0  0  0  0  0  0  0  0
    9.7724  -14.8187   20.8399 C   0  0  0  0  0  0  0  0  0  0  0  0
   10.2739  -15.1250   19.7204 O   0  0  0  0  0  0  0  0  0  0  0  0
   10.6491  -14.4161   21.8172 O   0  0  0  0  0  0  0  0  0  0  0  0
  2  1  1  0
  3  4  1  0
  3  2  1  0
  4  5  1  0
  5  7  1  0
  5  6  1  6
  7  8  2  0
  9  7  1  0
  9 10  1  0
 10 13  1  0
 10 11  1  6
 12 11  1  0
 13 14  2  0
 13 15  1  0
 15 16  1  0
 16 17  1  0
 18 17  1  0
 19 15  1  0
 19 18  1  0
 19 20  1  1
 21 20  2  0
 22 20  1  0
M  END
$$$$
