MCP.pdb
     RDKit          3D

 22 22  0  0  1  0  0  0  0  0999 V2000
    7.9127  -12.0843   19.1194 C   0  0  0  0  0  0  0  0  0  0  0  0
    7.4164  -13.7662   18.6624 S   0  0  0  0  0  0  0  0  0  0  0  0
    8.1080  -14.9848   19.8095 C   0  0  0  0  0  0  0  0  0  0  0  0
    9.4051  -14.4849   20.4326 C   0  0  0  0  0  0  0  0  0  0  0  0
    9.8311  -15.5344   21.4316 C   0  0  2  0  0  0  0  0  0  0  0  0
    9.2738  -16.7926   20.9831 N   0  0  0  0  0  0  0  0  0  0  0  0
    9.3821  -15.2584   22.7942 C   0  0  0  0  0  0  0  0  0  0  0  0
    9.6921  -14.1564   23.3170 O   0  0  0  0  0  0  0  0  0  0  0  0
    8.6230  -16.1202   23.5935 N   0  0  0  0  0  0  0  0  0  0  0  0
    8.3477  -15.8379   24.9839 C   0  0  1  0  0  0  0  0  0  0  0  0
    7.2049  -16.6631   25.5080 C   0  0  0  0  0  0  0  0  0  0  0  0
    5.9890  -16.9623   24.1609 S   0  0  0  0  0  0  0  0  0  0  0  0
    9.5374  -16.0895   25.8254 C   0  0  0  0  0  0  0  0  0  0  0  0
   10.4992  -16.7056   25.2445 O   0  0  0  0  0  0  0  0  0  0  0  0
    9.6218  -15.6865   27.1632 N   0  0  0  0  0  0  0  0  0  0  0  0
    8.6586  -15.0496   28.0083 C   0  0  0  0  0  0  0  0  0  0  0  0
    9.4840  -14.1756   28.9736 C   0  0  0  0  0  0  0  0  0  0  0  0
   10.9211  -14.4715   28.6059 C   0  0  0  0  0  0  0  0  0  0  0  0
   10.8059  -15.8519   27.9937 C   0  0  1  0  0  0  0  0  0  0  0  0
   10.6160  -16.8207   29.0877 C   0  0  0  0  0  0  0  0  0  0  0  0
    9.4531  -17.2917   29.2441 O   0  0  0  0  0  0  0  0  0  0  0  0
   11.5814  -17.2640   29.9579 O   0  0  0  0  0  0  0  0  0  0  0  0
  2  1  1  0
  3  4  1  0
  3  2  1  0
  4  5  1  0
  5  7  1  0
  5  6  1  6
  7  8  2  0
  9  7  1  0
  9 10  1  0
 10 13  1  0
 10 11  1  1
 12 11  1  0
 13 14  2  0
 13 15  1  0
 15 16  1  0
 16 17  1  0
 18 17  1  0
 19 15  1  0
 19 18  1  0
 19 20  1  1
 21 20  2  0
 22 20  1  0
M  END
$$$$
