MCP.pdb
     RDKit          3D

 22 22  0  0  1  0  0  0  0  0999 V2000
    9.7141  -21.8667   21.7747 C   0  0  0  0  0  0  0  0  0  0  0  0
    8.4796  -23.0670   22.3398 S   0  0  0  0  0  0  0  0  0  0  0  0
    7.1486  -22.2510   23.2572 C   0  0  0  0  0  0  0  0  0  0  0  0
    6.8085  -20.8955   22.6510 C   0  0  0  0  0  0  0  0  0  0  0  0
    5.7498  -20.2846   23.5380 C   0  0  2  0  0  0  0  0  0  0  0  0
    4.4749  -20.8017   23.0885 N   0  0  0  0  0  0  0  0  0  0  0  0
    5.7271  -18.8244   23.4977 C   0  0  0  0  0  0  0  0  0  0  0  0
    5.0311  -18.2587   22.6148 O   0  0  0  0  0  0  0  0  0  0  0  0
    6.4202  -17.9733   24.3656 N   0  0  0  0  0  0  0  0  0  0  0  0
    6.7091  -16.5983   24.0273 C   0  0  1  0  0  0  0  0  0  0  0  0
    7.1254  -15.8000   25.2321 C   0  0  0  0  0  0  0  0  0  0  0  0
    8.5446  -16.6255   26.0609 S   0  0  0  0  0  0  0  0  0  0  0  0
    7.7793  -16.5122   23.0104 C   0  0  0  0  0  0  0  0  0  0  0  0
    8.3611  -17.6195   22.7319 O   0  0  0  0  0  0  0  0  0  0  0  0
    8.1403  -15.3127   22.3859 N   0  0  0  0  0  0  0  0  0  0  0  0
    7.8213  -13.9569   22.7142 C   0  0  0  0  0  0  0  0  0  0  0  0
    7.7686  -13.2162   21.3631 C   0  0  0  0  0  0  0  0  0  0  0  0
    8.1523  -14.2691   20.3472 C   0  0  0  0  0  0  0  0  0  0  0  0
    8.9653  -15.2300   21.1893 C   0  0  1  0  0  0  0  0  0  0  0  0
   10.2829  -14.6176   21.4348 C   0  0  0  0  0  0  0  0  0  0  0  0
   10.4979  -14.1591   22.5933 O   0  0  0  0  0  0  0  0  0  0  0  0
   11.3046  -14.4950   20.5254 O   0  0  0  0  0  0  0  0  0  0  0  0
  2  1  1  0
  3  4  1  0
  3  2  1  0
  4  5  1  0
  5  7  1  0
  5  6  1  6
  7  8  2  0
  9  7  1  0
  9 10  1  0
 10 13  1  0
 10 11  1  1
 12 11  1  0
 13 14  2  0
 13 15  1  0
 15 16  1  0
 16 17  1  0
 18 17  1  0
 19 15  1  0
 19 18  1  0
 19 20  1  1
 21 20  2  0
 22 20  1  0
M  END
$$$$
