MCP.pdb
     RDKit          3D

 22 22  0  0  1  0  0  0  0  0999 V2000
    8.0008  -11.5303   19.8321 C   0  0  0  0  0  0  0  0  0  0  0  0
    7.8002  -12.8312   18.5866 S   0  0  0  0  0  0  0  0  0  0  0  0
    7.7019  -14.4655   19.3602 C   0  0  0  0  0  0  0  0  0  0  0  0
    8.9783  -14.7941   20.1240 C   0  0  0  0  0  0  0  0  0  0  0  0
    8.6971  -16.0578   20.9019 C   0  0  2  0  0  0  0  0  0  0  0  0
    7.7472  -16.8264   20.1262 N   0  0  0  0  0  0  0  0  0  0  0  0
    8.1545  -15.8123   22.2359 C   0  0  0  0  0  0  0  0  0  0  0  0
    7.3811  -14.8329   22.3988 O   0  0  0  0  0  0  0  0  0  0  0  0
    8.4171  -16.5781   23.3772 N   0  0  0  0  0  0  0  0  0  0  0  0
    8.0932  -16.1138   24.7069 C   0  0  1  0  0  0  0  0  0  0  0  0
    7.1011  -17.0148   25.3893 C   0  0  0  0  0  0  0  0  0  0  0  0
    6.4552  -18.2471   24.1865 S   0  0  0  0  0  0  0  0  0  0  0  0
    9.3048  -16.0206   25.5496 C   0  0  0  0  0  0  0  0  0  0  0  0
   10.3500  -16.5871   25.0714 O   0  0  0  0  0  0  0  0  0  0  0  0
    9.3237  -15.3609   26.7840 N   0  0  0  0  0  0  0  0  0  0  0  0
    8.3037  -14.6217   27.4627 C   0  0  0  0  0  0  0  0  0  0  0  0
    9.0543  -13.5354   28.2586 C   0  0  0  0  0  0  0  0  0  0  0  0
   10.5153  -13.8235   27.9932 C   0  0  0  0  0  0  0  0  0  0  0  0
   10.4841  -15.3007   27.6611 C   0  0  1  0  0  0  0  0  0  0  0  0
   10.2996  -16.0463   28.9186 C   0  0  0  0  0  0  0  0  0  0  0  0
    9.1488  -16.5188   29.1442 O   0  0  0  0  0  0  0  0  0  0  0  0
   11.2583  -16.2792   29.8739 O   0  0  0  0  0  0  0  0  0  0  0  0
  2  1  1  0
  3  4  1  0
  3  2  1  0
  4  5  1  0
  5  7  1  0
  5  6  1  6
  7  8  2  0
  9  7  1  0
  9 10  1  0
 10 13  1  0
 10 11  1  1
 12 11  1  0
 13 14  2  0
 13 15  1  0
 15 16  1  0
 16 17  1  0
 18 17  1  0
 19 15  1  0
 19 18  1  0
 19 20  1  1
 21 20  2  0
 22 20  1  0
M  END
$$$$
