MCP.pdb
     RDKit          3D

 22 22  0  0  1  0  0  0  0  0999 V2000
    9.5718  -13.6304   28.8822 C   0  0  0  0  0  0  0  0  0  0  0  0
   10.6384  -15.0953   28.8604 S   0  0  0  0  0  0  0  0  0  0  0  0
    9.7797  -16.5167   28.1384 C   0  0  0  0  0  0  0  0  0  0  0  0
    8.4132  -16.7222   28.7796 C   0  0  0  0  0  0  0  0  0  0  0  0
    7.6201  -17.5853   27.8271 C   0  0  2  0  0  0  0  0  0  0  0  0
    8.3984  -18.7840   27.5986 N   0  0  0  0  0  0  0  0  0  0  0  0
    7.3366  -16.9352   26.5499 C   0  0  0  0  0  0  0  0  0  0  0  0
    7.0909  -17.6582   25.5495 O   0  0  0  0  0  0  0  0  0  0  0  0
    7.3110  -15.5544   26.3251 N   0  0  0  0  0  0  0  0  0  0  0  0
    7.1234  -14.9925   25.0068 C   0  0  1  0  0  0  0  0  0  0  0  0
    7.1025  -13.4890   25.0359 C   0  0  0  0  0  0  0  0  0  0  0  0
    6.2450  -12.9115   26.5569 S   0  0  0  0  0  0  0  0  0  0  0  0
    8.1901  -15.4327   24.0821 C   0  0  0  0  0  0  0  0  0  0  0  0
    9.0227  -16.2770   24.5679 O   0  0  0  0  0  0  0  0  0  0  0  0
    8.2937  -14.9699   22.7651 N   0  0  0  0  0  0  0  0  0  0  0  0
    7.7934  -13.7771   22.1531 C   0  0  0  0  0  0  0  0  0  0  0  0
    7.4961  -14.1676   20.6916 C   0  0  0  0  0  0  0  0  0  0  0  0
    7.9470  -15.6080   20.5930 C   0  0  0  0  0  0  0  0  0  0  0  0
    8.9790  -15.6857   21.6986 C   0  0  1  0  0  0  0  0  0  0  0  0
   10.1983  -15.0022   21.2321 C   0  0  0  0  0  0  0  0  0  0  0  0
   10.3872  -13.8201   21.6391 O   0  0  0  0  0  0  0  0  0  0  0  0
   11.1536  -15.5247   20.3953 O   0  0  0  0  0  0  0  0  0  0  0  0
  2  1  1  0
  3  4  1  0
  3  2  1  0
  4  5  1  0
  5  7  1  0
  5  6  1  6
  7  8  2  0
  9  7  1  0
  9 10  1  0
 10 13  1  0
 10 11  1  1
 12 11  1  0
 13 14  2  0
 13 15  1  0
 15 16  1  0
 16 17  1  0
 18 17  1  0
 19 15  1  0
 19 18  1  0
 19 20  1  6
 21 20  2  0
 22 20  1  0
M  END
$$$$
