QNM.pdb
     RDKit          3D

 26 25  0  0  1  0  0  0  0  0999 V2000
    6.5360  -20.3259   16.4194 N   0  0  0  0  0  0  0  0  0  0  0  0
    7.8546  -19.7886   16.5425 C   0  0  0  0  0  0  0  0  0  0  0  0
    8.8138  -20.5774   16.6069 O   0  0  0  0  0  0  0  0  0  0  0  0
    8.0211  -18.3398   16.5836 C   0  0  0  0  0  0  0  0  0  0  0  0
    7.3598  -17.6164   17.6923 C   0  0  0  0  0  0  0  0  0  0  0  0
    8.2273  -16.8554   18.6287 C   0  0  2  0  0  0  0  0  0  0  0  0
    9.6266  -17.1088   18.5553 N   0  0  0  0  0  0  0  0  0  0  0  0
    7.7760  -17.0841   20.0614 C   0  0  0  0  0  0  0  0  0  0  0  0
    6.5711  -16.8655   20.3657 O   0  0  0  0  0  0  0  0  0  0  0  0
    9.2958  -19.7266   25.4194 N   0  0  0  0  0  0  0  0  0  0  0  0
    8.4191  -19.2092   24.3994 C   0  0  0  0  0  0  0  0  0  0  0  0
    7.2807  -18.8815   24.8093 O   0  0  0  0  0  0  0  0  0  0  0  0
    8.8871  -19.0940   22.9890 C   0  0  0  0  0  0  0  0  0  0  0  0
    8.4040  -17.7461   22.4453 C   0  0  2  0  0  0  0  0  0  0  0  0
    8.6642  -17.5338   21.0579 N   0  0  0  0  0  0  0  0  0  0  0  0
    8.8634  -16.6777   23.3193 C   0  0  0  0  0  0  0  0  0  0  0  0
   10.0796  -16.3925   23.3265 O   0  0  0  0  0  0  0  0  0  0  0  0
    6.5255  -10.4715   27.7028 C   0  0  0  0  0  0  0  0  0  0  0  0
    6.0979  -11.9159   26.7184 S   0  0  0  0  0  0  0  0  0  0  0  0
    7.5622  -12.8445   26.2340 C   0  0  0  0  0  0  0  0  0  0  0  0
    7.2342  -14.0323   25.3786 C   0  0  0  0  0  0  0  0  0  0  0  0
    8.4369  -14.8324   24.9748 C   0  0  2  0  0  0  0  0  0  0  0  0
    7.9901  -15.9622   24.1525 N   0  0  0  0  0  0  0  0  0  0  0  0
    9.1930  -15.3912   26.1119 C   0  0  0  0  0  0  0  0  0  0  0  0
    9.0347  -16.6989   26.4972 O   0  0  0  0  0  0  0  0  0  0  0  0
   10.0115  -14.6791   26.7667 O   0  0  0  0  0  0  0  0  0  0  0  0
  2  1  1  0
  2  4  1  0
  3  2  2  0
  5  4  1  0
  6  5  1  0
  6  7  1  1
  8  6  1  0
  8  9  2  0
 10 11  1  0
 11 12  2  0
 13 11  1  0
 14 13  1  1
 14 15  1  0
 15  8  1  0
 16 14  1  0
 16 23  1  0
 17 16  2  0
 19 20  1  0
 19 18  1  0
 20 21  1  0
 22 21  1  1
 22 23  1  0
 22 24  1  0
 24 26  2  0
 24 25  1  0
M  END
$$$$
