QNM.pdb
     RDKit          3D

 26 25  0  0  1  0  0  0  0  0999 V2000
    6.7546  -13.1881   18.4570 N   0  0  0  0  0  0  0  0  0  0  0  0
    7.9103  -13.9326   18.8478 C   0  0  0  0  0  0  0  0  0  0  0  0
    8.7608  -14.2068   17.9828 O   0  0  0  0  0  0  0  0  0  0  0  0
    8.0464  -14.3364   20.2431 C   0  0  0  0  0  0  0  0  0  0  0  0
    7.2958  -15.5367   20.6739 C   0  0  0  0  0  0  0  0  0  0  0  0
    7.4921  -16.0035   22.0711 C   0  0  2  0  0  0  0  0  0  0  0  0
    7.2643  -15.0496   23.1034 N   0  0  0  0  0  0  0  0  0  0  0  0
    8.8935  -16.5651   22.2419 C   0  0  0  0  0  0  0  0  0  0  0  0
    9.1644  -17.6946   21.7488 O   0  0  0  0  0  0  0  0  0  0  0  0
   14.0768  -16.6776   21.9124 N   0  0  0  0  0  0  0  0  0  0  0  0
   13.6392  -15.7132   22.8898 C   0  0  0  0  0  0  0  0  0  0  0  0
   14.4901  -15.4413   23.7693 O   0  0  0  0  0  0  0  0  0  0  0  0
   12.2745  -15.1199   22.8064 C   0  0  0  0  0  0  0  0  0  0  0  0
   11.2642  -16.2261   23.1254 C   0  0  2  0  0  0  0  0  0  0  0  0
    9.8978  -15.8602   22.9338 N   0  0  0  0  0  0  0  0  0  0  0  0
   11.5630  -16.7942   24.4309 C   0  0  0  0  0  0  0  0  0  0  0  0
   12.6380  -17.4123   24.5821 O   0  0  0  0  0  0  0  0  0  0  0  0
   10.1644  -11.9886   28.6521 C   0  0  0  0  0  0  0  0  0  0  0  0
    9.7969  -13.7333   28.8954 S   0  0  0  0  0  0  0  0  0  0  0  0
   10.6687  -14.7659   27.7061 C   0  0  0  0  0  0  0  0  0  0  0  0
   10.3438  -16.2222   27.8604 C   0  0  0  0  0  0  0  0  0  0  0  0
   11.0515  -17.1035   26.8743 C   0  0  2  0  0  0  0  0  0  0  0  0
   10.6865  -16.6738   25.5199 N   0  0  0  0  0  0  0  0  0  0  0  0
   10.7006  -18.5320   26.9893 C   0  0  0  0  0  0  0  0  0  0  0  0
   11.1759  -19.3001   28.0226 O   0  0  0  0  0  0  0  0  0  0  0  0
    9.9493  -19.0920   26.1361 O   0  0  0  0  0  0  0  0  0  0  0  0
  2  1  1  0
  2  4  1  0
  3  2  2  0
  5  4  1  0
  6  5  1  0
  6  7  1  1
  8  6  1  0
  8  9  2  0
 10 11  1  0
 11 12  2  0
 13 11  1  0
 14 13  1  1
 14 15  1  0
 15  8  1  0
 16 14  1  0
 16 23  1  0
 17 16  2  0
 19 20  1  0
 19 18  1  0
 20 21  1  0
 22 21  1  1
 22 23  1  0
 22 24  1  0
 24 26  2  0
 24 25  1  0
M  END
$$$$
