QNM.pdb
     RDKit          3D

 26 25  0  0  1  0  0  0  0  0999 V2000
    8.6869  -12.3267   18.2780 N   0  0  0  0  0  0  0  0  0  0  0  0
    8.0995  -13.4002   17.5397 C   0  0  0  0  0  0  0  0  0  0  0  0
    8.1669  -13.3741   16.2983 O   0  0  0  0  0  0  0  0  0  0  0  0
    7.4498  -14.4822   18.2715 C   0  0  0  0  0  0  0  0  0  0  0  0
    7.4751  -14.4072   19.7492 C   0  0  0  0  0  0  0  0  0  0  0  0
    8.7742  -14.6567   20.4264 C   0  0  2  0  0  0  0  0  0  0  0  0
    9.7352  -15.4225   19.7071 N   0  0  0  0  0  0  0  0  0  0  0  0
    8.5421  -15.3247   21.7712 C   0  0  0  0  0  0  0  0  0  0  0  0
    7.5590  -14.9610   22.4736 O   0  0  0  0  0  0  0  0  0  0  0  0
   10.1146  -19.4834   21.3242 N   0  0  0  0  0  0  0  0  0  0  0  0
    9.4196  -19.1854   22.5510 C   0  0  0  0  0  0  0  0  0  0  0  0
    8.2794  -19.6983   22.6406 O   0  0  0  0  0  0  0  0  0  0  0  0
   10.0591  -18.3327   23.5928 C   0  0  0  0  0  0  0  0  0  0  0  0
    9.3924  -16.9547   23.5421 C   0  0  2  0  0  0  0  0  0  0  0  0
    9.3926  -16.3382   22.2546 N   0  0  0  0  0  0  0  0  0  0  0  0
    9.9171  -16.1222   24.6136 C   0  0  0  0  0  0  0  0  0  0  0  0
   11.0353  -15.5864   24.4615 O   0  0  0  0  0  0  0  0  0  0  0  0
    5.9880  -11.1773   25.7423 C   0  0  0  0  0  0  0  0  0  0  0  0
    6.6017  -12.3415   26.9696 S   0  0  0  0  0  0  0  0  0  0  0  0
    8.0348  -13.2476   26.3646 C   0  0  0  0  0  0  0  0  0  0  0  0
    8.5903  -14.1955   27.3860 C   0  0  0  0  0  0  0  0  0  0  0  0
    9.7230  -15.0347   26.8736 C   0  0  2  0  0  0  0  0  0  0  0  0
    9.2132  -15.9044   25.8077 N   0  0  0  0  0  0  0  0  0  0  0  0
   10.3314  -15.9071   27.8962 C   0  0  0  0  0  0  0  0  0  0  0  0
   11.1470  -15.3948   28.8740 O   0  0  0  0  0  0  0  0  0  0  0  0
   10.1184  -17.1563   27.9014 O   0  0  0  0  0  0  0  0  0  0  0  0
  2  1  1  0
  2  4  1  0
  3  2  2  0
  5  4  1  0
  6  5  1  0
  6  7  1  6
  8  6  1  0
  8  9  2  0
 10 11  1  0
 11 12  2  0
 13 11  1  0
 14 13  1  6
 14 15  1  0
 15  8  1  0
 16 14  1  0
 16 23  1  0
 17 16  2  0
 19 20  1  0
 19 18  1  0
 20 21  1  0
 22 21  1  1
 22 23  1  0
 22 24  1  0
 24 26  2  0
 24 25  1  0
M  END
$$$$
