QNM.pdb
     RDKit          3D

 26 25  0  0  1  0  0  0  0  0999 V2000
    8.2211  -12.5195   16.8199 N   0  0  0  0  0  0  0  0  0  0  0  0
    7.7822  -13.7881   16.3296 C   0  0  0  0  0  0  0  0  0  0  0  0
    7.8189  -13.9964   15.1041 O   0  0  0  0  0  0  0  0  0  0  0  0
    7.3135  -14.7860   17.2851 C   0  0  0  0  0  0  0  0  0  0  0  0
    7.2329  -14.3747   18.7044 C   0  0  0  0  0  0  0  0  0  0  0  0
    8.4711  -14.4780   19.5197 C   0  0  2  0  0  0  0  0  0  0  0  0
    9.5408  -15.2383   18.9672 N   0  0  0  0  0  0  0  0  0  0  0  0
    8.1464  -15.0405   20.8933 C   0  0  0  0  0  0  0  0  0  0  0  0
    7.1370  -14.6025   21.5109 O   0  0  0  0  0  0  0  0  0  0  0  0
    9.8333  -19.0297   20.7181 N   0  0  0  0  0  0  0  0  0  0  0  0
    9.7212  -18.8158   22.1388 C   0  0  0  0  0  0  0  0  0  0  0  0
   10.7080  -19.2104   22.8036 O   0  0  0  0  0  0  0  0  0  0  0  0
    8.5065  -18.1691   22.7114 C   0  0  0  0  0  0  0  0  0  0  0  0
    8.7632  -16.6602   22.7673 C   0  0  2  0  0  0  0  0  0  0  0  0
    8.9395  -16.0369   21.4953 N   0  0  0  0  0  0  0  0  0  0  0  0
    9.8179  -16.3829   23.7303 C   0  0  0  0  0  0  0  0  0  0  0  0
   10.6231  -17.2948   24.0143 O   0  0  0  0  0  0  0  0  0  0  0  0
    6.3513  -11.2523   25.5551 C   0  0  0  0  0  0  0  0  0  0  0  0
    6.9968  -12.2453   26.9099 S   0  0  0  0  0  0  0  0  0  0  0  0
    7.0617  -13.9919   26.4785 C   0  0  0  0  0  0  0  0  0  0  0  0
    7.9131  -14.2559   25.2720 C   0  0  0  0  0  0  0  0  0  0  0  0
    9.2737  -14.7936   25.6027 C   0  0  2  0  0  0  0  0  0  0  0  0
    9.9581  -15.1318   24.3498 N   0  0  0  0  0  0  0  0  0  0  0  0
    9.2494  -16.0144   26.4309 C   0  0  0  0  0  0  0  0  0  0  0  0
   10.0172  -16.1208   27.5636 O   0  0  0  0  0  0  0  0  0  0  0  0
    8.5180  -17.0016   26.1202 O   0  0  0  0  0  0  0  0  0  0  0  0
  2  1  1  0
  2  4  1  0
  3  2  2  0
  5  4  1  0
  6  5  1  0
  6  7  1  6
  8  6  1  0
  8  9  2  0
 10 11  1  0
 11 12  2  0
 13 11  1  0
 14 13  1  6
 14 15  1  0
 15  8  1  0
 16 14  1  0
 16 23  1  0
 17 16  2  0
 19 20  1  0
 19 18  1  0
 20 21  1  0
 22 21  1  6
 22 23  1  0
 22 24  1  0
 24 26  2  0
 24 25  1  0
M  END
$$$$
