QNM.pdb
     RDKit          3D

 26 25  0  0  1  0  0  0  0  0999 V2000
   12.2967  -14.2982   20.7798 N   0  0  0  0  0  0  0  0  0  0  0  0
   12.3017  -13.6713   19.4955 C   0  0  0  0  0  0  0  0  0  0  0  0
   13.3962  -13.3983   18.9720 O   0  0  0  0  0  0  0  0  0  0  0  0
   11.0254  -13.3815   18.8510 C   0  0  0  0  0  0  0  0  0  0  0  0
    9.8278  -14.0638   19.3896 C   0  0  0  0  0  0  0  0  0  0  0  0
    9.7093  -15.5269   19.1571 C   0  0  2  0  0  0  0  0  0  0  0  0
    9.3084  -15.9383   17.8542 N   0  0  0  0  0  0  0  0  0  0  0  0
    8.7528  -16.1401   20.1659 C   0  0  0  0  0  0  0  0  0  0  0  0
    7.5906  -16.4586   19.7920 O   0  0  0  0  0  0  0  0  0  0  0  0
    5.7594  -18.6908   23.5865 N   0  0  0  0  0  0  0  0  0  0  0  0
    7.1962  -18.8020   23.5963 C   0  0  0  0  0  0  0  0  0  0  0  0
    7.6751  -19.2602   24.6602 O   0  0  0  0  0  0  0  0  0  0  0  0
    7.9932  -18.3922   22.4053 C   0  0  0  0  0  0  0  0  0  0  0  0
    8.3423  -16.9094   22.5650 C   0  0  2  0  0  0  0  0  0  0  0  0
    9.1275  -16.3633   21.5053 N   0  0  0  0  0  0  0  0  0  0  0  0
    8.8769  -16.6777   23.8980 C   0  0  0  0  0  0  0  0  0  0  0  0
   10.0503  -17.0305   24.1412 O   0  0  0  0  0  0  0  0  0  0  0  0
    7.3127  -10.2649   26.1222 C   0  0  0  0  0  0  0  0  0  0  0  0
    6.7956  -11.9675   26.3906 S   0  0  0  0  0  0  0  0  0  0  0  0
    8.2009  -13.0926   26.4016 C   0  0  0  0  0  0  0  0  0  0  0  0
    7.8051  -14.5056   26.7135 C   0  0  0  0  0  0  0  0  0  0  0  0
    8.7325  -15.5314   26.1325 C   0  0  2  0  0  0  0  0  0  0  0  0
    8.1206  -16.0763   24.9154 N   0  0  0  0  0  0  0  0  0  0  0  0
    9.0051  -16.6689   27.0317 C   0  0  0  0  0  0  0  0  0  0  0  0
    9.9967  -16.6053   27.9785 O   0  0  0  0  0  0  0  0  0  0  0  0
    8.3308  -17.7392   26.9560 O   0  0  0  0  0  0  0  0  0  0  0  0
  2  1  1  0
  2  4  1  0
  3  2  2  0
  5  4  1  0
  6  5  1  0
  6  7  1  6
  8  6  1  0
  8  9  2  0
 10 11  1  0
 11 12  2  0
 13 11  1  0
 14 13  1  6
 14 15  1  0
 15  8  1  0
 16 14  1  0
 16 23  1  0
 17 16  2  0
 19 20  1  0
 19 18  1  0
 20 21  1  0
 22 21  1  1
 22 23  1  0
 22 24  1  0
 24 26  2  0
 24 25  1  0
M  END
$$$$
