QNM.pdb
     RDKit          3D

 26 25  0  0  1  0  0  0  0  0999 V2000
    9.1599  -12.7559   17.7394 N   0  0  0  0  0  0  0  0  0  0  0  0
    8.3931  -13.6154   16.8933 C   0  0  0  0  0  0  0  0  0  0  0  0
    8.4548  -13.4467   15.6627 O   0  0  0  0  0  0  0  0  0  0  0  0
    7.5743  -14.6555   17.5064 C   0  0  0  0  0  0  0  0  0  0  0  0
    7.6222  -14.7696   18.9811 C   0  0  0  0  0  0  0  0  0  0  0  0
    8.3276  -15.9447   19.5555 C   0  0  2  0  0  0  0  0  0  0  0  0
    8.3222  -17.1381   18.7789 N   0  0  0  0  0  0  0  0  0  0  0  0
    7.7685  -16.2684   20.9307 C   0  0  0  0  0  0  0  0  0  0  0  0
    6.6871  -15.7292   21.2940 O   0  0  0  0  0  0  0  0  0  0  0  0
    6.7397  -19.5486   25.4356 N   0  0  0  0  0  0  0  0  0  0  0  0
    8.0268  -19.0564   25.0138 C   0  0  0  0  0  0  0  0  0  0  0  0
    8.8075  -18.7713   25.9522 O   0  0  0  0  0  0  0  0  0  0  0  0
    8.3459  -18.9227   23.5640 C   0  0  0  0  0  0  0  0  0  0  0  0
    8.0874  -17.4677   23.1614 C   0  0  2  0  0  0  0  0  0  0  0  0
    8.4227  -17.1534   21.8099 N   0  0  0  0  0  0  0  0  0  0  0  0
    8.6714  -16.5786   24.1539 C   0  0  0  0  0  0  0  0  0  0  0  0
    9.8868  -16.3030   24.0682 O   0  0  0  0  0  0  0  0  0  0  0  0
    6.2405  -10.1710   27.9948 C   0  0  0  0  0  0  0  0  0  0  0  0
    5.8806  -11.6991   27.1153 S   0  0  0  0  0  0  0  0  0  0  0  0
    7.3665  -12.6836   26.8627 C   0  0  0  0  0  0  0  0  0  0  0  0
    7.0940  -13.9572   26.1185 C   0  0  0  0  0  0  0  0  0  0  0  0
    8.3180  -14.7938   25.8908 C   0  0  2  0  0  0  0  0  0  0  0  0
    7.9187  -16.0254   25.2008 N   0  0  0  0  0  0  0  0  0  0  0  0
    9.0093  -15.1924   27.1318 C   0  0  0  0  0  0  0  0  0  0  0  0
    8.9313  -16.4772   27.6081 O   0  0  0  0  0  0  0  0  0  0  0  0
    9.6961  -14.3590   27.7949 O   0  0  0  0  0  0  0  0  0  0  0  0
  2  1  1  0
  2  4  1  0
  3  2  2  0
  5  4  1  0
  6  5  1  0
  6  7  1  6
  8  6  1  0
  8  9  2  0
 10 11  1  0
 11 12  2  0
 13 11  1  0
 14 13  1  1
 14 15  1  0
 15  8  1  0
 16 14  1  0
 16 23  1  0
 17 16  2  0
 19 20  1  0
 19 18  1  0
 20 21  1  0
 22 21  1  1
 22 23  1  0
 22 24  1  0
 24 26  2  0
 24 25  1  0
M  END
$$$$
