QNM.pdb
     RDKit          3D

 26 25  0  0  1  0  0  0  0  0999 V2000
    8.2624  -12.5045   18.9257 N   0  0  0  0  0  0  0  0  0  0  0  0
    7.6127  -13.4658   18.0911 C   0  0  0  0  0  0  0  0  0  0  0  0
    7.7585  -13.3780   16.8592 O   0  0  0  0  0  0  0  0  0  0  0  0
    6.8099  -14.5106   18.7176 C   0  0  0  0  0  0  0  0  0  0  0  0
    7.0858  -14.8111   20.1401 C   0  0  0  0  0  0  0  0  0  0  0  0
    8.4951  -15.0879   20.5218 C   0  0  2  0  0  0  0  0  0  0  0  0
    9.2504  -15.9064   19.6346 N   0  0  0  0  0  0  0  0  0  0  0  0
    8.5482  -15.7108   21.9067 C   0  0  0  0  0  0  0  0  0  0  0  0
    7.7021  -15.3527   22.7715 O   0  0  0  0  0  0  0  0  0  0  0  0
   11.3886  -19.4965   21.3746 N   0  0  0  0  0  0  0  0  0  0  0  0
   10.5443  -19.2906   22.5242 C   0  0  0  0  0  0  0  0  0  0  0  0
    9.5259  -20.0207   22.5589 O   0  0  0  0  0  0  0  0  0  0  0  0
   10.9078  -18.2786   23.5563 C   0  0  0  0  0  0  0  0  0  0  0  0
    9.8289  -17.1915   23.5446 C   0  0  2  0  0  0  0  0  0  0  0  0
    9.5142  -16.6764   22.2510 N   0  0  0  0  0  0  0  0  0  0  0  0
   10.1493  -16.1794   24.5393 C   0  0  0  0  0  0  0  0  0  0  0  0
   10.6123  -15.0857   24.1518 O   0  0  0  0  0  0  0  0  0  0  0  0
    7.7584  -11.0777   25.4196 C   0  0  0  0  0  0  0  0  0  0  0  0
    6.9868  -12.2383   26.5580 S   0  0  0  0  0  0  0  0  0  0  0  0
    8.1971  -13.3521   27.2898 C   0  0  0  0  0  0  0  0  0  0  0  0
    8.5569  -14.4895   26.3805 C   0  0  0  0  0  0  0  0  0  0  0  0
    9.7341  -15.2888   26.8550 C   0  0  2  0  0  0  0  0  0  0  0  0
    9.9588  -16.3911   25.9132 N   0  0  0  0  0  0  0  0  0  0  0  0
    9.5520  -15.8861   28.1917 C   0  0  0  0  0  0  0  0  0  0  0  0
    9.2153  -17.2084   28.3400 O   0  0  0  0  0  0  0  0  0  0  0  0
    9.7011  -15.1947   29.2433 O   0  0  0  0  0  0  0  0  0  0  0  0
  2  1  1  0
  2  4  1  0
  3  2  2  0
  5  4  1  0
  6  5  1  0
  6  7  1  6
  8  6  1  0
  8  9  2  0
 10 11  1  0
 11 12  2  0
 13 11  1  0
 14 13  1  6
 14 15  1  0
 15  8  1  0
 16 14  1  0
 16 23  1  0
 17 16  2  0
 19 20  1  0
 19 18  1  0
 20 21  1  0
 22 21  1  6
 22 23  1  0
 22 24  1  0
 24 26  2  0
 24 25  1  0
M  END
$$$$
