QNM.pdb
     RDKit          3D

 26 25  0  0  1  0  0  0  0  0999 V2000
    7.6400  -12.3674   17.5318 N   0  0  0  0  0  0  0  0  0  0  0  0
    8.3053  -13.6302   17.4602 C   0  0  0  0  0  0  0  0  0  0  0  0
    8.7900  -13.9853   16.3713 O   0  0  0  0  0  0  0  0  0  0  0  0
    8.3916  -14.4475   18.6656 C   0  0  0  0  0  0  0  0  0  0  0  0
    7.7714  -13.9041   19.8944 C   0  0  0  0  0  0  0  0  0  0  0  0
    7.9041  -14.7028   21.1405 C   0  0  2  0  0  0  0  0  0  0  0  0
    8.7095  -14.1474   22.1751 N   0  0  0  0  0  0  0  0  0  0  0  0
    8.4330  -16.0901   20.8176 C   0  0  0  0  0  0  0  0  0  0  0  0
    8.0254  -16.6731   19.7754 O   0  0  0  0  0  0  0  0  0  0  0  0
   12.2414  -13.8284   19.6194 N   0  0  0  0  0  0  0  0  0  0  0  0
   11.8536  -15.0015   20.3612 C   0  0  0  0  0  0  0  0  0  0  0  0
   12.2783  -16.0810   19.8862 O   0  0  0  0  0  0  0  0  0  0  0  0
   11.0170  -14.8764   21.5884 C   0  0  0  0  0  0  0  0  0  0  0  0
   10.6571  -16.2904   22.0542 C   0  0  2  0  0  0  0  0  0  0  0  0
    9.3653  -16.7423   21.6480 N   0  0  0  0  0  0  0  0  0  0  0  0
   10.9229  -16.4141   23.4791 C   0  0  0  0  0  0  0  0  0  0  0  0
   12.1050  -16.3365   23.8757 O   0  0  0  0  0  0  0  0  0  0  0  0
    6.9613  -11.6986   27.8764 C   0  0  0  0  0  0  0  0  0  0  0  0
    7.2335  -12.6900   26.3995 S   0  0  0  0  0  0  0  0  0  0  0  0
    8.4451  -13.9898   26.6883 C   0  0  0  0  0  0  0  0  0  0  0  0
    8.8016  -14.7337   25.4354 C   0  0  0  0  0  0  0  0  0  0  0  0
    9.7975  -15.8341   25.6527 C   0  0  2  0  0  0  0  0  0  0  0  0
    9.9006  -16.6196   24.4179 N   0  0  0  0  0  0  0  0  0  0  0  0
    9.4311  -16.7673   26.7352 C   0  0  0  0  0  0  0  0  0  0  0  0
    9.4834  -16.3845   28.0522 O   0  0  0  0  0  0  0  0  0  0  0  0
    9.0571  -17.9509   26.4802 O   0  0  0  0  0  0  0  0  0  0  0  0
  2  1  1  0
  2  4  1  0
  3  2  2  0
  5  4  1  0
  6  5  1  0
  6  7  1  1
  8  6  1  0
  8  9  2  0
 10 11  1  0
 11 12  2  0
 13 11  1  0
 14 13  1  1
 14 15  1  0
 15  8  1  0
 16 14  1  0
 16 23  1  0
 17 16  2  0
 19 20  1  0
 19 18  1  0
 20 21  1  0
 22 21  1  6
 22 23  1  0
 22 24  1  0
 24 26  2  0
 24 25  1  0
M  END
$$$$
