QNM.pdb
     RDKit          3D

 26 25  0  0  1  0  0  0  0  0999 V2000
    9.2301  -12.2085   19.7369 N   0  0  0  0  0  0  0  0  0  0  0  0
    7.9499  -12.7942   19.9832 C   0  0  0  0  0  0  0  0  0  0  0  0
    7.0144  -12.0524   20.3313 O   0  0  0  0  0  0  0  0  0  0  0  0
    7.7925  -14.2345   19.8128 C   0  0  0  0  0  0  0  0  0  0  0  0
    8.9904  -14.9997   19.4013 C   0  0  0  0  0  0  0  0  0  0  0  0
    8.8156  -16.4484   19.1199 C   0  0  2  0  0  0  0  0  0  0  0  0
    7.4916  -16.8919   18.8410 N   0  0  0  0  0  0  0  0  0  0  0  0
    9.3618  -17.2738   20.2728 C   0  0  0  0  0  0  0  0  0  0  0  0
    9.6199  -18.4942   20.0832 O   0  0  0  0  0  0  0  0  0  0  0  0
   12.1330  -19.7131   20.6766 N   0  0  0  0  0  0  0  0  0  0  0  0
   11.3523  -19.2891   21.8113 C   0  0  0  0  0  0  0  0  0  0  0  0
   10.5148  -20.1320   22.2105 O   0  0  0  0  0  0  0  0  0  0  0  0
   11.5719  -17.9461   22.4193 C   0  0  0  0  0  0  0  0  0  0  0  0
   10.1979  -17.3232   22.6841 C   0  0  2  0  0  0  0  0  0  0  0  0
    9.5887  -16.7146   21.5456 N   0  0  0  0  0  0  0  0  0  0  0  0
   10.2701  -16.4717   23.8615 C   0  0  0  0  0  0  0  0  0  0  0  0
   11.1839  -15.6228   23.9303 O   0  0  0  0  0  0  0  0  0  0  0  0
    6.5093  -11.4527   25.4674 C   0  0  0  0  0  0  0  0  0  0  0  0
    6.7907  -12.9059   26.4908 S   0  0  0  0  0  0  0  0  0  0  0  0
    7.9256  -14.0606   25.7037 C   0  0  0  0  0  0  0  0  0  0  0  0
    8.2819  -15.2147   26.5933 C   0  0  0  0  0  0  0  0  0  0  0  0
    9.5584  -15.9004   26.2056 C   0  0  2  0  0  0  0  0  0  0  0  0
    9.3531  -16.5740   24.9185 N   0  0  0  0  0  0  0  0  0  0  0  0
   10.0037  -16.9250   27.1693 C   0  0  0  0  0  0  0  0  0  0  0  0
   10.0151  -18.2566   26.8369 O   0  0  0  0  0  0  0  0  0  0  0  0
   10.3888  -16.6052   28.3334 O   0  0  0  0  0  0  0  0  0  0  0  0
  2  1  1  0
  2  4  1  0
  3  2  2  0
  5  4  1  0
  6  5  1  0
  6  7  1  1
  8  6  1  0
  8  9  2  0
 10 11  1  0
 11 12  2  0
 13 11  1  0
 14 13  1  6
 14 15  1  0
 15  8  1  0
 16 14  1  0
 16 23  1  0
 17 16  2  0
 19 20  1  0
 19 18  1  0
 20 21  1  0
 22 21  1  1
 22 23  1  0
 22 24  1  0
 24 26  2  0
 24 25  1  0
M  END
$$$$
