QNM.pdb
     RDKit          3D

 26 25  0  0  1  0  0  0  0  0999 V2000
    7.7313  -15.2773   16.4792 N   0  0  0  0  0  0  0  0  0  0  0  0
    7.7889  -13.8620   16.2888 C   0  0  0  0  0  0  0  0  0  0  0  0
    7.9545  -13.4240   15.1367 O   0  0  0  0  0  0  0  0  0  0  0  0
    7.6477  -12.9912   17.4507 C   0  0  0  0  0  0  0  0  0  0  0  0
    7.6253  -13.6397   18.7806 C   0  0  0  0  0  0  0  0  0  0  0  0
    8.9082  -13.7193   19.5265 C   0  0  2  0  0  0  0  0  0  0  0  0
   10.0488  -14.1569   18.7950 N   0  0  0  0  0  0  0  0  0  0  0  0
    8.7499  -14.6152   20.7434 C   0  0  0  0  0  0  0  0  0  0  0  0
    7.7981  -14.3988   21.5430 O   0  0  0  0  0  0  0  0  0  0  0  0
   10.8112  -18.9887   19.7507 N   0  0  0  0  0  0  0  0  0  0  0  0
   10.0130  -18.6372   20.8978 C   0  0  0  0  0  0  0  0  0  0  0  0
    8.8544  -19.1156   20.8915 O   0  0  0  0  0  0  0  0  0  0  0  0
   10.5768  -17.7736   21.9739 C   0  0  0  0  0  0  0  0  0  0  0  0
    9.6568  -16.5588   22.1277 C   0  0  2  0  0  0  0  0  0  0  0  0
    9.6348  -15.6800   21.0029 N   0  0  0  0  0  0  0  0  0  0  0  0
    9.9218  -15.9076   23.4013 C   0  0  0  0  0  0  0  0  0  0  0  0
   11.0514  -15.4106   23.5951 O   0  0  0  0  0  0  0  0  0  0  0  0
    6.5740  -11.3922   25.6301 C   0  0  0  0  0  0  0  0  0  0  0  0
    7.0790  -11.9600   27.2614 S   0  0  0  0  0  0  0  0  0  0  0  0
    8.2369  -13.3344   27.1551 C   0  0  0  0  0  0  0  0  0  0  0  0
    8.1856  -14.0295   25.8268 C   0  0  0  0  0  0  0  0  0  0  0  0
    9.2037  -15.1212   25.6803 C   0  0  2  0  0  0  0  0  0  0  0  0
    8.9560  -15.8224   24.4156 N   0  0  0  0  0  0  0  0  0  0  0  0
    9.1578  -16.1302   26.7558 C   0  0  0  0  0  0  0  0  0  0  0  0
    8.8454  -17.4398   26.4895 O   0  0  0  0  0  0  0  0  0  0  0  0
    9.4057  -15.8166   27.9583 O   0  0  0  0  0  0  0  0  0  0  0  0
  2  1  1  0
  2  4  1  0
  3  2  2  0
  5  4  1  0
  6  5  1  0
  6  7  1  6
  8  6  1  0
  8  9  2  0
 10 11  1  0
 11 12  2  0
 13 11  1  0
 14 13  1  6
 14 15  1  0
 15  8  1  0
 16 14  1  0
 16 23  1  0
 17 16  2  0
 19 20  1  0
 19 18  1  0
 20 21  1  0
 22 21  1  1
 22 23  1  0
 22 24  1  0
 24 26  2  0
 24 25  1  0
M  END
$$$$
