QNM.pdb
     RDKit          3D

 26 25  0  0  1  0  0  0  0  0999 V2000
   13.1848  -17.1638   16.2945 N   0  0  0  0  0  0  0  0  0  0  0  0
   11.9376  -17.8569   16.2122 C   0  0  0  0  0  0  0  0  0  0  0  0
   11.6039  -18.3517   15.1211 O   0  0  0  0  0  0  0  0  0  0  0  0
   11.1108  -17.9586   17.4098 C   0  0  0  0  0  0  0  0  0  0  0  0
   11.6473  -17.3601   18.6523 C   0  0  0  0  0  0  0  0  0  0  0  0
   10.7928  -17.4195   19.8667 C   0  0  2  0  0  0  0  0  0  0  0  0
    9.5262  -18.0553   19.7287 N   0  0  0  0  0  0  0  0  0  0  0  0
   10.5666  -16.0206   20.4150 C   0  0  0  0  0  0  0  0  0  0  0  0
   11.5665  -15.3135   20.7190 O   0  0  0  0  0  0  0  0  0  0  0  0
    7.9552  -12.3265   18.7009 N   0  0  0  0  0  0  0  0  0  0  0  0
    7.5144  -13.5637   19.2941 C   0  0  0  0  0  0  0  0  0  0  0  0
    7.1520  -14.4356   18.4696 O   0  0  0  0  0  0  0  0  0  0  0  0
    7.5157  -13.7335   20.7748 C   0  0  0  0  0  0  0  0  0  0  0  0
    8.8990  -14.2479   21.1846 C   0  0  2  0  0  0  0  0  0  0  0  0
    9.2732  -15.4916   20.5922 N   0  0  0  0  0  0  0  0  0  0  0  0
    9.0232  -14.2041   22.6334 C   0  0  0  0  0  0  0  0  0  0  0  0
    9.5045  -13.1794   23.1615 O   0  0  0  0  0  0  0  0  0  0  0  0
    7.0722  -11.5803   27.7027 C   0  0  0  0  0  0  0  0  0  0  0  0
    5.9313  -12.7145   26.8964 S   0  0  0  0  0  0  0  0  0  0  0  0
    6.7072  -14.3027   26.5545 C   0  0  0  0  0  0  0  0  0  0  0  0
    7.0721  -14.4660   25.1087 C   0  0  0  0  0  0  0  0  0  0  0  0
    8.4073  -15.1155   24.8957 C   0  0  2  0  0  0  0  0  0  0  0  0
    8.6248  -15.2709   23.4531 N   0  0  0  0  0  0  0  0  0  0  0  0
    8.5244  -16.4553   25.5024 C   0  0  0  0  0  0  0  0  0  0  0  0
    8.6525  -16.6125   26.8598 O   0  0  0  0  0  0  0  0  0  0  0  0
    8.5102  -17.5011   24.7869 O   0  0  0  0  0  0  0  0  0  0  0  0
  2  1  1  0
  2  4  1  0
  3  2  2  0
  5  4  1  0
  6  5  1  0
  6  7  1  6
  8  6  1  0
  8  9  2  0
 10 11  1  0
 11 12  2  0
 13 11  1  0
 14 13  1  1
 14 15  1  0
 15  8  1  0
 16 14  1  0
 16 23  1  0
 17 16  2  0
 19 20  1  0
 19 18  1  0
 20 21  1  0
 22 21  1  6
 22 23  1  0
 22 24  1  0
 24 26  2  0
 24 25  1  0
M  END
$$$$
