QNM.pdb
     RDKit          3D

 26 25  0  0  1  0  0  0  0  0999 V2000
   12.6075  -19.3557   16.3763 N   0  0  0  0  0  0  0  0  0  0  0  0
   11.2622  -18.8929   16.5127 C   0  0  0  0  0  0  0  0  0  0  0  0
   10.5819  -18.7329   15.4841 O   0  0  0  0  0  0  0  0  0  0  0  0
   10.7423  -18.6312   17.8505 C   0  0  0  0  0  0  0  0  0  0  0  0
   11.6730  -18.8227   18.9849 C   0  0  0  0  0  0  0  0  0  0  0  0
   11.1780  -18.4795   20.3435 C   0  0  2  0  0  0  0  0  0  0  0  0
   10.0690  -19.2287   20.8297 N   0  0  0  0  0  0  0  0  0  0  0  0
   10.8234  -17.0037   20.4127 C   0  0  0  0  0  0  0  0  0  0  0  0
   11.6949  -16.1493   20.0925 O   0  0  0  0  0  0  0  0  0  0  0  0
    7.9130  -12.6781   19.2972 N   0  0  0  0  0  0  0  0  0  0  0  0
    7.2945  -13.6412   20.1728 C   0  0  0  0  0  0  0  0  0  0  0  0
    6.4394  -13.1606   20.9533 O   0  0  0  0  0  0  0  0  0  0  0  0
    7.6801  -15.0793   20.1058 C   0  0  0  0  0  0  0  0  0  0  0  0
    9.0279  -15.2349   20.8166 C   0  0  2  0  0  0  0  0  0  0  0  0
    9.5498  -16.5635   20.8230 N   0  0  0  0  0  0  0  0  0  0  0  0
    8.9620  -14.6024   22.1251 C   0  0  0  0  0  0  0  0  0  0  0  0
    8.6737  -13.3886   22.1886 O   0  0  0  0  0  0  0  0  0  0  0  0
    6.0594  -11.4645   27.7886 C   0  0  0  0  0  0  0  0  0  0  0  0
    6.1087  -12.5146   26.3281 S   0  0  0  0  0  0  0  0  0  0  0  0
    7.7098  -13.3163   26.1425 C   0  0  0  0  0  0  0  0  0  0  0  0
    7.8764  -13.9665   24.8010 C   0  0  0  0  0  0  0  0  0  0  0  0
    9.1952  -14.6602   24.6291 C   0  0  2  0  0  0  0  0  0  0  0  0
    9.2132  -15.3068   23.3123 N   0  0  0  0  0  0  0  0  0  0  0  0
    9.4553  -15.7083   25.6344 C   0  0  0  0  0  0  0  0  0  0  0  0
    9.7083  -17.0046   25.2612 O   0  0  0  0  0  0  0  0  0  0  0  0
    9.4526  -15.4418   26.8733 O   0  0  0  0  0  0  0  0  0  0  0  0
  2  1  1  0
  2  4  1  0
  3  2  2  0
  5  4  1  0
  6  5  1  0
  6  7  1  6
  8  6  1  0
  8  9  2  0
 10 11  1  0
 11 12  2  0
 13 11  1  0
 14 13  1  1
 14 15  1  0
 15  8  1  0
 16 14  1  0
 16 23  1  0
 17 16  2  0
 19 20  1  0
 19 18  1  0
 20 21  1  0
 22 21  1  1
 22 23  1  0
 22 24  1  0
 24 26  2  0
 24 25  1  0
M  END
$$$$
