QNM.pdb
     RDKit          3D

 26 25  0  0  1  0  0  0  0  0999 V2000
   10.4281  -13.2670   19.5194 N   0  0  0  0  0  0  0  0  0  0  0  0
    9.2419  -12.7700   18.8961 C   0  0  0  0  0  0  0  0  0  0  0  0
    9.3583  -11.9998   17.9266 O   0  0  0  0  0  0  0  0  0  0  0  0
    7.9460  -13.1885   19.4194 C   0  0  0  0  0  0  0  0  0  0  0  0
    7.9514  -14.1619   20.5340 C   0  0  0  0  0  0  0  0  0  0  0  0
    8.4618  -15.5282   20.2489 C   0  0  2  0  0  0  0  0  0  0  0  0
    7.8778  -16.2132   19.1456 N   0  0  0  0  0  0  0  0  0  0  0  0
    8.3231  -16.4052   21.4819 C   0  0  0  0  0  0  0  0  0  0  0  0
    7.5915  -17.4316   21.4237 O   0  0  0  0  0  0  0  0  0  0  0  0
    9.8884  -18.9386   21.0385 N   0  0  0  0  0  0  0  0  0  0  0  0
   10.9281  -18.6686   21.9991 C   0  0  0  0  0  0  0  0  0  0  0  0
   11.5668  -19.6805   22.3725 O   0  0  0  0  0  0  0  0  0  0  0  0
   11.1780  -17.2766   22.4699 C   0  0  0  0  0  0  0  0  0  0  0  0
    9.9971  -16.8636   23.3536 C   0  0  2  0  0  0  0  0  0  0  0  0
    8.9886  -16.1049   22.6865 N   0  0  0  0  0  0  0  0  0  0  0  0
   10.4965  -16.2626   24.5807 C   0  0  0  0  0  0  0  0  0  0  0  0
   11.4056  -16.8481   25.2063 O   0  0  0  0  0  0  0  0  0  0  0  0
    5.5662  -12.0317   27.0759 C   0  0  0  0  0  0  0  0  0  0  0  0
    7.2984  -11.8055   26.6441 S   0  0  0  0  0  0  0  0  0  0  0  0
    7.8999  -13.1410   25.5973 C   0  0  0  0  0  0  0  0  0  0  0  0
    8.0289  -14.4394   26.3373 C   0  0  0  0  0  0  0  0  0  0  0  0
    9.4408  -14.9355   26.4387 C   0  0  2  0  0  0  0  0  0  0  0  0
    9.9912  -15.0542   25.0839 N   0  0  0  0  0  0  0  0  0  0  0  0
    9.5654  -16.2590   27.0787 C   0  0  0  0  0  0  0  0  0  0  0  0
   10.2175  -16.4110   28.2768 O   0  0  0  0  0  0  0  0  0  0  0  0
    9.0733  -17.2952   26.5403 O   0  0  0  0  0  0  0  0  0  0  0  0
  2  1  1  0
  2  4  1  0
  3  2  2  0
  5  4  1  0
  6  5  1  0
  6  7  1  6
  8  6  1  0
  8  9  2  0
 10 11  1  0
 11 12  2  0
 13 11  1  0
 14 13  1  6
 14 15  1  0
 15  8  1  0
 16 14  1  0
 16 23  1  0
 17 16  2  0
 19 20  1  0
 19 18  1  0
 20 21  1  0
 22 21  1  6
 22 23  1  0
 22 24  1  0
 24 26  2  0
 24 25  1  0
M  END
$$$$
