FEQ.pdb
     RDKit          3D

 30 30  0  0  1  0  0  0  0  0999 V2000
   23.4345  -13.8504  -18.8092 N   0  0  0  0  0  0  0  0  0  0  0  0
   23.4901  -12.4878  -19.2683 C   0  0  1  0  0  0  0  0  0  0  0  0
   22.1859  -12.1716  -19.9547 C   0  0  0  0  0  0  0  0  0  0  0  0
   22.1212  -13.0099  -21.1687 C   0  0  0  0  0  0  0  0  0  0  0  0
   21.3907  -14.1718  -21.2149 C   0  0  0  0  0  0  0  0  0  0  0  0
   21.3458  -14.9505  -22.3768 C   0  0  0  0  0  0  0  0  0  0  0  0
   22.0451  -14.5567  -23.5104 C   0  0  0  0  0  0  0  0  0  0  0  0
   22.7755  -13.3922  -23.4600 C   0  0  0  0  0  0  0  0  0  0  0  0
   22.8041  -12.6398  -22.2995 C   0  0  0  0  0  0  0  0  0  0  0  0
   23.8360  -11.5388  -18.1926 C   0  0  0  0  0  0  0  0  0  0  0  0
   23.3203  -11.6798  -17.0445 O   0  0  0  0  0  0  0  0  0  0  0  0
   24.7303  -10.4507  -18.3612 N   0  0  0  0  0  0  0  0  0  0  0  0
   25.0221   -9.4694  -17.3239 C   0  0  1  0  0  0  0  0  0  0  0  0
   26.4647   -9.1187  -17.2925 C   0  0  0  0  0  0  0  0  0  0  0  0
   27.4282  -10.2066  -17.0097 C   0  0  0  0  0  0  0  0  0  0  0  0
   28.8178   -9.8297  -16.7988 C   0  0  0  0  0  0  0  0  0  0  0  0
   29.1971   -8.6360  -16.8668 O   0  0  0  0  0  0  0  0  0  0  0  0
   24.0776   -8.3534  -17.2971 C   0  0  0  0  0  0  0  0  0  0  0  0
   23.7701   -7.7586  -18.3535 O   0  0  0  0  0  0  0  0  0  0  0  0
   29.7820  -10.7845  -16.5123 O   0  0  0  0  0  0  0  0  0  0  0  0
   19.2632   -8.0376  -18.7611 N   0  0  0  0  0  0  0  0  0  0  0  0
   19.1068   -6.8718  -17.9385 C   0  0  0  0  0  0  0  0  0  0  0  0
   18.0343   -6.2442  -18.0940 O   0  0  0  0  0  0  0  0  0  0  0  0
   20.1749   -6.4902  -16.9926 C   0  0  0  0  0  0  0  0  0  0  0  0
   21.3736   -7.3694  -17.0030 C   0  0  0  0  0  0  0  0  0  0  0  0
   22.4446   -6.9695  -16.0445 C   0  0  2  0  0  0  0  0  0  0  0  0
   23.5113   -7.9493  -16.0634 N   0  0  0  0  0  0  0  0  0  0  0  0
   21.9821   -6.6787  -14.6731 C   0  0  0  0  0  0  0  0  0  0  0  0
   21.6700   -5.4752  -14.3867 O   0  0  0  0  0  0  0  0  0  0  0  0
   21.8600   -7.6170  -13.6705 O   0  0  0  0  0  0  0  0  0  0  0  0
  2  3  1  0
  2  1  1  1
  4  3  1  0
  4  9  2  0
  5  4  1  0
  6  5  2  0
  6  7  1  0
  7  8  2  0
  8  9  1  0
 10  2  1  0
 11 10  2  0
 12 10  1  0
 13 12  1  0
 14 15  1  0
 13 14  1  6
 15 16  1  0
 16 17  2  0
 18 27  1  0
 18 13  1  0
 19 18  2  0
 20 16  1  0
 22 24  1  0
 22 21  1  0
 23 22  2  0
 26 25  1  6
 25 24  1  0
 26 27  1  0
 28 26  1  0
 29 28  2  0
 30 28  1  0
M  END
$$$$
