FEQ.pdb
     RDKit          3D

 30 30  0  0  1  0  0  0  0  0999 V2000
   24.4854  -12.7415  -19.0974 N   0  0  0  0  0  0  0  0  0  0  0  0
   24.2626  -12.2783  -17.7534 C   0  0  1  0  0  0  0  0  0  0  0  0
   25.6000  -11.9349  -17.1488 C   0  0  0  0  0  0  0  0  0  0  0  0
   26.3248  -13.2062  -16.9505 C   0  0  0  0  0  0  0  0  0  0  0  0
   27.2189  -13.6881  -17.8746 C   0  0  0  0  0  0  0  0  0  0  0  0
   27.8928  -14.8965  -17.6651 C   0  0  0  0  0  0  0  0  0  0  0  0
   27.6656  -15.6331  -16.5096 C   0  0  0  0  0  0  0  0  0  0  0  0
   26.7692  -15.1468  -15.5865 C   0  0  0  0  0  0  0  0  0  0  0  0
   26.1156  -13.9496  -15.8166 C   0  0  0  0  0  0  0  0  0  0  0  0
   23.2844  -11.1756  -17.6868 C   0  0  0  0  0  0  0  0  0  0  0  0
   23.2852  -10.2835  -18.5858 O   0  0  0  0  0  0  0  0  0  0  0  0
   22.3176  -11.0430  -16.6572 N   0  0  0  0  0  0  0  0  0  0  0  0
   21.3184   -9.9830  -16.6112 C   0  0  1  0  0  0  0  0  0  0  0  0
   19.9536  -10.5263  -16.3941 C   0  0  0  0  0  0  0  0  0  0  0  0
   18.8181   -9.5803  -16.4797 C   0  0  0  0  0  0  0  0  0  0  0  0
   17.4780  -10.1322  -16.3491 C   0  0  0  0  0  0  0  0  0  0  0  0
   17.2839  -11.3464  -16.1009 O   0  0  0  0  0  0  0  0  0  0  0  0
   21.7113   -8.8497  -15.7748 C   0  0  0  0  0  0  0  0  0  0  0  0
   22.3566   -9.0352  -14.7195 O   0  0  0  0  0  0  0  0  0  0  0  0
   16.3567   -9.3294  -16.4954 O   0  0  0  0  0  0  0  0  0  0  0  0
   22.6883   -3.0048  -17.9048 N   0  0  0  0  0  0  0  0  0  0  0  0
   22.8805   -2.8832  -16.4877 C   0  0  0  0  0  0  0  0  0  0  0  0
   23.2941   -1.7683  -16.0950 O   0  0  0  0  0  0  0  0  0  0  0  0
   22.5928   -4.0319  -15.6050 C   0  0  0  0  0  0  0  0  0  0  0  0
   22.0711   -5.2428  -16.2915 C   0  0  0  0  0  0  0  0  0  0  0  0
   21.8061   -6.4014  -15.3898 C   0  0  2  0  0  0  0  0  0  0  0  0
   21.3553   -7.5366  -16.1686 N   0  0  0  0  0  0  0  0  0  0  0  0
   20.9100   -6.1180  -14.2515 C   0  0  0  0  0  0  0  0  0  0  0  0
   21.4041   -5.5395  -13.2273 O   0  0  0  0  0  0  0  0  0  0  0  0
   19.5685   -6.4329  -14.2115 O   0  0  0  0  0  0  0  0  0  0  0  0
  2  3  1  0
  2  1  1  6
  4  3  1  0
  4  9  2  0
  5  4  1  0
  6  5  2  0
  6  7  1  0
  7  8  2  0
  8  9  1  0
 10  2  1  0
 11 10  2  0
 12 10  1  0
 13 12  1  0
 14 15  1  0
 13 14  1  1
 15 16  1  0
 16 17  2  0
 18 27  1  0
 18 13  1  0
 19 18  2  0
 20 16  1  0
 22 24  1  0
 22 21  1  0
 23 22  2  0
 26 25  1  6
 25 24  1  0
 26 27  1  0
 28 26  1  0
 29 28  2  0
 30 28  1  0
M  END
$$$$
