FEQ.pdb
     RDKit          3D

 30 30  0  0  1  0  0  0  0  0999 V2000
   27.3628   -9.3965  -16.0880 N   0  0  0  0  0  0  0  0  0  0  0  0
   26.0176   -9.9007  -16.1700 C   0  0  1  0  0  0  0  0  0  0  0  0
   25.8553  -10.9735  -15.1237 C   0  0  0  0  0  0  0  0  0  0  0  0
   26.6409  -12.1401  -15.5740 C   0  0  0  0  0  0  0  0  0  0  0  0
   26.2707  -12.8935  -16.6606 C   0  0  0  0  0  0  0  0  0  0  0  0
   27.0308  -13.9957  -17.0675 C   0  0  0  0  0  0  0  0  0  0  0  0
   28.1810  -14.3474  -16.3726 C   0  0  0  0  0  0  0  0  0  0  0  0
   28.5483  -13.5900  -15.2848 C   0  0  0  0  0  0  0  0  0  0  0  0
   27.7802  -12.5050  -14.9024 C   0  0  0  0  0  0  0  0  0  0  0  0
   25.0034   -8.8325  -16.0821 C   0  0  0  0  0  0  0  0  0  0  0  0
   25.0532   -7.9997  -15.1292 O   0  0  0  0  0  0  0  0  0  0  0  0
   23.9487   -8.6706  -17.0168 N   0  0  0  0  0  0  0  0  0  0  0  0
   22.9458   -7.6161  -16.9368 C   0  0  1  0  0  0  0  0  0  0  0  0
   22.4787   -7.2016  -18.2840 C   0  0  0  0  0  0  0  0  0  0  0  0
   21.5024   -6.0913  -18.3589 C   0  0  0  0  0  0  0  0  0  0  0  0
   21.0020   -5.7300  -19.6767 C   0  0  0  0  0  0  0  0  0  0  0  0
   21.3350   -6.3630  -20.7072 O   0  0  0  0  0  0  0  0  0  0  0  0
   21.9105   -7.8732  -15.9366 C   0  0  0  0  0  0  0  0  0  0  0  0
   21.3755   -9.0008  -15.8545 O   0  0  0  0  0  0  0  0  0  0  0  0
   20.1311   -4.6637  -19.8433 O   0  0  0  0  0  0  0  0  0  0  0  0
   21.4677   -5.2862  -10.2757 N   0  0  0  0  0  0  0  0  0  0  0  0
   20.3307   -6.1591  -10.3476 C   0  0  0  0  0  0  0  0  0  0  0  0
   19.6718   -6.2720   -9.2886 O   0  0  0  0  0  0  0  0  0  0  0  0
   20.0121   -6.8495  -11.6137 C   0  0  0  0  0  0  0  0  0  0  0  0
   20.9584   -6.5917  -12.7309 C   0  0  0  0  0  0  0  0  0  0  0  0
   20.4938   -7.0788  -14.0623 C   0  0  2  0  0  0  0  0  0  0  0  0
   21.5163   -6.8340  -15.0587 N   0  0  0  0  0  0  0  0  0  0  0  0
   19.1725   -6.5765  -14.4876 C   0  0  0  0  0  0  0  0  0  0  0  0
   18.1333   -7.1088  -13.9734 O   0  0  0  0  0  0  0  0  0  0  0  0
   18.9749   -5.5670  -15.4054 O   0  0  0  0  0  0  0  0  0  0  0  0
  2  3  1  0
  2  1  1  1
  4  3  1  0
  4  9  2  0
  5  4  1  0
  6  5  2  0
  6  7  1  0
  7  8  2  0
  8  9  1  0
 10  2  1  0
 11 10  2  0
 12 10  1  0
 13 12  1  0
 14 15  1  0
 13 14  1  6
 15 16  1  0
 16 17  2  0
 18 27  1  0
 18 13  1  0
 19 18  2  0
 20 16  1  0
 22 24  1  0
 22 21  1  0
 23 22  2  0
 26 25  1  1
 25 24  1  0
 26 27  1  0
 28 26  1  0
 29 28  2  0
 30 28  1  0
M  END
$$$$
