FEQ.pdb
     RDKit          3D

 30 30  0  0  1  0  0  0  0  0999 V2000
   27.3028  -21.9529  -12.1002 N   0  0  0  0  0  0  0  0  0  0  0  0
   26.1256  -21.2217  -11.7128 C   0  0  1  0  0  0  0  0  0  0  0  0
   26.5545  -19.8480  -11.2641 C   0  0  0  0  0  0  0  0  0  0  0  0
   27.1130  -19.9913   -9.9046 C   0  0  0  0  0  0  0  0  0  0  0  0
   28.4496  -20.2171   -9.6850 C   0  0  0  0  0  0  0  0  0  0  0  0
   28.9554  -20.3510   -8.3872 C   0  0  0  0  0  0  0  0  0  0  0  0
   28.1062  -20.2565   -7.2921 C   0  0  0  0  0  0  0  0  0  0  0  0
   26.7681  -20.0301   -7.5164 C   0  0  0  0  0  0  0  0  0  0  0  0
   26.2924  -19.9014   -8.8089 C   0  0  0  0  0  0  0  0  0  0  0  0
   25.0948  -21.2025  -12.7684 C   0  0  0  0  0  0  0  0  0  0  0  0
   25.4017  -20.8177  -13.9353 O   0  0  0  0  0  0  0  0  0  0  0  0
   23.7480  -21.5961  -12.5597 N   0  0  0  0  0  0  0  0  0  0  0  0
   22.7238  -21.5724  -13.5964 C   0  0  1  0  0  0  0  0  0  0  0  0
   22.0189  -22.8753  -13.6992 C   0  0  0  0  0  0  0  0  0  0  0  0
   20.9214  -22.9844  -14.6868 C   0  0  0  0  0  0  0  0  0  0  0  0
   20.2418  -24.2669  -14.7908 C   0  0  0  0  0  0  0  0  0  0  0  0
   19.4569  -24.6737  -13.9010 O   0  0  0  0  0  0  0  0  0  0  0  0
   21.8836  -20.3762  -13.5562 C   0  0  0  0  0  0  0  0  0  0  0  0
   22.0275  -19.5316  -12.6450 O   0  0  0  0  0  0  0  0  0  0  0  0
   20.4386  -25.0935  -15.8868 O   0  0  0  0  0  0  0  0  0  0  0  0
   20.0991  -16.4845  -12.1940 N   0  0  0  0  0  0  0  0  0  0  0  0
   19.8770  -15.8289  -13.4513 C   0  0  0  0  0  0  0  0  0  0  0  0
   19.3006  -14.7191  -13.3845 O   0  0  0  0  0  0  0  0  0  0  0  0
   20.3211  -16.4717  -14.7047 C   0  0  0  0  0  0  0  0  0  0  0  0
   21.0136  -17.7763  -14.5364 C   0  0  0  0  0  0  0  0  0  0  0  0
   20.1132  -18.9653  -14.5692 C   0  0  2  0  0  0  0  0  0  0  0  0
   20.9029  -20.1796  -14.5591 N   0  0  0  0  0  0  0  0  0  0  0  0
   19.1114  -18.9635  -15.6534 C   0  0  0  0  0  0  0  0  0  0  0  0
   19.4606  -19.4140  -16.7948 O   0  0  0  0  0  0  0  0  0  0  0  0
   17.8163  -18.5090  -15.5246 O   0  0  0  0  0  0  0  0  0  0  0  0
  2  3  1  0
  2  1  1  6
  4  3  1  0
  4  9  2  0
  5  4  1  0
  6  5  2  0
  6  7  1  0
  7  8  2  0
  8  9  1  0
 10  2  1  0
 11 10  2  0
 12 10  1  0
 13 12  1  0
 14 15  1  0
 13 14  1  1
 15 16  1  0
 16 17  2  0
 18 27  1  0
 18 13  1  0
 19 18  2  0
 20 16  1  0
 22 24  1  0
 22 21  1  0
 23 22  2  0
 26 25  1  6
 25 24  1  0
 26 27  1  0
 28 26  1  0
 29 28  2  0
 30 28  1  0
M  END
$$$$
