FEQ.pdb
     RDKit          3D

 30 30  0  0  1  0  0  0  0  0999 V2000
   25.3232  -21.4465   -7.9298 N   0  0  0  0  0  0  0  0  0  0  0  0
   25.9021  -20.6866   -9.0059 C   0  0  1  0  0  0  0  0  0  0  0  0
   27.4014  -20.8141   -8.9153 C   0  0  0  0  0  0  0  0  0  0  0  0
   27.8168  -20.1570   -7.6598 C   0  0  0  0  0  0  0  0  0  0  0  0
   27.4744  -18.8597   -7.3674 C   0  0  0  0  0  0  0  0  0  0  0  0
   27.8812  -18.2578   -6.1714 C   0  0  0  0  0  0  0  0  0  0  0  0
   28.6438  -18.9693   -5.2540 C   0  0  0  0  0  0  0  0  0  0  0  0
   28.9845  -20.2686   -5.5507 C   0  0  0  0  0  0  0  0  0  0  0  0
   28.5702  -20.8412   -6.7398 C   0  0  0  0  0  0  0  0  0  0  0  0
   25.3567  -21.0616  -10.3247 C   0  0  0  0  0  0  0  0  0  0  0  0
   25.5467  -22.2318  -10.7703 O   0  0  0  0  0  0  0  0  0  0  0  0
   24.6145  -20.1775  -11.1491 N   0  0  0  0  0  0  0  0  0  0  0  0
   24.1826  -20.4981  -12.5037 C   0  0  1  0  0  0  0  0  0  0  0  0
   22.8291  -19.9579  -12.7889 C   0  0  0  0  0  0  0  0  0  0  0  0
   22.2829  -20.1620  -14.1497 C   0  0  0  0  0  0  0  0  0  0  0  0
   20.9597  -19.6230  -14.4258 C   0  0  0  0  0  0  0  0  0  0  0  0
   19.9703  -20.3679  -14.6247 O   0  0  0  0  0  0  0  0  0  0  0  0
   25.2104  -20.2533  -13.5147 C   0  0  0  0  0  0  0  0  0  0  0  0
   25.8474  -19.1770  -13.5224 O   0  0  0  0  0  0  0  0  0  0  0  0
   20.7421  -18.2544  -14.4796 O   0  0  0  0  0  0  0  0  0  0  0  0
   29.5073  -24.0266  -15.4894 N   0  0  0  0  0  0  0  0  0  0  0  0
   29.5463  -23.0340  -16.5254 C   0  0  0  0  0  0  0  0  0  0  0  0
   30.5560  -23.0687  -17.2655 O   0  0  0  0  0  0  0  0  0  0  0  0
   28.4398  -22.0646  -16.6575 C   0  0  0  0  0  0  0  0  0  0  0  0
   27.3478  -22.2105  -15.6595 C   0  0  0  0  0  0  0  0  0  0  0  0
   26.4818  -21.0053  -15.5070 C   0  0  2  0  0  0  0  0  0  0  0  0
   25.4806  -21.2460  -14.4881 N   0  0  0  0  0  0  0  0  0  0  0  0
   25.8883  -20.4971  -16.7594 C   0  0  0  0  0  0  0  0  0  0  0  0
   25.3715  -21.3406  -17.5651 O   0  0  0  0  0  0  0  0  0  0  0  0
   25.8494  -19.1690  -17.1270 O   0  0  0  0  0  0  0  0  0  0  0  0
  2  3  1  0
  2  1  1  1
  4  3  1  0
  4  9  2  0
  5  4  1  0
  6  5  2  0
  6  7  1  0
  7  8  2  0
  8  9  1  0
 10  2  1  0
 11 10  2  0
 12 10  1  0
 13 12  1  0
 14 15  1  0
 13 14  1  6
 15 16  1  0
 16 17  2  0
 18 27  1  0
 18 13  1  0
 19 18  2  0
 20 16  1  0
 22 24  1  0
 22 21  1  0
 23 22  2  0
 26 25  1  6
 25 24  1  0
 26 27  1  0
 28 26  1  0
 29 28  2  0
 30 28  1  0
M  END
$$$$
