FEQ.pdb
     RDKit          3D

 30 30  0  0  1  0  0  0  0  0999 V2000
   24.6313  -12.3738  -18.3419 N   0  0  0  0  0  0  0  0  0  0  0  0
   24.4802  -11.5602  -17.1647 C   0  0  1  0  0  0  0  0  0  0  0  0
   25.8426  -11.0494  -16.7708 C   0  0  0  0  0  0  0  0  0  0  0  0
   26.6607  -12.2266  -16.4165 C   0  0  0  0  0  0  0  0  0  0  0  0
   26.4516  -12.9396  -15.2617 C   0  0  0  0  0  0  0  0  0  0  0  0
   27.2412  -14.0512  -14.9467 C   0  0  0  0  0  0  0  0  0  0  0  0
   28.2567  -14.4538  -15.8045 C   0  0  0  0  0  0  0  0  0  0  0  0
   28.4628  -13.7370  -16.9603 C   0  0  0  0  0  0  0  0  0  0  0  0
   27.6689  -12.6417  -17.2493 C   0  0  0  0  0  0  0  0  0  0  0  0
   23.4766  -10.4922  -17.3362 C   0  0  0  0  0  0  0  0  0  0  0  0
   23.2603  -10.0167  -18.4900 O   0  0  0  0  0  0  0  0  0  0  0  0
   22.7175   -9.9475  -16.2689 N   0  0  0  0  0  0  0  0  0  0  0  0
   21.7521   -8.8670  -16.4259 C   0  0  1  0  0  0  0  0  0  0  0  0
   20.8629   -8.7511  -15.2422 C   0  0  0  0  0  0  0  0  0  0  0  0
   19.7126   -7.8241  -15.3377 C   0  0  0  0  0  0  0  0  0  0  0  0
   18.8442   -7.7157  -14.1751 C   0  0  0  0  0  0  0  0  0  0  0  0
   19.0868   -8.3299  -13.1087 O   0  0  0  0  0  0  0  0  0  0  0  0
   22.3446   -7.6256  -16.9222 C   0  0  0  0  0  0  0  0  0  0  0  0
   23.5346   -7.3431  -16.6606 O   0  0  0  0  0  0  0  0  0  0  0  0
   17.7068   -6.9228  -14.2038 O   0  0  0  0  0  0  0  0  0  0  0  0
   25.7628   -6.7525  -20.4761 N   0  0  0  0  0  0  0  0  0  0  0  0
   25.2877   -5.4038  -20.6000 C   0  0  0  0  0  0  0  0  0  0  0  0
   25.9892   -4.6501  -21.3128 O   0  0  0  0  0  0  0  0  0  0  0  0
   24.0488   -4.9937  -19.9084 C   0  0  0  0  0  0  0  0  0  0  0  0
   23.4028   -6.0509  -19.0868 C   0  0  0  0  0  0  0  0  0  0  0  0
   22.1811   -5.6074  -18.3544 C   0  0  2  0  0  0  0  0  0  0  0  0
   21.5598   -6.7426  -17.7034 N   0  0  0  0  0  0  0  0  0  0  0  0
   21.2158   -4.8311  -19.1574 C   0  0  0  0  0  0  0  0  0  0  0  0
   20.0934   -5.3707  -19.4344 O   0  0  0  0  0  0  0  0  0  0  0  0
   21.4370   -3.5565  -19.6337 O   0  0  0  0  0  0  0  0  0  0  0  0
  2  3  1  0
  2  1  1  6
  4  3  1  0
  4  9  2  0
  5  4  1  0
  6  5  2  0
  6  7  1  0
  7  8  2  0
  8  9  1  0
 10  2  1  0
 11 10  2  0
 12 10  1  0
 13 12  1  0
 14 15  1  0
 13 14  1  1
 15 16  1  0
 16 17  2  0
 18 27  1  0
 18 13  1  0
 19 18  2  0
 20 16  1  0
 22 24  1  0
 22 21  1  0
 23 22  2  0
 26 25  1  6
 25 24  1  0
 26 27  1  0
 28 26  1  0
 29 28  2  0
 30 28  1  0
M  END
$$$$
