FEQ.pdb
     RDKit          3D

 30 30  0  0  1  0  0  0  0  0999 V2000
   27.0091  -18.7775   -8.9337 N   0  0  0  0  0  0  0  0  0  0  0  0
   26.5996  -20.1348   -9.1799 C   0  0  1  0  0  0  0  0  0  0  0  0
   26.1738  -20.7407   -7.8669 C   0  0  0  0  0  0  0  0  0  0  0  0
   27.2411  -20.4489   -6.8890 C   0  0  0  0  0  0  0  0  0  0  0  0
   28.5678  -20.6632   -7.1713 C   0  0  0  0  0  0  0  0  0  0  0  0
   29.5614  -20.3804   -6.2274 C   0  0  0  0  0  0  0  0  0  0  0  0
   29.2182  -19.8744   -4.9803 C   0  0  0  0  0  0  0  0  0  0  0  0
   27.8881  -19.6611   -4.7015 C   0  0  0  0  0  0  0  0  0  0  0  0
   26.9245  -19.9487   -5.6514 C   0  0  0  0  0  0  0  0  0  0  0  0
   25.5750  -20.2371  -10.2368 C   0  0  0  0  0  0  0  0  0  0  0  0
   24.3985  -19.8272  -10.0091 O   0  0  0  0  0  0  0  0  0  0  0  0
   25.8246  -20.7774  -11.5244 N   0  0  0  0  0  0  0  0  0  0  0  0
   24.9046  -20.6588  -12.6486 C   0  0  1  0  0  0  0  0  0  0  0  0
   25.6254  -20.6455  -13.9467 C   0  0  0  0  0  0  0  0  0  0  0  0
   26.5403  -21.7733  -14.2339 C   0  0  0  0  0  0  0  0  0  0  0  0
   27.2369  -21.7594  -15.5115 C   0  0  0  0  0  0  0  0  0  0  0  0
   28.4842  -21.8696  -15.5862 O   0  0  0  0  0  0  0  0  0  0  0  0
   23.7499  -21.5508  -12.5513 C   0  0  0  0  0  0  0  0  0  0  0  0
   23.7862  -22.5547  -11.8061 O   0  0  0  0  0  0  0  0  0  0  0  0
   26.5414  -21.6227  -16.7035 O   0  0  0  0  0  0  0  0  0  0  0  0
   18.9855  -24.1799  -11.2556 N   0  0  0  0  0  0  0  0  0  0  0  0
   18.6243  -22.7919  -11.1988 C   0  0  0  0  0  0  0  0  0  0  0  0
   17.4452  -22.5572  -10.8481 O   0  0  0  0  0  0  0  0  0  0  0  0
   19.6207  -21.7577  -11.5434 C   0  0  0  0  0  0  0  0  0  0  0  0
   20.9941  -22.2636  -11.8037 C   0  0  0  0  0  0  0  0  0  0  0  0
   21.4386  -22.1492  -13.2232 C   0  0  2  0  0  0  0  0  0  0  0  0
   22.5866  -21.2698  -13.3088 N   0  0  0  0  0  0  0  0  0  0  0  0
   20.3811  -21.7768  -14.1834 C   0  0  0  0  0  0  0  0  0  0  0  0
   19.4202  -22.5959  -14.3666 O   0  0  0  0  0  0  0  0  0  0  0  0
   20.3526  -20.6010  -14.9025 O   0  0  0  0  0  0  0  0  0  0  0  0
  2  3  1  0
  2  1  1  1
  4  3  1  0
  4  9  2  0
  5  4  1  0
  6  5  2  0
  6  7  1  0
  7  8  2  0
  8  9  1  0
 10  2  1  0
 11 10  2  0
 12 10  1  0
 13 12  1  0
 14 15  1  0
 13 14  1  6
 15 16  1  0
 16 17  2  0
 18 27  1  0
 18 13  1  0
 19 18  2  0
 20 16  1  0
 22 24  1  0
 22 21  1  0
 23 22  2  0
 26 25  1  1
 25 24  1  0
 26 27  1  0
 28 26  1  0
 29 28  2  0
 30 28  1  0
M  END
$$$$
