FEQ.pdb
     RDKit          3D

 30 30  0  0  1  0  0  0  0  0999 V2000
   20.1885  -11.4715  -15.2815 N   0  0  0  0  0  0  0  0  0  0  0  0
   20.1087  -10.5221  -16.3598 C   0  0  1  0  0  0  0  0  0  0  0  0
   18.7286  -10.6100  -16.9596 C   0  0  0  0  0  0  0  0  0  0  0  0
   18.6372  -11.9142  -17.6463 C   0  0  0  0  0  0  0  0  0  0  0  0
   17.9590  -12.9781  -17.1043 C   0  0  0  0  0  0  0  0  0  0  0  0
   17.8874  -14.2050  -17.7735 C   0  0  0  0  0  0  0  0  0  0  0  0
   18.5064  -14.3667  -19.0064 C   0  0  0  0  0  0  0  0  0  0  0  0
   19.1846  -13.2985  -19.5458 C   0  0  0  0  0  0  0  0  0  0  0  0
   19.2409  -12.0958  -18.8648 C   0  0  0  0  0  0  0  0  0  0  0  0
   20.4859   -9.1572  -15.9451 C   0  0  0  0  0  0  0  0  0  0  0  0
   19.8222   -8.5732  -15.0382 O   0  0  0  0  0  0  0  0  0  0  0  0
   21.5699   -8.4356  -16.5076 N   0  0  0  0  0  0  0  0  0  0  0  0
   21.9316   -7.0780  -16.1201 C   0  0  1  0  0  0  0  0  0  0  0  0
   23.3774   -6.8147  -16.3335 C   0  0  0  0  0  0  0  0  0  0  0  0
   23.8676   -5.4403  -16.0834 C   0  0  0  0  0  0  0  0  0  0  0  0
   25.2696   -5.1701  -16.3641 C   0  0  0  0  0  0  0  0  0  0  0  0
   26.0581   -6.0757  -16.7273 O   0  0  0  0  0  0  0  0  0  0  0  0
   21.0024   -6.0643  -16.6177 C   0  0  0  0  0  0  0  0  0  0  0  0
   20.4900   -6.1778  -17.7529 O   0  0  0  0  0  0  0  0  0  0  0  0
   25.7901   -3.8907  -16.2395 O   0  0  0  0  0  0  0  0  0  0  0  0
   15.9192   -3.8586  -17.5662 N   0  0  0  0  0  0  0  0  0  0  0  0
   16.0223   -4.0250  -16.1444 C   0  0  0  0  0  0  0  0  0  0  0  0
   14.9728   -3.7996  -15.4992 O   0  0  0  0  0  0  0  0  0  0  0  0
   17.3073   -4.4353  -15.5429 C   0  0  0  0  0  0  0  0  0  0  0  0
   18.3980   -4.7191  -16.5123 C   0  0  0  0  0  0  0  0  0  0  0  0
   19.6770   -4.0034  -16.2340 C   0  0  2  0  0  0  0  0  0  0  0  0
   20.6855   -4.9498  -15.8031 N   0  0  0  0  0  0  0  0  0  0  0  0
   19.5652   -2.8541  -15.3144 C   0  0  0  0  0  0  0  0  0  0  0  0
   19.8727   -3.0328  -14.0892 O   0  0  0  0  0  0  0  0  0  0  0  0
   19.1511   -1.5918  -15.6826 O   0  0  0  0  0  0  0  0  0  0  0  0
  2  3  1  0
  2  1  1  1
  4  3  1  0
  4  9  2  0
  5  4  1  0
  6  5  2  0
  6  7  1  0
  7  8  2  0
  8  9  1  0
 10  2  1  0
 11 10  2  0
 12 10  1  0
 13 12  1  0
 14 15  1  0
 13 14  1  6
 15 16  1  0
 16 17  2  0
 18 27  1  0
 18 13  1  0
 19 18  2  0
 20 16  1  0
 22 24  1  0
 22 21  1  0
 23 22  2  0
 26 25  1  1
 25 24  1  0
 26 27  1  0
 28 26  1  0
 29 28  2  0
 30 28  1  0
M  END
$$$$
