WMR.pdb
     RDKit          3D

 34 35  0  0  1  0  0  0  0  0999 V2000
   27.2829  -21.0747  -15.9175 N   0  0  0  0  0  0  0  0  0  0  0  0
   26.6358  -20.1273  -15.0195 C   0  0  1  0  0  0  0  0  0  0  0  0
   25.4358  -19.5277  -15.7329 C   0  0  0  0  0  0  0  0  0  0  0  0
   25.7842  -18.5476  -16.7650 C   0  0  0  0  0  0  0  0  0  0  0  0
   25.6961  -18.6737  -18.1318 C   0  0  0  0  0  0  0  0  0  0  0  0
   26.1067  -17.5420  -18.7190 N   0  0  0  0  0  0  0  0  0  0  0  0
   26.4675  -16.6636  -17.7395 C   0  0  0  0  0  0  0  0  0  0  0  0
   26.9547  -15.3748  -17.7712 C   0  0  0  0  0  0  0  0  0  0  0  0
   27.2539  -14.6745  -16.6253 C   0  0  0  0  0  0  0  0  0  0  0  0
   27.0522  -15.3040  -15.3986 C   0  0  0  0  0  0  0  0  0  0  0  0
   26.5655  -16.5932  -15.3561 C   0  0  0  0  0  0  0  0  0  0  0  0
   26.2699  -17.2816  -16.5247 C   0  0  0  0  0  0  0  0  0  0  0  0
   26.1124  -20.8507  -13.8178 C   0  0  0  0  0  0  0  0  0  0  0  0
   25.6850  -22.0258  -13.8616 O   0  0  0  0  0  0  0  0  0  0  0  0
   26.5419  -18.8897   -6.8785 C   0  0  0  0  0  0  0  0  0  0  0  0
   26.6269  -20.6181   -7.2985 S   0  0  0  0  0  0  0  0  0  0  0  0
   25.8144  -21.0489   -8.7892 C   0  0  0  0  0  0  0  0  0  0  0  0
   26.2410  -20.4964  -10.0680 C   0  0  0  0  0  0  0  0  0  0  0  0
   25.6840  -20.8173  -11.3695 C   0  0  2  0  0  0  0  0  0  0  0  0
   26.1048  -20.1441  -12.5371 N   0  0  0  0  0  0  0  0  0  0  0  0
   24.1664  -20.6701  -11.2591 C   0  0  0  0  0  0  0  0  0  0  0  0
   23.6975  -19.5500  -11.5402 O   0  0  0  0  0  0  0  0  0  0  0  0
   18.5300  -24.4921   -6.9024 N   0  0  0  0  0  0  0  0  0  0  0  0
   17.5947  -24.4391   -7.9575 C   0  0  0  0  0  0  0  0  0  0  0  0
   16.3388  -24.4076   -7.6785 N   0  0  0  0  0  0  0  0  0  0  0  0
   18.0477  -24.4212   -9.3025 N   0  0  0  0  0  0  0  0  0  0  0  0
   19.4629  -24.3658   -9.5823 C   0  0  0  0  0  0  0  0  0  0  0  0
   19.9258  -22.9566   -9.9154 C   0  0  0  0  0  0  0  0  0  0  0  0
   21.3771  -22.9462  -10.3334 C   0  0  0  0  0  0  0  0  0  0  0  0
   21.8802  -21.5606  -10.6633 C   0  0  2  0  0  0  0  0  0  0  0  0
   23.3292  -21.7161  -10.8681 N   0  0  0  0  0  0  0  0  0  0  0  0
   21.5917  -20.5437   -9.6607 C   0  0  0  0  0  0  0  0  0  0  0  0
   20.5399  -19.6496   -9.8033 O   0  0  0  0  0  0  0  0  0  0  0  0
   22.2885  -20.4427   -8.6286 O   0  0  0  0  0  0  0  0  0  0  0  0
  2  1  1  6
  3  2  1  0
  4  5  2  0
  4  3  1  0
  6  5  1  0
  7 12  2  0
  7  6  1  0
  8  7  1  0
  9 10  1  0
  9  8  2  0
 10 11  2  0
 11 12  1  0
 12  4  1  0
 13  2  1  0
 14 13  2  0
 16 15  1  0
 17 16  1  0
 17 18  1  0
 19 18  1  1
 19 20  1  0
 20 13  1  0
 21 19  1  0
 22 21  2  0
 23 24  1  0
 24 25  2  0
 24 26  1  0
 26 27  1  0
 27 28  1  0
 29 28  1  0
 30 29  1  1
 30 31  1  0
 31 21  1  0
 32 30  1  0
 32 33  1  0
 34 32  2  0
M  END
$$$$
