WMR.pdb
     RDKit          3D

 34 35  0  0  1  0  0  0  0  0999 V2000
   26.7440  -22.8814  -12.9258 N   0  0  0  0  0  0  0  0  0  0  0  0
   26.4672  -21.8335  -11.9521 C   0  0  1  0  0  0  0  0  0  0  0  0
   27.1582  -20.5585  -12.4049 C   0  0  0  0  0  0  0  0  0  0  0  0
   28.6185  -20.5988  -12.2907 C   0  0  0  0  0  0  0  0  0  0  0  0
   29.5618  -20.2913  -13.2433 C   0  0  0  0  0  0  0  0  0  0  0  0
   30.7900  -20.4508  -12.7332 N   0  0  0  0  0  0  0  0  0  0  0  0
   30.6609  -20.8648  -11.4398 C   0  0  0  0  0  0  0  0  0  0  0  0
   31.5794  -21.1762  -10.4606 C   0  0  0  0  0  0  0  0  0  0  0  0
   31.2013  -21.5808   -9.2011 C   0  0  0  0  0  0  0  0  0  0  0  0
   29.8392  -21.6743   -8.9219 C   0  0  0  0  0  0  0  0  0  0  0  0
   28.9123  -21.3653   -9.8946 C   0  0  0  0  0  0  0  0  0  0  0  0
   29.3158  -20.9587  -11.1591 C   0  0  0  0  0  0  0  0  0  0  0  0
   24.9978  -21.5477  -11.9252 C   0  0  0  0  0  0  0  0  0  0  0  0
   24.2453  -21.7520  -12.9036 O   0  0  0  0  0  0  0  0  0  0  0  0
   22.0085  -20.7095   -5.8482 C   0  0  0  0  0  0  0  0  0  0  0  0
   20.7028  -21.2202   -6.9459 S   0  0  0  0  0  0  0  0  0  0  0  0
   21.1717  -21.3511   -8.6285 C   0  0  0  0  0  0  0  0  0  0  0  0
   22.5542  -21.1548   -9.0441 C   0  0  0  0  0  0  0  0  0  0  0  0
   23.0594  -21.2248  -10.4030 C   0  0  2  0  0  0  0  0  0  0  0  0
   24.4235  -21.0057  -10.6940 N   0  0  0  0  0  0  0  0  0  0  0  0
   22.2339  -20.2489  -11.2416 C   0  0  0  0  0  0  0  0  0  0  0  0
   22.4724  -19.0370  -11.0744 O   0  0  0  0  0  0  0  0  0  0  0  0
   21.4926  -21.8578  -17.8712 N   0  0  0  0  0  0  0  0  0  0  0  0
   20.3064  -22.3973  -17.3303 C   0  0  0  0  0  0  0  0  0  0  0  0
   20.0933  -23.6626  -17.4288 N   0  0  0  0  0  0  0  0  0  0  0  0
   19.3707  -21.5440  -16.6893 N   0  0  0  0  0  0  0  0  0  0  0  0
   19.5875  -20.1166  -16.6841 C   0  0  0  0  0  0  0  0  0  0  0  0
   19.5359  -19.5349  -15.2805 C   0  0  0  0  0  0  0  0  0  0  0  0
   20.4465  -20.2937  -14.3444 C   0  0  0  0  0  0  0  0  0  0  0  0
   20.4390  -19.7344  -12.9412 C   0  0  2  0  0  0  0  0  0  0  0  0
   21.2611  -20.6653  -12.1517 N   0  0  0  0  0  0  0  0  0  0  0  0
   19.1178  -19.5619  -12.3520 C   0  0  0  0  0  0  0  0  0  0  0  0
   18.3949  -20.6322  -11.8442 O   0  0  0  0  0  0  0  0  0  0  0  0
   18.5871  -18.4329  -12.2833 O   0  0  0  0  0  0  0  0  0  0  0  0
  2  1  1  6
  3  2  1  0
  4  5  2  0
  4  3  1  0
  6  5  1  0
  7 12  2  0
  7  6  1  0
  8  7  1  0
  9 10  1  0
  9  8  2  0
 10 11  2  0
 11 12  1  0
 12  4  1  0
 13  2  1  0
 14 13  2  0
 16 15  1  0
 17 16  1  0
 17 18  1  0
 19 18  1  1
 19 20  1  0
 20 13  1  0
 21 19  1  0
 22 21  2  0
 23 24  1  0
 24 25  2  0
 24 26  1  0
 26 27  1  0
 27 28  1  0
 29 28  1  0
 30 29  1  6
 30 31  1  0
 31 21  1  0
 32 30  1  0
 32 33  1  0
 34 32  2  0
M  END
$$$$
