WMR.pdb
     RDKit          3D

 34 35  0  0  1  0  0  0  0  0999 V2000
   26.6286  -21.5212  -13.3679 N   0  0  0  0  0  0  0  0  0  0  0  0
   25.7582  -20.7062  -12.5307 C   0  0  1  0  0  0  0  0  0  0  0  0
   24.3146  -21.0196  -12.8855 C   0  0  0  0  0  0  0  0  0  0  0  0
   23.8798  -20.4568  -14.1667 C   0  0  0  0  0  0  0  0  0  0  0  0
   24.4163  -20.6569  -15.4172 C   0  0  0  0  0  0  0  0  0  0  0  0
   23.7179  -19.9644  -16.3264 N   0  0  0  0  0  0  0  0  0  0  0  0
   22.7161  -19.3037  -15.6774 C   0  0  0  0  0  0  0  0  0  0  0  0
   21.7170  -18.4595  -16.1116 C   0  0  0  0  0  0  0  0  0  0  0  0
   20.8017  -17.9008  -15.2496 C   0  0  0  0  0  0  0  0  0  0  0  0
   20.9020  -18.2087  -13.8942 C   0  0  0  0  0  0  0  0  0  0  0  0
   21.8981  -19.0519  -13.4497 C   0  0  0  0  0  0  0  0  0  0  0  0
   22.8112  -19.6050  -14.3370 C   0  0  0  0  0  0  0  0  0  0  0  0
   25.9462  -21.0829  -11.0939 C   0  0  0  0  0  0  0  0  0  0  0  0
   26.0365  -22.2690  -10.7061 O   0  0  0  0  0  0  0  0  0  0  0  0
   28.9237  -19.4071   -3.9687 C   0  0  0  0  0  0  0  0  0  0  0  0
   28.6619  -18.9063   -5.6573 S   0  0  0  0  0  0  0  0  0  0  0  0
   27.4224  -19.8093   -6.5038 C   0  0  0  0  0  0  0  0  0  0  0  0
   27.2048  -19.6341   -7.9336 C   0  0  0  0  0  0  0  0  0  0  0  0
   26.2173  -20.3258   -8.7419 C   0  0  2  0  0  0  0  0  0  0  0  0
   26.0278  -20.0086  -10.1047 N   0  0  0  0  0  0  0  0  0  0  0  0
   24.8717  -20.1816   -8.0308 C   0  0  0  0  0  0  0  0  0  0  0  0
   24.0284  -19.4505   -8.5857 O   0  0  0  0  0  0  0  0  0  0  0  0
   18.8783  -24.8594   -9.5391 N   0  0  0  0  0  0  0  0  0  0  0  0
   18.2558  -24.1649   -8.4804 C   0  0  0  0  0  0  0  0  0  0  0  0
   16.9908  -24.3113   -8.2949 N   0  0  0  0  0  0  0  0  0  0  0  0
   19.0271  -23.3202   -7.6400 N   0  0  0  0  0  0  0  0  0  0  0  0
   20.4004  -23.0314   -7.9789 C   0  0  0  0  0  0  0  0  0  0  0  0
   21.0855  -22.1842   -6.9187 C   0  0  0  0  0  0  0  0  0  0  0  0
   22.5021  -21.8500   -7.3225 C   0  0  0  0  0  0  0  0  0  0  0  0
   23.2099  -20.9836   -6.3074 C   0  0  2  0  0  0  0  0  0  0  0  0
   24.5776  -20.8225   -6.8264 N   0  0  0  0  0  0  0  0  0  0  0  0
   23.2160  -21.5052   -4.9472 C   0  0  0  0  0  0  0  0  0  0  0  0
   24.3338  -22.1211   -4.4020 O   0  0  0  0  0  0  0  0  0  0  0  0
   22.2048  -21.4134   -4.2190 O   0  0  0  0  0  0  0  0  0  0  0  0
  2  1  1  6
  3  2  1  0
  4  5  2  0
  4  3  1  0
  6  5  1  0
  7 12  2  0
  7  6  1  0
  8  7  1  0
  9 10  1  0
  9  8  2  0
 10 11  2  0
 11 12  1  0
 12  4  1  0
 13  2  1  0
 14 13  2  0
 16 15  1  0
 17 16  1  0
 17 18  1  0
 19 18  1  1
 19 20  1  0
 20 13  1  0
 21 19  1  0
 22 21  2  0
 23 24  1  0
 24 25  2  0
 24 26  1  0
 26 27  1  0
 27 28  1  0
 29 28  1  0
 30 29  1  6
 30 31  1  0
 31 21  1  0
 32 30  1  0
 32 33  1  0
 34 32  2  0
M  END
$$$$
