WMR.pdb
     RDKit          3D

 34 35  0  0  1  0  0  0  0  0999 V2000
   26.6809  -19.8113  -10.8736 N   0  0  0  0  0  0  0  0  0  0  0  0
   25.8065  -20.8738  -10.3949 C   0  0  1  0  0  0  0  0  0  0  0  0
   25.9949  -21.0152   -8.8939 C   0  0  0  0  0  0  0  0  0  0  0  0
   27.3952  -20.9850   -8.4633 C   0  0  0  0  0  0  0  0  0  0  0  0
   28.4772  -21.6268   -9.0193 C   0  0  0  0  0  0  0  0  0  0  0  0
   29.5852  -21.3297   -8.3278 N   0  0  0  0  0  0  0  0  0  0  0  0
   29.2371  -20.4891   -7.3112 C   0  0  0  0  0  0  0  0  0  0  0  0
   29.9628  -19.8805   -6.3099 C   0  0  0  0  0  0  0  0  0  0  0  0
   29.3781  -19.0556   -5.3768 C   0  0  0  0  0  0  0  0  0  0  0  0
   28.0042  -18.8385   -5.4604 C   0  0  0  0  0  0  0  0  0  0  0  0
   27.2692  -19.4428   -6.4581 C   0  0  0  0  0  0  0  0  0  0  0  0
   27.8795  -20.2714   -7.3897 C   0  0  0  0  0  0  0  0  0  0  0  0
   24.3774  -20.4889  -10.6210 C   0  0  0  0  0  0  0  0  0  0  0  0
   23.8930  -19.4041  -10.2285 O   0  0  0  0  0  0  0  0  0  0  0  0
   21.9915  -16.9364  -15.0557 C   0  0  0  0  0  0  0  0  0  0  0  0
   21.5058  -18.6259  -15.3397 S   0  0  0  0  0  0  0  0  0  0  0  0
   21.2762  -19.5747  -13.8854 C   0  0  0  0  0  0  0  0  0  0  0  0
   22.4076  -20.1675  -13.1847 C   0  0  0  0  0  0  0  0  0  0  0  0
   22.3444  -20.9613  -11.9711 C   0  0  2  0  0  0  0  0  0  0  0  0
   23.5150  -21.4297  -11.3354 N   0  0  0  0  0  0  0  0  0  0  0  0
   21.4517  -22.1666  -12.2667 C   0  0  0  0  0  0  0  0  0  0  0  0
   21.8742  -22.9719  -13.1191 O   0  0  0  0  0  0  0  0  0  0  0  0
   16.2646  -25.4091   -7.8236 N   0  0  0  0  0  0  0  0  0  0  0  0
   17.4843  -25.4366   -7.1147 C   0  0  0  0  0  0  0  0  0  0  0  0
   17.7344  -26.4327   -6.3393 N   0  0  0  0  0  0  0  0  0  0  0  0
   18.4124  -24.3733   -7.2651 N   0  0  0  0  0  0  0  0  0  0  0  0
   18.1525  -23.3239   -8.2219 C   0  0  0  0  0  0  0  0  0  0  0  0
   19.1439  -23.3414   -9.3742 C   0  0  0  0  0  0  0  0  0  0  0  0
   18.4481  -23.6222  -10.6850 C   0  0  0  0  0  0  0  0  0  0  0  0
   19.3848  -23.5609  -11.8685 C   0  0  2  0  0  0  0  0  0  0  0  0
   20.2271  -22.3776  -11.6313 N   0  0  0  0  0  0  0  0  0  0  0  0
   18.7328  -23.4964  -13.1697 C   0  0  0  0  0  0  0  0  0  0  0  0
   18.5679  -24.6219  -13.9649 O   0  0  0  0  0  0  0  0  0  0  0  0
   18.2956  -22.4147  -13.6167 O   0  0  0  0  0  0  0  0  0  0  0  0
  2  1  1  1
  3  2  1  0
  4  5  2  0
  4  3  1  0
  6  5  1  0
  7 12  2  0
  7  6  1  0
  8  7  1  0
  9 10  1  0
  9  8  2  0
 10 11  2  0
 11 12  1  0
 12  4  1  0
 13  2  1  0
 14 13  2  0
 16 15  1  0
 17 16  1  0
 17 18  1  0
 19 18  1  6
 19 20  1  0
 20 13  1  0
 21 19  1  0
 22 21  2  0
 23 24  1  0
 24 25  2  0
 24 26  1  0
 26 27  1  0
 27 28  1  0
 29 28  1  0
 30 29  1  1
 30 31  1  0
 31 21  1  0
 32 30  1  0
 32 33  1  0
 34 32  2  0
M  END
$$$$
