WMR.pdb
     RDKit          3D

 34 35  0  0  1  0  0  0  0  0999 V2000
   26.1453  -21.8177  -13.3787 N   0  0  0  0  0  0  0  0  0  0  0  0
   25.5256  -20.7738  -12.5731 C   0  0  1  0  0  0  0  0  0  0  0  0
   24.0558  -20.6834  -12.9469 C   0  0  0  0  0  0  0  0  0  0  0  0
   23.8048  -19.9978  -14.2175 C   0  0  0  0  0  0  0  0  0  0  0  0
   24.6411  -19.8687  -15.3018 C   0  0  0  0  0  0  0  0  0  0  0  0
   24.0267  -19.1736  -16.2680 N   0  0  0  0  0  0  0  0  0  0  0  0
   22.7805  -18.8413  -15.8234 C   0  0  0  0  0  0  0  0  0  0  0  0
   21.7394  -18.1407  -16.3933 C   0  0  0  0  0  0  0  0  0  0  0  0
   20.5502  -17.9277  -15.7350 C   0  0  0  0  0  0  0  0  0  0  0  0
   20.4095  -18.4441  -14.4484 C   0  0  0  0  0  0  0  0  0  0  0  0
   21.4451  -19.1461  -13.8691 C   0  0  0  0  0  0  0  0  0  0  0  0
   22.6366  -19.3497  -14.5516 C   0  0  0  0  0  0  0  0  0  0  0  0
   25.5853  -21.1536  -11.1261 C   0  0  0  0  0  0  0  0  0  0  0  0
   25.2057  -22.2657  -10.6966 O   0  0  0  0  0  0  0  0  0  0  0  0
   28.4267  -19.5064   -3.8014 C   0  0  0  0  0  0  0  0  0  0  0  0
   28.2826  -18.9999   -5.5024 S   0  0  0  0  0  0  0  0  0  0  0  0
   27.2453  -20.0159   -6.4822 C   0  0  0  0  0  0  0  0  0  0  0  0
   27.0695  -19.7641   -7.9063 C   0  0  0  0  0  0  0  0  0  0  0  0
   26.2069  -20.5053   -8.8083 C   0  0  2  0  0  0  0  0  0  0  0  0
   26.1141  -20.1737  -10.1776 N   0  0  0  0  0  0  0  0  0  0  0  0
   24.7981  -20.4694   -8.2159 C   0  0  0  0  0  0  0  0  0  0  0  0
   24.0696  -19.5252   -8.5784 O   0  0  0  0  0  0  0  0  0  0  0  0
   17.6646  -24.4331   -5.9064 N   0  0  0  0  0  0  0  0  0  0  0  0
   18.0259  -24.4210   -7.2703 C   0  0  0  0  0  0  0  0  0  0  0  0
   17.1040  -24.5245   -8.1622 N   0  0  0  0  0  0  0  0  0  0  0  0
   19.3911  -24.2956   -7.6381 N   0  0  0  0  0  0  0  0  0  0  0  0
   20.4012  -24.1684   -6.6145 C   0  0  0  0  0  0  0  0  0  0  0  0
   20.9156  -22.7431   -6.4919 C   0  0  0  0  0  0  0  0  0  0  0  0
   22.2798  -22.6018   -7.1246 C   0  0  0  0  0  0  0  0  0  0  0  0
   23.0067  -21.3568   -6.6737 C   0  0  2  0  0  0  0  0  0  0  0  0
   24.3282  -21.4286   -7.3175 N   0  0  0  0  0  0  0  0  0  0  0  0
   23.1270  -21.2002   -5.2303 C   0  0  0  0  0  0  0  0  0  0  0  0
   22.0710  -20.7508   -4.4499 O   0  0  0  0  0  0  0  0  0  0  0  0
   24.1957  -21.4690   -4.6414 O   0  0  0  0  0  0  0  0  0  0  0  0
  2  1  1  6
  3  2  1  0
  4  5  2  0
  4  3  1  0
  6  5  1  0
  7 12  2  0
  7  6  1  0
  8  7  1  0
  9 10  1  0
  9  8  2  0
 10 11  2  0
 11 12  1  0
 12  4  1  0
 13  2  1  0
 14 13  2  0
 16 15  1  0
 17 16  1  0
 17 18  1  0
 19 18  1  1
 19 20  1  0
 20 13  1  0
 21 19  1  0
 22 21  2  0
 23 24  1  0
 24 25  2  0
 24 26  1  0
 26 27  1  0
 27 28  1  0
 29 28  1  0
 30 29  1  1
 30 31  1  0
 31 21  1  0
 32 30  1  0
 32 33  1  0
 34 32  2  0
M  END
$$$$
