WMR.pdb
     RDKit          3D

 34 35  0  0  1  0  0  0  0  0999 V2000
   25.2306  -21.3784  -13.5485 N   0  0  0  0  0  0  0  0  0  0  0  0
   24.6127  -20.4785  -12.5835 C   0  0  1  0  0  0  0  0  0  0  0  0
   23.1048  -20.5472  -12.7554 C   0  0  0  0  0  0  0  0  0  0  0  0
   22.6115  -19.8822  -13.9644 C   0  0  0  0  0  0  0  0  0  0  0  0
   22.9936  -20.0837  -15.2703 C   0  0  0  0  0  0  0  0  0  0  0  0
   22.2919  -19.2775  -16.0776 N   0  0  0  0  0  0  0  0  0  0  0  0
   21.4428  -18.5400  -15.3055 C   0  0  0  0  0  0  0  0  0  0  0  0
   20.5089  -17.5714  -15.6040 C   0  0  0  0  0  0  0  0  0  0  0  0
   19.7547  -16.9543  -14.6327 C   0  0  0  0  0  0  0  0  0  0  0  0
   19.9541  -17.3325  -13.3064 C   0  0  0  0  0  0  0  0  0  0  0  0
   20.8861  -18.3003  -12.9972 C   0  0  0  0  0  0  0  0  0  0  0  0
   21.6362  -18.9104  -13.9932 C   0  0  0  0  0  0  0  0  0  0  0  0
   24.9154  -20.9468  -11.1941 C   0  0  0  0  0  0  0  0  0  0  0  0
   24.6493  -22.1007  -10.7902 O   0  0  0  0  0  0  0  0  0  0  0  0
   28.2632  -20.5413   -4.1747 C   0  0  0  0  0  0  0  0  0  0  0  0
   28.2593  -20.1517   -5.9123 S   0  0  0  0  0  0  0  0  0  0  0  0
   26.6785  -19.7982   -6.5786 C   0  0  0  0  0  0  0  0  0  0  0  0
   26.4966  -19.5591   -8.0042 C   0  0  0  0  0  0  0  0  0  0  0  0
   25.6594  -20.3319   -8.9034 C   0  0  2  0  0  0  0  0  0  0  0  0
   25.5524  -20.0059  -10.2731 N   0  0  0  0  0  0  0  0  0  0  0  0
   24.2512  -20.3451   -8.3086 C   0  0  0  0  0  0  0  0  0  0  0  0
   23.6081  -19.2801   -8.3860 O   0  0  0  0  0  0  0  0  0  0  0  0
   17.4278  -24.2027   -7.3921 N   0  0  0  0  0  0  0  0  0  0  0  0
   18.4668  -24.7119   -8.1997 C   0  0  0  0  0  0  0  0  0  0  0  0
   18.1921  -25.1176   -9.3896 N   0  0  0  0  0  0  0  0  0  0  0  0
   19.7914  -24.7694   -7.6929 N   0  0  0  0  0  0  0  0  0  0  0  0
   20.0535  -24.3890   -6.3252 C   0  0  0  0  0  0  0  0  0  0  0  0
   20.5937  -22.9719   -6.2186 C   0  0  0  0  0  0  0  0  0  0  0  0
   21.8623  -22.8125   -7.0228 C   0  0  0  0  0  0  0  0  0  0  0  0
   22.4671  -21.4344   -6.8926 C   0  0  2  0  0  0  0  0  0  0  0  0
   23.6922  -21.4736   -7.7070 N   0  0  0  0  0  0  0  0  0  0  0  0
   22.7500  -21.0104   -5.5278 C   0  0  0  0  0  0  0  0  0  0  0  0
   21.8642  -20.2239   -4.8047 O   0  0  0  0  0  0  0  0  0  0  0  0
   23.8101  -21.3449   -4.9575 O   0  0  0  0  0  0  0  0  0  0  0  0
  2  1  1  6
  3  2  1  0
  4  5  2  0
  4  3  1  0
  6  5  1  0
  7 12  2  0
  7  6  1  0
  8  7  1  0
  9 10  1  0
  9  8  2  0
 10 11  2  0
 11 12  1  0
 12  4  1  0
 13  2  1  0
 14 13  2  0
 16 15  1  0
 17 16  1  0
 17 18  1  0
 19 18  1  1
 19 20  1  0
 20 13  1  0
 21 19  1  0
 22 21  2  0
 23 24  1  0
 24 25  2  0
 24 26  1  0
 26 27  1  0
 27 28  1  0
 29 28  1  0
 30 29  1  1
 30 31  1  0
 31 21  1  0
 32 30  1  0
 32 33  1  0
 34 32  2  0
M  END
$$$$
