WMR.pdb
     RDKit          3D

 34 35  0  0  1  0  0  0  0  0999 V2000
   28.9764  -20.5899  -15.8007 N   0  0  0  0  0  0  0  0  0  0  0  0
   27.9956  -19.8099  -15.0574 C   0  0  1  0  0  0  0  0  0  0  0  0
   26.9982  -19.2233  -16.0420 C   0  0  0  0  0  0  0  0  0  0  0  0
   27.5037  -18.0655  -16.7844 C   0  0  0  0  0  0  0  0  0  0  0  0
   27.9086  -17.9989  -18.0972 C   0  0  0  0  0  0  0  0  0  0  0  0
   28.2944  -16.7501  -18.3899 N   0  0  0  0  0  0  0  0  0  0  0  0
   28.1450  -15.9870  -17.2690 C   0  0  0  0  0  0  0  0  0  0  0  0
   28.3860  -14.6563  -17.0037 C   0  0  0  0  0  0  0  0  0  0  0  0
   28.1534  -14.1002  -15.7669 C   0  0  0  0  0  0  0  0  0  0  0  0
   27.6574  -14.9242  -14.7585 C   0  0  0  0  0  0  0  0  0  0  0  0
   27.4132  -16.2569  -15.0135 C   0  0  0  0  0  0  0  0  0  0  0  0
   27.6548  -16.7974  -16.2691 C   0  0  0  0  0  0  0  0  0  0  0  0
   27.2266  -20.7107  -14.1416 C   0  0  0  0  0  0  0  0  0  0  0  0
   26.9112  -21.8829  -14.4446 O   0  0  0  0  0  0  0  0  0  0  0  0
   26.8053  -20.1109   -7.3464 C   0  0  0  0  0  0  0  0  0  0  0  0
   25.3792  -21.0626   -7.8272 S   0  0  0  0  0  0  0  0  0  0  0  0
   25.3356  -21.5095   -9.5203 C   0  0  0  0  0  0  0  0  0  0  0  0
   26.0676  -20.7453  -10.5216 C   0  0  0  0  0  0  0  0  0  0  0  0
   26.0921  -21.0048  -11.9495 C   0  0  2  0  0  0  0  0  0  0  0  0
   26.8304  -20.1886  -12.8340 N   0  0  0  0  0  0  0  0  0  0  0  0
   24.6405  -21.0293  -12.4282 C   0  0  0  0  0  0  0  0  0  0  0  0
   24.0807  -19.9227  -12.5535 O   0  0  0  0  0  0  0  0  0  0  0  0
   19.8311  -27.0636  -16.0410 N   0  0  0  0  0  0  0  0  0  0  0  0
   18.7913  -26.4809  -15.2859 C   0  0  0  0  0  0  0  0  0  0  0  0
   17.5713  -26.6804  -15.6435 N   0  0  0  0  0  0  0  0  0  0  0  0
   19.1021  -25.6884  -14.1501 N   0  0  0  0  0  0  0  0  0  0  0  0
   20.4815  -25.4349  -13.8078 C   0  0  0  0  0  0  0  0  0  0  0  0
   20.7582  -23.9538  -13.6055 C   0  0  0  0  0  0  0  0  0  0  0  0
   22.2051  -23.7162  -13.2429 C   0  0  0  0  0  0  0  0  0  0  0  0
   22.5502  -22.2486  -13.1486 C   0  0  2  0  0  0  0  0  0  0  0  0
   23.9565  -22.2113  -12.7165 N   0  0  0  0  0  0  0  0  0  0  0  0
   21.7001  -21.4700  -12.2579 C   0  0  0  0  0  0  0  0  0  0  0  0
   21.8809  -21.4731  -10.8818 O   0  0  0  0  0  0  0  0  0  0  0  0
   20.7712  -20.7662  -12.7083 O   0  0  0  0  0  0  0  0  0  0  0  0
  2  1  1  6
  3  2  1  0
  4  5  2  0
  4  3  1  0
  6  5  1  0
  7 12  2  0
  7  6  1  0
  8  7  1  0
  9 10  1  0
  9  8  2  0
 10 11  2  0
 11 12  1  0
 12  4  1  0
 13  2  1  0
 14 13  2  0
 16 15  1  0
 17 16  1  0
 17 18  1  0
 19 18  1  1
 19 20  1  0
 20 13  1  0
 21 19  1  0
 22 21  2  0
 23 24  1  0
 24 25  2  0
 24 26  1  0
 26 27  1  0
 27 28  1  0
 29 28  1  0
 30 29  1  1
 30 31  1  0
 31 21  1  0
 32 30  1  0
 32 33  1  0
 34 32  2  0
M  END
$$$$
