WMR.pdb
     RDKit          3D

 34 35  0  0  1  0  0  0  0  0999 V2000
   25.5922  -19.8303  -15.4598 N   0  0  0  0  0  0  0  0  0  0  0  0
   24.7800  -20.9695  -15.0532 C   0  0  1  0  0  0  0  0  0  0  0  0
   25.6762  -21.9763  -14.3522 C   0  0  0  0  0  0  0  0  0  0  0  0
   25.9438  -23.1844  -15.1371 C   0  0  0  0  0  0  0  0  0  0  0  0
   26.8871  -23.3772  -16.1193 C   0  0  0  0  0  0  0  0  0  0  0  0
   26.8090  -24.6314  -16.5832 N   0  0  0  0  0  0  0  0  0  0  0  0
   25.8119  -25.2715  -15.9071 C   0  0  0  0  0  0  0  0  0  0  0  0
   25.3065  -26.5518  -15.9760 C   0  0  0  0  0  0  0  0  0  0  0  0
   24.2728  -26.9774  -15.1739 C   0  0  0  0  0  0  0  0  0  0  0  0
   23.7289  -26.0708  -14.2662 C   0  0  0  0  0  0  0  0  0  0  0  0
   24.2270  -24.7875  -14.1897 C   0  0  0  0  0  0  0  0  0  0  0  0
   25.2709  -24.3790  -15.0084 C   0  0  0  0  0  0  0  0  0  0  0  0
   23.7567  -20.5262  -14.0542 C   0  0  0  0  0  0  0  0  0  0  0  0
   24.0187  -19.7511  -13.1077 O   0  0  0  0  0  0  0  0  0  0  0  0
   17.1086  -17.0356  -12.5782 C   0  0  0  0  0  0  0  0  0  0  0  0
   18.3998  -17.6021  -13.6657 S   0  0  0  0  0  0  0  0  0  0  0  0
   19.3932  -18.8886  -13.0130 C   0  0  0  0  0  0  0  0  0  0  0  0
   20.5004  -19.4486  -13.7766 C   0  0  0  0  0  0  0  0  0  0  0  0
   21.3709  -20.5314  -13.3566 C   0  0  2  0  0  0  0  0  0  0  0  0
   22.3900  -21.0265  -14.1992 N   0  0  0  0  0  0  0  0  0  0  0  0
   20.4731  -21.7037  -12.9604 C   0  0  0  0  0  0  0  0  0  0  0  0
   20.2498  -22.5529  -13.8450 O   0  0  0  0  0  0  0  0  0  0  0  0
   18.6031  -26.5345   -7.4473 N   0  0  0  0  0  0  0  0  0  0  0  0
   17.3294  -26.1075   -7.0158 C   0  0  0  0  0  0  0  0  0  0  0  0
   16.5269  -26.9659   -6.4911 N   0  0  0  0  0  0  0  0  0  0  0  0
   16.9527  -24.7472   -7.1649 N   0  0  0  0  0  0  0  0  0  0  0  0
   17.8864  -23.8018   -7.7293 C   0  0  0  0  0  0  0  0  0  0  0  0
   17.9251  -23.8723   -9.2474 C   0  0  0  0  0  0  0  0  0  0  0  0
   18.8428  -22.8164   -9.8169 C   0  0  0  0  0  0  0  0  0  0  0  0
   18.9902  -22.9179  -11.3168 C   0  0  2  0  0  0  0  0  0  0  0  0
   19.9216  -21.8398  -11.6855 N   0  0  0  0  0  0  0  0  0  0  0  0
   17.7453  -22.8241  -12.0677 C   0  0  0  0  0  0  0  0  0  0  0  0
   17.1323  -23.9421  -12.6157 O   0  0  0  0  0  0  0  0  0  0  0  0
   17.1825  -21.7226  -12.2440 O   0  0  0  0  0  0  0  0  0  0  0  0
  2  1  1  1
  3  2  1  0
  4  5  2  0
  4  3  1  0
  6  5  1  0
  7 12  2  0
  7  6  1  0
  8  7  1  0
  9 10  1  0
  9  8  2  0
 10 11  2  0
 11 12  1  0
 12  4  1  0
 13  2  1  0
 14 13  2  0
 16 15  1  0
 17 16  1  0
 17 18  1  0
 19 18  1  6
 19 20  1  0
 20 13  1  0
 21 19  1  0
 22 21  2  0
 23 24  1  0
 24 25  2  0
 24 26  1  0
 26 27  1  0
 27 28  1  0
 29 28  1  0
 30 29  1  1
 30 31  1  0
 31 21  1  0
 32 30  1  0
 32 33  1  0
 34 32  2  0
M  END
$$$$
