WMR.pdb
     RDKit          3D

 34 35  0  0  1  0  0  0  0  0999 V2000
   27.0161  -21.4859  -14.2648 N   0  0  0  0  0  0  0  0  0  0  0  0
   27.3584  -20.5106  -13.2379 C   0  0  1  0  0  0  0  0  0  0  0  0
   26.5527  -19.2463  -13.4846 C   0  0  0  0  0  0  0  0  0  0  0  0
   26.7547  -18.6601  -14.8123 C   0  0  0  0  0  0  0  0  0  0  0  0
   25.8154  -18.1397  -15.6717 C   0  0  0  0  0  0  0  0  0  0  0  0
   26.4151  -17.6959  -16.7842 N   0  0  0  0  0  0  0  0  0  0  0  0
   27.7549  -17.9223  -16.6620 C   0  0  0  0  0  0  0  0  0  0  0  0
   28.8260  -17.6710  -17.4920 C   0  0  0  0  0  0  0  0  0  0  0  0
   30.1167  -17.9973  -17.1445 C   0  0  0  0  0  0  0  0  0  0  0  0
   30.3314  -18.6024  -15.9077 C   0  0  0  0  0  0  0  0  0  0  0  0
   29.2666  -18.8584  -15.0703 C   0  0  0  0  0  0  0  0  0  0  0  0
   27.9721  -18.5206  -15.4407 C   0  0  0  0  0  0  0  0  0  0  0  0
   26.9522  -21.0317  -11.8944 C   0  0  0  0  0  0  0  0  0  0  0  0
   26.1285  -21.9614  -11.7441 O   0  0  0  0  0  0  0  0  0  0  0  0
   27.4012  -20.3212   -3.8982 C   0  0  0  0  0  0  0  0  0  0  0  0
   28.1136  -19.9117   -5.4780 S   0  0  0  0  0  0  0  0  0  0  0  0
   27.1633  -20.4148   -6.8607 C   0  0  0  0  0  0  0  0  0  0  0  0
   27.6803  -20.2908   -8.2171 C   0  0  0  0  0  0  0  0  0  0  0  0
   26.9854  -20.6598   -9.4369 C   0  0  2  0  0  0  0  0  0  0  0  0
   27.5514  -20.4208  -10.7082 N   0  0  0  0  0  0  0  0  0  0  0  0
   25.6135  -19.9865   -9.3954 C   0  0  0  0  0  0  0  0  0  0  0  0
   25.5829  -18.7750   -9.6869 O   0  0  0  0  0  0  0  0  0  0  0  0
   24.2198  -23.3872  -13.7076 N   0  0  0  0  0  0  0  0  0  0  0  0
   22.8253  -23.5498  -13.8482 C   0  0  0  0  0  0  0  0  0  0  0  0
   22.3412  -24.7381  -13.9471 N   0  0  0  0  0  0  0  0  0  0  0  0
   21.9809  -22.4093  -13.8784 N   0  0  0  0  0  0  0  0  0  0  0  0
   22.5021  -21.1202  -13.4901 C   0  0  0  0  0  0  0  0  0  0  0  0
   22.1825  -20.7862  -12.0419 C   0  0  0  0  0  0  0  0  0  0  0  0
   23.4196  -20.8702  -11.1794 C   0  0  0  0  0  0  0  0  0  0  0  0
   23.1605  -20.4707   -9.7458 C   0  0  2  0  0  0  0  0  0  0  0  0
   24.4442  -20.6676   -9.0537 N   0  0  0  0  0  0  0  0  0  0  0  0
   22.0845  -21.1987   -9.0865 C   0  0  0  0  0  0  0  0  0  0  0  0
   22.3243  -22.0643   -8.0285 O   0  0  0  0  0  0  0  0  0  0  0  0
   20.8982  -21.0657   -9.4553 O   0  0  0  0  0  0  0  0  0  0  0  0
  2  1  1  6
  3  2  1  0
  4  5  2  0
  4  3  1  0
  6  5  1  0
  7 12  2  0
  7  6  1  0
  8  7  1  0
  9 10  1  0
  9  8  2  0
 10 11  2  0
 11 12  1  0
 12  4  1  0
 13  2  1  0
 14 13  2  0
 16 15  1  0
 17 16  1  0
 17 18  1  0
 19 18  1  1
 19 20  1  0
 20 13  1  0
 21 19  1  0
 22 21  2  0
 23 24  1  0
 24 25  2  0
 24 26  1  0
 26 27  1  0
 27 28  1  0
 29 28  1  0
 30 29  1  6
 30 31  1  0
 31 21  1  0
 32 30  1  0
 32 33  1  0
 34 32  2  0
M  END
$$$$
