WMR.pdb
     RDKit          3D

 34 35  0  0  1  0  0  0  0  0999 V2000
   25.9845  -20.7419  -13.3234 N   0  0  0  0  0  0  0  0  0  0  0  0
   24.8826  -20.2104  -12.5322 C   0  0  1  0  0  0  0  0  0  0  0  0
   23.5874  -20.4390  -13.2926 C   0  0  0  0  0  0  0  0  0  0  0  0
   23.4634  -19.6381  -14.5135 C   0  0  0  0  0  0  0  0  0  0  0  0
   24.3722  -19.4852  -15.5345 C   0  0  0  0  0  0  0  0  0  0  0  0
   23.8682  -18.6722  -16.4722 N   0  0  0  0  0  0  0  0  0  0  0  0
   22.6227  -18.2853  -16.0721 C   0  0  0  0  0  0  0  0  0  0  0  0
   21.6697  -17.4669  -16.6390 C   0  0  0  0  0  0  0  0  0  0  0  0
   20.4594  -17.2199  -16.0329 C   0  0  0  0  0  0  0  0  0  0  0  0
   20.2040  -17.8250  -14.8040 C   0  0  0  0  0  0  0  0  0  0  0  0
   21.1509  -18.6452  -14.2282 C   0  0  0  0  0  0  0  0  0  0  0  0
   22.3656  -18.8812  -14.8573 C   0  0  0  0  0  0  0  0  0  0  0  0
   24.7742  -20.9707  -11.2470 C   0  0  0  0  0  0  0  0  0  0  0  0
   24.5117  -22.1930  -11.1978 O   0  0  0  0  0  0  0  0  0  0  0  0
   27.5706  -17.8505   -6.2085 C   0  0  0  0  0  0  0  0  0  0  0  0
   27.5587  -19.6186   -5.9976 S   0  0  0  0  0  0  0  0  0  0  0  0
   26.8334  -20.5077   -7.3210 C   0  0  0  0  0  0  0  0  0  0  0  0
   25.3937  -20.4885   -7.5436 C   0  0  0  0  0  0  0  0  0  0  0  0
   24.7094  -20.8750   -8.7639 C   0  0  2  0  0  0  0  0  0  0  0  0
   24.9872  -20.2435   -9.9959 N   0  0  0  0  0  0  0  0  0  0  0  0
   23.2090  -20.7533   -8.4973 C   0  0  0  0  0  0  0  0  0  0  0  0
   22.5829  -19.9504   -9.2162 O   0  0  0  0  0  0  0  0  0  0  0  0
   17.8172  -25.4206  -11.4956 N   0  0  0  0  0  0  0  0  0  0  0  0
   18.0014  -24.1893  -12.1596 C   0  0  0  0  0  0  0  0  0  0  0  0
   17.1087  -23.7906  -12.9963 N   0  0  0  0  0  0  0  0  0  0  0  0
   19.1601  -23.4124  -11.8979 N   0  0  0  0  0  0  0  0  0  0  0  0
   20.1264  -23.8695  -10.9276 C   0  0  0  0  0  0  0  0  0  0  0  0
   19.9709  -23.1654   -9.5892 C   0  0  0  0  0  0  0  0  0  0  0  0
   21.3160  -22.9016   -8.9548 C   0  0  0  0  0  0  0  0  0  0  0  0
   21.2151  -22.0771   -7.6931 C   0  0  2  0  0  0  0  0  0  0  0  0
   22.5518  -21.4891   -7.5101 N   0  0  0  0  0  0  0  0  0  0  0  0
   20.7908  -22.8106   -6.5081 C   0  0  0  0  0  0  0  0  0  0  0  0
   19.4711  -22.8114   -6.0784 O   0  0  0  0  0  0  0  0  0  0  0  0
   21.6094  -23.4704   -5.8332 O   0  0  0  0  0  0  0  0  0  0  0  0
  2  1  1  6
  3  2  1  0
  4  5  2  0
  4  3  1  0
  6  5  1  0
  7 12  2  0
  7  6  1  0
  8  7  1  0
  9 10  1  0
  9  8  2  0
 10 11  2  0
 11 12  1  0
 12  4  1  0
 13  2  1  0
 14 13  2  0
 16 15  1  0
 17 16  1  0
 17 18  1  0
 19 18  1  1
 19 20  1  0
 20 13  1  0
 21 19  1  0
 22 21  2  0
 23 24  1  0
 24 25  2  0
 24 26  1  0
 26 27  1  0
 27 28  1  0
 29 28  1  0
 30 29  1  6
 30 31  1  0
 31 21  1  0
 32 30  1  0
 32 33  1  0
 34 32  2  0
M  END
$$$$
