WMR.pdb
     RDKit          3D

 34 35  0  0  1  0  0  0  0  0999 V2000
   28.2799  -21.1308  -11.3268 N   0  0  0  0  0  0  0  0  0  0  0  0
   26.8905  -21.4035  -10.9829 C   0  0  1  0  0  0  0  0  0  0  0  0
   26.5067  -20.5345   -9.7973 C   0  0  0  0  0  0  0  0  0  0  0  0
   27.5128  -20.5006   -8.7324 C   0  0  0  0  0  0  0  0  0  0  0  0
   27.4875  -19.7966   -7.5511 C   0  0  0  0  0  0  0  0  0  0  0  0
   28.6004  -20.0481   -6.8494 N   0  0  0  0  0  0  0  0  0  0  0  0
   29.3651  -20.9207   -7.5669 C   0  0  0  0  0  0  0  0  0  0  0  0
   30.5892  -21.5073   -7.3283 C   0  0  0  0  0  0  0  0  0  0  0  0
   31.1743  -22.3749   -8.2216 C   0  0  0  0  0  0  0  0  0  0  0  0
   30.4933  -22.6598   -9.4035 C   0  0  0  0  0  0  0  0  0  0  0  0
   29.2683  -22.0780   -9.6518 C   0  0  0  0  0  0  0  0  0  0  0  0
   28.6959  -21.2054   -8.7364 C   0  0  0  0  0  0  0  0  0  0  0  0
   26.0035  -21.0050  -12.1213 C   0  0  0  0  0  0  0  0  0  0  0  0
   26.2558  -20.0405  -12.8773 O   0  0  0  0  0  0  0  0  0  0  0  0
   27.8650  -23.3846  -16.9988 C   0  0  0  0  0  0  0  0  0  0  0  0
   26.2686  -24.1570  -16.8382 S   0  0  0  0  0  0  0  0  0  0  0  0
   25.0947  -23.2270  -15.9299 C   0  0  0  0  0  0  0  0  0  0  0  0
   25.3568  -22.8158  -14.5570 C   0  0  0  0  0  0  0  0  0  0  0  0
   24.4262  -22.1394  -13.6719 C   0  0  2  0  0  0  0  0  0  0  0  0
   24.7883  -21.7851  -12.3539 N   0  0  0  0  0  0  0  0  0  0  0  0
   23.1648  -23.0001  -13.6011 C   0  0  0  0  0  0  0  0  0  0  0  0
   23.3164  -24.1722  -13.2051 O   0  0  0  0  0  0  0  0  0  0  0  0
   16.1064  -21.4574  -10.8859 N   0  0  0  0  0  0  0  0  0  0  0  0
   15.8847  -22.8502  -10.9289 C   0  0  0  0  0  0  0  0  0  0  0  0
   14.6828  -23.2957  -10.8143 N   0  0  0  0  0  0  0  0  0  0  0  0
   16.9817  -23.7350  -11.0968 N   0  0  0  0  0  0  0  0  0  0  0  0
   18.3048  -23.2029  -11.3217 C   0  0  0  0  0  0  0  0  0  0  0  0
   18.4005  -22.4425  -12.6346 C   0  0  0  0  0  0  0  0  0  0  0  0
   19.8258  -22.0343  -12.9231 C   0  0  0  0  0  0  0  0  0  0  0  0
   20.6462  -23.1559  -13.5152 C   0  0  2  0  0  0  0  0  0  0  0  0
   21.9010  -22.5244  -13.9540 N   0  0  0  0  0  0  0  0  0  0  0  0
   20.0066  -23.8801  -14.6056 C   0  0  0  0  0  0  0  0  0  0  0  0
   20.2366  -23.5577  -15.9357 O   0  0  0  0  0  0  0  0  0  0  0  0
   19.2224  -24.8254  -14.3765 O   0  0  0  0  0  0  0  0  0  0  0  0
  2  1  1  6
  3  2  1  0
  4  5  2  0
  4  3  1  0
  6  5  1  0
  7 12  2  0
  7  6  1  0
  8  7  1  0
  9 10  1  0
  9  8  2  0
 10 11  2  0
 11 12  1  0
 12  4  1  0
 13  2  1  0
 14 13  2  0
 16 15  1  0
 17 16  1  0
 17 18  1  0
 19 18  1  1
 19 20  1  0
 20 13  1  0
 21 19  1  0
 22 21  2  0
 23 24  1  0
 24 25  2  0
 24 26  1  0
 26 27  1  0
 27 28  1  0
 29 28  1  0
 30 29  1  6
 30 31  1  0
 31 21  1  0
 32 30  1  0
 32 33  1  0
 34 32  2  0
M  END
$$$$
