WMR.pdb
     RDKit          3D

 34 35  0  0  1  0  0  0  0  0999 V2000
   26.2630  -21.5561  -13.8979 N   0  0  0  0  0  0  0  0  0  0  0  0
   25.5425  -20.6241  -13.0406 C   0  0  1  0  0  0  0  0  0  0  0  0
   24.0710  -20.6604  -13.4168 C   0  0  0  0  0  0  0  0  0  0  0  0
   23.7762  -20.0763  -14.7280 C   0  0  0  0  0  0  0  0  0  0  0  0
   24.2688  -20.4408  -15.9593 C   0  0  0  0  0  0  0  0  0  0  0  0
   23.7406  -19.6576  -16.9090 N   0  0  0  0  0  0  0  0  0  0  0  0
   22.8960  -18.7721  -16.3061 C   0  0  0  0  0  0  0  0  0  0  0  0
   22.1020  -17.7561  -16.7928 C   0  0  0  0  0  0  0  0  0  0  0  0
   21.3184  -16.9788  -15.9714 C   0  0  0  0  0  0  0  0  0  0  0  0
   21.3397  -17.2401  -14.6027 C   0  0  0  0  0  0  0  0  0  0  0  0
   22.1308  -18.2540  -14.1057 C   0  0  0  0  0  0  0  0  0  0  0  0
   22.9137  -19.0265  -14.9527 C   0  0  0  0  0  0  0  0  0  0  0  0
   25.6400  -21.0736  -11.6158 C   0  0  0  0  0  0  0  0  0  0  0  0
   25.2457  -22.1952  -11.2261 O   0  0  0  0  0  0  0  0  0  0  0  0
   27.8283  -19.6770   -4.0507 C   0  0  0  0  0  0  0  0  0  0  0  0
   28.0824  -19.3222   -5.7771 S   0  0  0  0  0  0  0  0  0  0  0  0
   26.7752  -19.8282   -6.8274 C   0  0  0  0  0  0  0  0  0  0  0  0
   26.8714  -19.6861   -8.2741 C   0  0  0  0  0  0  0  0  0  0  0  0
   26.1108  -20.4302   -9.2614 C   0  0  2  0  0  0  0  0  0  0  0  0
   26.2251  -20.1532  -10.6412 N   0  0  0  0  0  0  0  0  0  0  0  0
   24.6361  -20.3138   -8.8758 C   0  0  0  0  0  0  0  0  0  0  0  0
   24.0923  -19.2138   -9.0948 O   0  0  0  0  0  0  0  0  0  0  0  0
   18.1037  -23.6944  -12.0632 N   0  0  0  0  0  0  0  0  0  0  0  0
   18.8805  -24.4441  -11.1547 C   0  0  0  0  0  0  0  0  0  0  0  0
   18.9908  -25.7147  -11.3265 N   0  0  0  0  0  0  0  0  0  0  0  0
   19.5254  -23.7920  -10.0715 N   0  0  0  0  0  0  0  0  0  0  0  0
   19.4433  -22.3560   -9.9469 C   0  0  0  0  0  0  0  0  0  0  0  0
   20.2213  -21.8402   -8.7470 C   0  0  0  0  0  0  0  0  0  0  0  0
   21.7055  -21.8275   -9.0267 C   0  0  0  0  0  0  0  0  0  0  0  0
   22.5100  -21.2494   -7.8863 C   0  0  2  0  0  0  0  0  0  0  0  0
   23.9149  -21.3657   -8.3089 N   0  0  0  0  0  0  0  0  0  0  0  0
   22.2906  -21.8821   -6.5925 C   0  0  0  0  0  0  0  0  0  0  0  0
   23.1325  -22.8732   -6.1076 O   0  0  0  0  0  0  0  0  0  0  0  0
   21.3276  -21.5493   -5.8692 O   0  0  0  0  0  0  0  0  0  0  0  0
  2  1  1  6
  3  2  1  0
  4  5  2  0
  4  3  1  0
  6  5  1  0
  7 12  2  0
  7  6  1  0
  8  7  1  0
  9 10  1  0
  9  8  2  0
 10 11  2  0
 11 12  1  0
 12  4  1  0
 13  2  1  0
 14 13  2  0
 16 15  1  0
 17 16  1  0
 17 18  1  0
 19 18  1  1
 19 20  1  0
 20 13  1  0
 21 19  1  0
 22 21  2  0
 23 24  1  0
 24 25  2  0
 24 26  1  0
 26 27  1  0
 27 28  1  0
 29 28  1  0
 30 29  1  6
 30 31  1  0
 31 21  1  0
 32 30  1  0
 32 33  1  0
 34 32  2  0
M  END
$$$$
