WMR.pdb
     RDKit          3D

 34 35  0  0  1  0  0  0  0  0999 V2000
   26.7376  -21.3727  -14.1490 N   0  0  0  0  0  0  0  0  0  0  0  0
   27.0255  -20.3656  -13.1363 C   0  0  1  0  0  0  0  0  0  0  0  0
   26.0812  -19.1927  -13.3391 C   0  0  0  0  0  0  0  0  0  0  0  0
   26.2592  -18.4980  -14.6170 C   0  0  0  0  0  0  0  0  0  0  0  0
   25.3026  -17.9230  -15.4207 C   0  0  0  0  0  0  0  0  0  0  0  0
   25.8826  -17.3820  -16.5000 N   0  0  0  0  0  0  0  0  0  0  0  0
   27.2266  -17.5986  -16.4117 C   0  0  0  0  0  0  0  0  0  0  0  0
   28.2841  -17.2658  -17.2305 C   0  0  0  0  0  0  0  0  0  0  0  0
   29.5831  -17.6009  -16.9250 C   0  0  0  0  0  0  0  0  0  0  0  0
   29.8210  -18.3012  -15.7440 C   0  0  0  0  0  0  0  0  0  0  0  0
   28.7700  -18.6393  -14.9183 C   0  0  0  0  0  0  0  0  0  0  0  0
   27.4668  -18.2908  -15.2455 C   0  0  0  0  0  0  0  0  0  0  0  0
   26.7415  -20.9244  -11.7766 C   0  0  0  0  0  0  0  0  0  0  0  0
   25.9418  -21.8662  -11.5798 O   0  0  0  0  0  0  0  0  0  0  0  0
   27.1563  -19.4189   -4.2029 C   0  0  0  0  0  0  0  0  0  0  0  0
   28.3362  -19.7765   -5.4878 S   0  0  0  0  0  0  0  0  0  0  0  0
   27.7152  -20.7602   -6.7972 C   0  0  0  0  0  0  0  0  0  0  0  0
   27.9560  -20.4033   -8.1890 C   0  0  0  0  0  0  0  0  0  0  0  0
   27.1436  -20.7926   -9.3272 C   0  0  2  0  0  0  0  0  0  0  0  0
   27.4360  -20.3369  -10.6312 N   0  0  0  0  0  0  0  0  0  0  0  0
   25.7002  -20.4070   -9.0035 C   0  0  0  0  0  0  0  0  0  0  0  0
   25.4080  -19.2018   -9.1298 O   0  0  0  0  0  0  0  0  0  0  0  0
   22.4379  -20.6291  -14.7463 N   0  0  0  0  0  0  0  0  0  0  0  0
   21.3009  -21.1805  -14.1183 C   0  0  0  0  0  0  0  0  0  0  0  0
   20.4544  -21.8417  -14.8269 N   0  0  0  0  0  0  0  0  0  0  0  0
   21.1074  -21.0001  -12.7238 N   0  0  0  0  0  0  0  0  0  0  0  0
   22.2388  -20.7166  -11.8731 C   0  0  0  0  0  0  0  0  0  0  0  0
   21.8453  -20.6297  -10.4072 C   0  0  0  0  0  0  0  0  0  0  0  0
   22.6120  -21.6332   -9.5787 C   0  0  0  0  0  0  0  0  0  0  0  0
   23.3206  -21.0010   -8.4039 C   0  0  2  0  0  0  0  0  0  0  0  0
   24.7424  -21.3333   -8.5882 N   0  0  0  0  0  0  0  0  0  0  0  0
   22.8421  -21.4227   -7.0941 C   0  0  0  0  0  0  0  0  0  0  0  0
   22.0100  -20.6225   -6.3238 O   0  0  0  0  0  0  0  0  0  0  0  0
   23.1680  -22.5303   -6.6167 O   0  0  0  0  0  0  0  0  0  0  0  0
  2  1  1  6
  3  2  1  0
  4  5  2  0
  4  3  1  0
  6  5  1  0
  7 12  2  0
  7  6  1  0
  8  7  1  0
  9 10  1  0
  9  8  2  0
 10 11  2  0
 11 12  1  0
 12  4  1  0
 13  2  1  0
 14 13  2  0
 16 15  1  0
 17 16  1  0
 17 18  1  0
 19 18  1  1
 19 20  1  0
 20 13  1  0
 21 19  1  0
 22 21  2  0
 23 24  1  0
 24 25  2  0
 24 26  1  0
 26 27  1  0
 27 28  1  0
 29 28  1  0
 30 29  1  6
 30 31  1  0
 31 21  1  0
 32 30  1  0
 32 33  1  0
 34 32  2  0
M  END
$$$$
