WMR.pdb
     RDKit          3D

 34 35  0  0  1  0  0  0  0  0999 V2000
   28.0123  -21.6939  -13.5239 N   0  0  0  0  0  0  0  0  0  0  0  0
   27.2580  -20.6284  -12.8771 C   0  0  1  0  0  0  0  0  0  0  0  0
   26.2303  -20.0973  -13.8621 C   0  0  0  0  0  0  0  0  0  0  0  0
   26.8084  -19.3485  -14.9812 C   0  0  0  0  0  0  0  0  0  0  0  0
   27.0097  -19.7630  -16.2771 C   0  0  0  0  0  0  0  0  0  0  0  0
   27.5572  -18.7704  -16.9908 N   0  0  0  0  0  0  0  0  0  0  0  0
   27.7190  -17.6956  -16.1664 C   0  0  0  0  0  0  0  0  0  0  0  0
   28.2266  -16.4301  -16.3671 C   0  0  0  0  0  0  0  0  0  0  0  0
   28.2894  -15.4957  -15.3592 C   0  0  0  0  0  0  0  0  0  0  0  0
   27.8201  -15.8569  -14.0978 C   0  0  0  0  0  0  0  0  0  0  0  0
   27.3108  -17.1205  -13.8865 C   0  0  0  0  0  0  0  0  0  0  0  0
   27.2564  -18.0479  -14.9179 C   0  0  0  0  0  0  0  0  0  0  0  0
   26.4994  -21.1850  -11.7126 C   0  0  0  0  0  0  0  0  0  0  0  0
   26.1984  -22.3951  -11.6103 O   0  0  0  0  0  0  0  0  0  0  0  0
   26.6354  -20.2445   -4.6892 C   0  0  0  0  0  0  0  0  0  0  0  0
   27.5433  -19.5211   -6.0394 S   0  0  0  0  0  0  0  0  0  0  0  0
   27.2256  -20.2427   -7.6035 C   0  0  0  0  0  0  0  0  0  0  0  0
   25.8799  -20.2736   -8.1610 C   0  0  0  0  0  0  0  0  0  0  0  0
   25.5059  -20.7729   -9.4716 C   0  0  2  0  0  0  0  0  0  0  0  0
   26.0960  -20.2650  -10.6495 N   0  0  0  0  0  0  0  0  0  0  0  0
   23.9901  -20.6184   -9.5971 C   0  0  0  0  0  0  0  0  0  0  0  0
   23.5871  -19.6857  -10.3190 O   0  0  0  0  0  0  0  0  0  0  0  0
   17.7684  -25.3635   -9.3912 N   0  0  0  0  0  0  0  0  0  0  0  0
   18.9416  -25.9192   -8.8383 C   0  0  0  0  0  0  0  0  0  0  0  0
   19.3734  -27.0442   -9.2898 N   0  0  0  0  0  0  0  0  0  0  0  0
   19.6250  -25.2352   -7.7992 N   0  0  0  0  0  0  0  0  0  0  0  0
   19.2451  -23.8848   -7.4581 C   0  0  0  0  0  0  0  0  0  0  0  0
   19.7677  -22.8718   -8.4639 C   0  0  0  0  0  0  0  0  0  0  0  0
   21.0719  -22.2681   -7.9991 C   0  0  0  0  0  0  0  0  0  0  0  0
   21.6282  -21.2576   -8.9743 C   0  0  2  0  0  0  0  0  0  0  0  0
   23.0855  -21.4617   -8.9502 N   0  0  0  0  0  0  0  0  0  0  0  0
   21.2815  -19.8710   -8.6923 C   0  0  0  0  0  0  0  0  0  0  0  0
   20.2624  -19.2165   -9.3701 O   0  0  0  0  0  0  0  0  0  0  0  0
   21.8960  -19.2190   -7.8215 O   0  0  0  0  0  0  0  0  0  0  0  0
  2  1  1  6
  3  2  1  0
  4  5  2  0
  4  3  1  0
  6  5  1  0
  7 12  2  0
  7  6  1  0
  8  7  1  0
  9 10  1  0
  9  8  2  0
 10 11  2  0
 11 12  1  0
 12  4  1  0
 13  2  1  0
 14 13  2  0
 16 15  1  0
 17 16  1  0
 17 18  1  0
 19 18  1  1
 19 20  1  0
 20 13  1  0
 21 19  1  0
 22 21  2  0
 23 24  1  0
 24 25  2  0
 24 26  1  0
 26 27  1  0
 27 28  1  0
 29 28  1  0
 30 29  1  1
 30 31  1  0
 31 21  1  0
 32 30  1  0
 32 33  1  0
 34 32  2  0
M  END
$$$$
