WMR.pdb
     RDKit          3D

 34 35  0  0  1  0  0  0  0  0999 V2000
   27.0363  -22.0167  -10.0690 N   0  0  0  0  0  0  0  0  0  0  0  0
   26.3377  -20.8671   -9.5094 C   0  0  1  0  0  0  0  0  0  0  0  0
   27.3628  -19.8005   -9.1631 C   0  0  0  0  0  0  0  0  0  0  0  0
   28.3892  -20.2450   -8.2164 C   0  0  0  0  0  0  0  0  0  0  0  0
   29.4989  -21.0212   -8.4570 C   0  0  0  0  0  0  0  0  0  0  0  0
   30.1877  -21.1921   -7.3210 N   0  0  0  0  0  0  0  0  0  0  0  0
   29.5334  -20.5277   -6.3252 C   0  0  0  0  0  0  0  0  0  0  0  0
   29.7897  -20.3692   -4.9803 C   0  0  0  0  0  0  0  0  0  0  0  0
   28.9655  -19.6373   -4.1570 C   0  0  0  0  0  0  0  0  0  0  0  0
   27.8366  -19.0426   -4.7172 C   0  0  0  0  0  0  0  0  0  0  0  0
   27.5711  -19.1954   -6.0615 C   0  0  0  0  0  0  0  0  0  0  0  0
   28.4165  -19.9380   -6.8743 C   0  0  0  0  0  0  0  0  0  0  0  0
   25.4286  -20.2792  -10.5436 C   0  0  0  0  0  0  0  0  0  0  0  0
   24.5983  -19.3786  -10.2890 O   0  0  0  0  0  0  0  0  0  0  0  0
   23.5746  -19.3571  -18.2794 C   0  0  0  0  0  0  0  0  0  0  0  0
   24.7852  -19.7968  -17.0498 S   0  0  0  0  0  0  0  0  0  0  0  0
   24.1917  -19.7827  -15.4019 C   0  0  0  0  0  0  0  0  0  0  0  0
   25.0365  -20.2030  -14.2919 C   0  0  0  0  0  0  0  0  0  0  0  0
   24.6373  -20.3019  -12.8999 C   0  0  2  0  0  0  0  0  0  0  0  0
   25.5226  -20.7863  -11.9123 N   0  0  0  0  0  0  0  0  0  0  0  0
   23.3670  -21.1512  -12.8545 C   0  0  0  0  0  0  0  0  0  0  0  0
   23.5287  -22.3863  -12.8102 O   0  0  0  0  0  0  0  0  0  0  0  0
   17.4261  -24.4389   -9.4479 N   0  0  0  0  0  0  0  0  0  0  0  0
   18.6497  -24.3066   -8.7577 C   0  0  0  0  0  0  0  0  0  0  0  0
   19.1192  -25.3196   -8.1179 N   0  0  0  0  0  0  0  0  0  0  0  0
   19.3414  -23.0674   -8.7782 N   0  0  0  0  0  0  0  0  0  0  0  0
   18.8073  -21.9598   -9.5347 C   0  0  0  0  0  0  0  0  0  0  0  0
   19.1636  -22.0494  -11.0098 C   0  0  0  0  0  0  0  0  0  0  0  0
   20.4332  -21.2877  -11.3091 C   0  0  0  0  0  0  0  0  0  0  0  0
   20.8568  -21.4033  -12.7545 C   0  0  2  0  0  0  0  0  0  0  0  0
   22.0850  -20.5995  -12.8607 N   0  0  0  0  0  0  0  0  0  0  0  0
   19.8584  -20.9785  -13.7267 C   0  0  0  0  0  0  0  0  0  0  0  0
   19.6714  -19.6421  -14.0510 O   0  0  0  0  0  0  0  0  0  0  0  0
   19.1307  -21.8121  -14.3068 O   0  0  0  0  0  0  0  0  0  0  0  0
  2  1  1  6
  3  2  1  0
  4  5  2  0
  4  3  1  0
  6  5  1  0
  7 12  2  0
  7  6  1  0
  8  7  1  0
  9 10  1  0
  9  8  2  0
 10 11  2  0
 11 12  1  0
 12  4  1  0
 13  2  1  0
 14 13  2  0
 16 15  1  0
 17 16  1  0
 17 18  1  0
 19 18  1  6
 19 20  1  0
 20 13  1  0
 21 19  1  0
 22 21  2  0
 23 24  1  0
 24 25  2  0
 24 26  1  0
 26 27  1  0
 27 28  1  0
 29 28  1  0
 30 29  1  1
 30 31  1  0
 31 21  1  0
 32 30  1  0
 32 33  1  0
 34 32  2  0
M  END
$$$$
