WMR.pdb
     RDKit          3D

 34 35  0  0  1  0  0  0  0  0999 V2000
   20.7441  -21.1636  -13.0971 N   0  0  0  0  0  0  0  0  0  0  0  0
   22.0478  -21.5109  -13.6473 C   0  0  1  0  0  0  0  0  0  0  0  0
   22.0209  -21.2640  -15.1461 C   0  0  0  0  0  0  0  0  0  0  0  0
   20.9345  -21.9558  -15.8450 C   0  0  0  0  0  0  0  0  0  0  0  0
   19.6411  -21.5347  -16.0488 C   0  0  0  0  0  0  0  0  0  0  0  0
   18.9668  -22.4606  -16.7431 N   0  0  0  0  0  0  0  0  0  0  0  0
   19.8149  -23.4978  -17.0004 C   0  0  0  0  0  0  0  0  0  0  0  0
   19.6555  -24.6943  -17.6655 C   0  0  0  0  0  0  0  0  0  0  0  0
   20.6802  -25.6027  -17.7984 C   0  0  0  0  0  0  0  0  0  0  0  0
   21.9153  -25.2875  -17.2355 C   0  0  0  0  0  0  0  0  0  0  0  0
   22.0851  -24.0932  -16.5678 C   0  0  0  0  0  0  0  0  0  0  0  0
   21.0375  -23.1907  -16.4456 C   0  0  0  0  0  0  0  0  0  0  0  0
   23.0927  -20.6047  -13.0743 C   0  0  0  0  0  0  0  0  0  0  0  0
   22.8179  -19.5587  -12.4453 O   0  0  0  0  0  0  0  0  0  0  0  0
   27.0759  -19.3283   -7.1819 C   0  0  0  0  0  0  0  0  0  0  0  0
   25.9580  -20.2233   -8.2403 S   0  0  0  0  0  0  0  0  0  0  0  0
   26.2765  -20.0487   -9.9538 C   0  0  0  0  0  0  0  0  0  0  0  0
   25.3685  -20.6013  -10.9503 C   0  0  0  0  0  0  0  0  0  0  0  0
   25.4769  -20.4456  -12.3893 C   0  0  2  0  0  0  0  0  0  0  0  0
   24.4974  -20.9667  -13.2625 N   0  0  0  0  0  0  0  0  0  0  0  0
   26.8328  -21.0174  -12.8037 C   0  0  0  0  0  0  0  0  0  0  0  0
   27.2107  -22.0391  -12.1980 O   0  0  0  0  0  0  0  0  0  0  0  0
   27.6639  -27.1051  -16.1555 N   0  0  0  0  0  0  0  0  0  0  0  0
   28.0212  -26.4407  -17.3480 C   0  0  0  0  0  0  0  0  0  0  0  0
   27.7776  -27.0084  -18.4769 N   0  0  0  0  0  0  0  0  0  0  0  0
   28.6398  -25.1647  -17.2872 N   0  0  0  0  0  0  0  0  0  0  0  0
   28.5179  -24.3644  -16.0919 C   0  0  0  0  0  0  0  0  0  0  0  0
   27.4406  -23.2999  -16.2230 C   0  0  0  0  0  0  0  0  0  0  0  0
   27.3151  -22.4947  -14.9513 C   0  0  0  0  0  0  0  0  0  0  0  0
   27.9862  -21.1447  -15.0461 C   0  0  2  0  0  0  0  0  0  0  0  0
   27.6236  -20.4468  -13.8022 N   0  0  0  0  0  0  0  0  0  0  0  0
   27.6295  -20.3585  -16.2195 C   0  0  0  0  0  0  0  0  0  0  0  0
   26.7452  -19.2913  -16.1473 O   0  0  0  0  0  0  0  0  0  0  0  0
   28.1137  -20.6215  -17.3409 O   0  0  0  0  0  0  0  0  0  0  0  0
  2  1  1  1
  3  2  1  0
  4  5  2  0
  4  3  1  0
  6  5  1  0
  7 12  2  0
  7  6  1  0
  8  7  1  0
  9 10  1  0
  9  8  2  0
 10 11  2  0
 11 12  1  0
 12  4  1  0
 13  2  1  0
 14 13  2  0
 16 15  1  0
 17 16  1  0
 17 18  1  0
 19 18  1  1
 19 20  1  0
 20 13  1  0
 21 19  1  0
 22 21  2  0
 23 24  1  0
 24 25  2  0
 24 26  1  0
 26 27  1  0
 27 28  1  0
 29 28  1  0
 30 29  1  6
 30 31  1  0
 31 21  1  0
 32 30  1  0
 32 33  1  0
 34 32  2  0
M  END
$$$$
