RGF.pdb
     RDKit          3D

 27 27  0  0  1  0  0  0  0  0999 V2000
    7.7144  -13.8943   15.6749 N   0  0  0  0  0  0  0  0  0  0  0  0
    8.8038  -13.8784   16.5849 C   0  0  0  0  0  0  0  0  0  0  0  0
    9.8076  -14.6791   16.4093 N   0  0  0  0  0  0  0  0  0  0  0  0
    8.8533  -13.0095   17.7066 N   0  0  0  0  0  0  0  0  0  0  0  0
    8.5769  -13.4720   19.0465 C   0  0  0  0  0  0  0  0  0  0  0  0
    7.1374  -13.9448   19.1074 C   0  0  0  0  0  0  0  0  0  0  0  0
    6.6975  -14.2415   20.5064 C   0  0  0  0  0  0  0  0  0  0  0  0
    7.7128  -15.1756   21.1353 C   0  0  2  0  0  0  0  0  0  0  0  0
    7.9950  -16.3255   20.3284 N   0  0  0  0  0  0  0  0  0  0  0  0
    7.1345  -15.6207   22.4346 C   0  0  0  0  0  0  0  0  0  0  0  0
    6.6304  -14.8153   23.2587 O   0  0  0  0  0  0  0  0  0  0  0  0
   10.6417  -14.7030   17.0021 N   0  0  0  0  0  0  0  0  0  0  0  0
    7.1192  -17.0154   22.8277 C   0  0  0  0  0  0  0  0  0  0  0  0
    6.5431  -17.3896   24.0815 C   0  0  0  0  0  0  0  0  0  0  0  0
    7.3820  -17.0350   25.2152 O   0  0  0  0  0  0  0  0  0  0  0  0
    7.0348  -17.5318   26.3470 N   0  0  0  0  0  0  0  0  0  0  0  0
    8.5113  -16.2069   25.1378 C   0  0  2  0  0  0  0  0  0  0  0  0
    9.1942  -15.7898   26.3776 C   0  0  0  0  0  0  0  0  0  0  0  0
    8.2083  -15.0682   27.2183 C   0  0  0  0  0  0  0  0  0  0  0  0
    7.6396  -13.8546   26.5904 C   0  0  0  0  0  0  0  0  0  0  0  0
    6.2988  -13.8998   26.2419 C   0  0  0  0  0  0  0  0  0  0  0  0
    5.6799  -12.8275   25.6562 C   0  0  0  0  0  0  0  0  0  0  0  0
    6.4181  -11.7017   25.4201 C   0  0  0  0  0  0  0  0  0  0  0  0
    7.7529  -11.6304   25.7566 C   0  0  0  0  0  0  0  0  0  0  0  0
    8.3486  -12.7232   26.3442 C   0  0  0  0  0  0  0  0  0  0  0  0
    9.8200  -16.9683   26.9699 O   0  0  0  0  0  0  0  0  0  0  0  0
   10.2858  -16.9147   28.1319 O   0  0  0  0  0  0  0  0  0  0  0  0
  2  3  2  0
  2  1  1  0
  4  2  1  0
  5  4  1  0
  6  5  1  0
  7  6  1  0
  8  7  1  0
  8  9  1  6
 10  8  1  0
 11 10  2  0
 12 10  1  0
 13 14  1  0
 13 12  1  0
 14 15  2  0
 16 17  1  0
 16 14  1  0
 17 18  1  6
 19 20  2  0
 19 18  1  0
 21 20  1  0
 22 21  2  0
 23 22  1  0
 23 24  2  0
 24 19  1  0
 25 17  1  0
 26 25  2  0
 27 25  1  0
M  END
$$$$
