RGF.pdb
     RDKit          3D

 27 27  0  0  1  0  0  0  0  0999 V2000
    7.7599  -12.5892   16.7392 N   0  0  0  0  0  0  0  0  0  0  0  0
    8.2990  -13.8536   16.3842 C   0  0  0  0  0  0  0  0  0  0  0  0
    8.0765  -14.3462   15.2064 N   0  0  0  0  0  0  0  0  0  0  0  0
    9.0891  -14.6274   17.2744 N   0  0  0  0  0  0  0  0  0  0  0  0
    8.7631  -14.7538   18.6757 C   0  0  0  0  0  0  0  0  0  0  0  0
    7.2544  -14.7249   18.8254 C   0  0  0  0  0  0  0  0  0  0  0  0
    6.8202  -14.9810   20.2342 C   0  0  0  0  0  0  0  0  0  0  0  0
    7.7511  -16.0145   20.8375 C   0  0  2  0  0  0  0  0  0  0  0  0
    7.5471  -17.3314   20.3107 N   0  0  0  0  0  0  0  0  0  0  0  0
    7.4808  -16.0275   22.3029 C   0  0  0  0  0  0  0  0  0  0  0  0
    7.5204  -14.9843   23.0044 O   0  0  0  0  0  0  0  0  0  0  0  0
    8.4745  -15.2230   14.8593 N   0  0  0  0  0  0  0  0  0  0  0  0
    7.1551  -17.2497   23.0103 C   0  0  0  0  0  0  0  0  0  0  0  0
    6.8556  -17.1988   24.4072 C   0  0  0  0  0  0  0  0  0  0  0  0
    7.9867  -16.7626   25.2104 O   0  0  0  0  0  0  0  0  0  0  0  0
    9.1289  -16.7750   24.6243 N   0  0  0  0  0  0  0  0  0  0  0  0
    7.8964  -16.3439   26.5460 C   0  0  1  0  0  0  0  0  0  0  0  0
    9.1009  -15.8399   27.2336 C   0  0  0  0  0  0  0  0  0  0  0  0
    8.7015  -14.6662   28.0475 C   0  0  0  0  0  0  0  0  0  0  0  0
    7.9248  -13.6449   27.3098 C   0  0  0  0  0  0  0  0  0  0  0  0
    8.5093  -13.1170   26.1693 C   0  0  0  0  0  0  0  0  0  0  0  0
    7.8704  -12.1670   25.4175 C   0  0  0  0  0  0  0  0  0  0  0  0
    6.6335  -11.7461   25.8187 C   0  0  0  0  0  0  0  0  0  0  0  0
    6.0297  -12.2544   26.9487 C   0  0  0  0  0  0  0  0  0  0  0  0
    6.6951  -13.2083   27.6848 C   0  0  0  0  0  0  0  0  0  0  0  0
    9.7144  -16.9541   27.9502 O   0  0  0  0  0  0  0  0  0  0  0  0
    9.0896  -18.0312   28.0895 O   0  0  0  0  0  0  0  0  0  0  0  0
  2  3  2  0
  2  1  1  0
  4  2  1  0
  5  4  1  0
  6  5  1  0
  7  6  1  0
  8  7  1  0
  8  9  1  6
 10  8  1  0
 11 10  2  0
 12 10  1  0
 13 14  1  0
 13 12  1  0
 14 15  2  0
 16 17  1  0
 16 14  1  0
 17 18  1  1
 19 20  2  0
 19 18  1  0
 21 20  1  0
 22 21  2  0
 23 22  1  0
 23 24  2  0
 24 19  1  0
 25 17  1  0
 26 25  2  0
 27 25  1  0
M  END
$$$$
