RGF.pdb
     RDKit          3D

 27 27  0  0  1  0  0  0  0  0999 V2000
    2.3443  -19.5042   22.9426 N   0  0  0  0  0  0  0  0  0  0  0  0
    1.9608  -20.2648   21.8071 C   0  0  0  0  0  0  0  0  0  0  0  0
    1.4334  -21.4387   21.9604 N   0  0  0  0  0  0  0  0  0  0  0  0
    2.1292  -19.7959   20.4776 N   0  0  0  0  0  0  0  0  0  0  0  0
    2.8424  -18.5758   20.1802 C   0  0  0  0  0  0  0  0  0  0  0  0
    4.2660  -18.7130   20.6841 C   0  0  0  0  0  0  0  0  0  0  0  0
    5.2609  -18.1146   19.7403 C   0  0  0  0  0  0  0  0  0  0  0  0
    6.6520  -18.4545   20.2385 C   0  0  2  0  0  0  0  0  0  0  0  0
    6.6478  -19.1266   21.5041 N   0  0  0  0  0  0  0  0  0  0  0  0
    7.3833  -17.1632   20.3738 C   0  0  0  0  0  0  0  0  0  0  0  0
    7.7290  -16.4774   19.3778 O   0  0  0  0  0  0  0  0  0  0  0  0
    1.1229  -22.0403   21.1927 N   0  0  0  0  0  0  0  0  0  0  0  0
    7.7420  -16.6187   21.6680 C   0  0  0  0  0  0  0  0  0  0  0  0
    8.3201  -15.3138   21.7497 C   0  0  0  0  0  0  0  0  0  0  0  0
    8.5555  -14.8866   23.1198 O   0  0  0  0  0  0  0  0  0  0  0  0
    9.0464  -13.7091   23.2637 N   0  0  0  0  0  0  0  0  0  0  0  0
    8.2830  -15.6682   24.2520 C   0  0  1  0  0  0  0  0  0  0  0  0
    9.1951  -15.6134   25.4107 C   0  0  0  0  0  0  0  0  0  0  0  0
    8.3743  -15.3825   26.6242 C   0  0  0  0  0  0  0  0  0  0  0  0
    7.5727  -14.1387   26.5940 C   0  0  0  0  0  0  0  0  0  0  0  0
    8.2457  -12.9539   26.8474 C   0  0  0  0  0  0  0  0  0  0  0  0
    7.5926  -11.7500   26.8415 C   0  0  0  0  0  0  0  0  0  0  0  0
    6.2514  -11.7408   26.5784 C   0  0  0  0  0  0  0  0  0  0  0  0
    5.5581  -12.9044   26.3233 C   0  0  0  0  0  0  0  0  0  0  0  0
    6.2404  -14.0998   26.3355 C   0  0  0  0  0  0  0  0  0  0  0  0
   10.0184  -16.8190   25.3981 O   0  0  0  0  0  0  0  0  0  0  0  0
   10.9022  -16.9850   26.2708 O   0  0  0  0  0  0  0  0  0  0  0  0
  2  3  2  0
  2  1  1  0
  4  2  1  0
  5  4  1  0
  6  5  1  0
  7  6  1  0
  8  7  1  0
  8  9  1  1
 10  8  1  0
 11 10  2  0
 12 10  1  0
 13 14  1  0
 13 12  1  0
 14 15  2  0
 16 17  1  0
 16 14  1  0
 17 18  1  1
 19 20  2  0
 19 18  1  0
 21 20  1  0
 22 21  2  0
 23 22  1  0
 23 24  2  0
 24 19  1  0
 25 17  1  0
 26 25  2  0
 27 25  1  0
M  END
$$$$
