RGF.pdb
     RDKit          3D

 27 27  0  0  1  0  0  0  0  0999 V2000
    8.3852  -13.3543   18.0378 N   0  0  0  0  0  0  0  0  0  0  0  0
    8.2965  -13.0129   19.4129 C   0  0  0  0  0  0  0  0  0  0  0  0
    9.0344  -12.0625   19.8944 N   0  0  0  0  0  0  0  0  0  0  0  0
    7.4199  -13.6750   20.3122 N   0  0  0  0  0  0  0  0  0  0  0  0
    7.4426  -15.1083   20.4885 C   0  0  0  0  0  0  0  0  0  0  0  0
    8.8651  -15.5966   20.2949 C   0  0  0  0  0  0  0  0  0  0  0  0
    8.9285  -16.8425   19.4687 C   0  0  0  0  0  0  0  0  0  0  0  0
    8.8753  -18.0351   20.4033 C   0  0  2  0  0  0  0  0  0  0  0  0
    8.0850  -17.7973   21.5747 N   0  0  0  0  0  0  0  0  0  0  0  0
   10.2800  -18.3196   20.8114 C   0  0  0  0  0  0  0  0  0  0  0  0
   11.2169  -18.4171   19.9780 O   0  0  0  0  0  0  0  0  0  0  0  0
    9.0563  -11.7874   20.8801 N   0  0  0  0  0  0  0  0  0  0  0  0
   10.6514  -18.5022   22.2002 C   0  0  0  0  0  0  0  0  0  0  0  0
   11.8257  -17.8635   22.7072 C   0  0  0  0  0  0  0  0  0  0  0  0
   11.9983  -18.0558   24.1383 O   0  0  0  0  0  0  0  0  0  0  0  0
   11.5634  -19.1672   24.6115 N   0  0  0  0  0  0  0  0  0  0  0  0
   12.5947  -17.1216   24.9977 C   0  0  2  0  0  0  0  0  0  0  0  0
   11.8666  -16.6692   26.1989 C   0  0  0  0  0  0  0  0  0  0  0  0
   11.1458  -15.4210   25.8497 C   0  0  0  0  0  0  0  0  0  0  0  0
   10.2808  -14.8910   26.9274 C   0  0  0  0  0  0  0  0  0  0  0  0
   10.9028  -14.5474   28.1174 C   0  0  0  0  0  0  0  0  0  0  0  0
   10.1892  -14.0475   29.1742 C   0  0  0  0  0  0  0  0  0  0  0  0
    8.8388  -13.8932   29.0301 C   0  0  0  0  0  0  0  0  0  0  0  0
    8.1954  -14.2271   27.8578 C   0  0  0  0  0  0  0  0  0  0  0  0
    8.9380  -14.7270   26.8122 C   0  0  0  0  0  0  0  0  0  0  0  0
   11.0526  -17.7807   26.6820 O   0  0  0  0  0  0  0  0  0  0  0  0
   10.1337  -18.2433   25.9667 O   0  0  0  0  0  0  0  0  0  0  0  0
  2  3  2  0
  2  1  1  0
  4  2  1  0
  5  4  1  0
  6  5  1  0
  7  6  1  0
  8  7  1  0
  8  9  1  1
 10  8  1  0
 11 10  2  0
 12 10  1  0
 13 14  1  0
 13 12  1  0
 14 15  2  0
 16 17  1  0
 16 14  1  0
 17 18  1  6
 19 20  2  0
 19 18  1  0
 21 20  1  0
 22 21  2  0
 23 22  1  0
 23 24  2  0
 24 19  1  0
 25 17  1  0
 26 25  2  0
 27 25  1  0
M  END
$$$$
