RGF.pdb
     RDKit          3D

 27 27  0  0  1  0  0  0  0  0999 V2000
    9.3167  -13.3241   18.7590 N   0  0  0  0  0  0  0  0  0  0  0  0
    8.9047  -13.8047   17.4883 C   0  0  0  0  0  0  0  0  0  0  0  0
    8.1964  -13.0505   16.7079 N   0  0  0  0  0  0  0  0  0  0  0  0
    9.2356  -15.1016   17.0149 N   0  0  0  0  0  0  0  0  0  0  0  0
    8.9102  -16.2952   17.7601 C   0  0  0  0  0  0  0  0  0  0  0  0
    7.4173  -16.3072   18.0257 C   0  0  0  0  0  0  0  0  0  0  0  0
    7.1023  -16.4534   19.4812 C   0  0  0  0  0  0  0  0  0  0  0  0
    8.1023  -17.4176   20.0888 C   0  0  2  0  0  0  0  0  0  0  0  0
    7.8074  -18.7899   19.8007 N   0  0  0  0  0  0  0  0  0  0  0  0
    8.0550  -17.2071   21.5633 C   0  0  0  0  0  0  0  0  0  0  0  0
    8.4171  -16.1298   22.1019 O   0  0  0  0  0  0  0  0  0  0  0  0
    7.9271  -13.2959   15.7513 N   0  0  0  0  0  0  0  0  0  0  0  0
    7.5870  -18.2373   22.4688 C   0  0  0  0  0  0  0  0  0  0  0  0
    7.4333  -17.9394   23.8586 C   0  0  0  0  0  0  0  0  0  0  0  0
    8.5995  -17.2815   24.4261 O   0  0  0  0  0  0  0  0  0  0  0  0
    9.7247  -17.5598   23.8740 N   0  0  0  0  0  0  0  0  0  0  0  0
    8.5589  -16.3899   25.5080 C   0  0  1  0  0  0  0  0  0  0  0  0
    9.7904  -15.6889   25.9199 C   0  0  0  0  0  0  0  0  0  0  0  0
    9.6483  -14.2617   25.5425 C   0  0  0  0  0  0  0  0  0  0  0  0
    8.4790  -13.5824   26.1440 C   0  0  0  0  0  0  0  0  0  0  0  0
    7.2984  -13.6081   25.4183 C   0  0  0  0  0  0  0  0  0  0  0  0
    6.1608  -13.0088   25.8900 C   0  0  0  0  0  0  0  0  0  0  0  0
    6.2139  -12.3790   27.1018 C   0  0  0  0  0  0  0  0  0  0  0  0
    7.3749  -12.3384   27.8437 C   0  0  0  0  0  0  0  0  0  0  0  0
    8.5029  -12.9496   27.3450 C   0  0  0  0  0  0  0  0  0  0  0  0
   10.0227  -15.9714   27.3332 O   0  0  0  0  0  0  0  0  0  0  0  0
   11.0664  -15.5611   27.8922 O   0  0  0  0  0  0  0  0  0  0  0  0
  2  3  2  0
  2  1  1  0
  4  2  1  0
  5  4  1  0
  6  5  1  0
  7  6  1  0
  8  7  1  0
  8  9  1  1
 10  8  1  0
 11 10  2  0
 12 10  1  0
 13 14  1  0
 13 12  1  0
 14 15  2  0
 16 17  1  0
 16 14  1  0
 17 18  1  1
 19 20  2  0
 19 18  1  0
 21 20  1  0
 22 21  2  0
 23 22  1  0
 23 24  2  0
 24 19  1  0
 25 17  1  0
 26 25  2  0
 27 25  1  0
M  END
$$$$
