RGF.pdb
     RDKit          3D

 27 27  0  0  1  0  0  0  0  0999 V2000
    9.9944  -14.3092   18.3599 N   0  0  0  0  0  0  0  0  0  0  0  0
    8.7416  -13.8202   17.9055 C   0  0  0  0  0  0  0  0  0  0  0  0
    8.5372  -12.5436   17.8159 N   0  0  0  0  0  0  0  0  0  0  0  0
    7.6726  -14.6777   17.5347 N   0  0  0  0  0  0  0  0  0  0  0  0
    7.7219  -16.1038   17.7577 C   0  0  0  0  0  0  0  0  0  0  0  0
    7.5878  -16.3653   19.2453 C   0  0  0  0  0  0  0  0  0  0  0  0
    7.8234  -17.8019   19.5912 C   0  0  0  0  0  0  0  0  0  0  0  0
    7.6910  -17.9564   21.0936 C   0  0  2  0  0  0  0  0  0  0  0  0
    6.4685  -17.4154   21.6095 N   0  0  0  0  0  0  0  0  0  0  0  0
    8.8413  -17.2282   21.6996 C   0  0  0  0  0  0  0  0  0  0  0  0
   10.0085  -17.6967   21.7033 O   0  0  0  0  0  0  0  0  0  0  0  0
    7.6436  -12.1154   17.5592 N   0  0  0  0  0  0  0  0  0  0  0  0
    8.6820  -15.9305   22.3246 C   0  0  0  0  0  0  0  0  0  0  0  0
    9.8325  -15.2342   22.8098 C   0  0  0  0  0  0  0  0  0  0  0  0
   10.0697  -15.4572   24.2272 O   0  0  0  0  0  0  0  0  0  0  0  0
   11.1219  -14.9052   24.7135 N   0  0  0  0  0  0  0  0  0  0  0  0
    9.2367  -16.2179   25.0606 C   0  0  1  0  0  0  0  0  0  0  0  0
    9.3473  -16.0762   26.5252 C   0  0  0  0  0  0  0  0  0  0  0  0
    7.9973  -15.7646   27.0545 C   0  0  0  0  0  0  0  0  0  0  0  0
    7.4471  -14.4667   26.6037 C   0  0  0  0  0  0  0  0  0  0  0  0
    8.2077  -13.3386   26.8681 C   0  0  0  0  0  0  0  0  0  0  0  0
    7.7852  -12.0917   26.4904 C   0  0  0  0  0  0  0  0  0  0  0  0
    6.5873  -11.9815   25.8415 C   0  0  0  0  0  0  0  0  0  0  0  0
    5.8114  -13.0870   25.5663 C   0  0  0  0  0  0  0  0  0  0  0  0
    6.2612  -14.3276   25.9575 C   0  0  0  0  0  0  0  0  0  0  0  0
    9.9943  -17.2751   27.0499 O   0  0  0  0  0  0  0  0  0  0  0  0
   10.2774  -18.2233   26.2812 O   0  0  0  0  0  0  0  0  0  0  0  0
  2  3  2  0
  2  1  1  0
  4  2  1  0
  5  4  1  0
  6  5  1  0
  7  6  1  0
  8  7  1  0
  8  9  1  1
 10  8  1  0
 11 10  2  0
 12 10  1  0
 13 14  1  0
 13 12  1  0
 14 15  2  0
 16 17  1  0
 16 14  1  0
 17 18  1  1
 19 20  2  0
 19 18  1  0
 21 20  1  0
 22 21  2  0
 23 22  1  0
 23 24  2  0
 24 19  1  0
 25 17  1  0
 26 25  2  0
 27 25  1  0
M  END
$$$$
