RGF.pdb
     RDKit          3D

 27 27  0  0  1  0  0  0  0  0999 V2000
    9.4335  -13.7211   12.7186 N   0  0  0  0  0  0  0  0  0  0  0  0
    8.5842  -13.9588   13.8310 C   0  0  0  0  0  0  0  0  0  0  0  0
    8.2775  -12.9876   14.6325 N   0  0  0  0  0  0  0  0  0  0  0  0
    8.0391  -15.2375   14.1200 N   0  0  0  0  0  0  0  0  0  0  0  0
    8.6818  -16.1564   15.0302 C   0  0  0  0  0  0  0  0  0  0  0  0
    7.7421  -16.4247   16.1896 C   0  0  0  0  0  0  0  0  0  0  0  0
    7.8901  -17.8126   16.7288 C   0  0  0  0  0  0  0  0  0  0  0  0
    8.9225  -17.7831   17.8388 C   0  0  2  0  0  0  0  0  0  0  0  0
    9.1425  -19.0665   18.4370 N   0  0  0  0  0  0  0  0  0  0  0  0
    8.4077  -16.8435   18.8745 C   0  0  0  0  0  0  0  0  0  0  0  0
    8.4460  -15.5947   18.7297 O   0  0  0  0  0  0  0  0  0  0  0  0
    7.6567  -13.0767   15.4413 N   0  0  0  0  0  0  0  0  0  0  0  0
    7.8298  -17.3156   20.1168 C   0  0  0  0  0  0  0  0  0  0  0  0
    7.2438  -16.3790   21.0241 C   0  0  0  0  0  0  0  0  0  0  0  0
    8.0428  -16.1803   22.2228 O   0  0  0  0  0  0  0  0  0  0  0  0
    8.3091  -17.2373   22.9010 N   0  0  0  0  0  0  0  0  0  0  0  0
    8.5205  -14.9362   22.6602 C   0  0  1  0  0  0  0  0  0  0  0  0
    8.3414  -14.5432   24.0712 C   0  0  0  0  0  0  0  0  0  0  0  0
    7.5956  -13.2615   24.0945 C   0  0  0  0  0  0  0  0  0  0  0  0
    7.2484  -12.7792   25.4499 C   0  0  0  0  0  0  0  0  0  0  0  0
    5.9279  -12.4184   25.6668 C   0  0  0  0  0  0  0  0  0  0  0  0
    5.5071  -11.9607   26.8872 C   0  0  0  0  0  0  0  0  0  0  0  0
    6.4244  -11.8660   27.8960 C   0  0  0  0  0  0  0  0  0  0  0  0
    7.7436  -12.2181   27.7072 C   0  0  0  0  0  0  0  0  0  0  0  0
    8.1380  -12.6751   26.4702 C   0  0  0  0  0  0  0  0  0  0  0  0
    7.7352  -15.6652   24.7818 O   0  0  0  0  0  0  0  0  0  0  0  0
    8.3881  -16.2814   25.6560 O   0  0  0  0  0  0  0  0  0  0  0  0
  2  3  2  0
  2  1  1  0
  4  2  1  0
  5  4  1  0
  6  5  1  0
  7  6  1  0
  8  7  1  0
  8  9  1  1
 10  8  1  0
 11 10  2  0
 12 10  1  0
 13 14  1  0
 13 12  1  0
 14 15  2  0
 16 17  1  0
 16 14  1  0
 17 18  1  6
 19 20  2  0
 19 18  1  0
 21 20  1  0
 22 21  2  0
 23 22  1  0
 23 24  2  0
 24 19  1  0
 25 17  1  0
 26 25  2  0
 27 25  1  0
M  END
$$$$
