RGF.pdb
     RDKit          3D

 27 27  0  0  1  0  0  0  0  0999 V2000
    7.1502  -15.4817   15.7354 N   0  0  0  0  0  0  0  0  0  0  0  0
    8.2722  -14.6146   15.8049 C   0  0  0  0  0  0  0  0  0  0  0  0
    9.4328  -15.0213   15.3960 N   0  0  0  0  0  0  0  0  0  0  0  0
    8.1881  -13.2913   16.3122 N   0  0  0  0  0  0  0  0  0  0  0  0
    8.4624  -12.9825   17.6961 C   0  0  0  0  0  0  0  0  0  0  0  0
    7.6194  -13.8906   18.5702 C   0  0  0  0  0  0  0  0  0  0  0  0
    7.6667  -13.4924   20.0118 C   0  0  0  0  0  0  0  0  0  0  0  0
    8.9570  -14.0202   20.6079 C   0  0  2  0  0  0  0  0  0  0  0  0
    9.7349  -14.7849   19.6787 N   0  0  0  0  0  0  0  0  0  0  0  0
    8.5717  -14.8905   21.7545 C   0  0  0  0  0  0  0  0  0  0  0  0
    7.7377  -14.5292   22.6239 O   0  0  0  0  0  0  0  0  0  0  0  0
   10.2683  -14.4325   15.3423 N   0  0  0  0  0  0  0  0  0  0  0  0
    9.1387  -16.2116   21.9370 C   0  0  0  0  0  0  0  0  0  0  0  0
    8.6851  -17.0321   23.0164 C   0  0  0  0  0  0  0  0  0  0  0  0
    9.1311  -16.5522   24.3147 O   0  0  0  0  0  0  0  0  0  0  0  0
   10.2820  -15.9837   24.3376 N   0  0  0  0  0  0  0  0  0  0  0  0
    8.3937  -16.6747   25.5015 C   0  0  1  0  0  0  0  0  0  0  0  0
    8.9354  -16.1168   26.7557 C   0  0  0  0  0  0  0  0  0  0  0  0
    7.8186  -15.4658   27.4827 C   0  0  0  0  0  0  0  0  0  0  0  0
    7.2799  -14.2561   26.8218 C   0  0  0  0  0  0  0  0  0  0  0  0
    8.0459  -13.1039   26.9044 C   0  0  0  0  0  0  0  0  0  0  0  0
    7.6341  -11.9333   26.3248 C   0  0  0  0  0  0  0  0  0  0  0  0
    6.4414  -11.9242   25.6574 C   0  0  0  0  0  0  0  0  0  0  0  0
    5.6602  -13.0557   25.5604 C   0  0  0  0  0  0  0  0  0  0  0  0
    6.0993  -14.2181   26.1524 C   0  0  0  0  0  0  0  0  0  0  0  0
    9.6402  -17.1836   27.4602 O   0  0  0  0  0  0  0  0  0  0  0  0
    9.5278  -18.3709   27.0757 O   0  0  0  0  0  0  0  0  0  0  0  0
  2  3  2  0
  2  1  1  0
  4  2  1  0
  5  4  1  0
  6  5  1  0
  7  6  1  0
  8  7  1  0
  8  9  1  6
 10  8  1  0
 11 10  2  0
 12 10  1  0
 13 14  1  0
 13 12  1  0
 14 15  2  0
 16 17  1  0
 16 14  1  0
 17 18  1  1
 19 20  2  0
 19 18  1  0
 21 20  1  0
 22 21  2  0
 23 22  1  0
 23 24  2  0
 24 19  1  0
 25 17  1  0
 26 25  2  0
 27 25  1  0
M  END
$$$$
