RGF.pdb
     RDKit          3D

 27 27  0  0  1  0  0  0  0  0999 V2000
    8.9698  -14.1403   17.3129 N   0  0  0  0  0  0  0  0  0  0  0  0
    8.4423  -13.3547   18.3712 C   0  0  0  0  0  0  0  0  0  0  0  0
    9.0060  -12.2319   18.6890 N   0  0  0  0  0  0  0  0  0  0  0  0
    7.3005  -13.7442   19.1197 N   0  0  0  0  0  0  0  0  0  0  0  0
    7.3799  -14.7085   20.1919 C   0  0  0  0  0  0  0  0  0  0  0  0
    8.1903  -15.8975   19.7137 C   0  0  0  0  0  0  0  0  0  0  0  0
    8.5562  -16.8205   20.8332 C   0  0  0  0  0  0  0  0  0  0  0  0
    7.2766  -17.3047   21.4866 C   0  0  2  0  0  0  0  0  0  0  0  0
    6.2614  -16.2956   21.5523 N   0  0  0  0  0  0  0  0  0  0  0  0
    7.6375  -17.7251   22.8700 C   0  0  0  0  0  0  0  0  0  0  0  0
    8.4449  -18.6616   23.1003 O   0  0  0  0  0  0  0  0  0  0  0  0
    8.6432  -11.5775   19.3875 N   0  0  0  0  0  0  0  0  0  0  0  0
    7.0758  -17.0767   24.0380 C   0  0  0  0  0  0  0  0  0  0  0  0
    7.4836  -17.4952   25.3428 C   0  0  0  0  0  0  0  0  0  0  0  0
    8.5896  -16.7094   25.8664 O   0  0  0  0  0  0  0  0  0  0  0  0
    9.5776  -16.5288   25.0667 N   0  0  0  0  0  0  0  0  0  0  0  0
    8.6304  -16.1582   27.1555 C   0  0  1  0  0  0  0  0  0  0  0  0
    9.8662  -15.5055   27.6290 C   0  0  0  0  0  0  0  0  0  0  0  0
    9.5381  -14.0976   27.9600 C   0  0  0  0  0  0  0  0  0  0  0  0
    8.3774  -13.5495   27.2231 C   0  0  0  0  0  0  0  0  0  0  0  0
    7.2390  -13.2737   27.9640 C   0  0  0  0  0  0  0  0  0  0  0  0
    6.1131  -12.7635   27.3740 C   0  0  0  0  0  0  0  0  0  0  0  0
    6.1352  -12.5300   26.0275 C   0  0  0  0  0  0  0  0  0  0  0  0
    7.2540  -12.7955   25.2674 C   0  0  0  0  0  0  0  0  0  0  0  0
    8.3712  -13.3077   25.8871 C   0  0  0  0  0  0  0  0  0  0  0  0
   10.4243  -16.3173   28.7065 O   0  0  0  0  0  0  0  0  0  0  0  0
   11.5285  -16.0129   29.2146 O   0  0  0  0  0  0  0  0  0  0  0  0
  2  3  2  0
  2  1  1  0
  4  2  1  0
  5  4  1  0
  6  5  1  0
  7  6  1  0
  8  7  1  0
  8  9  1  1
 10  8  1  0
 11 10  2  0
 12 10  1  0
 13 14  1  0
 13 12  1  0
 14 15  2  0
 16 17  1  0
 16 14  1  0
 17 18  1  1
 19 20  2  0
 19 18  1  0
 21 20  1  0
 22 21  2  0
 23 22  1  0
 23 24  2  0
 24 19  1  0
 25 17  1  0
 26 25  2  0
 27 25  1  0
M  END
$$$$
