RGF.pdb
     RDKit          3D

 27 27  0  0  1  0  0  0  0  0999 V2000
    7.7134  -15.3208   16.1745 N   0  0  0  0  0  0  0  0  0  0  0  0
    8.1782  -13.9847   16.0563 C   0  0  0  0  0  0  0  0  0  0  0  0
    8.6640  -13.5639   14.9309 N   0  0  0  0  0  0  0  0  0  0  0  0
    8.1384  -13.0609   17.1336 N   0  0  0  0  0  0  0  0  0  0  0  0
    8.1548  -13.4907   18.5123 C   0  0  0  0  0  0  0  0  0  0  0  0
    6.8379  -14.1764   18.8205 C   0  0  0  0  0  0  0  0  0  0  0  0
    6.7892  -14.7063   20.2190 C   0  0  0  0  0  0  0  0  0  0  0  0
    8.2082  -14.9999   20.6652 C   0  0  2  0  0  0  0  0  0  0  0  0
    8.8415  -16.0245   19.8891 N   0  0  0  0  0  0  0  0  0  0  0  0
    8.1248  -15.4441   22.0852 C   0  0  0  0  0  0  0  0  0  0  0  0
    7.5525  -14.7605   22.9723 O   0  0  0  0  0  0  0  0  0  0  0  0
    9.0595  -12.6317   14.7817 N   0  0  0  0  0  0  0  0  0  0  0  0
    8.7021  -16.6965   22.5305 C   0  0  0  0  0  0  0  0  0  0  0  0
    8.4572  -17.1530   23.8630 C   0  0  0  0  0  0  0  0  0  0  0  0
    9.2377  -16.4338   24.8572 O   0  0  0  0  0  0  0  0  0  0  0  0
   10.2350  -15.7613   24.4083 N   0  0  0  0  0  0  0  0  0  0  0  0
    8.9659  -16.4374   26.2331 C   0  0  1  0  0  0  0  0  0  0  0  0
    9.7861  -15.6103   27.1391 C   0  0  0  0  0  0  0  0  0  0  0  0
    8.8697  -14.7341   27.9084 C   0  0  0  0  0  0  0  0  0  0  0  0
    8.1367  -13.7438   27.0884 C   0  0  0  0  0  0  0  0  0  0  0  0
    8.8295  -12.6015   26.7188 C   0  0  0  0  0  0  0  0  0  0  0  0
    8.2390  -11.6264   25.9596 C   0  0  0  0  0  0  0  0  0  0  0  0
    6.9410  -11.8041   25.5704 C   0  0  0  0  0  0  0  0  0  0  0  0
    6.2293  -12.9302   25.9242 C   0  0  0  0  0  0  0  0  0  0  0  0
    6.8483  -13.8940   26.6875 C   0  0  0  0  0  0  0  0  0  0  0  0
   10.6440  -16.5009   27.9152 O   0  0  0  0  0  0  0  0  0  0  0  0
   11.4533  -16.0266   28.7460 O   0  0  0  0  0  0  0  0  0  0  0  0
  2  3  2  0
  2  1  1  0
  4  2  1  0
  5  4  1  0
  6  5  1  0
  7  6  1  0
  8  7  1  0
  8  9  1  6
 10  8  1  0
 11 10  2  0
 12 10  1  0
 13 14  1  0
 13 12  1  0
 14 15  2  0
 16 17  1  0
 16 14  1  0
 17 18  1  1
 19 20  2  0
 19 18  1  0
 21 20  1  0
 22 21  2  0
 23 22  1  0
 23 24  2  0
 24 19  1  0
 25 17  1  0
 26 25  2  0
 27 25  1  0
M  END
$$$$
