RGF.pdb
     RDKit          3D

 27 27  0  0  1  0  0  0  0  0999 V2000
    9.6538  -14.0790   18.7522 N   0  0  0  0  0  0  0  0  0  0  0  0
    8.3659  -13.4854   18.8180 C   0  0  0  0  0  0  0  0  0  0  0  0
    7.9383  -12.7527   17.8383 N   0  0  0  0  0  0  0  0  0  0  0  0
    7.4991  -13.6558   19.9294 N   0  0  0  0  0  0  0  0  0  0  0  0
    6.8356  -14.9101   20.1981 C   0  0  0  0  0  0  0  0  0  0  0  0
    7.8851  -15.9464   20.5503 C   0  0  0  0  0  0  0  0  0  0  0  0
    7.2851  -17.2895   20.8243 C   0  0  0  0  0  0  0  0  0  0  0  0
    6.6255  -17.2453   22.1888 C   0  0  2  0  0  0  0  0  0  0  0  0
    6.2968  -15.9164   22.6123 N   0  0  0  0  0  0  0  0  0  0  0  0
    7.5969  -17.8381   23.1509 C   0  0  0  0  0  0  0  0  0  0  0  0
    7.8642  -19.0671   23.1670 O   0  0  0  0  0  0  0  0  0  0  0  0
    7.0858  -12.1869   17.8656 N   0  0  0  0  0  0  0  0  0  0  0  0
    8.2944  -17.0294   24.1305 C   0  0  0  0  0  0  0  0  0  0  0  0
    9.2646  -17.6374   24.9866 C   0  0  0  0  0  0  0  0  0  0  0  0
    9.8974  -16.6859   25.8860 O   0  0  0  0  0  0  0  0  0  0  0  0
   10.9665  -16.1258   25.4482 N   0  0  0  0  0  0  0  0  0  0  0  0
    9.4162  -16.3603   27.1625 C   0  0  1  0  0  0  0  0  0  0  0  0
   10.1702  -15.4115   28.0044 C   0  0  0  0  0  0  0  0  0  0  0  0
    9.2427  -14.3274   28.4091 C   0  0  0  0  0  0  0  0  0  0  0  0
    8.3924  -13.8081   27.3146 C   0  0  0  0  0  0  0  0  0  0  0  0
    9.0223  -13.0557   26.3357 C   0  0  0  0  0  0  0  0  0  0  0  0
    8.3224  -12.5318   25.2814 C   0  0  0  0  0  0  0  0  0  0  0  0
    6.9779  -12.7679   25.2138 C   0  0  0  0  0  0  0  0  0  0  0  0
    6.3269  -13.5125   26.1737 C   0  0  0  0  0  0  0  0  0  0  0  0
    7.0557  -14.0269   27.2220 C   0  0  0  0  0  0  0  0  0  0  0  0
   10.8046  -16.1652   29.0818 O   0  0  0  0  0  0  0  0  0  0  0  0
   10.5714  -17.3892   29.2136 O   0  0  0  0  0  0  0  0  0  0  0  0
  2  3  2  0
  2  1  1  0
  4  2  1  0
  5  4  1  0
  6  5  1  0
  7  6  1  0
  8  7  1  0
  8  9  1  1
 10  8  1  0
 11 10  2  0
 12 10  1  0
 13 14  1  0
 13 12  1  0
 14 15  2  0
 16 17  1  0
 16 14  1  0
 17 18  1  1
 19 20  2  0
 19 18  1  0
 21 20  1  0
 22 21  2  0
 23 22  1  0
 23 24  2  0
 24 19  1  0
 25 17  1  0
 26 25  2  0
 27 25  1  0
M  END
$$$$
