RGF.pdb
     RDKit          3D

 27 27  0  0  1  0  0  0  0  0999 V2000
    9.2926  -14.9497   14.9199 N   0  0  0  0  0  0  0  0  0  0  0  0
    8.2097  -14.5027   15.7216 C   0  0  0  0  0  0  0  0  0  0  0  0
    8.0721  -13.2404   15.9809 N   0  0  0  0  0  0  0  0  0  0  0  0
    7.2444  -15.3882   16.2690 N   0  0  0  0  0  0  0  0  0  0  0  0
    7.3948  -16.8229   16.2002 C   0  0  0  0  0  0  0  0  0  0  0  0
    7.1829  -17.3982   17.5871 C   0  0  0  0  0  0  0  0  0  0  0  0
    8.1932  -16.8950   18.5693 C   0  0  0  0  0  0  0  0  0  0  0  0
    7.8582  -17.4700   19.9317 C   0  0  2  0  0  0  0  0  0  0  0  0
    6.5142  -17.1931   20.3443 N   0  0  0  0  0  0  0  0  0  0  0  0
    8.8044  -16.8484   20.9007 C   0  0  0  0  0  0  0  0  0  0  0  0
    8.7233  -15.6403   21.2408 O   0  0  0  0  0  0  0  0  0  0  0  0
    7.2941  -12.8380   16.5106 N   0  0  0  0  0  0  0  0  0  0  0  0
    9.8802  -17.6033   21.5113 C   0  0  0  0  0  0  0  0  0  0  0  0
   10.9097  -16.9146   22.2253 C   0  0  0  0  0  0  0  0  0  0  0  0
   10.3990  -16.1494   23.3516 O   0  0  0  0  0  0  0  0  0  0  0  0
   11.2787  -15.5387   24.0598 N   0  0  0  0  0  0  0  0  0  0  0  0
    9.0421  -16.0484   23.6916 C   0  0  1  0  0  0  0  0  0  0  0  0
    8.6472  -15.2827   24.8897 C   0  0  0  0  0  0  0  0  0  0  0  0
    7.7734  -14.1684   24.4489 C   0  0  0  0  0  0  0  0  0  0  0  0
    7.2292  -13.3438   25.5508 C   0  0  0  0  0  0  0  0  0  0  0  0
    8.0707  -12.3819   26.0873 C   0  0  0  0  0  0  0  0  0  0  0  0
    7.6599  -11.5682   27.1096 C   0  0  0  0  0  0  0  0  0  0  0  0
    6.3917  -11.7255   27.5944 C   0  0  0  0  0  0  0  0  0  0  0  0
    5.5347  -12.6741   27.0791 C   0  0  0  0  0  0  0  0  0  0  0  0
    5.9745  -13.4778   26.0519 C   0  0  0  0  0  0  0  0  0  0  0  0
    8.0784  -16.2158   25.8578 O   0  0  0  0  0  0  0  0  0  0  0  0
    7.1512  -16.9867   25.5169 O   0  0  0  0  0  0  0  0  0  0  0  0
  2  3  2  0
  2  1  1  0
  4  2  1  0
  5  4  1  0
  6  5  1  0
  7  6  1  0
  8  7  1  0
  8  9  1  1
 10  8  1  0
 11 10  2  0
 12 10  1  0
 13 14  1  0
 13 12  1  0
 14 15  2  0
 16 17  1  0
 16 14  1  0
 17 18  1  1
 19 20  2  0
 19 18  1  0
 21 20  1  0
 22 21  2  0
 23 22  1  0
 23 24  2  0
 24 19  1  0
 25 17  1  0
 26 25  2  0
 27 25  1  0
M  END
$$$$
