RGF.pdb
     RDKit          3D

 27 27  0  0  1  0  0  0  0  0999 V2000
    8.9582  -15.5337   15.7230 N   0  0  0  0  0  0  0  0  0  0  0  0
    8.5326  -14.2276   15.3650 C   0  0  0  0  0  0  0  0  0  0  0  0
    8.4204  -13.9014   14.1158 N   0  0  0  0  0  0  0  0  0  0  0  0
    8.2155  -13.2337   16.3279 N   0  0  0  0  0  0  0  0  0  0  0  0
    8.4880  -13.4152   17.7345 C   0  0  0  0  0  0  0  0  0  0  0  0
    7.4788  -14.3956   18.2998 C   0  0  0  0  0  0  0  0  0  0  0  0
    7.2642  -14.2038   19.7682 C   0  0  0  0  0  0  0  0  0  0  0  0
    8.5449  -14.5786   20.4880 C   0  0  2  0  0  0  0  0  0  0  0  0
    9.3120  -15.5693   19.7929 N   0  0  0  0  0  0  0  0  0  0  0  0
    8.1438  -15.1164   21.8186 C   0  0  0  0  0  0  0  0  0  0  0  0
    7.4247  -14.4655   22.6193 O   0  0  0  0  0  0  0  0  0  0  0  0
    8.2027  -12.9596   13.7791 N   0  0  0  0  0  0  0  0  0  0  0  0
    8.5615  -16.4281   22.2714 C   0  0  0  0  0  0  0  0  0  0  0  0
    8.1798  -16.8809   23.5727 C   0  0  0  0  0  0  0  0  0  0  0  0
    8.9337  -16.2373   24.6367 O   0  0  0  0  0  0  0  0  0  0  0  0
   10.0504  -15.7064   24.2911 N   0  0  0  0  0  0  0  0  0  0  0  0
    8.5175  -16.1694   25.9744 C   0  0  1  0  0  0  0  0  0  0  0  0
    9.3991  -15.5457   26.9800 C   0  0  0  0  0  0  0  0  0  0  0  0
    8.5751  -14.6195   27.7942 C   0  0  0  0  0  0  0  0  0  0  0  0
    7.9749  -13.5021   27.0316 C   0  0  0  0  0  0  0  0  0  0  0  0
    6.5934  -13.4912   26.9202 C   0  0  0  0  0  0  0  0  0  0  0  0
    5.9432  -12.4992   26.2352 C   0  0  0  0  0  0  0  0  0  0  0  0
    6.6913  -11.5114   25.6584 C   0  0  0  0  0  0  0  0  0  0  0  0
    8.0662  -11.4985   25.7539 C   0  0  0  0  0  0  0  0  0  0  0  0
    8.6928  -12.5081   26.4486 C   0  0  0  0  0  0  0  0  0  0  0  0
   10.0908  -16.6105   27.7006 O   0  0  0  0  0  0  0  0  0  0  0  0
    9.7354  -17.8028   27.5518 O   0  0  0  0  0  0  0  0  0  0  0  0
  2  3  2  0
  2  1  1  0
  4  2  1  0
  5  4  1  0
  6  5  1  0
  7  6  1  0
  8  7  1  0
  8  9  1  6
 10  8  1  0
 11 10  2  0
 12 10  1  0
 13 14  1  0
 13 12  1  0
 14 15  2  0
 16 17  1  0
 16 14  1  0
 17 18  1  1
 19 20  2  0
 19 18  1  0
 21 20  1  0
 22 21  2  0
 23 22  1  0
 23 24  2  0
 24 19  1  0
 25 17  1  0
 26 25  2  0
 27 25  1  0
M  END
$$$$
