RGF.pdb
     RDKit          3D

 27 27  0  0  1  0  0  0  0  0999 V2000
    6.8939  -13.3698   15.2976 N   0  0  0  0  0  0  0  0  0  0  0  0
    8.2133  -13.8258   15.5553 C   0  0  0  0  0  0  0  0  0  0  0  0
    8.8713  -14.4606   14.6368 N   0  0  0  0  0  0  0  0  0  0  0  0
    8.8672  -13.6185   16.7983 N   0  0  0  0  0  0  0  0  0  0  0  0
    8.6080  -14.4522   17.9487 C   0  0  0  0  0  0  0  0  0  0  0  0
    7.6620  -13.7150   18.8765 C   0  0  0  0  0  0  0  0  0  0  0  0
    7.3344  -14.5110   20.1004 C   0  0  0  0  0  0  0  0  0  0  0  0
    8.3550  -15.6247   20.2296 C   0  0  2  0  0  0  0  0  0  0  0  0
    7.9316  -16.8498   19.6188 N   0  0  0  0  0  0  0  0  0  0  0  0
    8.5564  -15.8507   21.6887 C   0  0  0  0  0  0  0  0  0  0  0  0
    8.9751  -14.9485   22.4586 O   0  0  0  0  0  0  0  0  0  0  0  0
    9.8465  -14.7596   14.7230 N   0  0  0  0  0  0  0  0  0  0  0  0
    8.2810  -17.1306   22.3102 C   0  0  0  0  0  0  0  0  0  0  0  0
    8.2995  -17.2423   23.7353 C   0  0  0  0  0  0  0  0  0  0  0  0
    9.6404  -17.1494   24.2904 O   0  0  0  0  0  0  0  0  0  0  0  0
   10.5714  -16.8457   23.4601 N   0  0  0  0  0  0  0  0  0  0  0  0
    9.9573  -17.3673   25.6392 C   0  0  1  0  0  0  0  0  0  0  0  0
   11.3327  -17.1194   26.1128 C   0  0  0  0  0  0  0  0  0  0  0  0
   11.6061  -15.6684   25.9741 C   0  0  0  0  0  0  0  0  0  0  0  0
   10.7525  -14.8008   26.8162 C   0  0  0  0  0  0  0  0  0  0  0  0
    9.6749  -14.1897   26.1944 C   0  0  0  0  0  0  0  0  0  0  0  0
    8.8257  -13.3690   26.8880 C   0  0  0  0  0  0  0  0  0  0  0  0
    9.0647  -13.1629   28.2179 C   0  0  0  0  0  0  0  0  0  0  0  0
   10.1289  -13.7581   28.8605 C   0  0  0  0  0  0  0  0  0  0  0  0
   10.9658  -14.5783   28.1384 C   0  0  0  0  0  0  0  0  0  0  0  0
   11.4599  -17.6833   27.4534 O   0  0  0  0  0  0  0  0  0  0  0  0
   12.5810  -17.7303   28.0110 O   0  0  0  0  0  0  0  0  0  0  0  0
  2  3  2  0
  2  1  1  0
  4  2  1  0
  5  4  1  0
  6  5  1  0
  7  6  1  0
  8  7  1  0
  8  9  1  6
 10  8  1  0
 11 10  2  0
 12 10  1  0
 13 14  1  0
 13 12  1  0
 14 15  2  0
 16 17  1  0
 16 14  1  0
 17 18  1  1
 19 20  2  0
 19 18  1  0
 21 20  1  0
 22 21  2  0
 23 22  1  0
 23 24  2  0
 24 19  1  0
 25 17  1  0
 26 25  2  0
 27 25  1  0
M  END
$$$$
