ECD.pdb
     RDKit          3D

 24 23  0  0  1  0  0  0  0  0999 V2000
    7.7464  -17.1625   17.6257 N   0  0  0  0  0  0  0  0  0  0  0  0
    8.2077  -17.8545   18.8517 C   0  0  1  0  0  0  0  0  0  0  0  0
    9.0411  -19.0454   18.4547 C   0  0  0  0  0  0  0  0  0  0  0  0
    9.1958  -19.1245   16.9704 C   0  0  0  0  0  0  0  0  0  0  0  0
   10.0874  -20.2477   16.5601 C   0  0  0  0  0  0  0  0  0  0  0  0
   10.7458  -20.1614   15.4839 O   0  0  0  0  0  0  0  0  0  0  0  0
    8.9175  -16.8451   19.6576 C   0  0  0  0  0  0  0  0  0  0  0  0
   10.0401  -16.4005   19.2602 O   0  0  0  0  0  0  0  0  0  0  0  0
   10.2538  -21.4099   17.2887 O   0  0  0  0  0  0  0  0  0  0  0  0
    8.4570  -16.2940   20.8794 N   0  0  0  0  0  0  0  0  0  0  0  0
    9.2686  -15.3423   21.6446 C   0  0  1  0  0  0  0  0  0  0  0  0
    8.3657  -14.6812   22.6996 C   0  0  0  0  0  0  0  0  0  0  0  0
    7.4987  -15.9011   23.6872 S   0  0  0  0  0  0  0  0  0  0  0  0
   10.2516  -16.1353   22.4111 C   0  0  0  0  0  0  0  0  0  0  0  0
   10.1276  -17.3691   22.5291 O   0  0  0  0  0  0  0  0  0  0  0  0
   11.3847  -15.5314   23.0500 N   0  0  0  0  0  0  0  0  0  0  0  0
   12.4716  -16.2889   23.5858 C   0  0  1  0  0  0  0  0  0  0  0  0
   13.7690  -15.5844   23.2673 C   0  0  0  0  0  0  0  0  0  0  0  0
   14.9227  -16.3453   23.7552 C   0  0  0  0  0  0  0  0  0  0  0  0
   15.5001  -16.0419   24.8036 O   0  0  0  0  0  0  0  0  0  0  0  0
   12.4031  -16.4567   25.0471 C   0  0  0  0  0  0  0  0  0  0  0  0
   11.4121  -15.7970   25.7519 O   0  0  0  0  0  0  0  0  0  0  0  0
   15.4065  -17.4471   23.0393 O   0  0  0  0  0  0  0  0  0  0  0  0
   13.2083  -17.1756   25.6938 O   0  0  0  0  0  0  0  0  0  0  0  0
  2  1  1  6
  3  4  1  0
  3  2  1  0
  4  5  1  0
  5  6  2  0
  5  9  1  0
  7  8  2  0
  7  2  1  0
 10  7  1  0
 11 10  1  0
 11 14  1  0
 11 12  1  1
 13 12  1  0
 14 16  1  0
 15 14  2  0
 16 17  1  0
 17 21  1  0
 17 18  1  1
 19 18  1  0
 20 19  2  0
 21 24  2  0
 21 22  1  0
 23 19  1  0
M  END
$$$$
