ECD.pdb
     RDKit          3D

 24 23  0  0  1  0  0  0  0  0999 V2000
    8.4370  -16.5400   17.5114 N   0  0  0  0  0  0  0  0  0  0  0  0
    7.5747  -16.8514   18.6750 C   0  0  1  0  0  0  0  0  0  0  0  0
    7.4781  -18.3477   18.8233 C   0  0  0  0  0  0  0  0  0  0  0  0
    8.8313  -18.9812   18.7917 C   0  0  0  0  0  0  0  0  0  0  0  0
    8.7520  -20.4706   18.8012 C   0  0  0  0  0  0  0  0  0  0  0  0
    9.6120  -21.1459   18.1662 O   0  0  0  0  0  0  0  0  0  0  0  0
    8.1662  -16.1531   19.8304 C   0  0  0  0  0  0  0  0  0  0  0  0
    9.3807  -15.7804   19.7842 O   0  0  0  0  0  0  0  0  0  0  0  0
    7.7813  -21.1899   19.4718 O   0  0  0  0  0  0  0  0  0  0  0  0
    7.4918  -15.8387   21.0365 N   0  0  0  0  0  0  0  0  0  0  0  0
    8.1553  -15.0990   22.1147 C   0  0  1  0  0  0  0  0  0  0  0  0
    7.0785  -14.6273   23.1063 C   0  0  0  0  0  0  0  0  0  0  0  0
    7.8018  -13.8200   24.5347 S   0  0  0  0  0  0  0  0  0  0  0  0
    8.9765  -16.0738   22.8620 C   0  0  0  0  0  0  0  0  0  0  0  0
    8.5573  -17.2246   23.0887 O   0  0  0  0  0  0  0  0  0  0  0  0
   10.2821  -15.7477   23.3576 N   0  0  0  0  0  0  0  0  0  0  0  0
   11.0405  -16.6267   24.1909 C   0  0  1  0  0  0  0  0  0  0  0  0
   12.4623  -16.1244   24.2740 C   0  0  0  0  0  0  0  0  0  0  0  0
   13.3122  -16.7595   23.2628 C   0  0  0  0  0  0  0  0  0  0  0  0
   14.0768  -16.0983   22.5537 O   0  0  0  0  0  0  0  0  0  0  0  0
   10.5210  -16.7224   25.5655 C   0  0  0  0  0  0  0  0  0  0  0  0
    9.5811  -15.8015   25.9925 O   0  0  0  0  0  0  0  0  0  0  0  0
   13.2801  -18.1462   23.0712 O   0  0  0  0  0  0  0  0  0  0  0  0
   10.8927  -17.6071   26.3794 O   0  0  0  0  0  0  0  0  0  0  0  0
  2  1  1  6
  3  4  1  0
  3  2  1  0
  4  5  1  0
  5  6  2  0
  5  9  1  0
  7  8  2  0
  7  2  1  0
 10  7  1  0
 11 10  1  0
 11 14  1  0
 11 12  1  1
 13 12  1  0
 14 16  1  0
 15 14  2  0
 16 17  1  0
 17 21  1  0
 17 18  1  1
 19 18  1  0
 20 19  2  0
 21 24  2  0
 21 22  1  0
 23 19  1  0
M  END
$$$$
