ECD.pdb
     RDKit          3D

 24 23  0  0  1  0  0  0  0  0999 V2000
    8.0288  -14.6315   19.6946 N   0  0  0  0  0  0  0  0  0  0  0  0
    7.1283  -14.9117   20.8370 C   0  0  1  0  0  0  0  0  0  0  0  0
    6.6407  -16.3338   20.7357 C   0  0  0  0  0  0  0  0  0  0  0  0
    7.7447  -17.3031   21.0099 C   0  0  0  0  0  0  0  0  0  0  0  0
    7.2711  -18.7168   20.9673 C   0  0  0  0  0  0  0  0  0  0  0  0
    8.1092  -19.6593   21.0596 O   0  0  0  0  0  0  0  0  0  0  0  0
    7.8967  -14.6077   22.0574 C   0  0  0  0  0  0  0  0  0  0  0  0
    9.1573  -14.7717   22.0626 O   0  0  0  0  0  0  0  0  0  0  0  0
    5.9465  -19.0859   20.8310 O   0  0  0  0  0  0  0  0  0  0  0  0
    7.3530  -14.1288   23.2753 N   0  0  0  0  0  0  0  0  0  0  0  0
    8.2020  -13.8609   24.4403 C   0  0  1  0  0  0  0  0  0  0  0  0
    7.3285  -13.2251   25.5348 C   0  0  0  0  0  0  0  0  0  0  0  0
    8.2793  -12.8551   27.0093 S   0  0  0  0  0  0  0  0  0  0  0  0
    8.6154  -15.1723   24.9811 C   0  0  0  0  0  0  0  0  0  0  0  0
    7.7968  -16.1036   25.0995 O   0  0  0  0  0  0  0  0  0  0  0  0
    9.9641  -15.4355   25.3916 N   0  0  0  0  0  0  0  0  0  0  0  0
   10.3822  -16.6901   25.9330 C   0  0  1  0  0  0  0  0  0  0  0  0
   11.7910  -16.9817   25.4734 C   0  0  0  0  0  0  0  0  0  0  0  0
   12.2594  -18.2757   25.9774 C   0  0  0  0  0  0  0  0  0  0  0  0
   11.4749  -19.1998   26.2126 O   0  0  0  0  0  0  0  0  0  0  0  0
   10.3785  -16.7220   27.4052 C   0  0  0  0  0  0  0  0  0  0  0  0
   10.5408  -17.9352   28.0498 O   0  0  0  0  0  0  0  0  0  0  0  0
   13.6218  -18.5017   26.2086 O   0  0  0  0  0  0  0  0  0  0  0  0
   10.2328  -15.6922   28.1135 O   0  0  0  0  0  0  0  0  0  0  0  0
  2  1  1  6
  3  4  1  0
  3  2  1  0
  4  5  1  0
  5  6  2  0
  5  9  1  0
  7  8  2  0
  7  2  1  0
 10  7  1  0
 11 10  1  0
 11 14  1  0
 11 12  1  1
 13 12  1  0
 14 16  1  0
 15 14  2  0
 16 17  1  0
 17 21  1  0
 17 18  1  1
 19 18  1  0
 20 19  2  0
 21 24  2  0
 21 22  1  0
 23 19  1  0
M  END
$$$$
