ECD.pdb
     RDKit          3D

 24 23  0  0  1  0  0  0  0  0999 V2000
    8.9705  -15.4007   20.1525 N   0  0  0  0  0  0  0  0  0  0  0  0
    8.9619  -16.2615   21.3582 C   0  0  1  0  0  0  0  0  0  0  0  0
    9.9759  -17.3614   21.1788 C   0  0  0  0  0  0  0  0  0  0  0  0
    9.4989  -18.3792   20.1939 C   0  0  0  0  0  0  0  0  0  0  0  0
   10.4512  -19.5196   20.0625 C   0  0  0  0  0  0  0  0  0  0  0  0
   10.1725  -20.4801   19.2887 O   0  0  0  0  0  0  0  0  0  0  0  0
    9.2119  -15.3722   22.5066 C   0  0  0  0  0  0  0  0  0  0  0  0
   10.1136  -14.4799   22.4250 O   0  0  0  0  0  0  0  0  0  0  0  0
   11.6510  -19.6087   20.7421 O   0  0  0  0  0  0  0  0  0  0  0  0
    8.5200  -15.4089   23.7429 N   0  0  0  0  0  0  0  0  0  0  0  0
    8.8645  -14.5001   24.8408 C   0  0  1  0  0  0  0  0  0  0  0  0
    7.5728  -13.8186   25.3228 C   0  0  0  0  0  0  0  0  0  0  0  0
    7.8509  -12.8427   26.8011 S   0  0  0  0  0  0  0  0  0  0  0  0
    9.3093  -15.3414   25.9710 C   0  0  0  0  0  0  0  0  0  0  0  0
    8.5953  -16.2671   26.4008 O   0  0  0  0  0  0  0  0  0  0  0  0
   10.5707  -15.1368   26.6220 N   0  0  0  0  0  0  0  0  0  0  0  0
   11.0252  -15.9441   27.7100 C   0  0  1  0  0  0  0  0  0  0  0  0
   12.5323  -16.0307   27.6649 C   0  0  0  0  0  0  0  0  0  0  0  0
   13.0115  -16.2839   26.3032 C   0  0  0  0  0  0  0  0  0  0  0  0
   12.6689  -17.2897   25.6743 O   0  0  0  0  0  0  0  0  0  0  0  0
   10.6490  -15.4116   29.0303 C   0  0  0  0  0  0  0  0  0  0  0  0
   10.9777  -16.1344   30.1631 O   0  0  0  0  0  0  0  0  0  0  0  0
   13.8790  -15.3840   25.6721 O   0  0  0  0  0  0  0  0  0  0  0  0
   10.0371  -14.3225   29.1819 O   0  0  0  0  0  0  0  0  0  0  0  0
  2  1  1  6
  3  4  1  0
  3  2  1  0
  4  5  1  0
  5  6  2  0
  5  9  1  0
  7  8  2  0
  7  2  1  0
 10  7  1  0
 11 10  1  0
 11 14  1  0
 11 12  1  1
 13 12  1  0
 14 16  1  0
 15 14  2  0
 16 17  1  0
 17 21  1  0
 17 18  1  1
 19 18  1  0
 20 19  2  0
 21 24  2  0
 21 22  1  0
 23 19  1  0
M  END
$$$$
