ECD.pdb
     RDKit          3D

 24 23  0  0  1  0  0  0  0  0999 V2000
    8.0921  -14.3367   20.2979 N   0  0  0  0  0  0  0  0  0  0  0  0
    7.2278  -14.7816   21.4157 C   0  0  1  0  0  0  0  0  0  0  0  0
    6.9354  -16.2505   21.2508 C   0  0  0  0  0  0  0  0  0  0  0  0
    7.2584  -16.7125   19.8667 C   0  0  0  0  0  0  0  0  0  0  0  0
    6.8656  -18.1343   19.6457 C   0  0  0  0  0  0  0  0  0  0  0  0
    7.0385  -18.6606   18.5090 O   0  0  0  0  0  0  0  0  0  0  0  0
    7.9387  -14.4290   22.6577 C   0  0  0  0  0  0  0  0  0  0  0  0
    9.2096  -14.4452   22.6798 O   0  0  0  0  0  0  0  0  0  0  0  0
    6.3109  -18.9444   20.6180 O   0  0  0  0  0  0  0  0  0  0  0  0
    7.3262  -14.0554   23.8799 N   0  0  0  0  0  0  0  0  0  0  0  0
    8.1219  -13.6564   25.0450 C   0  0  1  0  0  0  0  0  0  0  0  0
    7.1848  -12.9730   26.0549 C   0  0  0  0  0  0  0  0  0  0  0  0
    8.0388  -12.5603   27.5766 S   0  0  0  0  0  0  0  0  0  0  0  0
    8.5700  -14.8999   25.7052 C   0  0  0  0  0  0  0  0  0  0  0  0
    7.7751  -15.8349   25.9180 O   0  0  0  0  0  0  0  0  0  0  0  0
    9.9269  -15.0905   26.1287 N   0  0  0  0  0  0  0  0  0  0  0  0
   10.3814  -16.2828   26.7722 C   0  0  1  0  0  0  0  0  0  0  0  0
   11.8345  -16.5070   26.4274 C   0  0  0  0  0  0  0  0  0  0  0  0
   12.0413  -17.8244   25.8193 C   0  0  0  0  0  0  0  0  0  0  0  0
   11.1242  -18.6465   25.7314 O   0  0  0  0  0  0  0  0  0  0  0  0
   10.2746  -16.2322   28.2400 C   0  0  0  0  0  0  0  0  0  0  0  0
   10.2692  -17.4177   28.9529 O   0  0  0  0  0  0  0  0  0  0  0  0
   13.2960  -18.1905   25.3170 O   0  0  0  0  0  0  0  0  0  0  0  0
   10.1861  -15.1553   28.8848 O   0  0  0  0  0  0  0  0  0  0  0  0
  2  1  1  6
  3  4  1  0
  3  2  1  0
  4  5  1  0
  5  6  2  0
  5  9  1  0
  7  8  2  0
  7  2  1  0
 10  7  1  0
 11 10  1  0
 11 14  1  0
 11 12  1  1
 13 12  1  0
 14 16  1  0
 15 14  2  0
 16 17  1  0
 17 21  1  0
 17 18  1  1
 19 18  1  0
 20 19  2  0
 21 24  2  0
 21 22  1  0
 23 19  1  0
M  END
$$$$
