ECD.pdb
     RDKit          3D

 24 23  0  0  1  0  0  0  0  0999 V2000
    8.1116  -12.7207   18.6742 N   0  0  0  0  0  0  0  0  0  0  0  0
    7.7272  -13.9742   19.3638 C   0  0  1  0  0  0  0  0  0  0  0  0
    8.2792  -15.1443   18.5914 C   0  0  0  0  0  0  0  0  0  0  0  0
    7.6505  -15.2426   17.2391 C   0  0  0  0  0  0  0  0  0  0  0  0
    8.1078  -16.4525   16.4963 C   0  0  0  0  0  0  0  0  0  0  0  0
    7.4867  -17.5447   16.6390 O   0  0  0  0  0  0  0  0  0  0  0  0
    8.2233  -13.8578   20.7467 C   0  0  0  0  0  0  0  0  0  0  0  0
    9.3310  -13.2751   20.9693 O   0  0  0  0  0  0  0  0  0  0  0  0
    9.1907  -16.4710   15.6382 O   0  0  0  0  0  0  0  0  0  0  0  0
    7.5641  -14.3462   21.9023 N   0  0  0  0  0  0  0  0  0  0  0  0
    8.1274  -14.1575   23.2428 C   0  0  1  0  0  0  0  0  0  0  0  0
    6.9806  -13.7842   24.1971 C   0  0  0  0  0  0  0  0  0  0  0  0
    7.5425  -13.6732   25.8962 S   0  0  0  0  0  0  0  0  0  0  0  0
    8.6023  -15.4802   23.6990 C   0  0  0  0  0  0  0  0  0  0  0  0
    7.8675  -16.4836   23.6305 O   0  0  0  0  0  0  0  0  0  0  0  0
    9.9177  -15.6726   24.2370 N   0  0  0  0  0  0  0  0  0  0  0  0
   10.3919  -16.9387   24.6999 C   0  0  1  0  0  0  0  0  0  0  0  0
   11.9021  -16.9334   24.6922 C   0  0  0  0  0  0  0  0  0  0  0  0
   12.4277  -16.6508   23.3536 C   0  0  0  0  0  0  0  0  0  0  0  0
   11.9126  -17.1358   22.3416 O   0  0  0  0  0  0  0  0  0  0  0  0
    9.9545  -17.2623   26.0682 C   0  0  0  0  0  0  0  0  0  0  0  0
   10.3125  -18.4812   26.6158 O   0  0  0  0  0  0  0  0  0  0  0  0
   13.5388  -15.8158   23.1839 O   0  0  0  0  0  0  0  0  0  0  0  0
    9.2644  -16.4794   26.7712 O   0  0  0  0  0  0  0  0  0  0  0  0
  2  1  1  6
  3  4  1  0
  3  2  1  0
  4  5  1  0
  5  6  2  0
  5  9  1  0
  7  8  2  0
  7  2  1  0
 10  7  1  0
 11 10  1  0
 11 14  1  0
 11 12  1  1
 13 12  1  0
 14 16  1  0
 15 14  2  0
 16 17  1  0
 17 21  1  0
 17 18  1  1
 19 18  1  0
 20 19  2  0
 21 24  2  0
 21 22  1  0
 23 19  1  0
M  END
$$$$
