ECD.pdb
     RDKit          3D

 24 23  0  0  1  0  0  0  0  0999 V2000
    7.4609  -13.8973   19.7487 N   0  0  0  0  0  0  0  0  0  0  0  0
    6.9630  -14.6740   20.9077 C   0  0  1  0  0  0  0  0  0  0  0  0
    7.2119  -16.1386   20.6560 C   0  0  0  0  0  0  0  0  0  0  0  0
    6.7078  -16.5476   19.3099 C   0  0  0  0  0  0  0  0  0  0  0  0
    6.4041  -18.0065   19.2459 C   0  0  0  0  0  0  0  0  0  0  0  0
    7.3235  -18.8461   19.4668 O   0  0  0  0  0  0  0  0  0  0  0  0
    7.6408  -14.1279   22.0971 C   0  0  0  0  0  0  0  0  0  0  0  0
    8.8987  -13.9460   22.0746 O   0  0  0  0  0  0  0  0  0  0  0  0
    5.1569  -18.5257   18.9554 O   0  0  0  0  0  0  0  0  0  0  0  0
    7.0081  -13.7671   23.3128 N   0  0  0  0  0  0  0  0  0  0  0  0
    7.7768  -13.5581   24.5438 C   0  0  1  0  0  0  0  0  0  0  0  0
    6.8055  -13.0980   25.6439 C   0  0  0  0  0  0  0  0  0  0  0  0
    7.6306  -12.9265   27.2265 S   0  0  0  0  0  0  0  0  0  0  0  0
    8.2611  -14.8847   24.9781 C   0  0  0  0  0  0  0  0  0  0  0  0
    7.5328  -15.8918   24.8945 O   0  0  0  0  0  0  0  0  0  0  0  0
    9.5786  -15.0771   25.5110 N   0  0  0  0  0  0  0  0  0  0  0  0
   10.0782  -16.3553   25.9094 C   0  0  1  0  0  0  0  0  0  0  0  0
   11.4424  -16.5654   25.2965 C   0  0  0  0  0  0  0  0  0  0  0  0
   11.9878  -17.8798   25.6468 C   0  0  0  0  0  0  0  0  0  0  0  0
   12.9774  -17.9952   26.3762 O   0  0  0  0  0  0  0  0  0  0  0  0
   10.2182  -16.4996   27.3681 C   0  0  0  0  0  0  0  0  0  0  0  0
   10.2028  -17.7677   27.9208 O   0  0  0  0  0  0  0  0  0  0  0  0
   11.3965  -19.0517   25.1594 O   0  0  0  0  0  0  0  0  0  0  0  0
   10.3516  -15.5187   28.1450 O   0  0  0  0  0  0  0  0  0  0  0  0
  2  1  1  6
  3  4  1  0
  3  2  1  0
  4  5  1  0
  5  6  2  0
  5  9  1  0
  7  8  2  0
  7  2  1  0
 10  7  1  0
 11 10  1  0
 11 14  1  0
 11 12  1  1
 13 12  1  0
 14 16  1  0
 15 14  2  0
 16 17  1  0
 17 21  1  0
 17 18  1  6
 19 18  1  0
 20 19  2  0
 21 24  2  0
 21 22  1  0
 23 19  1  0
M  END
$$$$
