ECD.pdb
     RDKit          3D

 24 23  0  0  1  0  0  0  0  0999 V2000
    7.1201  -15.8109   21.6133 N   0  0  0  0  0  0  0  0  0  0  0  0
    8.3393  -14.9795   21.4832 C   0  0  1  0  0  0  0  0  0  0  0  0
    8.1776  -14.0591   20.3012 C   0  0  0  0  0  0  0  0  0  0  0  0
    7.1379  -14.5709   19.3575 C   0  0  0  0  0  0  0  0  0  0  0  0
    7.7297  -15.4050   18.2720 C   0  0  0  0  0  0  0  0  0  0  0  0
    7.6021  -16.6625   18.3105 O   0  0  0  0  0  0  0  0  0  0  0  0
    8.5182  -14.2972   22.7773 C   0  0  0  0  0  0  0  0  0  0  0  0
    9.4409  -13.4328   22.9089 O   0  0  0  0  0  0  0  0  0  0  0  0
    8.4274  -14.8927   17.1949 O   0  0  0  0  0  0  0  0  0  0  0  0
    7.7332  -14.5123   23.9374 N   0  0  0  0  0  0  0  0  0  0  0  0
    8.0065  -13.8009   25.1901 C   0  0  1  0  0  0  0  0  0  0  0  0
    6.6624  -13.4983   25.8733 C   0  0  0  0  0  0  0  0  0  0  0  0
    6.8833  -12.5474   27.3774 S   0  0  0  0  0  0  0  0  0  0  0  0
    8.6950  -14.7547   26.0841 C   0  0  0  0  0  0  0  0  0  0  0  0
    9.0027  -14.4346   27.2479 O   0  0  0  0  0  0  0  0  0  0  0  0
    9.0392  -16.0813   25.6617 N   0  0  0  0  0  0  0  0  0  0  0  0
    9.6298  -17.0472   26.5336 C   0  0  1  0  0  0  0  0  0  0  0  0
   11.0173  -17.3777   26.0373 C   0  0  0  0  0  0  0  0  0  0  0  0
   10.9804  -17.9347   24.6821 C   0  0  0  0  0  0  0  0  0  0  0  0
   11.9695  -17.9039   23.9437 O   0  0  0  0  0  0  0  0  0  0  0  0
    9.7538  -16.5807   27.9248 C   0  0  0  0  0  0  0  0  0  0  0  0
   10.3780  -17.3958   28.8520 O   0  0  0  0  0  0  0  0  0  0  0  0
    9.8116  -18.5221   24.1826 O   0  0  0  0  0  0  0  0  0  0  0  0
    9.3159  -15.4681   28.3170 O   0  0  0  0  0  0  0  0  0  0  0  0
  2  1  1  1
  3  4  1  0
  3  2  1  0
  4  5  1  0
  5  6  2  0
  5  9  1  0
  7  8  2  0
  7  2  1  0
 10  7  1  0
 11 10  1  0
 11 14  1  0
 11 12  1  1
 13 12  1  0
 14 16  1  0
 15 14  2  0
 16 17  1  0
 17 21  1  0
 17 18  1  6
 19 18  1  0
 20 19  2  0
 21 24  2  0
 21 22  1  0
 23 19  1  0
M  END
$$$$
