ECD.pdb
     RDKit          3D

 24 23  0  0  1  0  0  0  0  0999 V2000
    6.3890  -17.8649   19.0168 N   0  0  0  0  0  0  0  0  0  0  0  0
    7.8059  -18.2680   18.8607 C   0  0  1  0  0  0  0  0  0  0  0  0
    8.1561  -18.2604   17.3952 C   0  0  0  0  0  0  0  0  0  0  0  0
    7.8148  -16.9485   16.7661 C   0  0  0  0  0  0  0  0  0  0  0  0
    8.2620  -16.8765   15.3450 C   0  0  0  0  0  0  0  0  0  0  0  0
    8.1687  -17.9000   14.6083 O   0  0  0  0  0  0  0  0  0  0  0  0
    8.5965  -17.3404   19.6895 C   0  0  0  0  0  0  0  0  0  0  0  0
    9.8635  -17.4409   19.7097 O   0  0  0  0  0  0  0  0  0  0  0  0
    8.7858  -15.7423   14.7546 O   0  0  0  0  0  0  0  0  0  0  0  0
    8.0680  -16.3031   20.4976 N   0  0  0  0  0  0  0  0  0  0  0  0
    8.9312  -15.4847   21.3549 C   0  0  1  0  0  0  0  0  0  0  0  0
    8.0379  -14.5255   22.1595 C   0  0  0  0  0  0  0  0  0  0  0  0
    6.8894  -15.4151   23.2106 S   0  0  0  0  0  0  0  0  0  0  0  0
    9.5300  -16.3937   22.3540 C   0  0  0  0  0  0  0  0  0  0  0  0
    8.9007  -17.3797   22.7820 O   0  0  0  0  0  0  0  0  0  0  0  0
   10.8506  -16.1889   22.8746 N   0  0  0  0  0  0  0  0  0  0  0  0
   11.4806  -17.0984   23.7790 C   0  0  1  0  0  0  0  0  0  0  0  0
   12.8126  -17.5212   23.2064 C   0  0  0  0  0  0  0  0  0  0  0  0
   13.5938  -16.3634   22.7622 C   0  0  0  0  0  0  0  0  0  0  0  0
   13.6923  -16.0706   21.5667 O   0  0  0  0  0  0  0  0  0  0  0  0
   11.7312  -16.5202   25.1098 C   0  0  0  0  0  0  0  0  0  0  0  0
   11.3753  -15.2046   25.3470 O   0  0  0  0  0  0  0  0  0  0  0  0
   14.2563  -15.5501   23.6897 O   0  0  0  0  0  0  0  0  0  0  0  0
   12.2587  -17.1678   26.0510 O   0  0  0  0  0  0  0  0  0  0  0  0
  2  1  1  6
  3  4  1  0
  3  2  1  0
  4  5  1  0
  5  6  2  0
  5  9  1  0
  7  8  2  0
  7  2  1  0
 10  7  1  0
 11 10  1  0
 11 14  1  0
 11 12  1  1
 13 12  1  0
 14 16  1  0
 15 14  2  0
 16 17  1  0
 17 21  1  0
 17 18  1  6
 19 18  1  0
 20 19  2  0
 21 24  2  0
 21 22  1  0
 23 19  1  0
M  END
$$$$
