ECD.pdb
     RDKit          3D

 24 23  0  0  1  0  0  0  0  0999 V2000
    7.9007  -12.8195   19.6777 N   0  0  0  0  0  0  0  0  0  0  0  0
    7.4318  -13.9426   20.5224 C   0  0  1  0  0  0  0  0  0  0  0  0
    7.9497  -15.2349   19.9462 C   0  0  0  0  0  0  0  0  0  0  0  0
    7.1757  -15.6321   18.7311 C   0  0  0  0  0  0  0  0  0  0  0  0
    7.5486  -16.9940   18.2508 C   0  0  0  0  0  0  0  0  0  0  0  0
    8.3133  -17.7161   18.9528 O   0  0  0  0  0  0  0  0  0  0  0  0
    7.8876  -13.6510   21.8934 C   0  0  0  0  0  0  0  0  0  0  0  0
    9.1041  -13.3448   22.0986 O   0  0  0  0  0  0  0  0  0  0  0  0
    7.1083  -17.5432   17.0618 O   0  0  0  0  0  0  0  0  0  0  0  0
    7.0751  -13.6751   23.0542 N   0  0  0  0  0  0  0  0  0  0  0  0
    7.6479  -13.5097   24.3938 C   0  0  1  0  0  0  0  0  0  0  0  0
    6.5361  -13.0131   25.3332 C   0  0  0  0  0  0  0  0  0  0  0  0
    7.1030  -12.9044   27.0308 S   0  0  0  0  0  0  0  0  0  0  0  0
    7.9985  -14.8599   24.8806 C   0  0  0  0  0  0  0  0  0  0  0  0
    7.1896  -15.8030   24.7928 O   0  0  0  0  0  0  0  0  0  0  0  0
    9.2729  -15.1489   25.4714 N   0  0  0  0  0  0  0  0  0  0  0  0
    9.6235  -16.4402   25.9731 C   0  0  1  0  0  0  0  0  0  0  0  0
   10.8748  -16.9182   25.2755 C   0  0  0  0  0  0  0  0  0  0  0  0
   10.7555  -18.3210   24.8681 C   0  0  0  0  0  0  0  0  0  0  0  0
    9.7579  -18.9926   25.1483 O   0  0  0  0  0  0  0  0  0  0  0  0
    9.8889  -16.4525   27.4215 C   0  0  0  0  0  0  0  0  0  0  0  0
    9.9260  -15.2511   28.1064 O   0  0  0  0  0  0  0  0  0  0  0  0
   11.7790  -18.9442   24.1436 O   0  0  0  0  0  0  0  0  0  0  0  0
   10.0865  -17.5102   28.0739 O   0  0  0  0  0  0  0  0  0  0  0  0
  2  1  1  6
  3  4  1  0
  3  2  1  0
  4  5  1  0
  5  6  2  0
  5  9  1  0
  7  8  2  0
  7  2  1  0
 10  7  1  0
 11 10  1  0
 11 14  1  0
 11 12  1  1
 13 12  1  0
 14 16  1  0
 15 14  2  0
 16 17  1  0
 17 21  1  0
 17 18  1  6
 19 18  1  0
 20 19  2  0
 21 24  2  0
 21 22  1  0
 23 19  1  0
M  END
$$$$
