ECD.pdb
     RDKit          3D

 24 23  0  0  1  0  0  0  0  0999 V2000
    6.7777  -15.9877   21.5596 N   0  0  0  0  0  0  0  0  0  0  0  0
    8.2544  -15.8707   21.5501 C   0  0  1  0  0  0  0  0  0  0  0  0
    8.6851  -15.2412   20.2506 C   0  0  0  0  0  0  0  0  0  0  0  0
    7.6181  -15.3655   19.2116 C   0  0  0  0  0  0  0  0  0  0  0  0
    8.0815  -16.1394   18.0238 C   0  0  0  0  0  0  0  0  0  0  0  0
    9.0961  -15.7465   17.3794 O   0  0  0  0  0  0  0  0  0  0  0  0
    8.6194  -15.1074   22.7570 C   0  0  0  0  0  0  0  0  0  0  0  0
    9.8179  -14.7129   22.9116 O   0  0  0  0  0  0  0  0  0  0  0  0
    7.4683  -17.2877   17.5605 O   0  0  0  0  0  0  0  0  0  0  0  0
    7.7347  -14.7507   23.8050 N   0  0  0  0  0  0  0  0  0  0  0  0
    8.2079  -14.0458   25.0005 C   0  0  1  0  0  0  0  0  0  0  0  0
    6.9972  -13.3797   25.6756 C   0  0  0  0  0  0  0  0  0  0  0  0
    7.4318  -12.6713   27.2644 S   0  0  0  0  0  0  0  0  0  0  0  0
    8.6695  -15.0771   25.9524 C   0  0  0  0  0  0  0  0  0  0  0  0
    7.9104  -15.9919   26.3242 O   0  0  0  0  0  0  0  0  0  0  0  0
    9.9993  -15.0766   26.4896 N   0  0  0  0  0  0  0  0  0  0  0  0
   10.4260  -15.9786   27.5125 C   0  0  1  0  0  0  0  0  0  0  0  0
   11.8708  -16.3481   27.2741 C   0  0  0  0  0  0  0  0  0  0  0  0
   12.0171  -17.1858   26.0804 C   0  0  0  0  0  0  0  0  0  0  0  0
   11.0424  -17.5102   25.3953 O   0  0  0  0  0  0  0  0  0  0  0  0
   10.3289  -15.4130   28.8686 C   0  0  0  0  0  0  0  0  0  0  0  0
   10.4763  -16.2534   29.9575 O   0  0  0  0  0  0  0  0  0  0  0  0
   13.2777  -17.6458   25.6805 O   0  0  0  0  0  0  0  0  0  0  0  0
   10.1156  -14.1927   29.0894 O   0  0  0  0  0  0  0  0  0  0  0  0
  2  1  1  6
  3  4  1  0
  3  2  1  0
  4  5  1  0
  5  6  2  0
  5  9  1  0
  7  8  2  0
  7  2  1  0
 10  7  1  0
 11 10  1  0
 11 14  1  0
 11 12  1  1
 13 12  1  0
 14 16  1  0
 15 14  2  0
 16 17  1  0
 17 21  1  0
 17 18  1  6
 19 18  1  0
 20 19  2  0
 21 24  2  0
 21 22  1  0
 23 19  1  0
M  END
$$$$
