ECD.pdb
     RDKit          3D

 24 23  0  0  1  0  0  0  0  0999 V2000
    6.6735  -16.2108   17.7507 N   0  0  0  0  0  0  0  0  0  0  0  0
    7.8212  -16.9894   18.2715 C   0  0  1  0  0  0  0  0  0  0  0  0
    8.6630  -17.4520   17.1106 C   0  0  0  0  0  0  0  0  0  0  0  0
    7.8342  -18.1720   16.0966 C   0  0  0  0  0  0  0  0  0  0  0  0
    8.6498  -18.6426   14.9398 C   0  0  0  0  0  0  0  0  0  0  0  0
    8.9523  -19.8668   14.8459 O   0  0  0  0  0  0  0  0  0  0  0  0
    8.5185  -16.1131   19.2296 C   0  0  0  0  0  0  0  0  0  0  0  0
    9.5020  -15.4102   18.8365 O   0  0  0  0  0  0  0  0  0  0  0  0
    9.1132  -17.8178   13.9327 O   0  0  0  0  0  0  0  0  0  0  0  0
    8.1902  -15.9650   20.6003 N   0  0  0  0  0  0  0  0  0  0  0  0
    9.1169  -15.3354   21.5462 C   0  0  1  0  0  0  0  0  0  0  0  0
    8.3012  -14.4377   22.4917 C   0  0  0  0  0  0  0  0  0  0  0  0
    6.7675  -15.2217   22.9901 S   0  0  0  0  0  0  0  0  0  0  0  0
    9.6581  -16.4137   22.3992 C   0  0  0  0  0  0  0  0  0  0  0  0
    9.1020  -17.5268   22.4551 O   0  0  0  0  0  0  0  0  0  0  0  0
   10.8371  -16.2347   23.1959 N   0  0  0  0  0  0  0  0  0  0  0  0
   11.4161  -17.2829   23.9756 C   0  0  1  0  0  0  0  0  0  0  0  0
   12.8603  -17.4598   23.5707 C   0  0  0  0  0  0  0  0  0  0  0  0
   13.5138  -18.5021   24.3673 C   0  0  0  0  0  0  0  0  0  0  0  0
   12.9041  -19.5101   24.7372 O   0  0  0  0  0  0  0  0  0  0  0  0
   11.3890  -17.0178   25.4238 C   0  0  0  0  0  0  0  0  0  0  0  0
   11.0070  -15.7648   25.8688 O   0  0  0  0  0  0  0  0  0  0  0  0
   14.8597  -18.3824   24.7344 O   0  0  0  0  0  0  0  0  0  0  0  0
   11.6995  -17.8808   26.2854 O   0  0  0  0  0  0  0  0  0  0  0  0
  2  1  1  6
  3  4  1  0
  3  2  1  0
  4  5  1  0
  5  6  2  0
  5  9  1  0
  7  8  2  0
  7  2  1  0
 10  7  1  0
 11 10  1  0
 11 14  1  0
 11 12  1  1
 13 12  1  0
 14 16  1  0
 15 14  2  0
 16 17  1  0
 17 21  1  0
 17 18  1  6
 19 18  1  0
 20 19  2  0
 21 24  2  0
 21 22  1  0
 23 19  1  0
M  END
$$$$
