ECD.pdb
     RDKit          3D

 24 23  0  0  1  0  0  0  0  0999 V2000
    7.1747  -13.7461   14.4186 N   0  0  0  0  0  0  0  0  0  0  0  0
    7.9961  -14.7740   15.0991 C   0  0  1  0  0  0  0  0  0  0  0  0
    8.9057  -15.4199   14.0863 C   0  0  0  0  0  0  0  0  0  0  0  0
    8.6839  -16.8967   14.0267 C   0  0  0  0  0  0  0  0  0  0  0  0
    9.5492  -17.5513   13.0033 C   0  0  0  0  0  0  0  0  0  0  0  0
   10.6801  -17.0550   12.7318 O   0  0  0  0  0  0  0  0  0  0  0  0
    8.6900  -14.0883   16.2039 C   0  0  0  0  0  0  0  0  0  0  0  0
    9.4397  -13.0929   15.9526 O   0  0  0  0  0  0  0  0  0  0  0  0
    9.1985  -18.6933   12.3088 O   0  0  0  0  0  0  0  0  0  0  0  0
    8.6019  -14.4369   17.5747 N   0  0  0  0  0  0  0  0  0  0  0  0
    9.3577  -13.7107   18.6000 C   0  0  1  0  0  0  0  0  0  0  0  0
    8.3789  -13.2873   19.7080 C   0  0  0  0  0  0  0  0  0  0  0  0
    7.2765  -14.6258   20.1646 S   0  0  0  0  0  0  0  0  0  0  0  0
   10.2688  -14.6863   19.2333 C   0  0  0  0  0  0  0  0  0  0  0  0
   10.0070  -15.9040   19.2293 O   0  0  0  0  0  0  0  0  0  0  0  0
   11.4861  -14.2847   19.8765 N   0  0  0  0  0  0  0  0  0  0  0  0
   12.3835  -15.2108   20.4921 C   0  0  1  0  0  0  0  0  0  0  0  0
   13.7680  -14.6084   20.5269 C   0  0  0  0  0  0  0  0  0  0  0  0
   14.3148  -14.4500   19.1763 C   0  0  0  0  0  0  0  0  0  0  0  0
   14.1527  -15.3132   18.3084 O   0  0  0  0  0  0  0  0  0  0  0  0
   12.0122  -15.5537   21.8752 C   0  0  0  0  0  0  0  0  0  0  0  0
   10.9434  -14.9015   22.4635 O   0  0  0  0  0  0  0  0  0  0  0  0
   15.0430  -13.3053   18.8300 O   0  0  0  0  0  0  0  0  0  0  0  0
   12.6240  -16.4172   22.5560 O   0  0  0  0  0  0  0  0  0  0  0  0
  2  1  1  6
  3  4  1  0
  3  2  1  0
  4  5  1  0
  5  6  2  0
  5  9  1  0
  7  8  2  0
  7  2  1  0
 10  7  1  0
 11 10  1  0
 11 14  1  0
 11 12  1  1
 13 12  1  0
 14 16  1  0
 15 14  2  0
 16 17  1  0
 17 21  1  0
 17 18  1  1
 19 18  1  0
 20 19  2  0
 21 24  2  0
 21 22  1  0
 23 19  1  0
M  END
$$$$
