ECD.pdb
     RDKit          3D

 24 23  0  0  1  0  0  0  0  0999 V2000
    8.2533  -18.0363   18.9336 N   0  0  0  0  0  0  0  0  0  0  0  0
    9.6653  -17.6240   19.1088 C   0  0  1  0  0  0  0  0  0  0  0  0
   10.1774  -17.0722   17.8035 C   0  0  0  0  0  0  0  0  0  0  0  0
    9.0502  -16.6555   16.9150 C   0  0  0  0  0  0  0  0  0  0  0  0
    9.2762  -17.0609   15.4975 C   0  0  0  0  0  0  0  0  0  0  0  0
    8.3097  -17.0464   14.6822 O   0  0  0  0  0  0  0  0  0  0  0  0
    9.6844  -16.6702   20.2324 C   0  0  0  0  0  0  0  0  0  0  0  0
   10.7879  -16.1612   20.6050 O   0  0  0  0  0  0  0  0  0  0  0  0
   10.4980  -17.4625   14.9924 O   0  0  0  0  0  0  0  0  0  0  0  0
    8.5518  -16.2423   20.9689 N   0  0  0  0  0  0  0  0  0  0  0  0
    8.6901  -15.5637   22.2613 C   0  0  1  0  0  0  0  0  0  0  0  0
    7.3309  -14.9432   22.6255 C   0  0  0  0  0  0  0  0  0  0  0  0
    7.4130  -14.0248   24.1634 S   0  0  0  0  0  0  0  0  0  0  0  0
    8.9262  -16.6131   23.2742 C   0  0  0  0  0  0  0  0  0  0  0  0
    8.7842  -17.8183   22.9935 O   0  0  0  0  0  0  0  0  0  0  0  0
    9.3261  -16.3003   24.6154 N   0  0  0  0  0  0  0  0  0  0  0  0
   10.2157  -17.1219   25.3742 C   0  0  1  0  0  0  0  0  0  0  0  0
   11.5242  -17.2504   24.6311 C   0  0  0  0  0  0  0  0  0  0  0  0
   12.0618  -18.6104   24.7290 C   0  0  0  0  0  0  0  0  0  0  0  0
   11.3239  -19.6001   24.7045 O   0  0  0  0  0  0  0  0  0  0  0  0
   10.5139  -16.5815   26.7111 C   0  0  0  0  0  0  0  0  0  0  0  0
   10.7681  -17.4609   27.7482 O   0  0  0  0  0  0  0  0  0  0  0  0
   13.4395  -18.8269   24.8543 O   0  0  0  0  0  0  0  0  0  0  0  0
   10.5486  -15.3486   26.9607 O   0  0  0  0  0  0  0  0  0  0  0  0
  2  1  1  6
  3  4  1  0
  3  2  1  0
  4  5  1  0
  5  6  2  0
  5  9  1  0
  7  8  2  0
  7  2  1  0
 10  7  1  0
 11 10  1  0
 11 14  1  0
 11 12  1  1
 13 12  1  0
 14 16  1  0
 15 14  2  0
 16 17  1  0
 17 21  1  0
 17 18  1  6
 19 18  1  0
 20 19  2  0
 21 24  2  0
 21 22  1  0
 23 19  1  0
M  END
$$$$
