NLT.pdb
     RDKit          3D

 24 23  0  0  1  0  0  0  0  0999 V2000
   14.7952  -11.4965  -16.3913 N   0  0  0  0  0  0  0  0  0  0  0  0
   15.2328  -12.2157  -15.2479 C   0  0  0  0  0  0  0  0  0  0  0  0
   14.5007  -13.0629  -14.7055 O   0  0  0  0  0  0  0  0  0  0  0  0
   16.5991  -11.9195  -14.7216 C   0  0  0  0  0  0  0  0  0  0  0  0
   17.1932  -10.8138  -15.5466 C   0  0  2  0  0  0  0  0  0  0  0  0
   17.4489  -11.2795  -16.8943 N   0  0  0  0  0  0  0  0  0  0  0  0
   18.3896  -10.2097  -14.9647 C   0  0  0  0  0  0  0  0  0  0  0  0
   18.2813   -9.6541  -13.8276 O   0  0  0  0  0  0  0  0  0  0  0  0
   24.4459  -10.5962  -15.8660 C   0  0  0  0  0  0  0  0  0  0  0  0
   23.3687   -9.9520  -15.0656 C   0  0  2  0  0  0  0  0  0  0  0  0
   23.6446  -10.2948  -13.5857 C   0  0  0  0  0  0  0  0  0  0  0  0
   21.9854  -10.3070  -15.3888 C   0  0  0  0  0  0  0  0  0  0  0  0
   20.8317   -9.4953  -14.9225 C   0  0  2  0  0  0  0  0  0  0  0  0
   19.6583  -10.1855  -15.5496 N   0  0  0  0  0  0  0  0  0  0  0  0
   20.8431   -8.0936  -15.3642 C   0  0  0  0  0  0  0  0  0  0  0  0
   21.6844   -7.2593  -14.9281 O   0  0  0  0  0  0  0  0  0  0  0  0
   19.6225   -4.5827  -18.5730 C   0  0  0  0  0  0  0  0  0  0  0  0
   19.5066   -6.0137  -18.1598 C   0  0  1  0  0  0  0  0  0  0  0  0
   20.3864   -6.7593  -18.9719 O   0  0  0  0  0  0  0  0  0  0  0  0
   19.9629   -6.2358  -16.7337 C   0  0  2  0  0  0  0  0  0  0  0  0
   19.8828   -7.5987  -16.3273 N   0  0  0  0  0  0  0  0  0  0  0  0
   19.1693   -5.3915  -15.8099 C   0  0  0  0  0  0  0  0  0  0  0  0
   17.9858   -5.6792  -15.4987 O   0  0  0  0  0  0  0  0  0  0  0  0
   19.7470   -4.2577  -15.2771 O   0  0  0  0  0  0  0  0  0  0  0  0
  1  2  1  0
  2  3  2  0
  4  2  1  0
  4  5  1  0
  5  6  1  6
  7  5  1  0
  7  8  2  0
 10  9  1  6
 10 11  1  0
 10 12  1  0
 13 12  1  6
 13 14  1  0
 14  7  1  0
 15 13  1  0
 16 15  2  0
 18 17  1  6
 19 18  1  0
 20 18  1  0
 20 21  1  1
 21 15  1  0
 22 24  1  0
 22 20  1  0
 23 22  2  0
M  END
$$$$
