NLT.pdb
     RDKit          3D

 24 23  0  0  1  0  0  0  0  0999 V2000
   16.4249   -9.9868  -18.4016 N   0  0  0  0  0  0  0  0  0  0  0  0
   17.8319  -10.0584  -18.5783 C   0  0  0  0  0  0  0  0  0  0  0  0
   18.3243  -10.3598  -19.6804 O   0  0  0  0  0  0  0  0  0  0  0  0
   18.6967   -9.7600  -17.3974 C   0  0  0  0  0  0  0  0  0  0  0  0
   19.8116  -10.7660  -17.3628 C   0  0  2  0  0  0  0  0  0  0  0  0
   19.2859  -12.0830  -17.0670 N   0  0  0  0  0  0  0  0  0  0  0  0
   20.9015  -10.4200  -16.4532 C   0  0  0  0  0  0  0  0  0  0  0  0
   20.6795  -10.4944  -15.2048 O   0  0  0  0  0  0  0  0  0  0  0  0
   27.0082  -10.1135  -16.6963 C   0  0  0  0  0  0  0  0  0  0  0  0
   25.8012   -9.8550  -15.8645 C   0  0  2  0  0  0  0  0  0  0  0  0
   25.8922  -10.7913  -14.6403 C   0  0  0  0  0  0  0  0  0  0  0  0
   24.4943  -10.0272  -16.5020 C   0  0  0  0  0  0  0  0  0  0  0  0
   23.2323   -9.5984  -15.8457 C   0  0  2  0  0  0  0  0  0  0  0  0
   22.1821  -10.0097  -16.8329 N   0  0  0  0  0  0  0  0  0  0  0  0
   23.1169   -8.1519  -15.6129 C   0  0  0  0  0  0  0  0  0  0  0  0
   23.6814   -7.5820  -14.6377 O   0  0  0  0  0  0  0  0  0  0  0  0
   23.5710   -5.3891  -18.4164 C   0  0  0  0  0  0  0  0  0  0  0  0
   22.3678   -5.1046  -17.5779 C   0  0  1  0  0  0  0  0  0  0  0  0
   21.2377   -5.5397  -18.3012 O   0  0  0  0  0  0  0  0  0  0  0  0
   22.3697   -5.8963  -16.2877 C   0  0  2  0  0  0  0  0  0  0  0  0
   22.3445   -7.3051  -16.4965 N   0  0  0  0  0  0  0  0  0  0  0  0
   21.2186   -5.4954  -15.4449 C   0  0  0  0  0  0  0  0  0  0  0  0
   20.2933   -6.2974  -15.1599 O   0  0  0  0  0  0  0  0  0  0  0  0
   21.1619   -4.2052  -14.9600 O   0  0  0  0  0  0  0  0  0  0  0  0
  1  2  1  0
  2  3  2  0
  4  2  1  0
  4  5  1  0
  5  6  1  1
  7  5  1  0
  7  8  2  0
 10  9  1  6
 10 11  1  0
 10 12  1  0
 13 12  1  6
 13 14  1  0
 14  7  1  0
 15 13  1  0
 16 15  2  0
 18 17  1  6
 19 18  1  0
 20 18  1  0
 20 21  1  6
 21 15  1  0
 22 24  1  0
 22 20  1  0
 23 22  2  0
M  END
$$$$
