NLT.pdb
     RDKit          3D

 24 23  0  0  1  0  0  0  0  0999 V2000
   18.6998  -22.6781  -14.6949 N   0  0  0  0  0  0  0  0  0  0  0  0
   18.6659  -21.6460  -13.7204 C   0  0  0  0  0  0  0  0  0  0  0  0
   17.5849  -21.2262  -13.2698 O   0  0  0  0  0  0  0  0  0  0  0  0
   19.9703  -21.0844  -13.2573 C   0  0  0  0  0  0  0  0  0  0  0  0
   21.0745  -21.7825  -13.9988 C   0  0  2  0  0  0  0  0  0  0  0  0
   21.2390  -23.1306  -13.4947 N   0  0  0  0  0  0  0  0  0  0  0  0
   22.3460  -21.0626  -13.9952 C   0  0  0  0  0  0  0  0  0  0  0  0
   22.3527  -19.8670  -14.4239 O   0  0  0  0  0  0  0  0  0  0  0  0
   24.3472  -19.8163  -10.5722 C   0  0  0  0  0  0  0  0  0  0  0  0
   24.8484  -21.1381  -11.0386 C   0  0  2  0  0  0  0  0  0  0  0  0
   25.8118  -21.6607   -9.9513 C   0  0  0  0  0  0  0  0  0  0  0  0
   25.5236  -21.1824  -12.3372 C   0  0  0  0  0  0  0  0  0  0  0  0
   24.8434  -20.7810  -13.5956 C   0  0  2  0  0  0  0  0  0  0  0  0
   23.5713  -21.5728  -13.5587 N   0  0  0  0  0  0  0  0  0  0  0  0
   25.5714  -21.1191  -14.8268 C   0  0  0  0  0  0  0  0  0  0  0  0
   26.2300  -22.1899  -14.9444 O   0  0  0  0  0  0  0  0  0  0  0  0
   26.0657  -21.4045  -19.5180 C   0  0  0  0  0  0  0  0  0  0  0  0
   25.3311  -21.0996  -18.2534 C   0  0  1  0  0  0  0  0  0  0  0  0
   24.7542  -22.3044  -17.8003 O   0  0  0  0  0  0  0  0  0  0  0  0
   26.2591  -20.6384  -17.1500 C   0  0  2  0  0  0  0  0  0  0  0  0
   25.5684  -20.2339  -15.9717 N   0  0  0  0  0  0  0  0  0  0  0  0
   27.1117  -19.5279  -17.6356 C   0  0  0  0  0  0  0  0  0  0  0  0
   26.7028  -18.3393  -17.6612 O   0  0  0  0  0  0  0  0  0  0  0  0
   28.3902  -19.8076  -18.0716 O   0  0  0  0  0  0  0  0  0  0  0  0
  1  2  1  0
  2  3  2  0
  4  2  1  0
  4  5  1  0
  5  6  1  1
  7  5  1  0
  7  8  2  0
 10  9  1  1
 10 11  1  0
 10 12  1  0
 13 12  1  1
 13 14  1  0
 14  7  1  0
 15 13  1  0
 16 15  2  0
 18 17  1  6
 19 18  1  0
 20 18  1  0
 20 21  1  1
 21 15  1  0
 22 24  1  0
 22 20  1  0
 23 22  2  0
M  END
$$$$
