NLT.pdb
     RDKit          3D

 24 23  0  0  1  0  0  0  0  0999 V2000
   20.4031  -14.3030  -21.1487 N   0  0  0  0  0  0  0  0  0  0  0  0
   19.4328  -14.0360  -20.1472 C   0  0  0  0  0  0  0  0  0  0  0  0
   18.3167  -14.5852  -20.1742 O   0  0  0  0  0  0  0  0  0  0  0  0
   19.7988  -13.0751  -19.0636 C   0  0  0  0  0  0  0  0  0  0  0  0
   21.0428  -13.5774  -18.3879 C   0  0  2  0  0  0  0  0  0  0  0  0
   20.8090  -14.8921  -17.8265 N   0  0  0  0  0  0  0  0  0  0  0  0
   21.5868  -12.6671  -17.3827 C   0  0  0  0  0  0  0  0  0  0  0  0
   20.9906  -12.5933  -16.2636 O   0  0  0  0  0  0  0  0  0  0  0  0
   26.9297   -9.9086  -16.2312 C   0  0  0  0  0  0  0  0  0  0  0  0
   25.4730   -9.9008  -15.9251 C   0  0  2  0  0  0  0  0  0  0  0  0
   25.3324  -10.1639  -14.4103 C   0  0  0  0  0  0  0  0  0  0  0  0
   24.6262  -10.8462  -16.6553 C   0  0  0  0  0  0  0  0  0  0  0  0
   23.1471  -10.8536  -16.5151 C   0  0  2  0  0  0  0  0  0  0  0  0
   22.7163  -11.8596  -17.5392 N   0  0  0  0  0  0  0  0  0  0  0  0
   22.4916   -9.5720  -16.8111 C   0  0  0  0  0  0  0  0  0  0  0  0
   22.5557   -9.0329  -17.9511 O   0  0  0  0  0  0  0  0  0  0  0  0
   19.0181   -6.2604  -15.9627 C   0  0  0  0  0  0  0  0  0  0  0  0
   19.6311   -7.6047  -15.7410 C   0  0  1  0  0  0  0  0  0  0  0  0
   18.9533   -8.5193  -16.5738 O   0  0  0  0  0  0  0  0  0  0  0  0
   21.0834   -7.6479  -16.1658 C   0  0  2  0  0  0  0  0  0  0  0  0
   21.7360   -8.8607  -15.8022 N   0  0  0  0  0  0  0  0  0  0  0  0
   21.8148   -6.4949  -15.5899 C   0  0  0  0  0  0  0  0  0  0  0  0
   22.0122   -5.4399  -16.2446 O   0  0  0  0  0  0  0  0  0  0  0  0
   22.2920   -6.5830  -14.2986 O   0  0  0  0  0  0  0  0  0  0  0  0
  1  2  1  0
  2  3  2  0
  4  2  1  0
  4  5  1  0
  5  6  1  1
  7  5  1  0
  7  8  2  0
 10  9  1  6
 10 11  1  0
 10 12  1  0
 13 12  1  6
 13 14  1  0
 14  7  1  0
 15 13  1  0
 16 15  2  0
 18 17  1  6
 19 18  1  0
 20 18  1  0
 20 21  1  1
 21 15  1  0
 22 24  1  0
 22 20  1  0
 23 22  2  0
M  END
$$$$
