NLT.pdb
     RDKit          3D

 24 23  0  0  1  0  0  0  0  0999 V2000
   14.6058  -12.3899  -12.6991 N   0  0  0  0  0  0  0  0  0  0  0  0
   15.7899  -12.0985  -13.4263 C   0  0  0  0  0  0  0  0  0  0  0  0
   16.4560  -13.0064  -13.9555 O   0  0  0  0  0  0  0  0  0  0  0  0
   16.2057  -10.6677  -13.5328 C   0  0  0  0  0  0  0  0  0  0  0  0
   15.2120   -9.8303  -12.7795 C   0  0  2  0  0  0  0  0  0  0  0  0
   14.0219   -9.6279  -13.5802 N   0  0  0  0  0  0  0  0  0  0  0  0
   15.7443   -8.5567  -12.3002 C   0  0  0  0  0  0  0  0  0  0  0  0
   15.6839   -7.5564  -13.0804 O   0  0  0  0  0  0  0  0  0  0  0  0
   14.6020   -5.2199   -9.1654 C   0  0  0  0  0  0  0  0  0  0  0  0
   15.1073   -6.5645   -8.7749 C   0  0  2  0  0  0  0  0  0  0  0  0
   15.0144   -6.6482   -7.2361 C   0  0  0  0  0  0  0  0  0  0  0  0
   16.4648   -6.9212   -9.1921 C   0  0  0  0  0  0  0  0  0  0  0  0
   16.8569   -6.9993  -10.6230 C   0  0  2  0  0  0  0  0  0  0  0  0
   16.3211   -8.3333  -11.0473 N   0  0  0  0  0  0  0  0  0  0  0  0
   18.3056   -6.9752  -10.8693 C   0  0  0  0  0  0  0  0  0  0  0  0
   19.1025   -7.7428  -10.2611 O   0  0  0  0  0  0  0  0  0  0  0  0
   19.6648   -6.9783  -14.5170 C   0  0  0  0  0  0  0  0  0  0  0  0
   20.4348   -7.3001  -13.2779 C   0  0  1  0  0  0  0  0  0  0  0  0
   21.8041   -7.2811  -13.6159 O   0  0  0  0  0  0  0  0  0  0  0  0
   20.2538   -6.2497  -12.2032 C   0  0  2  0  0  0  0  0  0  0  0  0
   18.8925   -6.0633  -11.8276 N   0  0  0  0  0  0  0  0  0  0  0  0
   20.8293   -4.9601  -12.6525 C   0  0  0  0  0  0  0  0  0  0  0  0
   20.1114   -3.9487  -12.8584 O   0  0  0  0  0  0  0  0  0  0  0  0
   22.1915   -4.8682  -12.8500 O   0  0  0  0  0  0  0  0  0  0  0  0
  1  2  1  0
  2  3  2  0
  4  2  1  0
  4  5  1  0
  5  6  1  6
  7  5  1  0
  7  8  2  0
 10  9  1  1
 10 11  1  0
 10 12  1  0
 13 12  1  1
 13 14  1  0
 14  7  1  0
 15 13  1  0
 16 15  2  0
 18 17  1  6
 19 18  1  0
 20 18  1  0
 20 21  1  6
 21 15  1  0
 22 24  1  0
 22 20  1  0
 23 22  2  0
M  END
$$$$
