NLT.pdb
     RDKit          3D

 24 23  0  0  1  0  0  0  0  0999 V2000
   28.1506  -18.3595  -17.4901 N   0  0  0  0  0  0  0  0  0  0  0  0
   26.8156  -18.1565  -17.9288 C   0  0  0  0  0  0  0  0  0  0  0  0
   26.5420  -17.2702  -18.7580 O   0  0  0  0  0  0  0  0  0  0  0  0
   25.7552  -19.0423  -17.3611 C   0  0  0  0  0  0  0  0  0  0  0  0
   26.3650  -19.8626  -16.2604 C   0  0  2  0  0  0  0  0  0  0  0  0
   27.2302  -20.8816  -16.8187 N   0  0  0  0  0  0  0  0  0  0  0  0
   25.3919  -20.4473  -15.3406 C   0  0  0  0  0  0  0  0  0  0  0  0
   24.8387  -21.5400  -15.6770 O   0  0  0  0  0  0  0  0  0  0  0  0
   25.7356  -22.4433  -11.2531 C   0  0  0  0  0  0  0  0  0  0  0  0
   25.7613  -20.9562  -11.3127 C   0  0  2  0  0  0  0  0  0  0  0  0
   26.0243  -20.4549   -9.8764 C   0  0  0  0  0  0  0  0  0  0  0  0
   24.5747  -20.2828  -11.8444 C   0  0  0  0  0  0  0  0  0  0  0  0
   24.0322  -20.5859  -13.1939 C   0  0  2  0  0  0  0  0  0  0  0  0
   25.0078  -19.9100  -14.1092 N   0  0  0  0  0  0  0  0  0  0  0  0
   22.6906  -20.0463  -13.4565 C   0  0  0  0  0  0  0  0  0  0  0  0
   22.4267  -18.8172  -13.3385 O   0  0  0  0  0  0  0  0  0  0  0  0
   20.8653  -19.3937  -16.3503 C   0  0  0  0  0  0  0  0  0  0  0  0
   19.9476  -20.2715  -15.5634 C   0  0  1  0  0  0  0  0  0  0  0  0
   20.1023  -21.5864  -16.0500 O   0  0  0  0  0  0  0  0  0  0  0  0
   20.3209  -20.3207  -14.0973 C   0  0  2  0  0  0  0  0  0  0  0  0
   21.5994  -20.9044  -13.8654 N   0  0  0  0  0  0  0  0  0  0  0  0
   19.2878  -21.0613  -13.3355 C   0  0  0  0  0  0  0  0  0  0  0  0
   19.5349  -22.1606  -12.7778 O   0  0  0  0  0  0  0  0  0  0  0  0
   18.0194  -20.5282  -13.2363 O   0  0  0  0  0  0  0  0  0  0  0  0
  1  2  1  0
  2  3  2  0
  4  2  1  0
  4  5  1  0
  5  6  1  6
  7  5  1  0
  7  8  2  0
 10  9  1  1
 10 11  1  0
 10 12  1  0
 13 12  1  1
 13 14  1  0
 14  7  1  0
 15 13  1  0
 16 15  2  0
 18 17  1  6
 19 18  1  0
 20 18  1  0
 20 21  1  6
 21 15  1  0
 22 24  1  0
 22 20  1  0
 23 22  2  0
M  END
$$$$
