NLT.pdb
     RDKit          3D

 24 23  0  0  1  0  0  0  0  0999 V2000
   21.2306  -27.0646  -14.4861 N   0  0  0  0  0  0  0  0  0  0  0  0
   22.5911  -26.6723  -14.5902 C   0  0  0  0  0  0  0  0  0  0  0  0
   23.3856  -27.3016  -15.3118 O   0  0  0  0  0  0  0  0  0  0  0  0
   23.0329  -25.4810  -13.8047 C   0  0  0  0  0  0  0  0  0  0  0  0
   23.1328  -24.3098  -14.7399 C   0  0  2  0  0  0  0  0  0  0  0  0
   24.1866  -24.5334  -15.7083 N   0  0  0  0  0  0  0  0  0  0  0  0
   23.3006  -23.0220  -14.0702 C   0  0  0  0  0  0  0  0  0  0  0  0
   22.3816  -22.6382  -13.2820 O   0  0  0  0  0  0  0  0  0  0  0  0
   26.0274  -21.2892  -10.6933 C   0  0  0  0  0  0  0  0  0  0  0  0
   26.5119  -21.5554  -12.0754 C   0  0  2  0  0  0  0  0  0  0  0  0
   28.0415  -21.3464  -12.0617 C   0  0  0  0  0  0  0  0  0  0  0  0
   25.9302  -20.7594  -13.1581 C   0  0  0  0  0  0  0  0  0  0  0  0
   24.4901  -20.8421  -13.5139 C   0  0  2  0  0  0  0  0  0  0  0  0
   24.3919  -22.1618  -14.2176 N   0  0  0  0  0  0  0  0  0  0  0  0
   24.0164  -19.7889  -14.4229 C   0  0  0  0  0  0  0  0  0  0  0  0
   24.7417  -18.8086  -14.7501 O   0  0  0  0  0  0  0  0  0  0  0  0
   23.5597  -19.4456  -17.8436 C   0  0  0  0  0  0  0  0  0  0  0  0
   22.2107  -19.1199  -17.2903 C   0  0  1  0  0  0  0  0  0  0  0  0
   21.4303  -20.2925  -17.3651 O   0  0  0  0  0  0  0  0  0  0  0  0
   22.2686  -18.7480  -15.8241 C   0  0  2  0  0  0  0  0  0  0  0  0
   22.6856  -19.8251  -14.9904 N   0  0  0  0  0  0  0  0  0  0  0  0
   20.9471  -18.2507  -15.3745 C   0  0  0  0  0  0  0  0  0  0  0  0
   20.2669  -18.8608  -14.5109 O   0  0  0  0  0  0  0  0  0  0  0  0
   20.4502  -17.0850  -15.9199 O   0  0  0  0  0  0  0  0  0  0  0  0
  1  2  1  0
  2  3  2  0
  4  2  1  0
  4  5  1  0
  5  6  1  6
  7  5  1  0
  7  8  2  0
 10  9  1  1
 10 11  1  0
 10 12  1  0
 13 12  1  6
 13 14  1  0
 14  7  1  0
 15 13  1  0
 16 15  2  0
 18 17  1  1
 19 18  1  0
 20 18  1  0
 20 21  1  1
 21 15  1  0
 22 24  1  0
 22 20  1  0
 23 22  2  0
M  END
$$$$
