NLT.pdb
     RDKit          3D

 24 23  0  0  1  0  0  0  0  0999 V2000
   15.4861  -10.0743  -18.4659 N   0  0  0  0  0  0  0  0  0  0  0  0
   15.6792  -11.1533  -17.5634 C   0  0  0  0  0  0  0  0  0  0  0  0
   14.7640  -11.9624  -17.3277 O   0  0  0  0  0  0  0  0  0  0  0  0
   17.0161  -11.2815  -16.9095 C   0  0  0  0  0  0  0  0  0  0  0  0
   17.8899  -10.1617  -17.3983 C   0  0  2  0  0  0  0  0  0  0  0  0
   18.4994  -10.5203  -18.6625 N   0  0  0  0  0  0  0  0  0  0  0  0
   18.8983   -9.7256  -16.4350 C   0  0  0  0  0  0  0  0  0  0  0  0
   18.5004   -9.3396  -15.2922 O   0  0  0  0  0  0  0  0  0  0  0  0
   24.7752  -10.9717  -15.4827 C   0  0  0  0  0  0  0  0  0  0  0  0
   23.6690  -10.0491  -15.1072 C   0  0  2  0  0  0  0  0  0  0  0  0
   23.4323  -10.2272  -13.5920 C   0  0  0  0  0  0  0  0  0  0  0  0
   22.3946  -10.2036  -15.8117 C   0  0  0  0  0  0  0  0  0  0  0  0
   21.2609   -9.2651  -15.6089 C   0  0  2  0  0  0  0  0  0  0  0  0
   20.2776   -9.6928  -16.6562 N   0  0  0  0  0  0  0  0  0  0  0  0
   21.5860   -7.8476  -15.8212 C   0  0  0  0  0  0  0  0  0  0  0  0
   22.2231   -7.4499  -16.8362 O   0  0  0  0  0  0  0  0  0  0  0  0
   19.5347   -4.9864  -16.5830 C   0  0  0  0  0  0  0  0  0  0  0  0
   20.2971   -4.6009  -15.3574 C   0  0  1  0  0  0  0  0  0  0  0  0
   19.4553   -4.8282  -14.2487 O   0  0  0  0  0  0  0  0  0  0  0  0
   21.5157   -5.4732  -15.1440 C   0  0  2  0  0  0  0  0  0  0  0  0
   21.1890   -6.8322  -14.8695 N   0  0  0  0  0  0  0  0  0  0  0  0
   22.3444   -4.9264  -14.0439 C   0  0  0  0  0  0  0  0  0  0  0  0
   22.4924   -5.5396  -12.9564 O   0  0  0  0  0  0  0  0  0  0  0  0
   22.9707   -3.7098  -14.2194 O   0  0  0  0  0  0  0  0  0  0  0  0
  1  2  1  0
  2  3  2  0
  4  2  1  0
  4  5  1  0
  5  6  1  6
  7  5  1  0
  7  8  2  0
 10  9  1  6
 10 11  1  0
 10 12  1  0
 13 12  1  6
 13 14  1  0
 14  7  1  0
 15 13  1  0
 16 15  2  0
 18 17  1  6
 19 18  1  0
 20 18  1  0
 20 21  1  1
 21 15  1  0
 22 24  1  0
 22 20  1  0
 23 22  2  0
M  END
$$$$
