NLT.pdb
     RDKit          3D

 24 23  0  0  1  0  0  0  0  0999 V2000
   14.4809  -11.4905  -16.8618 N   0  0  0  0  0  0  0  0  0  0  0  0
   15.6777  -10.8675  -17.3040 C   0  0  0  0  0  0  0  0  0  0  0  0
   15.7534  -10.3573  -18.4362 O   0  0  0  0  0  0  0  0  0  0  0  0
   16.8386  -10.8466  -16.3642 C   0  0  0  0  0  0  0  0  0  0  0  0
   17.9949  -10.1841  -17.0572 C   0  0  2  0  0  0  0  0  0  0  0  0
   18.5184  -11.0510  -18.0931 N   0  0  0  0  0  0  0  0  0  0  0  0
   19.0576   -9.7413  -16.1575 C   0  0  0  0  0  0  0  0  0  0  0  0
   18.7201   -9.2530  -15.0346 O   0  0  0  0  0  0  0  0  0  0  0  0
   25.0279  -10.9344  -15.5224 C   0  0  0  0  0  0  0  0  0  0  0  0
   23.9201  -10.0418  -15.0845 C   0  0  2  0  0  0  0  0  0  0  0  0
   23.7860  -10.2115  -13.5558 C   0  0  0  0  0  0  0  0  0  0  0  0
   22.6087  -10.2418  -15.7046 C   0  0  0  0  0  0  0  0  0  0  0  0
   21.4670   -9.3254  -15.4519 C   0  0  2  0  0  0  0  0  0  0  0  0
   20.4285   -9.8053  -16.4201 N   0  0  0  0  0  0  0  0  0  0  0  0
   21.7412   -7.9070  -15.7222 C   0  0  0  0  0  0  0  0  0  0  0  0
   22.2593   -7.5183  -16.8060 O   0  0  0  0  0  0  0  0  0  0  0  0
   19.7190   -5.1980  -16.5314 C   0  0  0  0  0  0  0  0  0  0  0  0
   20.4796   -4.6989  -15.3464 C   0  0  1  0  0  0  0  0  0  0  0  0
   19.6500   -4.8562  -14.2165 O   0  0  0  0  0  0  0  0  0  0  0  0
   21.7194   -5.5236  -15.0739 C   0  0  2  0  0  0  0  0  0  0  0  0
   21.4284   -6.8802  -14.7514 N   0  0  0  0  0  0  0  0  0  0  0  0
   22.5077   -4.9081  -13.9803 C   0  0  0  0  0  0  0  0  0  0  0  0
   22.6433   -5.4684  -12.8631 O   0  0  0  0  0  0  0  0  0  0  0  0
   23.1092   -3.6854  -14.1957 O   0  0  0  0  0  0  0  0  0  0  0  0
  1  2  1  0
  2  3  2  0
  4  2  1  0
  4  5  1  0
  5  6  1  6
  7  5  1  0
  7  8  2  0
 10  9  1  6
 10 11  1  0
 10 12  1  0
 13 12  1  6
 13 14  1  0
 14  7  1  0
 15 13  1  0
 16 15  2  0
 18 17  1  6
 19 18  1  0
 20 18  1  0
 20 21  1  1
 21 15  1  0
 22 24  1  0
 22 20  1  0
 23 22  2  0
M  END
$$$$
