VCT.pdb
     RDKit          3D

 21 20  0  0  1  0  0  0  0  0999 V2000
   17.7828   -9.5925  -17.2113 C   0  0  0  0  0  0  0  0  0  0  0  0
   18.6367  -10.5457  -18.0639 C   0  0  2  0  0  0  0  0  0  0  0  0
   17.6356  -11.4034  -18.8034 C   0  0  0  0  0  0  0  0  0  0  0  0
   19.5160  -11.3630  -17.1312 C   0  0  2  0  0  0  0  0  0  0  0  0
   18.5996  -12.2670  -16.4289 N   0  0  0  0  0  0  0  0  0  0  0  0
   20.2220  -10.5658  -16.1291 C   0  0  0  0  0  0  0  0  0  0  0  0
   19.6173  -10.2774  -15.0425 O   0  0  0  0  0  0  0  0  0  0  0  0
   21.5388  -10.0594  -16.2210 N   0  0  0  0  0  0  0  0  0  0  0  0
   22.1425   -9.1917  -15.2269 C   0  0  1  0  0  0  0  0  0  0  0  0
   23.6428   -9.5138  -15.2497 C   0  0  0  0  0  0  0  0  0  0  0  0
   23.8759  -11.0430  -14.2964 S   0  0  0  0  0  0  0  0  0  0  0  0
   22.0299   -7.7590  -15.6130 C   0  0  0  0  0  0  0  0  0  0  0  0
   22.3098   -7.3398  -16.7654 O   0  0  0  0  0  0  0  0  0  0  0  0
   19.1183   -5.8078  -15.7769 C   0  0  0  0  0  0  0  0  0  0  0  0
   19.8917   -5.1699  -14.6614 C   0  0  1  0  0  0  0  0  0  0  0  0
   19.4636   -5.7176  -13.4549 O   0  0  0  0  0  0  0  0  0  0  0  0
   21.3888   -5.4420  -14.8620 C   0  0  2  0  0  0  0  0  0  0  0  0
   21.5851   -6.8517  -14.6174 N   0  0  0  0  0  0  0  0  0  0  0  0
   22.1168   -4.6831  -13.8021 C   0  0  0  0  0  0  0  0  0  0  0  0
   22.6106   -5.3236  -12.6737 O   0  0  0  0  0  0  0  0  0  0  0  0
   22.3092   -3.4463  -13.8890 O   0  0  0  0  0  0  0  0  0  0  0  0
  2  4  1  0
  2  1  1  1
  3  2  1  0
  4  5  1  1
  6  7  2  0
  6  4  1  0
  8  6  1  0
  9 12  1  0
  9  8  1  0
 10 11  1  0
  9 10  1  6
 12 18  1  0
 13 12  2  0
 15 14  1  6
 15 16  1  0
 17 19  1  0
 17 15  1  0
 17 18  1  1
 19 20  1  0
 21 19  2  0
M  END
$$$$
