VCT.pdb
     RDKit          3D

 21 20  0  0  1  0  0  0  0  0999 V2000
   16.2316  -11.9771  -17.5100 C   0  0  0  0  0  0  0  0  0  0  0  0
   17.2307  -12.9262  -16.8276 C   0  0  2  0  0  0  0  0  0  0  0  0
   16.3719  -13.9773  -16.1626 C   0  0  0  0  0  0  0  0  0  0  0  0
   18.0402  -12.1243  -15.8212 C   0  0  2  0  0  0  0  0  0  0  0  0
   17.1045  -11.8052  -14.7383 N   0  0  0  0  0  0  0  0  0  0  0  0
   18.5675  -10.8667  -16.3492 C   0  0  0  0  0  0  0  0  0  0  0  0
   19.6134  -10.9029  -17.0803 O   0  0  0  0  0  0  0  0  0  0  0  0
   18.0404   -9.5714  -16.1415 N   0  0  0  0  0  0  0  0  0  0  0  0
   18.6604   -8.3571  -16.6382 C   0  0  1  0  0  0  0  0  0  0  0  0
   17.6254   -7.7128  -17.5703 C   0  0  0  0  0  0  0  0  0  0  0  0
   17.9158   -8.3812  -19.2348 S   0  0  0  0  0  0  0  0  0  0  0  0
   18.8876   -7.3742  -15.5442 C   0  0  0  0  0  0  0  0  0  0  0  0
   18.0598   -7.1836  -14.6166 O   0  0  0  0  0  0  0  0  0  0  0  0
   22.4920   -5.0402  -13.2273 C   0  0  0  0  0  0  0  0  0  0  0  0
   21.9957   -5.9819  -14.2838 C   0  0  1  0  0  0  0  0  0  0  0  0
   22.1952   -7.2877  -13.8433 O   0  0  0  0  0  0  0  0  0  0  0  0
   20.5013   -5.7299  -14.5263 C   0  0  2  0  0  0  0  0  0  0  0  0
   20.0984   -6.6359  -15.5764 N   0  0  0  0  0  0  0  0  0  0  0  0
   20.3715   -4.3354  -15.0438 C   0  0  0  0  0  0  0  0  0  0  0  0
   20.0236   -3.2883  -14.2014 O   0  0  0  0  0  0  0  0  0  0  0  0
   20.5704   -4.0575  -16.2510 O   0  0  0  0  0  0  0  0  0  0  0  0
  2  4  1  0
  2  1  1  1
  3  2  1  0
  4  5  1  1
  6  7  2  0
  6  4  1  0
  8  6  1  0
  9 12  1  0
  9  8  1  0
 10 11  1  0
  9 10  1  6
 12 18  1  0
 13 12  2  0
 15 14  1  1
 15 16  1  0
 17 19  1  0
 17 15  1  0
 17 18  1  6
 19 20  1  0
 21 19  2  0
M  END
$$$$
