VCT.pdb
     RDKit          3D

 21 20  0  0  1  0  0  0  0  0999 V2000
   20.6910  -15.8764  -18.8441 C   0  0  0  0  0  0  0  0  0  0  0  0
   20.1966  -14.7934  -17.8708 C   0  0  2  0  0  0  0  0  0  0  0  0
   18.7007  -14.7392  -18.0813 C   0  0  0  0  0  0  0  0  0  0  0  0
   20.8755  -13.4817  -18.2308 C   0  0  2  0  0  0  0  0  0  0  0  0
   22.2286  -13.8510  -18.6586 N   0  0  0  0  0  0  0  0  0  0  0  0
   20.9936  -12.5468  -17.1125 C   0  0  0  0  0  0  0  0  0  0  0  0
   19.9290  -12.1713  -16.5165 O   0  0  0  0  0  0  0  0  0  0  0  0
   22.1850  -11.9903  -16.5935 N   0  0  0  0  0  0  0  0  0  0  0  0
   22.2200  -10.9997  -15.5337 C   0  0  1  0  0  0  0  0  0  0  0  0
   23.6666  -10.9890  -15.0217 C   0  0  0  0  0  0  0  0  0  0  0  0
   23.9061  -12.5146  -14.0641 S   0  0  0  0  0  0  0  0  0  0  0  0
   21.9659   -9.6306  -16.0585 C   0  0  0  0  0  0  0  0  0  0  0  0
   22.5660   -9.1624  -17.0599 O   0  0  0  0  0  0  0  0  0  0  0  0
   18.6755   -6.0361  -16.0738 C   0  0  0  0  0  0  0  0  0  0  0  0
   19.1143   -7.4459  -15.8109 C   0  0  1  0  0  0  0  0  0  0  0  0
   18.6256   -8.2600  -16.8295 O   0  0  0  0  0  0  0  0  0  0  0  0
   20.6478   -7.5024  -15.7809 C   0  0  2  0  0  0  0  0  0  0  0  0
   21.0003   -8.8442  -15.3794 N   0  0  0  0  0  0  0  0  0  0  0  0
   21.0988   -6.5656  -14.7093 C   0  0  0  0  0  0  0  0  0  0  0  0
   21.2630   -6.9998  -13.4009 O   0  0  0  0  0  0  0  0  0  0  0  0
   21.3452   -5.3587  -14.9475 O   0  0  0  0  0  0  0  0  0  0  0  0
  2  4  1  0
  2  1  1  6
  3  2  1  0
  4  5  1  1
  6  7  2  0
  6  4  1  0
  8  6  1  0
  9 12  1  0
  9  8  1  0
 10 11  1  0
  9 10  1  6
 12 18  1  0
 13 12  2  0
 15 14  1  6
 15 16  1  0
 17 19  1  0
 17 15  1  0
 17 18  1  1
 19 20  1  0
 21 19  2  0
M  END
$$$$
