VCT.pdb
     RDKit          3D

 21 20  0  0  1  0  0  0  0  0999 V2000
   17.2610  -11.9389  -16.7584 C   0  0  0  0  0  0  0  0  0  0  0  0
   17.5757  -11.3993  -18.1635 C   0  0  2  0  0  0  0  0  0  0  0  0
   17.8150  -12.6317  -19.0054 C   0  0  0  0  0  0  0  0  0  0  0  0
   18.8107  -10.5177  -18.0711 C   0  0  2  0  0  0  0  0  0  0  0  0
   19.9272  -11.4389  -17.8368 N   0  0  0  0  0  0  0  0  0  0  0  0
   18.7756   -9.5589  -16.9674 C   0  0  0  0  0  0  0  0  0  0  0  0
   17.9108   -8.6206  -17.0019 O   0  0  0  0  0  0  0  0  0  0  0  0
   19.6116   -9.5459  -15.8274 N   0  0  0  0  0  0  0  0  0  0  0  0
   19.5889   -8.5016  -14.8201 C   0  0  1  0  0  0  0  0  0  0  0  0
   19.9307   -9.1949  -13.4944 C   0  0  0  0  0  0  0  0  0  0  0  0
   19.7932   -7.9425  -12.1851 S   0  0  0  0  0  0  0  0  0  0  0  0
   20.6691   -7.5032  -15.0454 C   0  0  0  0  0  0  0  0  0  0  0  0
   21.8491   -7.8294  -15.3341 O   0  0  0  0  0  0  0  0  0  0  0  0
   21.3677   -2.6647  -15.7419 C   0  0  0  0  0  0  0  0  0  0  0  0
   20.4426   -3.8200  -15.4993 C   0  0  1  0  0  0  0  0  0  0  0  0
   19.7243   -4.0659  -16.6666 O   0  0  0  0  0  0  0  0  0  0  0  0
   21.2661   -5.0574  -15.1166 C   0  0  2  0  0  0  0  0  0  0  0  0
   20.3225   -6.1332  -14.9224 N   0  0  0  0  0  0  0  0  0  0  0  0
   21.9101   -4.7642  -13.8019 C   0  0  0  0  0  0  0  0  0  0  0  0
   23.2696   -4.4970  -13.7140 O   0  0  0  0  0  0  0  0  0  0  0  0
   21.2530   -4.7480  -12.7332 O   0  0  0  0  0  0  0  0  0  0  0  0
  2  4  1  0
  2  1  1  1
  3  2  1  0
  4  5  1  1
  6  7  2  0
  6  4  1  0
  8  6  1  0
  9 12  1  0
  9  8  1  0
 10 11  1  0
  9 10  1  1
 12 18  1  0
 13 12  2  0
 15 14  1  6
 15 16  1  0
 17 19  1  0
 17 15  1  0
 17 18  1  1
 19 20  1  0
 21 19  2  0
M  END
$$$$
