VCT.pdb
     RDKit          3D

 21 20  0  0  1  0  0  0  0  0999 V2000
   22.7524  -12.1524    7.8234 C   0  0  0  0  0  0  0  0  0  0  0  0
   21.5925  -11.2185    8.2070 C   0  0  2  0  0  0  0  0  0  0  0  0
   21.6849  -11.0858    9.7098 C   0  0  0  0  0  0  0  0  0  0  0  0
   20.2906  -11.8678    7.7661 C   0  0  2  0  0  0  0  0  0  0  0  0
   19.2412  -10.9029    8.1098 N   0  0  0  0  0  0  0  0  0  0  0  0
   19.9915  -13.1250    8.4505 C   0  0  0  0  0  0  0  0  0  0  0  0
   19.4466  -13.0768    9.6040 O   0  0  0  0  0  0  0  0  0  0  0  0
   20.2405  -14.4319    7.9724 N   0  0  0  0  0  0  0  0  0  0  0  0
   19.8904  -15.6387    8.6981 C   0  0  1  0  0  0  0  0  0  0  0  0
   19.1329  -16.5212    7.6969 C   0  0  0  0  0  0  0  0  0  0  0  0
   17.5498  -15.6993    7.3508 S   0  0  0  0  0  0  0  0  0  0  0  0
   21.1009  -16.4126    9.0854 C   0  0  0  0  0  0  0  0  0  0  0  0
   22.0055  -16.7177    8.2664 O   0  0  0  0  0  0  0  0  0  0  0  0
   23.4884  -15.2712   11.3082 C   0  0  0  0  0  0  0  0  0  0  0  0
   22.9797  -16.4927   12.0143 C   0  0  1  0  0  0  0  0  0  0  0  0
   22.0047  -16.1028   12.9288 O   0  0  0  0  0  0  0  0  0  0  0  0
   22.3801  -17.4606   10.9851 C   0  0  2  0  0  0  0  0  0  0  0  0
   21.2109  -16.8090   10.4429 N   0  0  0  0  0  0  0  0  0  0  0  0
   21.9293  -18.6710   11.7342 C   0  0  0  0  0  0  0  0  0  0  0  0
   22.8338  -19.6480   12.1274 O   0  0  0  0  0  0  0  0  0  0  0  0
   20.7248  -18.8510   12.0354 O   0  0  0  0  0  0  0  0  0  0  0  0
  2  4  1  0
  2  1  1  1
  3  2  1  0
  4  5  1  1
  6  7  2  0
  6  4  1  0
  8  6  1  0
  9 12  1  0
  9  8  1  0
 10 11  1  0
  9 10  1  6
 12 18  1  0
 13 12  2  0
 15 14  1  6
 15 16  1  0
 17 19  1  0
 17 15  1  0
 17 18  1  1
 19 20  1  0
 21 19  2  0
M  END
$$$$
