VCT.pdb
     RDKit          3D

 21 20  0  0  1  0  0  0  0  0999 V2000
   13.4161   -8.2458  -11.1461 C   0  0  0  0  0  0  0  0  0  0  0  0
   13.7214   -9.5061  -10.3196 C   0  0  2  0  0  0  0  0  0  0  0  0
   12.8529   -9.3801   -9.0889 C   0  0  0  0  0  0  0  0  0  0  0  0
   15.2032   -9.5071   -9.9798 C   0  0  2  0  0  0  0  0  0  0  0  0
   15.4120   -8.3125   -9.1555 N   0  0  0  0  0  0  0  0  0  0  0  0
   16.0806   -9.4117  -11.1458 C   0  0  0  0  0  0  0  0  0  0  0  0
   16.2386  -10.4464  -11.8766 O   0  0  0  0  0  0  0  0  0  0  0  0
   16.7988   -8.2727  -11.5768 N   0  0  0  0  0  0  0  0  0  0  0  0
   17.6611   -8.2545  -12.7437 C   0  0  1  0  0  0  0  0  0  0  0  0
   16.7215   -8.3015  -13.9561 C   0  0  0  0  0  0  0  0  0  0  0  0
   16.5690  -10.0442  -14.4471 S   0  0  0  0  0  0  0  0  0  0  0  0
   18.4014   -6.9684  -12.8545 C   0  0  0  0  0  0  0  0  0  0  0  0
   17.9519   -5.8825  -12.4063 O   0  0  0  0  0  0  0  0  0  0  0  0
   22.8976   -5.2492  -14.0203 C   0  0  0  0  0  0  0  0  0  0  0  0
   21.9198   -6.3858  -13.9843 C   0  0  1  0  0  0  0  0  0  0  0  0
   22.3575   -7.3179  -13.0469 O   0  0  0  0  0  0  0  0  0  0  0  0
   20.5358   -5.8520  -13.5903 C   0  0  2  0  0  0  0  0  0  0  0  0
   19.6650   -7.0004  -13.4983 N   0  0  0  0  0  0  0  0  0  0  0  0
   20.0587   -4.9993  -14.7193 C   0  0  0  0  0  0  0  0  0  0  0  0
   19.9766   -3.6195  -14.5897 O   0  0  0  0  0  0  0  0  0  0  0  0
   19.7160   -5.4925  -15.8209 O   0  0  0  0  0  0  0  0  0  0  0  0
  2  4  1  0
  2  1  1  6
  3  2  1  0
  4  5  1  1
  6  7  2  0
  6  4  1  0
  8  6  1  0
  9 12  1  0
  9  8  1  0
 10 11  1  0
  9 10  1  6
 12 18  1  0
 13 12  2  0
 15 14  1  1
 15 16  1  0
 17 19  1  0
 17 15  1  0
 17 18  1  6
 19 20  1  0
 21 19  2  0
M  END
$$$$
