VCT.pdb
     RDKit          3D

 21 20  0  0  1  0  0  0  0  0999 V2000
   17.2694  -12.5996  -17.9076 C   0  0  0  0  0  0  0  0  0  0  0  0
   17.8488  -11.7322  -16.7777 C   0  0  2  0  0  0  0  0  0  0  0  0
   16.6529  -11.0251  -16.1823 C   0  0  0  0  0  0  0  0  0  0  0  0
   18.8473  -10.7604  -17.3857 C   0  0  2  0  0  0  0  0  0  0  0  0
   19.7705  -11.5912  -18.1651 N   0  0  0  0  0  0  0  0  0  0  0  0
   19.6299  -10.0172  -16.3990 C   0  0  0  0  0  0  0  0  0  0  0  0
   19.0112   -9.4061  -15.4645 O   0  0  0  0  0  0  0  0  0  0  0  0
   21.0372   -9.8902  -16.3529 N   0  0  0  0  0  0  0  0  0  0  0  0
   21.7504   -9.1706  -15.3141 C   0  0  1  0  0  0  0  0  0  0  0  0
   23.1679   -9.7585  -15.2988 C   0  0  0  0  0  0  0  0  0  0  0  0
   23.0581  -11.3984  -14.5239 S   0  0  0  0  0  0  0  0  0  0  0  0
   21.9122   -7.7323  -15.6599 C   0  0  0  0  0  0  0  0  0  0  0  0
   22.3948   -7.3448  -16.7549 O   0  0  0  0  0  0  0  0  0  0  0  0
   19.3878   -5.4324  -16.2007 C   0  0  0  0  0  0  0  0  0  0  0  0
   20.0416   -4.9068  -14.9575 C   0  0  1  0  0  0  0  0  0  0  0  0
   19.3634   -5.4128  -13.8516 O   0  0  0  0  0  0  0  0  0  0  0  0
   21.5087   -5.3566  -14.9272 C   0  0  2  0  0  0  0  0  0  0  0  0
   21.4953   -6.7817  -14.6931 N   0  0  0  0  0  0  0  0  0  0  0  0
   22.1428   -4.7000  -13.7456 C   0  0  0  0  0  0  0  0  0  0  0  0
   22.4766   -3.3526  -13.7684 O   0  0  0  0  0  0  0  0  0  0  0  0
   22.3969   -5.3352  -12.6939 O   0  0  0  0  0  0  0  0  0  0  0  0
  2  4  1  0
  2  1  1  6
  3  2  1  0
  4  5  1  6
  6  7  2  0
  6  4  1  0
  8  6  1  0
  9 12  1  0
  9  8  1  0
 10 11  1  0
  9 10  1  6
 12 18  1  0
 13 12  2  0
 15 14  1  6
 15 16  1  0
 17 19  1  0
 17 15  1  0
 17 18  1  1
 19 20  1  0
 21 19  2  0
M  END
$$$$
