VCT.pdb
     RDKit          3D

 21 20  0  0  1  0  0  0  0  0999 V2000
   21.4611  -11.9529  -15.8543 C   0  0  0  0  0  0  0  0  0  0  0  0
   21.0459  -11.8342  -17.3302 C   0  0  2  0  0  0  0  0  0  0  0  0
   21.8996  -12.8500  -18.0541 C   0  0  0  0  0  0  0  0  0  0  0  0
   21.3266  -10.4134  -17.7925 C   0  0  2  0  0  0  0  0  0  0  0  0
   22.7718  -10.2304  -17.6250 N   0  0  0  0  0  0  0  0  0  0  0  0
   20.6458   -9.3864  -17.0050 C   0  0  0  0  0  0  0  0  0  0  0  0
   19.3887   -9.2302  -17.1629 O   0  0  0  0  0  0  0  0  0  0  0  0
   21.2315   -8.5165  -16.0569 N   0  0  0  0  0  0  0  0  0  0  0  0
   20.4847   -7.5397  -15.2863 C   0  0  1  0  0  0  0  0  0  0  0  0
   21.1367   -7.5191  -13.8972 C   0  0  0  0  0  0  0  0  0  0  0  0
   20.4850   -8.9456  -12.9795 S   0  0  0  0  0  0  0  0  0  0  0  0
   20.6557   -6.1668  -15.8343 C   0  0  0  0  0  0  0  0  0  0  0  0
   21.7832   -5.6677  -16.0827 O   0  0  0  0  0  0  0  0  0  0  0  0
   19.7486   -5.0611  -18.9784 C   0  0  0  0  0  0  0  0  0  0  0  0
   18.8247   -4.2934  -18.0805 C   0  0  1  0  0  0  0  0  0  0  0  0
   17.6370   -5.0085  -17.9502 O   0  0  0  0  0  0  0  0  0  0  0  0
   19.4855   -4.1142  -16.7068 C   0  0  2  0  0  0  0  0  0  0  0  0
   19.4783   -5.4135  -16.0764 N   0  0  0  0  0  0  0  0  0  0  0  0
   18.6027   -3.2097  -15.9119 C   0  0  0  0  0  0  0  0  0  0  0  0
   17.7616   -3.7126  -14.9286 O   0  0  0  0  0  0  0  0  0  0  0  0
   18.5867   -1.9694  -16.1000 O   0  0  0  0  0  0  0  0  0  0  0  0
  2  4  1  0
  2  1  1  1
  3  2  1  0
  4  5  1  1
  6  7  2  0
  6  4  1  0
  8  6  1  0
  9 12  1  0
  9  8  1  0
 10 11  1  0
  9 10  1  1
 12 18  1  0
 13 12  2  0
 15 14  1  6
 15 16  1  0
 17 19  1  0
 17 15  1  0
 17 18  1  1
 19 20  1  0
 21 19  2  0
M  END
$$$$
