VCT.pdb
     RDKit          3D

 21 20  0  0  1  0  0  0  0  0999 V2000
   20.5471  -12.8645  -16.5965 C   0  0  0  0  0  0  0  0  0  0  0  0
   19.0401  -12.6393  -16.3893 C   0  0  2  0  0  0  0  0  0  0  0  0
   18.3781  -13.3976  -17.5169 C   0  0  0  0  0  0  0  0  0  0  0  0
   18.7658  -11.1458  -16.4621 C   0  0  2  0  0  0  0  0  0  0  0  0
   18.8890  -10.7985  -17.8813 N   0  0  0  0  0  0  0  0  0  0  0  0
   19.7188  -10.3290  -15.7117 C   0  0  0  0  0  0  0  0  0  0  0  0
   19.6653  -10.3463  -14.4363 O   0  0  0  0  0  0  0  0  0  0  0  0
   20.7272   -9.4947  -16.2462 N   0  0  0  0  0  0  0  0  0  0  0  0
   21.6158   -8.6808  -15.4377 C   0  0  1  0  0  0  0  0  0  0  0  0
   23.0357   -9.0185  -15.9119 C   0  0  0  0  0  0  0  0  0  0  0  0
   23.5538  -10.5167  -15.0240 S   0  0  0  0  0  0  0  0  0  0  0  0
   21.4302   -7.2306  -15.7151 C   0  0  0  0  0  0  0  0  0  0  0  0
   21.3404   -6.7657  -16.8804 O   0  0  0  0  0  0  0  0  0  0  0  0
   19.7307   -3.1021  -13.8638 C   0  0  0  0  0  0  0  0  0  0  0  0
   19.9716   -4.5814  -13.8107 C   0  0  1  0  0  0  0  0  0  0  0  0
   18.8235   -5.2340  -14.2523 O   0  0  0  0  0  0  0  0  0  0  0  0
   21.1597   -4.9346  -14.7158 C   0  0  2  0  0  0  0  0  0  0  0  0
   21.3551   -6.3606  -14.5973 N   0  0  0  0  0  0  0  0  0  0  0  0
   22.3606   -4.2545  -14.1459 C   0  0  0  0  0  0  0  0  0  0  0  0
   22.9232   -3.1507  -14.7723 O   0  0  0  0  0  0  0  0  0  0  0  0
   22.9040   -4.6509  -13.0868 O   0  0  0  0  0  0  0  0  0  0  0  0
  2  4  1  0
  2  1  1  6
  3  2  1  0
  4  5  1  6
  6  7  2  0
  6  4  1  0
  8  6  1  0
  9 12  1  0
  9  8  1  0
 10 11  1  0
  9 10  1  6
 12 18  1  0
 13 12  2  0
 15 14  1  6
 15 16  1  0
 17 19  1  0
 17 15  1  0
 17 18  1  1
 19 20  1  0
 21 19  2  0
M  END
$$$$
