VCT.pdb
     RDKit          3D

 21 20  0  0  1  0  0  0  0  0999 V2000
   18.3925   -9.2029  -18.3924 C   0  0  0  0  0  0  0  0  0  0  0  0
   17.9561  -10.4636  -17.6278 C   0  0  2  0  0  0  0  0  0  0  0  0
   16.7127  -10.0475  -16.8756 C   0  0  0  0  0  0  0  0  0  0  0  0
   19.0842  -10.8700  -16.6933 C   0  0  2  0  0  0  0  0  0  0  0  0
   18.6300  -12.1093  -16.0546 N   0  0  0  0  0  0  0  0  0  0  0  0
   19.3649   -9.8946  -15.6406 C   0  0  0  0  0  0  0  0  0  0  0  0
   18.5111   -9.7462  -14.7032 O   0  0  0  0  0  0  0  0  0  0  0  0
   20.5070   -9.0686  -15.5314 N   0  0  0  0  0  0  0  0  0  0  0  0
   20.6767   -8.0551  -14.5069 C   0  0  1  0  0  0  0  0  0  0  0  0
   21.5212   -8.7127  -13.4070 C   0  0  0  0  0  0  0  0  0  0  0  0
   22.8681   -9.6108  -14.2321 S   0  0  0  0  0  0  0  0  0  0  0  0
   21.4823   -6.9068  -15.0040 C   0  0  0  0  0  0  0  0  0  0  0  0
   22.3901   -7.0335  -15.8653 O   0  0  0  0  0  0  0  0  0  0  0  0
   19.5143   -3.5697  -15.3205 C   0  0  0  0  0  0  0  0  0  0  0  0
   20.8485   -3.8025  -15.9647 C   0  0  1  0  0  0  0  0  0  0  0  0
   21.3420   -2.5814  -16.4168 O   0  0  0  0  0  0  0  0  0  0  0  0
   21.8099   -4.4106  -14.9343 C   0  0  2  0  0  0  0  0  0  0  0  0
   21.1904   -5.6277  -14.4647 N   0  0  0  0  0  0  0  0  0  0  0  0
   21.8825   -3.4566  -13.7880 C   0  0  0  0  0  0  0  0  0  0  0  0
   22.7089   -2.3421  -13.8349 O   0  0  0  0  0  0  0  0  0  0  0  0
   21.2047   -3.6237  -12.7455 O   0  0  0  0  0  0  0  0  0  0  0  0
  2  4  1  0
  2  1  1  1
  3  2  1  0
  4  5  1  1
  6  7  2  0
  6  4  1  0
  8  6  1  0
  9 12  1  0
  9  8  1  0
 10 11  1  0
  9 10  1  1
 12 18  1  0
 13 12  2  0
 15 14  1  1
 15 16  1  0
 17 19  1  0
 17 15  1  0
 17 18  1  1
 19 20  1  0
 21 19  2  0
M  END
$$$$
