VCT.pdb
     RDKit          3D

 21 20  0  0  1  0  0  0  0  0999 V2000
   22.6832  -13.8440  -17.8921 C   0  0  0  0  0  0  0  0  0  0  0  0
   23.4051  -13.2435  -19.1098 C   0  0  2  0  0  0  0  0  0  0  0  0
   24.4809  -14.2478  -19.4545 C   0  0  0  0  0  0  0  0  0  0  0  0
   23.9839  -11.8970  -18.7060 C   0  0  2  0  0  0  0  0  0  0  0  0
   25.0350  -12.2044  -17.7309 N   0  0  0  0  0  0  0  0  0  0  0  0
   23.0196  -11.0033  -18.0657 C   0  0  0  0  0  0  0  0  0  0  0  0
   22.0229  -10.5915  -18.7487 O   0  0  0  0  0  0  0  0  0  0  0  0
   23.0588  -10.5247  -16.7361 N   0  0  0  0  0  0  0  0  0  0  0  0
   22.1135   -9.5668  -16.1934 C   0  0  1  0  0  0  0  0  0  0  0  0
   21.5009  -10.2409  -14.9583 C   0  0  0  0  0  0  0  0  0  0  0  0
   22.8779  -10.7322  -13.8794 S   0  0  0  0  0  0  0  0  0  0  0  0
   22.8014   -8.3471  -15.6899 C   0  0  0  0  0  0  0  0  0  0  0  0
   24.0370   -8.3086  -15.4574 O   0  0  0  0  0  0  0  0  0  0  0  0
   20.7911   -4.9380  -16.4953 C   0  0  0  0  0  0  0  0  0  0  0  0
   22.2597   -4.9329  -16.1910 C   0  0  1  0  0  0  0  0  0  0  0  0
   22.6291   -3.6461  -15.8082 O   0  0  0  0  0  0  0  0  0  0  0  0
   22.5455   -5.9235  -15.0541 C   0  0  2  0  0  0  0  0  0  0  0  0
   22.0031   -7.1949  -15.4727 N   0  0  0  0  0  0  0  0  0  0  0  0
   21.7707   -5.4594  -13.8650 C   0  0  0  0  0  0  0  0  0  0  0  0
   22.1957   -4.3726  -13.1130 O   0  0  0  0  0  0  0  0  0  0  0  0
   20.7136   -6.0290  -13.5018 O   0  0  0  0  0  0  0  0  0  0  0  0
  2  4  1  0
  2  1  1  1
  3  2  1  0
  4  5  1  1
  6  7  2  0
  6  4  1  0
  8  6  1  0
  9 12  1  0
  9  8  1  0
 10 11  1  0
  9 10  1  1
 12 18  1  0
 13 12  2  0
 15 14  1  1
 15 16  1  0
 17 19  1  0
 17 15  1  0
 17 18  1  6
 19 20  1  0
 21 19  2  0
M  END
$$$$
