VCT.pdb
     RDKit          3D

 21 20  0  0  1  0  0  0  0  0999 V2000
   21.8948  -15.6114  -15.4377 C   0  0  0  0  0  0  0  0  0  0  0  0
   20.4301  -15.8555  -15.8372 C   0  0  2  0  0  0  0  0  0  0  0  0
   20.2363  -17.3482  -15.6996 C   0  0  0  0  0  0  0  0  0  0  0  0
   20.2400  -15.3807  -17.2688 C   0  0  2  0  0  0  0  0  0  0  0  0
   21.1432  -16.2088  -18.0743 N   0  0  0  0  0  0  0  0  0  0  0  0
   20.5987  -13.9793  -17.4831 C   0  0  0  0  0  0  0  0  0  0  0  0
   21.7410  -13.7122  -17.9863 O   0  0  0  0  0  0  0  0  0  0  0  0
   19.8057  -12.8459  -17.1911 N   0  0  0  0  0  0  0  0  0  0  0  0
   20.2479  -11.4777  -17.3866 C   0  0  1  0  0  0  0  0  0  0  0  0
   19.1305  -10.7891  -18.1818 C   0  0  0  0  0  0  0  0  0  0  0  0
   19.3758  -11.2186  -19.9302 S   0  0  0  0  0  0  0  0  0  0  0  0
   20.3374  -10.7438  -16.0952 C   0  0  0  0  0  0  0  0  0  0  0  0
   19.5383  -10.9389  -15.1437 O   0  0  0  0  0  0  0  0  0  0  0  0
   23.2281  -10.8464  -13.9429 C   0  0  0  0  0  0  0  0  0  0  0  0
   23.1234   -9.4144  -14.3763 C   0  0  1  0  0  0  0  0  0  0  0  0
   23.9353   -9.2281  -15.4921 O   0  0  0  0  0  0  0  0  0  0  0  0
   21.6636   -9.0963  -14.7276 C   0  0  2  0  0  0  0  0  0  0  0  0
   21.3789   -9.7901  -15.9618 N   0  0  0  0  0  0  0  0  0  0  0  0
   21.5879   -7.6291  -14.9939 C   0  0  0  0  0  0  0  0  0  0  0  0
   21.6086   -6.7103  -13.9533 O   0  0  0  0  0  0  0  0  0  0  0  0
   21.5033   -7.1726  -16.1594 O   0  0  0  0  0  0  0  0  0  0  0  0
  2  4  1  0
  2  1  1  6
  3  2  1  0
  4  5  1  6
  6  7  2  0
  6  4  1  0
  8  6  1  0
  9 12  1  0
  9  8  1  0
 10 11  1  0
  9 10  1  6
 12 18  1  0
 13 12  2  0
 15 14  1  6
 15 16  1  0
 17 19  1  0
 17 15  1  0
 17 18  1  6
 19 20  1  0
 21 19  2  0
M  END
$$$$
