VCT.pdb
     RDKit          3D

 21 20  0  0  1  0  0  0  0  0999 V2000
   21.6570  -13.9922  -16.4856 C   0  0  0  0  0  0  0  0  0  0  0  0
   20.2388  -14.0751  -17.0740 C   0  0  2  0  0  0  0  0  0  0  0  0
   20.3177  -15.1645  -18.1189 C   0  0  0  0  0  0  0  0  0  0  0  0
   19.8923  -12.7236  -17.6777 C   0  0  2  0  0  0  0  0  0  0  0  0
   20.8053  -12.5617  -18.8137 N   0  0  0  0  0  0  0  0  0  0  0  0
   20.0963  -11.5964  -16.7687 C   0  0  0  0  0  0  0  0  0  0  0  0
   19.2841  -11.4428  -15.7958 O   0  0  0  0  0  0  0  0  0  0  0  0
   21.1197  -10.6236  -16.8390 N   0  0  0  0  0  0  0  0  0  0  0  0
   21.2294   -9.4984  -15.9294 C   0  0  1  0  0  0  0  0  0  0  0  0
   22.7323   -9.3052  -15.6859 C   0  0  0  0  0  0  0  0  0  0  0  0
   23.1990  -10.4098  -14.3208 S   0  0  0  0  0  0  0  0  0  0  0  0
   20.7563   -8.2374  -16.5624 C   0  0  0  0  0  0  0  0  0  0  0  0
   21.0274   -7.9283  -17.7511 O   0  0  0  0  0  0  0  0  0  0  0  0
   17.2865   -4.8308  -16.1711 C   0  0  0  0  0  0  0  0  0  0  0  0
   17.9394   -6.1100  -15.7391 C   0  0  1  0  0  0  0  0  0  0  0  0
   17.2097   -7.1773  -16.2563 O   0  0  0  0  0  0  0  0  0  0  0  0
   19.3789   -6.1492  -16.2700 C   0  0  2  0  0  0  0  0  0  0  0  0
   19.9682   -7.3676  -15.7660 N   0  0  0  0  0  0  0  0  0  0  0  0
   20.1028   -4.9969  -15.6557 C   0  0  0  0  0  0  0  0  0  0  0  0
   20.3174   -3.8243  -16.3673 O   0  0  0  0  0  0  0  0  0  0  0  0
   20.5421   -5.0428  -14.4814 O   0  0  0  0  0  0  0  0  0  0  0  0
  2  4  1  0
  2  1  1  6
  3  2  1  0
  4  5  1  6
  6  7  2  0
  6  4  1  0
  8  6  1  0
  9 12  1  0
  9  8  1  0
 10 11  1  0
  9 10  1  6
 12 18  1  0
 13 12  2  0
 15 14  1  6
 15 16  1  0
 17 19  1  0
 17 15  1  0
 17 18  1  1
 19 20  1  0
 21 19  2  0
M  END
$$$$
