KKQ.pdb
     RDKit          3D

 28 27  0  0  1  0  0  0  0  0999 V2000
    5.3108  -16.8458   20.4031 N   0  0  0  0  0  0  0  0  0  0  0  0
    6.5681  -16.7484   21.1167 C   0  0  1  0  0  0  0  0  0  0  0  0
    7.0676  -15.3415   21.1094 C   0  0  0  0  0  0  0  0  0  0  0  0
    7.5522  -14.8620   19.7645 C   0  0  0  0  0  0  0  0  0  0  0  0
    8.0446  -13.4506   19.8741 C   0  0  0  0  0  0  0  0  0  0  0  0
    8.6378  -12.9336   18.5972 C   0  0  0  0  0  0  0  0  0  0  0  0
    9.0679  -11.5599   18.6967 N   0  0  0  0  0  0  0  0  0  0  0  0
    6.4359  -17.1692   22.5329 C   0  0  0  0  0  0  0  0  0  0  0  0
    5.9810  -16.3410   23.3478 O   0  0  0  0  0  0  0  0  0  0  0  0
    6.8016  -18.4572   22.9869 N   0  0  0  0  0  0  0  0  0  0  0  0
    6.7535  -18.8310   24.3799 C   0  0  1  0  0  0  0  0  0  0  0  0
    6.6534  -20.3162   24.4942 C   0  0  0  0  0  0  0  0  0  0  0  0
    6.7415  -20.7482   25.9182 C   0  0  0  0  0  0  0  0  0  0  0  0
    6.7813  -22.2359   26.0575 C   0  0  0  0  0  0  0  0  0  0  0  0
    6.9041  -22.6472   27.5277 C   0  0  0  0  0  0  0  0  0  0  0  0
    6.9594  -24.0679   27.6892 N   0  0  0  0  0  0  0  0  0  0  0  0
    8.0421  -18.3338   24.9990 C   0  0  0  0  0  0  0  0  0  0  0  0
    9.1540  -18.4716   24.4331 O   0  0  0  0  0  0  0  0  0  0  0  0
    8.6004  -13.6022   28.9723 N   0  0  0  0  0  0  0  0  0  0  0  0
    9.9085  -14.1432   29.0326 C   0  0  0  0  0  0  0  0  0  0  0  0
   10.7638  -13.5175   29.7088 O   0  0  0  0  0  0  0  0  0  0  0  0
   10.2406  -15.4026   28.3185 C   0  0  0  0  0  0  0  0  0  0  0  0
    8.9925  -15.8664   27.5977 C   0  0  0  0  0  0  0  0  0  0  0  0
    9.2547  -17.1414   26.8116 C   0  0  2  0  0  0  0  0  0  0  0  0
    8.0385  -17.6849   26.2595 N   0  0  0  0  0  0  0  0  0  0  0  0
    9.8080  -18.1125   27.7802 C   0  0  0  0  0  0  0  0  0  0  0  0
    9.1102  -18.9742   28.3775 O   0  0  0  0  0  0  0  0  0  0  0  0
   11.1625  -18.0806   28.0511 O   0  0  0  0  0  0  0  0  0  0  0  0
  2  1  1  1
  3  2  1  0
  4  3  1  0
  4  5  1  0
  5  6  1  0
  6  7  1  0
  8  9  2  0
  8  2  1  0
 10  8  1  0
 11 10  1  0
 11 12  1  6
 13 12  1  0
 14 13  1  0
 15 14  1  0
 16 15  1  0
 17 11  1  0
 18 17  2  0
 19 20  1  0
 20 21  2  0
 22 20  1  0
 22 23  1  0
 24 23  1  1
 24 25  1  0
 24 26  1  0
 25 17  1  0
 26 28  1  0
 27 26  2  0
M  END
$$$$
