KKQ.pdb
     RDKit          3D

 28 27  0  0  1  0  0  0  0  0999 V2000
   11.0442  -19.0280   15.5373 N   0  0  0  0  0  0  0  0  0  0  0  0
   11.4043  -17.6576   15.8407 C   0  0  1  0  0  0  0  0  0  0  0  0
   10.4966  -16.7077   15.1317 C   0  0  0  0  0  0  0  0  0  0  0  0
   10.4752  -16.8714   13.6329 C   0  0  0  0  0  0  0  0  0  0  0  0
    9.5031  -15.9036   13.0287 C   0  0  0  0  0  0  0  0  0  0  0  0
    9.4904  -15.9414   11.5294 C   0  0  0  0  0  0  0  0  0  0  0  0
    8.4342  -15.1405   10.9591 N   0  0  0  0  0  0  0  0  0  0  0  0
   11.3099  -17.3680   17.2924 C   0  0  0  0  0  0  0  0  0  0  0  0
   11.6260  -16.2254   17.6813 O   0  0  0  0  0  0  0  0  0  0  0  0
   10.8806  -18.3267   18.2385 N   0  0  0  0  0  0  0  0  0  0  0  0
   10.8518  -18.0581   19.6562 C   0  0  1  0  0  0  0  0  0  0  0  0
   10.2434  -19.2191   20.3711 C   0  0  0  0  0  0  0  0  0  0  0  0
   10.2878  -19.0184   21.8475 C   0  0  0  0  0  0  0  0  0  0  0  0
    9.6948  -20.1697   22.5938 C   0  0  0  0  0  0  0  0  0  0  0  0
    9.7720  -19.9426   24.1065 C   0  0  0  0  0  0  0  0  0  0  0  0
    9.1171  -20.9796   24.8435 N   0  0  0  0  0  0  0  0  0  0  0  0
   12.2911  -17.8639   20.0822 C   0  0  0  0  0  0  0  0  0  0  0  0
   13.2319  -18.5324   19.5887 O   0  0  0  0  0  0  0  0  0  0  0  0
   16.1775  -14.8972   18.3197 N   0  0  0  0  0  0  0  0  0  0  0  0
   15.0834  -14.1562   18.8307 C   0  0  0  0  0  0  0  0  0  0  0  0
   14.8608  -13.0274   18.3242 O   0  0  0  0  0  0  0  0  0  0  0  0
   14.2410  -14.7061   19.9235 C   0  0  0  0  0  0  0  0  0  0  0  0
   14.8017  -16.0613   20.3001 C   0  0  0  0  0  0  0  0  0  0  0  0
   14.0095  -16.6859   21.4378 C   0  0  2  0  0  0  0  0  0  0  0  0
   12.6327  -16.9051   21.0691 N   0  0  0  0  0  0  0  0  0  0  0  0
   14.0505  -15.7104   22.5486 C   0  0  0  0  0  0  0  0  0  0  0  0
   13.0390  -15.0850   22.9634 O   0  0  0  0  0  0  0  0  0  0  0  0
   15.2591  -15.4650   23.1714 O   0  0  0  0  0  0  0  0  0  0  0  0
  2  1  1  1
  3  2  1  0
  4  3  1  0
  4  5  1  0
  5  6  1  0
  6  7  1  0
  8  9  2  0
  8  2  1  0
 10  8  1  0
 11 10  1  0
 11 12  1  1
 13 12  1  0
 14 13  1  0
 15 14  1  0
 16 15  1  0
 17 11  1  0
 18 17  2  0
 19 20  1  0
 20 21  2  0
 22 20  1  0
 22 23  1  0
 24 23  1  6
 24 25  1  0
 24 26  1  0
 25 17  1  0
 26 28  1  0
 27 26  2  0
M  END
$$$$
