KKQ.pdb
     RDKit          3D

 28 27  0  0  1  0  0  0  0  0999 V2000
    8.4389  -12.6493   19.0219 N   0  0  0  0  0  0  0  0  0  0  0  0
    8.5720  -14.0891   19.1140 C   0  0  1  0  0  0  0  0  0  0  0  0
    9.9400  -14.5171   18.6963 C   0  0  0  0  0  0  0  0  0  0  0  0
   11.0573  -13.8732   19.4777 C   0  0  0  0  0  0  0  0  0  0  0  0
   12.3808  -14.2864   18.9085 C   0  0  0  0  0  0  0  0  0  0  0  0
   13.5466  -13.6655   19.6193 C   0  0  0  0  0  0  0  0  0  0  0  0
   14.8154  -14.0326   19.0384 N   0  0  0  0  0  0  0  0  0  0  0  0
    8.3525  -14.5789   20.4968 C   0  0  0  0  0  0  0  0  0  0  0  0
    8.2418  -13.7311   21.4056 O   0  0  0  0  0  0  0  0  0  0  0  0
    8.2653  -15.9528   20.8182 N   0  0  0  0  0  0  0  0  0  0  0  0
    7.8090  -16.4208   22.1048 C   0  0  1  0  0  0  0  0  0  0  0  0
    7.3104  -17.8223   21.9773 C   0  0  0  0  0  0  0  0  0  0  0  0
    6.9087  -18.3677   23.3052 C   0  0  0  0  0  0  0  0  0  0  0  0
    6.3535  -19.7519   23.2046 C   0  0  0  0  0  0  0  0  0  0  0  0
    5.8913  -20.2597   24.5736 C   0  0  0  0  0  0  0  0  0  0  0  0
    5.4275  -21.6123   24.5207 N   0  0  0  0  0  0  0  0  0  0  0  0
    9.0068  -16.3626   23.0284 C   0  0  0  0  0  0  0  0  0  0  0  0
   10.1011  -16.9063   22.7414 O   0  0  0  0  0  0  0  0  0  0  0  0
    9.1108  -13.8646   28.8518 N   0  0  0  0  0  0  0  0  0  0  0  0
   10.3479  -14.5531   28.7944 C   0  0  0  0  0  0  0  0  0  0  0  0
   11.0808  -14.5141   29.8149 O   0  0  0  0  0  0  0  0  0  0  0  0
   10.7488  -15.2883   27.5676 C   0  0  0  0  0  0  0  0  0  0  0  0
    9.6330  -15.1383   26.5552 C   0  0  0  0  0  0  0  0  0  0  0  0
   10.0072  -15.7783   25.2275 C   0  0  2  0  0  0  0  0  0  0  0  0
    8.9337  -15.6813   24.2695 N   0  0  0  0  0  0  0  0  0  0  0  0
   10.2527  -17.2077   25.5173 C   0  0  0  0  0  0  0  0  0  0  0  0
   11.4027  -17.7172   25.5815 O   0  0  0  0  0  0  0  0  0  0  0  0
    9.1684  -18.0369   25.7305 O   0  0  0  0  0  0  0  0  0  0  0  0
  2  1  1  1
  3  2  1  0
  4  3  1  0
  4  5  1  0
  5  6  1  0
  6  7  1  0
  8  9  2  0
  8  2  1  0
 10  8  1  0
 11 10  1  0
 11 12  1  6
 13 12  1  0
 14 13  1  0
 15 14  1  0
 16 15  1  0
 17 11  1  0
 18 17  2  0
 19 20  1  0
 20 21  2  0
 22 20  1  0
 22 23  1  0
 24 23  1  1
 24 25  1  0
 24 26  1  0
 25 17  1  0
 26 28  1  0
 27 26  2  0
M  END
$$$$
