KKQ.pdb
     RDKit          3D

 28 27  0  0  1  0  0  0  0  0999 V2000
    8.7631  -16.1723   18.7295 N   0  0  0  0  0  0  0  0  0  0  0  0
    7.9534  -16.4985   19.8860 C   0  0  1  0  0  0  0  0  0  0  0  0
    7.9276  -17.9746   20.1085 C   0  0  0  0  0  0  0  0  0  0  0  0
    7.6332  -18.7837   18.8706 C   0  0  0  0  0  0  0  0  0  0  0  0
    7.6141  -20.2437   19.2091 C   0  0  0  0  0  0  0  0  0  0  0  0
    7.3720  -21.1209   18.0167 C   0  0  0  0  0  0  0  0  0  0  0  0
    7.3570  -22.5248   18.3496 N   0  0  0  0  0  0  0  0  0  0  0  0
    8.4749  -15.8684   21.1234 C   0  0  0  0  0  0  0  0  0  0  0  0
    9.7096  -15.8689   21.3030 O   0  0  0  0  0  0  0  0  0  0  0  0
    7.6350  -15.2752   22.0936 N   0  0  0  0  0  0  0  0  0  0  0  0
    8.1527  -14.6097   23.2648 C   0  0  1  0  0  0  0  0  0  0  0  0
    7.0364  -13.9295   23.9859 C   0  0  0  0  0  0  0  0  0  0  0  0
    7.5164  -13.3234   25.2604 C   0  0  0  0  0  0  0  0  0  0  0  0
    6.4424  -12.5571   25.9631 C   0  0  0  0  0  0  0  0  0  0  0  0
    6.9652  -11.9481   27.2675 C   0  0  0  0  0  0  0  0  0  0  0  0
    5.9580  -11.2030   27.9586 N   0  0  0  0  0  0  0  0  0  0  0  0
    8.7682  -15.6882   24.1303 C   0  0  0  0  0  0  0  0  0  0  0  0
    8.1506  -16.7383   24.4325 O   0  0  0  0  0  0  0  0  0  0  0  0
   15.3675  -18.6247   25.6868 N   0  0  0  0  0  0  0  0  0  0  0  0
   14.4294  -17.6808   25.2003 C   0  0  0  0  0  0  0  0  0  0  0  0
   14.8659  -16.7488   24.4786 O   0  0  0  0  0  0  0  0  0  0  0  0
   12.9883  -17.8020   25.5394 C   0  0  0  0  0  0  0  0  0  0  0  0
   12.2629  -16.6430   24.8889 C   0  0  0  0  0  0  0  0  0  0  0  0
   10.7771  -16.6758   25.2106 C   0  0  2  0  0  0  0  0  0  0  0  0
   10.0844  -15.5480   24.6380 N   0  0  0  0  0  0  0  0  0  0  0  0
   10.6756  -16.5929   26.6837 C   0  0  0  0  0  0  0  0  0  0  0  0
   10.2216  -15.5895   27.2948 O   0  0  0  0  0  0  0  0  0  0  0  0
   11.0992  -17.6694   27.4392 O   0  0  0  0  0  0  0  0  0  0  0  0
  2  1  1  6
  3  2  1  0
  4  3  1  0
  4  5  1  0
  5  6  1  0
  6  7  1  0
  8  9  2  0
  8  2  1  0
 10  8  1  0
 11 10  1  0
 11 12  1  1
 13 12  1  0
 14 13  1  0
 15 14  1  0
 16 15  1  0
 17 11  1  0
 18 17  2  0
 19 20  1  0
 20 21  2  0
 22 20  1  0
 22 23  1  0
 24 23  1  1
 24 25  1  0
 24 26  1  0
 25 17  1  0
 26 28  1  0
 27 26  2  0
M  END
$$$$
