KKQ.pdb
     RDKit          3D

 28 27  0  0  1  0  0  0  0  0999 V2000
    9.0712  -19.1077   16.9455 N   0  0  0  0  0  0  0  0  0  0  0  0
    8.7172  -19.2697   18.3412 C   0  0  1  0  0  0  0  0  0  0  0  0
    9.2419  -20.5642   18.8684 C   0  0  0  0  0  0  0  0  0  0  0  0
    9.7127  -21.5227   17.8038 C   0  0  0  0  0  0  0  0  0  0  0  0
    8.7565  -22.6717   17.6940 C   0  0  0  0  0  0  0  0  0  0  0  0
    9.1907  -23.7053   16.6976 C   0  0  0  0  0  0  0  0  0  0  0  0
    8.2238  -24.7636   16.5328 N   0  0  0  0  0  0  0  0  0  0  0  0
    9.2748  -18.1841   19.1843 C   0  0  0  0  0  0  0  0  0  0  0  0
   10.4998  -17.9586   19.1106 O   0  0  0  0  0  0  0  0  0  0  0  0
    8.4794  -17.4061   20.0564 N   0  0  0  0  0  0  0  0  0  0  0  0
    9.0149  -16.3034   20.8179 C   0  0  1  0  0  0  0  0  0  0  0  0
    7.8958  -15.4408   21.3003 C   0  0  0  0  0  0  0  0  0  0  0  0
    8.0334  -14.0500   20.7817 C   0  0  0  0  0  0  0  0  0  0  0  0
    6.9110  -13.6717   19.8698 C   0  0  0  0  0  0  0  0  0  0  0  0
    7.0760  -12.2366   19.3611 C   0  0  0  0  0  0  0  0  0  0  0  0
    5.9858  -11.8288   18.5290 N   0  0  0  0  0  0  0  0  0  0  0  0
    9.7593  -16.9140   21.9858 C   0  0  0  0  0  0  0  0  0  0  0  0
    9.4617  -18.0394   22.4554 O   0  0  0  0  0  0  0  0  0  0  0  0
   16.1200  -17.1655   22.6412 N   0  0  0  0  0  0  0  0  0  0  0  0
   15.5100  -16.7810   23.8609 C   0  0  0  0  0  0  0  0  0  0  0  0
   16.1832  -16.0656   24.6453 O   0  0  0  0  0  0  0  0  0  0  0  0
   14.1271  -17.2150   24.1855 C   0  0  0  0  0  0  0  0  0  0  0  0
   13.1888  -16.5266   23.2169 C   0  0  0  0  0  0  0  0  0  0  0  0
   11.7431  -16.9155   23.4834 C   0  0  2  0  0  0  0  0  0  0  0  0
   10.8358  -16.2256   22.6000 N   0  0  0  0  0  0  0  0  0  0  0  0
   11.4568  -16.4981   24.8730 C   0  0  0  0  0  0  0  0  0  0  0  0
   12.0030  -17.0174   25.8821 O   0  0  0  0  0  0  0  0  0  0  0  0
   10.5423  -15.4847   25.0861 O   0  0  0  0  0  0  0  0  0  0  0  0
  2  1  1  6
  3  2  1  0
  4  3  1  0
  4  5  1  0
  5  6  1  0
  6  7  1  0
  8  9  2  0
  8  2  1  0
 10  8  1  0
 11 10  1  0
 11 12  1  1
 13 12  1  0
 14 13  1  0
 15 14  1  0
 16 15  1  0
 17 11  1  0
 18 17  2  0
 19 20  1  0
 20 21  2  0
 22 20  1  0
 22 23  1  0
 24 23  1  6
 24 25  1  0
 24 26  1  0
 25 17  1  0
 26 28  1  0
 27 26  2  0
M  END
$$$$
