KKQ.pdb
     RDKit          3D

 28 27  0  0  1  0  0  0  0  0999 V2000
    8.0156  -16.3642   19.6546 N   0  0  0  0  0  0  0  0  0  0  0  0
    8.9965  -15.2978   19.6694 C   0  0  1  0  0  0  0  0  0  0  0  0
    8.5789  -14.1887   18.7615 C   0  0  0  0  0  0  0  0  0  0  0  0
    7.9467  -14.6473   17.4716 C   0  0  0  0  0  0  0  0  0  0  0  0
    8.4538  -13.8159   16.3322 C   0  0  0  0  0  0  0  0  0  0  0  0
    7.7521  -14.1016   15.0377 C   0  0  0  0  0  0  0  0  0  0  0  0
    8.2335  -13.2858   13.9492 N   0  0  0  0  0  0  0  0  0  0  0  0
    9.1712  -14.7241   21.0261 C   0  0  0  0  0  0  0  0  0  0  0  0
    9.9554  -13.7624   21.1565 O   0  0  0  0  0  0  0  0  0  0  0  0
    8.4906  -15.2206   22.1614 N   0  0  0  0  0  0  0  0  0  0  0  0
    8.6236  -14.6228   23.4681 C   0  0  1  0  0  0  0  0  0  0  0  0
    7.2782  -14.2090   23.9661 C   0  0  0  0  0  0  0  0  0  0  0  0
    7.3972  -13.3990   25.2119 C   0  0  0  0  0  0  0  0  0  0  0  0
    6.0646  -12.9837   25.7468 C   0  0  0  0  0  0  0  0  0  0  0  0
    6.2207  -12.1342   27.0117 C   0  0  0  0  0  0  0  0  0  0  0  0
    5.0144  -11.4440   27.3521 N   0  0  0  0  0  0  0  0  0  0  0  0
    9.2202  -15.6865   24.3645 C   0  0  0  0  0  0  0  0  0  0  0  0
    9.0498  -16.9123   24.1546 O   0  0  0  0  0  0  0  0  0  0  0  0
   12.5040  -16.5817   30.8613 N   0  0  0  0  0  0  0  0  0  0  0  0
   11.3862  -16.1890   30.0842 C   0  0  0  0  0  0  0  0  0  0  0  0
   10.6547  -15.2747   30.5417 O   0  0  0  0  0  0  0  0  0  0  0  0
   11.1031  -16.8425   28.7807 C   0  0  0  0  0  0  0  0  0  0  0  0
   10.7039  -15.7604   27.7998 C   0  0  0  0  0  0  0  0  0  0  0  0
   10.4699  -16.3368   26.4123 C   0  0  2  0  0  0  0  0  0  0  0  0
   10.0050  -15.3303   25.4902 N   0  0  0  0  0  0  0  0  0  0  0  0
    9.4124  -17.3590   26.5670 C   0  0  0  0  0  0  0  0  0  0  0  0
    9.6426  -18.5962   26.6185 O   0  0  0  0  0  0  0  0  0  0  0  0
    8.0978  -16.9443   26.6610 O   0  0  0  0  0  0  0  0  0  0  0  0
  2  1  1  1
  3  2  1  0
  4  3  1  0
  4  5  1  0
  5  6  1  0
  6  7  1  0
  8  9  2  0
  8  2  1  0
 10  8  1  0
 11 10  1  0
 11 12  1  1
 13 12  1  0
 14 13  1  0
 15 14  1  0
 16 15  1  0
 17 11  1  0
 18 17  2  0
 19 20  1  0
 20 21  2  0
 22 20  1  0
 22 23  1  0
 24 23  1  1
 24 25  1  0
 24 26  1  0
 25 17  1  0
 26 28  1  0
 27 26  2  0
M  END
$$$$
