KKQ.pdb
     RDKit          3D

 28 27  0  0  1  0  0  0  0  0999 V2000
    9.4576  -16.4990   19.5005 N   0  0  0  0  0  0  0  0  0  0  0  0
    8.4409  -16.5936   20.5286 C   0  0  1  0  0  0  0  0  0  0  0  0
    8.2309  -18.0165   20.9290 C   0  0  0  0  0  0  0  0  0  0  0  0
    7.4075  -18.8203   19.9545 C   0  0  0  0  0  0  0  0  0  0  0  0
    7.2304  -20.2171   20.4683 C   0  0  0  0  0  0  0  0  0  0  0  0
    6.3794  -21.0694   19.5742 C   0  0  0  0  0  0  0  0  0  0  0  0
    6.2337  -22.4194   20.0622 N   0  0  0  0  0  0  0  0  0  0  0  0
    8.8134  -15.8357   21.7480 C   0  0  0  0  0  0  0  0  0  0  0  0
   10.0258  -15.6328   21.9615 O   0  0  0  0  0  0  0  0  0  0  0  0
    7.8574  -15.3417   22.6648 N   0  0  0  0  0  0  0  0  0  0  0  0
    8.2140  -14.4882   23.7725 C   0  0  1  0  0  0  0  0  0  0  0  0
    6.9806  -13.8692   24.3421 C   0  0  0  0  0  0  0  0  0  0  0  0
    7.3125  -12.9811   25.4924 C   0  0  0  0  0  0  0  0  0  0  0  0
    6.1497  -12.1418   25.9140 C   0  0  0  0  0  0  0  0  0  0  0  0
    6.5281  -11.2248   27.0809 C   0  0  0  0  0  0  0  0  0  0  0  0
    5.4071  -10.4833   27.5720 N   0  0  0  0  0  0  0  0  0  0  0  0
    8.8862  -15.3776   24.7963 C   0  0  0  0  0  0  0  0  0  0  0  0
    9.2536  -14.9494   25.9175 O   0  0  0  0  0  0  0  0  0  0  0  0
   13.0046  -19.6946   23.7184 N   0  0  0  0  0  0  0  0  0  0  0  0
   12.8913  -19.7804   25.1281 C   0  0  0  0  0  0  0  0  0  0  0  0
   13.7652  -20.4448   25.7404 O   0  0  0  0  0  0  0  0  0  0  0  0
   11.7764  -19.1052   25.8404 C   0  0  0  0  0  0  0  0  0  0  0  0
   10.9788  -18.3270   24.8153 C   0  0  0  0  0  0  0  0  0  0  0  0
    9.8290  -17.5768   25.4691 C   0  0  2  0  0  0  0  0  0  0  0  0
    9.1283  -16.7470   24.5205 N   0  0  0  0  0  0  0  0  0  0  0  0
   10.4404  -16.7057   26.4961 C   0  0  0  0  0  0  0  0  0  0  0  0
   11.3297  -15.8504   26.2435 O   0  0  0  0  0  0  0  0  0  0  0  0
   10.0198  -16.8294   27.8064 O   0  0  0  0  0  0  0  0  0  0  0  0
  2  1  1  6
  3  2  1  0
  4  3  1  0
  4  5  1  0
  5  6  1  0
  6  7  1  0
  8  9  2  0
  8  2  1  0
 10  8  1  0
 11 10  1  0
 11 12  1  1
 13 12  1  0
 14 13  1  0
 15 14  1  0
 16 15  1  0
 17 11  1  0
 18 17  2  0
 19 20  1  0
 20 21  2  0
 22 20  1  0
 22 23  1  0
 24 23  1  6
 24 25  1  0
 24 26  1  0
 25 17  1  0
 26 28  1  0
 27 26  2  0
M  END
$$$$
