KKQ.pdb
     RDKit          3D

 28 27  0  0  1  0  0  0  0  0999 V2000
    8.2152  -19.1633   17.6936 N   0  0  0  0  0  0  0  0  0  0  0  0
    9.4788  -18.4652   17.5685 C   0  0  1  0  0  0  0  0  0  0  0  0
    9.5514  -17.7419   16.2645 C   0  0  0  0  0  0  0  0  0  0  0  0
    9.2260  -18.5935   15.0635 C   0  0  0  0  0  0  0  0  0  0  0  0
    9.3197  -17.7699   13.8147 C   0  0  0  0  0  0  0  0  0  0  0  0
    9.0446  -18.5577   12.5683 C   0  0  0  0  0  0  0  0  0  0  0  0
    9.0226  -17.7370   11.3818 N   0  0  0  0  0  0  0  0  0  0  0  0
    9.6684  -17.4644   18.6468 C   0  0  0  0  0  0  0  0  0  0  0  0
   10.7652  -16.8728   18.7077 O   0  0  0  0  0  0  0  0  0  0  0  0
    8.6650  -17.1607   19.5952 N   0  0  0  0  0  0  0  0  0  0  0  0
    8.8581  -16.1884   20.6440 C   0  0  1  0  0  0  0  0  0  0  0  0
    7.5301  -15.7270   21.1466 C   0  0  0  0  0  0  0  0  0  0  0  0
    7.0489  -14.5464   20.3740 C   0  0  0  0  0  0  0  0  0  0  0  0
    7.9645  -13.3721   20.5052 C   0  0  0  0  0  0  0  0  0  0  0  0
    7.3835  -12.1411   19.8031 C   0  0  0  0  0  0  0  0  0  0  0  0
    8.2262  -10.9927   19.9392 N   0  0  0  0  0  0  0  0  0  0  0  0
    9.6284  -16.8921   21.7406 C   0  0  0  0  0  0  0  0  0  0  0  0
    9.4089  -18.0880   22.0521 O   0  0  0  0  0  0  0  0  0  0  0  0
   15.8415  -16.3446   22.3343 N   0  0  0  0  0  0  0  0  0  0  0  0
   15.3560  -16.5619   23.6475 C   0  0  0  0  0  0  0  0  0  0  0  0
   16.0952  -16.2158   24.6035 O   0  0  0  0  0  0  0  0  0  0  0  0
   14.0220  -17.1765   23.8694 C   0  0  0  0  0  0  0  0  0  0  0  0
   13.0100  -16.3814   23.0719 C   0  0  0  0  0  0  0  0  0  0  0  0
   11.6097  -16.9500   23.2402 C   0  0  2  0  0  0  0  0  0  0  0  0
   10.6409  -16.2145   22.4657 N   0  0  0  0  0  0  0  0  0  0  0  0
   11.2779  -16.8019   24.6738 C   0  0  0  0  0  0  0  0  0  0  0  0
   10.4249  -15.9841   25.1099 O   0  0  0  0  0  0  0  0  0  0  0  0
   11.9335  -17.5992   25.5921 O   0  0  0  0  0  0  0  0  0  0  0  0
  2  1  1  1
  3  2  1  0
  4  3  1  0
  4  5  1  0
  5  6  1  0
  6  7  1  0
  8  9  2  0
  8  2  1  0
 10  8  1  0
 11 10  1  0
 11 12  1  1
 13 12  1  0
 14 13  1  0
 15 14  1  0
 16 15  1  0
 17 11  1  0
 18 17  2  0
 19 20  1  0
 20 21  2  0
 22 20  1  0
 22 23  1  0
 24 23  1  1
 24 25  1  0
 24 26  1  0
 25 17  1  0
 26 28  1  0
 27 26  2  0
M  END
$$$$
