KKQ.pdb
     RDKit          3D

 28 27  0  0  1  0  0  0  0  0999 V2000
    7.6287  -19.1045   19.7976 N   0  0  0  0  0  0  0  0  0  0  0  0
    8.9880  -18.7707   19.4231 C   0  0  1  0  0  0  0  0  0  0  0  0
    9.0725  -18.4788   17.9613 C   0  0  0  0  0  0  0  0  0  0  0  0
    7.8966  -18.9775   17.1600 C   0  0  0  0  0  0  0  0  0  0  0  0
    8.0842  -18.6345   15.7130 C   0  0  0  0  0  0  0  0  0  0  0  0
    6.9440  -19.0853   14.8489 C   0  0  0  0  0  0  0  0  0  0  0  0
    7.1138  -18.7190   13.4637 N   0  0  0  0  0  0  0  0  0  0  0  0
    9.4852  -17.5757   20.1477 C   0  0  0  0  0  0  0  0  0  0  0  0
   10.6536  -17.2005   19.9220 O   0  0  0  0  0  0  0  0  0  0  0  0
    8.6940  -16.8562   21.0723 N   0  0  0  0  0  0  0  0  0  0  0  0
    9.1546  -15.6468   21.7109 C   0  0  1  0  0  0  0  0  0  0  0  0
    7.9940  -14.7411   21.9590 C   0  0  0  0  0  0  0  0  0  0  0  0
    7.2836  -14.4248   20.6872 C   0  0  0  0  0  0  0  0  0  0  0  0
    8.0707  -13.5027   19.8128 C   0  0  0  0  0  0  0  0  0  0  0  0
    7.3375  -13.2355   18.4949 C   0  0  0  0  0  0  0  0  0  0  0  0
    8.1005  -12.4109   17.6088 N   0  0  0  0  0  0  0  0  0  0  0  0
    9.7896  -16.0705   23.0178 C   0  0  0  0  0  0  0  0  0  0  0  0
    9.1319  -16.6194   23.9353 O   0  0  0  0  0  0  0  0  0  0  0  0
   10.3853  -19.8811   24.5897 N   0  0  0  0  0  0  0  0  0  0  0  0
   11.7674  -20.0541   24.8489 C   0  0  0  0  0  0  0  0  0  0  0  0
   12.1010  -20.9995   25.6073 O   0  0  0  0  0  0  0  0  0  0  0  0
   12.7715  -19.1446   24.2400 C   0  0  0  0  0  0  0  0  0  0  0  0
   12.0277  -18.1529   23.3706 C   0  0  0  0  0  0  0  0  0  0  0  0
   11.9341  -16.7936   24.0457 C   0  0  2  0  0  0  0  0  0  0  0  0
   11.1712  -15.8592   23.2555 N   0  0  0  0  0  0  0  0  0  0  0  0
   13.3221  -16.2951   24.1556 C   0  0  0  0  0  0  0  0  0  0  0  0
   14.0590  -16.5025   25.1557 O   0  0  0  0  0  0  0  0  0  0  0  0
   13.8479  -15.5611   23.1098 O   0  0  0  0  0  0  0  0  0  0  0  0
  2  1  1  1
  3  2  1  0
  4  3  1  0
  4  5  1  0
  5  6  1  0
  6  7  1  0
  8  9  2  0
  8  2  1  0
 10  8  1  0
 11 10  1  0
 11 12  1  1
 13 12  1  0
 14 13  1  0
 15 14  1  0
 16 15  1  0
 17 11  1  0
 18 17  2  0
 19 20  1  0
 20 21  2  0
 22 20  1  0
 22 23  1  0
 24 23  1  6
 24 25  1  0
 24 26  1  0
 25 17  1  0
 26 28  1  0
 27 26  2  0
M  END
$$$$
