KKQ.pdb
     RDKit          3D

 28 27  0  0  1  0  0  0  0  0999 V2000
    6.1177  -16.6528   21.3210 N   0  0  0  0  0  0  0  0  0  0  0  0
    7.5414  -16.5329   21.5623 C   0  0  1  0  0  0  0  0  0  0  0  0
    7.9976  -15.1315   21.3234 C   0  0  0  0  0  0  0  0  0  0  0  0
    7.8618  -14.6698   19.8944 C   0  0  0  0  0  0  0  0  0  0  0  0
    8.3463  -13.2571   19.7675 C   0  0  0  0  0  0  0  0  0  0  0  0
    8.1448  -12.6872   18.3948 C   0  0  0  0  0  0  0  0  0  0  0  0
    8.4890  -11.2882   18.3144 N   0  0  0  0  0  0  0  0  0  0  0  0
    7.8993  -16.8885   22.9572 C   0  0  0  0  0  0  0  0  0  0  0  0
    7.1299  -16.5222   23.8686 O   0  0  0  0  0  0  0  0  0  0  0  0
    9.0647  -17.6177   23.2870 N   0  0  0  0  0  0  0  0  0  0  0  0
    9.4462  -17.8944   24.6510 C   0  0  1  0  0  0  0  0  0  0  0  0
   10.4841  -18.9674   24.6703 C   0  0  0  0  0  0  0  0  0  0  0  0
   10.9034  -19.2780   26.0667 C   0  0  0  0  0  0  0  0  0  0  0  0
   11.8602  -20.4248   26.1290 C   0  0  0  0  0  0  0  0  0  0  0  0
   12.2828  -20.7101   27.5732 C   0  0  0  0  0  0  0  0  0  0  0  0
   13.1538  -21.8413   27.6687 N   0  0  0  0  0  0  0  0  0  0  0  0
   10.0042  -16.6023   25.2077 C   0  0  0  0  0  0  0  0  0  0  0  0
   10.5053  -15.7170   24.4723 O   0  0  0  0  0  0  0  0  0  0  0  0
    6.1261  -12.2029   26.9129 N   0  0  0  0  0  0  0  0  0  0  0  0
    7.4688  -12.1696   26.4619 C   0  0  0  0  0  0  0  0  0  0  0  0
    7.7154  -11.5044   25.4242 O   0  0  0  0  0  0  0  0  0  0  0  0
    8.5331  -12.8985   27.1984 C   0  0  0  0  0  0  0  0  0  0  0  0
    8.6768  -14.2667   26.5661 C   0  0  0  0  0  0  0  0  0  0  0  0
    9.9044  -14.9903   27.0970 C   0  0  2  0  0  0  0  0  0  0  0  0
    9.9801  -16.3423   26.6012 N   0  0  0  0  0  0  0  0  0  0  0  0
    9.7487  -15.0352   28.5670 C   0  0  0  0  0  0  0  0  0  0  0  0
    8.6420  -15.2009   29.1449 O   0  0  0  0  0  0  0  0  0  0  0  0
   10.8721  -14.8884   29.3577 O   0  0  0  0  0  0  0  0  0  0  0  0
  2  1  1  1
  3  2  1  0
  4  3  1  0
  4  5  1  0
  5  6  1  0
  6  7  1  0
  8  9  2  0
  8  2  1  0
 10  8  1  0
 11 10  1  0
 11 12  1  6
 13 12  1  0
 14 13  1  0
 15 14  1  0
 16 15  1  0
 17 11  1  0
 18 17  2  0
 19 20  1  0
 20 21  2  0
 22 20  1  0
 22 23  1  0
 24 23  1  6
 24 25  1  0
 24 26  1  0
 25 17  1  0
 26 28  1  0
 27 26  2  0
M  END
$$$$
