KKQ.pdb
     RDKit          3D

 28 27  0  0  1  0  0  0  0  0999 V2000
    5.1775  -16.4918   20.2522 N   0  0  0  0  0  0  0  0  0  0  0  0
    6.4454  -16.3445   20.9379 C   0  0  1  0  0  0  0  0  0  0  0  0
    6.8742  -14.9144   20.9458 C   0  0  0  0  0  0  0  0  0  0  0  0
    7.7270  -14.5158   19.7679 C   0  0  0  0  0  0  0  0  0  0  0  0
    8.1692  -13.0916   19.9181 C   0  0  0  0  0  0  0  0  0  0  0  0
    8.9612  -12.5946   18.7452 C   0  0  0  0  0  0  0  0  0  0  0  0
    8.3444  -12.9112   17.4798 N   0  0  0  0  0  0  0  0  0  0  0  0
    6.3687  -16.7966   22.3485 C   0  0  0  0  0  0  0  0  0  0  0  0
    5.4724  -16.3122   23.0688 O   0  0  0  0  0  0  0  0  0  0  0  0
    7.2622  -17.7438   22.8991 N   0  0  0  0  0  0  0  0  0  0  0  0
    7.1417  -18.2275   24.2534 C   0  0  1  0  0  0  0  0  0  0  0  0
    6.9851  -19.7122   24.2402 C   0  0  0  0  0  0  0  0  0  0  0  0
    6.9376  -20.2553   25.6277 C   0  0  0  0  0  0  0  0  0  0  0  0
    6.9139  -21.7497   25.6505 C   0  0  0  0  0  0  0  0  0  0  0  0
    6.9291  -22.2777   27.0881 C   0  0  0  0  0  0  0  0  0  0  0  0
    6.8991  -23.7074   27.1398 N   0  0  0  0  0  0  0  0  0  0  0  0
    8.4193  -17.8321   24.9622 C   0  0  0  0  0  0  0  0  0  0  0  0
    9.5528  -18.0330   24.4618 O   0  0  0  0  0  0  0  0  0  0  0  0
    9.1090  -13.5350   29.4458 N   0  0  0  0  0  0  0  0  0  0  0  0
   10.3566  -14.2026   29.5188 C   0  0  0  0  0  0  0  0  0  0  0  0
   11.2105  -13.7493   30.3223 O   0  0  0  0  0  0  0  0  0  0  0  0
   10.6297  -15.3916   28.6714 C   0  0  0  0  0  0  0  0  0  0  0  0
    9.3928  -15.6587   27.8399 C   0  0  0  0  0  0  0  0  0  0  0  0
    9.5986  -16.8498   26.9172 C   0  0  2  0  0  0  0  0  0  0  0  0
    8.3801  -17.2111   26.2361 N   0  0  0  0  0  0  0  0  0  0  0  0
   10.0044  -17.9753   27.7866 C   0  0  0  0  0  0  0  0  0  0  0  0
    9.2013  -18.8411   28.2244 O   0  0  0  0  0  0  0  0  0  0  0  0
   11.3341  -18.0918   28.1433 O   0  0  0  0  0  0  0  0  0  0  0  0
  2  1  1  1
  3  2  1  0
  4  3  1  0
  4  5  1  0
  5  6  1  0
  6  7  1  0
  8  9  2  0
  8  2  1  0
 10  8  1  0
 11 10  1  0
 11 12  1  6
 13 12  1  0
 14 13  1  0
 15 14  1  0
 16 15  1  0
 17 11  1  0
 18 17  2  0
 19 20  1  0
 20 21  2  0
 22 20  1  0
 22 23  1  0
 24 23  1  1
 24 25  1  0
 24 26  1  0
 25 17  1  0
 26 28  1  0
 27 26  2  0
M  END
$$$$
