LIN.pdb
     RDKit          3D

 25 24  0  0  1  0  0  0  0  0999 V2000
    5.1994  -16.8635   20.2245 C   0  0  0  0  0  0  0  0  0  0  0  0
    6.6290  -17.2687   20.0120 C   0  0  2  0  0  0  0  0  0  0  0  0
    6.7785  -18.7528   19.8038 C   0  0  0  0  0  0  0  0  0  0  0  0
    7.4767  -16.8770   21.2211 C   0  0  0  0  0  0  0  0  0  0  0  0
    7.2349  -15.3974   21.4683 C   0  0  2  0  0  0  0  0  0  0  0  0
    7.6165  -14.6227   20.3019 N   0  0  0  0  0  0  0  0  0  0  0  0
    8.0272  -14.9077   22.6205 C   0  0  0  0  0  0  0  0  0  0  0  0
    9.2481  -14.5805   22.4870 O   0  0  0  0  0  0  0  0  0  0  0  0
    5.7513  -11.8210   26.3546 C   0  0  0  0  0  0  0  0  0  0  0  0
    6.7890  -12.3897   25.3698 C   0  0  0  0  0  0  0  0  0  0  0  0
    7.4436  -13.5887   25.9738 C   0  0  2  0  0  0  0  0  0  0  0  0
    8.0660  -13.2826   27.3294 C   0  0  0  0  0  0  0  0  0  0  0  0
    8.3248  -14.3864   25.0826 C   0  0  2  0  0  0  0  0  0  0  0  0
    7.4971  -14.7701   23.9280 N   0  0  0  0  0  0  0  0  0  0  0  0
    8.9845  -15.5502   25.6154 C   0  0  0  0  0  0  0  0  0  0  0  0
    8.2521  -16.5270   25.9621 O   0  0  0  0  0  0  0  0  0  0  0  0
   11.6323  -17.8898   23.5221 N   0  0  0  0  0  0  0  0  0  0  0  0
   12.5194  -17.2433   24.3944 C   0  0  0  0  0  0  0  0  0  0  0  0
   13.5029  -16.6338   23.9171 O   0  0  0  0  0  0  0  0  0  0  0  0
   12.3223  -17.2649   25.8412 C   0  0  0  0  0  0  0  0  0  0  0  0
   10.9577  -16.9502   26.3382 C   0  0  2  0  0  0  0  0  0  0  0  0
   10.3670  -15.7454   25.8034 N   0  0  0  0  0  0  0  0  0  0  0  0
   10.9466  -16.9492   27.8162 C   0  0  0  0  0  0  0  0  0  0  0  0
   11.2677  -18.0379   28.6090 O   0  0  0  0  0  0  0  0  0  0  0  0
   10.6176  -15.8637   28.3851 O   0  0  0  0  0  0  0  0  0  0  0  0
  2  1  1  1
  2  3  1  0
  4  2  1  0
  4  5  1  0
  5  7  1  0
  5  6  1  6
  7  8  2  0
  9 10  1  0
 10 11  1  0
 11 12  1  1
 13 11  1  0
 13 14  1  6
 14  7  1  0
 15 16  2  0
 15 13  1  0
 18 17  1  0
 18 20  1  0
 19 18  2  0
 21 20  1  1
 21 22  1  0
 22 15  1  0
 23 21  1  0
 23 24  1  0
 25 23  2  0
M  END
$$$$
