LIN.pdb
     RDKit          3D

 25 24  0  0  1  0  0  0  0  0999 V2000
    8.9422  -14.1266   18.7551 C   0  0  0  0  0  0  0  0  0  0  0  0
    7.6143  -13.6213   19.2393 C   0  0  2  0  0  0  0  0  0  0  0  0
    7.2170  -12.3289   18.5757 C   0  0  0  0  0  0  0  0  0  0  0  0
    7.6562  -13.3805   20.7474 C   0  0  0  0  0  0  0  0  0  0  0  0
    8.0300  -14.7034   21.3948 C   0  0  2  0  0  0  0  0  0  0  0  0
    6.8709  -15.5738   21.4679 N   0  0  0  0  0  0  0  0  0  0  0  0
    8.5384  -14.5040   22.7720 C   0  0  0  0  0  0  0  0  0  0  0  0
    9.6979  -14.0276   22.9820 O   0  0  0  0  0  0  0  0  0  0  0  0
    6.0508  -11.6377   26.1015 C   0  0  0  0  0  0  0  0  0  0  0  0
    7.1154  -12.4157   25.3069 C   0  0  0  0  0  0  0  0  0  0  0  0
    7.3885  -13.7188   25.9837 C   0  0  2  0  0  0  0  0  0  0  0  0
    7.6900  -13.5448   27.4661 C   0  0  0  0  0  0  0  0  0  0  0  0
    8.3215  -14.6457   25.2929 C   0  0  2  0  0  0  0  0  0  0  0  0
    7.7888  -14.8214   23.9325 N   0  0  0  0  0  0  0  0  0  0  0  0
    8.5867  -15.9332   25.8808 C   0  0  0  0  0  0  0  0  0  0  0  0
    7.5933  -16.6968   26.0826 O   0  0  0  0  0  0  0  0  0  0  0  0
   10.3531  -20.3968   23.9905 N   0  0  0  0  0  0  0  0  0  0  0  0
   11.0165  -19.1671   23.8740 C   0  0  0  0  0  0  0  0  0  0  0  0
   12.1498  -19.1373   23.3436 O   0  0  0  0  0  0  0  0  0  0  0  0
   10.4172  -17.9254   24.3555 C   0  0  0  0  0  0  0  0  0  0  0  0
   10.3527  -17.7373   25.8280 C   0  0  2  0  0  0  0  0  0  0  0  0
    9.8339  -16.4626   26.2668 N   0  0  0  0  0  0  0  0  0  0  0  0
   11.6714  -18.0224   26.4315 C   0  0  0  0  0  0  0  0  0  0  0  0
   12.6462  -17.0723   26.6840 O   0  0  0  0  0  0  0  0  0  0  0  0
   11.9122  -19.2306   26.7356 O   0  0  0  0  0  0  0  0  0  0  0  0
  2  1  1  6
  2  3  1  0
  4  2  1  0
  4  5  1  0
  5  7  1  0
  5  6  1  1
  7  8  2  0
  9 10  1  0
 10 11  1  0
 11 12  1  1
 13 11  1  0
 13 14  1  6
 14  7  1  0
 15 16  2  0
 15 13  1  0
 18 17  1  0
 18 20  1  0
 19 18  2  0
 21 20  1  6
 21 22  1  0
 22 15  1  0
 23 21  1  0
 23 24  1  0
 25 23  2  0
M  END
$$$$
