LIN.pdb
     RDKit          3D

 25 24  0  0  1  0  0  0  0  0999 V2000
    7.7300  -12.2228   27.3885 C   0  0  0  0  0  0  0  0  0  0  0  0
    6.7328  -12.6853   26.3662 C   0  0  2  0  0  0  0  0  0  0  0  0
    5.5356  -11.7754   26.2818 C   0  0  0  0  0  0  0  0  0  0  0  0
    6.2328  -14.0875   26.7094 C   0  0  0  0  0  0  0  0  0  0  0  0
    7.3600  -15.0510   26.3776 C   0  0  2  0  0  0  0  0  0  0  0  0
    8.6465  -14.4170   26.5999 N   0  0  0  0  0  0  0  0  0  0  0  0
    7.3016  -15.4801   24.9607 C   0  0  0  0  0  0  0  0  0  0  0  0
    6.3156  -16.1478   24.5164 O   0  0  0  0  0  0  0  0  0  0  0  0
    7.4151  -12.3625   20.9709 C   0  0  0  0  0  0  0  0  0  0  0  0
    7.1294  -13.6354   21.7884 C   0  0  0  0  0  0  0  0  0  0  0  0
    8.3219  -14.5336   21.7443 C   0  0  2  0  0  0  0  0  0  0  0  0
    8.7427  -14.8612   20.3181 C   0  0  0  0  0  0  0  0  0  0  0  0
    8.2986  -15.7164   22.6429 C   0  0  2  0  0  0  0  0  0  0  0  0
    8.3162  -15.1860   24.0155 N   0  0  0  0  0  0  0  0  0  0  0  0
    9.3194  -16.7217   22.4976 C   0  0  0  0  0  0  0  0  0  0  0  0
    9.1439  -17.6044   21.6028 O   0  0  0  0  0  0  0  0  0  0  0  0
   12.2673  -20.7058   21.0542 N   0  0  0  0  0  0  0  0  0  0  0  0
   11.8592  -20.2866   22.3285 C   0  0  0  0  0  0  0  0  0  0  0  0
   12.3125  -20.8766   23.3350 O   0  0  0  0  0  0  0  0  0  0  0  0
   10.9212  -19.1817   22.5069 C   0  0  0  0  0  0  0  0  0  0  0  0
   11.4694  -17.9183   23.0647 C   0  0  2  0  0  0  0  0  0  0  0  0
   10.5114  -16.8509   23.2371 N   0  0  0  0  0  0  0  0  0  0  0  0
   12.6337  -17.4779   22.2677 C   0  0  0  0  0  0  0  0  0  0  0  0
   13.8973  -18.0391   22.3394 O   0  0  0  0  0  0  0  0  0  0  0  0
   12.4450  -16.5150   21.4632 O   0  0  0  0  0  0  0  0  0  0  0  0
  2  1  1  1
  2  3  1  0
  4  2  1  0
  4  5  1  0
  5  7  1  0
  5  6  1  6
  7  8  2  0
  9 10  1  0
 10 11  1  0
 11 12  1  6
 13 11  1  0
 13 14  1  1
 14  7  1  0
 15 16  2  0
 15 13  1  0
 18 17  1  0
 18 20  1  0
 19 18  2  0
 21 20  1  6
 21 22  1  0
 22 15  1  0
 23 21  1  0
 23 24  1  0
 25 23  2  0
M  END
$$$$
