LIN.pdb
     RDKit          3D

 25 24  0  0  1  0  0  0  0  0999 V2000
    4.3238  -19.3155   22.7751 C   0  0  0  0  0  0  0  0  0  0  0  0
    5.7703  -19.4834   22.4106 C   0  0  2  0  0  0  0  0  0  0  0  0
    6.2587  -20.8897   22.6389 C   0  0  0  0  0  0  0  0  0  0  0  0
    6.6399  -18.5439   23.2444 C   0  0  0  0  0  0  0  0  0  0  0  0
    6.2907  -17.1273   22.8201 C   0  0  2  0  0  0  0  0  0  0  0  0
    6.2639  -17.0271   21.3724 N   0  0  0  0  0  0  0  0  0  0  0  0
    7.2854  -16.1531   23.3265 C   0  0  0  0  0  0  0  0  0  0  0  0
    8.3103  -15.8439   22.6413 O   0  0  0  0  0  0  0  0  0  0  0  0
    5.6533  -12.0926   26.5248 C   0  0  0  0  0  0  0  0  0  0  0  0
    6.4716  -12.7681   25.4093 C   0  0  0  0  0  0  0  0  0  0  0  0
    7.5034  -13.6595   26.0189 C   0  0  2  0  0  0  0  0  0  0  0  0
    8.4419  -12.9016   26.9480 C   0  0  0  0  0  0  0  0  0  0  0  0
    8.2040  -14.5931   25.0999 C   0  0  2  0  0  0  0  0  0  0  0  0
    7.1729  -15.5071   24.5833 N   0  0  0  0  0  0  0  0  0  0  0  0
    9.3214  -15.3529   25.5977 C   0  0  0  0  0  0  0  0  0  0  0  0
   10.3662  -14.7086   25.9202 O   0  0  0  0  0  0  0  0  0  0  0  0
   12.7348  -17.1354   23.2069 N   0  0  0  0  0  0  0  0  0  0  0  0
   12.4528  -17.7094   24.4547 C   0  0  0  0  0  0  0  0  0  0  0  0
   12.7167  -18.9189   24.6394 O   0  0  0  0  0  0  0  0  0  0  0  0
   11.8608  -16.9308   25.5392 C   0  0  0  0  0  0  0  0  0  0  0  0
   10.6072  -17.4579   26.1380 C   0  0  2  0  0  0  0  0  0  0  0  0
    9.4023  -16.7480   25.7760 N   0  0  0  0  0  0  0  0  0  0  0  0
   10.7539  -17.5633   27.6050 C   0  0  0  0  0  0  0  0  0  0  0  0
   11.8127  -18.1791   28.2504 O   0  0  0  0  0  0  0  0  0  0  0  0
    9.8348  -17.0459   28.3105 O   0  0  0  0  0  0  0  0  0  0  0  0
  2  1  1  1
  2  3  1  0
  4  2  1  0
  4  5  1  0
  5  7  1  0
  5  6  1  6
  7  8  2  0
  9 10  1  0
 10 11  1  0
 11 12  1  6
 13 11  1  0
 13 14  1  1
 14  7  1  0
 15 16  2  0
 15 13  1  0
 18 17  1  0
 18 20  1  0
 19 18  2  0
 21 20  1  1
 21 22  1  0
 22 15  1  0
 23 21  1  0
 23 24  1  0
 25 23  2  0
M  END
$$$$
