LIN.pdb
     RDKit          3D

 25 24  0  0  1  0  0  0  0  0999 V2000
    4.8993  -20.9388   24.8204 C   0  0  0  0  0  0  0  0  0  0  0  0
    6.0421  -20.8031   23.8567 C   0  0  2  0  0  0  0  0  0  0  0  0
    6.9631  -21.9943   23.8894 C   0  0  0  0  0  0  0  0  0  0  0  0
    6.8692  -19.5616   24.1861 C   0  0  0  0  0  0  0  0  0  0  0  0
    6.0620  -18.3592   23.7261 C   0  0  2  0  0  0  0  0  0  0  0  0
    5.6161  -18.5454   22.3575 N   0  0  0  0  0  0  0  0  0  0  0  0
    6.8685  -17.1176   23.7783 C   0  0  0  0  0  0  0  0  0  0  0  0
    7.5491  -16.7334   22.7759 O   0  0  0  0  0  0  0  0  0  0  0  0
    5.2417  -12.8559   26.8210 C   0  0  0  0  0  0  0  0  0  0  0  0
    5.9055  -13.4771   25.5786 C   0  0  0  0  0  0  0  0  0  0  0  0
    7.1575  -14.1836   25.9838 C   0  0  2  0  0  0  0  0  0  0  0  0
    8.1505  -13.2501   26.6630 C   0  0  0  0  0  0  0  0  0  0  0  0
    7.7781  -15.0741   24.9695 C   0  0  2  0  0  0  0  0  0  0  0  0
    6.9412  -16.2835   24.9221 N   0  0  0  0  0  0  0  0  0  0  0  0
    9.1609  -15.4460   25.1219 C   0  0  0  0  0  0  0  0  0  0  0  0
   10.0112  -14.5070   25.1996 O   0  0  0  0  0  0  0  0  0  0  0  0
   14.1275  -15.5617   23.4911 N   0  0  0  0  0  0  0  0  0  0  0  0
   13.1798  -16.5777   23.6802 C   0  0  0  0  0  0  0  0  0  0  0  0
   13.5534  -17.7714   23.6351 O   0  0  0  0  0  0  0  0  0  0  0  0
   11.7727  -16.2754   23.9278 C   0  0  0  0  0  0  0  0  0  0  0  0
   11.0907  -17.0686   24.9831 C   0  0  2  0  0  0  0  0  0  0  0  0
    9.6992  -16.7457   25.1978 N   0  0  0  0  0  0  0  0  0  0  0  0
   11.8626  -17.0032   26.2419 C   0  0  0  0  0  0  0  0  0  0  0  0
   11.3516  -16.5912   27.4609 O   0  0  0  0  0  0  0  0  0  0  0  0
   13.0806  -17.3544   26.1849 O   0  0  0  0  0  0  0  0  0  0  0  0
  2  1  1  1
  2  3  1  0
  4  2  1  0
  4  5  1  0
  5  7  1  0
  5  6  1  6
  7  8  2  0
  9 10  1  0
 10 11  1  0
 11 12  1  6
 13 11  1  0
 13 14  1  1
 14  7  1  0
 15 16  2  0
 15 13  1  0
 18 17  1  0
 18 20  1  0
 19 18  2  0
 21 20  1  6
 21 22  1  0
 22 15  1  0
 23 21  1  0
 23 24  1  0
 25 23  2  0
M  END
$$$$
