LIN.pdb
     RDKit          3D

 25 24  0  0  1  0  0  0  0  0999 V2000
    7.7872  -12.2567   18.6712 C   0  0  0  0  0  0  0  0  0  0  0  0
    8.1699  -13.5109   19.4019 C   0  0  2  0  0  0  0  0  0  0  0  0
    7.5450  -14.7398   18.7957 C   0  0  0  0  0  0  0  0  0  0  0  0
    7.7263  -13.4306   20.8616 C   0  0  0  0  0  0  0  0  0  0  0  0
    8.2322  -14.6895   21.5459 C   0  0  2  0  0  0  0  0  0  0  0  0
    7.1779  -15.6847   21.6131 N   0  0  0  0  0  0  0  0  0  0  0  0
    8.6815  -14.4068   22.9290 C   0  0  0  0  0  0  0  0  0  0  0  0
    9.8557  -13.9809   23.1645 O   0  0  0  0  0  0  0  0  0  0  0  0
    5.4613  -11.7996   26.0778 C   0  0  0  0  0  0  0  0  0  0  0  0
    6.7032  -12.3485   25.3523 C   0  0  0  0  0  0  0  0  0  0  0  0
    7.2255  -13.5377   26.0897 C   0  0  2  0  0  0  0  0  0  0  0  0
    7.4899  -13.2334   27.5581 C   0  0  0  0  0  0  0  0  0  0  0  0
    8.3198  -14.2998   25.4350 C   0  0  2  0  0  0  0  0  0  0  0  0
    7.8565  -14.5852   24.0678 N   0  0  0  0  0  0  0  0  0  0  0  0
    8.7895  -15.5132   26.0519 C   0  0  0  0  0  0  0  0  0  0  0  0
    9.2080  -15.4343   27.2475 O   0  0  0  0  0  0  0  0  0  0  0  0
    7.7146  -19.8259   28.3811 N   0  0  0  0  0  0  0  0  0  0  0  0
    7.3540  -19.3540   27.1109 C   0  0  0  0  0  0  0  0  0  0  0  0
    6.1517  -19.0942   26.8793 O   0  0  0  0  0  0  0  0  0  0  0  0
    8.3457  -19.1596   26.0566 C   0  0  0  0  0  0  0  0  0  0  0  0
    9.2532  -17.9912   26.1950 C   0  0  2  0  0  0  0  0  0  0  0  0
    8.8433  -16.8018   25.4852 N   0  0  0  0  0  0  0  0  0  0  0  0
   10.6354  -18.3815   25.8456 C   0  0  0  0  0  0  0  0  0  0  0  0
   11.3500  -19.3937   26.4631 O   0  0  0  0  0  0  0  0  0  0  0  0
   11.1935  -17.7327   24.9087 O   0  0  0  0  0  0  0  0  0  0  0  0
  2  1  1  6
  2  3  1  0
  4  2  1  0
  4  5  1  0
  5  7  1  0
  5  6  1  1
  7  8  2  0
  9 10  1  0
 10 11  1  0
 11 12  1  1
 13 11  1  0
 13 14  1  6
 14  7  1  0
 15 16  2  0
 15 13  1  0
 18 17  1  0
 18 20  1  0
 19 18  2  0
 21 20  1  6
 21 22  1  0
 22 15  1  0
 23 21  1  0
 23 24  1  0
 25 23  2  0
M  END
$$$$
