LIN.pdb
     RDKit          3D

 25 24  0  0  1  0  0  0  0  0999 V2000
    6.3280  -19.3221   20.9046 C   0  0  0  0  0  0  0  0  0  0  0  0
    6.8728  -17.9775   20.5194 C   0  0  2  0  0  0  0  0  0  0  0  0
    7.6482  -18.0223   19.2290 C   0  0  0  0  0  0  0  0  0  0  0  0
    7.8055  -17.4511   21.6089 C   0  0  0  0  0  0  0  0  0  0  0  0
    7.5286  -15.9633   21.7453 C   0  0  2  0  0  0  0  0  0  0  0  0
    7.9204  -15.2648   20.5348 N   0  0  0  0  0  0  0  0  0  0  0  0
    8.2852  -15.3764   22.8758 C   0  0  0  0  0  0  0  0  0  0  0  0
    9.5027  -15.0355   22.7454 O   0  0  0  0  0  0  0  0  0  0  0  0
    5.7323  -12.0714   26.1963 C   0  0  0  0  0  0  0  0  0  0  0  0
    6.8284  -12.6795   25.3024 C   0  0  0  0  0  0  0  0  0  0  0  0
    7.5431  -13.7550   26.0528 C   0  0  2  0  0  0  0  0  0  0  0  0
    8.1110  -13.2544   27.3740 C   0  0  0  0  0  0  0  0  0  0  0  0
    8.4950  -14.5898   25.2757 C   0  0  2  0  0  0  0  0  0  0  0  0
    7.7228  -15.1556   24.1582 N   0  0  0  0  0  0  0  0  0  0  0  0
    9.2126  -15.6398   25.9511 C   0  0  0  0  0  0  0  0  0  0  0  0
    8.5272  -16.5781   26.4617 O   0  0  0  0  0  0  0  0  0  0  0  0
   13.7962  -15.8015   24.5410 N   0  0  0  0  0  0  0  0  0  0  0  0
   12.9500  -16.8592   24.9035 C   0  0  0  0  0  0  0  0  0  0  0  0
   12.4449  -17.5674   24.0036 O   0  0  0  0  0  0  0  0  0  0  0  0
   12.6464  -17.1517   26.3017 C   0  0  0  0  0  0  0  0  0  0  0  0
   11.2597  -16.8774   26.7597 C   0  0  2  0  0  0  0  0  0  0  0  0
   10.6061  -15.7598   26.1191 N   0  0  0  0  0  0  0  0  0  0  0  0
   11.2301  -16.7511   28.2320 C   0  0  0  0  0  0  0  0  0  0  0  0
   10.7137  -15.6671   28.9213 O   0  0  0  0  0  0  0  0  0  0  0  0
   11.7163  -17.7151   28.8988 O   0  0  0  0  0  0  0  0  0  0  0  0
  2  1  1  1
  2  3  1  0
  4  2  1  0
  4  5  1  0
  5  7  1  0
  5  6  1  6
  7  8  2  0
  9 10  1  0
 10 11  1  0
 11 12  1  1
 13 11  1  0
 13 14  1  6
 14  7  1  0
 15 16  2  0
 15 13  1  0
 18 17  1  0
 18 20  1  0
 19 18  2  0
 21 20  1  6
 21 22  1  0
 22 15  1  0
 23 21  1  0
 23 24  1  0
 25 23  2  0
M  END
$$$$
