LIN.pdb
     RDKit          3D

 25 24  0  0  1  0  0  0  0  0999 V2000
    7.8754  -14.9402   18.4187 C   0  0  0  0  0  0  0  0  0  0  0  0
    7.4643  -13.7706   19.2651 C   0  0  2  0  0  0  0  0  0  0  0  0
    7.3677  -12.4948   18.4705 C   0  0  0  0  0  0  0  0  0  0  0  0
    8.4750  -13.5478   20.3888 C   0  0  0  0  0  0  0  0  0  0  0  0
    8.4188  -14.7757   21.2821 C   0  0  2  0  0  0  0  0  0  0  0  0
    7.0533  -15.2543   21.3954 N   0  0  0  0  0  0  0  0  0  0  0  0
    8.9104  -14.4718   22.6463 C   0  0  0  0  0  0  0  0  0  0  0  0
   10.0651  -13.9746   22.8332 O   0  0  0  0  0  0  0  0  0  0  0  0
    6.6657  -11.8155   27.3690 C   0  0  0  0  0  0  0  0  0  0  0  0
    7.8146  -12.7807   27.0248 C   0  0  0  0  0  0  0  0  0  0  0  0
    7.5263  -13.4537   25.7229 C   0  0  2  0  0  0  0  0  0  0  0  0
    6.1599  -14.1256   25.7131 C   0  0  0  0  0  0  0  0  0  0  0  0
    8.6080  -14.2999   25.1565 C   0  0  2  0  0  0  0  0  0  0  0  0
    8.1492  -14.7067   23.8188 N   0  0  0  0  0  0  0  0  0  0  0  0
    9.0446  -15.4577   25.8931 C   0  0  0  0  0  0  0  0  0  0  0  0
    9.5105  -15.2651   27.0578 O   0  0  0  0  0  0  0  0  0  0  0  0
   12.3197  -19.6921   24.2288 N   0  0  0  0  0  0  0  0  0  0  0  0
   11.5646  -18.5106   24.2433 C   0  0  0  0  0  0  0  0  0  0  0  0
   11.1186  -18.0627   23.1631 O   0  0  0  0  0  0  0  0  0  0  0  0
   11.2881  -17.7942   25.4855 C   0  0  0  0  0  0  0  0  0  0  0  0
    9.8903  -17.8350   25.9878 C   0  0  2  0  0  0  0  0  0  0  0  0
    9.0186  -16.8031   25.4762 N   0  0  0  0  0  0  0  0  0  0  0  0
    9.8857  -17.8648   27.4656 C   0  0  0  0  0  0  0  0  0  0  0  0
   10.5886  -18.7726   28.2392 O   0  0  0  0  0  0  0  0  0  0  0  0
    9.1823  -16.9873   28.0533 O   0  0  0  0  0  0  0  0  0  0  0  0
  2  1  1  6
  2  3  1  0
  4  2  1  0
  4  5  1  0
  5  7  1  0
  5  6  1  1
  7  8  2  0
  9 10  1  0
 10 11  1  0
 11 12  1  1
 13 11  1  0
 13 14  1  6
 14  7  1  0
 15 16  2  0
 15 13  1  0
 18 17  1  0
 18 20  1  0
 19 18  2  0
 21 20  1  1
 21 22  1  0
 22 15  1  0
 23 21  1  0
 23 24  1  0
 25 23  2  0
M  END
$$$$
