LIN.pdb
     RDKit          3D

 25 24  0  0  1  0  0  0  0  0999 V2000
    8.0040  -14.7299   18.4520 C   0  0  0  0  0  0  0  0  0  0  0  0
    7.4874  -13.5840   19.2726 C   0  0  2  0  0  0  0  0  0  0  0  0
    7.6045  -12.2661   18.5531 C   0  0  0  0  0  0  0  0  0  0  0  0
    8.2676  -13.4747   20.5814 C   0  0  0  0  0  0  0  0  0  0  0  0
    8.0258  -14.7643   21.3478 C   0  0  2  0  0  0  0  0  0  0  0  0
    6.6022  -15.0213   21.4652 N   0  0  0  0  0  0  0  0  0  0  0  0
    8.5906  -14.6915   22.7156 C   0  0  0  0  0  0  0  0  0  0  0  0
    9.8305  -14.4854   22.9046 O   0  0  0  0  0  0  0  0  0  0  0  0
    5.8469  -11.9174   26.1830 C   0  0  0  0  0  0  0  0  0  0  0  0
    6.9935  -12.5463   25.3707 C   0  0  0  0  0  0  0  0  0  0  0  0
    7.3876  -13.8469   25.9903 C   0  0  2  0  0  0  0  0  0  0  0  0
    7.7189  -13.7023   27.4695 C   0  0  0  0  0  0  0  0  0  0  0  0
    8.3691  -14.6719   25.2400 C   0  0  2  0  0  0  0  0  0  0  0  0
    7.8104  -14.8424   23.8894 N   0  0  0  0  0  0  0  0  0  0  0  0
    8.7528  -15.9538   25.7723 C   0  0  0  0  0  0  0  0  0  0  0  0
    7.8217  -16.7660   26.0624 O   0  0  0  0  0  0  0  0  0  0  0  0
   11.8791  -20.8174   25.3492 N   0  0  0  0  0  0  0  0  0  0  0  0
   12.0041  -19.6867   26.1689 C   0  0  0  0  0  0  0  0  0  0  0  0
   12.4984  -19.8177   27.3114 O   0  0  0  0  0  0  0  0  0  0  0  0
   11.5725  -18.3654   25.7213 C   0  0  0  0  0  0  0  0  0  0  0  0
   10.3752  -17.7887   26.3861 C   0  0  2  0  0  0  0  0  0  0  0  0
   10.0563  -16.4294   26.0156 N   0  0  0  0  0  0  0  0  0  0  0  0
   10.4909  -17.9379   27.8521 C   0  0  0  0  0  0  0  0  0  0  0  0
   10.9445  -16.9528   28.7126 O   0  0  0  0  0  0  0  0  0  0  0  0
   10.1445  -19.0558   28.3424 O   0  0  0  0  0  0  0  0  0  0  0  0
  2  1  1  6
  2  3  1  0
  4  2  1  0
  4  5  1  0
  5  7  1  0
  5  6  1  1
  7  8  2  0
  9 10  1  0
 10 11  1  0
 11 12  1  1
 13 11  1  0
 13 14  1  6
 14  7  1  0
 15 16  2  0
 15 13  1  0
 18 17  1  0
 18 20  1  0
 19 18  2  0
 21 20  1  6
 21 22  1  0
 22 15  1  0
 23 21  1  0
 23 24  1  0
 25 23  2  0
M  END
$$$$
