LIN.pdb
     RDKit          3D

 25 24  0  0  1  0  0  0  0  0999 V2000
    8.2292  -14.6624   18.2190 C   0  0  0  0  0  0  0  0  0  0  0  0
    7.5909  -13.6772   19.1546 C   0  0  2  0  0  0  0  0  0  0  0  0
    7.3972  -12.3261   18.5181 C   0  0  0  0  0  0  0  0  0  0  0  0
    8.4571  -13.4896   20.3990 C   0  0  0  0  0  0  0  0  0  0  0  0
    8.3804  -14.7853   21.1890 C   0  0  2  0  0  0  0  0  0  0  0  0
    7.0013  -15.2211   21.3094 N   0  0  0  0  0  0  0  0  0  0  0  0
    8.9262  -14.6154   22.5558 C   0  0  0  0  0  0  0  0  0  0  0  0
   10.1459  -14.3108   22.7433 O   0  0  0  0  0  0  0  0  0  0  0  0
    6.7554  -12.0115   27.4044 C   0  0  0  0  0  0  0  0  0  0  0  0
    7.9076  -12.9479   26.9972 C   0  0  0  0  0  0  0  0  0  0  0  0
    7.5662  -13.6276   25.7118 C   0  0  2  0  0  0  0  0  0  0  0  0
    6.2376  -14.3677   25.7878 C   0  0  0  0  0  0  0  0  0  0  0  0
    8.6482  -14.4150   25.0668 C   0  0  2  0  0  0  0  0  0  0  0  0
    8.1488  -14.7755   23.7303 N   0  0  0  0  0  0  0  0  0  0  0  0
    9.1460  -15.5908   25.7327 C   0  0  0  0  0  0  0  0  0  0  0  0
    9.8703  -15.4154   26.7600 O   0  0  0  0  0  0  0  0  0  0  0  0
   13.3590  -18.9313   25.7663 N   0  0  0  0  0  0  0  0  0  0  0  0
   12.0007  -19.1667   25.5103 C   0  0  0  0  0  0  0  0  0  0  0  0
   11.5534  -20.3294   25.6315 O   0  0  0  0  0  0  0  0  0  0  0  0
   11.0999  -18.0902   25.1071 C   0  0  0  0  0  0  0  0  0  0  0  0
    9.7753  -18.0358   25.7781 C   0  0  2  0  0  0  0  0  0  0  0  0
    8.9254  -16.9371   25.3815 N   0  0  0  0  0  0  0  0  0  0  0  0
    9.9501  -18.0834   27.2450 C   0  0  0  0  0  0  0  0  0  0  0  0
   10.6358  -17.1388   27.9895 O   0  0  0  0  0  0  0  0  0  0  0  0
    9.4271  -19.0675   27.8518 O   0  0  0  0  0  0  0  0  0  0  0  0
  2  1  1  6
  2  3  1  0
  4  2  1  0
  4  5  1  0
  5  7  1  0
  5  6  1  1
  7  8  2  0
  9 10  1  0
 10 11  1  0
 11 12  1  1
 13 11  1  0
 13 14  1  6
 14  7  1  0
 15 16  2  0
 15 13  1  0
 18 17  1  0
 18 20  1  0
 19 18  2  0
 21 20  1  6
 21 22  1  0
 22 15  1  0
 23 21  1  0
 23 24  1  0
 25 23  2  0
M  END
$$$$
