LIN.pdb
     RDKit          3D

 25 24  0  0  1  0  0  0  0  0999 V2000
    5.4728  -17.3129   20.2057 C   0  0  0  0  0  0  0  0  0  0  0  0
    6.8174  -17.8972   20.5281 C   0  0  2  0  0  0  0  0  0  0  0  0
    6.7939  -19.4027   20.5628 C   0  0  0  0  0  0  0  0  0  0  0  0
    7.2967  -17.4041   21.8924 C   0  0  0  0  0  0  0  0  0  0  0  0
    7.4065  -15.8914   21.8007 C   0  0  2  0  0  0  0  0  0  0  0  0
    8.2229  -15.5136   20.6618 N   0  0  0  0  0  0  0  0  0  0  0  0
    8.0303  -15.3223   23.0181 C   0  0  0  0  0  0  0  0  0  0  0  0
    9.2829  -15.1150   23.0792 O   0  0  0  0  0  0  0  0  0  0  0  0
    5.9777  -11.2480   25.6314 C   0  0  0  0  0  0  0  0  0  0  0  0
    6.9269  -12.2762   24.9895 C   0  0  0  0  0  0  0  0  0  0  0  0
    7.1548  -13.4050   25.9407 C   0  0  2  0  0  0  0  0  0  0  0  0
    7.6012  -12.9194   27.3131 C   0  0  0  0  0  0  0  0  0  0  0  0
    7.9451  -14.5554   25.4320 C   0  0  2  0  0  0  0  0  0  0  0  0
    7.2960  -14.9740   24.1794 N   0  0  0  0  0  0  0  0  0  0  0  0
    8.1380  -15.6995   26.2850 C   0  0  0  0  0  0  0  0  0  0  0  0
    7.1294  -16.1223   26.9288 O   0  0  0  0  0  0  0  0  0  0  0  0
    6.6931  -18.8506   26.7330 N   0  0  0  0  0  0  0  0  0  0  0  0
    7.5066  -19.2113   25.6494 C   0  0  0  0  0  0  0  0  0  0  0  0
    7.0943  -20.0748   24.8427 O   0  0  0  0  0  0  0  0  0  0  0  0
    8.8185  -18.6042   25.4418 C   0  0  0  0  0  0  0  0  0  0  0  0
    9.4048  -17.8627   26.5882 C   0  0  2  0  0  0  0  0  0  0  0  0
    9.3278  -16.4230   26.4984 N   0  0  0  0  0  0  0  0  0  0  0  0
   10.7906  -18.3173   26.8278 C   0  0  0  0  0  0  0  0  0  0  0  0
   11.9032  -17.8506   26.1488 O   0  0  0  0  0  0  0  0  0  0  0  0
   10.9563  -19.1993   27.7249 O   0  0  0  0  0  0  0  0  0  0  0  0
  2  1  1  1
  2  3  1  0
  4  2  1  0
  4  5  1  0
  5  7  1  0
  5  6  1  6
  7  8  2  0
  9 10  1  0
 10 11  1  0
 11 12  1  1
 13 11  1  0
 13 14  1  6
 14  7  1  0
 15 16  2  0
 15 13  1  0
 18 17  1  0
 18 20  1  0
 19 18  2  0
 21 20  1  6
 21 22  1  0
 22 15  1  0
 23 21  1  0
 23 24  1  0
 25 23  2  0
M  END
$$$$
