LIN.pdb
     RDKit          3D

 25 24  0  0  1  0  0  0  0  0999 V2000
   11.4059  -15.8998   30.4591 C   0  0  0  0  0  0  0  0  0  0  0  0
   10.5326  -15.1361   29.5066 C   0  0  2  0  0  0  0  0  0  0  0  0
   10.0734  -13.8212   30.0797 C   0  0  0  0  0  0  0  0  0  0  0  0
    9.2908  -15.9532   29.1540 C   0  0  0  0  0  0  0  0  0  0  0  0
    9.5850  -16.6576   27.8402 C   0  0  2  0  0  0  0  0  0  0  0  0
   10.8814  -16.2510   27.3298 N   0  0  0  0  0  0  0  0  0  0  0  0
    8.5676  -16.3300   26.8142 C   0  0  0  0  0  0  0  0  0  0  0  0
    7.4085  -16.8504   26.8485 O   0  0  0  0  0  0  0  0  0  0  0  0
    6.7576  -11.7539   26.0785 C   0  0  0  0  0  0  0  0  0  0  0  0
    6.7369  -13.2911   25.9965 C   0  0  0  0  0  0  0  0  0  0  0  0
    7.4748  -13.7345   24.7759 C   0  0  2  0  0  0  0  0  0  0  0  0
    6.8650  -13.1718   23.4991 C   0  0  0  0  0  0  0  0  0  0  0  0
    7.8089  -15.1793   24.6876 C   0  0  2  0  0  0  0  0  0  0  0  0
    8.8033  -15.4330   25.7422 N   0  0  0  0  0  0  0  0  0  0  0  0
    8.2829  -15.7093   23.4354 C   0  0  0  0  0  0  0  0  0  0  0  0
    7.5704  -15.4980   22.4067 O   0  0  0  0  0  0  0  0  0  0  0  0
   11.5118  -15.5877   18.9166 N   0  0  0  0  0  0  0  0  0  0  0  0
   10.4383  -16.2429   19.5365 C   0  0  0  0  0  0  0  0  0  0  0  0
    9.8856  -17.1963   18.9432 O   0  0  0  0  0  0  0  0  0  0  0  0
    9.9529  -15.8395   20.8535 C   0  0  0  0  0  0  0  0  0  0  0  0
    9.9055  -16.8904   21.9030 C   0  0  2  0  0  0  0  0  0  0  0  0
    9.4610  -16.4464   23.2036 N   0  0  0  0  0  0  0  0  0  0  0  0
   11.2089  -17.5828   21.9831 C   0  0  0  0  0  0  0  0  0  0  0  0
   11.9012  -17.8293   23.1564 O   0  0  0  0  0  0  0  0  0  0  0  0
   11.7168  -17.9747   20.8882 O   0  0  0  0  0  0  0  0  0  0  0  0
  2  1  1  1
  2  3  1  0
  4  2  1  0
  4  5  1  0
  5  7  1  0
  5  6  1  6
  7  8  2  0
  9 10  1  0
 10 11  1  0
 11 12  1  6
 13 11  1  0
 13 14  1  1
 14  7  1  0
 15 16  2  0
 15 13  1  0
 18 17  1  0
 18 20  1  0
 19 18  2  0
 21 20  1  6
 21 22  1  0
 22 15  1  0
 23 21  1  0
 23 24  1  0
 25 23  2  0
M  END
$$$$
