LIN.pdb
     RDKit          3D

 25 24  0  0  1  0  0  0  0  0999 V2000
    3.7749  -16.8359   20.5670 C   0  0  0  0  0  0  0  0  0  0  0  0
    4.9408  -17.7620   20.7574 C   0  0  2  0  0  0  0  0  0  0  0  0
    4.5100  -19.1911   20.9579 C   0  0  0  0  0  0  0  0  0  0  0  0
    5.7574  -17.3426   21.9786 C   0  0  0  0  0  0  0  0  0  0  0  0
    6.1963  -15.9070   21.7436 C   0  0  2  0  0  0  0  0  0  0  0  0
    6.8947  -15.7947   20.4763 N   0  0  0  0  0  0  0  0  0  0  0  0
    7.1119  -15.4424   22.8118 C   0  0  0  0  0  0  0  0  0  0  0  0
    8.3698  -15.5946   22.7114 O   0  0  0  0  0  0  0  0  0  0  0  0
    5.7357  -11.1164   25.7493 C   0  0  0  0  0  0  0  0  0  0  0  0
    6.5330  -12.1305   24.9090 C   0  0  0  0  0  0  0  0  0  0  0  0
    6.9502  -13.2747   25.7736 C   0  0  2  0  0  0  0  0  0  0  0  0
    7.7082  -12.8139   27.0112 C   0  0  0  0  0  0  0  0  0  0  0  0
    7.5804  -14.4323   25.0883 C   0  0  2  0  0  0  0  0  0  0  0  0
    6.6658  -14.8083   23.9985 N   0  0  0  0  0  0  0  0  0  0  0  0
    7.9203  -15.5988   25.8613 C   0  0  0  0  0  0  0  0  0  0  0  0
    6.9623  -16.3117   26.2912 O   0  0  0  0  0  0  0  0  0  0  0  0
    7.1565  -18.9684   26.8487 N   0  0  0  0  0  0  0  0  0  0  0  0
    7.8454  -19.1125   25.6360 C   0  0  0  0  0  0  0  0  0  0  0  0
    7.3852  -19.8847   24.7651 O   0  0  0  0  0  0  0  0  0  0  0  0
    9.0827  -18.3846   25.3674 C   0  0  0  0  0  0  0  0  0  0  0  0
    9.5509  -17.4445   26.4186 C   0  0  2  0  0  0  0  0  0  0  0  0
    9.2067  -16.0577   26.2063 N   0  0  0  0  0  0  0  0  0  0  0  0
   11.0026  -17.6151   26.6380 C   0  0  0  0  0  0  0  0  0  0  0  0
   11.5762  -18.6494   27.3575 O   0  0  0  0  0  0  0  0  0  0  0  0
   11.7655  -16.7422   26.1221 O   0  0  0  0  0  0  0  0  0  0  0  0
  2  1  1  1
  2  3  1  0
  4  2  1  0
  4  5  1  0
  5  7  1  0
  5  6  1  6
  7  8  2  0
  9 10  1  0
 10 11  1  0
 11 12  1  1
 13 11  1  0
 13 14  1  6
 14  7  1  0
 15 16  2  0
 15 13  1  0
 18 17  1  0
 18 20  1  0
 19 18  2  0
 21 20  1  6
 21 22  1  0
 22 15  1  0
 23 21  1  0
 23 24  1  0
 25 23  2  0
M  END
$$$$
