WMV.pdb
     RDKit          3D

 30 31  0  0  1  0  0  0  0  0999 V2000
    8.9874  -16.6869   24.4301 N   0  0  0  0  0  0  0  0  0  0  0  0
    7.7568  -16.8762   23.7427 C   0  0  1  0  0  0  0  0  0  0  0  0
    6.6958  -15.8603   23.9820 C   0  0  0  0  0  0  0  0  0  0  0  0
    6.8805  -15.2250   25.2892 C   0  0  0  0  0  0  0  0  0  0  0  0
    6.9522  -15.9522   26.4853 C   0  0  0  0  0  0  0  0  0  0  0  0
    7.1408  -15.0514   27.4455 N   0  0  0  0  0  0  0  0  0  0  0  0
    7.1935  -13.8127   26.9505 C   0  0  0  0  0  0  0  0  0  0  0  0
    7.3656  -12.5758   27.5455 C   0  0  0  0  0  0  0  0  0  0  0  0
    7.3688  -11.4535   26.7509 C   0  0  0  0  0  0  0  0  0  0  0  0
    7.2038  -11.5511   25.3843 C   0  0  0  0  0  0  0  0  0  0  0  0
    7.0348  -12.7655   24.7993 C   0  0  0  0  0  0  0  0  0  0  0  0
    7.0292  -13.8976   25.5737 C   0  0  0  0  0  0  0  0  0  0  0  0
    7.9603  -17.0165   22.2535 C   0  0  0  0  0  0  0  0  0  0  0  0
    6.9366  -17.2783   21.5712 O   0  0  0  0  0  0  0  0  0  0  0  0
    8.2140  -11.7939   20.1640 C   0  0  0  0  0  0  0  0  0  0  0  0
    7.2074  -13.0361   19.3393 S   0  0  0  0  0  0  0  0  0  0  0  0
    7.3198  -14.6492   20.2284 C   0  0  0  0  0  0  0  0  0  0  0  0
    8.7551  -14.8574   20.5210 C   0  0  0  0  0  0  0  0  0  0  0  0
    9.2878  -16.2565   20.3166 C   0  0  2  0  0  0  0  0  0  0  0  0
    9.2152  -16.8648   21.6583 N   0  0  0  0  0  0  0  0  0  0  0  0
   10.6649  -16.2261   19.8374 C   0  0  0  0  0  0  0  0  0  0  0  0
   10.8826  -15.9927   18.5929 O   0  0  0  0  0  0  0  0  0  0  0  0
   13.5883  -14.1192   20.3433 C   0  0  0  0  0  0  0  0  0  0  0  0
   14.1079  -15.4936   20.6021 C   0  0  1  0  0  0  0  0  0  0  0  0
   14.1949  -15.7278   22.0999 C   0  0  0  0  0  0  0  0  0  0  0  0
   13.1593  -16.5106   19.9776 C   0  0  2  0  0  0  0  0  0  0  0  0
   11.8473  -16.4227   20.5938 N   0  0  0  0  0  0  0  0  0  0  0  0
   13.7124  -17.8472   20.2477 C   0  0  0  0  0  0  0  0  0  0  0  0
   13.1907  -18.5901   21.1085 O   0  0  0  0  0  0  0  0  0  0  0  0
   14.8216  -18.3721   19.5891 O   0  0  0  0  0  0  0  0  0  0  0  0
  2  1  1  1
  3  4  1  0
  3  2  1  0
  4  5  2  0
  6  5  1  0
  7  6  1  0
  8  7  2  0
  9  8  1  0
 10 11  1  0
 10  9  2  0
 11 12  2  0
 12  7  1  0
 12  4  1  0
 13  2  1  0
 13 14  2  0
 16 15  1  0
 16 17  1  0
 17 18  1  0
 19 18  1  1
 19 20  1  0
 20 13  1  0
 21 19  1  0
 22 21  2  0
 24 23  1  1
 24 25  1  0
 24 26  1  0
 26 27  1  1
 26 28  1  0
 27 21  1  0
 28 30  1  0
 29 28  2  0
M  END
$$$$
