WMV.pdb
     RDKit          3D

 30 31  0  0  1  0  0  0  0  0999 V2000
    6.4888  -18.3461   24.9313 N   0  0  0  0  0  0  0  0  0  0  0  0
    6.9822  -17.1151   24.4177 C   0  0  1  0  0  0  0  0  0  0  0  0
    8.0836  -16.4672   25.1808 C   0  0  0  0  0  0  0  0  0  0  0  0
    7.5394  -15.5671   26.2008 C   0  0  0  0  0  0  0  0  0  0  0  0
    7.3417  -15.9572   27.5325 C   0  0  0  0  0  0  0  0  0  0  0  0
    6.8604  -14.8853   28.1557 N   0  0  0  0  0  0  0  0  0  0  0  0
    6.7380  -13.8491   27.3228 C   0  0  0  0  0  0  0  0  0  0  0  0
    6.2882  -12.5536   27.5036 C   0  0  0  0  0  0  0  0  0  0  0  0
    6.2757  -11.7003   26.4253 C   0  0  0  0  0  0  0  0  0  0  0  0
    6.7024  -12.1214   25.1823 C   0  0  0  0  0  0  0  0  0  0  0  0
    7.1444  -13.3936   25.0040 C   0  0  0  0  0  0  0  0  0  0  0  0
    7.1657  -14.2605   26.0667 C   0  0  0  0  0  0  0  0  0  0  0  0
    7.4056  -17.2375   22.9739 C   0  0  0  0  0  0  0  0  0  0  0  0
    7.6501  -18.3996   22.5593 O   0  0  0  0  0  0  0  0  0  0  0  0
    8.6403  -12.1832   19.1777 C   0  0  0  0  0  0  0  0  0  0  0  0
    7.0661  -12.4953   19.9906 S   0  0  0  0  0  0  0  0  0  0  0  0
    6.8287  -14.3054   20.2597 C   0  0  0  0  0  0  0  0  0  0  0  0
    8.1813  -14.9045   20.2370 C   0  0  0  0  0  0  0  0  0  0  0  0
    8.3341  -16.2474   20.9126 C   0  0  2  0  0  0  0  0  0  0  0  0
    7.5216  -16.1245   22.1375 N   0  0  0  0  0  0  0  0  0  0  0  0
    9.7301  -16.5096   21.2433 C   0  0  0  0  0  0  0  0  0  0  0  0
   10.5859  -16.6012   20.2894 O   0  0  0  0  0  0  0  0  0  0  0  0
   13.5149  -17.2346   24.3605 C   0  0  0  0  0  0  0  0  0  0  0  0
   12.0743  -16.8836   24.1955 C   0  0  1  0  0  0  0  0  0  0  0  0
   11.8503  -15.4469   24.6332 C   0  0  0  0  0  0  0  0  0  0  0  0
   11.6884  -17.0396   22.7289 C   0  0  2  0  0  0  0  0  0  0  0  0
   10.2955  -16.6793   22.5319 N   0  0  0  0  0  0  0  0  0  0  0  0
   11.8559  -18.4598   22.3817 C   0  0  0  0  0  0  0  0  0  0  0  0
   12.9622  -18.8934   21.9909 O   0  0  0  0  0  0  0  0  0  0  0  0
   10.8314  -19.4001   22.4585 O   0  0  0  0  0  0  0  0  0  0  0  0
  2  1  1  1
  3  4  1  0
  3  2  1  0
  4  5  2  0
  6  5  1  0
  7  6  1  0
  8  7  2  0
  9  8  1  0
 10 11  1  0
 10  9  2  0
 11 12  2  0
 12  7  1  0
 12  4  1  0
 13  2  1  0
 13 14  2  0
 16 15  1  0
 16 17  1  0
 17 18  1  0
 19 18  1  1
 19 20  1  0
 20 13  1  0
 21 19  1  0
 22 21  2  0
 24 23  1  6
 24 25  1  0
 24 26  1  0
 26 27  1  1
 26 28  1  0
 27 21  1  0
 28 30  1  0
 29 28  2  0
M  END
$$$$
