WMV.pdb
     RDKit          3D

 30 31  0  0  1  0  0  0  0  0999 V2000
    6.0157  -18.3918   23.9885 N   0  0  0  0  0  0  0  0  0  0  0  0
    6.8051  -17.2376   24.2477 C   0  0  1  0  0  0  0  0  0  0  0  0
    6.9299  -16.8204   25.6709 C   0  0  0  0  0  0  0  0  0  0  0  0
    6.3676  -15.4812   25.8632 C   0  0  0  0  0  0  0  0  0  0  0  0
    5.2272  -15.2394   26.6416 C   0  0  0  0  0  0  0  0  0  0  0  0
    5.0328  -13.9243   26.5996 N   0  0  0  0  0  0  0  0  0  0  0  0
    5.9600  -13.3163   25.8559 C   0  0  0  0  0  0  0  0  0  0  0  0
    6.1667  -11.9902   25.5212 C   0  0  0  0  0  0  0  0  0  0  0  0
    7.2316  -11.6695   24.7125 C   0  0  0  0  0  0  0  0  0  0  0  0
    8.0830  -12.6472   24.2393 C   0  0  0  0  0  0  0  0  0  0  0  0
    7.8806  -13.9499   24.5677 C   0  0  0  0  0  0  0  0  0  0  0  0
    6.8246  -14.2910   25.3738 C   0  0  0  0  0  0  0  0  0  0  0  0
    8.1901  -17.3599   23.6599 C   0  0  0  0  0  0  0  0  0  0  0  0
    8.6001  -18.5271   23.4322 O   0  0  0  0  0  0  0  0  0  0  0  0
    9.6176  -13.0397   19.9454 C   0  0  0  0  0  0  0  0  0  0  0  0
   10.4641  -14.5584   19.4833 S   0  0  0  0  0  0  0  0  0  0  0  0
   10.0541  -15.9103   20.6705 C   0  0  0  0  0  0  0  0  0  0  0  0
   10.7108  -15.5493   21.9462 C   0  0  0  0  0  0  0  0  0  0  0  0
   10.4190  -16.4422   23.1298 C   0  0  2  0  0  0  0  0  0  0  0  0
    8.9795  -16.2414   23.3810 N   0  0  0  0  0  0  0  0  0  0  0  0
   11.2062  -16.0436   24.2910 C   0  0  0  0  0  0  0  0  0  0  0  0
   12.3730  -16.5563   24.4538 O   0  0  0  0  0  0  0  0  0  0  0  0
   10.4527  -14.9298   29.0180 C   0  0  0  0  0  0  0  0  0  0  0  0
   10.0114  -14.9027   27.5931 C   0  0  1  0  0  0  0  0  0  0  0  0
    9.5834  -13.4936   27.2228 C   0  0  0  0  0  0  0  0  0  0  0  0
   11.1711  -15.3374   26.7040 C   0  0  2  0  0  0  0  0  0  0  0  0
   10.8437  -15.1227   25.3056 N   0  0  0  0  0  0  0  0  0  0  0  0
   11.3704  -16.7793   26.9199 C   0  0  0  0  0  0  0  0  0  0  0  0
   10.5640  -17.6112   26.4482 O   0  0  0  0  0  0  0  0  0  0  0  0
   12.4356  -17.3127   27.6414 O   0  0  0  0  0  0  0  0  0  0  0  0
  2  1  1  1
  3  4  1  0
  3  2  1  0
  4  5  2  0
  6  5  1  0
  7  6  1  0
  8  7  2  0
  9  8  1  0
 10 11  1  0
 10  9  2  0
 11 12  2  0
 12  7  1  0
 12  4  1  0
 13  2  1  0
 13 14  2  0
 16 15  1  0
 16 17  1  0
 17 18  1  0
 19 18  1  6
 19 20  1  0
 20 13  1  0
 21 19  1  0
 22 21  2  0
 24 23  1  1
 24 25  1  0
 24 26  1  0
 26 27  1  6
 26 28  1  0
 27 21  1  0
 28 30  1  0
 29 28  2  0
M  END
$$$$
