WMV.pdb
     RDKit          3D

 30 31  0  0  1  0  0  0  0  0999 V2000
    8.7599  -17.3263   21.9796 N   0  0  0  0  0  0  0  0  0  0  0  0
    9.4233  -16.0957   22.2409 C   0  0  1  0  0  0  0  0  0  0  0  0
    8.5767  -14.8718   22.2577 C   0  0  0  0  0  0  0  0  0  0  0  0
    7.8285  -14.7494   21.0040 C   0  0  0  0  0  0  0  0  0  0  0  0
    6.6274  -15.4313   20.7650 C   0  0  0  0  0  0  0  0  0  0  0  0
    6.2377  -15.0618   19.5482 N   0  0  0  0  0  0  0  0  0  0  0  0
    7.0978  -14.2007   18.9995 C   0  0  0  0  0  0  0  0  0  0  0  0
    7.1217  -13.5563   17.7757 C   0  0  0  0  0  0  0  0  0  0  0  0
    8.1700  -12.7130   17.4917 C   0  0  0  0  0  0  0  0  0  0  0  0
    9.1837  -12.5083   18.4054 C   0  0  0  0  0  0  0  0  0  0  0  0
    9.1609  -13.1408   19.6076 C   0  0  0  0  0  0  0  0  0  0  0  0
    8.1238  -13.9856   19.9111 C   0  0  0  0  0  0  0  0  0  0  0  0
   10.2190  -16.1469   23.5227 C   0  0  0  0  0  0  0  0  0  0  0  0
   11.2369  -15.4101   23.5791 O   0  0  0  0  0  0  0  0  0  0  0  0
    8.0952  -12.2407   27.0998 C   0  0  0  0  0  0  0  0  0  0  0  0
    7.2603  -13.1450   25.7877 S   0  0  0  0  0  0  0  0  0  0  0  0
    7.1563  -14.9388   26.2080 C   0  0  0  0  0  0  0  0  0  0  0  0
    8.0129  -15.6405   25.2266 C   0  0  0  0  0  0  0  0  0  0  0  0
    9.2339  -16.3397   25.7774 C   0  0  2  0  0  0  0  0  0  0  0  0
    9.8504  -16.9660   24.5929 N   0  0  0  0  0  0  0  0  0  0  0  0
    8.8582  -17.3507   26.7592 C   0  0  0  0  0  0  0  0  0  0  0  0
    8.2267  -16.9832   27.8160 O   0  0  0  0  0  0  0  0  0  0  0  0
   11.1089  -19.7289   25.3085 C   0  0  0  0  0  0  0  0  0  0  0  0
   11.4120  -19.5416   26.7572 C   0  0  1  0  0  0  0  0  0  0  0  0
   12.2538  -18.2911   26.9404 C   0  0  0  0  0  0  0  0  0  0  0  0
   10.1032  -19.3965   27.5254 C   0  0  2  0  0  0  0  0  0  0  0  0
    9.1019  -18.7456   26.6992 N   0  0  0  0  0  0  0  0  0  0  0  0
   10.3735  -18.5404   28.6914 C   0  0  0  0  0  0  0  0  0  0  0  0
   10.1498  -17.3106   28.6437 O   0  0  0  0  0  0  0  0  0  0  0  0
   10.8818  -19.0156   29.8977 O   0  0  0  0  0  0  0  0  0  0  0  0
  2  1  1  1
  3  4  1  0
  3  2  1  0
  4  5  2  0
  6  5  1  0
  7  6  1  0
  8  7  2  0
  9  8  1  0
 10 11  1  0
 10  9  2  0
 11 12  2  0
 12  7  1  0
 12  4  1  0
 13  2  1  0
 13 14  2  0
 16 15  1  0
 16 17  1  0
 17 18  1  0
 19 18  1  6
 19 20  1  0
 20 13  1  0
 21 19  1  0
 22 21  2  0
 24 23  1  6
 24 25  1  0
 24 26  1  0
 26 27  1  6
 26 28  1  0
 27 21  1  0
 28 30  1  0
 29 28  2  0
M  END
$$$$
