WMV.pdb
     RDKit          3D

 30 31  0  0  1  0  0  0  0  0999 V2000
    5.9537  -18.3704   24.4201 N   0  0  0  0  0  0  0  0  0  0  0  0
    6.6580  -17.1358   24.4695 C   0  0  1  0  0  0  0  0  0  0  0  0
    6.9112  -16.5657   25.8208 C   0  0  0  0  0  0  0  0  0  0  0  0
    6.1445  -15.3313   26.0077 C   0  0  0  0  0  0  0  0  0  0  0  0
    4.7456  -15.3101   26.0931 C   0  0  0  0  0  0  0  0  0  0  0  0
    4.4140  -14.0355   26.2795 N   0  0  0  0  0  0  0  0  0  0  0  0
    5.4928  -13.2501   26.3181 C   0  0  0  0  0  0  0  0  0  0  0  0
    5.6491  -11.8855   26.4826 C   0  0  0  0  0  0  0  0  0  0  0  0
    6.9191  -11.3583   26.4709 C   0  0  0  0  0  0  0  0  0  0  0  0
    8.0224  -12.1690   26.2986 C   0  0  0  0  0  0  0  0  0  0  0  0
    7.8697  -13.5093   26.1370 C   0  0  0  0  0  0  0  0  0  0  0  0
    6.6115  -14.0555   26.1462 C   0  0  0  0  0  0  0  0  0  0  0  0
    7.9690  -17.2062   23.7246 C   0  0  0  0  0  0  0  0  0  0  0  0
    8.6073  -18.2862   23.8163 O   0  0  0  0  0  0  0  0  0  0  0  0
    7.7618  -12.9225   18.7172 C   0  0  0  0  0  0  0  0  0  0  0  0
    9.0856  -13.1682   19.9103 S   0  0  0  0  0  0  0  0  0  0  0  0
    9.0806  -14.9070   20.5280 C   0  0  0  0  0  0  0  0  0  0  0  0
   10.0116  -14.9369   21.6775 C   0  0  0  0  0  0  0  0  0  0  0  0
    9.8848  -16.1142   22.6161 C   0  0  2  0  0  0  0  0  0  0  0  0
    8.4535  -16.1335   22.9718 N   0  0  0  0  0  0  0  0  0  0  0  0
   10.7094  -15.9259   23.8041 C   0  0  0  0  0  0  0  0  0  0  0  0
   11.9880  -15.9615   23.6826 O   0  0  0  0  0  0  0  0  0  0  0  0
    9.3345  -15.2067   27.8101 C   0  0  0  0  0  0  0  0  0  0  0  0
   10.5390  -14.5201   27.2591 C   0  0  1  0  0  0  0  0  0  0  0  0
   11.5198  -14.2391   28.3837 C   0  0  0  0  0  0  0  0  0  0  0  0
   11.1945  -15.4220   26.2193 C   0  0  2  0  0  0  0  0  0  0  0  0
   10.2713  -15.6935   25.1318 N   0  0  0  0  0  0  0  0  0  0  0  0
   11.5171  -16.6939   26.8853 C   0  0  0  0  0  0  0  0  0  0  0  0
   12.3173  -16.7243   27.8463 O   0  0  0  0  0  0  0  0  0  0  0  0
   10.9755  -17.9212   26.5111 O   0  0  0  0  0  0  0  0  0  0  0  0
  2  1  1  1
  3  4  1  0
  3  2  1  0
  4  5  2  0
  6  5  1  0
  7  6  1  0
  8  7  2  0
  9  8  1  0
 10 11  1  0
 10  9  2  0
 11 12  2  0
 12  7  1  0
 12  4  1  0
 13  2  1  0
 13 14  2  0
 16 15  1  0
 16 17  1  0
 17 18  1  0
 19 18  1  6
 19 20  1  0
 20 13  1  0
 21 19  1  0
 22 21  2  0
 24 23  1  1
 24 25  1  0
 24 26  1  0
 26 27  1  6
 26 28  1  0
 27 21  1  0
 28 30  1  0
 29 28  2  0
M  END
$$$$
