WMV.pdb
     RDKit          3D

 30 31  0  0  1  0  0  0  0  0999 V2000
    7.5195  -16.9569   24.5090 N   0  0  0  0  0  0  0  0  0  0  0  0
    7.8456  -16.2143   23.3408 C   0  0  1  0  0  0  0  0  0  0  0  0
    7.1057  -14.9400   23.1321 C   0  0  0  0  0  0  0  0  0  0  0  0
    6.4593  -14.5135   24.3757 C   0  0  0  0  0  0  0  0  0  0  0  0
    5.6716  -15.3705   25.1566 C   0  0  0  0  0  0  0  0  0  0  0  0
    5.2774  -14.6479   26.2013 N   0  0  0  0  0  0  0  0  0  0  0  0
    5.7535  -13.4021   26.1419 C   0  0  0  0  0  0  0  0  0  0  0  0
    5.6146  -12.3083   26.9774 C   0  0  0  0  0  0  0  0  0  0  0  0
    6.2361  -11.1304   26.6352 C   0  0  0  0  0  0  0  0  0  0  0  0
    6.9863  -11.0332   25.4809 C   0  0  0  0  0  0  0  0  0  0  0  0
    7.1232  -12.1070   24.6599 C   0  0  0  0  0  0  0  0  0  0  0  0
    6.5120  -13.2916   24.9833 C   0  0  0  0  0  0  0  0  0  0  0  0
    9.3255  -15.9309   23.2495 C   0  0  0  0  0  0  0  0  0  0  0  0
    9.6820  -14.7437   23.4632 O   0  0  0  0  0  0  0  0  0  0  0  0
   10.6390  -14.0023   28.0477 C   0  0  0  0  0  0  0  0  0  0  0  0
   11.2090  -15.5112   27.2510 S   0  0  0  0  0  0  0  0  0  0  0  0
   11.1683  -15.3247   25.4156 C   0  0  0  0  0  0  0  0  0  0  0  0
   11.5870  -16.6309   24.8610 C   0  0  0  0  0  0  0  0  0  0  0  0
   11.6578  -16.7312   23.3551 C   0  0  2  0  0  0  0  0  0  0  0  0
   10.2549  -16.9286   22.9448 N   0  0  0  0  0  0  0  0  0  0  0  0
   12.4797  -17.8642   22.9454 C   0  0  0  0  0  0  0  0  0  0  0  0
   12.1956  -19.0319   23.3998 O   0  0  0  0  0  0  0  0  0  0  0  0
   13.2752  -18.7491   19.2902 C   0  0  0  0  0  0  0  0  0  0  0  0
   14.5358  -18.8995   20.0738 C   0  0  1  0  0  0  0  0  0  0  0  0
   15.3965  -17.6621   19.8900 C   0  0  0  0  0  0  0  0  0  0  0  0
   14.1885  -19.0690   21.5486 C   0  0  2  0  0  0  0  0  0  0  0  0
   13.5952  -17.8509   22.0711 N   0  0  0  0  0  0  0  0  0  0  0  0
   15.4475  -19.3199   22.2679 C   0  0  0  0  0  0  0  0  0  0  0  0
   15.9147  -18.4638   23.0512 O   0  0  0  0  0  0  0  0  0  0  0  0
   16.1919  -20.4897   22.1376 O   0  0  0  0  0  0  0  0  0  0  0  0
  2  1  1  1
  3  4  1  0
  3  2  1  0
  4  5  2  0
  6  5  1  0
  7  6  1  0
  8  7  2  0
  9  8  1  0
 10 11  1  0
 10  9  2  0
 11 12  2  0
 12  7  1  0
 12  4  1  0
 13  2  1  0
 13 14  2  0
 16 15  1  0
 16 17  1  0
 17 18  1  0
 19 18  1  1
 19 20  1  0
 20 13  1  0
 21 19  1  0
 22 21  2  0
 24 23  1  6
 24 25  1  0
 24 26  1  0
 26 27  1  1
 26 28  1  0
 27 21  1  0
 28 30  1  0
 29 28  2  0
M  END
$$$$
