WMV.pdb
     RDKit          3D

 30 31  0  0  1  0  0  0  0  0999 V2000
    5.9994  -19.3006   24.8895 N   0  0  0  0  0  0  0  0  0  0  0  0
    6.4984  -17.9728   24.7859 C   0  0  1  0  0  0  0  0  0  0  0  0
    6.7874  -17.2670   26.0639 C   0  0  0  0  0  0  0  0  0  0  0  0
    6.2384  -15.9090   26.0345 C   0  0  0  0  0  0  0  0  0  0  0  0
    4.9045  -15.6346   25.7024 C   0  0  0  0  0  0  0  0  0  0  0  0
    4.7712  -14.3149   25.8018 N   0  0  0  0  0  0  0  0  0  0  0  0
    5.9154  -13.7341   26.1700 C   0  0  0  0  0  0  0  0  0  0  0  0
    6.2628  -12.4140   26.3943 C   0  0  0  0  0  0  0  0  0  0  0  0
    7.5541  -12.1232   26.7671 C   0  0  0  0  0  0  0  0  0  0  0  0
    8.4921  -13.1244   26.9165 C   0  0  0  0  0  0  0  0  0  0  0  0
    8.1516  -14.4210   26.6964 C   0  0  0  0  0  0  0  0  0  0  0  0
    6.8687  -14.7327   26.3246 C   0  0  0  0  0  0  0  0  0  0  0  0
    7.7248  -17.8998   23.9089 C   0  0  0  0  0  0  0  0  0  0  0  0
    8.4921  -18.8962   23.9361 O   0  0  0  0  0  0  0  0  0  0  0  0
    8.6500  -11.5340   20.5989 C   0  0  0  0  0  0  0  0  0  0  0  0
    8.7348  -13.2969   20.2504 S   0  0  0  0  0  0  0  0  0  0  0  0
    9.1514  -14.2364   21.7830 C   0  0  0  0  0  0  0  0  0  0  0  0
    9.1617  -15.6651   21.3984 C   0  0  0  0  0  0  0  0  0  0  0  0
    9.3456  -16.6624   22.5185 C   0  0  2  0  0  0  0  0  0  0  0  0
    7.9993  -16.7887   23.1076 N   0  0  0  0  0  0  0  0  0  0  0  0
   10.2971  -16.1677   23.5069 C   0  0  0  0  0  0  0  0  0  0  0  0
   11.5052  -15.9308   23.1392 O   0  0  0  0  0  0  0  0  0  0  0  0
   11.4575  -14.0900   27.8404 C   0  0  0  0  0  0  0  0  0  0  0  0
   10.4001  -14.5926   26.9158 C   0  0  1  0  0  0  0  0  0  0  0  0
    9.5749  -13.4235   26.4078 C   0  0  0  0  0  0  0  0  0  0  0  0
   11.0623  -15.3028   25.7405 C   0  0  2  0  0  0  0  0  0  0  0  0
   10.0568  -15.8964   24.8771 N   0  0  0  0  0  0  0  0  0  0  0  0
   11.8958  -16.3812   26.2951 C   0  0  0  0  0  0  0  0  0  0  0  0
   11.5343  -17.5754   26.2054 O   0  0  0  0  0  0  0  0  0  0  0  0
   13.1105  -16.1647   26.9411 O   0  0  0  0  0  0  0  0  0  0  0  0
  2  1  1  1
  3  4  1  0
  3  2  1  0
  4  5  2  0
  6  5  1  0
  7  6  1  0
  8  7  2  0
  9  8  1  0
 10 11  1  0
 10  9  2  0
 11 12  2  0
 12  7  1  0
 12  4  1  0
 13  2  1  0
 13 14  2  0
 16 15  1  0
 16 17  1  0
 17 18  1  0
 19 18  1  6
 19 20  1  0
 20 13  1  0
 21 19  1  0
 22 21  2  0
 24 23  1  1
 24 25  1  0
 24 26  1  0
 26 27  1  6
 26 28  1  0
 27 21  1  0
 28 30  1  0
 29 28  2  0
M  END
$$$$
