WMV.pdb
     RDKit          3D

 30 31  0  0  1  0  0  0  0  0999 V2000
   10.1202  -16.8354   20.8142 N   0  0  0  0  0  0  0  0  0  0  0  0
    9.6171  -16.0818   21.9104 C   0  0  1  0  0  0  0  0  0  0  0  0
    8.1367  -16.0067   22.0449 C   0  0  0  0  0  0  0  0  0  0  0  0
    7.7345  -14.6915   22.5499 C   0  0  0  0  0  0  0  0  0  0  0  0
    7.7450  -13.5360   21.7564 C   0  0  0  0  0  0  0  0  0  0  0  0
    7.3039  -12.5555   22.5394 N   0  0  0  0  0  0  0  0  0  0  0  0
    7.0159  -13.0002   23.7649 C   0  0  0  0  0  0  0  0  0  0  0  0
    6.5417  -12.3683   24.9003 C   0  0  0  0  0  0  0  0  0  0  0  0
    6.3466  -13.1126   26.0399 C   0  0  0  0  0  0  0  0  0  0  0  0
    6.6169  -14.4658   26.0586 C   0  0  0  0  0  0  0  0  0  0  0  0
    7.0826  -15.0872   24.9438 C   0  0  0  0  0  0  0  0  0  0  0  0
    7.2835  -14.3631   23.7963 C   0  0  0  0  0  0  0  0  0  0  0  0
   10.1958  -16.5463   23.2249 C   0  0  0  0  0  0  0  0  0  0  0  0
   10.8642  -17.6115   23.1966 O   0  0  0  0  0  0  0  0  0  0  0  0
   10.3079  -12.5431   28.2406 C   0  0  0  0  0  0  0  0  0  0  0  0
   10.1929  -14.1305   29.0793 S   0  0  0  0  0  0  0  0  0  0  0  0
   10.8912  -15.4702   28.0197 C   0  0  0  0  0  0  0  0  0  0  0  0
   10.3663  -15.2313   26.6572 C   0  0  0  0  0  0  0  0  0  0  0  0
   10.8441  -16.1736   25.5770 C   0  0  2  0  0  0  0  0  0  0  0  0
   10.0036  -15.8364   24.4127 N   0  0  0  0  0  0  0  0  0  0  0  0
   10.6457  -17.5636   25.9715 C   0  0  0  0  0  0  0  0  0  0  0  0
    9.4486  -17.9871   26.1670 O   0  0  0  0  0  0  0  0  0  0  0  0
   12.0612  -22.2565   26.5415 C   0  0  0  0  0  0  0  0  0  0  0  0
   12.4194  -20.8704   26.1218 C   0  0  1  0  0  0  0  0  0  0  0  0
   12.5724  -20.8226   24.6118 C   0  0  0  0  0  0  0  0  0  0  0  0
   11.3122  -19.9166   26.5561 C   0  0  2  0  0  0  0  0  0  0  0  0
   11.6388  -18.5548   26.1719 N   0  0  0  0  0  0  0  0  0  0  0  0
   11.2317  -19.9800   28.0241 C   0  0  0  0  0  0  0  0  0  0  0  0
   11.9775  -19.2695   28.7339 O   0  0  0  0  0  0  0  0  0  0  0  0
   10.3495  -20.8074   28.7146 O   0  0  0  0  0  0  0  0  0  0  0  0
  2  1  1  6
  3  4  1  0
  3  2  1  0
  4  5  2  0
  6  5  1  0
  7  6  1  0
  8  7  2  0
  9  8  1  0
 10 11  1  0
 10  9  2  0
 11 12  2  0
 12  7  1  0
 12  4  1  0
 13  2  1  0
 13 14  2  0
 16 15  1  0
 16 17  1  0
 17 18  1  0
 19 18  1  1
 19 20  1  0
 20 13  1  0
 21 19  1  0
 22 21  2  0
 24 23  1  6
 24 25  1  0
 24 26  1  0
 26 27  1  1
 26 28  1  0
 27 21  1  0
 28 30  1  0
 29 28  2  0
M  END
$$$$
