WMV.pdb
     RDKit          3D

 30 31  0  0  1  0  0  0  0  0999 V2000
    6.2703  -18.5697   24.8055 N   0  0  0  0  0  0  0  0  0  0  0  0
    6.7175  -17.2197   24.7975 C   0  0  1  0  0  0  0  0  0  0  0  0
    6.8833  -16.5638   26.1232 C   0  0  0  0  0  0  0  0  0  0  0  0
    6.1736  -15.2825   26.1530 C   0  0  0  0  0  0  0  0  0  0  0  0
    4.7859  -15.1772   25.9856 C   0  0  0  0  0  0  0  0  0  0  0  0
    4.5060  -13.8813   26.0923 N   0  0  0  0  0  0  0  0  0  0  0  0
    5.6072  -13.1597   26.3135 C   0  0  0  0  0  0  0  0  0  0  0  0
    5.8160  -11.8031   26.4851 C   0  0  0  0  0  0  0  0  0  0  0  0
    7.0979  -11.3516   26.6946 C   0  0  0  0  0  0  0  0  0  0  0  0
    8.1619  -12.2295   26.7339 C   0  0  0  0  0  0  0  0  0  0  0  0
    7.9576  -13.5620   26.5655 C   0  0  0  0  0  0  0  0  0  0  0  0
    6.6866  -14.0332   26.3560 C   0  0  0  0  0  0  0  0  0  0  0  0
    7.9995  -17.0566   24.0173 C   0  0  0  0  0  0  0  0  0  0  0  0
    8.6911  -18.0946   23.8545 O   0  0  0  0  0  0  0  0  0  0  0  0
    7.7996  -12.6017   18.9447 C   0  0  0  0  0  0  0  0  0  0  0  0
    9.1687  -13.2632   19.9061 S   0  0  0  0  0  0  0  0  0  0  0  0
    8.5547  -13.9772   21.4931 C   0  0  0  0  0  0  0  0  0  0  0  0
    9.7585  -14.3458   22.2702 C   0  0  0  0  0  0  0  0  0  0  0  0
    9.7513  -15.7123   22.9149 C   0  0  2  0  0  0  0  0  0  0  0  0
    8.4022  -15.8225   23.5009 N   0  0  0  0  0  0  0  0  0  0  0  0
   10.7733  -15.8062   23.9510 C   0  0  0  0  0  0  0  0  0  0  0  0
   12.0070  -15.8780   23.5994 O   0  0  0  0  0  0  0  0  0  0  0  0
   11.0202  -13.8317   27.4290 C   0  0  0  0  0  0  0  0  0  0  0  0
   11.2988  -15.2838   27.6280 C   0  0  1  0  0  0  0  0  0  0  0  0
   10.0549  -15.9684   28.1665 C   0  0  0  0  0  0  0  0  0  0  0  0
   11.6884  -15.9041   26.2910 C   0  0  2  0  0  0  0  0  0  0  0  0
   10.5809  -15.8242   25.3551 N   0  0  0  0  0  0  0  0  0  0  0  0
   11.9878  -17.3235   26.5387 C   0  0  0  0  0  0  0  0  0  0  0  0
   12.9421  -17.6534   27.2770 O   0  0  0  0  0  0  0  0  0  0  0  0
   11.2575  -18.3745   25.9895 O   0  0  0  0  0  0  0  0  0  0  0  0
  2  1  1  1
  3  4  1  0
  3  2  1  0
  4  5  2  0
  6  5  1  0
  7  6  1  0
  8  7  2  0
  9  8  1  0
 10 11  1  0
 10  9  2  0
 11 12  2  0
 12  7  1  0
 12  4  1  0
 13  2  1  0
 13 14  2  0
 16 15  1  0
 16 17  1  0
 17 18  1  0
 19 18  1  1
 19 20  1  0
 20 13  1  0
 21 19  1  0
 22 21  2  0
 24 23  1  6
 24 25  1  0
 24 26  1  0
 26 27  1  6
 26 28  1  0
 27 21  1  0
 28 30  1  0
 29 28  2  0
M  END
$$$$
