WMV.pdb
     RDKit          3D

 30 31  0  0  1  0  0  0  0  0999 V2000
    7.9856  -15.7394   22.5968 N   0  0  0  0  0  0  0  0  0  0  0  0
    8.3755  -16.0509   23.9286 C   0  0  1  0  0  0  0  0  0  0  0  0
    7.2806  -16.3439   24.8931 C   0  0  0  0  0  0  0  0  0  0  0  0
    6.5712  -15.1132   25.2518 C   0  0  0  0  0  0  0  0  0  0  0  0
    5.4675  -15.0953   26.1157 C   0  0  0  0  0  0  0  0  0  0  0  0
    5.1087  -13.8186   26.2178 N   0  0  0  0  0  0  0  0  0  0  0  0
    5.8983  -13.0287   25.4864 C   0  0  0  0  0  0  0  0  0  0  0  0
    5.9144  -11.6617   25.2754 C   0  0  0  0  0  0  0  0  0  0  0  0
    6.8713  -11.1314   24.4425 C   0  0  0  0  0  0  0  0  0  0  0  0
    7.8020  -11.9416   23.8244 C   0  0  0  0  0  0  0  0  0  0  0  0
    7.7868  -13.2842   24.0312 C   0  0  0  0  0  0  0  0  0  0  0  0
    6.8410  -13.8334   24.8590 C   0  0  0  0  0  0  0  0  0  0  0  0
    9.3704  -17.1853   23.9724 C   0  0  0  0  0  0  0  0  0  0  0  0
    9.0907  -18.1457   24.7351 O   0  0  0  0  0  0  0  0  0  0  0  0
   17.0470  -16.9159   22.2810 C   0  0  0  0  0  0  0  0  0  0  0  0
   15.3083  -16.5385   22.0146 S   0  0  0  0  0  0  0  0  0  0  0  0
   14.2651  -17.3842   23.2802 C   0  0  0  0  0  0  0  0  0  0  0  0
   12.8751  -16.9463   23.0253 C   0  0  0  0  0  0  0  0  0  0  0  0
   11.7971  -17.6174   23.8442 C   0  0  2  0  0  0  0  0  0  0  0  0
   10.5409  -17.1760   23.2095 N   0  0  0  0  0  0  0  0  0  0  0  0
   11.8524  -17.1839   25.2356 C   0  0  0  0  0  0  0  0  0  0  0  0
   12.8673  -17.5190   25.9488 O   0  0  0  0  0  0  0  0  0  0  0  0
   10.1196  -14.7328   29.1866 C   0  0  0  0  0  0  0  0  0  0  0  0
    9.9993  -15.0009   27.7239 C   0  0  1  0  0  0  0  0  0  0  0  0
   10.1164  -13.6945   26.9587 C   0  0  0  0  0  0  0  0  0  0  0  0
   11.1157  -15.9476   27.2974 C   0  0  2  0  0  0  0  0  0  0  0  0
   10.8984  -16.4044   25.9362 N   0  0  0  0  0  0  0  0  0  0  0  0
   11.0659  -17.1136   28.1938 C   0  0  0  0  0  0  0  0  0  0  0  0
   10.4814  -18.1622   27.8424 O   0  0  0  0  0  0  0  0  0  0  0  0
   11.6457  -17.1404   29.4598 O   0  0  0  0  0  0  0  0  0  0  0  0
  2  1  1  6
  3  4  1  0
  3  2  1  0
  4  5  2  0
  6  5  1  0
  7  6  1  0
  8  7  2  0
  9  8  1  0
 10 11  1  0
 10  9  2  0
 11 12  2  0
 12  7  1  0
 12  4  1  0
 13  2  1  0
 13 14  2  0
 16 15  1  0
 16 17  1  0
 17 18  1  0
 19 18  1  6
 19 20  1  0
 20 13  1  0
 21 19  1  0
 22 21  2  0
 24 23  1  1
 24 25  1  0
 24 26  1  0
 26 27  1  6
 26 28  1  0
 27 21  1  0
 28 30  1  0
 29 28  2  0
M  END
$$$$
