WMV.pdb
     RDKit          3D

 30 31  0  0  1  0  0  0  0  0999 V2000
    8.6129  -17.0923   21.5076 N   0  0  0  0  0  0  0  0  0  0  0  0
    7.5837  -16.2481   22.0083 C   0  0  1  0  0  0  0  0  0  0  0  0
    6.3999  -16.0459   21.1293 C   0  0  0  0  0  0  0  0  0  0  0  0
    6.7677  -15.2627   19.9470 C   0  0  0  0  0  0  0  0  0  0  0  0
    6.3637  -15.6078   18.6499 C   0  0  0  0  0  0  0  0  0  0  0  0
    6.8636  -14.6672   17.8532 N   0  0  0  0  0  0  0  0  0  0  0  0
    7.5516  -13.7556   18.5445 C   0  0  0  0  0  0  0  0  0  0  0  0
    8.2417  -12.6192   18.1627 C   0  0  0  0  0  0  0  0  0  0  0  0
    8.8692  -11.8693   19.1295 C   0  0  0  0  0  0  0  0  0  0  0  0
    8.8162  -12.2373   20.4586 C   0  0  0  0  0  0  0  0  0  0  0  0
    8.1385  -13.3532   20.8343 C   0  0  0  0  0  0  0  0  0  0  0  0
    7.5050  -14.1149   19.8856 C   0  0  0  0  0  0  0  0  0  0  0  0
    7.1020  -16.6942   23.3676 C   0  0  0  0  0  0  0  0  0  0  0  0
    6.1212  -16.0690   23.8465 O   0  0  0  0  0  0  0  0  0  0  0  0
    8.3279  -22.4272   25.1727 C   0  0  0  0  0  0  0  0  0  0  0  0
    6.9073  -21.7847   26.0703 S   0  0  0  0  0  0  0  0  0  0  0  0
    6.5129  -20.0716   25.5094 C   0  0  0  0  0  0  0  0  0  0  0  0
    7.6801  -19.2403   25.8776 C   0  0  0  0  0  0  0  0  0  0  0  0
    7.5963  -17.7716   25.5324 C   0  0  2  0  0  0  0  0  0  0  0  0
    7.7079  -17.7444   24.0619 N   0  0  0  0  0  0  0  0  0  0  0  0
    8.6898  -17.0276   26.1469 C   0  0  0  0  0  0  0  0  0  0  0  0
    9.2964  -16.1323   25.4533 O   0  0  0  0  0  0  0  0  0  0  0  0
    9.9201  -13.8636   29.0797 C   0  0  0  0  0  0  0  0  0  0  0  0
    9.1142  -14.8832   28.3471 C   0  0  1  0  0  0  0  0  0  0  0  0
    8.6638  -14.3102   27.0149 C   0  0  0  0  0  0  0  0  0  0  0  0
    9.9728  -16.1204   28.1099 C   0  0  2  0  0  0  0  0  0  0  0  0
    9.1919  -17.1615   27.4656 N   0  0  0  0  0  0  0  0  0  0  0  0
   10.4058  -16.6110   29.4280 C   0  0  0  0  0  0  0  0  0  0  0  0
    9.6630  -17.3551   30.1058 O   0  0  0  0  0  0  0  0  0  0  0  0
   11.6339  -16.2963   30.0044 O   0  0  0  0  0  0  0  0  0  0  0  0
  2  1  1  6
  3  4  1  0
  3  2  1  0
  4  5  2  0
  6  5  1  0
  7  6  1  0
  8  7  2  0
  9  8  1  0
 10 11  1  0
 10  9  2  0
 11 12  2  0
 12  7  1  0
 12  4  1  0
 13  2  1  0
 13 14  2  0
 16 15  1  0
 16 17  1  0
 17 18  1  0
 19 18  1  1
 19 20  1  0
 20 13  1  0
 21 19  1  0
 22 21  2  0
 24 23  1  6
 24 25  1  0
 24 26  1  0
 26 27  1  1
 26 28  1  0
 27 21  1  0
 28 30  1  0
 29 28  2  0
M  END
$$$$
