WVC.pdb
     RDKit          3D

 28 29  0  0  1  0  0  0  0  0999 V2000
    6.6994  -17.2931   25.2784 N   0  0  0  0  0  0  0  0  0  0  0  0
    7.1765  -16.0295   24.7540 C   0  0  1  0  0  0  0  0  0  0  0  0
    8.4811  -15.6788   25.4269 C   0  0  0  0  0  0  0  0  0  0  0  0
    8.2487  -14.7224   26.5657 C   0  0  0  0  0  0  0  0  0  0  0  0
    8.7592  -14.8458   27.8315 C   0  0  0  0  0  0  0  0  0  0  0  0
    8.3204  -13.7929   28.5417 N   0  0  0  0  0  0  0  0  0  0  0  0
    7.5542  -12.9994   27.7972 C   0  0  0  0  0  0  0  0  0  0  0  0
    6.8930  -11.8187   28.0955 C   0  0  0  0  0  0  0  0  0  0  0  0
    6.1629  -11.2038   27.1167 C   0  0  0  0  0  0  0  0  0  0  0  0
    6.0854  -11.7489   25.8540 C   0  0  0  0  0  0  0  0  0  0  0  0
    6.7573  -12.9367   25.5735 C   0  0  0  0  0  0  0  0  0  0  0  0
    7.4996  -13.5713   26.5506 C   0  0  0  0  0  0  0  0  0  0  0  0
    7.2589  -16.0185   23.2885 C   0  0  0  0  0  0  0  0  0  0  0  0
    7.0600  -17.1280   22.6985 O   0  0  0  0  0  0  0  0  0  0  0  0
    7.4972  -13.5169   18.9763 C   0  0  0  0  0  0  0  0  0  0  0  0
    7.4519  -13.5104   20.4742 C   0  0  2  0  0  0  0  0  0  0  0  0
    8.5914  -12.6534   20.9825 C   0  0  0  0  0  0  0  0  0  0  0  0
    7.5811  -14.9285   21.0377 C   0  0  2  0  0  0  0  0  0  0  0  0
    7.5342  -14.9105   22.4766 N   0  0  0  0  0  0  0  0  0  0  0  0
    8.7810  -15.5593   20.4864 C   0  0  0  0  0  0  0  0  0  0  0  0
    8.9067  -15.7048   19.2593 O   0  0  0  0  0  0  0  0  0  0  0  0
    9.8089  -16.0091   21.3427 N   0  0  0  0  0  0  0  0  0  0  0  0
   11.2070  -16.0889   20.9926 C   0  0  1  0  0  0  0  0  0  0  0  0
   11.8791  -14.7684   20.8389 C   0  0  0  0  0  0  0  0  0  0  0  0
   12.0837  -14.2965   19.1019 S   0  0  0  0  0  0  0  0  0  0  0  0
   11.9397  -16.9716   21.9558 C   0  0  0  0  0  0  0  0  0  0  0  0
   11.3091  -17.4593   22.9144 O   0  0  0  0  0  0  0  0  0  0  0  0
   13.2847  -17.2524   21.8042 O   0  0  0  0  0  0  0  0  0  0  0  0
  2  1  1  1
  2  3  1  0
  2 13  1  0
  3  4  1  0
  4  5  2  0
  5  6  1  0
  7  6  1  0
  8  7  2  0
  9  8  1  0
 10 11  1  0
 10  9  2  0
 11 12  2  0
 12  4  1  0
 12  7  1  0
 13 19  1  0
 13 14  2  0
 16 15  1  6
 16 17  1  0
 18 16  1  0
 18 19  1  1
 20 18  1  0
 20 21  2  0
 22 20  1  0
 23 22  1  0
 23 24  1  1
 24 25  1  0
 26 23  1  0
 27 26  2  0
 28 26  1  0
M  END
$$$$
