WVC.pdb
     RDKit          3D

 28 29  0  0  1  0  0  0  0  0999 V2000
    6.2255  -18.4997   25.2084 N   0  0  0  0  0  0  0  0  0  0  0  0
    6.6554  -17.1568   24.8751 C   0  0  1  0  0  0  0  0  0  0  0  0
    7.2918  -16.5281   26.0906 C   0  0  0  0  0  0  0  0  0  0  0  0
    6.6603  -15.1947   26.3886 C   0  0  0  0  0  0  0  0  0  0  0  0
    5.3187  -14.9610   26.5426 C   0  0  0  0  0  0  0  0  0  0  0  0
    5.1702  -13.6501   26.7981 N   0  0  0  0  0  0  0  0  0  0  0  0
    6.3474  -13.0298   26.8161 C   0  0  0  0  0  0  0  0  0  0  0  0
    6.6824  -11.7031   27.0350 C   0  0  0  0  0  0  0  0  0  0  0  0
    7.9993  -11.3379   26.9945 C   0  0  0  0  0  0  0  0  0  0  0  0
    8.9779  -12.2735   26.7402 C   0  0  0  0  0  0  0  0  0  0  0  0
    8.6211  -13.6026   26.5227 C   0  0  0  0  0  0  0  0  0  0  0  0
    7.2952  -13.9890   26.5600 C   0  0  0  0  0  0  0  0  0  0  0  0
    7.5132  -17.1149   23.6847 C   0  0  0  0  0  0  0  0  0  0  0  0
    8.3677  -18.0499   23.5652 O   0  0  0  0  0  0  0  0  0  0  0  0
    8.2904  -13.5394   21.2135 C   0  0  0  0  0  0  0  0  0  0  0  0
    8.0731  -14.9094   20.6466 C   0  0  2  0  0  0  0  0  0  0  0  0
    6.6053  -15.0589   20.3085 C   0  0  0  0  0  0  0  0  0  0  0  0
    8.4858  -15.9936   21.6463 C   0  0  2  0  0  0  0  0  0  0  0  0
    7.4848  -16.1500   22.6693 N   0  0  0  0  0  0  0  0  0  0  0  0
    9.8231  -15.6933   22.1592 C   0  0  0  0  0  0  0  0  0  0  0  0
    9.9834  -14.8057   23.0132 O   0  0  0  0  0  0  0  0  0  0  0  0
   10.9454  -16.4089   21.6896 N   0  0  0  0  0  0  0  0  0  0  0  0
   12.2392  -16.4386   22.3288 C   0  0  1  0  0  0  0  0  0  0  0  0
   12.3654  -17.4493   23.4158 C   0  0  0  0  0  0  0  0  0  0  0  0
   11.7590  -16.8306   25.0068 S   0  0  0  0  0  0  0  0  0  0  0  0
   13.3255  -16.5879   21.3083 C   0  0  0  0  0  0  0  0  0  0  0  0
   13.0099  -16.9091   20.1457 O   0  0  0  0  0  0  0  0  0  0  0  0
   14.6544  -16.3792   21.6267 O   0  0  0  0  0  0  0  0  0  0  0  0
  2  1  1  1
  2  3  1  0
  2 13  1  0
  3  4  1  0
  4  5  2  0
  5  6  1  0
  7  6  1  0
  8  7  2  0
  9  8  1  0
 10 11  1  0
 10  9  2  0
 11 12  2  0
 12  4  1  0
 12  7  1  0
 13 19  1  0
 13 14  2  0
 16 15  1  1
 16 17  1  0
 18 16  1  0
 18 19  1  1
 20 18  1  0
 20 21  2  0
 22 20  1  0
 23 22  1  0
 23 24  1  1
 24 25  1  0
 26 23  1  0
 27 26  2  0
 28 26  1  0
M  END
$$$$
