WVC.pdb
     RDKit          3D

 28 29  0  0  1  0  0  0  0  0999 V2000
    6.1877  -18.5426   24.0138 N   0  0  0  0  0  0  0  0  0  0  0  0
    6.5639  -17.1434   24.0003 C   0  0  1  0  0  0  0  0  0  0  0  0
    7.2602  -16.8088   25.2969 C   0  0  0  0  0  0  0  0  0  0  0  0
    6.7195  -15.5275   25.8725 C   0  0  0  0  0  0  0  0  0  0  0  0
    5.4516  -15.3404   26.3580 C   0  0  0  0  0  0  0  0  0  0  0  0
    5.3705  -14.0666   26.7779 N   0  0  0  0  0  0  0  0  0  0  0  0
    6.5212  -13.4257   26.5871 C   0  0  0  0  0  0  0  0  0  0  0  0
    6.9017  -12.1217   26.8608 C   0  0  0  0  0  0  0  0  0  0  0  0
    8.1738  -11.7255   26.5541 C   0  0  0  0  0  0  0  0  0  0  0  0
    9.0633  -12.6082   25.9820 C   0  0  0  0  0  0  0  0  0  0  0  0
    8.6618  -13.9152   25.7143 C   0  0  0  0  0  0  0  0  0  0  0  0
    7.3803  -14.3323   26.0178 C   0  0  0  0  0  0  0  0  0  0  0  0
    7.3441  -16.7773   22.8121 C   0  0  0  0  0  0  0  0  0  0  0  0
    7.8617  -17.7347   22.1533 O   0  0  0  0  0  0  0  0  0  0  0  0
    6.5871  -13.5293   20.4096 C   0  0  0  0  0  0  0  0  0  0  0  0
    8.0444  -13.7227   20.7004 C   0  0  2  0  0  0  0  0  0  0  0  0
    8.8271  -13.4166   19.4415 C   0  0  0  0  0  0  0  0  0  0  0  0
    8.3327  -15.1574   21.1517 C   0  0  2  0  0  0  0  0  0  0  0  0
    7.5751  -15.4814   22.3324 N   0  0  0  0  0  0  0  0  0  0  0  0
    9.7776  -15.3352   21.3011 C   0  0  0  0  0  0  0  0  0  0  0  0
   10.5453  -15.0502   20.3671 O   0  0  0  0  0  0  0  0  0  0  0  0
   10.3151  -15.8319   22.5079 N   0  0  0  0  0  0  0  0  0  0  0  0
   11.7210  -16.0157   22.7782 C   0  0  1  0  0  0  0  0  0  0  0  0
   12.1088  -15.7918   24.1990 C   0  0  0  0  0  0  0  0  0  0  0  0
   11.3336  -14.3125   24.9008 S   0  0  0  0  0  0  0  0  0  0  0  0
   12.1796  -17.3540   22.2860 C   0  0  0  0  0  0  0  0  0  0  0  0
   13.3977  -17.6171   22.3246 O   0  0  0  0  0  0  0  0  0  0  0  0
   11.2895  -18.2912   21.7958 O   0  0  0  0  0  0  0  0  0  0  0  0
  2  1  1  1
  2  3  1  0
  2 13  1  0
  3  4  1  0
  4  5  2  0
  5  6  1  0
  7  6  1  0
  8  7  2  0
  9  8  1  0
 10 11  1  0
 10  9  2  0
 11 12  2  0
 12  4  1  0
 12  7  1  0
 13 19  1  0
 13 14  2  0
 16 15  1  6
 16 17  1  0
 18 16  1  0
 18 19  1  1
 20 18  1  0
 20 21  2  0
 22 20  1  0
 23 22  1  0
 23 24  1  1
 24 25  1  0
 26 23  1  0
 27 26  2  0
 28 26  1  0
M  END
$$$$
