WVC.pdb
     RDKit          3D

 28 29  0  0  1  0  0  0  0  0999 V2000
    6.4694  -18.4937   24.9943 N   0  0  0  0  0  0  0  0  0  0  0  0
    6.7355  -17.0862   24.7758 C   0  0  1  0  0  0  0  0  0  0  0  0
    7.3122  -16.4930   26.0381 C   0  0  0  0  0  0  0  0  0  0  0  0
    6.5984  -15.2175   26.3974 C   0  0  0  0  0  0  0  0  0  0  0  0
    5.2503  -15.0861   26.6060 C   0  0  0  0  0  0  0  0  0  0  0  0
    5.0179  -13.7968   26.9049 N   0  0  0  0  0  0  0  0  0  0  0  0
    6.1474  -13.0932   26.8991 C   0  0  0  0  0  0  0  0  0  0  0  0
    6.3944  -11.7520   27.1446 C   0  0  0  0  0  0  0  0  0  0  0  0
    7.6793  -11.2911   27.0679 C   0  0  0  0  0  0  0  0  0  0  0  0
    8.7121  -12.1459   26.7515 C   0  0  0  0  0  0  0  0  0  0  0  0
    8.4437  -13.4911   26.5079 C   0  0  0  0  0  0  0  0  0  0  0  0
    7.1513  -13.9737   26.5812 C   0  0  0  0  0  0  0  0  0  0  0  0
    7.5652  -16.8434   23.5896 C   0  0  0  0  0  0  0  0  0  0  0  0
    8.4371  -17.7279   23.3135 O   0  0  0  0  0  0  0  0  0  0  0  0
    6.7213  -13.9152   20.6912 C   0  0  0  0  0  0  0  0  0  0  0  0
    8.1586  -14.0507   21.0930 C   0  0  2  0  0  0  0  0  0  0  0  0
    9.0192  -13.8418   19.8655 C   0  0  0  0  0  0  0  0  0  0  0  0
    8.4380  -15.4329   21.6904 C   0  0  2  0  0  0  0  0  0  0  0  0
    7.4928  -15.7372   22.7330 N   0  0  0  0  0  0  0  0  0  0  0  0
    9.8373  -15.5020   22.1131 C   0  0  0  0  0  0  0  0  0  0  0  0
   10.2867  -14.6844   22.9331 O   0  0  0  0  0  0  0  0  0  0  0  0
   10.6918  -16.4984   21.5942 N   0  0  0  0  0  0  0  0  0  0  0  0
   12.1013  -16.6169   21.8818 C   0  0  1  0  0  0  0  0  0  0  0  0
   12.4629  -17.8015   22.7095 C   0  0  0  0  0  0  0  0  0  0  0  0
   11.4445  -17.9373   24.2016 S   0  0  0  0  0  0  0  0  0  0  0  0
   12.9014  -16.5634   20.6167 C   0  0  0  0  0  0  0  0  0  0  0  0
   12.2962  -16.6042   19.5274 O   0  0  0  0  0  0  0  0  0  0  0  0
   14.2806  -16.4707   20.6333 O   0  0  0  0  0  0  0  0  0  0  0  0
  2  1  1  1
  2  3  1  0
  2 13  1  0
  3  4  1  0
  4  5  2  0
  5  6  1  0
  7  6  1  0
  8  7  2  0
  9  8  1  0
 10 11  1  0
 10  9  2  0
 11 12  2  0
 12  4  1  0
 12  7  1  0
 13 19  1  0
 13 14  2  0
 16 15  1  6
 16 17  1  0
 18 16  1  0
 18 19  1  1
 20 18  1  0
 20 21  2  0
 22 20  1  0
 23 22  1  0
 23 24  1  6
 24 25  1  0
 26 23  1  0
 27 26  2  0
 28 26  1  0
M  END
$$$$
