WVC.pdb
     RDKit          3D

 28 29  0  0  1  0  0  0  0  0999 V2000
    5.9141  -17.8950   24.2015 N   0  0  0  0  0  0  0  0  0  0  0  0
    6.5205  -16.5904   24.0292 C   0  0  1  0  0  0  0  0  0  0  0  0
    7.3153  -16.2503   25.2663 C   0  0  0  0  0  0  0  0  0  0  0  0
    6.6910  -15.0899   25.9940 C   0  0  0  0  0  0  0  0  0  0  0  0
    5.4733  -15.1010   26.6226 C   0  0  0  0  0  0  0  0  0  0  0  0
    5.2854  -13.8782   27.1471 N   0  0  0  0  0  0  0  0  0  0  0  0
    6.3198  -13.0822   26.8877 C   0  0  0  0  0  0  0  0  0  0  0  0
    6.5668  -11.7601   27.2213 C   0  0  0  0  0  0  0  0  0  0  0  0
    7.7377  -11.1829   26.8150 C   0  0  0  0  0  0  0  0  0  0  0  0
    8.6575  -11.9037   26.0856 C   0  0  0  0  0  0  0  0  0  0  0  0
    8.3910  -13.2318   25.7600 C   0  0  0  0  0  0  0  0  0  0  0  0
    7.2129  -13.8308   26.1624 C   0  0  0  0  0  0  0  0  0  0  0  0
    7.3025  -16.4874   22.7914 C   0  0  0  0  0  0  0  0  0  0  0  0
    8.0329  -17.4859   22.4943 O   0  0  0  0  0  0  0  0  0  0  0  0
    6.7582  -13.4750   19.9625 C   0  0  0  0  0  0  0  0  0  0  0  0
    8.1871  -13.7633   20.3098 C   0  0  2  0  0  0  0  0  0  0  0  0
    9.0158  -13.6586   19.0475 C   0  0  0  0  0  0  0  0  0  0  0  0
    8.3384  -15.1631   20.9122 C   0  0  2  0  0  0  0  0  0  0  0  0
    7.3247  -15.4016   21.9064 N   0  0  0  0  0  0  0  0  0  0  0  0
    9.7072  -15.3326   21.4014 C   0  0  0  0  0  0  0  0  0  0  0  0
   10.1558  -14.5833   22.2846 O   0  0  0  0  0  0  0  0  0  0  0  0
   10.5328  -16.3494   20.8754 N   0  0  0  0  0  0  0  0  0  0  0  0
   11.9105  -16.5747   21.2428 C   0  0  1  0  0  0  0  0  0  0  0  0
   12.1618  -17.8783   21.9184 C   0  0  0  0  0  0  0  0  0  0  0  0
   11.1635  -18.0828   23.4162 S   0  0  0  0  0  0  0  0  0  0  0  0
   12.8072  -16.3859   20.0580 C   0  0  0  0  0  0  0  0  0  0  0  0
   12.2863  -16.1860   18.9430 O   0  0  0  0  0  0  0  0  0  0  0  0
   14.1839  -16.4284   20.1754 O   0  0  0  0  0  0  0  0  0  0  0  0
  2  1  1  1
  2  3  1  0
  2 13  1  0
  3  4  1  0
  4  5  2  0
  5  6  1  0
  7  6  1  0
  8  7  2  0
  9  8  1  0
 10 11  1  0
 10  9  2  0
 11 12  2  0
 12  4  1  0
 12  7  1  0
 13 19  1  0
 13 14  2  0
 16 15  1  6
 16 17  1  0
 18 16  1  0
 18 19  1  1
 20 18  1  0
 20 21  2  0
 22 20  1  0
 23 22  1  0
 23 24  1  6
 24 25  1  0
 26 23  1  0
 27 26  2  0
 28 26  1  0
M  END
$$$$
