WVC.pdb
     RDKit          3D

 28 29  0  0  1  0  0  0  0  0999 V2000
    6.3481  -18.4888   25.0882 N   0  0  0  0  0  0  0  0  0  0  0  0
    6.7019  -17.1140   24.7983 C   0  0  1  0  0  0  0  0  0  0  0  0
    7.3959  -16.5209   26.0002 C   0  0  0  0  0  0  0  0  0  0  0  0
    6.7314  -15.2352   26.4139 C   0  0  0  0  0  0  0  0  0  0  0  0
    5.4151  -15.0923   26.7675 C   0  0  0  0  0  0  0  0  0  0  0  0
    5.2225  -13.7968   27.0679 N   0  0  0  0  0  0  0  0  0  0  0  0
    6.3475  -13.1003   26.9256 C   0  0  0  0  0  0  0  0  0  0  0  0
    6.6257  -11.7566   27.1193 C   0  0  0  0  0  0  0  0  0  0  0  0
    7.8962  -11.3049   26.8934 C   0  0  0  0  0  0  0  0  0  0  0  0
    8.8842  -12.1711   26.4799 C   0  0  0  0  0  0  0  0  0  0  0  0
    8.5849  -13.5185   26.2907 C   0  0  0  0  0  0  0  0  0  0  0  0
    7.3064  -13.9920   26.5143 C   0  0  0  0  0  0  0  0  0  0  0  0
    7.4733  -16.9764   23.5571 C   0  0  0  0  0  0  0  0  0  0  0  0
    8.2534  -17.9371   23.2619 O   0  0  0  0  0  0  0  0  0  0  0  0
    6.5327  -14.4307   20.4284 C   0  0  0  0  0  0  0  0  0  0  0  0
    7.9860  -14.4238   20.7938 C   0  0  2  0  0  0  0  0  0  0  0  0
    8.7987  -14.3630   19.5183 C   0  0  0  0  0  0  0  0  0  0  0  0
    8.3630  -15.6784   21.5869 C   0  0  2  0  0  0  0  0  0  0  0  0
    7.4361  -15.8951   22.6672 N   0  0  0  0  0  0  0  0  0  0  0  0
    9.7608  -15.5807   22.0089 C   0  0  0  0  0  0  0  0  0  0  0  0
   10.1300  -14.6543   22.7494 O   0  0  0  0  0  0  0  0  0  0  0  0
   10.7050  -16.5381   21.5797 N   0  0  0  0  0  0  0  0  0  0  0  0
   12.1117  -16.5211   21.9030 C   0  0  1  0  0  0  0  0  0  0  0  0
   12.4628  -17.2388   23.1602 C   0  0  0  0  0  0  0  0  0  0  0  0
   11.0926  -18.2455   23.7855 S   0  0  0  0  0  0  0  0  0  0  0  0
   12.9226  -17.0118   20.7432 C   0  0  0  0  0  0  0  0  0  0  0  0
   12.3248  -17.4819   19.7552 O   0  0  0  0  0  0  0  0  0  0  0  0
   14.3038  -16.9544   20.7471 O   0  0  0  0  0  0  0  0  0  0  0  0
  2  1  1  1
  2  3  1  0
  2 13  1  0
  3  4  1  0
  4  5  2  0
  5  6  1  0
  7  6  1  0
  8  7  2  0
  9  8  1  0
 10 11  1  0
 10  9  2  0
 11 12  2  0
 12  4  1  0
 12  7  1  0
 13 19  1  0
 13 14  2  0
 16 15  1  6
 16 17  1  0
 18 16  1  0
 18 19  1  1
 20 18  1  0
 20 21  2  0
 22 20  1  0
 23 22  1  0
 23 24  1  1
 24 25  1  0
 26 23  1  0
 27 26  2  0
 28 26  1  0
M  END
$$$$
