WVC.pdb
     RDKit          3D

 28 29  0  0  1  0  0  0  0  0999 V2000
    6.4260  -18.2055   24.6159 N   0  0  0  0  0  0  0  0  0  0  0  0
    6.8354  -16.8411   24.3505 C   0  0  1  0  0  0  0  0  0  0  0  0
    7.5406  -16.2937   25.5674 C   0  0  0  0  0  0  0  0  0  0  0  0
    6.7841  -15.1229   26.1353 C   0  0  0  0  0  0  0  0  0  0  0  0
    5.4758  -15.1369   26.5429 C   0  0  0  0  0  0  0  0  0  0  0  0
    5.1835  -13.9019   26.9845 N   0  0  0  0  0  0  0  0  0  0  0  0
    6.2370  -13.0953   26.8816 C   0  0  0  0  0  0  0  0  0  0  0  0
    6.4049  -11.7590   27.2075 C   0  0  0  0  0  0  0  0  0  0  0  0
    7.6212  -11.1731   26.9913 C   0  0  0  0  0  0  0  0  0  0  0  0
    8.6632  -11.8991   26.4579 C   0  0  0  0  0  0  0  0  0  0  0  0
    8.4747  -13.2416   26.1366 C   0  0  0  0  0  0  0  0  0  0  0  0
    7.2524  -13.8495   26.3486 C   0  0  0  0  0  0  0  0  0  0  0  0
    7.6231  -16.7148   23.1183 C   0  0  0  0  0  0  0  0  0  0  0  0
    8.3918  -17.6872   22.8315 O   0  0  0  0  0  0  0  0  0  0  0  0
    8.2883  -13.0119   20.8742 C   0  0  0  0  0  0  0  0  0  0  0  0
    8.0164  -14.3241   20.2035 C   0  0  2  0  0  0  0  0  0  0  0  0
    6.5293  -14.4267   19.9406 C   0  0  0  0  0  0  0  0  0  0  0  0
    8.4682  -15.4967   21.0787 C   0  0  2  0  0  0  0  0  0  0  0  0
    7.6127  -15.6326   22.2287 N   0  0  0  0  0  0  0  0  0  0  0  0
    9.8862  -15.3379   21.4039 C   0  0  0  0  0  0  0  0  0  0  0  0
   10.4820  -14.2860   21.1184 O   0  0  0  0  0  0  0  0  0  0  0  0
   10.5926  -16.3778   22.0456 N   0  0  0  0  0  0  0  0  0  0  0  0
   11.9992  -16.3512   22.3686 C   0  0  1  0  0  0  0  0  0  0  0  0
   12.3180  -16.7648   23.7637 C   0  0  0  0  0  0  0  0  0  0  0  0
   11.1227  -16.1223   24.9639 S   0  0  0  0  0  0  0  0  0  0  0  0
   12.7828  -17.1420   21.3665 C   0  0  0  0  0  0  0  0  0  0  0  0
   12.1616  -17.8487   20.5485 O   0  0  0  0  0  0  0  0  0  0  0  0
   14.1642  -17.1037   21.3315 O   0  0  0  0  0  0  0  0  0  0  0  0
  2  1  1  1
  2  3  1  0
  2 13  1  0
  3  4  1  0
  4  5  2  0
  5  6  1  0
  7  6  1  0
  8  7  2  0
  9  8  1  0
 10 11  1  0
 10  9  2  0
 11 12  2  0
 12  4  1  0
 12  7  1  0
 13 19  1  0
 13 14  2  0
 16 15  1  1
 16 17  1  0
 18 16  1  0
 18 19  1  1
 20 18  1  0
 20 21  2  0
 22 20  1  0
 23 22  1  0
 23 24  1  1
 24 25  1  0
 26 23  1  0
 27 26  2  0
 28 26  1  0
M  END
$$$$
