WVC.pdb
     RDKit          3D

 28 29  0  0  1  0  0  0  0  0999 V2000
    6.2777  -17.3032   24.3686 N   0  0  0  0  0  0  0  0  0  0  0  0
    6.9698  -16.0909   23.9803 C   0  0  1  0  0  0  0  0  0  0  0  0
    8.0106  -15.7633   25.0230 C   0  0  0  0  0  0  0  0  0  0  0  0
    7.3987  -14.9803   26.1536 C   0  0  0  0  0  0  0  0  0  0  0  0
    6.9348  -15.5050   27.3315 C   0  0  0  0  0  0  0  0  0  0  0  0
    6.4715  -14.4810   28.0679 N   0  0  0  0  0  0  0  0  0  0  0  0
    6.6139  -13.3254   27.4234 C   0  0  0  0  0  0  0  0  0  0  0  0
    6.2859  -12.0278   27.7826 C   0  0  0  0  0  0  0  0  0  0  0  0
    6.5510  -11.0119   26.9068 C   0  0  0  0  0  0  0  0  0  0  0  0
    7.1346  -11.2736   25.6868 C   0  0  0  0  0  0  0  0  0  0  0  0
    7.4570  -12.5849   25.3438 C   0  0  0  0  0  0  0  0  0  0  0  0
    7.1963  -13.6234   26.2168 C   0  0  0  0  0  0  0  0  0  0  0  0
    7.5147  -16.1601   22.6191 C   0  0  0  0  0  0  0  0  0  0  0  0
    7.8975  -17.3047   22.2163 O   0  0  0  0  0  0  0  0  0  0  0  0
    8.3674  -12.6930   20.0722 C   0  0  0  0  0  0  0  0  0  0  0  0
    7.8890  -14.0105   19.5423 C   0  0  2  0  0  0  0  0  0  0  0  0
    6.3781  -13.9716   19.4595 C   0  0  0  0  0  0  0  0  0  0  0  0
    8.3268  -15.1637   20.4499 C   0  0  2  0  0  0  0  0  0  0  0  0
    7.6550  -15.0938   21.7214 N   0  0  0  0  0  0  0  0  0  0  0  0
    9.7871  -15.1751   20.5451 C   0  0  0  0  0  0  0  0  0  0  0  0
   10.3895  -14.2259   21.0733 O   0  0  0  0  0  0  0  0  0  0  0  0
   10.5273  -16.2648   20.0383 N   0  0  0  0  0  0  0  0  0  0  0  0
   11.6506  -16.8856   20.6989 C   0  0  1  0  0  0  0  0  0  0  0  0
   11.3942  -17.2744   22.1139 C   0  0  0  0  0  0  0  0  0  0  0  0
   12.6389  -16.6077   23.2489 S   0  0  0  0  0  0  0  0  0  0  0  0
   12.1602  -18.0411   19.8934 C   0  0  0  0  0  0  0  0  0  0  0  0
   13.3768  -18.0894   19.6253 O   0  0  0  0  0  0  0  0  0  0  0  0
   11.3181  -19.0425   19.4472 O   0  0  0  0  0  0  0  0  0  0  0  0
  2  1  1  1
  2  3  1  0
  2 13  1  0
  3  4  1  0
  4  5  2  0
  5  6  1  0
  7  6  1  0
  8  7  2  0
  9  8  1  0
 10 11  1  0
 10  9  2  0
 11 12  2  0
 12  4  1  0
 12  7  1  0
 13 19  1  0
 13 14  2  0
 16 15  1  1
 16 17  1  0
 18 16  1  0
 18 19  1  1
 20 18  1  0
 20 21  2  0
 22 20  1  0
 23 22  1  0
 23 24  1  1
 24 25  1  0
 26 23  1  0
 27 26  2  0
 28 26  1  0
M  END
$$$$
