WVC.pdb
     RDKit          3D

 28 29  0  0  1  0  0  0  0  0999 V2000
    6.1631  -17.8001   24.3682 N   0  0  0  0  0  0  0  0  0  0  0  0
    6.7346  -16.4953   24.1032 C   0  0  1  0  0  0  0  0  0  0  0  0
    7.4893  -16.0315   25.3252 C   0  0  0  0  0  0  0  0  0  0  0  0
    6.7046  -14.9814   26.0648 C   0  0  0  0  0  0  0  0  0  0  0  0
    5.5112  -15.1794   26.7087 C   0  0  0  0  0  0  0  0  0  0  0  0
    5.1456  -14.0005   27.2400 N   0  0  0  0  0  0  0  0  0  0  0  0
    6.0429  -13.0554   26.9704 C   0  0  0  0  0  0  0  0  0  0  0  0
    6.0894  -11.7117   27.3058 C   0  0  0  0  0  0  0  0  0  0  0  0
    7.1530  -10.9617   26.8869 C   0  0  0  0  0  0  0  0  0  0  0  0
    8.1625  -11.5323   26.1433 C   0  0  0  0  0  0  0  0  0  0  0  0
    8.0978  -12.8850   25.8162 C   0  0  0  0  0  0  0  0  0  0  0  0
    7.0303  -13.6575   26.2313 C   0  0  0  0  0  0  0  0  0  0  0  0
    7.5425  -16.4681   22.8780 C   0  0  0  0  0  0  0  0  0  0  0  0
    8.3210  -17.4561   22.6871 O   0  0  0  0  0  0  0  0  0  0  0  0
    8.6771  -12.8466   20.8826 C   0  0  0  0  0  0  0  0  0  0  0  0
    8.2918  -14.0392   20.0612 C   0  0  2  0  0  0  0  0  0  0  0  0
    6.8322  -13.9070   19.6829 C   0  0  0  0  0  0  0  0  0  0  0  0
    8.5077  -15.3402   20.8397 C   0  0  2  0  0  0  0  0  0  0  0  0
    7.5418  -15.4648   21.9002 N   0  0  0  0  0  0  0  0  0  0  0  0
    9.8992  -15.4095   21.2874 C   0  0  0  0  0  0  0  0  0  0  0  0
   10.3818  -14.4993   21.9814 O   0  0  0  0  0  0  0  0  0  0  0  0
   10.7085  -16.5112   20.9359 N   0  0  0  0  0  0  0  0  0  0  0  0
   12.1086  -16.6504   21.2580 C   0  0  1  0  0  0  0  0  0  0  0  0
   12.4075  -17.7157   22.2555 C   0  0  0  0  0  0  0  0  0  0  0  0
   11.5647  -17.4381   23.8349 S   0  0  0  0  0  0  0  0  0  0  0  0
   12.9199  -16.8201   20.0104 C   0  0  0  0  0  0  0  0  0  0  0  0
   14.1631  -16.8231   20.1045 O   0  0  0  0  0  0  0  0  0  0  0  0
   12.3243  -16.9715   18.7722 O   0  0  0  0  0  0  0  0  0  0  0  0
  2  1  1  1
  2  3  1  0
  2 13  1  0
  3  4  1  0
  4  5  2  0
  5  6  1  0
  7  6  1  0
  8  7  2  0
  9  8  1  0
 10 11  1  0
 10  9  2  0
 11 12  2  0
 12  4  1  0
 12  7  1  0
 13 19  1  0
 13 14  2  0
 16 15  1  1
 16 17  1  0
 18 16  1  0
 18 19  1  1
 20 18  1  0
 20 21  2  0
 22 20  1  0
 23 22  1  0
 23 24  1  1
 24 25  1  0
 26 23  1  0
 27 26  2  0
 28 26  1  0
M  END
$$$$
