WVC.pdb
     RDKit          3D

 28 29  0  0  1  0  0  0  0  0999 V2000
    6.2433  -18.3881   25.0120 N   0  0  0  0  0  0  0  0  0  0  0  0
    6.6623  -17.0262   24.7489 C   0  0  1  0  0  0  0  0  0  0  0  0
    7.3018  -16.4594   25.9929 C   0  0  0  0  0  0  0  0  0  0  0  0
    6.6602  -15.1505   26.3683 C   0  0  0  0  0  0  0  0  0  0  0  0
    5.3299  -14.9587   26.6357 C   0  0  0  0  0  0  0  0  0  0  0  0
    5.1667  -13.6576   26.9288 N   0  0  0  0  0  0  0  0  0  0  0  0
    6.3239  -13.0036   26.8635 C   0  0  0  0  0  0  0  0  0  0  0  0
    6.6390  -11.6718   27.0811 C   0  0  0  0  0  0  0  0  0  0  0  0
    7.9376  -11.2678   26.9409 C   0  0  0  0  0  0  0  0  0  0  0  0
    8.9174  -12.1698   26.5889 C   0  0  0  0  0  0  0  0  0  0  0  0
    8.5808  -13.5046   26.3743 C   0  0  0  0  0  0  0  0  0  0  0  0
    7.2736  -13.9300   26.5117 C   0  0  0  0  0  0  0  0  0  0  0  0
    7.5126  -16.9145   23.5577 C   0  0  0  0  0  0  0  0  0  0  0  0
    8.2526  -17.9143   23.2903 O   0  0  0  0  0  0  0  0  0  0  0  0
    6.8946  -14.2940   20.3918 C   0  0  0  0  0  0  0  0  0  0  0  0
    8.3162  -14.3664   20.8603 C   0  0  2  0  0  0  0  0  0  0  0  0
    9.2214  -14.3212   19.6480 C   0  0  0  0  0  0  0  0  0  0  0  0
    8.5737  -15.6534   21.6493 C   0  0  2  0  0  0  0  0  0  0  0  0
    7.5904  -15.8190   22.6878 N   0  0  0  0  0  0  0  0  0  0  0  0
    9.9563  -15.6570   22.1290 C   0  0  0  0  0  0  0  0  0  0  0  0
   10.4380  -14.6447   22.6639 O   0  0  0  0  0  0  0  0  0  0  0  0
   10.7577  -16.8104   21.9895 N   0  0  0  0  0  0  0  0  0  0  0  0
   12.1445  -16.9109   22.3773 C   0  0  1  0  0  0  0  0  0  0  0  0
   12.5350  -18.2395   22.9263 C   0  0  0  0  0  0  0  0  0  0  0  0
   11.5440  -18.7084   24.3685 S   0  0  0  0  0  0  0  0  0  0  0  0
   13.0366  -16.4975   21.2474 C   0  0  0  0  0  0  0  0  0  0  0  0
   12.5238  -16.2849   20.1310 O   0  0  0  0  0  0  0  0  0  0  0  0
   14.4005  -16.3488   21.4163 O   0  0  0  0  0  0  0  0  0  0  0  0
  2  1  1  1
  2  3  1  0
  2 13  1  0
  3  4  1  0
  4  5  2  0
  5  6  1  0
  7  6  1  0
  8  7  2  0
  9  8  1  0
 10 11  1  0
 10  9  2  0
 11 12  2  0
 12  4  1  0
 12  7  1  0
 13 19  1  0
 13 14  2  0
 16 15  1  6
 16 17  1  0
 18 16  1  0
 18 19  1  1
 20 18  1  0
 20 21  2  0
 22 20  1  0
 23 22  1  0
 23 24  1  6
 24 25  1  0
 26 23  1  0
 27 26  2  0
 28 26  1  0
M  END
$$$$
