WVC.pdb
     RDKit          3D

 28 29  0  0  1  0  0  0  0  0999 V2000
    6.6184  -18.7795   25.2951 N   0  0  0  0  0  0  0  0  0  0  0  0
    6.8201  -17.3623   25.0713 C   0  0  1  0  0  0  0  0  0  0  0  0
    7.3376  -16.7325   26.3414 C   0  0  0  0  0  0  0  0  0  0  0  0
    6.6790  -15.3998   26.5778 C   0  0  0  0  0  0  0  0  0  0  0  0
    5.3287  -15.1740   26.6396 C   0  0  0  0  0  0  0  0  0  0  0  0
    5.1550  -13.8609   26.8656 N   0  0  0  0  0  0  0  0  0  0  0  0
    6.3244  -13.2315   26.9522 C   0  0  0  0  0  0  0  0  0  0  0  0
    6.6354  -11.8994   27.1733 C   0  0  0  0  0  0  0  0  0  0  0  0
    7.9498  -11.5249   27.2143 C   0  0  0  0  0  0  0  0  0  0  0  0
    8.9491  -12.4566   27.0387 C   0  0  0  0  0  0  0  0  0  0  0  0
    8.6162  -13.7913   26.8175 C   0  0  0  0  0  0  0  0  0  0  0  0
    7.2933  -14.1870   26.7730 C   0  0  0  0  0  0  0  0  0  0  0  0
    7.6640  -17.0871   23.9023 C   0  0  0  0  0  0  0  0  0  0  0  0
    8.5698  -17.9412   23.6400 O   0  0  0  0  0  0  0  0  0  0  0  0
    6.7134  -14.2946   20.9565 C   0  0  0  0  0  0  0  0  0  0  0  0
    8.1564  -14.3111   21.3606 C   0  0  2  0  0  0  0  0  0  0  0  0
    9.0016  -14.1088   20.1214 C   0  0  0  0  0  0  0  0  0  0  0  0
    8.5286  -15.6379   22.0287 C   0  0  2  0  0  0  0  0  0  0  0  0
    7.5717  -15.9802   23.0485 N   0  0  0  0  0  0  0  0  0  0  0  0
    9.9105  -15.5674   22.5050 C   0  0  0  0  0  0  0  0  0  0  0  0
   10.3068  -14.5746   23.1376 O   0  0  0  0  0  0  0  0  0  0  0  0
   10.8083  -16.6265   22.2513 N   0  0  0  0  0  0  0  0  0  0  0  0
   12.2064  -16.6351   22.6103 C   0  0  1  0  0  0  0  0  0  0  0  0
   12.6343  -17.8307   23.3889 C   0  0  0  0  0  0  0  0  0  0  0  0
   11.6627  -18.0528   24.9017 S   0  0  0  0  0  0  0  0  0  0  0  0
   13.0611  -16.4326   21.3970 C   0  0  0  0  0  0  0  0  0  0  0  0
   14.2754  -16.1991   21.5564 O   0  0  0  0  0  0  0  0  0  0  0  0
   12.5361  -16.4987   20.1199 O   0  0  0  0  0  0  0  0  0  0  0  0
  2  1  1  1
  2  3  1  0
  2 13  1  0
  3  4  1  0
  4  5  2  0
  5  6  1  0
  7  6  1  0
  8  7  2  0
  9  8  1  0
 10 11  1  0
 10  9  2  0
 11 12  2  0
 12  4  1  0
 12  7  1  0
 13 19  1  0
 13 14  2  0
 16 15  1  6
 16 17  1  0
 18 16  1  0
 18 19  1  1
 20 18  1  0
 20 21  2  0
 22 20  1  0
 23 22  1  0
 23 24  1  6
 24 25  1  0
 26 23  1  0
 27 26  2  0
 28 26  1  0
M  END
$$$$
