WVC.pdb
     RDKit          3D

 28 29  0  0  1  0  0  0  0  0999 V2000
    7.1751  -17.3573   25.4938 N   0  0  0  0  0  0  0  0  0  0  0  0
    7.5450  -16.1027   24.8706 C   0  0  1  0  0  0  0  0  0  0  0  0
    8.7607  -15.5456   25.5702 C   0  0  0  0  0  0  0  0  0  0  0  0
    8.3521  -14.6581   26.7152 C   0  0  0  0  0  0  0  0  0  0  0  0
    8.7254  -14.8174   28.0241 C   0  0  0  0  0  0  0  0  0  0  0  0
    8.1541  -13.8230   28.7244 N   0  0  0  0  0  0  0  0  0  0  0  0
    7.4328  -13.0332   27.9326 C   0  0  0  0  0  0  0  0  0  0  0  0
    6.6793  -11.9025   28.2044 C   0  0  0  0  0  0  0  0  0  0  0  0
    6.0295  -11.2777   27.1765 C   0  0  0  0  0  0  0  0  0  0  0  0
    6.1220  -11.7641   25.8910 C   0  0  0  0  0  0  0  0  0  0  0  0
    6.8844  -12.9023   25.6378 C   0  0  0  0  0  0  0  0  0  0  0  0
    7.5476  -13.5461   26.6646 C   0  0  0  0  0  0  0  0  0  0  0  0
    7.7153  -16.2198   23.4174 C   0  0  0  0  0  0  0  0  0  0  0  0
    7.5241  -17.3719   22.9125 O   0  0  0  0  0  0  0  0  0  0  0  0
    6.6254  -13.3676   20.7759 C   0  0  0  0  0  0  0  0  0  0  0  0
    7.9542  -13.9634   20.4222 C   0  0  2  0  0  0  0  0  0  0  0  0
    8.0176  -14.1305   18.9192 C   0  0  0  0  0  0  0  0  0  0  0  0
    8.1497  -15.3219   21.1015 C   0  0  2  0  0  0  0  0  0  0  0  0
    8.0667  -15.1917   22.5330 N   0  0  0  0  0  0  0  0  0  0  0  0
    9.3965  -15.9236   20.6272 C   0  0  0  0  0  0  0  0  0  0  0  0
    9.5375  -16.2130   19.4275 O   0  0  0  0  0  0  0  0  0  0  0  0
   10.4527  -16.1816   21.5272 N   0  0  0  0  0  0  0  0  0  0  0  0
   11.6936  -16.8358   21.1870 C   0  0  1  0  0  0  0  0  0  0  0  0
   12.8840  -15.9403   21.1964 C   0  0  0  0  0  0  0  0  0  0  0  0
   12.7342  -14.5812   20.0080 S   0  0  0  0  0  0  0  0  0  0  0  0
   11.9045  -18.0422   22.0494 C   0  0  0  0  0  0  0  0  0  0  0  0
   11.0827  -18.2758   22.9575 O   0  0  0  0  0  0  0  0  0  0  0  0
   12.9791  -18.8909   21.8603 O   0  0  0  0  0  0  0  0  0  0  0  0
  2  1  1  1
  2  3  1  0
  2 13  1  0
  3  4  1  0
  4  5  2  0
  5  6  1  0
  7  6  1  0
  8  7  2  0
  9  8  1  0
 10 11  1  0
 10  9  2  0
 11 12  2  0
 12  4  1  0
 12  7  1  0
 13 19  1  0
 13 14  2  0
 16 15  1  6
 16 17  1  0
 18 16  1  0
 18 19  1  1
 20 18  1  0
 20 21  2  0
 22 20  1  0
 23 22  1  0
 23 24  1  1
 24 25  1  0
 26 23  1  0
 27 26  2  0
 28 26  1  0
M  END
$$$$
