WVC.pdb
     RDKit          3D

 28 29  0  0  1  0  0  0  0  0999 V2000
    6.1515  -18.0934   24.6183 N   0  0  0  0  0  0  0  0  0  0  0  0
    6.6499  -16.7600   24.3480 C   0  0  1  0  0  0  0  0  0  0  0  0
    7.2793  -16.2063   25.6030 C   0  0  0  0  0  0  0  0  0  0  0  0
    6.5384  -14.9825   26.0709 C   0  0  0  0  0  0  0  0  0  0  0  0
    5.2087  -14.9281   26.3980 C   0  0  0  0  0  0  0  0  0  0  0  0
    4.9410  -13.6636   26.7655 N   0  0  0  0  0  0  0  0  0  0  0  0
    6.0305  -12.9030   26.6913 C   0  0  0  0  0  0  0  0  0  0  0  0
    6.2327  -11.5601   26.9670 C   0  0  0  0  0  0  0  0  0  0  0  0
    7.4823  -11.0312   26.7995 C   0  0  0  0  0  0  0  0  0  0  0  0
    8.5239  -11.8202   26.3637 C   0  0  0  0  0  0  0  0  0  0  0  0
    8.3007  -13.1683   26.0916 C   0  0  0  0  0  0  0  0  0  0  0  0
    7.0444  -13.7191   26.2555 C   0  0  0  0  0  0  0  0  0  0  0  0
    7.5418  -16.7133   23.1831 C   0  0  0  0  0  0  0  0  0  0  0  0
    8.4073  -17.6412   23.0908 O   0  0  0  0  0  0  0  0  0  0  0  0
    8.3839  -13.1700   20.8470 C   0  0  0  0  0  0  0  0  0  0  0  0
    8.1759  -14.4908   20.1705 C   0  0  2  0  0  0  0  0  0  0  0  0
    6.7279  -14.5837   19.7395 C   0  0  0  0  0  0  0  0  0  0  0  0
    8.5103  -15.6526   21.1106 C   0  0  2  0  0  0  0  0  0  0  0  0
    7.5349  -15.7508   22.1651 N   0  0  0  0  0  0  0  0  0  0  0  0
    9.8884  -15.5104   21.5822 C   0  0  0  0  0  0  0  0  0  0  0  0
   10.2777  -14.4362   22.0694 O   0  0  0  0  0  0  0  0  0  0  0  0
   10.7902  -16.5921   21.4892 N   0  0  0  0  0  0  0  0  0  0  0  0
   12.1991  -16.5285   21.7966 C   0  0  1  0  0  0  0  0  0  0  0  0
   12.5607  -17.0637   23.1390 C   0  0  0  0  0  0  0  0  0  0  0  0
   11.1061  -17.3689   24.1747 S   0  0  0  0  0  0  0  0  0  0  0  0
   13.0030  -17.1750   20.7106 C   0  0  0  0  0  0  0  0  0  0  0  0
   12.3983  -17.7483   19.7832 O   0  0  0  0  0  0  0  0  0  0  0  0
   14.3851  -17.1484   20.7166 O   0  0  0  0  0  0  0  0  0  0  0  0
  2  1  1  1
  2  3  1  0
  2 13  1  0
  3  4  1  0
  4  5  2  0
  5  6  1  0
  7  6  1  0
  8  7  2  0
  9  8  1  0
 10 11  1  0
 10  9  2  0
 11 12  2  0
 12  4  1  0
 12  7  1  0
 13 19  1  0
 13 14  2  0
 16 15  1  1
 16 17  1  0
 18 16  1  0
 18 19  1  1
 20 18  1  0
 20 21  2  0
 22 20  1  0
 23 22  1  0
 23 24  1  1
 24 25  1  0
 26 23  1  0
 27 26  2  0
 28 26  1  0
M  END
$$$$
