WVC.pdb
     RDKit          3D

 28 29  0  0  1  0  0  0  0  0999 V2000
    6.6877  -18.6174   25.0501 N   0  0  0  0  0  0  0  0  0  0  0  0
    6.9071  -17.2076   24.7981 C   0  0  1  0  0  0  0  0  0  0  0  0
    7.4630  -16.5656   26.0458 C   0  0  0  0  0  0  0  0  0  0  0  0
    6.7192  -15.2963   26.3641 C   0  0  0  0  0  0  0  0  0  0  0  0
    5.3666  -15.1878   26.5558 C   0  0  0  0  0  0  0  0  0  0  0  0
    5.1044  -13.8963   26.8182 N   0  0  0  0  0  0  0  0  0  0  0  0
    6.2192  -13.1695   26.8049 C   0  0  0  0  0  0  0  0  0  0  0  0
    6.4358  -11.8174   27.0173 C   0  0  0  0  0  0  0  0  0  0  0  0
    7.7117  -11.3319   26.9411 C   0  0  0  0  0  0  0  0  0  0  0  0
    8.7652  -12.1729   26.6577 C   0  0  0  0  0  0  0  0  0  0  0  0
    8.5271  -13.5294   26.4472 C   0  0  0  0  0  0  0  0  0  0  0  0
    7.2443  -14.0369   26.5205 C   0  0  0  0  0  0  0  0  0  0  0  0
    7.7290  -16.9656   23.6063 C   0  0  0  0  0  0  0  0  0  0  0  0
    8.6800  -17.7838   23.3945 O   0  0  0  0  0  0  0  0  0  0  0  0
    6.6041  -14.5828   20.3839 C   0  0  0  0  0  0  0  0  0  0  0  0
    8.0185  -14.3840   20.8371 C   0  0  2  0  0  0  0  0  0  0  0  0
    8.8904  -14.1991   19.6137 C   0  0  0  0  0  0  0  0  0  0  0  0
    8.5138  -15.5854   21.6474 C   0  0  2  0  0  0  0  0  0  0  0  0
    7.5709  -15.9258   22.6808 N   0  0  0  0  0  0  0  0  0  0  0  0
    9.8655  -15.3127   22.1375 C   0  0  0  0  0  0  0  0  0  0  0  0
   10.0390  -14.5845   23.1287 O   0  0  0  0  0  0  0  0  0  0  0  0
   10.9868  -15.8743   21.4900 N   0  0  0  0  0  0  0  0  0  0  0  0
   12.2084  -16.2784   22.1441 C   0  0  1  0  0  0  0  0  0  0  0  0
   12.0104  -17.1728   23.3189 C   0  0  0  0  0  0  0  0  0  0  0  0
   13.3467  -17.0232   24.5329 S   0  0  0  0  0  0  0  0  0  0  0  0
   13.1625  -16.8722   21.1538 C   0  0  0  0  0  0  0  0  0  0  0  0
   14.3656  -16.5523   21.2207 O   0  0  0  0  0  0  0  0  0  0  0  0
   12.7400  -17.7570   20.1793 O   0  0  0  0  0  0  0  0  0  0  0  0
  2  1  1  1
  2  3  1  0
  2 13  1  0
  3  4  1  0
  4  5  2  0
  5  6  1  0
  7  6  1  0
  8  7  2  0
  9  8  1  0
 10 11  1  0
 10  9  2  0
 11 12  2  0
 12  4  1  0
 12  7  1  0
 13 19  1  0
 13 14  2  0
 16 15  1  6
 16 17  1  0
 18 16  1  0
 18 19  1  1
 20 18  1  0
 20 21  2  0
 22 20  1  0
 23 22  1  0
 23 24  1  1
 24 25  1  0
 26 23  1  0
 27 26  2  0
 28 26  1  0
M  END
$$$$
