WVC.pdb
     RDKit          3D

 28 29  0  0  1  0  0  0  0  0999 V2000
    6.8011  -16.7455   24.9218 N   0  0  0  0  0  0  0  0  0  0  0  0
    7.3675  -15.6195   24.2071 C   0  0  1  0  0  0  0  0  0  0  0  0
    8.5423  -15.0823   24.9874 C   0  0  0  0  0  0  0  0  0  0  0  0
    8.0760  -14.4134   26.2526 C   0  0  0  0  0  0  0  0  0  0  0  0
    8.2659  -14.8861   27.5248 C   0  0  0  0  0  0  0  0  0  0  0  0
    7.7043  -14.0012   28.3658 N   0  0  0  0  0  0  0  0  0  0  0  0
    7.1635  -12.9843   27.6991 C   0  0  0  0  0  0  0  0  0  0  0  0
    6.4884  -11.8558   28.1362 C   0  0  0  0  0  0  0  0  0  0  0  0
    6.0326  -10.9579   27.2113 C   0  0  0  0  0  0  0  0  0  0  0  0
    6.2410  -11.1712   25.8665 C   0  0  0  0  0  0  0  0  0  0  0  0
    6.9219  -12.3119   25.4467 C   0  0  0  0  0  0  0  0  0  0  0  0
    7.3893  -13.2295   26.3676 C   0  0  0  0  0  0  0  0  0  0  0  0
    7.6954  -15.9396   22.8127 C   0  0  0  0  0  0  0  0  0  0  0  0
    8.0211  -17.1446   22.5663 O   0  0  0  0  0  0  0  0  0  0  0  0
    8.5357  -12.9647   19.7419 C   0  0  0  0  0  0  0  0  0  0  0  0
    7.8090  -14.2369   19.4271 C   0  0  2  0  0  0  0  0  0  0  0  0
    6.3214  -13.9690   19.5060 C   0  0  0  0  0  0  0  0  0  0  0  0
    8.1866  -15.3477   20.4113 C   0  0  2  0  0  0  0  0  0  0  0  0
    7.6856  -15.0525   21.7284 N   0  0  0  0  0  0  0  0  0  0  0  0
    9.6321  -15.5694   20.3574 C   0  0  0  0  0  0  0  0  0  0  0  0
   10.4193  -14.6505   20.6383 O   0  0  0  0  0  0  0  0  0  0  0  0
   10.1480  -16.8296   19.9860 N   0  0  0  0  0  0  0  0  0  0  0  0
   11.5475  -17.1826   19.9688 C   0  0  1  0  0  0  0  0  0  0  0  0
   11.9237  -18.2540   20.9330 C   0  0  0  0  0  0  0  0  0  0  0  0
   11.3215  -17.9172   22.6080 S   0  0  0  0  0  0  0  0  0  0  0  0
   11.9879  -17.5147   18.5762 C   0  0  0  0  0  0  0  0  0  0  0  0
   11.1187  -17.6438   17.6918 O   0  0  0  0  0  0  0  0  0  0  0  0
   13.3228  -17.6788   18.2567 O   0  0  0  0  0  0  0  0  0  0  0  0
  2  1  1  1
  2  3  1  0
  2 13  1  0
  3  4  1  0
  4  5  2  0
  5  6  1  0
  7  6  1  0
  8  7  2  0
  9  8  1  0
 10 11  1  0
 10  9  2  0
 11 12  2  0
 12  4  1  0
 12  7  1  0
 13 19  1  0
 13 14  2  0
 16 15  1  1
 16 17  1  0
 18 16  1  0
 18 19  1  1
 20 18  1  0
 20 21  2  0
 22 20  1  0
 23 22  1  0
 23 24  1  1
 24 25  1  0
 26 23  1  0
 27 26  2  0
 28 26  1  0
M  END
$$$$
