MDF.pdb
     RDKit          3D

 28 28  0  0  1  0  0  0  0  0999 V2000
    7.3368  -11.8052   19.6446 C   0  0  0  0  0  0  0  0  0  0  0  0
    7.5757  -13.1413   18.4399 S   0  0  0  0  0  0  0  0  0  0  0  0
    7.1245  -14.6932   19.2486 C   0  0  0  0  0  0  0  0  0  0  0  0
    6.7393  -14.4610   20.7079 C   0  0  0  0  0  0  0  0  0  0  0  0
    8.0497  -14.3471   21.4717 C   0  0  2  0  0  0  0  0  0  0  0  0
    9.0811  -14.0350   20.5417 N   0  0  0  0  0  0  0  0  0  0  0  0
    8.3157  -15.5347   22.2940 C   0  0  0  0  0  0  0  0  0  0  0  0
    7.4119  -16.1197   22.9407 O   0  0  0  0  0  0  0  0  0  0  0  0
    9.6333  -16.0663   22.3823 N   0  0  0  0  0  0  0  0  0  0  0  0
    9.9911  -17.1229   23.3012 C   0  0  1  0  0  0  0  0  0  0  0  0
   11.3608  -17.6927   23.0370 C   0  0  0  0  0  0  0  0  0  0  0  0
   11.5420  -18.1761   21.6478 C   0  0  0  0  0  0  0  0  0  0  0  0
   12.6526  -18.1171   21.0671 O   0  0  0  0  0  0  0  0  0  0  0  0
    9.8635  -16.6075   24.6842 C   0  0  0  0  0  0  0  0  0  0  0  0
   10.3424  -15.4775   24.9489 O   0  0  0  0  0  0  0  0  0  0  0  0
   10.4966  -18.7191   20.9149 O   0  0  0  0  0  0  0  0  0  0  0  0
    9.2106  -17.3714   25.7056 N   0  0  0  0  0  0  0  0  0  0  0  0
    9.1373  -16.8181   27.0348 C   0  0  1  0  0  0  0  0  0  0  0  0
    7.7481  -16.2442   27.2775 C   0  0  0  0  0  0  0  0  0  0  0  0
    7.6437  -14.8113   26.9743 C   0  0  0  0  0  0  0  0  0  0  0  0
    8.6023  -13.9267   27.3831 C   0  0  0  0  0  0  0  0  0  0  0  0
    8.5104  -12.5720   27.0945 C   0  0  0  0  0  0  0  0  0  0  0  0
    7.4299  -12.0984   26.3793 C   0  0  0  0  0  0  0  0  0  0  0  0
    6.4618  -12.9889   25.9663 C   0  0  0  0  0  0  0  0  0  0  0  0
    6.5670  -14.3406   26.2620 C   0  0  0  0  0  0  0  0  0  0  0  0
    9.5115  -17.8075   28.0457 C   0  0  0  0  0  0  0  0  0  0  0  0
    9.8054  -19.1136   27.6112 O   0  0  0  0  0  0  0  0  0  0  0  0
    9.5945  -17.5968   29.2682 O   0  0  0  0  0  0  0  0  0  0  0  0
  2  1  1  0
  3  2  1  0
  4  3  1  0
  4  5  1  0
  5  6  1  6
  7  5  1  0
  7  8  2  0
  9  7  1  0
 10  9  1  0
 10 11  1  6
 12 11  1  0
 12 16  1  0
 13 12  2  0
 14 10  1  0
 15 14  2  0
 17 14  1  0
 18 17  1  0
 18 26  1  0
 19 20  1  0
 18 19  1  1
 20 25  2  0
 21 22  2  0
 21 20  1  0
 22 23  1  0
 23 24  2  0
 25 24  1  0
 26 27  1  0
 28 26  2  0
M  END
$$$$
