MDF.pdb
     RDKit          3D

 28 28  0  0  1  0  0  0  0  0999 V2000
    8.0104  -11.4323   21.1448 C   0  0  0  0  0  0  0  0  0  0  0  0
    7.2729  -12.1567   19.6533 S   0  0  0  0  0  0  0  0  0  0  0  0
    7.1283  -13.9375   19.9250 C   0  0  0  0  0  0  0  0  0  0  0  0
    7.8967  -14.3675   21.1725 C   0  0  0  0  0  0  0  0  0  0  0  0
    7.7117  -15.8736   21.2774 C   0  0  2  0  0  0  0  0  0  0  0  0
    6.3231  -16.1609   21.1542 N   0  0  0  0  0  0  0  0  0  0  0  0
    8.3387  -16.4251   22.4857 C   0  0  0  0  0  0  0  0  0  0  0  0
    7.7265  -17.1923   23.2693 O   0  0  0  0  0  0  0  0  0  0  0  0
    9.6860  -16.0983   22.8084 N   0  0  0  0  0  0  0  0  0  0  0  0
   10.6334  -17.0751   23.2954 C   0  0  1  0  0  0  0  0  0  0  0  0
   11.8339  -17.2278   22.3978 C   0  0  0  0  0  0  0  0  0  0  0  0
   12.8849  -18.1080   22.9610 C   0  0  0  0  0  0  0  0  0  0  0  0
   13.9539  -17.6458   23.4277 O   0  0  0  0  0  0  0  0  0  0  0  0
   11.0191  -16.7084   24.6779 C   0  0  0  0  0  0  0  0  0  0  0  0
   11.8158  -17.4567   25.2960 O   0  0  0  0  0  0  0  0  0  0  0  0
   12.7451  -19.4877   23.0032 O   0  0  0  0  0  0  0  0  0  0  0  0
   10.5020  -15.5294   25.3068 N   0  0  0  0  0  0  0  0  0  0  0  0
    9.9019  -15.6550   26.6116 C   0  0  1  0  0  0  0  0  0  0  0  0
    8.3850  -15.6199   26.4861 C   0  0  0  0  0  0  0  0  0  0  0  0
    7.8499  -14.2818   26.2047 C   0  0  0  0  0  0  0  0  0  0  0  0
    8.4580  -13.1571   26.6883 C   0  0  0  0  0  0  0  0  0  0  0  0
    7.9587  -11.8898   26.4208 C   0  0  0  0  0  0  0  0  0  0  0  0
    6.8228  -11.7525   25.6501 C   0  0  0  0  0  0  0  0  0  0  0  0
    6.2078  -12.8856   25.1615 C   0  0  0  0  0  0  0  0  0  0  0  0
    6.7183  -14.1461   25.4370 C   0  0  0  0  0  0  0  0  0  0  0  0
   10.3723  -16.8564   27.3016 C   0  0  0  0  0  0  0  0  0  0  0  0
   11.3083  -17.6722   26.6387 O   0  0  0  0  0  0  0  0  0  0  0  0
   10.0162  -17.2266   28.4338 O   0  0  0  0  0  0  0  0  0  0  0  0
  2  1  1  0
  3  2  1  0
  4  3  1  0
  4  5  1  0
  5  6  1  1
  7  5  1  0
  7  8  2  0
  9  7  1  0
 10  9  1  0
 10 11  1  6
 12 11  1  0
 12 16  1  0
 13 12  2  0
 14 10  1  0
 15 14  2  0
 17 14  1  0
 18 17  1  0
 18 26  1  0
 19 20  1  0
 18 19  1  6
 20 25  2  0
 21 22  2  0
 21 20  1  0
 22 23  1  0
 23 24  2  0
 25 24  1  0
 26 27  1  0
 28 26  2  0
M  END
$$$$
