MDF.pdb
     RDKit          3D

 28 28  0  0  1  0  0  0  0  0999 V2000
    8.3336  -12.3075   19.8333 C   0  0  0  0  0  0  0  0  0  0  0  0
    8.3045  -13.5605   18.5208 S   0  0  0  0  0  0  0  0  0  0  0  0
    7.1296  -14.8417   19.0145 C   0  0  0  0  0  0  0  0  0  0  0  0
    7.6007  -15.5635   20.2750 C   0  0  0  0  0  0  0  0  0  0  0  0
    8.4706  -16.7153   19.7951 C   0  0  2  0  0  0  0  0  0  0  0  0
    7.6534  -17.6077   19.0457 N   0  0  0  0  0  0  0  0  0  0  0  0
    9.2062  -17.3494   20.8970 C   0  0  0  0  0  0  0  0  0  0  0  0
    8.7287  -18.3011   21.5630 O   0  0  0  0  0  0  0  0  0  0  0  0
   10.5080  -16.8928   21.2476 N   0  0  0  0  0  0  0  0  0  0  0  0
   11.2209  -17.3760   22.4083 C   0  0  1  0  0  0  0  0  0  0  0  0
   12.7166  -17.2566   22.2713 C   0  0  0  0  0  0  0  0  0  0  0  0
   13.2029  -17.4757   20.8885 C   0  0  0  0  0  0  0  0  0  0  0  0
   13.6726  -16.5400   20.1971 O   0  0  0  0  0  0  0  0  0  0  0  0
   10.7158  -16.6601   23.6029 C   0  0  0  0  0  0  0  0  0  0  0  0
   11.1563  -16.9918   24.7309 O   0  0  0  0  0  0  0  0  0  0  0  0
   13.1655  -18.7239   20.2840 O   0  0  0  0  0  0  0  0  0  0  0  0
    9.7465  -15.6112   23.4872 N   0  0  0  0  0  0  0  0  0  0  0  0
    9.2371  -15.0116   24.6952 C   0  0  1  0  0  0  0  0  0  0  0  0
    8.0994  -14.0581   24.3564 C   0  0  0  0  0  0  0  0  0  0  0  0
    7.5618  -13.3476   25.5235 C   0  0  0  0  0  0  0  0  0  0  0  0
    6.2159  -13.2670   25.7486 C   0  0  0  0  0  0  0  0  0  0  0  0
    5.7032  -12.6006   26.8531 C   0  0  0  0  0  0  0  0  0  0  0  0
    6.5644  -12.0026   27.7497 C   0  0  0  0  0  0  0  0  0  0  0  0
    7.9223  -12.0825   27.5244 C   0  0  0  0  0  0  0  0  0  0  0  0
    8.4205  -12.7521   26.4159 C   0  0  0  0  0  0  0  0  0  0  0  0
    8.8355  -16.0288   25.6671 C   0  0  0  0  0  0  0  0  0  0  0  0
    7.9039  -17.0006   25.2560 O   0  0  0  0  0  0  0  0  0  0  0  0
    9.2472  -16.1139   26.8372 O   0  0  0  0  0  0  0  0  0  0  0  0
  2  1  1  0
  3  2  1  0
  4  3  1  0
  4  5  1  0
  5  6  1  1
  7  5  1  0
  7  8  2  0
  9  7  1  0
 10  9  1  0
 10 11  1  6
 12 11  1  0
 12 16  1  0
 13 12  2  0
 14 10  1  0
 15 14  2  0
 17 14  1  0
 18 17  1  0
 18 26  1  0
 19 20  1  0
 18 19  1  6
 20 25  2  0
 21 22  2  0
 21 20  1  0
 22 23  1  0
 23 24  2  0
 25 24  1  0
 26 27  1  0
 28 26  2  0
M  END
$$$$
