MDF.pdb
     RDKit          3D

 28 28  0  0  1  0  0  0  0  0999 V2000
    7.7376  -11.7527   20.6179 C   0  0  0  0  0  0  0  0  0  0  0  0
    7.6003  -13.0955   19.4049 S   0  0  0  0  0  0  0  0  0  0  0  0
    6.5706  -14.3885   20.1355 C   0  0  0  0  0  0  0  0  0  0  0  0
    7.1932  -14.9258   21.4221 C   0  0  0  0  0  0  0  0  0  0  0  0
    7.8702  -16.2340   21.0427 C   0  0  2  0  0  0  0  0  0  0  0  0
    6.8728  -17.1274   20.5601 N   0  0  0  0  0  0  0  0  0  0  0  0
    8.6858  -16.7729   22.1389 C   0  0  0  0  0  0  0  0  0  0  0  0
    8.2407  -17.6184   22.9540 O   0  0  0  0  0  0  0  0  0  0  0  0
   10.0317  -16.3426   22.3110 N   0  0  0  0  0  0  0  0  0  0  0  0
   10.9075  -16.8952   23.3192 C   0  0  1  0  0  0  0  0  0  0  0  0
   12.3647  -16.6332   23.0396 C   0  0  0  0  0  0  0  0  0  0  0  0
   12.9645  -17.5921   22.0818 C   0  0  0  0  0  0  0  0  0  0  0  0
   12.2779  -18.1621   21.1999 O   0  0  0  0  0  0  0  0  0  0  0  0
   10.4944  -16.3695   24.6412 C   0  0  0  0  0  0  0  0  0  0  0  0
   10.8639  -15.2152   24.9688 O   0  0  0  0  0  0  0  0  0  0  0  0
   14.3144  -17.9113   22.1075 O   0  0  0  0  0  0  0  0  0  0  0  0
    9.6916  -17.1505   25.5347 N   0  0  0  0  0  0  0  0  0  0  0  0
    9.5070  -16.6762   26.8835 C   0  0  1  0  0  0  0  0  0  0  0  0
    8.0948  -16.1317   27.0489 C   0  0  0  0  0  0  0  0  0  0  0  0
    7.9701  -14.7094   26.7057 C   0  0  0  0  0  0  0  0  0  0  0  0
    8.6001  -13.7434   27.4394 C   0  0  0  0  0  0  0  0  0  0  0  0
    8.4892  -12.3981   27.1159 C   0  0  0  0  0  0  0  0  0  0  0  0
    7.7273  -12.0178   26.0304 C   0  0  0  0  0  0  0  0  0  0  0  0
    7.0908  -12.9905   25.2892 C   0  0  0  0  0  0  0  0  0  0  0  0
    7.2108  -14.3317   25.6244 C   0  0  0  0  0  0  0  0  0  0  0  0
    9.8161  -17.7187   27.8624 C   0  0  0  0  0  0  0  0  0  0  0  0
   10.2399  -18.9708   27.3790 O   0  0  0  0  0  0  0  0  0  0  0  0
    9.7375  -17.5977   29.0974 O   0  0  0  0  0  0  0  0  0  0  0  0
  2  1  1  0
  3  2  1  0
  4  3  1  0
  4  5  1  0
  5  6  1  1
  7  5  1  0
  7  8  2  0
  9  7  1  0
 10  9  1  0
 10 11  1  6
 12 11  1  0
 12 16  1  0
 13 12  2  0
 14 10  1  0
 15 14  2  0
 17 14  1  0
 18 17  1  0
 18 26  1  0
 19 20  1  0
 18 19  1  6
 20 25  2  0
 21 22  2  0
 21 20  1  0
 22 23  1  0
 23 24  2  0
 25 24  1  0
 26 27  1  0
 28 26  2  0
M  END
$$$$
