MDF.pdb
     RDKit          3D

 28 28  0  0  1  0  0  0  0  0999 V2000
    8.0150  -11.5786   20.4922 C   0  0  0  0  0  0  0  0  0  0  0  0
    8.3249  -12.3441   18.8762 S   0  0  0  0  0  0  0  0  0  0  0  0
    8.0767  -14.1248   19.0585 C   0  0  0  0  0  0  0  0  0  0  0  0
    8.7488  -14.6467   20.3264 C   0  0  0  0  0  0  0  0  0  0  0  0
    8.4882  -16.1450   20.3497 C   0  0  2  0  0  0  0  0  0  0  0  0
    7.2450  -16.3905   19.7015 N   0  0  0  0  0  0  0  0  0  0  0  0
    8.5838  -16.7021   21.7054 C   0  0  0  0  0  0  0  0  0  0  0  0
    7.6953  -16.5140   22.5728 O   0  0  0  0  0  0  0  0  0  0  0  0
    9.7102  -17.4872   22.0811 N   0  0  0  0  0  0  0  0  0  0  0  0
    9.8762  -18.0330   23.4090 C   0  0  1  0  0  0  0  0  0  0  0  0
   10.6892  -19.3015   23.4257 C   0  0  0  0  0  0  0  0  0  0  0  0
   10.1579  -20.3559   22.5298 C   0  0  0  0  0  0  0  0  0  0  0  0
    8.9516  -20.6999   22.5566 O   0  0  0  0  0  0  0  0  0  0  0  0
   10.4644  -16.9873   24.2779 C   0  0  0  0  0  0  0  0  0  0  0  0
   11.4744  -16.3651   23.8665 O   0  0  0  0  0  0  0  0  0  0  0  0
   10.9628  -21.0188   21.6145 O   0  0  0  0  0  0  0  0  0  0  0  0
    9.9031  -16.6833   25.5607 N   0  0  0  0  0  0  0  0  0  0  0  0
   10.6152  -15.7734   26.4228 C   0  0  1  0  0  0  0  0  0  0  0  0
   10.3200  -14.3374   26.0116 C   0  0  0  0  0  0  0  0  0  0  0  0
    8.9524  -13.9057   26.3269 C   0  0  0  0  0  0  0  0  0  0  0  0
    7.8858  -14.3222   25.5804 C   0  0  0  0  0  0  0  0  0  0  0  0
    6.5907  -13.9207   25.8776 C   0  0  0  0  0  0  0  0  0  0  0  0
    6.3652  -13.0819   26.9494 C   0  0  0  0  0  0  0  0  0  0  0  0
    7.4397  -12.6605   27.7037 C   0  0  0  0  0  0  0  0  0  0  0  0
    8.7290  -13.0701   27.3947 C   0  0  0  0  0  0  0  0  0  0  0  0
   10.3052  -16.0204   27.8312 C   0  0  0  0  0  0  0  0  0  0  0  0
    9.4109  -17.0639   28.1351 O   0  0  0  0  0  0  0  0  0  0  0  0
   10.7654  -15.3847   28.7955 O   0  0  0  0  0  0  0  0  0  0  0  0
  2  1  1  0
  3  2  1  0
  4  3  1  0
  4  5  1  0
  5  6  1  1
  7  5  1  0
  7  8  2  0
  9  7  1  0
 10  9  1  0
 10 11  1  6
 12 11  1  0
 12 16  1  0
 13 12  2  0
 14 10  1  0
 15 14  2  0
 17 14  1  0
 18 17  1  0
 18 26  1  0
 19 20  1  0
 18 19  1  6
 20 25  2  0
 21 22  2  0
 21 20  1  0
 22 23  1  0
 23 24  2  0
 25 24  1  0
 26 27  1  0
 28 26  2  0
M  END
$$$$
