MDF.pdb
     RDKit          3D

 28 28  0  0  1  0  0  0  0  0999 V2000
    8.0317  -11.5490   20.9191 C   0  0  0  0  0  0  0  0  0  0  0  0
    7.7516  -12.6668   19.5172 S   0  0  0  0  0  0  0  0  0  0  0  0
    6.6019  -13.9499   20.0628 C   0  0  0  0  0  0  0  0  0  0  0  0
    7.1577  -14.7116   21.2639 C   0  0  0  0  0  0  0  0  0  0  0  0
    7.8584  -15.9352   20.6935 C   0  0  2  0  0  0  0  0  0  0  0  0
    6.8854  -16.7378   20.0339 N   0  0  0  0  0  0  0  0  0  0  0  0
    8.6420  -16.6483   21.7107 C   0  0  0  0  0  0  0  0  0  0  0  0
    8.1263  -17.4893   22.4879 O   0  0  0  0  0  0  0  0  0  0  0  0
   10.0372  -16.4004   21.8462 N   0  0  0  0  0  0  0  0  0  0  0  0
   10.8454  -17.0162   22.8741 C   0  0  1  0  0  0  0  0  0  0  0  0
   12.3241  -16.8884   22.6143 C   0  0  0  0  0  0  0  0  0  0  0  0
   13.1612  -17.6351   23.5830 C   0  0  0  0  0  0  0  0  0  0  0  0
   12.8047  -18.7452   24.0464 O   0  0  0  0  0  0  0  0  0  0  0  0
   10.4617  -16.4393   24.1835 C   0  0  0  0  0  0  0  0  0  0  0  0
   10.8422  -15.2751   24.4598 O   0  0  0  0  0  0  0  0  0  0  0  0
   14.3815  -17.1491   24.0297 O   0  0  0  0  0  0  0  0  0  0  0  0
    9.6746  -17.1826   25.1221 N   0  0  0  0  0  0  0  0  0  0  0  0
    9.4476  -16.6156   26.4280 C   0  0  1  0  0  0  0  0  0  0  0  0
    7.9866  -16.2101   26.5662 C   0  0  0  0  0  0  0  0  0  0  0  0
    7.7586  -14.7695   26.3963 C   0  0  0  0  0  0  0  0  0  0  0  0
    6.7026  -14.2981   25.6674 C   0  0  0  0  0  0  0  0  0  0  0  0
    6.4802  -12.9372   25.5082 C   0  0  0  0  0  0  0  0  0  0  0  0
    7.3398  -12.0320   26.0956 C   0  0  0  0  0  0  0  0  0  0  0  0
    8.4056  -12.5053   26.8311 C   0  0  0  0  0  0  0  0  0  0  0  0
    8.6154  -13.8687   26.9817 C   0  0  0  0  0  0  0  0  0  0  0  0
    9.8702  -17.5315   27.4878 C   0  0  0  0  0  0  0  0  0  0  0  0
    9.8290  -17.0657   28.8154 O   0  0  0  0  0  0  0  0  0  0  0  0
   10.2671  -18.6978   27.3204 O   0  0  0  0  0  0  0  0  0  0  0  0
  2  1  1  0
  3  2  1  0
  4  3  1  0
  4  5  1  0
  5  6  1  1
  7  5  1  0
  7  8  2  0
  9  7  1  0
 10  9  1  0
 10 11  1  6
 12 11  1  0
 12 16  1  0
 13 12  2  0
 14 10  1  0
 15 14  2  0
 17 14  1  0
 18 17  1  0
 18 26  1  0
 19 20  1  0
 18 19  1  1
 20 25  2  0
 21 22  2  0
 21 20  1  0
 22 23  1  0
 23 24  2  0
 25 24  1  0
 26 27  1  0
 28 26  2  0
M  END
$$$$
