MDF.pdb
     RDKit          3D

 28 28  0  0  1  0  0  0  0  0999 V2000
    8.2918  -11.2935   20.5647 C   0  0  0  0  0  0  0  0  0  0  0  0
    6.7618  -12.1593   20.1141 S   0  0  0  0  0  0  0  0  0  0  0  0
    7.1565  -13.9149   19.9472 C   0  0  0  0  0  0  0  0  0  0  0  0
    7.4922  -14.5342   21.3020 C   0  0  0  0  0  0  0  0  0  0  0  0
    7.7717  -16.0044   21.0304 C   0  0  2  0  0  0  0  0  0  0  0  0
    6.5533  -16.6226   20.6313 N   0  0  0  0  0  0  0  0  0  0  0  0
    8.4395  -16.6590   22.1630 C   0  0  0  0  0  0  0  0  0  0  0  0
    7.8228  -17.3967   22.9710 O   0  0  0  0  0  0  0  0  0  0  0  0
    9.8336  -16.4711   22.3806 N   0  0  0  0  0  0  0  0  0  0  0  0
   10.5597  -17.1458   23.4324 C   0  0  1  0  0  0  0  0  0  0  0  0
   12.0259  -17.3071   23.1245 C   0  0  0  0  0  0  0  0  0  0  0  0
   12.7632  -18.0835   24.1492 C   0  0  0  0  0  0  0  0  0  0  0  0
   12.3154  -19.1607   24.6111 O   0  0  0  0  0  0  0  0  0  0  0  0
   10.3380  -16.4146   24.7016 C   0  0  0  0  0  0  0  0  0  0  0  0
   10.8284  -15.2653   24.8243 O   0  0  0  0  0  0  0  0  0  0  0  0
   13.9857  -17.6633   24.6529 O   0  0  0  0  0  0  0  0  0  0  0  0
    9.5831  -16.9947   25.7724 N   0  0  0  0  0  0  0  0  0  0  0  0
    9.6076  -16.3454   27.0593 C   0  0  1  0  0  0  0  0  0  0  0  0
    8.2207  -15.8138   27.3941 C   0  0  0  0  0  0  0  0  0  0  0  0
    7.9010  -14.5459   26.7261 C   0  0  0  0  0  0  0  0  0  0  0  0
    6.9659  -14.4829   25.7310 C   0  0  0  0  0  0  0  0  0  0  0  0
    6.6568  -13.2857   25.1001 C   0  0  0  0  0  0  0  0  0  0  0  0
    7.3033  -12.1276   25.4793 C   0  0  0  0  0  0  0  0  0  0  0  0
    8.2470  -12.1889   26.4827 C   0  0  0  0  0  0  0  0  0  0  0  0
    8.5457  -13.3929   27.1046 C   0  0  0  0  0  0  0  0  0  0  0  0
   10.1233  -17.2383   28.0973 C   0  0  0  0  0  0  0  0  0  0  0  0
   10.5469  -18.5233   27.7093 O   0  0  0  0  0  0  0  0  0  0  0  0
   10.2225  -16.9619   29.3055 O   0  0  0  0  0  0  0  0  0  0  0  0
  2  1  1  0
  3  2  1  0
  4  3  1  0
  4  5  1  0
  5  6  1  1
  7  5  1  0
  7  8  2  0
  9  7  1  0
 10  9  1  0
 10 11  1  6
 12 11  1  0
 12 16  1  0
 13 12  2  0
 14 10  1  0
 15 14  2  0
 17 14  1  0
 18 17  1  0
 18 26  1  0
 19 20  1  0
 18 19  1  1
 20 25  2  0
 21 22  2  0
 21 20  1  0
 22 23  1  0
 23 24  2  0
 25 24  1  0
 26 27  1  0
 28 26  2  0
M  END
$$$$
