MDF.pdb
     RDKit          3D

 28 28  0  0  1  0  0  0  0  0999 V2000
    8.5576  -11.4479   20.6897 C   0  0  0  0  0  0  0  0  0  0  0  0
    7.2432  -12.0778   19.6084 S   0  0  0  0  0  0  0  0  0  0  0  0
    7.4888  -13.8594   19.4308 C   0  0  0  0  0  0  0  0  0  0  0  0
    7.8968  -14.4932   20.7587 C   0  0  0  0  0  0  0  0  0  0  0  0
    8.2708  -15.9319   20.4363 C   0  0  2  0  0  0  0  0  0  0  0  0
    7.2426  -16.4873   19.6237 N   0  0  0  0  0  0  0  0  0  0  0  0
    8.5726  -16.7093   21.6454 C   0  0  0  0  0  0  0  0  0  0  0  0
    7.9459  -17.7557   21.9446 O   0  0  0  0  0  0  0  0  0  0  0  0
    9.6056  -16.2889   22.5299 N   0  0  0  0  0  0  0  0  0  0  0  0
   10.2482  -17.1844   23.4648 C   0  0  1  0  0  0  0  0  0  0  0  0
   11.5745  -17.6994   22.9687 C   0  0  0  0  0  0  0  0  0  0  0  0
   12.1987  -18.6933   23.8737 C   0  0  0  0  0  0  0  0  0  0  0  0
   13.4250  -18.6681   24.1378 O   0  0  0  0  0  0  0  0  0  0  0  0
   10.3760  -16.4919   24.7682 C   0  0  0  0  0  0  0  0  0  0  0  0
   11.2213  -15.5698   24.8762 O   0  0  0  0  0  0  0  0  0  0  0  0
   11.4636  -19.7035   24.4770 O   0  0  0  0  0  0  0  0  0  0  0  0
    9.5596  -16.8566   25.8878 N   0  0  0  0  0  0  0  0  0  0  0  0
    9.8865  -16.3115   27.1817 C   0  0  1  0  0  0  0  0  0  0  0  0
    8.6611  -15.6335   27.7791 C   0  0  0  0  0  0  0  0  0  0  0  0
    8.1775  -14.4938   26.9898 C   0  0  0  0  0  0  0  0  0  0  0  0
    8.8250  -13.2901   27.0090 C   0  0  0  0  0  0  0  0  0  0  0  0
    8.3744  -12.2113   26.2606 C   0  0  0  0  0  0  0  0  0  0  0  0
    7.2475  -12.3478   25.4765 C   0  0  0  0  0  0  0  0  0  0  0  0
    6.5928  -13.5610   25.4559 C   0  0  0  0  0  0  0  0  0  0  0  0
    7.0549  -14.6308   26.2092 C   0  0  0  0  0  0  0  0  0  0  0  0
   10.4391  -17.3361   28.0679 C   0  0  0  0  0  0  0  0  0  0  0  0
   10.9202  -16.9282   29.3262 O   0  0  0  0  0  0  0  0  0  0  0  0
   10.5234  -18.5490   27.8075 O   0  0  0  0  0  0  0  0  0  0  0  0
  2  1  1  0
  3  2  1  0
  4  3  1  0
  4  5  1  0
  5  6  1  1
  7  5  1  0
  7  8  2  0
  9  7  1  0
 10  9  1  0
 10 11  1  6
 12 11  1  0
 12 16  1  0
 13 12  2  0
 14 10  1  0
 15 14  2  0
 17 14  1  0
 18 17  1  0
 18 26  1  0
 19 20  1  0
 18 19  1  1
 20 25  2  0
 21 22  2  0
 21 20  1  0
 22 23  1  0
 23 24  2  0
 25 24  1  0
 26 27  1  0
 28 26  2  0
M  END
$$$$
