MDF.pdb
     RDKit          3D

 28 28  0  0  1  0  0  0  0  0999 V2000
    8.2711  -11.8082   19.9344 C   0  0  0  0  0  0  0  0  0  0  0  0
    7.0888  -12.7111   18.8951 S   0  0  0  0  0  0  0  0  0  0  0  0
    7.6784  -14.4131   18.7489 C   0  0  0  0  0  0  0  0  0  0  0  0
    8.1316  -14.9561   20.1022 C   0  0  0  0  0  0  0  0  0  0  0  0
    8.4824  -16.4176   19.8685 C   0  0  2  0  0  0  0  0  0  0  0  0
    7.3113  -17.0896   19.4180 N   0  0  0  0  0  0  0  0  0  0  0  0
    9.1164  -17.0291   21.0438 C   0  0  0  0  0  0  0  0  0  0  0  0
    8.4612  -17.6689   21.9034 O   0  0  0  0  0  0  0  0  0  0  0  0
   10.5206  -16.9107   21.2450 N   0  0  0  0  0  0  0  0  0  0  0  0
   11.1921  -17.4421   22.4094 C   0  0  1  0  0  0  0  0  0  0  0  0
   12.6539  -17.7179   22.1700 C   0  0  0  0  0  0  0  0  0  0  0  0
   13.3486  -18.2882   23.3484 C   0  0  0  0  0  0  0  0  0  0  0  0
   14.5955  -18.2278   23.4737 O   0  0  0  0  0  0  0  0  0  0  0  0
   10.9831  -16.5085   23.5404 C   0  0  0  0  0  0  0  0  0  0  0  0
   11.3841  -15.3246   23.4219 O   0  0  0  0  0  0  0  0  0  0  0  0
   12.6604  -18.9184   24.3751 O   0  0  0  0  0  0  0  0  0  0  0  0
   10.3394  -16.9344   24.7476 N   0  0  0  0  0  0  0  0  0  0  0  0
    9.8215  -15.9282   25.6407 C   0  0  1  0  0  0  0  0  0  0  0  0
    8.8543  -15.0227   24.8906 C   0  0  0  0  0  0  0  0  0  0  0  0
    8.2584  -13.9762   25.7307 C   0  0  0  0  0  0  0  0  0  0  0  0
    9.0022  -13.2975   26.6551 C   0  0  0  0  0  0  0  0  0  0  0  0
    8.4444  -12.3040   27.4480 C   0  0  0  0  0  0  0  0  0  0  0  0
    7.1091  -11.9876   27.3069 C   0  0  0  0  0  0  0  0  0  0  0  0
    6.3569  -12.6712   26.3752 C   0  0  0  0  0  0  0  0  0  0  0  0
    6.9281  -13.6620   25.5894 C   0  0  0  0  0  0  0  0  0  0  0  0
    9.2097  -16.5306   26.8254 C   0  0  0  0  0  0  0  0  0  0  0  0
    8.3313  -17.6136   26.6339 O   0  0  0  0  0  0  0  0  0  0  0  0
    9.3973  -16.1684   27.9999 O   0  0  0  0  0  0  0  0  0  0  0  0
  2  1  1  0
  3  2  1  0
  4  3  1  0
  4  5  1  0
  5  6  1  1
  7  5  1  0
  7  8  2  0
  9  7  1  0
 10  9  1  0
 10 11  1  6
 12 11  1  0
 12 16  1  0
 13 12  2  0
 14 10  1  0
 15 14  2  0
 17 14  1  0
 18 17  1  0
 18 26  1  0
 19 20  1  0
 18 19  1  6
 20 25  2  0
 21 22  2  0
 21 20  1  0
 22 23  1  0
 23 24  2  0
 25 24  1  0
 26 27  1  0
 28 26  2  0
M  END
$$$$
