MDF.pdb
     RDKit          3D

 28 28  0  0  1  0  0  0  0  0999 V2000
    7.7538  -11.7663   20.9313 C   0  0  0  0  0  0  0  0  0  0  0  0
    6.9406  -12.6852   19.5942 S   0  0  0  0  0  0  0  0  0  0  0  0
    7.7949  -14.2683   19.4211 C   0  0  0  0  0  0  0  0  0  0  0  0
    8.1323  -14.8631   20.7864 C   0  0  0  0  0  0  0  0  0  0  0  0
    8.9976  -16.0825   20.5073 C   0  0  2  0  0  0  0  0  0  0  0  0
    8.5095  -16.7141   19.3288 N   0  0  0  0  0  0  0  0  0  0  0  0
    9.0949  -16.9703   21.6733 C   0  0  0  0  0  0  0  0  0  0  0  0
    8.8097  -18.1919   21.6128 O   0  0  0  0  0  0  0  0  0  0  0  0
    9.5243  -16.4595   22.9307 N   0  0  0  0  0  0  0  0  0  0  0  0
   10.3785  -17.2042   23.8278 C   0  0  1  0  0  0  0  0  0  0  0  0
   11.7260  -17.5181   23.2311 C   0  0  0  0  0  0  0  0  0  0  0  0
   12.5881  -18.3366   24.1161 C   0  0  0  0  0  0  0  0  0  0  0  0
   12.1685  -19.3860   24.6610 O   0  0  0  0  0  0  0  0  0  0  0  0
   10.4976  -16.4512   25.0980 C   0  0  0  0  0  0  0  0  0  0  0  0
   11.3336  -15.5168   25.1644 O   0  0  0  0  0  0  0  0  0  0  0  0
   13.9030  -17.9887   24.3901 O   0  0  0  0  0  0  0  0  0  0  0  0
    9.6832  -16.7721   26.2323 N   0  0  0  0  0  0  0  0  0  0  0  0
    9.9696  -16.1241   27.4878 C   0  0  1  0  0  0  0  0  0  0  0  0
    8.7451  -15.3520   27.9597 C   0  0  0  0  0  0  0  0  0  0  0  0
    8.4106  -14.2039   27.1076 C   0  0  0  0  0  0  0  0  0  0  0  0
    9.0985  -13.0263   27.1996 C   0  0  0  0  0  0  0  0  0  0  0  0
    8.7892  -11.9399   26.3927 C   0  0  0  0  0  0  0  0  0  0  0  0
    7.7652  -12.0419   25.4738 C   0  0  0  0  0  0  0  0  0  0  0  0
    7.0700  -13.2288   25.3795 C   0  0  0  0  0  0  0  0  0  0  0  0
    7.3904  -14.3066   26.1927 C   0  0  0  0  0  0  0  0  0  0  0  0
   10.4382  -17.0832   28.4884 C   0  0  0  0  0  0  0  0  0  0  0  0
   10.8314  -16.5847   29.7446 O   0  0  0  0  0  0  0  0  0  0  0  0
   10.5218  -18.3133   28.3279 O   0  0  0  0  0  0  0  0  0  0  0  0
  2  1  1  0
  3  2  1  0
  4  3  1  0
  4  5  1  0
  5  6  1  6
  7  5  1  0
  7  8  2  0
  9  7  1  0
 10  9  1  0
 10 11  1  6
 12 11  1  0
 12 16  1  0
 13 12  2  0
 14 10  1  0
 15 14  2  0
 17 14  1  0
 18 17  1  0
 18 26  1  0
 19 20  1  0
 18 19  1  1
 20 25  2  0
 21 22  2  0
 21 20  1  0
 22 23  1  0
 23 24  2  0
 25 24  1  0
 26 27  1  0
 28 26  2  0
M  END
$$$$
