MDF.pdb
     RDKit          3D

 28 28  0  0  1  0  0  0  0  0999 V2000
    8.2514  -11.3677   21.1709 C   0  0  0  0  0  0  0  0  0  0  0  0
    6.9795  -12.0748   20.0864 S   0  0  0  0  0  0  0  0  0  0  0  0
    7.3547  -13.8301   19.8766 C   0  0  0  0  0  0  0  0  0  0  0  0
    7.9222  -14.4284   21.1617 C   0  0  0  0  0  0  0  0  0  0  0  0
    8.1858  -15.8953   20.8574 C   0  0  2  0  0  0  0  0  0  0  0  0
    6.9570  -16.4956   20.4630 N   0  0  0  0  0  0  0  0  0  0  0  0
    8.8634  -16.5775   21.9678 C   0  0  0  0  0  0  0  0  0  0  0  0
    8.2617  -17.3651   22.7391 O   0  0  0  0  0  0  0  0  0  0  0  0
   10.2500  -16.3599   22.2049 N   0  0  0  0  0  0  0  0  0  0  0  0
   10.9762  -17.0219   23.2647 C   0  0  1  0  0  0  0  0  0  0  0  0
   12.4665  -17.0257   23.0427 C   0  0  0  0  0  0  0  0  0  0  0  0
   12.8725  -17.6626   21.7675 C   0  0  0  0  0  0  0  0  0  0  0  0
   12.6897  -18.8849   21.5517 O   0  0  0  0  0  0  0  0  0  0  0  0
   10.6103  -16.3888   24.5531 C   0  0  0  0  0  0  0  0  0  0  0  0
   11.0748  -15.2522   24.8153 O   0  0  0  0  0  0  0  0  0  0  0  0
   13.4754  -16.9444   20.7450 O   0  0  0  0  0  0  0  0  0  0  0  0
    9.7469  -17.0481   25.4874 N   0  0  0  0  0  0  0  0  0  0  0  0
    9.6471  -16.5153   26.8232 C   0  0  1  0  0  0  0  0  0  0  0  0
    8.1952  -16.1811   27.1369 C   0  0  0  0  0  0  0  0  0  0  0  0
    7.7280  -14.9416   26.5034 C   0  0  0  0  0  0  0  0  0  0  0  0
    6.9715  -14.9666   25.3651 C   0  0  0  0  0  0  0  0  0  0  0  0
    6.5234  -13.7976   24.7654 C   0  0  0  0  0  0  0  0  0  0  0  0
    6.8443  -12.5776   25.3240 C   0  0  0  0  0  0  0  0  0  0  0  0
    7.6074  -12.5502   26.4720 C   0  0  0  0  0  0  0  0  0  0  0  0
    8.0482  -13.7269   27.0605 C   0  0  0  0  0  0  0  0  0  0  0  0
   10.2295  -17.4287   27.8066 C   0  0  0  0  0  0  0  0  0  0  0  0
   10.4102  -16.9545   29.1194 O   0  0  0  0  0  0  0  0  0  0  0  0
   10.5835  -18.5999   27.5854 O   0  0  0  0  0  0  0  0  0  0  0  0
  2  1  1  0
  3  2  1  0
  4  3  1  0
  4  5  1  0
  5  6  1  1
  7  5  1  0
  7  8  2  0
  9  7  1  0
 10  9  1  0
 10 11  1  6
 12 11  1  0
 12 16  1  0
 13 12  2  0
 14 10  1  0
 15 14  2  0
 17 14  1  0
 18 17  1  0
 18 26  1  0
 19 20  1  0
 18 19  1  1
 20 25  2  0
 21 22  2  0
 21 20  1  0
 22 23  1  0
 23 24  2  0
 25 24  1  0
 26 27  1  0
 28 26  2  0
M  END
$$$$
