MDF.pdb
     RDKit          3D

 28 28  0  0  1  0  0  0  0  0999 V2000
    8.3487  -11.6091   19.2622 C   0  0  0  0  0  0  0  0  0  0  0  0
    6.8400  -12.6160   19.2040 S   0  0  0  0  0  0  0  0  0  0  0  0
    7.3422  -14.3519   19.1797 C   0  0  0  0  0  0  0  0  0  0  0  0
    7.2705  -14.9645   20.5765 C   0  0  0  0  0  0  0  0  0  0  0  0
    8.6833  -14.8933   21.1357 C   0  0  2  0  0  0  0  0  0  0  0  0
    9.5969  -14.9641   20.0466 N   0  0  0  0  0  0  0  0  0  0  0  0
    8.9140  -15.8948   22.1851 C   0  0  0  0  0  0  0  0  0  0  0  0
    8.0359  -16.1950   23.0313 O   0  0  0  0  0  0  0  0  0  0  0  0
   10.1658  -16.5667   22.2733 N   0  0  0  0  0  0  0  0  0  0  0  0
   10.4735  -17.5143   23.3204 C   0  0  1  0  0  0  0  0  0  0  0  0
   11.8277  -18.1538   23.1549 C   0  0  0  0  0  0  0  0  0  0  0  0
   11.8980  -19.1037   22.0194 C   0  0  0  0  0  0  0  0  0  0  0  0
   10.8670  -19.6209   21.5257 O   0  0  0  0  0  0  0  0  0  0  0  0
   10.3403  -16.8309   24.6280 C   0  0  0  0  0  0  0  0  0  0  0  0
   11.0104  -15.7885   24.8301 O   0  0  0  0  0  0  0  0  0  0  0  0
   13.1042  -19.4724   21.4414 O   0  0  0  0  0  0  0  0  0  0  0  0
    9.4701  -17.3378   25.6472 N   0  0  0  0  0  0  0  0  0  0  0  0
    9.3042  -16.5662   26.8536 C   0  0  1  0  0  0  0  0  0  0  0  0
    7.8343  -16.2172   27.0433 C   0  0  0  0  0  0  0  0  0  0  0  0
    7.5052  -14.8368   26.6659 C   0  0  0  0  0  0  0  0  0  0  0  0
    8.2014  -13.7759   27.1740 C   0  0  0  0  0  0  0  0  0  0  0  0
    7.8972  -12.4696   26.8163 C   0  0  0  0  0  0  0  0  0  0  0  0
    6.8698  -12.2269   25.9282 C   0  0  0  0  0  0  0  0  0  0  0  0
    6.1662  -13.2956   25.4146 C   0  0  0  0  0  0  0  0  0  0  0  0
    6.4816  -14.5962   25.7812 C   0  0  0  0  0  0  0  0  0  0  0  0
    9.8614  -17.2629   28.0132 C   0  0  0  0  0  0  0  0  0  0  0  0
   10.3243  -18.5794   27.8302 O   0  0  0  0  0  0  0  0  0  0  0  0
    9.9645  -16.7921   29.1593 O   0  0  0  0  0  0  0  0  0  0  0  0
  2  1  1  0
  3  2  1  0
  4  3  1  0
  4  5  1  0
  5  6  1  6
  7  5  1  0
  7  8  2  0
  9  7  1  0
 10  9  1  0
 10 11  1  6
 12 11  1  0
 12 16  1  0
 13 12  2  0
 14 10  1  0
 15 14  2  0
 17 14  1  0
 18 17  1  0
 18 26  1  0
 19 20  1  0
 18 19  1  1
 20 25  2  0
 21 22  2  0
 21 20  1  0
 22 23  1  0
 23 24  2  0
 25 24  1  0
 26 27  1  0
 28 26  2  0
M  END
$$$$
