MDF.pdb
     RDKit          3D

 28 28  0  0  1  0  0  0  0  0999 V2000
    7.3352  -12.7186   27.1442 C   0  0  0  0  0  0  0  0  0  0  0  0
    6.0137  -12.4413   25.9316 S   0  0  0  0  0  0  0  0  0  0  0  0
    5.8445  -13.9511   24.9530 C   0  0  0  0  0  0  0  0  0  0  0  0
    7.1781  -14.6864   24.8416 C   0  0  0  0  0  0  0  0  0  0  0  0
    6.9053  -15.9178   23.9913 C   0  0  2  0  0  0  0  0  0  0  0  0
    5.9308  -16.7121   24.6587 N   0  0  0  0  0  0  0  0  0  0  0  0
    8.1389  -16.6367   23.6469 C   0  0  0  0  0  0  0  0  0  0  0  0
    8.5369  -17.6361   24.2951 O   0  0  0  0  0  0  0  0  0  0  0  0
    8.9341  -16.2111   22.5456 N   0  0  0  0  0  0  0  0  0  0  0  0
   10.2002  -16.8229   22.2115 C   0  0  1  0  0  0  0  0  0  0  0  0
   10.7276  -16.3869   20.8691 C   0  0  0  0  0  0  0  0  0  0  0  0
   11.8396  -17.2294   20.3688 C   0  0  0  0  0  0  0  0  0  0  0  0
   12.3043  -18.1794   21.0440 O   0  0  0  0  0  0  0  0  0  0  0  0
   11.1620  -16.5404   23.3023 C   0  0  0  0  0  0  0  0  0  0  0  0
   11.8175  -15.4704   23.2607 O   0  0  0  0  0  0  0  0  0  0  0  0
   12.4262  -17.0149   19.1300 O   0  0  0  0  0  0  0  0  0  0  0  0
   11.3492  -17.4592   24.3857 N   0  0  0  0  0  0  0  0  0  0  0  0
   11.6479  -16.9278   25.6920 C   0  0  1  0  0  0  0  0  0  0  0  0
   10.4834  -16.0771   26.1803 C   0  0  0  0  0  0  0  0  0  0  0  0
   10.7173  -15.4587   27.4914 C   0  0  0  0  0  0  0  0  0  0  0  0
   10.9885  -14.1242   27.6095 C   0  0  0  0  0  0  0  0  0  0  0  0
   11.2054  -13.5342   28.8472 C   0  0  0  0  0  0  0  0  0  0  0  0
   11.1480  -14.3049   29.9900 C   0  0  0  0  0  0  0  0  0  0  0  0
   10.8747  -15.6512   29.8731 C   0  0  0  0  0  0  0  0  0  0  0  0
   10.6599  -16.2273   28.6291 C   0  0  0  0  0  0  0  0  0  0  0  0
   11.9891  -17.9925   26.6357 C   0  0  0  0  0  0  0  0  0  0  0  0
   11.1737  -19.1395   26.6569 O   0  0  0  0  0  0  0  0  0  0  0  0
   12.9454  -17.9760   27.4302 O   0  0  0  0  0  0  0  0  0  0  0  0
  2  1  1  0
  3  2  1  0
  4  3  1  0
  4  5  1  0
  5  6  1  1
  7  5  1  0
  7  8  2  0
  9  7  1  0
 10  9  1  0
 10 11  1  6
 12 11  1  0
 12 16  1  0
 13 12  2  0
 14 10  1  0
 15 14  2  0
 17 14  1  0
 18 17  1  0
 18 26  1  0
 19 20  1  0
 18 19  1  1
 20 25  2  0
 21 22  2  0
 21 20  1  0
 22 23  1  0
 23 24  2  0
 25 24  1  0
 26 27  1  0
 28 26  2  0
M  END
$$$$
