MDF.pdb
     RDKit          3D

 28 28  0  0  1  0  0  0  0  0999 V2000
    8.4857  -12.0784   20.4311 C   0  0  0  0  0  0  0  0  0  0  0  0
    6.9342  -12.7350   21.1057 S   0  0  0  0  0  0  0  0  0  0  0  0
    7.1651  -14.5058   21.3831 C   0  0  0  0  0  0  0  0  0  0  0  0
    7.7987  -15.1750   20.1655 C   0  0  0  0  0  0  0  0  0  0  0  0
    7.9173  -16.6504   20.5157 C   0  0  2  0  0  0  0  0  0  0  0  0
    6.6522  -17.2636   20.2930 N   0  0  0  0  0  0  0  0  0  0  0  0
    8.4606  -16.8569   21.8646 C   0  0  0  0  0  0  0  0  0  0  0  0
    7.8735  -17.5591   22.7246 O   0  0  0  0  0  0  0  0  0  0  0  0
    9.6936  -16.2540   22.2419 N   0  0  0  0  0  0  0  0  0  0  0  0
   10.7822  -17.0005   22.8307 C   0  0  1  0  0  0  0  0  0  0  0  0
   12.0749  -16.8528   22.0707 C   0  0  0  0  0  0  0  0  0  0  0  0
   13.2040  -17.5995   22.6741 C   0  0  0  0  0  0  0  0  0  0  0  0
   14.3871  -17.1903   22.5898 O   0  0  0  0  0  0  0  0  0  0  0  0
   10.9230  -16.5899   24.2470 C   0  0  0  0  0  0  0  0  0  0  0  0
   11.8097  -17.1404   24.9450 O   0  0  0  0  0  0  0  0  0  0  0  0
   13.0156  -18.7886   23.3636 O   0  0  0  0  0  0  0  0  0  0  0  0
   10.0729  -15.5885   24.8194 N   0  0  0  0  0  0  0  0  0  0  0  0
    9.7461  -15.6850   26.2202 C   0  0  1  0  0  0  0  0  0  0  0  0
    8.2379  -15.5883   26.4048 C   0  0  0  0  0  0  0  0  0  0  0  0
    7.6887  -14.2689   26.0675 C   0  0  0  0  0  0  0  0  0  0  0  0
    6.8192  -14.1063   25.0253 C   0  0  0  0  0  0  0  0  0  0  0  0
    6.2936  -12.8619   24.7058 C   0  0  0  0  0  0  0  0  0  0  0  0
    6.6514  -11.7579   25.4519 C   0  0  0  0  0  0  0  0  0  0  0  0
    7.5283  -11.9198   26.5034 C   0  0  0  0  0  0  0  0  0  0  0  0
    8.0458  -13.1700   26.8112 C   0  0  0  0  0  0  0  0  0  0  0  0
   10.2992  -16.9024   26.8142 C   0  0  0  0  0  0  0  0  0  0  0  0
   11.0935  -17.7304   25.9989 O   0  0  0  0  0  0  0  0  0  0  0  0
   10.1293  -17.2765   27.9876 O   0  0  0  0  0  0  0  0  0  0  0  0
  2  1  1  0
  3  2  1  0
  4  3  1  0
  4  5  1  0
  5  6  1  1
  7  5  1  0
  7  8  2  0
  9  7  1  0
 10  9  1  0
 10 11  1  6
 12 11  1  0
 12 16  1  0
 13 12  2  0
 14 10  1  0
 15 14  2  0
 17 14  1  0
 18 17  1  0
 18 26  1  0
 19 20  1  0
 18 19  1  6
 20 25  2  0
 21 22  2  0
 21 20  1  0
 22 23  1  0
 23 24  2  0
 25 24  1  0
 26 27  1  0
 28 26  2  0
M  END
$$$$
