YRM.pdb
     RDKit          3D

 32 32  0  0  1  0  0  0  0  0999 V2000
   26.5027  -16.2248  -20.5839 O   0  0  0  0  0  0  0  0  0  0  0  0
   25.4498  -17.0897  -20.2324 C   0  0  0  0  0  0  0  0  0  0  0  0
   24.5501  -16.7346  -19.2417 C   0  0  0  0  0  0  0  0  0  0  0  0
   23.5151  -17.5636  -18.8807 C   0  0  0  0  0  0  0  0  0  0  0  0
   23.3466  -18.8040  -19.5181 C   0  0  0  0  0  0  0  0  0  0  0  0
   22.2246  -19.6671  -19.1009 C   0  0  0  0  0  0  0  0  0  0  0  0
   22.5614  -20.5738  -17.9277 C   0  0  2  0  0  0  0  0  0  0  0  0
   23.5383  -21.5726  -18.3528 N   0  0  0  0  0  0  0  0  0  0  0  0
   21.3901  -21.2940  -17.3931 C   0  0  0  0  0  0  0  0  0  0  0  0
   21.0412  -22.3679  -17.9832 O   0  0  0  0  0  0  0  0  0  0  0  0
   24.2410  -19.1410  -20.4947 C   0  0  0  0  0  0  0  0  0  0  0  0
   25.2944  -18.3018  -20.8650 C   0  0  0  0  0  0  0  0  0  0  0  0
   17.1706  -24.4384  -11.3768 N   0  0  0  0  0  0  0  0  0  0  0  0
   18.5741  -24.4784  -11.0848 C   0  0  0  0  0  0  0  0  0  0  0  0
   19.0147  -25.5526  -10.5707 N   0  0  0  0  0  0  0  0  0  0  0  0
   19.4309  -23.3781  -11.3460 N   0  0  0  0  0  0  0  0  0  0  0  0
   18.9473  -22.1409  -11.9095 C   0  0  0  0  0  0  0  0  0  0  0  0
   18.7311  -22.1783  -13.3915 C   0  0  0  0  0  0  0  0  0  0  0  0
   19.7813  -21.5548  -14.2218 C   0  0  0  0  0  0  0  0  0  0  0  0
   19.5791  -21.6150  -15.7182 C   0  0  2  0  0  0  0  0  0  0  0  0
   20.6873  -20.8139  -16.2789 N   0  0  0  0  0  0  0  0  0  0  0  0
   18.3492  -20.9407  -16.1782 C   0  0  0  0  0  0  0  0  0  0  0  0
   18.2566  -19.6665  -16.0881 O   0  0  0  0  0  0  0  0  0  0  0  0
   19.9478  -25.7572  -10.2114 C   0  0  0  0  0  0  0  0  0  0  0  0
   15.6446  -24.7427  -19.6757 S   0  0  0  0  0  0  0  0  0  0  0  0
   15.2435  -23.1612  -20.4684 C   0  0  0  0  0  0  0  0  0  0  0  0
   15.9605  -21.8244  -19.5133 C   0  0  0  0  0  0  0  0  0  0  0  0
   15.3190  -21.7236  -18.1587 C   0  0  2  0  0  0  0  0  0  0  0  0
   16.0715  -20.8016  -17.2186 N   0  0  0  0  0  0  0  0  0  0  0  0
   17.2141  -21.5924  -16.7364 C   0  0  0  0  0  0  0  0  0  0  0  0
   15.2744  -20.4131  -16.0399 O   0  0  0  0  0  0  0  0  0  0  0  0
   15.3534  -21.0482  -14.9576 O   0  0  0  0  0  0  0  0  0  0  0  0
  2  1  1  0
  3  2  2  0
  4  3  1  0
  5 11  1  0
  5  4  2  0
  6  7  1  0
  6  5  1  0
  7  9  1  0
  7  8  1  6
  9 21  1  0
 10  9  2  0
 11 12  2  0
 12  2  1  0
 13 14  1  0
 14 15  2  0
 16 14  1  0
 16 17  1  0
 18 17  1  0
 19 18  1  0
 20 19  1  1
 21 20  1  0
 22 20  1  0
 22 29  1  0
 23 22  2  0
 25 24  1  0
 25 26  1  0
 26 27  1  0
 28 27  1  6
 28 29  1  0
 28 30  1  0
 30 31  2  0
 30 32  1  0
M  END
$$$$
