YRM.pdb
     RDKit          3D

 32 32  0  0  1  0  0  0  0  0999 V2000
   16.1277  -14.3117  -17.2606 O   0  0  0  0  0  0  0  0  0  0  0  0
   16.4720  -13.3191  -16.3245 C   0  0  0  0  0  0  0  0  0  0  0  0
   17.4693  -13.5488  -15.3919 C   0  0  0  0  0  0  0  0  0  0  0  0
   17.8215  -12.5949  -14.4673 C   0  0  0  0  0  0  0  0  0  0  0  0
   17.1685  -11.3513  -14.4496 C   0  0  0  0  0  0  0  0  0  0  0  0
   17.5734  -10.3540  -13.4400 C   0  0  0  0  0  0  0  0  0  0  0  0
   18.3348   -9.1748  -14.0247 C   0  0  2  0  0  0  0  0  0  0  0  0
   19.6641   -9.6146  -14.4394 N   0  0  0  0  0  0  0  0  0  0  0  0
   18.5097   -8.0635  -13.0703 C   0  0  0  0  0  0  0  0  0  0  0  0
   19.4858   -8.1375  -12.2549 O   0  0  0  0  0  0  0  0  0  0  0  0
   16.1873  -11.1379  -15.3763 C   0  0  0  0  0  0  0  0  0  0  0  0
   15.8259  -12.1042  -16.3180 C   0  0  0  0  0  0  0  0  0  0  0  0
   14.9224   -1.5369  -13.1976 N   0  0  0  0  0  0  0  0  0  0  0  0
   14.9738   -1.7760  -14.6106 C   0  0  0  0  0  0  0  0  0  0  0  0
   13.9733   -1.3846  -15.2875 N   0  0  0  0  0  0  0  0  0  0  0  0
   16.0765   -2.4219  -15.2271 N   0  0  0  0  0  0  0  0  0  0  0  0
   17.2176   -2.8851  -14.4753 C   0  0  0  0  0  0  0  0  0  0  0  0
   16.9341   -4.0457  -13.5715 C   0  0  0  0  0  0  0  0  0  0  0  0
   18.1014   -4.6538  -12.9016 C   0  0  0  0  0  0  0  0  0  0  0  0
   17.8327   -5.8879  -12.0719 C   0  0  2  0  0  0  0  0  0  0  0  0
   17.6341   -6.9684  -13.0605 N   0  0  0  0  0  0  0  0  0  0  0  0
   16.5686   -5.8281  -11.3120 C   0  0  0  0  0  0  0  0  0  0  0  0
   15.4562   -6.0000  -11.9228 O   0  0  0  0  0  0  0  0  0  0  0  0
   13.8193   -1.4367  -16.2950 C   0  0  0  0  0  0  0  0  0  0  0  0
   12.1251   -7.7459   -5.3837 S   0  0  0  0  0  0  0  0  0  0  0  0
   13.7149   -7.8053   -6.2551 C   0  0  0  0  0  0  0  0  0  0  0  0
   13.7864   -6.4648   -7.4432 C   0  0  0  0  0  0  0  0  0  0  0  0
   15.0263   -6.5559   -8.2864 C   0  0  1  0  0  0  0  0  0  0  0  0
   15.1383   -5.4257   -9.2916 N   0  0  0  0  0  0  0  0  0  0  0  0
   16.4611   -5.5925   -9.9128 C   0  0  0  0  0  0  0  0  0  0  0  0
   15.1123   -4.0937   -8.6587 O   0  0  0  0  0  0  0  0  0  0  0  0
   14.0446   -3.6008   -8.2137 O   0  0  0  0  0  0  0  0  0  0  0  0
  2  1  1  0
  3  2  2  0
  4  3  1  0
  5 11  1  0
  5  4  2  0
  6  7  1  0
  6  5  1  0
  7  9  1  0
  7  8  1  1
  9 21  1  0
 10  9  2  0
 11 12  2  0
 12  2  1  0
 13 14  1  0
 14 15  2  0
 16 14  1  0
 16 17  1  0
 18 17  1  0
 19 18  1  0
 20 19  1  6
 21 20  1  0
 22 20  1  0
 22 29  1  0
 23 22  2  0
 25 24  1  0
 25 26  1  0
 26 27  1  0
 28 27  1  6
 28 29  1  0
 28 30  1  0
 30 31  2  0
 30 32  1  0
M  END
$$$$
