YRM.pdb
     RDKit          3D

 32 32  0  0  1  0  0  0  0  0999 V2000
   21.7326  -10.8445  -14.5775 O   0  0  0  0  0  0  0  0  0  0  0  0
   22.0895  -12.1947  -14.7498 C   0  0  0  0  0  0  0  0  0  0  0  0
   23.3838  -12.6168  -14.4974 C   0  0  0  0  0  0  0  0  0  0  0  0
   23.7556  -13.9298  -14.6600 C   0  0  0  0  0  0  0  0  0  0  0  0
   22.8177  -14.8828  -15.0909 C   0  0  0  0  0  0  0  0  0  0  0  0
   23.2560  -16.2823  -15.2559 C   0  0  0  0  0  0  0  0  0  0  0  0
   24.2512  -16.4759  -16.3890 C   0  0  2  0  0  0  0  0  0  0  0  0
   23.6090  -16.1474  -17.6587 N   0  0  0  0  0  0  0  0  0  0  0  0
   24.7581  -17.8577  -16.4893 C   0  0  0  0  0  0  0  0  0  0  0  0
   24.0428  -18.7014  -17.1215 O   0  0  0  0  0  0  0  0  0  0  0  0
   21.5440  -14.4525  -15.3351 C   0  0  0  0  0  0  0  0  0  0  0  0
   21.1614  -13.1191  -15.1712 C   0  0  0  0  0  0  0  0  0  0  0  0
   29.1476  -23.1629  -18.0663 N   0  0  0  0  0  0  0  0  0  0  0  0
   29.2286  -23.8217  -16.7951 C   0  0  0  0  0  0  0  0  0  0  0  0
   29.9594  -24.8587  -16.7408 N   0  0  0  0  0  0  0  0  0  0  0  0
   28.5269  -23.3512  -15.6552 N   0  0  0  0  0  0  0  0  0  0  0  0
   27.7734  -22.1207  -15.6671 C   0  0  0  0  0  0  0  0  0  0  0  0
   28.6130  -20.8803  -15.6426 C   0  0  0  0  0  0  0  0  0  0  0  0
   27.8834  -19.5973  -15.5882 C   0  0  0  0  0  0  0  0  0  0  0  0
   26.4288  -19.6336  -15.9961 C   0  0  2  0  0  0  0  0  0  0  0  0
   25.9799  -18.2281  -15.9097 N   0  0  0  0  0  0  0  0  0  0  0  0
   25.5659  -20.3692  -15.0510 C   0  0  0  0  0  0  0  0  0  0  0  0
   25.3245  -19.8696  -13.8967 O   0  0  0  0  0  0  0  0  0  0  0  0
   30.1249  -25.4874  -15.9541 C   0  0  0  0  0  0  0  0  0  0  0  0
   19.0635  -21.6714  -12.3122 S   0  0  0  0  0  0  0  0  0  0  0  0
   20.4024  -20.8508  -13.2201 C   0  0  0  0  0  0  0  0  0  0  0  0
   21.8139  -21.9520  -13.3118 C   0  0  0  0  0  0  0  0  0  0  0  0
   22.9403  -21.3235  -14.0818 C   0  0  1  0  0  0  0  0  0  0  0  0
   24.1146  -22.2630  -14.2781 N   0  0  0  0  0  0  0  0  0  0  0  0
   24.9496  -21.6258  -15.3078 C   0  0  0  0  0  0  0  0  0  0  0  0
   23.7093  -23.5842  -14.7935 O   0  0  0  0  0  0  0  0  0  0  0  0
   23.2560  -24.4742  -14.0296 O   0  0  0  0  0  0  0  0  0  0  0  0
  2  1  1  0
  3  2  2  0
  4  3  1  0
  5 11  1  0
  5  4  2  0
  6  7  1  0
  6  5  1  0
  7  9  1  0
  7  8  1  6
  9 21  1  0
 10  9  2  0
 11 12  2  0
 12  2  1  0
 13 14  1  0
 14 15  2  0
 16 14  1  0
 16 17  1  0
 18 17  1  0
 19 18  1  0
 20 19  1  1
 21 20  1  0
 22 20  1  0
 22 29  1  0
 23 22  2  0
 25 24  1  0
 25 26  1  0
 26 27  1  0
 28 27  1  1
 28 29  1  0
 28 30  1  0
 30 31  2  0
 30 32  1  0
M  END
$$$$
