YRM.pdb
     RDKit          3D

 32 32  0  0  1  0  0  0  0  0999 V2000
   25.9936   -7.9685  -15.3113 O   0  0  0  0  0  0  0  0  0  0  0  0
   25.5689   -9.3100  -15.2966 C   0  0  0  0  0  0  0  0  0  0  0  0
   26.4929  -10.3385  -15.2230 C   0  0  0  0  0  0  0  0  0  0  0  0
   26.1017  -11.6558  -15.2087 C   0  0  0  0  0  0  0  0  0  0  0  0
   24.7385  -11.9900  -15.2688 C   0  0  0  0  0  0  0  0  0  0  0  0
   24.3584  -13.4158  -15.2535 C   0  0  0  0  0  0  0  0  0  0  0  0
   24.9567  -14.2147  -16.4005 C   0  0  2  0  0  0  0  0  0  0  0  0
   24.5149  -13.6441  -17.6700 N   0  0  0  0  0  0  0  0  0  0  0  0
   24.5622  -15.6362  -16.3884 C   0  0  0  0  0  0  0  0  0  0  0  0
   23.5465  -15.9698  -17.0814 O   0  0  0  0  0  0  0  0  0  0  0  0
   23.8377  -10.9649  -15.3398 C   0  0  0  0  0  0  0  0  0  0  0  0
   24.2306   -9.6246  -15.3547 C   0  0  0  0  0  0  0  0  0  0  0  0
   25.4892  -22.3695  -12.6473 N   0  0  0  0  0  0  0  0  0  0  0  0
   26.0558  -23.0362  -13.7836 C   0  0  0  0  0  0  0  0  0  0  0  0
   25.6669  -24.2267  -13.9931 N   0  0  0  0  0  0  0  0  0  0  0  0
   27.0066  -22.4093  -14.6297 N   0  0  0  0  0  0  0  0  0  0  0  0
   27.1772  -20.9771  -14.6701 C   0  0  0  0  0  0  0  0  0  0  0  0
   25.9435  -20.2171  -15.0505 C   0  0  0  0  0  0  0  0  0  0  0  0
   26.1124  -18.7678  -15.2792 C   0  0  0  0  0  0  0  0  0  0  0  0
   24.8764  -18.0047  -15.6961 C   0  0  2  0  0  0  0  0  0  0  0  0
   25.2772  -16.5832  -15.6416 N   0  0  0  0  0  0  0  0  0  0  0  0
   23.7564  -18.1229  -14.7419 C   0  0  0  0  0  0  0  0  0  0  0  0
   23.9060  -17.7102  -13.5388 O   0  0  0  0  0  0  0  0  0  0  0  0
   25.9808  -24.8894  -14.7029 C   0  0  0  0  0  0  0  0  0  0  0  0
   17.7011  -14.9933  -12.6173 S   0  0  0  0  0  0  0  0  0  0  0  0
   18.2867  -16.0821  -13.9446 C   0  0  0  0  0  0  0  0  0  0  0  0
   19.6917  -17.0268  -13.3554 C   0  0  0  0  0  0  0  0  0  0  0  0
   20.3514  -17.7724  -14.4804 C   0  0  2  0  0  0  0  0  0  0  0  0
   21.4354  -18.7194  -14.0025 N   0  0  0  0  0  0  0  0  0  0  0  0
   22.4764  -18.6682  -15.0402 C   0  0  0  0  0  0  0  0  0  0  0  0
   20.9728  -20.1169  -13.9093 O   0  0  0  0  0  0  0  0  0  0  0  0
   21.1675  -20.9349  -14.8443 O   0  0  0  0  0  0  0  0  0  0  0  0
  2  1  1  0
  3  2  2  0
  4  3  1  0
  5 11  1  0
  5  4  2  0
  6  7  1  0
  6  5  1  0
  7  9  1  0
  7  8  1  6
  9 21  1  0
 10  9  2  0
 11 12  2  0
 12  2  1  0
 13 14  1  0
 14 15  2  0
 16 14  1  0
 16 17  1  0
 18 17  1  0
 19 18  1  0
 20 19  1  1
 21 20  1  0
 22 20  1  0
 22 29  1  0
 23 22  2  0
 25 24  1  0
 25 26  1  0
 26 27  1  0
 28 27  1  1
 28 29  1  0
 28 30  1  0
 30 31  2  0
 30 32  1  0
M  END
$$$$
