YRM.pdb
     RDKit          3D

 32 32  0  0  1  0  0  0  0  0999 V2000
   22.5257  -10.5367  -19.6383 O   0  0  0  0  0  0  0  0  0  0  0  0
   22.2883  -11.8653  -19.2401 C   0  0  0  0  0  0  0  0  0  0  0  0
   21.2541  -12.5933  -19.8036 C   0  0  0  0  0  0  0  0  0  0  0  0
   21.0026  -13.8916  -19.4295 C   0  0  0  0  0  0  0  0  0  0  0  0
   21.8003  -14.5146  -18.4553 C   0  0  0  0  0  0  0  0  0  0  0  0
   21.4972  -15.9089  -18.0787 C   0  0  0  0  0  0  0  0  0  0  0  0
   22.6531  -16.8666  -18.3203 C   0  0  2  0  0  0  0  0  0  0  0  0
   22.9094  -16.9639  -19.7547 N   0  0  0  0  0  0  0  0  0  0  0  0
   22.3944  -18.2300  -17.8194 C   0  0  0  0  0  0  0  0  0  0  0  0
   21.8096  -19.0437  -18.6062 O   0  0  0  0  0  0  0  0  0  0  0  0
   22.8180  -13.7848  -17.9086 C   0  0  0  0  0  0  0  0  0  0  0  0
   23.0775  -12.4651  -18.2857 C   0  0  0  0  0  0  0  0  0  0  0  0
   25.4127  -22.7503  -12.0949 N   0  0  0  0  0  0  0  0  0  0  0  0
   26.3570  -22.4941  -13.1434 C   0  0  0  0  0  0  0  0  0  0  0  0
   27.5772  -22.4195  -12.8001 N   0  0  0  0  0  0  0  0  0  0  0  0
   25.9572  -22.3239  -14.4940 N   0  0  0  0  0  0  0  0  0  0  0  0
   24.6151  -22.6063  -14.9424 C   0  0  0  0  0  0  0  0  0  0  0  0
   23.5832  -21.6339  -14.4587 C   0  0  0  0  0  0  0  0  0  0  0  0
   23.6054  -20.2938  -15.0792 C   0  0  0  0  0  0  0  0  0  0  0  0
   22.5023  -19.9923  -16.0671 C   0  0  2  0  0  0  0  0  0  0  0  0
   22.7766  -18.6145  -16.5264 N   0  0  0  0  0  0  0  0  0  0  0  0
   21.1596  -19.9315  -15.4567 C   0  0  0  0  0  0  0  0  0  0  0  0
   20.9396  -19.1139  -14.4958 O   0  0  0  0  0  0  0  0  0  0  0  0
   28.4017  -22.2800  -13.3852 C   0  0  0  0  0  0  0  0  0  0  0  0
   14.8069  -17.9174  -17.7733 S   0  0  0  0  0  0  0  0  0  0  0  0
   15.7493  -19.4656  -17.7020 C   0  0  0  0  0  0  0  0  0  0  0  0
   16.9912  -19.3411  -16.4153 C   0  0  0  0  0  0  0  0  0  0  0  0
   17.6991  -20.6515  -16.2191 C   0  0  2  0  0  0  0  0  0  0  0  0
   18.7609  -20.5903  -15.1379 N   0  0  0  0  0  0  0  0  0  0  0  0
   20.0421  -20.7203  -15.8486 C   0  0  0  0  0  0  0  0  0  0  0  0
   18.6696  -21.7111  -14.1834 O   0  0  0  0  0  0  0  0  0  0  0  0
   19.3423  -22.7618  -14.3407 O   0  0  0  0  0  0  0  0  0  0  0  0
  2  1  1  0
  3  2  2  0
  4  3  1  0
  5 11  1  0
  5  4  2  0
  6  7  1  0
  6  5  1  0
  7  9  1  0
  7  8  1  6
  9 21  1  0
 10  9  2  0
 11 12  2  0
 12  2  1  0
 13 14  1  0
 14 15  2  0
 16 14  1  0
 16 17  1  0
 18 17  1  0
 19 18  1  0
 20 19  1  1
 21 20  1  0
 22 20  1  0
 22 29  1  0
 23 22  2  0
 25 24  1  0
 25 26  1  0
 26 27  1  0
 28 27  1  6
 28 29  1  0
 28 30  1  0
 30 31  2  0
 30 32  1  0
M  END
$$$$
