YRM.pdb
     RDKit          3D

 32 32  0  0  1  0  0  0  0  0999 V2000
   23.5815  -13.4145  -21.1669 O   0  0  0  0  0  0  0  0  0  0  0  0
   22.6717  -14.4879  -21.1498 C   0  0  0  0  0  0  0  0  0  0  0  0
   21.6677  -14.5425  -20.1980 C   0  0  0  0  0  0  0  0  0  0  0  0
   20.7688  -15.5815  -20.1610 C   0  0  0  0  0  0  0  0  0  0  0  0
   20.8514  -16.6225  -21.1006 C   0  0  0  0  0  0  0  0  0  0  0  0
   19.8694  -17.7217  -21.0268 C   0  0  0  0  0  0  0  0  0  0  0  0
   20.3541  -18.9136  -20.2168 C   0  0  2  0  0  0  0  0  0  0  0  0
   21.4066  -19.6053  -20.9559 N   0  0  0  0  0  0  0  0  0  0  0  0
   19.2903  -19.8950  -19.9309 C   0  0  0  0  0  0  0  0  0  0  0  0
   19.1268  -20.8439  -20.7652 O   0  0  0  0  0  0  0  0  0  0  0  0
   21.8463  -16.5550  -22.0349 C   0  0  0  0  0  0  0  0  0  0  0  0
   22.7621  -15.5011  -22.0764 C   0  0  0  0  0  0  0  0  0  0  0  0
   16.9590  -24.3252  -13.6790 N   0  0  0  0  0  0  0  0  0  0  0  0
   16.0820  -24.8846  -14.6662 C   0  0  0  0  0  0  0  0  0  0  0  0
   15.1349  -25.6121  -14.2345 N   0  0  0  0  0  0  0  0  0  0  0  0
   16.2601  -24.6495  -16.0540 N   0  0  0  0  0  0  0  0  0  0  0  0
   17.2888  -23.7746  -16.5621 C   0  0  0  0  0  0  0  0  0  0  0  0
   16.9464  -22.3173  -16.5046 C   0  0  0  0  0  0  0  0  0  0  0  0
   17.9009  -21.3948  -17.1519 C   0  0  0  0  0  0  0  0  0  0  0  0
   17.4905  -20.8363  -18.4947 C   0  0  2  0  0  0  0  0  0  0  0  0
   18.4892  -19.7864  -18.7854 N   0  0  0  0  0  0  0  0  0  0  0  0
   16.1925  -20.1337  -18.4733 C   0  0  0  0  0  0  0  0  0  0  0  0
   16.0847  -19.0261  -17.8394 O   0  0  0  0  0  0  0  0  0  0  0  0
   14.4305  -26.1290  -14.7618 C   0  0  0  0  0  0  0  0  0  0  0  0
   12.9037  -18.8146  -24.3904 S   0  0  0  0  0  0  0  0  0  0  0  0
   12.5282  -19.9159  -22.9988 C   0  0  0  0  0  0  0  0  0  0  0  0
   13.3965  -19.3400  -21.5401 C   0  0  0  0  0  0  0  0  0  0  0  0
   13.0135  -20.1444  -20.3306 C   0  0  2  0  0  0  0  0  0  0  0  0
   13.7923  -19.7492  -19.0907 N   0  0  0  0  0  0  0  0  0  0  0  0
   15.0045  -20.5820  -19.1155 C   0  0  0  0  0  0  0  0  0  0  0  0
   13.0711  -20.0560  -17.8412 O   0  0  0  0  0  0  0  0  0  0  0  0
   13.3258  -21.0918  -17.1754 O   0  0  0  0  0  0  0  0  0  0  0  0
  2  1  1  0
  3  2  2  0
  4  3  1  0
  5 11  1  0
  5  4  2  0
  6  7  1  0
  6  5  1  0
  7  9  1  0
  7  8  1  6
  9 21  1  0
 10  9  2  0
 11 12  2  0
 12  2  1  0
 13 14  1  0
 14 15  2  0
 16 14  1  0
 16 17  1  0
 18 17  1  0
 19 18  1  0
 20 19  1  1
 21 20  1  0
 22 20  1  0
 22 29  1  0
 23 22  2  0
 25 24  1  0
 25 26  1  0
 26 27  1  0
 28 27  1  6
 28 29  1  0
 28 30  1  0
 30 31  2  0
 30 32  1  0
M  END
$$$$
