GYL.pdb
     RDKit          3D

 25 25  0  0  1  0  0  0  0  0999 V2000
   25.5567  -25.6067  -16.2021 N   0  0  0  0  0  0  0  0  0  0  0  0
   25.8003  -24.1947  -16.1443 C   0  0  0  0  0  0  0  0  0  0  0  0
   25.3652  -23.6830  -14.8214 C   0  0  0  0  0  0  0  0  0  0  0  0
   24.8119  -24.4389  -13.9779 O   0  0  0  0  0  0  0  0  0  0  0  0
   26.3857  -20.1330   -7.0921 O   0  0  0  0  0  0  0  0  0  0  0  0
   26.3061  -20.2841   -8.4709 C   0  0  0  0  0  0  0  0  0  0  0  0
   27.3235  -20.8314   -9.2208 C   0  0  0  0  0  0  0  0  0  0  0  0
   27.2782  -20.9958  -10.5859 C   0  0  0  0  0  0  0  0  0  0  0  0
   26.1559  -20.5958  -11.2634 C   0  0  0  0  0  0  0  0  0  0  0  0
   26.0707  -20.7755  -12.7159 C   0  0  0  0  0  0  0  0  0  0  0  0
   25.1598  -21.8694  -13.1340 C   0  0  2  0  0  0  0  0  0  0  0  0
   25.5640  -22.3385  -14.4846 N   0  0  0  0  0  0  0  0  0  0  0  0
   23.7754  -21.4104  -13.3066 C   0  0  0  0  0  0  0  0  0  0  0  0
   23.5045  -20.7215  -14.3630 O   0  0  0  0  0  0  0  0  0  0  0  0
   25.1015  -20.0354  -10.5393 C   0  0  0  0  0  0  0  0  0  0  0  0
   25.1799  -19.8868   -9.1856 C   0  0  0  0  0  0  0  0  0  0  0  0
   18.6096  -22.2512  -13.7877 C   0  0  0  0  0  0  0  0  0  0  0  0
   18.9504  -21.7464  -12.3875 C   0  0  1  0  0  0  0  0  0  0  0  0
   18.1103  -22.5479  -11.3822 C   0  0  0  0  0  0  0  0  0  0  0  0
   20.3749  -22.0373  -12.0568 C   0  0  0  0  0  0  0  0  0  0  0  0
   21.3730  -21.1813  -12.8267 C   0  0  2  0  0  0  0  0  0  0  0  0
   22.6831  -21.6556  -12.4264 N   0  0  0  0  0  0  0  0  0  0  0  0
   21.2311  -19.7592  -12.5223 C   0  0  0  0  0  0  0  0  0  0  0  0
   21.5608  -19.2325  -11.4447 O   0  0  0  0  0  0  0  0  0  0  0  0
   20.6914  -18.8762  -13.4749 O   0  0  0  0  0  0  0  0  0  0  0  0
  2  1  1  0
  3  2  1  0
  4  3  2  0
  6  5  1  0
  6 16  2  0
  7  6  1  0
  8  7  2  0
  8  9  1  0
  9 15  2  0
 10  9  1  0
 11 10  1  6
 11 12  1  0
 12  3  1  0
 13 22  1  0
 13 11  1  0
 14 13  2  0
 15 16  1  0
 18 17  1  6
 19 18  1  0
 20 18  1  0
 21 22  1  0
 21 20  1  1
 23 21  1  0
 23 25  1  0
 24 23  2  0
M  END
$$$$
