GYL.pdb
     RDKit          3D

 25 25  0  0  1  0  0  0  0  0999 V2000
   29.1628  -21.4285  -16.4772 N   0  0  0  0  0  0  0  0  0  0  0  0
   28.0514  -21.9781  -15.7567 C   0  0  0  0  0  0  0  0  0  0  0  0
   27.6177  -21.0066  -14.7226 C   0  0  0  0  0  0  0  0  0  0  0  0
   28.4539  -20.2983  -14.0996 O   0  0  0  0  0  0  0  0  0  0  0  0
   27.0701  -15.2487  -17.7916 O   0  0  0  0  0  0  0  0  0  0  0  0
   26.5298  -16.1541  -16.8868 C   0  0  0  0  0  0  0  0  0  0  0  0
   26.7403  -16.0662  -15.5285 C   0  0  0  0  0  0  0  0  0  0  0  0
   26.2214  -16.9441  -14.6052 C   0  0  0  0  0  0  0  0  0  0  0  0
   25.4403  -17.9811  -15.0447 C   0  0  0  0  0  0  0  0  0  0  0  0
   24.8577  -18.9218  -14.0830 C   0  0  0  0  0  0  0  0  0  0  0  0
   25.8512  -19.8173  -13.4406 C   0  0  2  0  0  0  0  0  0  0  0  0
   26.2589  -20.8588  -14.4186 N   0  0  0  0  0  0  0  0  0  0  0  0
   25.2802  -20.5740  -12.3188 C   0  0  0  0  0  0  0  0  0  0  0  0
   24.5640  -21.6086  -12.6025 O   0  0  0  0  0  0  0  0  0  0  0  0
   25.2030  -18.1056  -16.4153 C   0  0  0  0  0  0  0  0  0  0  0  0
   25.7338  -17.2169  -17.3036 C   0  0  0  0  0  0  0  0  0  0  0  0
   27.2697  -19.9173   -7.3421 C   0  0  0  0  0  0  0  0  0  0  0  0
   26.7778  -20.3951   -8.7064 C   0  0  1  0  0  0  0  0  0  0  0  0
   27.5829  -21.6476   -9.0832 C   0  0  0  0  0  0  0  0  0  0  0  0
   25.3539  -20.8302   -8.6282 C   0  0  0  0  0  0  0  0  0  0  0  0
   24.7225  -21.1176   -9.9848 C   0  0  2  0  0  0  0  0  0  0  0  0
   25.4427  -20.2904  -10.9327 N   0  0  0  0  0  0  0  0  0  0  0  0
   23.2969  -20.7973  -10.0094 C   0  0  0  0  0  0  0  0  0  0  0  0
   22.4156  -21.4586   -9.4323 O   0  0  0  0  0  0  0  0  0  0  0  0
   22.8301  -19.6755  -10.7179 O   0  0  0  0  0  0  0  0  0  0  0  0
  2  1  1  0
  3  2  1  0
  4  3  2  0
  6  5  1  0
  6 16  2  0
  7  6  1  0
  8  7  2  0
  8  9  1  0
  9 15  2  0
 10  9  1  0
 11 10  1  6
 11 12  1  0
 12  3  1  0
 13 22  1  0
 13 11  1  0
 14 13  2  0
 15 16  1  0
 18 17  1  1
 19 18  1  0
 20 18  1  0
 21 22  1  0
 21 20  1  1
 23 21  1  0
 23 25  1  0
 24 23  2  0
M  END
$$$$
