GYL.pdb
     RDKit          3D

 25 25  0  0  1  0  0  0  0  0999 V2000
   23.2769  -22.4856  -13.5267 N   0  0  0  0  0  0  0  0  0  0  0  0
   23.2699  -21.7163  -12.3165 C   0  0  0  0  0  0  0  0  0  0  0  0
   24.6367  -21.7110  -11.7392 C   0  0  0  0  0  0  0  0  0  0  0  0
   25.4525  -22.6407  -11.9824 O   0  0  0  0  0  0  0  0  0  0  0  0
   28.2876  -20.0518  -16.7142 O   0  0  0  0  0  0  0  0  0  0  0  0
   27.9817  -19.8672  -15.3716 C   0  0  0  0  0  0  0  0  0  0  0  0
   26.9594  -19.0484  -14.9456 C   0  0  0  0  0  0  0  0  0  0  0  0
   26.6295  -18.8429  -13.6260 C   0  0  0  0  0  0  0  0  0  0  0  0
   27.3526  -19.4861  -12.6555 C   0  0  0  0  0  0  0  0  0  0  0  0
   27.0125  -19.3017  -11.2414 C   0  0  0  0  0  0  0  0  0  0  0  0
   26.4908  -20.5253  -10.5840 C   0  0  2  0  0  0  0  0  0  0  0  0
   25.0470  -20.6628  -10.9065 N   0  0  0  0  0  0  0  0  0  0  0  0
   26.5301  -20.4340   -9.1186 C   0  0  0  0  0  0  0  0  0  0  0  0
   25.4090  -20.2678   -8.5028 O   0  0  0  0  0  0  0  0  0  0  0  0
   28.3982  -20.3254  -13.0461 C   0  0  0  0  0  0  0  0  0  0  0  0
   28.6986  -20.5063  -14.3643 C   0  0  0  0  0  0  0  0  0  0  0  0
   30.7851  -21.6845   -5.3620 C   0  0  0  0  0  0  0  0  0  0  0  0
   29.3061  -21.6555   -5.7401 C   0  0  1  0  0  0  0  0  0  0  0  0
   28.4888  -21.8312   -4.4517 C   0  0  0  0  0  0  0  0  0  0  0  0
   28.9299  -20.3202   -6.2865 C   0  0  0  0  0  0  0  0  0  0  0  0
   27.5251  -20.2689   -6.8743 C   0  0  2  0  0  0  0  0  0  0  0  0
   27.6871  -20.5202   -8.2929 N   0  0  0  0  0  0  0  0  0  0  0  0
   26.8822  -18.9749   -6.6564 C   0  0  0  0  0  0  0  0  0  0  0  0
   26.8590  -18.0502   -7.4880 O   0  0  0  0  0  0  0  0  0  0  0  0
   26.2284  -18.6988   -5.4421 O   0  0  0  0  0  0  0  0  0  0  0  0
  2  1  1  0
  3  2  1  0
  4  3  2  0
  6  5  1  0
  6 16  2  0
  7  6  1  0
  8  7  2  0
  8  9  1  0
  9 15  2  0
 10  9  1  0
 11 10  1  6
 11 12  1  0
 12  3  1  0
 13 22  1  0
 13 11  1  0
 14 13  2  0
 15 16  1  0
 18 17  1  1
 19 18  1  0
 20 18  1  0
 21 22  1  0
 21 20  1  1
 23 21  1  0
 23 25  1  0
 24 23  2  0
M  END
$$$$
