GYL.pdb
     RDKit          3D

 25 25  0  0  1  0  0  0  0  0999 V2000
   29.8054  -33.4055  -15.9760 N   0  0  0  0  0  0  0  0  0  0  0  0
   28.4565  -33.8753  -16.1029 C   0  0  0  0  0  0  0  0  0  0  0  0
   27.5428  -32.9023  -15.4550 C   0  0  0  0  0  0  0  0  0  0  0  0
   27.9839  -31.8561  -14.9074 O   0  0  0  0  0  0  0  0  0  0  0  0
   26.8890  -27.8478  -19.3769 O   0  0  0  0  0  0  0  0  0  0  0  0
   26.2675  -28.7600  -18.5331 C   0  0  0  0  0  0  0  0  0  0  0  0
   26.1577  -30.0994  -18.8345 C   0  0  0  0  0  0  0  0  0  0  0  0
   25.5497  -31.0292  -18.0231 C   0  0  0  0  0  0  0  0  0  0  0  0
   25.0119  -30.6166  -16.8319 C   0  0  0  0  0  0  0  0  0  0  0  0
   24.3743  -31.5876  -15.9374 C   0  0  0  0  0  0  0  0  0  0  0  0
   25.2669  -32.0948  -14.8663 C   0  0  2  0  0  0  0  0  0  0  0  0
   26.1617  -33.1324  -15.4409 N   0  0  0  0  0  0  0  0  0  0  0  0
   24.5290  -32.7956  -13.8073 C   0  0  0  0  0  0  0  0  0  0  0  0
   24.1840  -34.0181  -14.0317 O   0  0  0  0  0  0  0  0  0  0  0  0
   25.1021  -29.2658  -16.4893 C   0  0  0  0  0  0  0  0  0  0  0  0
   25.7120  -28.3703  -17.3180 C   0  0  0  0  0  0  0  0  0  0  0  0
   25.5864  -32.1265   -8.5270 C   0  0  0  0  0  0  0  0  0  0  0  0
   25.3081  -32.6589   -9.9307 C   0  0  1  0  0  0  0  0  0  0  0  0
   25.7246  -34.1368   -9.9633 C   0  0  0  0  0  0  0  0  0  0  0  0
   23.8456  -32.6376  -10.2199 C   0  0  0  0  0  0  0  0  0  0  0  0
   23.4848  -33.1522  -11.6080 C   0  0  2  0  0  0  0  0  0  0  0  0
   24.1569  -32.2667  -12.5385 N   0  0  0  0  0  0  0  0  0  0  0  0
   22.0428  -33.1395  -11.8441 C   0  0  0  0  0  0  0  0  0  0  0  0
   21.4039  -32.1537  -12.2529 O   0  0  0  0  0  0  0  0  0  0  0  0
   21.2717  -34.2925  -11.6109 O   0  0  0  0  0  0  0  0  0  0  0  0
  2  1  1  0
  3  2  1  0
  4  3  2  0
  6  5  1  0
  6 16  2  0
  7  6  1  0
  8  7  2  0
  8  9  1  0
  9 15  2  0
 10  9  1  0
 11 10  1  6
 11 12  1  0
 12  3  1  0
 13 22  1  0
 13 11  1  0
 14 13  2  0
 15 16  1  0
 18 17  1  1
 19 18  1  0
 20 18  1  0
 21 22  1  0
 21 20  1  1
 23 21  1  0
 23 25  1  0
 24 23  2  0
M  END
$$$$
