GYL.pdb
     RDKit          3D

 25 25  0  0  1  0  0  0  0  0999 V2000
   26.8690  -19.2983  -18.8847 N   0  0  0  0  0  0  0  0  0  0  0  0
   25.7307  -18.8200  -18.1555 C   0  0  0  0  0  0  0  0  0  0  0  0
   25.0970  -19.9592  -17.4469 C   0  0  0  0  0  0  0  0  0  0  0  0
   24.5334  -20.8915  -18.0812 O   0  0  0  0  0  0  0  0  0  0  0  0
   29.4590  -24.7966  -17.0754 O   0  0  0  0  0  0  0  0  0  0  0  0
   28.4692  -24.0590  -16.4378 C   0  0  0  0  0  0  0  0  0  0  0  0
   27.2519  -24.5960  -16.0819 C   0  0  0  0  0  0  0  0  0  0  0  0
   26.2505  -23.8954  -15.4503 C   0  0  0  0  0  0  0  0  0  0  0  0
   26.4575  -22.5753  -15.1458 C   0  0  0  0  0  0  0  0  0  0  0  0
   25.4162  -21.8077  -14.4559 C   0  0  0  0  0  0  0  0  0  0  0  0
   24.4444  -21.1571  -15.3691 C   0  0  2  0  0  0  0  0  0  0  0  0
   25.1148  -20.0183  -16.0481 N   0  0  0  0  0  0  0  0  0  0  0  0
   23.3227  -20.5423  -14.6474 C   0  0  0  0  0  0  0  0  0  0  0  0
   23.5728  -19.4900  -13.9446 O   0  0  0  0  0  0  0  0  0  0  0  0
   27.6790  -21.9928  -15.4904 C   0  0  0  0  0  0  0  0  0  0  0  0
   28.6506  -22.7170  -16.1167 C   0  0  0  0  0  0  0  0  0  0  0  0
   20.2645  -20.6737  -16.3428 C   0  0  0  0  0  0  0  0  0  0  0  0
   20.2859  -19.1822  -16.0169 C   0  0  1  0  0  0  0  0  0  0  0  0
   18.8404  -18.6672  -16.0803 C   0  0  0  0  0  0  0  0  0  0  0  0
   20.7411  -18.9575  -14.6150 C   0  0  0  0  0  0  0  0  0  0  0  0
   21.0165  -20.2424  -13.8437 C   0  0  2  0  0  0  0  0  0  0  0  0
   21.9685  -20.9830  -14.6479 N   0  0  0  0  0  0  0  0  0  0  0  0
   19.8044  -21.0312  -13.6341 C   0  0  0  0  0  0  0  0  0  0  0  0
   19.5879  -22.1419  -14.1506 O   0  0  0  0  0  0  0  0  0  0  0  0
   18.7773  -20.5528  -12.8007 O   0  0  0  0  0  0  0  0  0  0  0  0
  2  1  1  0
  3  2  1  0
  4  3  2  0
  6  5  1  0
  6 16  2  0
  7  6  1  0
  8  7  2  0
  8  9  1  0
  9 15  2  0
 10  9  1  0
 11 10  1  1
 11 12  1  0
 12  3  1  0
 13 22  1  0
 13 11  1  0
 14 13  2  0
 15 16  1  0
 18 17  1  1
 19 18  1  0
 20 18  1  0
 21 22  1  0
 21 20  1  6
 23 21  1  0
 23 25  1  0
 24 23  2  0
M  END
$$$$
