GYL.pdb
     RDKit          3D

 25 25  0  0  1  0  0  0  0  0999 V2000
   28.4671  -20.7978  -14.8870 N   0  0  0  0  0  0  0  0  0  0  0  0
   27.6823  -19.9137  -14.0752 C   0  0  0  0  0  0  0  0  0  0  0  0
   26.5946  -20.6887  -13.4289 C   0  0  0  0  0  0  0  0  0  0  0  0
   26.4527  -21.9222  -13.6464 O   0  0  0  0  0  0  0  0  0  0  0  0
   29.1679  -20.5743   -7.3193 O   0  0  0  0  0  0  0  0  0  0  0  0
   28.0177  -20.5268   -8.0971 C   0  0  0  0  0  0  0  0  0  0  0  0
   27.0512  -19.5581   -7.9403 C   0  0  0  0  0  0  0  0  0  0  0  0
   25.9016  -19.4812   -8.6921 C   0  0  0  0  0  0  0  0  0  0  0  0
   25.6847  -20.4200   -9.6668 C   0  0  0  0  0  0  0  0  0  0  0  0
   24.4780  -20.3530  -10.4967 C   0  0  0  0  0  0  0  0  0  0  0  0
   24.6652  -20.8748  -11.8730 C   0  0  2  0  0  0  0  0  0  0  0  0
   25.6988  -20.0564  -12.5581 N   0  0  0  0  0  0  0  0  0  0  0  0
   23.4634  -20.7128  -12.7017 C   0  0  0  0  0  0  0  0  0  0  0  0
   23.1588  -19.5180  -13.0806 O   0  0  0  0  0  0  0  0  0  0  0  0
   26.6409  -21.4197   -9.8575 C   0  0  0  0  0  0  0  0  0  0  0  0
   27.7700  -21.4664   -9.0935 C   0  0  0  0  0  0  0  0  0  0  0  0
   19.5398  -24.2382  -14.3943 C   0  0  0  0  0  0  0  0  0  0  0  0
   21.0062  -23.8539  -14.2111 C   0  0  1  0  0  0  0  0  0  0  0  0
   21.8634  -24.9506  -14.8603 C   0  0  0  0  0  0  0  0  0  0  0  0
   21.3163  -22.5976  -14.9517 C   0  0  0  0  0  0  0  0  0  0  0  0
   21.5188  -21.3857  -14.0507 C   0  0  2  0  0  0  0  0  0  0  0  0
   22.5922  -21.7478  -13.1461 N   0  0  0  0  0  0  0  0  0  0  0  0
   20.3117  -21.0482  -13.2994 C   0  0  0  0  0  0  0  0  0  0  0  0
   20.1777  -21.2053  -12.0728 O   0  0  0  0  0  0  0  0  0  0  0  0
   19.1922  -20.5046  -13.9549 O   0  0  0  0  0  0  0  0  0  0  0  0
  2  1  1  0
  3  2  1  0
  4  3  2  0
  6  5  1  0
  6 16  2  0
  7  6  1  0
  8  7  2  0
  8  9  1  0
  9 15  2  0
 10  9  1  0
 11 10  1  1
 11 12  1  0
 12  3  1  0
 13 22  1  0
 13 11  1  0
 14 13  2  0
 15 16  1  0
 18 17  1  6
 19 18  1  0
 20 18  1  0
 21 22  1  0
 21 20  1  6
 23 21  1  0
 23 25  1  0
 24 23  2  0
M  END
$$$$
