GYL.pdb
     RDKit          3D

 25 25  0  0  1  0  0  0  0  0999 V2000
   21.5704  -12.3476  -19.4986 N   0  0  0  0  0  0  0  0  0  0  0  0
   22.1357  -11.2665  -18.7449 C   0  0  0  0  0  0  0  0  0  0  0  0
   21.0440  -10.5347  -18.0563 C   0  0  0  0  0  0  0  0  0  0  0  0
   19.9740  -10.2423  -18.6550 O   0  0  0  0  0  0  0  0  0  0  0  0
   15.8047  -13.9540  -16.5177 O   0  0  0  0  0  0  0  0  0  0  0  0
   16.7197  -12.9771  -16.1452 C   0  0  0  0  0  0  0  0  0  0  0  0
   16.3978  -11.6394  -16.0822 C   0  0  0  0  0  0  0  0  0  0  0  0
   17.2777  -10.6467  -15.7179 C   0  0  0  0  0  0  0  0  0  0  0  0
   18.5639  -10.9899  -15.3916 C   0  0  0  0  0  0  0  0  0  0  0  0
   19.5192   -9.9563  -14.9812 C   0  0  0  0  0  0  0  0  0  0  0  0
   20.1681   -9.2530  -16.1150 C   0  0  2  0  0  0  0  0  0  0  0  0
   21.1858  -10.1530  -16.7166 N   0  0  0  0  0  0  0  0  0  0  0  0
   20.9327   -8.0766  -15.6807 C   0  0  0  0  0  0  0  0  0  0  0  0
   22.2065   -8.2166  -15.5326 O   0  0  0  0  0  0  0  0  0  0  0  0
   18.9306  -12.3364  -15.4433 C   0  0  0  0  0  0  0  0  0  0  0  0
   18.0323  -13.2954  -15.8093 C   0  0  0  0  0  0  0  0  0  0  0  0
   24.2980   -4.6821  -15.5726 C   0  0  0  0  0  0  0  0  0  0  0  0
   23.0741   -4.3670  -16.4294 C   0  0  1  0  0  0  0  0  0  0  0  0
   23.5501   -4.1832  -17.8781 C   0  0  0  0  0  0  0  0  0  0  0  0
   22.1349   -5.5248  -16.4493 C   0  0  0  0  0  0  0  0  0  0  0  0
   21.3613   -5.7125  -15.1501 C   0  0  2  0  0  0  0  0  0  0  0  0
   20.4138   -6.7781  -15.4115 N   0  0  0  0  0  0  0  0  0  0  0  0
   20.6605   -4.4962  -14.7440 C   0  0  0  0  0  0  0  0  0  0  0  0
   19.5201   -4.1787  -15.1258 O   0  0  0  0  0  0  0  0  0  0  0  0
   21.2675   -3.5841  -13.8619 O   0  0  0  0  0  0  0  0  0  0  0  0
  2  1  1  0
  3  2  1  0
  4  3  2  0
  6  5  1  0
  6 16  2  0
  7  6  1  0
  8  7  2  0
  8  9  1  0
  9 15  2  0
 10  9  1  0
 11 10  1  1
 11 12  1  0
 12  3  1  0
 13 22  1  0
 13 11  1  0
 14 13  2  0
 15 16  1  0
 18 17  1  1
 19 18  1  0
 20 18  1  0
 21 22  1  0
 21 20  1  6
 23 21  1  0
 23 25  1  0
 24 23  2  0
M  END
$$$$
