GYL.pdb
     RDKit          3D

 25 25  0  0  1  0  0  0  0  0999 V2000
   20.6468  -12.1866  -22.7170 N   0  0  0  0  0  0  0  0  0  0  0  0
   20.4976  -12.4261  -21.3110 C   0  0  0  0  0  0  0  0  0  0  0  0
   20.2579  -13.8735  -21.0900 C   0  0  0  0  0  0  0  0  0  0  0  0
   19.3327  -14.4822  -21.6922 O   0  0  0  0  0  0  0  0  0  0  0  0
   25.0504  -17.2688  -24.6640 O   0  0  0  0  0  0  0  0  0  0  0  0
   24.3237  -17.1356  -23.4874 C   0  0  0  0  0  0  0  0  0  0  0  0
   23.5177  -18.1364  -22.9916 C   0  0  0  0  0  0  0  0  0  0  0  0
   22.7852  -18.0384  -21.8313 C   0  0  0  0  0  0  0  0  0  0  0  0
   22.8479  -16.8775  -21.1055 C   0  0  0  0  0  0  0  0  0  0  0  0
   22.0934  -16.7504  -19.8549 C   0  0  0  0  0  0  0  0  0  0  0  0
   20.7977  -16.0431  -20.0038 C   0  0  2  0  0  0  0  0  0  0  0  0
   21.0634  -14.5946  -20.2002 N   0  0  0  0  0  0  0  0  0  0  0  0
   19.9837  -16.1023  -18.7827 C   0  0  0  0  0  0  0  0  0  0  0  0
   19.8806  -15.0231  -18.0837 O   0  0  0  0  0  0  0  0  0  0  0  0
   23.6538  -15.8380  -21.5746 C   0  0  0  0  0  0  0  0  0  0  0  0
   24.3670  -15.9688  -22.7300 C   0  0  0  0  0  0  0  0  0  0  0  0
   15.1488  -17.1184  -17.0264 C   0  0  0  0  0  0  0  0  0  0  0  0
   16.0236  -15.8679  -17.0771 C   0  0  1  0  0  0  0  0  0  0  0  0
   16.5460  -15.6028  -15.6574 C   0  0  0  0  0  0  0  0  0  0  0  0
   17.2295  -16.1047  -17.9212 C   0  0  0  0  0  0  0  0  0  0  0  0
   18.2678  -17.0109  -17.2712 C   0  0  2  0  0  0  0  0  0  0  0  0
   19.2786  -17.2354  -18.2858 N   0  0  0  0  0  0  0  0  0  0  0  0
   17.6948  -18.2818  -16.8331 C   0  0  0  0  0  0  0  0  0  0  0  0
   17.4421  -19.2384  -17.5869 O   0  0  0  0  0  0  0  0  0  0  0  0
   17.3875  -18.4960  -15.4774 O   0  0  0  0  0  0  0  0  0  0  0  0
  2  1  1  0
  3  2  1  0
  4  3  2  0
  6  5  1  0
  6 16  2  0
  7  6  1  0
  8  7  2  0
  8  9  1  0
  9 15  2  0
 10  9  1  0
 11 10  1  1
 11 12  1  0
 12  3  1  0
 13 22  1  0
 13 11  1  0
 14 13  2  0
 15 16  1  0
 18 17  1  1
 19 18  1  0
 20 18  1  0
 21 22  1  0
 21 20  1  6
 23 21  1  0
 23 25  1  0
 24 23  2  0
M  END
$$$$
