GYL.pdb
     RDKit          3D

 25 25  0  0  1  0  0  0  0  0999 V2000
   28.3132  -18.3537  -14.9276 N   0  0  0  0  0  0  0  0  0  0  0  0
   27.8603  -19.6459  -14.5016 C   0  0  0  0  0  0  0  0  0  0  0  0
   26.9737  -19.4829  -13.3231 C   0  0  0  0  0  0  0  0  0  0  0  0
   26.5147  -18.3537  -13.0017 O   0  0  0  0  0  0  0  0  0  0  0  0
   20.5787  -19.3790  -15.3840 O   0  0  0  0  0  0  0  0  0  0  0  0
   21.5385  -19.8660  -14.5055 C   0  0  0  0  0  0  0  0  0  0  0  0
   21.4265  -19.7464  -13.1379 C   0  0  0  0  0  0  0  0  0  0  0  0
   22.3567  -20.2164  -12.2400 C   0  0  0  0  0  0  0  0  0  0  0  0
   23.4754  -20.8487  -12.7164 C   0  0  0  0  0  0  0  0  0  0  0  0
   24.4752  -21.3770  -11.7833 C   0  0  0  0  0  0  0  0  0  0  0  0
   25.5850  -20.4355  -11.4949 C   0  0  2  0  0  0  0  0  0  0  0  0
   26.6286  -20.5917  -12.5408 N   0  0  0  0  0  0  0  0  0  0  0  0
   26.2770  -20.7533  -10.2389 C   0  0  0  0  0  0  0  0  0  0  0  0
   27.0347  -21.7971  -10.2249 O   0  0  0  0  0  0  0  0  0  0  0  0
   23.6269  -20.9900  -14.0975 C   0  0  0  0  0  0  0  0  0  0  0  0
   22.6846  -20.5116  -14.9600 C   0  0  0  0  0  0  0  0  0  0  0  0
   29.4056  -20.4200   -5.9154 C   0  0  0  0  0  0  0  0  0  0  0  0
   27.9908  -19.8718   -5.7445 C   0  0  1  0  0  0  0  0  0  0  0  0
   28.0837  -18.5843   -4.9124 C   0  0  0  0  0  0  0  0  0  0  0  0
   27.4210  -19.4693   -7.0622 C   0  0  0  0  0  0  0  0  0  0  0  0
   26.7860  -20.6184   -7.8354 C   0  0  2  0  0  0  0  0  0  0  0  0
   26.2084  -20.0176   -9.0216 N   0  0  0  0  0  0  0  0  0  0  0  0
   25.7556  -21.3040   -7.0585 C   0  0  0  0  0  0  0  0  0  0  0  0
   25.9840  -22.0706   -6.1059 O   0  0  0  0  0  0  0  0  0  0  0  0
   24.3943  -21.1227   -7.3623 O   0  0  0  0  0  0  0  0  0  0  0  0
  2  1  1  0
  3  2  1  0
  4  3  2  0
  6  5  1  0
  6 16  2  0
  7  6  1  0
  8  7  2  0
  8  9  1  0
  9 15  2  0
 10  9  1  0
 11 10  1  6
 11 12  1  0
 12  3  1  0
 13 22  1  0
 13 11  1  0
 14 13  2  0
 15 16  1  0
 18 17  1  6
 19 18  1  0
 20 18  1  0
 21 22  1  0
 21 20  1  1
 23 21  1  0
 23 25  1  0
 24 23  2  0
M  END
$$$$
