GYL.pdb
     RDKit          3D

 25 25  0  0  1  0  0  0  0  0999 V2000
   22.6672  -18.4390  -15.5519 N   0  0  0  0  0  0  0  0  0  0  0  0
   23.4592  -18.2204  -14.3765 C   0  0  0  0  0  0  0  0  0  0  0  0
   24.3619  -19.3812  -14.1792 C   0  0  0  0  0  0  0  0  0  0  0  0
   24.2092  -20.4469  -14.8350 O   0  0  0  0  0  0  0  0  0  0  0  0
   28.9609  -18.1127  -18.3868 O   0  0  0  0  0  0  0  0  0  0  0  0
   28.6585  -18.5936  -17.1189 C   0  0  0  0  0  0  0  0  0  0  0  0
   28.1980  -17.7837  -16.1045 C   0  0  0  0  0  0  0  0  0  0  0  0
   27.8892  -18.2260  -14.8390 C   0  0  0  0  0  0  0  0  0  0  0  0
   28.0423  -19.5564  -14.5477 C   0  0  0  0  0  0  0  0  0  0  0  0
   27.7034  -20.0608  -13.2134 C   0  0  0  0  0  0  0  0  0  0  0  0
   26.2911  -20.4939  -13.0752 C   0  0  2  0  0  0  0  0  0  0  0  0
   25.4088  -19.3115  -13.2520 N   0  0  0  0  0  0  0  0  0  0  0  0
   25.9838  -20.9793  -11.7235 C   0  0  0  0  0  0  0  0  0  0  0  0
   26.3829  -22.1658  -11.4125 O   0  0  0  0  0  0  0  0  0  0  0  0
   28.5075  -20.4114  -15.5491 C   0  0  0  0  0  0  0  0  0  0  0  0
   28.8046  -19.9390  -16.7938 C   0  0  0  0  0  0  0  0  0  0  0  0
   27.3453  -19.0005   -7.2181 C   0  0  0  0  0  0  0  0  0  0  0  0
   26.9266  -19.9543   -8.3345 C   0  0  1  0  0  0  0  0  0  0  0  0
   27.5206  -21.3352   -8.0194 C   0  0  0  0  0  0  0  0  0  0  0  0
   25.4467  -20.1358   -8.3425 C   0  0  0  0  0  0  0  0  0  0  0  0
   24.9374  -20.9903   -9.4966 C   0  0  2  0  0  0  0  0  0  0  0  0
   25.2918  -20.2677  -10.7023 N   0  0  0  0  0  0  0  0  0  0  0  0
   23.4923  -21.1984   -9.4338 C   0  0  0  0  0  0  0  0  0  0  0  0
   22.6777  -20.7399  -10.2543 O   0  0  0  0  0  0  0  0  0  0  0  0
   22.9260  -21.9617   -8.3969 O   0  0  0  0  0  0  0  0  0  0  0  0
  2  1  1  0
  3  2  1  0
  4  3  2  0
  6  5  1  0
  6 16  2  0
  7  6  1  0
  8  7  2  0
  8  9  1  0
  9 15  2  0
 10  9  1  0
 11 10  1  1
 11 12  1  0
 12  3  1  0
 13 22  1  0
 13 11  1  0
 14 13  2  0
 15 16  1  0
 18 17  1  1
 19 18  1  0
 20 18  1  0
 21 22  1  0
 21 20  1  1
 23 21  1  0
 23 25  1  0
 24 23  2  0
M  END
$$$$
