IWM.pdb
     RDKit          3D

 31 32  0  0  1  0  0  0  0  0999 V2000
   27.6449  -17.9398  -17.0394 C   0  0  0  0  0  0  0  0  0  0  0  0
   28.3560  -19.0536  -16.2556 C   0  0  0  0  0  0  0  0  0  0  0  0
   27.4671  -19.4546  -15.1256 C   0  0  2  0  0  0  0  0  0  0  0  0
   27.1220  -18.2691  -14.2859 C   0  0  0  0  0  0  0  0  0  0  0  0
   28.0708  -20.6086  -14.3482 C   0  0  2  0  0  0  0  0  0  0  0  0
   28.2408  -21.7711  -15.2076 N   0  0  0  0  0  0  0  0  0  0  0  0
   27.3273  -20.9412  -13.1204 C   0  0  0  0  0  0  0  0  0  0  0  0
   26.2608  -21.5889  -13.1780 O   0  0  0  0  0  0  0  0  0  0  0  0
   27.7612  -20.5586  -11.8192 N   0  0  0  0  0  0  0  0  0  0  0  0
   26.9939  -20.9357  -10.6132 C   0  0  1  0  0  0  0  0  0  0  0  0
   27.8041  -20.4675   -9.4557 C   0  0  0  0  0  0  0  0  0  0  0  0
   27.1076  -20.5195   -8.1536 C   0  0  0  0  0  0  0  0  0  0  0  0
   25.8398  -20.9649   -7.8401 C   0  0  0  0  0  0  0  0  0  0  0  0
   25.5969  -20.8152   -6.5242 N   0  0  0  0  0  0  0  0  0  0  0  0
   26.6845  -20.2723   -5.9348 C   0  0  0  0  0  0  0  0  0  0  0  0
   26.9118  -19.9356   -4.6170 C   0  0  0  0  0  0  0  0  0  0  0  0
   28.1336  -19.3888   -4.2900 C   0  0  0  0  0  0  0  0  0  0  0  0
   29.0921  -19.1954   -5.2933 C   0  0  0  0  0  0  0  0  0  0  0  0
   28.8370  -19.5411   -6.5995 C   0  0  0  0  0  0  0  0  0  0  0  0
   27.6216  -20.0851   -6.9249 C   0  0  0  0  0  0  0  0  0  0  0  0
   25.6463  -20.4044  -10.7461 C   0  0  0  0  0  0  0  0  0  0  0  0
   25.5186  -19.1268  -10.7993 O   0  0  0  0  0  0  0  0  0  0  0  0
   22.2826  -19.9425  -15.8098 C   0  0  0  0  0  0  0  0  0  0  0  0
   20.9961  -20.4481  -14.6517 S   0  0  0  0  0  0  0  0  0  0  0  0
   21.5008  -20.1322  -12.9319 C   0  0  0  0  0  0  0  0  0  0  0  0
   22.7999  -20.8206  -12.6065 C   0  0  0  0  0  0  0  0  0  0  0  0
   23.2149  -20.5164  -11.1852 C   0  0  2  0  0  0  0  0  0  0  0  0
   24.4548  -21.1481  -10.8260 N   0  0  0  0  0  0  0  0  0  0  0  0
   22.1767  -20.9044  -10.2123 C   0  0  0  0  0  0  0  0  0  0  0  0
   21.0941  -20.0522   -9.9144 O   0  0  0  0  0  0  0  0  0  0  0  0
   22.1708  -21.9926   -9.5883 O   0  0  0  0  0  0  0  0  0  0  0  0
  1  2  1  0
  2  3  1  0
  3  4  1  1
  5  6  1  6
  5  3  1  0
  7  5  1  0
  8  7  2  0
  9  7  1  0
 10  9  1  0
 10 11  1  1
 12 11  1  0
 12 13  2  0
 14 13  1  0
 15 14  1  0
 16 15  2  0
 17 16  1  0
 18 17  2  0
 18 19  1  0
 19 20  2  0
 20 15  1  0
 20 12  1  0
 21 10  1  0
 21 28  1  0
 22 21  2  0
 23 24  1  0
 24 25  1  0
 25 26  1  0
 27 26  1  6
 27 28  1  0
 27 29  1  0
 29 31  2  0
 29 30  1  0
M  END
$$$$
