IWM.pdb
     RDKit          3D

 31 32  0  0  1  0  0  0  0  0999 V2000
   29.4246  -18.1807  -18.4306 C   0  0  0  0  0  0  0  0  0  0  0  0
   28.0106  -17.7012  -18.7925 C   0  0  0  0  0  0  0  0  0  0  0  0
   27.2899  -17.4053  -17.5193 C   0  0  2  0  0  0  0  0  0  0  0  0
   28.0606  -16.4249  -16.6981 C   0  0  0  0  0  0  0  0  0  0  0  0
   26.9414  -18.6869  -16.7869 C   0  0  2  0  0  0  0  0  0  0  0  0
   27.0335  -19.8299  -17.6835 N   0  0  0  0  0  0  0  0  0  0  0  0
   25.6385  -18.6345  -16.1009 C   0  0  0  0  0  0  0  0  0  0  0  0
   25.4020  -17.7504  -15.2507 O   0  0  0  0  0  0  0  0  0  0  0  0
   24.5875  -19.5618  -16.3528 N   0  0  0  0  0  0  0  0  0  0  0  0
   23.2931  -19.4645  -15.6457 C   0  0  1  0  0  0  0  0  0  0  0  0
   22.2555  -19.3876  -16.7102 C   0  0  0  0  0  0  0  0  0  0  0  0
   21.5510  -18.0915  -16.7928 C   0  0  0  0  0  0  0  0  0  0  0  0
   22.0508  -16.8164  -16.9615 C   0  0  0  0  0  0  0  0  0  0  0  0
   21.0528  -15.9125  -16.9627 N   0  0  0  0  0  0  0  0  0  0  0  0
   19.8764  -16.5556  -16.7966 C   0  0  0  0  0  0  0  0  0  0  0  0
   18.5901  -16.0625  -16.7325 C   0  0  0  0  0  0  0  0  0  0  0  0
   17.5605  -16.9608  -16.5545 C   0  0  0  0  0  0  0  0  0  0  0  0
   17.8501  -18.3272  -16.4458 C   0  0  0  0  0  0  0  0  0  0  0  0
   19.1432  -18.7898  -16.5135 C   0  0  0  0  0  0  0  0  0  0  0  0
   20.1675  -17.8963  -16.6907 C   0  0  0  0  0  0  0  0  0  0  0  0
   23.2048  -20.5689  -14.7030 C   0  0  0  0  0  0  0  0  0  0  0  0
   23.9830  -21.5731  -14.8964 O   0  0  0  0  0  0  0  0  0  0  0  0
   27.2230  -20.4947  -11.3297 C   0  0  0  0  0  0  0  0  0  0  0  0
   25.8898  -21.2312  -10.3643 S   0  0  0  0  0  0  0  0  0  0  0  0
   24.3813  -20.2166  -10.4483 C   0  0  0  0  0  0  0  0  0  0  0  0
   23.9656  -19.9691  -11.8743 C   0  0  0  0  0  0  0  0  0  0  0  0
   22.8743  -20.9334  -12.2792 C   0  0  2  0  0  0  0  0  0  0  0  0
   22.3508  -20.6550  -13.5883 N   0  0  0  0  0  0  0  0  0  0  0  0
   21.7636  -20.9483  -11.3091 C   0  0  0  0  0  0  0  0  0  0  0  0
   20.4704  -20.5159  -11.6665 O   0  0  0  0  0  0  0  0  0  0  0  0
   21.8742  -21.3359  -10.1212 O   0  0  0  0  0  0  0  0  0  0  0  0
  1  2  1  0
  2  3  1  0
  3  4  1  1
  5  6  1  6
  5  3  1  0
  7  5  1  0
  8  7  2  0
  9  7  1  0
 10  9  1  0
 10 11  1  6
 12 11  1  0
 12 13  2  0
 14 13  1  0
 15 14  1  0
 16 15  2  0
 17 16  1  0
 18 17  2  0
 18 19  1  0
 19 20  2  0
 20 15  1  0
 20 12  1  0
 21 10  1  0
 21 28  1  0
 22 21  2  0
 23 24  1  0
 24 25  1  0
 25 26  1  0
 27 26  1  1
 27 28  1  0
 27 29  1  0
 29 31  2  0
 29 30  1  0
M  END
$$$$
