IWM.pdb
     RDKit          3D

 31 32  0  0  1  0  0  0  0  0999 V2000
   27.9804  -17.1494  -16.1365 C   0  0  0  0  0  0  0  0  0  0  0  0
   28.7085  -18.3490  -15.5109 C   0  0  0  0  0  0  0  0  0  0  0  0
   27.7373  -19.0632  -14.6308 C   0  0  2  0  0  0  0  0  0  0  0  0
   27.1175  -18.1146  -13.6584 C   0  0  0  0  0  0  0  0  0  0  0  0
   28.3836  -20.2748  -13.9868 C   0  0  2  0  0  0  0  0  0  0  0  0
   28.9040  -21.1779  -15.0029 N   0  0  0  0  0  0  0  0  0  0  0  0
   27.5018  -20.9734  -13.0352 C   0  0  0  0  0  0  0  0  0  0  0  0
   26.6171  -21.7551  -13.4435 O   0  0  0  0  0  0  0  0  0  0  0  0
   27.5947  -20.8110  -11.6236 N   0  0  0  0  0  0  0  0  0  0  0  0
   26.6879  -21.5342  -10.7071 C   0  0  1  0  0  0  0  0  0  0  0  0
   27.4506  -21.7130   -9.4414 C   0  0  0  0  0  0  0  0  0  0  0  0
   27.1806  -20.6914   -8.4086 C   0  0  0  0  0  0  0  0  0  0  0  0
   26.2677  -19.6566   -8.3980 C   0  0  0  0  0  0  0  0  0  0  0  0
   26.3690  -18.9469   -7.2583 N   0  0  0  0  0  0  0  0  0  0  0  0
   27.3411  -19.4849   -6.4897 C   0  0  0  0  0  0  0  0  0  0  0  0
   27.8068  -19.1109   -5.2468 C   0  0  0  0  0  0  0  0  0  0  0  0
   28.8247  -19.8518   -4.6869 C   0  0  0  0  0  0  0  0  0  0  0  0
   29.3464  -20.9461   -5.3892 C   0  0  0  0  0  0  0  0  0  0  0  0
   28.8616  -21.2955   -6.6276 C   0  0  0  0  0  0  0  0  0  0  0  0
   27.8490  -20.5586   -7.1846 C   0  0  0  0  0  0  0  0  0  0  0  0
   25.4334  -20.8013  -10.6352 C   0  0  0  0  0  0  0  0  0  0  0  0
   25.5027  -19.5246  -10.5062 O   0  0  0  0  0  0  0  0  0  0  0  0
   23.0906  -20.0232  -15.7945 C   0  0  0  0  0  0  0  0  0  0  0  0
   21.4859  -20.0187  -14.9720 S   0  0  0  0  0  0  0  0  0  0  0  0
   21.6754  -19.9231  -13.1645 C   0  0  0  0  0  0  0  0  0  0  0  0
   22.8851  -20.6895  -12.6988 C   0  0  0  0  0  0  0  0  0  0  0  0
   23.0361  -20.5739  -11.1992 C   0  0  2  0  0  0  0  0  0  0  0  0
   24.1379  -21.3466  -10.6952 N   0  0  0  0  0  0  0  0  0  0  0  0
   21.8055  -20.9687  -10.4889 C   0  0  0  0  0  0  0  0  0  0  0  0
   20.6982  -20.1010  -10.4001 O   0  0  0  0  0  0  0  0  0  0  0  0
   21.6467  -22.0765   -9.9222 O   0  0  0  0  0  0  0  0  0  0  0  0
  1  2  1  0
  2  3  1  0
  3  4  1  1
  5  6  1  6
  5  3  1  0
  7  5  1  0
  8  7  2  0
  9  7  1  0
 10  9  1  0
 10 11  1  1
 12 11  1  0
 12 13  2  0
 14 13  1  0
 15 14  1  0
 16 15  2  0
 17 16  1  0
 18 17  2  0
 18 19  1  0
 19 20  2  0
 20 15  1  0
 20 12  1  0
 21 10  1  0
 21 28  1  0
 22 21  2  0
 23 24  1  0
 24 25  1  0
 25 26  1  0
 27 26  1  6
 27 28  1  0
 27 29  1  0
 29 31  2  0
 29 30  1  0
M  END
$$$$
