IWM.pdb
     RDKit          3D

 31 32  0  0  1  0  0  0  0  0999 V2000
   27.1934  -21.6305  -20.4762 C   0  0  0  0  0  0  0  0  0  0  0  0
   27.9369  -21.7046  -19.1337 C   0  0  0  0  0  0  0  0  0  0  0  0
   26.9386  -22.0472  -18.0783 C   0  0  2  0  0  0  0  0  0  0  0  0
   25.7175  -21.1995  -18.2189 C   0  0  0  0  0  0  0  0  0  0  0  0
   27.5717  -21.9963  -16.7009 C   0  0  2  0  0  0  0  0  0  0  0  0
   28.6893  -22.9251  -16.6168 N   0  0  0  0  0  0  0  0  0  0  0  0
   26.6083  -22.2003  -15.6049 C   0  0  0  0  0  0  0  0  0  0  0  0
   26.2534  -23.3519  -15.2757 O   0  0  0  0  0  0  0  0  0  0  0  0
   26.0315  -21.1290  -14.8651 N   0  0  0  0  0  0  0  0  0  0  0  0
   25.1266  -21.3845  -13.7245 C   0  0  1  0  0  0  0  0  0  0  0  0
   25.4690  -20.3610  -12.6994 C   0  0  0  0  0  0  0  0  0  0  0  0
   24.8477  -20.5802  -11.3769 C   0  0  0  0  0  0  0  0  0  0  0  0
   25.3083  -21.2845  -10.2833 C   0  0  0  0  0  0  0  0  0  0  0  0
   24.4101  -21.2443   -9.2811 N   0  0  0  0  0  0  0  0  0  0  0  0
   23.3406  -20.5204   -9.6774 C   0  0  0  0  0  0  0  0  0  0  0  0
   22.1788  -20.2023   -9.0059 C   0  0  0  0  0  0  0  0  0  0  0  0
   21.2408  -19.4356   -9.6624 C   0  0  0  0  0  0  0  0  0  0  0  0
   21.4944  -19.0101  -10.9729 C   0  0  0  0  0  0  0  0  0  0  0  0
   22.6626  -19.3429  -11.6173 C   0  0  0  0  0  0  0  0  0  0  0  0
   23.5958  -20.1055  -10.9644 C   0  0  0  0  0  0  0  0  0  0  0  0
   23.7599  -21.4025  -14.2225 C   0  0  0  0  0  0  0  0  0  0  0  0
   23.4411  -20.5219  -15.1024 O   0  0  0  0  0  0  0  0  0  0  0  0
   17.4534  -24.7716  -17.1456 C   0  0  0  0  0  0  0  0  0  0  0  0
   18.8869  -24.9876  -16.0731 S   0  0  0  0  0  0  0  0  0  0  0  0
   19.5638  -23.3809  -15.5514 C   0  0  0  0  0  0  0  0  0  0  0  0
   20.9252  -23.5361  -14.9270 C   0  0  0  0  0  0  0  0  0  0  0  0
   21.4283  -22.2026  -14.4234 C   0  0  2  0  0  0  0  0  0  0  0  0
   22.7391  -22.2925  -13.8413 N   0  0  0  0  0  0  0  0  0  0  0  0
   20.5059  -21.5995  -13.4434 C   0  0  0  0  0  0  0  0  0  0  0  0
   19.6292  -20.5567  -13.8051 O   0  0  0  0  0  0  0  0  0  0  0  0
   20.4272  -21.9541  -12.2427 O   0  0  0  0  0  0  0  0  0  0  0  0
  1  2  1  0
  2  3  1  0
  3  4  1  1
  5  6  1  6
  5  3  1  0
  7  5  1  0
  8  7  2  0
  9  7  1  0
 10  9  1  0
 10 11  1  1
 12 11  1  0
 12 13  2  0
 14 13  1  0
 15 14  1  0
 16 15  2  0
 17 16  1  0
 18 17  2  0
 18 19  1  0
 19 20  2  0
 20 15  1  0
 20 12  1  0
 21 10  1  0
 21 28  1  0
 22 21  2  0
 23 24  1  0
 24 25  1  0
 25 26  1  0
 27 26  1  1
 27 28  1  0
 27 29  1  0
 29 31  2  0
 29 30  1  0
M  END
$$$$
