IWM.pdb
     RDKit          3D

 31 32  0  0  1  0  0  0  0  0999 V2000
   24.3483  -20.1684  -16.6496 C   0  0  0  0  0  0  0  0  0  0  0  0
   25.5846  -20.3597  -15.7576 C   0  0  0  0  0  0  0  0  0  0  0  0
   25.1113  -20.7889  -14.4087 C   0  0  2  0  0  0  0  0  0  0  0  0
   24.0197  -19.8909  -13.9276 C   0  0  0  0  0  0  0  0  0  0  0  0
   26.2755  -20.9185  -13.4451 C   0  0  2  0  0  0  0  0  0  0  0  0
   27.2769  -21.8337  -13.9728 N   0  0  0  0  0  0  0  0  0  0  0  0
   25.8669  -21.2853  -12.0778 C   0  0  0  0  0  0  0  0  0  0  0  0
   25.6352  -22.4763  -11.7808 O   0  0  0  0  0  0  0  0  0  0  0  0
   25.7128  -20.3342  -11.0293 N   0  0  0  0  0  0  0  0  0  0  0  0
   25.3790  -20.7577   -9.6528 C   0  0  1  0  0  0  0  0  0  0  0  0
   26.1290  -19.8384   -8.7539 C   0  0  0  0  0  0  0  0  0  0  0  0
   26.2638  -20.3116   -7.3607 C   0  0  0  0  0  0  0  0  0  0  0  0
   25.5192  -21.2382   -6.6598 C   0  0  0  0  0  0  0  0  0  0  0  0
   25.9757  -21.3567   -5.3986 N   0  0  0  0  0  0  0  0  0  0  0  0
   27.0239  -20.5214   -5.2295 C   0  0  0  0  0  0  0  0  0  0  0  0
   27.8128  -20.2910   -4.1222 C   0  0  0  0  0  0  0  0  0  0  0  0
   28.8306  -19.3687   -4.2331 C   0  0  0  0  0  0  0  0  0  0  0  0
   29.0279  -18.7041   -5.4505 C   0  0  0  0  0  0  0  0  0  0  0  0
   28.2248  -18.9547   -6.5381 C   0  0  0  0  0  0  0  0  0  0  0  0
   27.2124  -19.8722   -6.4281 C   0  0  0  0  0  0  0  0  0  0  0  0
   23.9304  -20.7864   -9.5237 C   0  0  0  0  0  0  0  0  0  0  0  0
   23.2545  -20.0043  -10.2873 O   0  0  0  0  0  0  0  0  0  0  0  0
   19.5476  -25.5967   -7.3067 C   0  0  0  0  0  0  0  0  0  0  0  0
   18.9102  -23.9666   -6.8731 S   0  0  0  0  0  0  0  0  0  0  0  0
   19.6473  -22.6741   -7.9212 C   0  0  0  0  0  0  0  0  0  0  0  0
   21.1412  -22.6098   -7.7434 C   0  0  0  0  0  0  0  0  0  0  0  0
   21.7494  -21.6529   -8.7430 C   0  0  2  0  0  0  0  0  0  0  0  0
   23.1817  -21.5896   -8.6442 N   0  0  0  0  0  0  0  0  0  0  0  0
   21.1965  -20.2921   -8.6109 C   0  0  0  0  0  0  0  0  0  0  0  0
   20.1219  -19.8550   -9.4116 O   0  0  0  0  0  0  0  0  0  0  0  0
   21.6235  -19.4366   -7.7989 O   0  0  0  0  0  0  0  0  0  0  0  0
  1  2  1  0
  2  3  1  0
  3  4  1  1
  5  6  1  6
  5  3  1  0
  7  5  1  0
  8  7  2  0
  9  7  1  0
 10  9  1  0
 10 11  1  1
 12 11  1  0
 12 13  2  0
 14 13  1  0
 15 14  1  0
 16 15  2  0
 17 16  1  0
 18 17  2  0
 18 19  1  0
 19 20  2  0
 20 15  1  0
 20 12  1  0
 21 10  1  0
 21 28  1  0
 22 21  2  0
 23 24  1  0
 24 25  1  0
 25 26  1  0
 27 26  1  1
 27 28  1  0
 27 29  1  0
 29 31  2  0
 29 30  1  0
M  END
$$$$
