IWM.pdb
     RDKit          3D

 31 32  0  0  1  0  0  0  0  0999 V2000
   27.8052  -21.4340  -20.2714 C   0  0  0  0  0  0  0  0  0  0  0  0
   28.6809  -21.8053  -19.0649 C   0  0  0  0  0  0  0  0  0  0  0  0
   27.7811  -21.9909  -17.8886 C   0  0  2  0  0  0  0  0  0  0  0  0
   26.8823  -20.8096  -17.7264 C   0  0  0  0  0  0  0  0  0  0  0  0
   28.5813  -22.3343  -16.6467 C   0  0  2  0  0  0  0  0  0  0  0  0
   29.3222  -23.5720  -16.8415 N   0  0  0  0  0  0  0  0  0  0  0  0
   27.7695  -22.3713  -15.4176 C   0  0  0  0  0  0  0  0  0  0  0  0
   26.9782  -23.3143  -15.2058 O   0  0  0  0  0  0  0  0  0  0  0  0
   27.8295  -21.3632  -14.4137 N   0  0  0  0  0  0  0  0  0  0  0  0
   27.0205  -21.4601  -13.1803 C   0  0  1  0  0  0  0  0  0  0  0  0
   27.7148  -20.6116  -12.1736 C   0  0  0  0  0  0  0  0  0  0  0  0
   27.0030  -20.4741  -10.8861 C   0  0  0  0  0  0  0  0  0  0  0  0
   25.6845  -20.1596  -10.6277 C   0  0  0  0  0  0  0  0  0  0  0  0
   25.4576  -20.1219   -9.3010 N   0  0  0  0  0  0  0  0  0  0  0  0
   26.6063  -20.4070   -8.6497 C   0  0  0  0  0  0  0  0  0  0  0  0
   26.8706  -20.4882   -7.2987 C   0  0  0  0  0  0  0  0  0  0  0  0
   28.1540  -20.8027   -6.9079 C   0  0  0  0  0  0  0  0  0  0  0  0
   29.1351  -21.0267   -7.8826 C   0  0  0  0  0  0  0  0  0  0  0  0
   28.8419  -20.9387   -9.2231 C   0  0  0  0  0  0  0  0  0  0  0  0
   27.5653  -20.6258   -9.6120 C   0  0  0  0  0  0  0  0  0  0  0  0
   25.6453  -21.1189  -13.5096 C   0  0  0  0  0  0  0  0  0  0  0  0
   25.4568  -20.1091  -14.2817 O   0  0  0  0  0  0  0  0  0  0  0  0
   21.5394  -24.5150  -16.3794 C   0  0  0  0  0  0  0  0  0  0  0  0
   20.4264  -23.1394  -16.0316 S   0  0  0  0  0  0  0  0  0  0  0  0
   21.2063  -21.9303  -14.9172 C   0  0  0  0  0  0  0  0  0  0  0  0
   22.5688  -22.3930  -14.4733 C   0  0  0  0  0  0  0  0  0  0  0  0
   23.1863  -21.3841  -13.5322 C   0  0  2  0  0  0  0  0  0  0  0  0
   24.4867  -21.7853  -13.0704 N   0  0  0  0  0  0  0  0  0  0  0  0
   22.3227  -21.1156  -12.3673 C   0  0  0  0  0  0  0  0  0  0  0  0
   21.1256  -20.3824  -12.4941 O   0  0  0  0  0  0  0  0  0  0  0  0
   22.5742  -21.5062  -11.2021 O   0  0  0  0  0  0  0  0  0  0  0  0
  1  2  1  0
  2  3  1  0
  3  4  1  1
  5  6  1  6
  5  3  1  0
  7  5  1  0
  8  7  2  0
  9  7  1  0
 10  9  1  0
 10 11  1  1
 12 11  1  0
 12 13  2  0
 14 13  1  0
 15 14  1  0
 16 15  2  0
 17 16  1  0
 18 17  2  0
 18 19  1  0
 19 20  2  0
 20 15  1  0
 20 12  1  0
 21 10  1  0
 21 28  1  0
 22 21  2  0
 23 24  1  0
 24 25  1  0
 25 26  1  0
 27 26  1  1
 27 28  1  0
 27 29  1  0
 29 31  2  0
 29 30  1  0
M  END
$$$$
