IWM.pdb
     RDKit          3D

 31 32  0  0  1  0  0  0  0  0999 V2000
   25.6733  -17.6874  -21.7950 C   0  0  0  0  0  0  0  0  0  0  0  0
   24.5298  -17.5506  -20.7780 C   0  0  0  0  0  0  0  0  0  0  0  0
   24.5735  -18.7422  -19.8801 C   0  0  2  0  0  0  0  0  0  0  0  0
   24.5384  -20.0018  -20.6812 C   0  0  0  0  0  0  0  0  0  0  0  0
   23.4958  -18.6554  -18.8165 C   0  0  2  0  0  0  0  0  0  0  0  0
   23.3505  -17.2856  -18.3459 N   0  0  0  0  0  0  0  0  0  0  0  0
   23.6951  -19.5977  -17.7014 C   0  0  0  0  0  0  0  0  0  0  0  0
   23.8614  -20.8163  -17.9200 O   0  0  0  0  0  0  0  0  0  0  0  0
   23.7123  -19.1957  -16.3354 N   0  0  0  0  0  0  0  0  0  0  0  0
   23.8260  -20.1879  -15.2455 C   0  0  1  0  0  0  0  0  0  0  0  0
   24.6629  -19.5428  -14.1971 C   0  0  0  0  0  0  0  0  0  0  0  0
   24.9939  -20.4129  -13.0497 C   0  0  0  0  0  0  0  0  0  0  0  0
   25.9670  -21.3826  -12.9201 C   0  0  0  0  0  0  0  0  0  0  0  0
   25.9086  -21.9526  -11.7017 N   0  0  0  0  0  0  0  0  0  0  0  0
   24.9064  -21.3834  -10.9969 C   0  0  0  0  0  0  0  0  0  0  0  0
   24.4643  -21.6299   -9.7142 C   0  0  0  0  0  0  0  0  0  0  0  0
   23.4041  -20.8878   -9.2410 C   0  0  0  0  0  0  0  0  0  0  0  0
   22.8177  -19.9202  -10.0673 C   0  0  0  0  0  0  0  0  0  0  0  0
   23.2803  -19.6965  -11.3427 C   0  0  0  0  0  0  0  0  0  0  0  0
   24.3350  -20.4346  -11.8136 C   0  0  0  0  0  0  0  0  0  0  0  0
   22.4848  -20.6059  -14.8683 C   0  0  0  0  0  0  0  0  0  0  0  0
   21.6033  -19.6849  -14.7069 O   0  0  0  0  0  0  0  0  0  0  0  0
   18.6867  -24.2694  -18.8753 C   0  0  0  0  0  0  0  0  0  0  0  0
   19.1152  -24.6228  -17.1597 S   0  0  0  0  0  0  0  0  0  0  0  0
   19.7289  -23.1315  -16.3163 C   0  0  0  0  0  0  0  0  0  0  0  0
   20.1187  -23.4281  -14.8923 C   0  0  0  0  0  0  0  0  0  0  0  0
   20.6973  -22.1947  -14.2374 C   0  0  2  0  0  0  0  0  0  0  0  0
   22.0438  -21.9259  -14.6616 N   0  0  0  0  0  0  0  0  0  0  0  0
   20.6643  -22.2847  -12.7658 C   0  0  0  0  0  0  0  0  0  0  0  0
   19.4728  -22.0715  -12.0435 O   0  0  0  0  0  0  0  0  0  0  0  0
   21.6639  -22.5508  -12.0561 O   0  0  0  0  0  0  0  0  0  0  0  0
  1  2  1  0
  2  3  1  0
  3  4  1  6
  5  6  1  1
  5  3  1  0
  7  5  1  0
  8  7  2  0
  9  7  1  0
 10  9  1  0
 10 11  1  1
 12 11  1  0
 12 13  2  0
 14 13  1  0
 15 14  1  0
 16 15  2  0
 17 16  1  0
 18 17  2  0
 18 19  1  0
 19 20  2  0
 20 15  1  0
 20 12  1  0
 21 10  1  0
 21 28  1  0
 22 21  2  0
 23 24  1  0
 24 25  1  0
 25 26  1  0
 27 26  1  6
 27 28  1  0
 27 29  1  0
 29 31  2  0
 29 30  1  0
M  END
$$$$
