IWM.pdb
     RDKit          3D

 31 32  0  0  1  0  0  0  0  0999 V2000
   29.8436  -20.0904  -12.3452 C   0  0  0  0  0  0  0  0  0  0  0  0
   28.3165  -20.0036  -12.2003 C   0  0  0  0  0  0  0  0  0  0  0  0
   27.7260  -21.1948  -12.8788 C   0  0  2  0  0  0  0  0  0  0  0  0
   28.1409  -21.2389  -14.3125 C   0  0  0  0  0  0  0  0  0  0  0  0
   26.2249  -21.2463  -12.6674 C   0  0  2  0  0  0  0  0  0  0  0  0
   25.5930  -20.0436  -13.1900 N   0  0  0  0  0  0  0  0  0  0  0  0
   25.8381  -21.5030  -11.2690 C   0  0  0  0  0  0  0  0  0  0  0  0
   26.1303  -22.5844  -10.7161 O   0  0  0  0  0  0  0  0  0  0  0  0
   25.1249  -20.5621  -10.4728 N   0  0  0  0  0  0  0  0  0  0  0  0
   24.6806  -20.8973   -9.1033 C   0  0  1  0  0  0  0  0  0  0  0  0
   25.1606  -19.7847   -8.2388 C   0  0  0  0  0  0  0  0  0  0  0  0
   26.5676  -19.9041   -7.8038 C   0  0  0  0  0  0  0  0  0  0  0  0
   27.7207  -20.0404   -8.5494 C   0  0  0  0  0  0  0  0  0  0  0  0
   28.7966  -20.1344   -7.7453 N   0  0  0  0  0  0  0  0  0  0  0  0
   28.3917  -20.0640   -6.4584 C   0  0  0  0  0  0  0  0  0  0  0  0
   29.1204  -20.1137   -5.2887 C   0  0  0  0  0  0  0  0  0  0  0  0
   28.4376  -20.0162   -4.0958 C   0  0  0  0  0  0  0  0  0  0  0  0
   27.0441  -19.8718   -4.1100 C   0  0  0  0  0  0  0  0  0  0  0  0
   26.3440  -19.8254   -5.2925 C   0  0  0  0  0  0  0  0  0  0  0  0
   27.0231  -19.9223   -6.4792 C   0  0  0  0  0  0  0  0  0  0  0  0
   23.2482  -21.1484   -9.1379 C   0  0  0  0  0  0  0  0  0  0  0  0
   22.5621  -20.5291  -10.0306 O   0  0  0  0  0  0  0  0  0  0  0  0
   19.4570  -25.3081   -5.5061 C   0  0  0  0  0  0  0  0  0  0  0  0
   18.4522  -24.9567   -6.9617 S   0  0  0  0  0  0  0  0  0  0  0  0
   19.1023  -23.5246   -7.8774 C   0  0  0  0  0  0  0  0  0  0  0  0
   20.5704  -23.3232   -7.6098 C   0  0  0  0  0  0  0  0  0  0  0  0
   21.1145  -22.2079   -8.4729 C   0  0  2  0  0  0  0  0  0  0  0  0
   22.5260  -22.0085   -8.2905 N   0  0  0  0  0  0  0  0  0  0  0  0
   20.4127  -20.9330   -8.2339 C   0  0  0  0  0  0  0  0  0  0  0  0
   19.1809  -20.6449   -8.8557 O   0  0  0  0  0  0  0  0  0  0  0  0
   20.8407  -20.0266   -7.4797 O   0  0  0  0  0  0  0  0  0  0  0  0
  1  2  1  0
  2  3  1  0
  3  4  1  6
  5  6  1  1
  5  3  1  0
  7  5  1  0
  8  7  2  0
  9  7  1  0
 10  9  1  0
 10 11  1  1
 12 11  1  0
 12 13  2  0
 14 13  1  0
 15 14  1  0
 16 15  2  0
 17 16  1  0
 18 17  2  0
 18 19  1  0
 19 20  2  0
 20 15  1  0
 20 12  1  0
 21 10  1  0
 21 28  1  0
 22 21  2  0
 23 24  1  0
 24 25  1  0
 25 26  1  0
 27 26  1  1
 27 28  1  0
 27 29  1  0
 29 31  2  0
 29 30  1  0
M  END
$$$$
