IWM.pdb
     RDKit          3D

 31 32  0  0  1  0  0  0  0  0999 V2000
   29.0582  -17.4382  -17.0557 C   0  0  0  0  0  0  0  0  0  0  0  0
   28.0046  -18.5495  -16.9320 C   0  0  0  0  0  0  0  0  0  0  0  0
   27.5538  -18.5939  -15.5098 C   0  0  2  0  0  0  0  0  0  0  0  0
   28.7285  -18.6754  -14.5915 C   0  0  0  0  0  0  0  0  0  0  0  0
   26.5296  -19.6932  -15.3030 C   0  0  2  0  0  0  0  0  0  0  0  0
   25.6339  -19.7798  -16.4472 N   0  0  0  0  0  0  0  0  0  0  0  0
   25.7870  -19.5721  -14.0362 C   0  0  0  0  0  0  0  0  0  0  0  0
   25.2257  -18.4997  -13.7275 O   0  0  0  0  0  0  0  0  0  0  0  0
   25.6607  -20.6396  -13.1022 N   0  0  0  0  0  0  0  0  0  0  0  0
   24.8351  -20.4989  -11.8840 C   0  0  1  0  0  0  0  0  0  0  0  0
   23.6662  -21.3990  -12.0815 C   0  0  0  0  0  0  0  0  0  0  0  0
   22.5002  -20.7632  -12.7290 C   0  0  0  0  0  0  0  0  0  0  0  0
   21.3235  -20.2952  -12.1807 C   0  0  0  0  0  0  0  0  0  0  0  0
   20.5168  -19.8027  -13.1397 N   0  0  0  0  0  0  0  0  0  0  0  0
   21.1288  -19.9289  -14.3374 C   0  0  0  0  0  0  0  0  0  0  0  0
   20.7038  -19.5719  -15.5997 C   0  0  0  0  0  0  0  0  0  0  0  0
   21.5464  -19.8209  -16.6611 C   0  0  0  0  0  0  0  0  0  0  0  0
   22.7906  -20.4206  -16.4265 C   0  0  0  0  0  0  0  0  0  0  0  0
   23.1877  -20.7658  -15.1561 C   0  0  0  0  0  0  0  0  0  0  0  0
   22.3496  -20.5181  -14.1001 C   0  0  0  0  0  0  0  0  0  0  0  0
   25.6830  -20.7463  -10.7281 C   0  0  0  0  0  0  0  0  0  0  0  0
   26.4836  -21.7497  -10.7877 O   0  0  0  0  0  0  0  0  0  0  0  0
   29.8030  -19.1328   -4.2693 C   0  0  0  0  0  0  0  0  0  0  0  0
   28.9169  -18.5080   -5.7102 S   0  0  0  0  0  0  0  0  0  0  0  0
   27.9489  -19.8268   -6.5077 C   0  0  0  0  0  0  0  0  0  0  0  0
   27.2701  -19.3299   -7.7566 C   0  0  0  0  0  0  0  0  0  0  0  0
   26.4847  -20.4453   -8.4078 C   0  0  2  0  0  0  0  0  0  0  0  0
   25.7225  -19.9944   -9.5396 N   0  0  0  0  0  0  0  0  0  0  0  0
   25.5807  -21.1136   -7.4532 C   0  0  0  0  0  0  0  0  0  0  0  0
   26.0811  -21.8877   -6.3868 O   0  0  0  0  0  0  0  0  0  0  0  0
   24.3292  -21.0503   -7.5093 O   0  0  0  0  0  0  0  0  0  0  0  0
  1  2  1  0
  2  3  1  0
  3  4  1  1
  5  6  1  6
  5  3  1  0
  7  5  1  0
  8  7  2  0
  9  7  1  0
 10  9  1  0
 10 11  1  6
 12 11  1  0
 12 13  2  0
 14 13  1  0
 15 14  1  0
 16 15  2  0
 17 16  1  0
 18 17  2  0
 18 19  1  0
 19 20  2  0
 20 15  1  0
 20 12  1  0
 21 10  1  0
 21 28  1  0
 22 21  2  0
 23 24  1  0
 24 25  1  0
 25 26  1  0
 27 26  1  1
 27 28  1  0
 27 29  1  0
 29 31  2  0
 29 30  1  0
M  END
$$$$
