IWM.pdb
     RDKit          3D

 31 32  0  0  1  0  0  0  0  0999 V2000
   28.9362  -18.7668  -20.3398 C   0  0  0  0  0  0  0  0  0  0  0  0
   28.3432  -17.4679  -19.7724 C   0  0  0  0  0  0  0  0  0  0  0  0
   28.3028  -17.5966  -18.2859 C   0  0  2  0  0  0  0  0  0  0  0  0
   29.6590  -17.9216  -17.7523 C   0  0  0  0  0  0  0  0  0  0  0  0
   27.2204  -18.5694  -17.8584 C   0  0  2  0  0  0  0  0  0  0  0  0
   25.9735  -18.2851  -18.5534 N   0  0  0  0  0  0  0  0  0  0  0  0
   27.0303  -18.6305  -16.3986 C   0  0  0  0  0  0  0  0  0  0  0  0
   27.9204  -18.2219  -15.6232 O   0  0  0  0  0  0  0  0  0  0  0  0
   25.8515  -19.1448  -15.7874 N   0  0  0  0  0  0  0  0  0  0  0  0
   25.7324  -19.2485  -14.3176 C   0  0  1  0  0  0  0  0  0  0  0  0
   24.2777  -19.1418  -14.0212 C   0  0  0  0  0  0  0  0  0  0  0  0
   23.9013  -19.5037  -12.6389 C   0  0  0  0  0  0  0  0  0  0  0  0
   24.6150  -19.3887  -11.4635 C   0  0  0  0  0  0  0  0  0  0  0  0
   23.8977  -19.8591  -10.4257 N   0  0  0  0  0  0  0  0  0  0  0  0
   22.7018  -20.2945  -10.8785 C   0  0  0  0  0  0  0  0  0  0  0  0
   21.6394  -20.8538  -10.2000 C   0  0  0  0  0  0  0  0  0  0  0  0
   20.5238  -21.2112  -10.9255 C   0  0  0  0  0  0  0  0  0  0  0  0
   20.5054  -20.9978  -12.3100 C   0  0  0  0  0  0  0  0  0  0  0  0
   21.5802  -20.4379  -12.9597 C   0  0  0  0  0  0  0  0  0  0  0  0
   22.6900  -20.0822  -12.2381 C   0  0  0  0  0  0  0  0  0  0  0  0
   26.4161  -20.4590  -13.8895 C   0  0  0  0  0  0  0  0  0  0  0  0
   26.2778  -21.5052  -14.6228 O   0  0  0  0  0  0  0  0  0  0  0  0
   31.3177  -21.9681   -9.6394 C   0  0  0  0  0  0  0  0  0  0  0  0
   31.5091  -21.0488  -11.1789 S   0  0  0  0  0  0  0  0  0  0  0  0
   29.9850  -21.1077  -12.1718 C   0  0  0  0  0  0  0  0  0  0  0  0
   28.8930  -21.8577  -11.4560 C   0  0  0  0  0  0  0  0  0  0  0  0
   27.6450  -21.9095  -12.3073 C   0  0  2  0  0  0  0  0  0  0  0  0
   27.2237  -20.6078  -12.7471 N   0  0  0  0  0  0  0  0  0  0  0  0
   26.5262  -22.5671  -11.6067 C   0  0  0  0  0  0  0  0  0  0  0  0
   26.5396  -23.9507  -11.3381 O   0  0  0  0  0  0  0  0  0  0  0  0
   25.5008  -21.9675  -11.2035 O   0  0  0  0  0  0  0  0  0  0  0  0
  1  2  1  0
  2  3  1  0
  3  4  1  6
  5  6  1  6
  5  3  1  0
  7  5  1  0
  8  7  2  0
  9  7  1  0
 10  9  1  0
 10 11  1  6
 12 11  1  0
 12 13  2  0
 14 13  1  0
 15 14  1  0
 16 15  2  0
 17 16  1  0
 18 17  2  0
 18 19  1  0
 19 20  2  0
 20 15  1  0
 20 12  1  0
 21 10  1  0
 21 28  1  0
 22 21  2  0
 23 24  1  0
 24 25  1  0
 25 26  1  0
 27 26  1  1
 27 28  1  0
 27 29  1  0
 29 31  2  0
 29 30  1  0
M  END
$$$$
