IWM.pdb
     RDKit          3D

 31 32  0  0  1  0  0  0  0  0999 V2000
   28.8274  -20.5015  -17.6635 C   0  0  0  0  0  0  0  0  0  0  0  0
   28.0243  -19.5175  -16.7991 C   0  0  0  0  0  0  0  0  0  0  0  0
   27.4540  -20.2807  -15.6501 C   0  0  2  0  0  0  0  0  0  0  0  0
   25.9644  -20.1767  -15.6414 C   0  0  0  0  0  0  0  0  0  0  0  0
   28.1108  -19.8649  -14.3478 C   0  0  2  0  0  0  0  0  0  0  0  0
   29.5563  -20.0130  -14.4336 N   0  0  0  0  0  0  0  0  0  0  0  0
   27.5603  -20.5538  -13.1673 C   0  0  0  0  0  0  0  0  0  0  0  0
   26.9424  -21.6324  -13.2906 O   0  0  0  0  0  0  0  0  0  0  0  0
   27.6915  -20.0522  -11.8411 N   0  0  0  0  0  0  0  0  0  0  0  0
   26.9780  -20.6811  -10.7093 C   0  0  1  0  0  0  0  0  0  0  0  0
   27.9296  -20.6520   -9.5651 C   0  0  0  0  0  0  0  0  0  0  0  0
   27.2924  -20.6646   -8.2321 C   0  0  0  0  0  0  0  0  0  0  0  0
   26.0580  -21.1411   -7.8406 C   0  0  0  0  0  0  0  0  0  0  0  0
   25.8661  -20.9347   -6.5239 N   0  0  0  0  0  0  0  0  0  0  0  0
   26.9556  -20.3222   -6.0111 C   0  0  0  0  0  0  0  0  0  0  0  0
   27.2258  -19.9113   -4.7228 C   0  0  0  0  0  0  0  0  0  0  0  0
   28.4378  -19.3031   -4.4780 C   0  0  0  0  0  0  0  0  0  0  0  0
   29.3437  -19.1244   -5.5316 C   0  0  0  0  0  0  0  0  0  0  0  0
   29.0466  -19.5448   -6.8066 C   0  0  0  0  0  0  0  0  0  0  0  0
   27.8410  -20.1498   -7.0503 C   0  0  0  0  0  0  0  0  0  0  0  0
   25.7043  -19.9995  -10.5386 C   0  0  0  0  0  0  0  0  0  0  0  0
   25.6779  -18.7341  -10.7612 O   0  0  0  0  0  0  0  0  0  0  0  0
   24.7977  -23.8046  -14.6635 C   0  0  0  0  0  0  0  0  0  0  0  0
   23.1736  -23.9577  -13.8949 S   0  0  0  0  0  0  0  0  0  0  0  0
   22.7653  -22.4740  -12.9232 C   0  0  0  0  0  0  0  0  0  0  0  0
   23.8484  -22.1562  -11.9265 C   0  0  0  0  0  0  0  0  0  0  0  0
   23.4875  -20.9211  -11.1333 C   0  0  2  0  0  0  0  0  0  0  0  0
   24.4840  -20.5845  -10.1540 N   0  0  0  0  0  0  0  0  0  0  0  0
   22.1806  -21.0578  -10.4639 C   0  0  0  0  0  0  0  0  0  0  0  0
   20.9740  -21.0044  -11.1907 O   0  0  0  0  0  0  0  0  0  0  0  0
   22.0386  -21.2283   -9.2292 O   0  0  0  0  0  0  0  0  0  0  0  0
  1  2  1  0
  2  3  1  0
  3  4  1  1
  5  6  1  6
  5  3  1  0
  7  5  1  0
  8  7  2  0
  9  7  1  0
 10  9  1  0
 10 11  1  1
 12 11  1  0
 12 13  2  0
 14 13  1  0
 15 14  1  0
 16 15  2  0
 17 16  1  0
 18 17  2  0
 18 19  1  0
 19 20  2  0
 20 15  1  0
 20 12  1  0
 21 10  1  0
 21 28  1  0
 22 21  2  0
 23 24  1  0
 24 25  1  0
 25 26  1  0
 27 26  1  1
 27 28  1  0
 27 29  1  0
 29 31  2  0
 29 30  1  0
M  END
$$$$
