IWM.pdb
     RDKit          3D

 31 32  0  0  1  0  0  0  0  0999 V2000
   29.4227  -16.9293  -16.5935 C   0  0  0  0  0  0  0  0  0  0  0  0
   28.2174  -17.8532  -16.8266 C   0  0  0  0  0  0  0  0  0  0  0  0
   27.5449  -18.0656  -15.5111 C   0  0  2  0  0  0  0  0  0  0  0  0
   28.5434  -18.4504  -14.4696 C   0  0  0  0  0  0  0  0  0  0  0  0
   26.3881  -19.0371  -15.6478 C   0  0  2  0  0  0  0  0  0  0  0  0
   25.4590  -18.5853  -16.6732 N   0  0  0  0  0  0  0  0  0  0  0  0
   25.7023  -19.3152  -14.3737 C   0  0  0  0  0  0  0  0  0  0  0  0
   24.9308  -18.4723  -13.8690 O   0  0  0  0  0  0  0  0  0  0  0  0
   25.8663  -20.5305  -13.6498 N   0  0  0  0  0  0  0  0  0  0  0  0
   25.0492  -20.8270  -12.4541 C   0  0  1  0  0  0  0  0  0  0  0  0
   24.1958  -21.9887  -12.8254 C   0  0  0  0  0  0  0  0  0  0  0  0
   23.1000  -21.6741  -13.7652 C   0  0  0  0  0  0  0  0  0  0  0  0
   22.9266  -22.0403  -15.0844 C   0  0  0  0  0  0  0  0  0  0  0  0
   21.7873  -21.5172  -15.5755 N   0  0  0  0  0  0  0  0  0  0  0  0
   21.1800  -20.7974  -14.6069 C   0  0  0  0  0  0  0  0  0  0  0  0
   20.0008  -20.0829  -14.6314 C   0  0  0  0  0  0  0  0  0  0  0  0
   19.6136  -19.4330  -13.4797 C   0  0  0  0  0  0  0  0  0  0  0  0
   20.4196  -19.5180  -12.3370 C   0  0  0  0  0  0  0  0  0  0  0  0
   21.5909  -20.2384  -12.3424 C   0  0  0  0  0  0  0  0  0  0  0  0
   21.9761  -20.8850  -13.4880 C   0  0  0  0  0  0  0  0  0  0  0  0
   25.9447  -20.9896  -11.3193 C   0  0  0  0  0  0  0  0  0  0  0  0
   26.8715  -21.8739  -11.4212 O   0  0  0  0  0  0  0  0  0  0  0  0
   28.3240  -17.4662   -6.0658 C   0  0  0  0  0  0  0  0  0  0  0  0
   29.1295  -19.0736   -6.2051 S   0  0  0  0  0  0  0  0  0  0  0  0
   28.0352  -20.2886   -7.0040 C   0  0  0  0  0  0  0  0  0  0  0  0
   27.4684  -19.7525   -8.2920 C   0  0  0  0  0  0  0  0  0  0  0  0
   26.5594  -20.7760   -8.9332 C   0  0  2  0  0  0  0  0  0  0  0  0
   25.9059  -20.2721  -10.1098 N   0  0  0  0  0  0  0  0  0  0  0  0
   25.5399  -21.2750   -7.9917 C   0  0  0  0  0  0  0  0  0  0  0  0
   24.1646  -21.2019   -8.2919 O   0  0  0  0  0  0  0  0  0  0  0  0
   25.8041  -21.7908   -6.8792 O   0  0  0  0  0  0  0  0  0  0  0  0
  1  2  1  0
  2  3  1  0
  3  4  1  1
  5  6  1  6
  5  3  1  0
  7  5  1  0
  8  7  2  0
  9  7  1  0
 10  9  1  0
 10 11  1  6
 12 11  1  0
 12 13  2  0
 14 13  1  0
 15 14  1  0
 16 15  2  0
 17 16  1  0
 18 17  2  0
 18 19  1  0
 19 20  2  0
 20 15  1  0
 20 12  1  0
 21 10  1  0
 21 28  1  0
 22 21  2  0
 23 24  1  0
 24 25  1  0
 25 26  1  0
 27 26  1  1
 27 28  1  0
 27 29  1  0
 29 31  2  0
 29 30  1  0
M  END
$$$$
