IWM.pdb
     RDKit          3D

 31 32  0  0  1  0  0  0  0  0999 V2000
   24.5735  -20.8182  -16.0960 C   0  0  0  0  0  0  0  0  0  0  0  0
   25.7309  -20.6884  -15.0941 C   0  0  0  0  0  0  0  0  0  0  0  0
   25.2196  -21.0945  -13.7519 C   0  0  2  0  0  0  0  0  0  0  0  0
   23.9361  -20.3946  -13.4478 C   0  0  0  0  0  0  0  0  0  0  0  0
   26.2885  -20.9149  -12.6909 C   0  0  2  0  0  0  0  0  0  0  0  0
   27.4949  -21.6455  -13.0512 N   0  0  0  0  0  0  0  0  0  0  0  0
   25.8295  -21.2546  -11.3327 C   0  0  0  0  0  0  0  0  0  0  0  0
   25.7454  -22.4466  -10.9688 O   0  0  0  0  0  0  0  0  0  0  0  0
   25.4608  -20.2749  -10.3672 N   0  0  0  0  0  0  0  0  0  0  0  0
   25.1284  -20.6546   -8.9777 C   0  0  1  0  0  0  0  0  0  0  0  0
   25.7829  -19.6355   -8.1125 C   0  0  0  0  0  0  0  0  0  0  0  0
   27.1454  -19.9897   -7.6641 C   0  0  0  0  0  0  0  0  0  0  0  0
   28.2130  -20.4962   -8.3768 C   0  0  0  0  0  0  0  0  0  0  0  0
   29.2717  -20.6931   -7.5686 N   0  0  0  0  0  0  0  0  0  0  0  0
   28.9397  -20.3269   -6.3113 C   0  0  0  0  0  0  0  0  0  0  0  0
   29.6831  -20.3452   -5.1499 C   0  0  0  0  0  0  0  0  0  0  0  0
   29.0824  -19.9070   -3.9898 C   0  0  0  0  0  0  0  0  0  0  0  0
   27.7540  -19.4632   -4.0275 C   0  0  0  0  0  0  0  0  0  0  0  0
   27.0374  -19.4564   -5.2010 C   0  0  0  0  0  0  0  0  0  0  0  0
   27.6348  -19.8923   -6.3551 C   0  0  0  0  0  0  0  0  0  0  0  0
   23.6838  -20.7914   -8.8760 C   0  0  0  0  0  0  0  0  0  0  0  0
   22.9667  -20.0836   -9.6735 O   0  0  0  0  0  0  0  0  0  0  0  0
   19.2458  -24.3411   -4.8038 C   0  0  0  0  0  0  0  0  0  0  0  0
   19.0361  -24.7065   -6.5571 S   0  0  0  0  0  0  0  0  0  0  0  0
   19.6477  -23.3385   -7.5899 C   0  0  0  0  0  0  0  0  0  0  0  0
   21.1023  -23.0566   -7.3212 C   0  0  0  0  0  0  0  0  0  0  0  0
   21.5973  -21.9451   -8.2182 C   0  0  2  0  0  0  0  0  0  0  0  0
   22.9800  -21.6271   -7.9896 N   0  0  0  0  0  0  0  0  0  0  0  0
   20.7904  -20.7192   -8.0739 C   0  0  0  0  0  0  0  0  0  0  0  0
   21.3124  -19.5650   -7.4555 O   0  0  0  0  0  0  0  0  0  0  0  0
   19.6083  -20.6051   -8.4778 O   0  0  0  0  0  0  0  0  0  0  0  0
  1  2  1  0
  2  3  1  0
  3  4  1  1
  5  6  1  6
  5  3  1  0
  7  5  1  0
  8  7  2  0
  9  7  1  0
 10  9  1  0
 10 11  1  1
 12 11  1  0
 12 13  2  0
 14 13  1  0
 15 14  1  0
 16 15  2  0
 17 16  1  0
 18 17  2  0
 18 19  1  0
 19 20  2  0
 20 15  1  0
 20 12  1  0
 21 10  1  0
 21 28  1  0
 22 21  2  0
 23 24  1  0
 24 25  1  0
 25 26  1  0
 27 26  1  1
 27 28  1  0
 27 29  1  0
 29 31  2  0
 29 30  1  0
M  END
$$$$
