IWM.pdb
     RDKit          3D

 31 32  0  0  1  0  0  0  0  0999 V2000
   27.6627  -20.4144  -19.2797 C   0  0  0  0  0  0  0  0  0  0  0  0
   28.3510  -21.2132  -18.1623 C   0  0  0  0  0  0  0  0  0  0  0  0
   27.4476  -21.2060  -16.9741 C   0  0  2  0  0  0  0  0  0  0  0  0
   27.0508  -19.8088  -16.6276 C   0  0  0  0  0  0  0  0  0  0  0  0
   28.0647  -21.9772  -15.8231 C   0  0  2  0  0  0  0  0  0  0  0  0
   28.3685  -23.3424  -16.2266 N   0  0  0  0  0  0  0  0  0  0  0  0
   27.2569  -21.9387  -14.5915 C   0  0  0  0  0  0  0  0  0  0  0  0
   26.1334  -22.4831  -14.5500 O   0  0  0  0  0  0  0  0  0  0  0  0
   27.6891  -21.2967  -13.3962 N   0  0  0  0  0  0  0  0  0  0  0  0
   26.8657  -21.3265  -12.1688 C   0  0  1  0  0  0  0  0  0  0  0  0
   27.7220  -20.7556  -11.0934 C   0  0  0  0  0  0  0  0  0  0  0  0
   27.0247  -20.5107   -9.8140 C   0  0  0  0  0  0  0  0  0  0  0  0
   25.6831  -20.3179   -9.5547 C   0  0  0  0  0  0  0  0  0  0  0  0
   25.4799  -20.1081   -8.2403 N   0  0  0  0  0  0  0  0  0  0  0  0
   26.6676  -20.1552   -7.5983 C   0  0  0  0  0  0  0  0  0  0  0  0
   26.9669  -20.0009   -6.2610 C   0  0  0  0  0  0  0  0  0  0  0  0
   28.2866  -20.1002   -5.8773 C   0  0  0  0  0  0  0  0  0  0  0  0
   29.2679  -20.3513   -6.8450 C   0  0  0  0  0  0  0  0  0  0  0  0
   28.9394  -20.5008   -8.1718 C   0  0  0  0  0  0  0  0  0  0  0  0
   27.6267  -20.4021   -8.5537 C   0  0  0  0  0  0  0  0  0  0  0  0
   25.6060  -20.6553  -12.4491 C   0  0  0  0  0  0  0  0  0  0  0  0
   25.6506  -19.5967  -13.1763 O   0  0  0  0  0  0  0  0  0  0  0  0
   23.2483  -19.7900  -17.1202 C   0  0  0  0  0  0  0  0  0  0  0  0
   21.6394  -20.0239  -16.3401 S   0  0  0  0  0  0  0  0  0  0  0  0
   21.7683  -19.9227  -14.5276 C   0  0  0  0  0  0  0  0  0  0  0  0
   23.0770  -20.4845  -14.0388 C   0  0  0  0  0  0  0  0  0  0  0  0
   23.1448  -20.4241  -12.5299 C   0  0  2  0  0  0  0  0  0  0  0  0
   24.3293  -21.0470  -12.0062 N   0  0  0  0  0  0  0  0  0  0  0  0
   21.9599  -21.0353  -11.8996 C   0  0  0  0  0  0  0  0  0  0  0  0
   22.0024  -22.3391  -11.3656 O   0  0  0  0  0  0  0  0  0  0  0  0
   20.8493  -20.4626  -11.7894 O   0  0  0  0  0  0  0  0  0  0  0  0
  1  2  1  0
  2  3  1  0
  3  4  1  1
  5  6  1  6
  5  3  1  0
  7  5  1  0
  8  7  2  0
  9  7  1  0
 10  9  1  0
 10 11  1  1
 12 11  1  0
 12 13  2  0
 14 13  1  0
 15 14  1  0
 16 15  2  0
 17 16  1  0
 18 17  2  0
 18 19  1  0
 19 20  2  0
 20 15  1  0
 20 12  1  0
 21 10  1  0
 21 28  1  0
 22 21  2  0
 23 24  1  0
 24 25  1  0
 25 26  1  0
 27 26  1  6
 27 28  1  0
 27 29  1  0
 29 31  2  0
 29 30  1  0
M  END
$$$$
