IWM.pdb
     RDKit          3D

 31 32  0  0  1  0  0  0  0  0999 V2000
   24.0373  -20.7580  -16.3514 C   0  0  0  0  0  0  0  0  0  0  0  0
   25.2810  -20.5446  -15.4749 C   0  0  0  0  0  0  0  0  0  0  0  0
   24.9448  -20.9897  -14.0905 C   0  0  2  0  0  0  0  0  0  0  0  0
   23.6644  -20.3687  -13.6382 C   0  0  0  0  0  0  0  0  0  0  0  0
   26.1118  -20.7553  -13.1506 C   0  0  2  0  0  0  0  0  0  0  0  0
   27.3190  -21.3834  -13.6673 N   0  0  0  0  0  0  0  0  0  0  0  0
   25.8366  -21.1615  -11.7613 C   0  0  0  0  0  0  0  0  0  0  0  0
   25.9687  -22.3525  -11.4084 O   0  0  0  0  0  0  0  0  0  0  0  0
   25.4134  -20.2500  -10.7525 N   0  0  0  0  0  0  0  0  0  0  0  0
   25.2471  -20.6827   -9.3488 C   0  0  1  0  0  0  0  0  0  0  0  0
   25.9447  -19.6583   -8.5245 C   0  0  0  0  0  0  0  0  0  0  0  0
   26.0497  -19.9888   -7.0882 C   0  0  0  0  0  0  0  0  0  0  0  0
   25.0846  -20.4216   -6.2020 C   0  0  0  0  0  0  0  0  0  0  0  0
   25.6096  -20.5874   -4.9733 N   0  0  0  0  0  0  0  0  0  0  0  0
   26.9229  -20.2727   -5.0097 C   0  0  0  0  0  0  0  0  0  0  0  0
   27.8726  -20.2861   -4.0099 C   0  0  0  0  0  0  0  0  0  0  0  0
   29.1584  -19.9108   -4.3334 C   0  0  0  0  0  0  0  0  0  0  0  0
   29.4549  -19.5329   -5.6495 C   0  0  0  0  0  0  0  0  0  0  0  0
   28.4866  -19.5294   -6.6257 C   0  0  0  0  0  0  0  0  0  0  0  0
   27.2075  -19.9028   -6.3041 C   0  0  0  0  0  0  0  0  0  0  0  0
   23.8287  -20.8894   -9.1007 C   0  0  0  0  0  0  0  0  0  0  0  0
   23.0011  -20.3363   -9.9134 O   0  0  0  0  0  0  0  0  0  0  0  0
   17.8485  -25.0198   -5.9556 C   0  0  0  0  0  0  0  0  0  0  0  0
   19.5646  -24.4993   -5.7661 S   0  0  0  0  0  0  0  0  0  0  0  0
   20.0268  -23.2863   -7.0417 C   0  0  0  0  0  0  0  0  0  0  0  0
   21.4863  -22.9266   -6.9529 C   0  0  0  0  0  0  0  0  0  0  0  0
   21.8621  -21.9745   -8.0653 C   0  0  2  0  0  0  0  0  0  0  0  0
   23.2599  -21.6408   -8.0561 N   0  0  0  0  0  0  0  0  0  0  0  0
   21.0695  -20.7318   -8.0190 C   0  0  0  0  0  0  0  0  0  0  0  0
   19.7334  -20.6958   -8.4668 O   0  0  0  0  0  0  0  0  0  0  0  0
   21.5053  -19.6366   -7.5899 O   0  0  0  0  0  0  0  0  0  0  0  0
  1  2  1  0
  2  3  1  0
  3  4  1  1
  5  6  1  6
  5  3  1  0
  7  5  1  0
  8  7  2  0
  9  7  1  0
 10  9  1  0
 10 11  1  1
 12 11  1  0
 12 13  2  0
 14 13  1  0
 15 14  1  0
 16 15  2  0
 17 16  1  0
 18 17  2  0
 18 19  1  0
 19 20  2  0
 20 15  1  0
 20 12  1  0
 21 10  1  0
 21 28  1  0
 22 21  2  0
 23 24  1  0
 24 25  1  0
 25 26  1  0
 27 26  1  1
 27 28  1  0
 27 29  1  0
 29 31  2  0
 29 30  1  0
M  END
$$$$
