CMM.pdb
     RDKit          3D

 23 22  0  0  1  0  0  0  0  0999 V2000
    5.9147  -19.7632   22.6432 N   0  0  0  0  0  0  0  0  0  0  0  0
    6.2754  -18.9938   23.8057 C   0  0  1  0  0  0  0  0  0  0  0  0
    7.0373  -19.8659   24.8029 C   0  0  0  0  0  0  0  0  0  0  0  0
    7.3350  -18.9678   26.3379 S   0  0  0  0  0  0  0  0  0  0  0  0
    7.0760  -17.8226   23.3984 C   0  0  0  0  0  0  0  0  0  0  0  0
    7.9106  -17.9040   22.4547 O   0  0  0  0  0  0  0  0  0  0  0  0
    6.9179  -11.2122   25.8514 C   0  0  0  0  0  0  0  0  0  0  0  0
    5.9522  -12.6886   26.3331 S   0  0  0  0  0  0  0  0  0  0  0  0
    6.8860  -14.1413   25.7551 C   0  0  0  0  0  0  0  0  0  0  0  0
    6.9181  -14.1894   24.2401 C   0  0  0  0  0  0  0  0  0  0  0  0
    7.6502  -15.4013   23.7598 C   0  0  2  0  0  0  0  0  0  0  0  0
    6.8994  -16.5924   24.0814 N   0  0  0  0  0  0  0  0  0  0  0  0
    9.0168  -15.4337   24.3528 C   0  0  0  0  0  0  0  0  0  0  0  0
    9.7117  -14.3871   24.3838 O   0  0  0  0  0  0  0  0  0  0  0  0
    9.6976  -13.3742   29.0398 C   0  0  0  0  0  0  0  0  0  0  0  0
   10.4240  -14.9262   29.6524 S   0  0  0  0  0  0  0  0  0  0  0  0
   11.1180  -15.8489   28.2351 C   0  0  0  0  0  0  0  0  0  0  0  0
   10.0924  -15.8509   27.1443 C   0  0  0  0  0  0  0  0  0  0  0  0
   10.6174  -16.5413   25.9214 C   0  0  2  0  0  0  0  0  0  0  0  0
    9.5659  -16.6120   24.8876 N   0  0  0  0  0  0  0  0  0  0  0  0
   11.0959  -17.9119   26.1535 C   0  0  0  0  0  0  0  0  0  0  0  0
   10.4639  -18.9000   25.7266 O   0  0  0  0  0  0  0  0  0  0  0  0
   12.2649  -18.1296   26.8553 O   0  0  0  0  0  0  0  0  0  0  0  0
  2  1  1  6
  3  2  1  0
  4  3  1  0
  5  2  1  0
  6  5  2  0
  8  7  1  0
  8  9  1  0
  9 10  1  0
 11 10  1  1
 11 13  1  0
 11 12  1  0
 12  5  1  0
 13 20  1  0
 14 13  2  0
 16 15  1  0
 17 16  1  0
 18 17  1  0
 19 21  1  0
 19 18  1  1
 20 19  1  0
 21 23  1  0
 22 21  2  0
M  END
$$$$
