CMM.pdb
     RDKit          3D

 23 22  0  0  1  0  0  0  0  0999 V2000
    7.7955  -17.5547   20.9252 N   0  0  0  0  0  0  0  0  0  0  0  0
    8.8834  -16.6425   20.6845 C   0  0  1  0  0  0  0  0  0  0  0  0
    8.5004  -15.6351   19.6010 C   0  0  0  0  0  0  0  0  0  0  0  0
    7.0324  -14.7063   20.0845 S   0  0  0  0  0  0  0  0  0  0  0  0
    9.2499  -15.9622   21.9421 C   0  0  0  0  0  0  0  0  0  0  0  0
   10.4338  -15.5764   22.1496 O   0  0  0  0  0  0  0  0  0  0  0  0
    6.7334  -11.4160   27.7200 C   0  0  0  0  0  0  0  0  0  0  0  0
    6.1792  -12.4854   26.3438 S   0  0  0  0  0  0  0  0  0  0  0  0
    7.5915  -13.5448   25.8973 C   0  0  0  0  0  0  0  0  0  0  0  0
    7.3393  -14.2453   24.5766 C   0  0  0  0  0  0  0  0  0  0  0  0
    8.5186  -15.0733   24.1778 C   0  0  2  0  0  0  0  0  0  0  0  0
    8.2523  -15.7425   22.9259 N   0  0  0  0  0  0  0  0  0  0  0  0
    8.8458  -16.0415   25.2623 C   0  0  0  0  0  0  0  0  0  0  0  0
    8.1630  -17.0880   25.3953 O   0  0  0  0  0  0  0  0  0  0  0  0
   13.5964  -19.3616   24.6229 C   0  0  0  0  0  0  0  0  0  0  0  0
   13.9204  -19.0056   26.3778 S   0  0  0  0  0  0  0  0  0  0  0  0
   12.3531  -18.5041   27.1739 C   0  0  0  0  0  0  0  0  0  0  0  0
   11.7543  -17.4046   26.3527 C   0  0  0  0  0  0  0  0  0  0  0  0
   10.4582  -16.9416   26.9471 C   0  0  2  0  0  0  0  0  0  0  0  0
    9.9080  -15.8228   26.1565 N   0  0  0  0  0  0  0  0  0  0  0  0
   10.5557  -16.4858   28.3415 C   0  0  0  0  0  0  0  0  0  0  0  0
   10.5439  -15.2711   28.6286 O   0  0  0  0  0  0  0  0  0  0  0  0
   10.6630  -17.4048   29.3664 O   0  0  0  0  0  0  0  0  0  0  0  0
  2  1  1  1
  3  2  1  0
  4  3  1  0
  5  2  1  0
  6  5  2  0
  8  7  1  0
  8  9  1  0
  9 10  1  0
 11 10  1  1
 11 13  1  0
 11 12  1  0
 12  5  1  0
 13 20  1  0
 14 13  2  0
 16 15  1  0
 17 16  1  0
 18 17  1  0
 19 21  1  0
 19 18  1  6
 20 19  1  0
 21 23  1  0
 22 21  2  0
M  END
$$$$
