CMM.pdb
     RDKit          3D

 23 22  0  0  1  0  0  0  0  0999 V2000
    8.8857  -16.9669   18.7189 N   0  0  0  0  0  0  0  0  0  0  0  0
    8.2079  -17.1670   19.9736 C   0  0  1  0  0  0  0  0  0  0  0  0
    8.2197  -18.6476   20.3519 C   0  0  0  0  0  0  0  0  0  0  0  0
    6.8475  -19.0344   21.4561 S   0  0  0  0  0  0  0  0  0  0  0  0
    8.8439  -16.3424   21.0197 C   0  0  0  0  0  0  0  0  0  0  0  0
   10.1005  -16.2494   21.0975 O   0  0  0  0  0  0  0  0  0  0  0  0
    5.5913  -12.1582   25.8844 C   0  0  0  0  0  0  0  0  0  0  0  0
    7.1793  -13.0193   26.1699 S   0  0  0  0  0  0  0  0  0  0  0  0
    8.0842  -12.9944   24.5897 C   0  0  0  0  0  0  0  0  0  0  0  0
    7.4946  -13.9985   23.6188 C   0  0  0  0  0  0  0  0  0  0  0  0
    8.5617  -14.8701   23.0384 C   0  0  2  0  0  0  0  0  0  0  0  0
    8.0252  -15.6482   21.9464 N   0  0  0  0  0  0  0  0  0  0  0  0
    9.1390  -15.7383   24.1030 C   0  0  0  0  0  0  0  0  0  0  0  0
    8.4712  -16.7009   24.5576 O   0  0  0  0  0  0  0  0  0  0  0  0
   10.5922  -13.8493   30.2143 C   0  0  0  0  0  0  0  0  0  0  0  0
   10.0612  -14.1956   28.5086 S   0  0  0  0  0  0  0  0  0  0  0  0
   10.1120  -16.0021   28.2334 C   0  0  0  0  0  0  0  0  0  0  0  0
    9.6777  -16.2626   26.8243 C   0  0  0  0  0  0  0  0  0  0  0  0
   10.8407  -16.1686   25.8829 C   0  0  2  0  0  0  0  0  0  0  0  0
   10.4247  -15.5159   24.6258 N   0  0  0  0  0  0  0  0  0  0  0  0
   11.4422  -17.4619   25.5265 C   0  0  0  0  0  0  0  0  0  0  0  0
   11.2876  -17.9576   24.3914 O   0  0  0  0  0  0  0  0  0  0  0  0
   12.1957  -18.1559   26.4522 O   0  0  0  0  0  0  0  0  0  0  0  0
  2  1  1  6
  3  2  1  0
  4  3  1  0
  5  2  1  0
  6  5  2  0
  8  7  1  0
  8  9  1  0
  9 10  1  0
 11 10  1  1
 11 13  1  0
 11 12  1  0
 12  5  1  0
 13 20  1  0
 14 13  2  0
 16 15  1  0
 17 16  1  0
 18 17  1  0
 19 21  1  0
 19 18  1  1
 20 19  1  0
 21 23  1  0
 22 21  2  0
M  END
$$$$
