CMM.pdb
     RDKit          3D

 23 22  0  0  1  0  0  0  0  0999 V2000
    7.1117  -20.9139   25.2316 N   0  0  0  0  0  0  0  0  0  0  0  0
    6.9065  -19.5095   25.4745 C   0  0  1  0  0  0  0  0  0  0  0  0
    7.3414  -19.1482   26.8943 C   0  0  0  0  0  0  0  0  0  0  0  0
    6.4036  -20.0953   28.1088 S   0  0  0  0  0  0  0  0  0  0  0  0
    7.6449  -18.7179   24.4711 C   0  0  0  0  0  0  0  0  0  0  0  0
    8.6856  -19.1754   23.9221 O   0  0  0  0  0  0  0  0  0  0  0  0
    7.1535  -11.8503   21.2408 C   0  0  0  0  0  0  0  0  0  0  0  0
    6.3052  -13.4467   20.9636 S   0  0  0  0  0  0  0  0  0  0  0  0
    7.4513  -14.7540   21.5055 C   0  0  0  0  0  0  0  0  0  0  0  0
    6.8560  -15.5467   22.6526 C   0  0  0  0  0  0  0  0  0  0  0  0
    7.8053  -16.6024   23.1213 C   0  0  2  0  0  0  0  0  0  0  0  0
    7.1723  -17.4265   24.1243 N   0  0  0  0  0  0  0  0  0  0  0  0
    9.0522  -15.9683   23.6348 C   0  0  0  0  0  0  0  0  0  0  0  0
    9.7199  -15.2063   22.8915 O   0  0  0  0  0  0  0  0  0  0  0  0
    7.1526  -11.1159   25.1948 C   0  0  0  0  0  0  0  0  0  0  0  0
    7.1473  -12.0317   26.7673 S   0  0  0  0  0  0  0  0  0  0  0  0
    8.6548  -13.0623   26.8513 C   0  0  0  0  0  0  0  0  0  0  0  0
    8.4868  -14.1978   25.8899 C   0  0  0  0  0  0  0  0  0  0  0  0
    9.7100  -15.0644   25.8707 C   0  0  2  0  0  0  0  0  0  0  0  0
    9.5161  -16.1956   24.9420 N   0  0  0  0  0  0  0  0  0  0  0  0
   10.0775  -15.6289   27.1774 C   0  0  0  0  0  0  0  0  0  0  0  0
   10.4567  -14.8980   28.1156 O   0  0  0  0  0  0  0  0  0  0  0  0
   10.0082  -16.9915   27.3895 O   0  0  0  0  0  0  0  0  0  0  0  0
  2  1  1  6
  3  2  1  0
  4  3  1  0
  5  2  1  0
  6  5  2  0
  8  7  1  0
  8  9  1  0
  9 10  1  0
 11 10  1  1
 11 13  1  0
 11 12  1  0
 12  5  1  0
 13 20  1  0
 14 13  2  0
 16 15  1  0
 17 16  1  0
 18 17  1  0
 19 21  1  0
 19 18  1  1
 20 19  1  0
 21 23  1  0
 22 21  2  0
M  END
$$$$
