CMM.pdb
     RDKit          3D

 23 22  0  0  1  0  0  0  0  0999 V2000
    7.4707  -18.5067   20.1683 N   0  0  0  0  0  0  0  0  0  0  0  0
    6.9548  -17.9831   21.4065 C   0  0  1  0  0  0  0  0  0  0  0  0
    6.8380  -19.0978   22.4454 C   0  0  0  0  0  0  0  0  0  0  0  0
    8.4672  -19.7355   22.8821 S   0  0  0  0  0  0  0  0  0  0  0  0
    7.8261  -16.8929   21.8872 C   0  0  0  0  0  0  0  0  0  0  0  0
    8.9999  -16.7570   21.4428 O   0  0  0  0  0  0  0  0  0  0  0  0
    5.3743  -12.5581   26.0101 C   0  0  0  0  0  0  0  0  0  0  0  0
    7.1006  -11.9571   26.0669 S   0  0  0  0  0  0  0  0  0  0  0  0
    7.9976  -12.8020   24.7260 C   0  0  0  0  0  0  0  0  0  0  0  0
    7.2684  -14.0630   24.3053 C   0  0  0  0  0  0  0  0  0  0  0  0
    8.0878  -14.8560   23.3382 C   0  0  2  0  0  0  0  0  0  0  0  0
    7.3305  -15.9898   22.8619 N   0  0  0  0  0  0  0  0  0  0  0  0
    9.3636  -15.2763   23.9831 C   0  0  0  0  0  0  0  0  0  0  0  0
   10.3816  -14.5449   23.8941 O   0  0  0  0  0  0  0  0  0  0  0  0
    9.8470  -13.1560   28.5091 C   0  0  0  0  0  0  0  0  0  0  0  0
   10.5290  -14.6178   29.3512 S   0  0  0  0  0  0  0  0  0  0  0  0
   10.9778  -15.8645   28.0918 C   0  0  0  0  0  0  0  0  0  0  0  0
   10.1379  -15.6118   26.8783 C   0  0  0  0  0  0  0  0  0  0  0  0
   10.4456  -16.6079   25.8010 C   0  0  2  0  0  0  0  0  0  0  0  0
    9.4715  -16.4810   24.6991 N   0  0  0  0  0  0  0  0  0  0  0  0
   10.4258  -18.0097   26.2436 C   0  0  0  0  0  0  0  0  0  0  0  0
    9.4041  -18.7153   26.1157 O   0  0  0  0  0  0  0  0  0  0  0  0
   11.5496  -18.5737   26.8140 O   0  0  0  0  0  0  0  0  0  0  0  0
  2  1  1  6
  3  2  1  0
  4  3  1  0
  5  2  1  0
  6  5  2  0
  8  7  1  0
  8  9  1  0
  9 10  1  0
 11 10  1  1
 11 13  1  0
 11 12  1  0
 12  5  1  0
 13 20  1  0
 14 13  2  0
 16 15  1  0
 17 16  1  0
 18 17  1  0
 19 21  1  0
 19 18  1  1
 20 19  1  0
 21 23  1  0
 22 21  2  0
M  END
$$$$
