CMM.pdb
     RDKit          3D

 23 22  0  0  1  0  0  0  0  0999 V2000
    6.4223  -20.5320   22.7558 N   0  0  0  0  0  0  0  0  0  0  0  0
    6.1538  -19.6201   23.8374 C   0  0  1  0  0  0  0  0  0  0  0  0
    6.5020  -20.2690   25.1765 C   0  0  0  0  0  0  0  0  0  0  0  0
    8.2897  -20.3765   25.3871 S   0  0  0  0  0  0  0  0  0  0  0  0
    6.9132  -18.3706   23.6349 C   0  0  0  0  0  0  0  0  0  0  0  0
    7.8977  -18.3308   22.8457 O   0  0  0  0  0  0  0  0  0  0  0  0
    5.8480  -11.7895   26.5224 C   0  0  0  0  0  0  0  0  0  0  0  0
    7.3414  -12.7289   26.0405 S   0  0  0  0  0  0  0  0  0  0  0  0
    6.9920  -13.4788   24.4182 C   0  0  0  0  0  0  0  0  0  0  0  0
    6.3007  -14.8178   24.5847 C   0  0  0  0  0  0  0  0  0  0  0  0
    7.2130  -15.9403   24.2064 C   0  0  2  0  0  0  0  0  0  0  0  0
    6.5251  -17.2031   24.3403 N   0  0  0  0  0  0  0  0  0  0  0  0
    8.4460  -15.8924   25.0418 C   0  0  0  0  0  0  0  0  0  0  0  0
    8.3745  -16.1075   26.2778 O   0  0  0  0  0  0  0  0  0  0  0  0
   10.8260  -13.4067   28.4885 C   0  0  0  0  0  0  0  0  0  0  0  0
   11.4411  -15.0221   29.0574 S   0  0  0  0  0  0  0  0  0  0  0  0
   11.7877  -16.0655   27.5970 C   0  0  0  0  0  0  0  0  0  0  0  0
   10.5697  -16.0527   26.7262 C   0  0  0  0  0  0  0  0  0  0  0  0
   10.9045  -15.5617   25.3498 C   0  0  2  0  0  0  0  0  0  0  0  0
    9.7068  -15.6106   24.4881 N   0  0  0  0  0  0  0  0  0  0  0  0
   11.9631  -16.3239   24.6717 C   0  0  0  0  0  0  0  0  0  0  0  0
   11.7179  -17.0170   23.6630 O   0  0  0  0  0  0  0  0  0  0  0  0
   13.2594  -16.2845   25.1456 O   0  0  0  0  0  0  0  0  0  0  0  0
  2  1  1  6
  3  2  1  0
  4  3  1  0
  5  2  1  0
  6  5  2  0
  8  7  1  0
  8  9  1  0
  9 10  1  0
 11 10  1  1
 11 13  1  0
 11 12  1  0
 12  5  1  0
 13 20  1  0
 14 13  2  0
 16 15  1  0
 17 16  1  0
 18 17  1  0
 19 21  1  0
 19 18  1  1
 20 19  1  0
 21 23  1  0
 22 21  2  0
M  END
$$$$
