CMM.pdb
     RDKit          3D

 23 22  0  0  1  0  0  0  0  0999 V2000
   11.1398  -22.7633   31.1374 N   0  0  0  0  0  0  0  0  0  0  0  0
   11.0390  -21.3852   31.5429 C   0  0  1  0  0  0  0  0  0  0  0  0
   11.5593  -21.2132   32.9695 C   0  0  0  0  0  0  0  0  0  0  0  0
   13.3610  -21.2792   33.0033 S   0  0  0  0  0  0  0  0  0  0  0  0
   11.7832  -20.5322   30.5955 C   0  0  0  0  0  0  0  0  0  0  0  0
   12.4083  -21.0368   29.6218 O   0  0  0  0  0  0  0  0  0  0  0  0
   10.7632  -14.0019   28.3425 C   0  0  0  0  0  0  0  0  0  0  0  0
   10.3185  -14.8043   29.9246 S   0  0  0  0  0  0  0  0  0  0  0  0
   10.7523  -16.5656   29.7629 C   0  0  0  0  0  0  0  0  0  0  0  0
   12.1705  -16.8138   30.2379 C   0  0  0  0  0  0  0  0  0  0  0  0
   12.5802  -18.2283   29.9795 C   0  0  2  0  0  0  0  0  0  0  0  0
   11.7911  -19.1273   30.7888 N   0  0  0  0  0  0  0  0  0  0  0  0
   14.0386  -18.3872   30.2404 C   0  0  0  0  0  0  0  0  0  0  0  0
   14.4940  -18.1903   31.3950 O   0  0  0  0  0  0  0  0  0  0  0  0
   17.1962  -21.1621   33.6829 C   0  0  0  0  0  0  0  0  0  0  0  0
   17.7081  -21.9500   32.1245 S   0  0  0  0  0  0  0  0  0  0  0  0
   17.7629  -20.6771   30.8136 C   0  0  0  0  0  0  0  0  0  0  0  0
   16.3572  -20.2386   30.5427 C   0  0  0  0  0  0  0  0  0  0  0  0
   16.3325  -19.1088   29.5576 C   0  0  2  0  0  0  0  0  0  0  0  0
   14.9382  -18.7555   29.2251 N   0  0  0  0  0  0  0  0  0  0  0  0
   17.0269  -19.3883   28.2923 C   0  0  0  0  0  0  0  0  0  0  0  0
   16.4112  -19.4125   27.2068 O   0  0  0  0  0  0  0  0  0  0  0  0
   18.3861  -19.6311   28.2851 O   0  0  0  0  0  0  0  0  0  0  0  0
  2  1  1  6
  3  2  1  0
  4  3  1  0
  5  2  1  0
  6  5  2  0
  8  7  1  0
  8  9  1  0
  9 10  1  0
 11 10  1  1
 11 13  1  0
 11 12  1  0
 12  5  1  0
 13 20  1  0
 14 13  2  0
 16 15  1  0
 17 16  1  0
 18 17  1  0
 19 21  1  0
 19 18  1  1
 20 19  1  0
 21 23  1  0
 22 21  2  0
M  END
$$$$
