CMM.pdb
     RDKit          3D

 23 22  0  0  1  0  0  0  0  0999 V2000
    7.9976  -18.0153   19.2655 N   0  0  0  0  0  0  0  0  0  0  0  0
    7.3380  -17.6913   20.5038 C   0  0  1  0  0  0  0  0  0  0  0  0
    7.1271  -18.9543   21.3381 C   0  0  0  0  0  0  0  0  0  0  0  0
    8.7089  -19.6465   21.8577 S   0  0  0  0  0  0  0  0  0  0  0  0
    8.1305  -16.6886   21.2422 C   0  0  0  0  0  0  0  0  0  0  0  0
    9.3344  -16.4613   20.9377 O   0  0  0  0  0  0  0  0  0  0  0  0
    6.0930  -12.7379   26.7810 C   0  0  0  0  0  0  0  0  0  0  0  0
    6.8110  -11.8706   25.3399 S   0  0  0  0  0  0  0  0  0  0  0  0
    7.9966  -13.0188   24.5702 C   0  0  0  0  0  0  0  0  0  0  0  0
    7.2689  -14.1085   23.8075 C   0  0  0  0  0  0  0  0  0  0  0  0
    8.2371  -15.0112   23.1124 C   0  0  2  0  0  0  0  0  0  0  0  0
    7.5240  -15.9748   22.3070 N   0  0  0  0  0  0  0  0  0  0  0  0
    9.1183  -15.6741   24.1146 C   0  0  0  0  0  0  0  0  0  0  0  0
    8.6583  -16.5836   24.8496 O   0  0  0  0  0  0  0  0  0  0  0  0
    9.5238  -13.3426   28.8709 C   0  0  0  0  0  0  0  0  0  0  0  0
   10.2976  -14.9101   29.3762 S   0  0  0  0  0  0  0  0  0  0  0  0
   11.2169  -15.5964   27.9529 C   0  0  0  0  0  0  0  0  0  0  0  0
   10.4642  -15.2417   26.7082 C   0  0  0  0  0  0  0  0  0  0  0  0
   11.2064  -15.6991   25.4887 C   0  0  2  0  0  0  0  0  0  0  0  0
   10.4678  -15.3128   24.2702 N   0  0  0  0  0  0  0  0  0  0  0  0
   11.4330  -17.1502   25.4217 C   0  0  0  0  0  0  0  0  0  0  0  0
   11.7772  -17.7996   26.4306 O   0  0  0  0  0  0  0  0  0  0  0  0
   11.2668  -17.8246   24.2284 O   0  0  0  0  0  0  0  0  0  0  0  0
  2  1  1  6
  3  2  1  0
  4  3  1  0
  5  2  1  0
  6  5  2  0
  8  7  1  0
  8  9  1  0
  9 10  1  0
 11 10  1  1
 11 13  1  0
 11 12  1  0
 12  5  1  0
 13 20  1  0
 14 13  2  0
 16 15  1  0
 17 16  1  0
 18 17  1  0
 19 21  1  0
 19 18  1  1
 20 19  1  0
 21 23  1  0
 22 21  2  0
M  END
$$$$
