CMM.pdb
     RDKit          3D

 23 22  0  0  1  0  0  0  0  0999 V2000
    5.9148  -19.5751   22.7982 N   0  0  0  0  0  0  0  0  0  0  0  0
    6.3088  -18.7439   23.9061 C   0  0  1  0  0  0  0  0  0  0  0  0
    7.0743  -19.5679   24.9408 C   0  0  0  0  0  0  0  0  0  0  0  0
    6.0112  -20.8339   25.6607 S   0  0  0  0  0  0  0  0  0  0  0  0
    7.1208  -17.6131   23.4157 C   0  0  0  0  0  0  0  0  0  0  0  0
    7.7303  -17.6828   22.3124 O   0  0  0  0  0  0  0  0  0  0  0  0
    6.9702  -11.6801   26.2064 C   0  0  0  0  0  0  0  0  0  0  0  0
    5.6902  -12.9753   26.3758 S   0  0  0  0  0  0  0  0  0  0  0  0
    6.2989  -14.4388   25.4791 C   0  0  0  0  0  0  0  0  0  0  0  0
    7.4547  -14.0681   24.5707 C   0  0  0  0  0  0  0  0  0  0  0  0
    7.8823  -15.2395   23.7458 C   0  0  2  0  0  0  0  0  0  0  0  0
    7.2125  -16.4355   24.2005 N   0  0  0  0  0  0  0  0  0  0  0  0
    9.3645  -15.3822   23.8017 C   0  0  0  0  0  0  0  0  0  0  0  0
   10.1001  -14.4479   23.3952 O   0  0  0  0  0  0  0  0  0  0  0  0
    9.3651  -13.9412   29.1481 C   0  0  0  0  0  0  0  0  0  0  0  0
   11.0978  -14.1161   28.6203 S   0  0  0  0  0  0  0  0  0  0  0  0
   11.2835  -15.7032   27.7324 C   0  0  0  0  0  0  0  0  0  0  0  0
   10.3716  -15.6726   26.5452 C   0  0  0  0  0  0  0  0  0  0  0  0
   10.9546  -16.4532   25.4059 C   0  0  2  0  0  0  0  0  0  0  0  0
    9.9799  -16.5432   24.3008 N   0  0  0  0  0  0  0  0  0  0  0  0
   11.3551  -17.8254   25.7492 C   0  0  0  0  0  0  0  0  0  0  0  0
   10.5472  -18.7740   25.6753 O   0  0  0  0  0  0  0  0  0  0  0  0
   12.6456  -18.0891   26.1635 O   0  0  0  0  0  0  0  0  0  0  0  0
  2  1  1  6
  3  2  1  0
  4  3  1  0
  5  2  1  0
  6  5  2  0
  8  7  1  0
  8  9  1  0
  9 10  1  0
 11 10  1  1
 11 13  1  0
 11 12  1  0
 12  5  1  0
 13 20  1  0
 14 13  2  0
 16 15  1  0
 17 16  1  0
 18 17  1  0
 19 21  1  0
 19 18  1  1
 20 19  1  0
 21 23  1  0
 22 21  2  0
M  END
$$$$
