CMM.pdb
     RDKit          3D

 23 22  0  0  1  0  0  0  0  0999 V2000
    6.2387  -20.2565   25.7578 N   0  0  0  0  0  0  0  0  0  0  0  0
    6.0937  -19.8469   24.3849 C   0  0  1  0  0  0  0  0  0  0  0  0
    4.8238  -20.4482   23.7838 C   0  0  0  0  0  0  0  0  0  0  0  0
    4.9969  -22.2316   23.5814 S   0  0  0  0  0  0  0  0  0  0  0  0
    6.0777  -18.3731   24.3045 C   0  0  0  0  0  0  0  0  0  0  0  0
    5.3351  -17.7769   23.4758 O   0  0  0  0  0  0  0  0  0  0  0  0
    5.7912  -12.4275   26.9344 C   0  0  0  0  0  0  0  0  0  0  0  0
    7.4082  -13.1374   27.4099 S   0  0  0  0  0  0  0  0  0  0  0  0
    7.9888  -14.1226   25.9927 C   0  0  0  0  0  0  0  0  0  0  0  0
    7.6946  -15.5944   26.2069 C   0  0  0  0  0  0  0  0  0  0  0  0
    7.2548  -16.2419   24.9330 C   0  0  2  0  0  0  0  0  0  0  0  0
    6.9108  -17.6237   25.1737 N   0  0  0  0  0  0  0  0  0  0  0  0
    8.3250  -16.1108   23.9044 C   0  0  0  0  0  0  0  0  0  0  0  0
    9.1874  -17.0160   23.7782 O   0  0  0  0  0  0  0  0  0  0  0  0
    7.9006  -11.4032   19.5567 C   0  0  0  0  0  0  0  0  0  0  0  0
    8.4548  -12.7409   18.4544 S   0  0  0  0  0  0  0  0  0  0  0  0
    9.1488  -14.0910   19.4729 C   0  0  0  0  0  0  0  0  0  0  0  0
    8.5757  -13.9657   20.8505 C   0  0  0  0  0  0  0  0  0  0  0  0
    8.9942  -15.1218   21.7083 C   0  0  2  0  0  0  0  0  0  0  0  0
    8.4060  -14.9929   23.0562 N   0  0  0  0  0  0  0  0  0  0  0  0
   10.4480  -15.2609   21.8766 C   0  0  0  0  0  0  0  0  0  0  0  0
   11.0163  -14.8991   22.9275 O   0  0  0  0  0  0  0  0  0  0  0  0
   11.2159  -15.7997   20.8635 O   0  0  0  0  0  0  0  0  0  0  0  0
  2  1  1  1
  3  2  1  0
  4  3  1  0
  5  2  1  0
  6  5  2  0
  8  7  1  0
  8  9  1  0
  9 10  1  0
 11 10  1  1
 11 13  1  0
 11 12  1  0
 12  5  1  0
 13 20  1  0
 14 13  2  0
 16 15  1  0
 17 16  1  0
 18 17  1  0
 19 21  1  0
 19 18  1  6
 20 19  1  0
 21 23  1  0
 22 21  2  0
M  END
$$$$
