GEN.pdb
     RDKit          3D

 22 21  0  0  1  0  0  0  0  0999 V2000
   11.7755  -19.4114   16.6519 N   0  0  0  0  0  0  0  0  0  0  0  0
   10.8251  -19.5567   17.7335 C   0  0  0  0  0  0  0  0  0  0  0  0
   11.0731  -18.4906   18.7538 C   0  0  0  0  0  0  0  0  0  0  0  0
   12.1614  -17.8911   18.7655 O   0  0  0  0  0  0  0  0  0  0  0  0
   10.0869  -18.1420   19.7163 N   0  0  0  0  0  0  0  0  0  0  0  0
   10.2440  -17.0976   20.6918 C   0  0  1  0  0  0  0  0  0  0  0  0
    8.9082  -16.7953   21.2744 C   0  0  0  0  0  0  0  0  0  0  0  0
    7.8974  -16.5684   20.2020 C   0  0  0  0  0  0  0  0  0  0  0  0
    6.5274  -16.3011   20.6741 C   0  0  0  0  0  0  0  0  0  0  0  0
    6.2980  -16.2319   21.8928 O   0  0  0  0  0  0  0  0  0  0  0  0
   11.2031  -17.5100   21.7648 C   0  0  0  0  0  0  0  0  0  0  0  0
   11.2291  -18.6679   22.2502 O   0  0  0  0  0  0  0  0  0  0  0  0
    5.4490  -16.1162   19.8183 O   0  0  0  0  0  0  0  0  0  0  0  0
   16.4576  -16.0549   24.5562 N   0  0  0  0  0  0  0  0  0  0  0  0
   15.5253  -16.9786   24.0109 C   0  0  0  0  0  0  0  0  0  0  0  0
   15.6160  -18.1696   24.3992 O   0  0  0  0  0  0  0  0  0  0  0  0
   14.5218  -16.5029   23.0375 C   0  0  0  0  0  0  0  0  0  0  0  0
   13.1293  -17.0053   23.2843 C   0  0  2  0  0  0  0  0  0  0  0  0
   12.1621  -16.6087   22.3126 N   0  0  0  0  0  0  0  0  0  0  0  0
   12.7122  -16.7203   24.6526 C   0  0  0  0  0  0  0  0  0  0  0  0
   11.7856  -15.9169   24.9248 O   0  0  0  0  0  0  0  0  0  0  0  0
   13.4061  -17.3968   25.6775 O   0  0  0  0  0  0  0  0  0  0  0  0
  1  2  1  0
  2  3  1  0
  3  5  1  0
  3  4  2  0
  5  6  1  0
  6 11  1  0
  6  7  1  1
  8  7  1  0
  9  8  1  0
 10  9  2  0
 11 19  1  0
 11 12  2  0
 13  9  1  0
 14 15  1  0
 15 17  1  0
 16 15  2  0
 18 17  1  6
 18 20  1  0
 19 18  1  0
 20 22  1  0
 21 20  2  0
M  END
$$$$
