GEN.pdb
     RDKit          3D

 22 21  0  0  1  0  0  0  0  0999 V2000
    7.5268  -13.4890   16.8700 N   0  0  0  0  0  0  0  0  0  0  0  0
    8.3225  -13.0124   17.9808 C   0  0  0  0  0  0  0  0  0  0  0  0
    9.3342  -14.0534   18.3444 C   0  0  0  0  0  0  0  0  0  0  0  0
    9.2115  -15.2100   17.9073 O   0  0  0  0  0  0  0  0  0  0  0  0
   10.4417  -13.7499   19.1823 N   0  0  0  0  0  0  0  0  0  0  0  0
   11.4880  -14.6811   19.5066 C   0  0  1  0  0  0  0  0  0  0  0  0
   12.7945  -14.0571   19.1618 C   0  0  0  0  0  0  0  0  0  0  0  0
   13.8990  -15.0560   19.2358 C   0  0  0  0  0  0  0  0  0  0  0  0
   15.1856  -14.6158   18.6685 C   0  0  0  0  0  0  0  0  0  0  0  0
   16.1169  -14.2983   19.4264 O   0  0  0  0  0  0  0  0  0  0  0  0
   11.4473  -15.0444   20.9584 C   0  0  0  0  0  0  0  0  0  0  0  0
   11.3693  -14.1897   21.8750 O   0  0  0  0  0  0  0  0  0  0  0  0
   15.4278  -14.5324   17.3032 O   0  0  0  0  0  0  0  0  0  0  0  0
   14.1341  -17.7550   22.2035 N   0  0  0  0  0  0  0  0  0  0  0  0
   14.0608  -16.6584   23.1046 C   0  0  0  0  0  0  0  0  0  0  0  0
   15.1516  -16.1755   23.4979 O   0  0  0  0  0  0  0  0  0  0  0  0
   12.7374  -16.1549   23.5239 C   0  0  0  0  0  0  0  0  0  0  0  0
   11.5797  -16.7564   22.7820 C   0  0  2  0  0  0  0  0  0  0  0  0
   11.4930  -16.3980   21.4032 N   0  0  0  0  0  0  0  0  0  0  0  0
   10.3327  -16.5391   23.5067 C   0  0  0  0  0  0  0  0  0  0  0  0
    9.3349  -15.9815   22.9856 O   0  0  0  0  0  0  0  0  0  0  0  0
   10.2929  -16.9893   24.8428 O   0  0  0  0  0  0  0  0  0  0  0  0
  1  2  1  0
  2  3  1  0
  3  5  1  0
  3  4  2  0
  5  6  1  0
  6 11  1  0
  6  7  1  1
  8  7  1  0
  9  8  1  0
 10  9  2  0
 11 19  1  0
 11 12  2  0
 13  9  1  0
 14 15  1  0
 15 17  1  0
 16 15  2  0
 18 17  1  1
 18 20  1  0
 19 18  1  0
 20 22  1  0
 21 20  2  0
M  END
$$$$
