GEN.pdb
     RDKit          3D

 22 21  0  0  1  0  0  0  0  0999 V2000
    8.5336  -13.7537   17.6445 N   0  0  0  0  0  0  0  0  0  0  0  0
    9.7528  -13.2028   18.1961 C   0  0  0  0  0  0  0  0  0  0  0  0
   10.6372  -14.3212   18.6504 C   0  0  0  0  0  0  0  0  0  0  0  0
   10.1756  -15.4708   18.7463 O   0  0  0  0  0  0  0  0  0  0  0  0
   12.0032  -14.1005   18.9758 N   0  0  0  0  0  0  0  0  0  0  0  0
   12.8976  -15.1243   19.4440 C   0  0  1  0  0  0  0  0  0  0  0  0
   14.2477  -14.8637   18.8744 C   0  0  0  0  0  0  0  0  0  0  0  0
   14.2556  -15.0816   17.3993 C   0  0  0  0  0  0  0  0  0  0  0  0
   15.5839  -15.0369   16.7631 C   0  0  0  0  0  0  0  0  0  0  0  0
   16.1506  -13.9445   16.5956 O   0  0  0  0  0  0  0  0  0  0  0  0
   12.9535  -15.1402   20.9399 C   0  0  0  0  0  0  0  0  0  0  0  0
   12.8648  -14.1003   21.6383 O   0  0  0  0  0  0  0  0  0  0  0  0
   16.2592  -16.1704   16.3285 O   0  0  0  0  0  0  0  0  0  0  0  0
    9.0408  -17.4318   24.0814 N   0  0  0  0  0  0  0  0  0  0  0  0
   10.2321  -16.6578   24.1199 C   0  0  0  0  0  0  0  0  0  0  0  0
   10.6171  -16.2680   25.2501 O   0  0  0  0  0  0  0  0  0  0  0  0
   10.9396  -16.3571   22.8590 C   0  0  0  0  0  0  0  0  0  0  0  0
   12.4197  -16.6015   22.9030 C   0  0  2  0  0  0  0  0  0  0  0  0
   13.1111  -16.3481   21.6804 N   0  0  0  0  0  0  0  0  0  0  0  0
   12.7096  -17.9183   23.4591 C   0  0  0  0  0  0  0  0  0  0  0  0
   12.9625  -18.0988   24.6763 O   0  0  0  0  0  0  0  0  0  0  0  0
   12.6945  -19.0017   22.5560 O   0  0  0  0  0  0  0  0  0  0  0  0
  1  2  1  0
  2  3  1  0
  3  5  1  0
  3  4  2  0
  5  6  1  0
  6 11  1  0
  6  7  1  6
  8  7  1  0
  9  8  1  0
 10  9  2  0
 11 19  1  0
 11 12  2  0
 13  9  1  0
 14 15  1  0
 15 17  1  0
 16 15  2  0
 18 17  1  6
 18 20  1  0
 19 18  1  0
 20 22  1  0
 21 20  2  0
M  END
$$$$
