GEN.pdb
     RDKit          3D

 22 21  0  0  1  0  0  0  0  0999 V2000
    2.5992  -23.2879   21.9605 N   0  0  0  0  0  0  0  0  0  0  0  0
    3.7521  -22.4364   21.7605 C   0  0  0  0  0  0  0  0  0  0  0  0
    4.9648  -23.2891   21.5564 C   0  0  0  0  0  0  0  0  0  0  0  0
    4.8771  -24.5227   21.6770 O   0  0  0  0  0  0  0  0  0  0  0  0
    6.2239  -22.7196   21.2236 N   0  0  0  0  0  0  0  0  0  0  0  0
    7.4232  -23.4822   21.0060 C   0  0  1  0  0  0  0  0  0  0  0  0
    8.1293  -22.9184   19.8233 C   0  0  0  0  0  0  0  0  0  0  0  0
    7.3301  -23.1164   18.5803 C   0  0  0  0  0  0  0  0  0  0  0  0
    7.9180  -22.5453   17.3558 C   0  0  0  0  0  0  0  0  0  0  0  0
    8.4820  -23.2903   16.5376 O   0  0  0  0  0  0  0  0  0  0  0  0
    8.3073  -23.4416   22.2135 C   0  0  0  0  0  0  0  0  0  0  0  0
    9.4861  -23.8745   22.2124 O   0  0  0  0  0  0  0  0  0  0  0  0
    7.8786  -21.1905   17.0518 O   0  0  0  0  0  0  0  0  0  0  0  0
   11.6541  -21.8595   25.5354 N   0  0  0  0  0  0  0  0  0  0  0  0
   10.6831  -20.9391   25.0563 C   0  0  0  0  0  0  0  0  0  0  0  0
   10.6997  -19.7874   25.5573 O   0  0  0  0  0  0  0  0  0  0  0  0
    9.7258  -21.3732   24.0191 C   0  0  0  0  0  0  0  0  0  0  0  0
    8.7704  -22.4421   24.4630 C   0  0  2  0  0  0  0  0  0  0  0  0
    7.8678  -22.9022   23.4577 N   0  0  0  0  0  0  0  0  0  0  0  0
    8.0981  -22.0537   25.6978 C   0  0  0  0  0  0  0  0  0  0  0  0
    8.6376  -22.1653   26.8267 O   0  0  0  0  0  0  0  0  0  0  0  0
    6.7915  -21.5382   25.5692 O   0  0  0  0  0  0  0  0  0  0  0  0
  1  2  1  0
  2  3  1  0
  3  5  1  0
  3  4  2  0
  5  6  1  0
  6 11  1  0
  6  7  1  6
  8  7  1  0
  9  8  1  0
 10  9  2  0
 11 19  1  0
 11 12  2  0
 13  9  1  0
 14 15  1  0
 15 17  1  0
 16 15  2  0
 18 17  1  6
 18 20  1  0
 19 18  1  0
 20 22  1  0
 21 20  2  0
M  END
$$$$
