GEN.pdb
     RDKit          3D

 22 21  0  0  1  0  0  0  0  0999 V2000
    9.4264  -17.6009   17.1133 N   0  0  0  0  0  0  0  0  0  0  0  0
    9.7407  -16.3227   17.7148 C   0  0  0  0  0  0  0  0  0  0  0  0
   11.0388  -16.4307   18.4513 C   0  0  0  0  0  0  0  0  0  0  0  0
   11.3651  -17.5126   18.9679 O   0  0  0  0  0  0  0  0  0  0  0  0
   11.9160  -15.3189   18.5743 N   0  0  0  0  0  0  0  0  0  0  0  0
   13.1039  -15.3131   19.3842 C   0  0  1  0  0  0  0  0  0  0  0  0
   14.0472  -14.3064   18.8257 C   0  0  0  0  0  0  0  0  0  0  0  0
   14.7688  -14.8515   17.6401 C   0  0  0  0  0  0  0  0  0  0  0  0
   15.8377  -13.9912   17.1030 C   0  0  0  0  0  0  0  0  0  0  0  0
   16.8254  -13.7235   17.8068 O   0  0  0  0  0  0  0  0  0  0  0  0
   12.7762  -14.9910   20.8090 C   0  0  0  0  0  0  0  0  0  0  0  0
   11.6649  -14.5286   21.1671 O   0  0  0  0  0  0  0  0  0  0  0  0
   15.8086  -13.4478   15.8249 O   0  0  0  0  0  0  0  0  0  0  0  0
    9.8606  -16.7567   22.5947 N   0  0  0  0  0  0  0  0  0  0  0  0
   10.9542  -16.4252   23.4397 C   0  0  0  0  0  0  0  0  0  0  0  0
   10.6873  -15.7787   24.4830 O   0  0  0  0  0  0  0  0  0  0  0  0
   12.3168  -16.8467   23.0569 C   0  0  0  0  0  0  0  0  0  0  0  0
   13.3466  -15.7572   23.1245 C   0  0  2  0  0  0  0  0  0  0  0  0
   13.7113  -15.1906   21.8663 N   0  0  0  0  0  0  0  0  0  0  0  0
   14.4978  -16.1825   23.9128 C   0  0  0  0  0  0  0  0  0  0  0  0
   14.4629  -16.2789   25.1649 O   0  0  0  0  0  0  0  0  0  0  0  0
   15.6747  -16.4866   23.1973 O   0  0  0  0  0  0  0  0  0  0  0  0
  1  2  1  0
  2  3  1  0
  3  5  1  0
  3  4  2  0
  5  6  1  0
  6 11  1  0
  6  7  1  6
  8  7  1  0
  9  8  1  0
 10  9  2  0
 11 19  1  0
 11 12  2  0
 13  9  1  0
 14 15  1  0
 15 17  1  0
 16 15  2  0
 18 17  1  6
 18 20  1  0
 19 18  1  0
 20 22  1  0
 21 20  2  0
M  END
$$$$
