GEN.pdb
     RDKit          3D

 22 21  0  0  1  0  0  0  0  0999 V2000
    8.0607  -12.4400   19.1877 N   0  0  0  0  0  0  0  0  0  0  0  0
    8.8293  -13.5785   19.6432 C   0  0  0  0  0  0  0  0  0  0  0  0
    8.3881  -13.9501   21.0240 C   0  0  0  0  0  0  0  0  0  0  0  0
    7.8509  -13.0960   21.7492 O   0  0  0  0  0  0  0  0  0  0  0  0
    8.5674  -15.2661   21.5305 N   0  0  0  0  0  0  0  0  0  0  0  0
    8.2481  -15.6648   22.8744 C   0  0  1  0  0  0  0  0  0  0  0  0
    7.7261  -17.0582   22.8386 C   0  0  0  0  0  0  0  0  0  0  0  0
    6.5279  -17.1566   21.9567 C   0  0  0  0  0  0  0  0  0  0  0  0
    5.4801  -18.0838   22.4188 C   0  0  0  0  0  0  0  0  0  0  0  0
    5.7605  -19.2755   22.6283 O   0  0  0  0  0  0  0  0  0  0  0  0
    9.4543  -15.5790   23.7569 C   0  0  0  0  0  0  0  0  0  0  0  0
   10.4998  -16.2439   23.5522 O   0  0  0  0  0  0  0  0  0  0  0  0
    4.1645  -17.6974   22.6409 O   0  0  0  0  0  0  0  0  0  0  0  0
   10.2106  -13.6265   28.4736 N   0  0  0  0  0  0  0  0  0  0  0  0
    8.8767  -14.0811   28.2896 C   0  0  0  0  0  0  0  0  0  0  0  0
    8.0191  -13.6638   29.1069 O   0  0  0  0  0  0  0  0  0  0  0  0
    8.5739  -15.0002   27.1741 C   0  0  0  0  0  0  0  0  0  0  0  0
    9.7133  -15.2192   26.2222 C   0  0  2  0  0  0  0  0  0  0  0  0
    9.4994  -14.7276   24.8994 N   0  0  0  0  0  0  0  0  0  0  0  0
   10.1488  -16.6110   26.2492 C   0  0  0  0  0  0  0  0  0  0  0  0
   11.1631  -16.9910   26.8857 O   0  0  0  0  0  0  0  0  0  0  0  0
    9.3693  -17.5302   25.5166 O   0  0  0  0  0  0  0  0  0  0  0  0
  1  2  1  0
  2  3  1  0
  3  5  1  0
  3  4  2  0
  5  6  1  0
  6 11  1  0
  6  7  1  6
  8  7  1  0
  9  8  1  0
 10  9  2  0
 11 19  1  0
 11 12  2  0
 13  9  1  0
 14 15  1  0
 15 17  1  0
 16 15  2  0
 18 17  1  1
 18 20  1  0
 19 18  1  0
 20 22  1  0
 21 20  2  0
M  END
$$$$
