GEN.pdb
     RDKit          3D

 22 21  0  0  1  0  0  0  0  0999 V2000
    2.1875  -20.1729   21.0447 N   0  0  0  0  0  0  0  0  0  0  0  0
    2.3789  -18.8424   21.5809 C   0  0  0  0  0  0  0  0  0  0  0  0
    3.8395  -18.5172   21.5820 C   0  0  0  0  0  0  0  0  0  0  0  0
    4.6735  -19.4308   21.4648 O   0  0  0  0  0  0  0  0  0  0  0  0
    4.3009  -17.1791   21.7129 N   0  0  0  0  0  0  0  0  0  0  0  0
    5.6867  -16.8082   21.8087 C   0  0  1  0  0  0  0  0  0  0  0  0
    5.8060  -15.3569   21.5014 C   0  0  0  0  0  0  0  0  0  0  0  0
    7.2356  -14.9347   21.4663 C   0  0  0  0  0  0  0  0  0  0  0  0
    8.0190  -15.4571   20.3329 C   0  0  0  0  0  0  0  0  0  0  0  0
    7.9927  -14.8658   19.2410 O   0  0  0  0  0  0  0  0  0  0  0  0
    6.2236  -17.1009   23.1752 C   0  0  0  0  0  0  0  0  0  0  0  0
    5.6561  -16.7201   24.2287 O   0  0  0  0  0  0  0  0  0  0  0  0
    8.8059  -16.5991   20.4124 O   0  0  0  0  0  0  0  0  0  0  0  0
    9.1101  -20.6704   26.5385 N   0  0  0  0  0  0  0  0  0  0  0  0
    7.8980  -19.9293   26.4971 C   0  0  0  0  0  0  0  0  0  0  0  0
    7.3569  -19.6681   27.6000 O   0  0  0  0  0  0  0  0  0  0  0  0
    7.3487  -19.5149   25.1905 C   0  0  0  0  0  0  0  0  0  0  0  0
    7.8950  -18.2178   24.6695 C   0  0  2  0  0  0  0  0  0  0  0  0
    7.4260  -17.8402   23.3755 N   0  0  0  0  0  0  0  0  0  0  0  0
    9.3491  -18.1883   24.7794 C   0  0  0  0  0  0  0  0  0  0  0  0
   10.0981  -18.8783   24.0438 O   0  0  0  0  0  0  0  0  0  0  0  0
    9.8901  -17.3369   25.7652 O   0  0  0  0  0  0  0  0  0  0  0  0
  1  2  1  0
  2  3  1  0
  3  5  1  0
  3  4  2  0
  5  6  1  0
  6 11  1  0
  6  7  1  1
  8  7  1  0
  9  8  1  0
 10  9  2  0
 11 19  1  0
 11 12  2  0
 13  9  1  0
 14 15  1  0
 15 17  1  0
 16 15  2  0
 18 17  1  6
 18 20  1  0
 19 18  1  0
 20 22  1  0
 21 20  2  0
M  END
$$$$
