GEN.pdb
     RDKit          3D

 22 21  0  0  1  0  0  0  0  0999 V2000
    8.7813  -11.8619   18.9619 N   0  0  0  0  0  0  0  0  0  0  0  0
    8.3592  -13.2461   18.9487 C   0  0  0  0  0  0  0  0  0  0  0  0
    7.8376  -13.6149   20.3019 C   0  0  0  0  0  0  0  0  0  0  0  0
    7.8736  -12.7822   21.2233 O   0  0  0  0  0  0  0  0  0  0  0  0
    7.2959  -14.9032   20.5616 N   0  0  0  0  0  0  0  0  0  0  0  0
    6.8311  -15.3391   21.8504 C   0  0  1  0  0  0  0  0  0  0  0  0
    5.7075  -16.2935   21.6455 C   0  0  0  0  0  0  0  0  0  0  0  0
    6.2015  -17.5899   21.0990 C   0  0  0  0  0  0  0  0  0  0  0  0
    5.1750  -18.6328   20.9263 C   0  0  0  0  0  0  0  0  0  0  0  0
    5.1639  -19.6178   21.6828 O   0  0  0  0  0  0  0  0  0  0  0  0
    7.9361  -15.9883   22.6242 C   0  0  0  0  0  0  0  0  0  0  0  0
    7.7467  -16.5989   23.7050 O   0  0  0  0  0  0  0  0  0  0  0  0
    4.1933  -18.5806   19.9450 O   0  0  0  0  0  0  0  0  0  0  0  0
   12.2251  -15.1168   20.2183 N   0  0  0  0  0  0  0  0  0  0  0  0
   11.7129  -16.2911   20.8335 C   0  0  0  0  0  0  0  0  0  0  0  0
   11.2756  -17.1859   20.0682 O   0  0  0  0  0  0  0  0  0  0  0  0
   11.7195  -16.3969   22.3064 C   0  0  0  0  0  0  0  0  0  0  0  0
   10.3601  -16.5429   22.9254 C   0  0  2  0  0  0  0  0  0  0  0  0
    9.2910  -15.9585   22.1819 N   0  0  0  0  0  0  0  0  0  0  0  0
   10.3802  -16.1212   24.3216 C   0  0  0  0  0  0  0  0  0  0  0  0
    9.5633  -15.2896   24.7898 O   0  0  0  0  0  0  0  0  0  0  0  0
   11.3744  -16.6968   25.1400 O   0  0  0  0  0  0  0  0  0  0  0  0
  1  2  1  0
  2  3  1  0
  3  5  1  0
  3  4  2  0
  5  6  1  0
  6 11  1  0
  6  7  1  6
  8  7  1  0
  9  8  1  0
 10  9  2  0
 11 19  1  0
 11 12  2  0
 13  9  1  0
 14 15  1  0
 15 17  1  0
 16 15  2  0
 18 17  1  6
 18 20  1  0
 19 18  1  0
 20 22  1  0
 21 20  2  0
M  END
$$$$
