GEN.pdb
     RDKit          3D

 22 21  0  0  1  0  0  0  0  0999 V2000
    4.2782  -21.7373   21.2554 N   0  0  0  0  0  0  0  0  0  0  0  0
    4.8327  -22.7557   22.1211 C   0  0  0  0  0  0  0  0  0  0  0  0
    4.8222  -22.2609   23.5333 C   0  0  0  0  0  0  0  0  0  0  0  0
    4.5607  -21.0686   23.7658 O   0  0  0  0  0  0  0  0  0  0  0  0
    5.1042  -23.1273   24.6244 N   0  0  0  0  0  0  0  0  0  0  0  0
    5.0956  -22.7191   26.0030 C   0  0  1  0  0  0  0  0  0  0  0  0
    4.7905  -23.9096   26.8426 C   0  0  0  0  0  0  0  0  0  0  0  0
    3.3683  -24.3270   26.6797 C   0  0  0  0  0  0  0  0  0  0  0  0
    2.9659  -25.5104   27.4598 C   0  0  0  0  0  0  0  0  0  0  0  0
    1.7890  -25.9051   27.4179 O   0  0  0  0  0  0  0  0  0  0  0  0
    6.4145  -22.1271   26.3919 C   0  0  0  0  0  0  0  0  0  0  0  0
    7.5121  -22.5641   25.9663 O   0  0  0  0  0  0  0  0  0  0  0  0
    3.8442  -26.2309   28.2592 O   0  0  0  0  0  0  0  0  0  0  0  0
    7.6848  -19.2314   25.0938 N   0  0  0  0  0  0  0  0  0  0  0  0
    7.7178  -18.3514   26.2093 C   0  0  0  0  0  0  0  0  0  0  0  0
    7.6903  -17.1207   25.9598 O   0  0  0  0  0  0  0  0  0  0  0  0
    7.7826  -18.9150   27.5727 C   0  0  0  0  0  0  0  0  0  0  0  0
    7.7620  -20.4146   27.6272 C   0  0  2  0  0  0  0  0  0  0  0  0
    6.5151  -21.0155   27.2788 N   0  0  0  0  0  0  0  0  0  0  0  0
    8.2886  -20.8926   28.9006 C   0  0  0  0  0  0  0  0  0  0  0  0
    7.6017  -21.5678   29.7070 O   0  0  0  0  0  0  0  0  0  0  0  0
    9.6269  -20.5584   29.1951 O   0  0  0  0  0  0  0  0  0  0  0  0
  1  2  1  0
  2  3  1  0
  3  5  1  0
  3  4  2  0
  5  6  1  0
  6 11  1  0
  6  7  1  1
  8  7  1  0
  9  8  1  0
 10  9  2  0
 11 19  1  0
 11 12  2  0
 13  9  1  0
 14 15  1  0
 15 17  1  0
 16 15  2  0
 18 17  1  1
 18 20  1  0
 19 18  1  0
 20 22  1  0
 21 20  2  0
M  END
$$$$
