GEN.pdb
     RDKit          3D

 22 21  0  0  1  0  0  0  0  0999 V2000
   -0.8971  -21.4693   23.4268 N   0  0  0  0  0  0  0  0  0  0  0  0
   -1.3738  -21.0541   24.7286 C   0  0  0  0  0  0  0  0  0  0  0  0
   -2.8567  -21.2438   24.7937 C   0  0  0  0  0  0  0  0  0  0  0  0
   -3.6110  -20.2911   24.5346 O   0  0  0  0  0  0  0  0  0  0  0  0
   -3.4289  -22.4966   25.1454 N   0  0  0  0  0  0  0  0  0  0  0  0
   -4.8428  -22.7455   25.2229 C   0  0  1  0  0  0  0  0  0  0  0  0
   -5.1005  -24.1352   24.7566 C   0  0  0  0  0  0  0  0  0  0  0  0
   -6.5578  -24.3630   24.5380 C   0  0  0  0  0  0  0  0  0  0  0  0
   -6.9235  -25.7190   24.0922 C   0  0  0  0  0  0  0  0  0  0  0  0
   -8.0717  -26.1461   24.2962 O   0  0  0  0  0  0  0  0  0  0  0  0
   -5.3408  -22.5610   26.6226 C   0  0  0  0  0  0  0  0  0  0  0  0
   -5.8011  -21.4722   27.0464 O   0  0  0  0  0  0  0  0  0  0  0  0
   -6.0408  -26.5707   23.4403 O   0  0  0  0  0  0  0  0  0  0  0  0
   -6.4616  -21.6033   30.8415 N   0  0  0  0  0  0  0  0  0  0  0  0
   -7.4889  -21.8251   29.8847 C   0  0  0  0  0  0  0  0  0  0  0  0
   -8.5131  -21.1039   29.9770 O   0  0  0  0  0  0  0  0  0  0  0  0
   -7.3050  -22.8681   28.8556 C   0  0  0  0  0  0  0  0  0  0  0  0
   -5.9494  -23.5121   28.8584 C   0  0  2  0  0  0  0  0  0  0  0  0
   -5.3278  -23.6188   27.5781 N   0  0  0  0  0  0  0  0  0  0  0  0
   -5.9799  -24.7770   29.5841 C   0  0  0  0  0  0  0  0  0  0  0  0
   -7.0130  -25.2046   30.1568 O   0  0  0  0  0  0  0  0  0  0  0  0
   -4.7779  -25.5143   29.6173 O   0  0  0  0  0  0  0  0  0  0  0  0
  1  2  1  0
  2  3  1  0
  3  5  1  0
  3  4  2  0
  5  6  1  0
  6 11  1  0
  6  7  1  1
  8  7  1  0
  9  8  1  0
 10  9  2  0
 11 19  1  0
 11 12  2  0
 13  9  1  0
 14 15  1  0
 15 17  1  0
 16 15  2  0
 18 17  1  6
 18 20  1  0
 19 18  1  0
 20 22  1  0
 21 20  2  0
M  END
$$$$
