GEN.pdb
     RDKit          3D

 22 21  0  0  1  0  0  0  0  0999 V2000
    0.9328  -20.2806   22.1558 N   0  0  0  0  0  0  0  0  0  0  0  0
    1.6297  -19.0669   22.5240 C   0  0  0  0  0  0  0  0  0  0  0  0
    3.1002  -19.3392   22.5746 C   0  0  0  0  0  0  0  0  0  0  0  0
    3.5114  -20.4132   23.0452 O   0  0  0  0  0  0  0  0  0  0  0  0
    4.0461  -18.3940   22.0924 N   0  0  0  0  0  0  0  0  0  0  0  0
    5.4705  -18.5858   22.1298 C   0  0  1  0  0  0  0  0  0  0  0  0
    6.0804  -17.7851   21.0333 C   0  0  0  0  0  0  0  0  0  0  0  0
    7.5492  -18.0273   20.9492 C   0  0  0  0  0  0  0  0  0  0  0  0
    8.2541  -17.2669   19.9022 C   0  0  0  0  0  0  0  0  0  0  0  0
    9.4921  -17.1737   19.9361 O   0  0  0  0  0  0  0  0  0  0  0  0
    6.0297  -18.1715   23.4553 C   0  0  0  0  0  0  0  0  0  0  0  0
    5.6390  -17.1503   24.0730 O   0  0  0  0  0  0  0  0  0  0  0  0
    7.6027  -16.6322   18.8523 O   0  0  0  0  0  0  0  0  0  0  0  0
    8.3235  -20.0954   28.7534 N   0  0  0  0  0  0  0  0  0  0  0  0
    8.1016  -19.1181   27.7456 C   0  0  0  0  0  0  0  0  0  0  0  0
    8.4564  -17.9426   28.0098 O   0  0  0  0  0  0  0  0  0  0  0  0
    7.4788  -19.5243   26.4698 C   0  0  0  0  0  0  0  0  0  0  0  0
    7.6141  -18.5188   25.3639 C   0  0  2  0  0  0  0  0  0  0  0  0
    7.0521  -18.9156   24.1134 N   0  0  0  0  0  0  0  0  0  0  0  0
    8.9940  -18.0604   25.2485 C   0  0  0  0  0  0  0  0  0  0  0  0
    9.3625  -16.9199   25.6249 O   0  0  0  0  0  0  0  0  0  0  0  0
    9.9152  -18.9680   24.6854 O   0  0  0  0  0  0  0  0  0  0  0  0
  1  2  1  0
  2  3  1  0
  3  5  1  0
  3  4  2  0
  5  6  1  0
  6 11  1  0
  6  7  1  6
  8  7  1  0
  9  8  1  0
 10  9  2  0
 11 19  1  0
 11 12  2  0
 13  9  1  0
 14 15  1  0
 15 17  1  0
 16 15  2  0
 18 17  1  1
 18 20  1  0
 19 18  1  0
 20 22  1  0
 21 20  2  0
M  END
$$$$
