GEN.pdb
     RDKit          3D

 22 21  0  0  1  0  0  0  0  0999 V2000
    7.1215  -19.0082   19.6450 N   0  0  0  0  0  0  0  0  0  0  0  0
    7.3615  -17.7836   20.3779 C   0  0  0  0  0  0  0  0  0  0  0  0
    8.6434  -17.9086   21.1395 C   0  0  0  0  0  0  0  0  0  0  0  0
    8.9306  -18.9855   21.6887 O   0  0  0  0  0  0  0  0  0  0  0  0
    9.5492  -16.8186   21.2501 N   0  0  0  0  0  0  0  0  0  0  0  0
   10.7554  -16.8469   22.0319 C   0  0  1  0  0  0  0  0  0  0  0  0
   11.7057  -15.8521   21.4640 C   0  0  0  0  0  0  0  0  0  0  0  0
   12.9855  -15.8396   22.2292 C   0  0  0  0  0  0  0  0  0  0  0  0
   14.0726  -15.0490   21.6255 C   0  0  0  0  0  0  0  0  0  0  0  0
   14.6996  -14.2324   22.3201 O   0  0  0  0  0  0  0  0  0  0  0  0
   10.4675  -16.5369   23.4680 C   0  0  0  0  0  0  0  0  0  0  0  0
    9.7477  -15.5730   23.8281 O   0  0  0  0  0  0  0  0  0  0  0  0
   14.4495  -15.1642   20.2935 O   0  0  0  0  0  0  0  0  0  0  0  0
    6.8734  -18.1236   26.8403 N   0  0  0  0  0  0  0  0  0  0  0  0
    8.1447  -18.7132   26.6036 C   0  0  0  0  0  0  0  0  0  0  0  0
    8.5487  -19.5463   27.4523 O   0  0  0  0  0  0  0  0  0  0  0  0
    8.9087  -18.3248   25.4011 C   0  0  0  0  0  0  0  0  0  0  0  0
   10.2300  -17.6733   25.6875 C   0  0  2  0  0  0  0  0  0  0  0  0
   10.9943  -17.3229   24.5342 N   0  0  0  0  0  0  0  0  0  0  0  0
   10.9897  -18.4512   26.6597 C   0  0  0  0  0  0  0  0  0  0  0  0
   11.5500  -19.5373   26.3689 O   0  0  0  0  0  0  0  0  0  0  0  0
   11.0704  -17.9235   27.9653 O   0  0  0  0  0  0  0  0  0  0  0  0
  1  2  1  0
  2  3  1  0
  3  5  1  0
  3  4  2  0
  5  6  1  0
  6 11  1  0
  6  7  1  6
  8  7  1  0
  9  8  1  0
 10  9  2  0
 11 19  1  0
 11 12  2  0
 13  9  1  0
 14 15  1  0
 15 17  1  0
 16 15  2  0
 18 17  1  6
 18 20  1  0
 19 18  1  0
 20 22  1  0
 21 20  2  0
M  END
$$$$
