GEN.pdb
     RDKit          3D

 22 21  0  0  1  0  0  0  0  0999 V2000
    5.3222  -20.3892   20.5135 N   0  0  0  0  0  0  0  0  0  0  0  0
    6.3245  -19.3487   20.5964 C   0  0  0  0  0  0  0  0  0  0  0  0
    7.4306  -19.8010   21.4971 C   0  0  0  0  0  0  0  0  0  0  0  0
    7.1843  -20.5870   22.4274 O   0  0  0  0  0  0  0  0  0  0  0  0
    8.7667  -19.3522   21.3130 N   0  0  0  0  0  0  0  0  0  0  0  0
    9.8495  -19.6491   22.2112 C   0  0  1  0  0  0  0  0  0  0  0  0
   11.1294  -19.3129   21.5299 C   0  0  0  0  0  0  0  0  0  0  0  0
   12.2966  -19.8198   22.3071 C   0  0  0  0  0  0  0  0  0  0  0  0
   13.6148  -19.5737   21.6965 C   0  0  0  0  0  0  0  0  0  0  0  0
   13.9803  -20.2544   20.7240 O   0  0  0  0  0  0  0  0  0  0  0  0
    9.7137  -18.8739   23.4846 C   0  0  0  0  0  0  0  0  0  0  0  0
    9.9616  -17.6455   23.5669 O   0  0  0  0  0  0  0  0  0  0  0  0
   14.4963  -18.6018   22.1524 O   0  0  0  0  0  0  0  0  0  0  0  0
    7.3449  -17.2097   24.3088 N   0  0  0  0  0  0  0  0  0  0  0  0
    6.7651  -17.8689   25.4265 C   0  0  0  0  0  0  0  0  0  0  0  0
    5.5246  -17.7423   25.5769 O   0  0  0  0  0  0  0  0  0  0  0  0
    7.6302  -18.6498   26.3334 C   0  0  0  0  0  0  0  0  0  0  0  0
    9.0641  -18.7404   25.9001 C   0  0  2  0  0  0  0  0  0  0  0  0
    9.2881  -19.4823   24.7015 N   0  0  0  0  0  0  0  0  0  0  0  0
    9.9114  -19.1741   27.0053 C   0  0  0  0  0  0  0  0  0  0  0  0
    9.9061  -18.6064   28.1259 O   0  0  0  0  0  0  0  0  0  0  0  0
   10.7537  -20.2783   26.7588 O   0  0  0  0  0  0  0  0  0  0  0  0
  1  2  1  0
  2  3  1  0
  3  5  1  0
  3  4  2  0
  5  6  1  0
  6 11  1  0
  6  7  1  6
  8  7  1  0
  9  8  1  0
 10  9  2  0
 11 19  1  0
 11 12  2  0
 13  9  1  0
 14 15  1  0
 15 17  1  0
 16 15  2  0
 18 17  1  1
 18 20  1  0
 19 18  1  0
 20 22  1  0
 21 20  2  0
M  END
$$$$
