MTI.pdb
     RDKit          3D

 24 23  0  0  1  0  0  0  0  0999 V2000
   27.3447  -17.2413  -15.9270 C   0  0  0  0  0  0  0  0  0  0  0  0
   26.6044  -18.6632  -15.0501 S   0  0  0  0  0  0  0  0  0  0  0  0
   24.7819  -18.4740  -15.0786 C   0  0  0  0  0  0  0  0  0  0  0  0
   24.4561  -17.2052  -15.8181 C   0  0  0  0  0  0  0  0  0  0  0  0
   22.9886  -16.9880  -15.9844 C   0  0  2  0  0  0  0  0  0  0  0  0
   22.3701  -18.1200  -16.5988 N   0  0  0  0  0  0  0  0  0  0  0  0
   22.6517  -15.7047  -16.6432 C   0  0  0  0  0  0  0  0  0  0  0  0
   22.3283  -15.7043  -17.8588 O   0  0  0  0  0  0  0  0  0  0  0  0
   20.5979  -14.4717  -18.0184 C   0  0  0  0  0  0  0  0  0  0  0  0
   20.8431  -13.3880  -16.9980 C   0  0  1  0  0  0  0  0  0  0  0  0
   20.2120  -13.7653  -15.7876 O   0  0  0  0  0  0  0  0  0  0  0  0
   22.3017  -13.1935  -16.6517 C   0  0  2  0  0  0  0  0  0  0  0  0
   22.6743  -14.4572  -15.9681 N   0  0  0  0  0  0  0  0  0  0  0  0
   22.5705  -12.0625  -15.7602 C   0  0  0  0  0  0  0  0  0  0  0  0
   22.3303  -12.1958  -14.5175 O   0  0  0  0  0  0  0  0  0  0  0  0
   26.9663   -9.0705  -16.6192 C   0  0  0  0  0  0  0  0  0  0  0  0
   25.4500   -9.2598  -16.6390 C   0  0  0  0  0  0  0  0  0  0  0  0
   24.9637   -9.5957  -15.2577 C   0  0  2  0  0  0  0  0  0  0  0  0
   25.7339  -10.8266  -14.8053 C   0  0  0  0  0  0  0  0  0  0  0  0
   23.4885   -9.8042  -15.1734 C   0  0  2  0  0  0  0  0  0  0  0  0
   23.0840  -10.8179  -16.1735 N   0  0  0  0  0  0  0  0  0  0  0  0
   22.7849   -8.5599  -15.5133 C   0  0  0  0  0  0  0  0  0  0  0  0
   22.1953   -8.3881  -16.5971 O   0  0  0  0  0  0  0  0  0  0  0  0
   22.7602   -7.5161  -14.6073 O   0  0  0  0  0  0  0  0  0  0  0  0
  1  2  1  0
  2  3  1  0
  4  3  1  0
  5  7  1  0
  5  4  1  0
  5  6  1  6
  7  8  2  0
 10 12  1  0
 10  9  1  6
 11 10  1  0
 12 13  1  1
 13  7  1  0
 14 12  1  0
 15 14  2  0
 16 17  1  0
 17 18  1  0
 18 20  1  0
 18 19  1  6
 20 21  1  6
 20 22  1  0
 21 14  1  0
 22 24  1  0
 23 22  2  0
M  END
$$$$
