MTI.pdb
     RDKit          3D

 24 23  0  0  1  0  0  0  0  0999 V2000
   31.6005  -24.1325  -15.3373 C   0  0  0  0  0  0  0  0  0  0  0  0
   30.7712  -25.0301  -16.6957 S   0  0  0  0  0  0  0  0  0  0  0  0
   29.7542  -23.8347  -17.6416 C   0  0  0  0  0  0  0  0  0  0  0  0
   29.5472  -22.6166  -16.7836 C   0  0  0  0  0  0  0  0  0  0  0  0
   28.1096  -22.2402  -16.6428 C   0  0  2  0  0  0  0  0  0  0  0  0
   27.5333  -21.9365  -17.9145 N   0  0  0  0  0  0  0  0  0  0  0  0
   27.8698  -21.1923  -15.6236 C   0  0  0  0  0  0  0  0  0  0  0  0
   28.3045  -20.0291  -15.8241 O   0  0  0  0  0  0  0  0  0  0  0  0
   26.7238  -18.8086  -15.5240 C   0  0  0  0  0  0  0  0  0  0  0  0
   25.9600  -19.4073  -14.3690 C   0  0  1  0  0  0  0  0  0  0  0  0
   24.9204  -20.2135  -14.8932 O   0  0  0  0  0  0  0  0  0  0  0  0
   26.7878  -20.3267  -13.5003 C   0  0  2  0  0  0  0  0  0  0  0  0
   27.1661  -21.4323  -14.4155 N   0  0  0  0  0  0  0  0  0  0  0  0
   26.0757  -20.8765  -12.3440 C   0  0  0  0  0  0  0  0  0  0  0  0
   25.5823  -22.0464  -12.4322 O   0  0  0  0  0  0  0  0  0  0  0  0
   27.3902  -19.1802   -7.3660 C   0  0  0  0  0  0  0  0  0  0  0  0
   27.0511  -20.2319   -8.4217 C   0  0  0  0  0  0  0  0  0  0  0  0
   25.5786  -20.1948   -8.7184 C   0  0  2  0  0  0  0  0  0  0  0  0
   24.8711  -20.8111   -7.5216 C   0  0  0  0  0  0  0  0  0  0  0  0
   25.2044  -20.8749   -9.9929 C   0  0  2  0  0  0  0  0  0  0  0  0
   25.8912  -20.2047  -11.1201 N   0  0  0  0  0  0  0  0  0  0  0  0
   23.7602  -20.7416  -10.2284 C   0  0  0  0  0  0  0  0  0  0  0  0
   23.2488  -19.7355  -10.7558 O   0  0  0  0  0  0  0  0  0  0  0  0
   22.9072  -21.7641   -9.8577 O   0  0  0  0  0  0  0  0  0  0  0  0
  1  2  1  0
  2  3  1  0
  4  3  1  0
  5  7  1  0
  5  4  1  0
  5  6  1  6
  7  8  2  0
 10 12  1  0
 10  9  1  6
 11 10  1  0
 12 13  1  6
 13  7  1  0
 14 12  1  0
 15 14  2  0
 16 17  1  0
 17 18  1  0
 18 20  1  0
 18 19  1  1
 20 21  1  6
 20 22  1  0
 21 14  1  0
 22 24  1  0
 23 22  2  0
M  END
$$$$
