MTI.pdb
     RDKit          3D

 24 23  0  0  1  0  0  0  0  0999 V2000
   27.8277  -18.9186  -18.2328 C   0  0  0  0  0  0  0  0  0  0  0  0
   26.3373  -17.8755  -18.4041 S   0  0  0  0  0  0  0  0  0  0  0  0
   26.8714  -16.1589  -18.7590 C   0  0  0  0  0  0  0  0  0  0  0  0
   25.6425  -15.3344  -19.0294 C   0  0  0  0  0  0  0  0  0  0  0  0
   25.9590  -13.9576  -19.5117 C   0  0  2  0  0  0  0  0  0  0  0  0
   26.8079  -13.2742  -18.5877 N   0  0  0  0  0  0  0  0  0  0  0  0
   24.7610  -13.1763  -19.8976 C   0  0  0  0  0  0  0  0  0  0  0  0
   23.9150  -13.6913  -20.6730 O   0  0  0  0  0  0  0  0  0  0  0  0
   22.0197  -13.3262  -19.9961 C   0  0  0  0  0  0  0  0  0  0  0  0
   22.1682  -12.0268  -19.2442 C   0  0  1  0  0  0  0  0  0  0  0  0
   22.5375  -12.3244  -17.9098 O   0  0  0  0  0  0  0  0  0  0  0  0
   23.2641  -11.1333  -19.7789 C   0  0  2  0  0  0  0  0  0  0  0  0
   24.5119  -11.8591  -19.4336 N   0  0  0  0  0  0  0  0  0  0  0  0
   23.3019   -9.7943  -19.1857 C   0  0  0  0  0  0  0  0  0  0  0  0
   24.0863   -9.5841  -18.2057 O   0  0  0  0  0  0  0  0  0  0  0  0
   21.5578   -5.1853  -21.9500 C   0  0  0  0  0  0  0  0  0  0  0  0
   21.4642   -6.3009  -20.9097 C   0  0  0  0  0  0  0  0  0  0  0  0
   22.7204   -6.3316  -20.0860 C   0  0  2  0  0  0  0  0  0  0  0  0
   23.8771   -6.5370  -21.0518 C   0  0  0  0  0  0  0  0  0  0  0  0
   22.7087   -7.3646  -19.0091 C   0  0  2  0  0  0  0  0  0  0  0  0
   22.5286   -8.7006  -19.6207 N   0  0  0  0  0  0  0  0  0  0  0  0
   21.5651   -7.1437  -18.1134 C   0  0  0  0  0  0  0  0  0  0  0  0
   20.5549   -7.8727  -18.1103 O   0  0  0  0  0  0  0  0  0  0  0  0
   21.5847   -6.0862  -17.2234 O   0  0  0  0  0  0  0  0  0  0  0  0
  1  2  1  0
  2  3  1  0
  4  3  1  0
  5  7  1  0
  5  4  1  0
  5  6  1  1
  7  8  2  0
 10 12  1  0
 10  9  1  6
 11 10  1  0
 12 13  1  1
 13  7  1  0
 14 12  1  0
 15 14  2  0
 16 17  1  0
 17 18  1  0
 18 20  1  0
 18 19  1  6
 20 21  1  6
 20 22  1  0
 21 14  1  0
 22 24  1  0
 23 22  2  0
M  END
$$$$
