MTI.pdb
     RDKit          3D

 24 23  0  0  1  0  0  0  0  0999 V2000
   25.7421  -15.4027  -17.9851 C   0  0  0  0  0  0  0  0  0  0  0  0
   27.4309  -15.3450  -17.2897 S   0  0  0  0  0  0  0  0  0  0  0  0
   27.7828  -16.9571  -16.4929 C   0  0  0  0  0  0  0  0  0  0  0  0
   26.7837  -17.1587  -15.3865 C   0  0  0  0  0  0  0  0  0  0  0  0
   26.9569  -18.4592  -14.6745 C   0  0  2  0  0  0  0  0  0  0  0  0
   26.9212  -19.5538  -15.5923 N   0  0  0  0  0  0  0  0  0  0  0  0
   26.0420  -18.6289  -13.5219 C   0  0  0  0  0  0  0  0  0  0  0  0
   24.8822  -18.1454  -13.5815 O   0  0  0  0  0  0  0  0  0  0  0  0
   24.5938  -20.6093  -13.8212 C   0  0  0  0  0  0  0  0  0  0  0  0
   24.8495  -21.0844  -12.4124 C   0  0  1  0  0  0  0  0  0  0  0  0
   25.8404  -22.0952  -12.4566 O   0  0  0  0  0  0  0  0  0  0  0  0
   25.4014  -20.0148  -11.4977 C   0  0  2  0  0  0  0  0  0  0  0  0
   26.4076  -19.3170  -12.3365 N   0  0  0  0  0  0  0  0  0  0  0  0
   26.0491  -20.5241  -10.2863 C   0  0  0  0  0  0  0  0  0  0  0  0
   27.0841  -21.2543  -10.4100 O   0  0  0  0  0  0  0  0  0  0  0  0
   28.0657  -18.0134   -6.3195 C   0  0  0  0  0  0  0  0  0  0  0  0
   27.7750  -19.1090   -7.3447 C   0  0  0  0  0  0  0  0  0  0  0  0
   26.6994  -20.0187   -6.8221 C   0  0  2  0  0  0  0  0  0  0  0  0
   27.2656  -20.7114   -5.5924 C   0  0  0  0  0  0  0  0  0  0  0  0
   26.1998  -21.0000   -7.8292 C   0  0  2  0  0  0  0  0  0  0  0  0
   25.6128  -20.2654   -8.9725 N   0  0  0  0  0  0  0  0  0  0  0  0
   25.1266  -21.8165   -7.2457 C   0  0  0  0  0  0  0  0  0  0  0  0
   23.9189  -21.6137   -7.4746 O   0  0  0  0  0  0  0  0  0  0  0  0
   25.4431  -22.8639   -6.4010 O   0  0  0  0  0  0  0  0  0  0  0  0
  1  2  1  0
  2  3  1  0
  4  3  1  0
  5  7  1  0
  5  4  1  0
  5  6  1  6
  7  8  2  0
 10 12  1  0
 10  9  1  6
 11 10  1  0
 12 13  1  6
 13  7  1  0
 14 12  1  0
 15 14  2  0
 16 17  1  0
 17 18  1  0
 18 20  1  0
 18 19  1  1
 20 21  1  6
 20 22  1  0
 21 14  1  0
 22 24  1  0
 23 22  2  0
M  END
$$$$
