MTI.pdb
     RDKit          3D

 24 23  0  0  1  0  0  0  0  0999 V2000
   33.5266  -22.4602  -13.1511 C   0  0  0  0  0  0  0  0  0  0  0  0
   33.6043  -23.7118  -14.4801 S   0  0  0  0  0  0  0  0  0  0  0  0
   31.9020  -24.0175  -15.0857 C   0  0  0  0  0  0  0  0  0  0  0  0
   31.0532  -22.8341  -14.7089 C   0  0  0  0  0  0  0  0  0  0  0  0
   29.6730  -22.9034  -15.2735 C   0  0  2  0  0  0  0  0  0  0  0  0
   29.7062  -22.9557  -16.7010 N   0  0  0  0  0  0  0  0  0  0  0  0
   28.7647  -21.8596  -14.7447 C   0  0  0  0  0  0  0  0  0  0  0  0
   28.4631  -20.8803  -15.4743 O   0  0  0  0  0  0  0  0  0  0  0  0
   27.0600  -20.0231  -15.2723 C   0  0  0  0  0  0  0  0  0  0  0  0
   26.4326  -20.4457  -13.9671 C   0  0  1  0  0  0  0  0  0  0  0  0
   25.7136  -21.6458  -14.1869 O   0  0  0  0  0  0  0  0  0  0  0  0
   27.4357  -20.7664  -12.8827 C   0  0  2  0  0  0  0  0  0  0  0  0
   28.2079  -21.9045  -13.4407 N   0  0  0  0  0  0  0  0  0  0  0  0
   26.8431  -21.1635  -11.6030 C   0  0  0  0  0  0  0  0  0  0  0  0
   26.7843  -22.4023  -11.3172 O   0  0  0  0  0  0  0  0  0  0  0  0
   27.5681  -19.7838   -5.9366 C   0  0  0  0  0  0  0  0  0  0  0  0
   26.5290  -20.4134   -6.8637 C   0  0  0  0  0  0  0  0  0  0  0  0
   26.8254  -20.0351   -8.2872 C   0  0  2  0  0  0  0  0  0  0  0  0
   26.6687  -18.5255   -8.3850 C   0  0  0  0  0  0  0  0  0  0  0  0
   25.9762  -20.7454   -9.2878 C   0  0  2  0  0  0  0  0  0  0  0  0
   26.3257  -20.2698  -10.6453 N   0  0  0  0  0  0  0  0  0  0  0  0
   24.5607  -20.4180   -9.0683 C   0  0  0  0  0  0  0  0  0  0  0  0
   23.9293  -19.6206   -9.7876 O   0  0  0  0  0  0  0  0  0  0  0  0
   23.8740  -21.0074   -8.0234 O   0  0  0  0  0  0  0  0  0  0  0  0
  1  2  1  0
  2  3  1  0
  4  3  1  0
  5  7  1  0
  5  4  1  0
  5  6  1  6
  7  8  2  0
 10 12  1  0
 10  9  1  6
 11 10  1  0
 12 13  1  6
 13  7  1  0
 14 12  1  0
 15 14  2  0
 16 17  1  0
 17 18  1  0
 18 20  1  0
 18 19  1  1
 20 21  1  6
 20 22  1  0
 21 14  1  0
 22 24  1  0
 23 22  2  0
M  END
$$$$
