MTI.pdb
     RDKit          3D

 24 23  0  0  1  0  0  0  0  0999 V2000
   23.5793  -19.0634  -19.4711 C   0  0  0  0  0  0  0  0  0  0  0  0
   23.4639  -17.8850  -18.0794 S   0  0  0  0  0  0  0  0  0  0  0  0
   22.9952  -16.2448  -18.7487 C   0  0  0  0  0  0  0  0  0  0  0  0
   23.0312  -15.2522  -17.6190 C   0  0  0  0  0  0  0  0  0  0  0  0
   22.7222  -13.8590  -18.0571 C   0  0  2  0  0  0  0  0  0  0  0  0
   23.5225  -13.4866  -19.1807 N   0  0  0  0  0  0  0  0  0  0  0  0
   22.7606  -12.8702  -16.9548 C   0  0  0  0  0  0  0  0  0  0  0  0
   22.0908  -13.0859  -15.9121 O   0  0  0  0  0  0  0  0  0  0  0  0
   25.8998  -11.5140  -15.3932 C   0  0  0  0  0  0  0  0  0  0  0  0
   25.0113  -10.3492  -15.7532 C   0  0  1  0  0  0  0  0  0  0  0  0
   25.3981   -9.8721  -17.0293 O   0  0  0  0  0  0  0  0  0  0  0  0
   23.5496  -10.7127  -15.8818 C   0  0  2  0  0  0  0  0  0  0  0  0
   23.5227  -11.6751  -17.0115 N   0  0  0  0  0  0  0  0  0  0  0  0
   22.6657   -9.5843  -16.1849 C   0  0  0  0  0  0  0  0  0  0  0  0
   22.6203   -9.1500  -17.3803 O   0  0  0  0  0  0  0  0  0  0  0  0
   17.7228   -9.5848  -16.6183 C   0  0  0  0  0  0  0  0  0  0  0  0
   19.1688   -9.1194  -16.7866 C   0  0  0  0  0  0  0  0  0  0  0  0
   19.5562   -8.2425  -15.6297 C   0  0  2  0  0  0  0  0  0  0  0  0
   18.6008   -7.0592  -15.6329 C   0  0  0  0  0  0  0  0  0  0  0  0
   20.9818   -7.8025  -15.6593 C   0  0  2  0  0  0  0  0  0  0  0  0
   21.8461   -8.9305  -15.2446 N   0  0  0  0  0  0  0  0  0  0  0  0
   21.1936   -6.7191  -14.6896 C   0  0  0  0  0  0  0  0  0  0  0  0
   21.4810   -6.9243  -13.4950 O   0  0  0  0  0  0  0  0  0  0  0  0
   21.0749   -5.4028  -15.0946 O   0  0  0  0  0  0  0  0  0  0  0  0
  1  2  1  0
  2  3  1  0
  4  3  1  0
  5  7  1  0
  5  4  1  0
  5  6  1  6
  7  8  2  0
 10 12  1  0
 10  9  1  6
 11 10  1  0
 12 13  1  6
 13  7  1  0
 14 12  1  0
 15 14  2  0
 16 17  1  0
 17 18  1  0
 18 20  1  0
 18 19  1  6
 20 21  1  1
 20 22  1  0
 21 14  1  0
 22 24  1  0
 23 22  2  0
M  END
$$$$
