MTI.pdb
     RDKit          3D

 24 23  0  0  1  0  0  0  0  0999 V2000
   29.4560  -16.6846  -15.2198 C   0  0  0  0  0  0  0  0  0  0  0  0
   28.7865  -16.8432  -16.9125 S   0  0  0  0  0  0  0  0  0  0  0  0
   27.5445  -18.1905  -16.9184 C   0  0  0  0  0  0  0  0  0  0  0  0
   26.8730  -18.2121  -15.5724 C   0  0  0  0  0  0  0  0  0  0  0  0
   25.8912  -19.3273  -15.4287 C   0  0  2  0  0  0  0  0  0  0  0  0
   25.0227  -19.3935  -16.5612 N   0  0  0  0  0  0  0  0  0  0  0  0
   25.1699  -19.3170  -14.1348 C   0  0  0  0  0  0  0  0  0  0  0  0
   24.0596  -18.7314  -14.0549 O   0  0  0  0  0  0  0  0  0  0  0  0
   22.8889  -20.3987  -13.2982 C   0  0  0  0  0  0  0  0  0  0  0  0
   23.7010  -20.9524  -12.1538 C   0  0  1  0  0  0  0  0  0  0  0  0
   24.2954  -22.1664  -12.5762 O   0  0  0  0  0  0  0  0  0  0  0  0
   24.8490  -20.0634  -11.7331 C   0  0  2  0  0  0  0  0  0  0  0  0
   25.6705  -19.9407  -12.9632 N   0  0  0  0  0  0  0  0  0  0  0  0
   25.6743  -20.6056  -10.6508 C   0  0  0  0  0  0  0  0  0  0  0  0
   26.7903  -21.1416  -10.9458 O   0  0  0  0  0  0  0  0  0  0  0  0
   29.0279  -19.2033   -6.3914 C   0  0  0  0  0  0  0  0  0  0  0  0
   28.1361  -20.3922   -6.7476 C   0  0  0  0  0  0  0  0  0  0  0  0
   27.1353  -19.9799   -7.7897 C   0  0  2  0  0  0  0  0  0  0  0  0
   26.3185  -18.8443   -7.1930 C   0  0  0  0  0  0  0  0  0  0  0  0
   26.2665  -21.0964   -8.2644 C   0  0  2  0  0  0  0  0  0  0  0  0
   25.3279  -20.5798   -9.2860 N   0  0  0  0  0  0  0  0  0  0  0  0
   25.4534  -21.6079   -7.1526 C   0  0  0  0  0  0  0  0  0  0  0  0
   25.9419  -22.1961   -6.1691 O   0  0  0  0  0  0  0  0  0  0  0  0
   24.0811  -21.4424   -7.1731 O   0  0  0  0  0  0  0  0  0  0  0  0
  1  2  1  0
  2  3  1  0
  4  3  1  0
  5  7  1  0
  5  4  1  0
  5  6  1  6
  7  8  2  0
 10 12  1  0
 10  9  1  6
 11 10  1  0
 12 13  1  6
 13  7  1  0
 14 12  1  0
 15 14  2  0
 16 17  1  0
 17 18  1  0
 18 20  1  0
 18 19  1  1
 20 21  1  6
 20 22  1  0
 21 14  1  0
 22 24  1  0
 23 22  2  0
M  END
$$$$
