MTI.pdb
     RDKit          3D

 24 23  0  0  1  0  0  0  0  0999 V2000
   16.0701  -20.6584  -12.6572 C   0  0  0  0  0  0  0  0  0  0  0  0
   15.7087  -18.9064  -13.0297 S   0  0  0  0  0  0  0  0  0  0  0  0
   16.6275  -18.4364  -14.5439 C   0  0  0  0  0  0  0  0  0  0  0  0
   17.6448  -19.5086  -14.8240 C   0  0  0  0  0  0  0  0  0  0  0  0
   18.5466  -19.1727  -15.9652 C   0  0  2  0  0  0  0  0  0  0  0  0
   17.8130  -19.0841  -17.1881 N   0  0  0  0  0  0  0  0  0  0  0  0
   19.7370  -20.0496  -16.0562 C   0  0  0  0  0  0  0  0  0  0  0  0
   19.6647  -21.1171  -16.7175 O   0  0  0  0  0  0  0  0  0  0  0  0
   21.3323  -21.2112  -17.8893 C   0  0  0  0  0  0  0  0  0  0  0  0
   22.4408  -20.6234  -17.0517 C   0  0  1  0  0  0  0  0  0  0  0  0
   22.5877  -19.2591  -17.4019 O   0  0  0  0  0  0  0  0  0  0  0  0
   22.1555  -20.6329  -15.5672 C   0  0  2  0  0  0  0  0  0  0  0  0
   20.9727  -19.7469  -15.4288 N   0  0  0  0  0  0  0  0  0  0  0  0
   23.2459  -20.1198  -14.7341 C   0  0  0  0  0  0  0  0  0  0  0  0
   23.3132  -18.8665  -14.5228 O   0  0  0  0  0  0  0  0  0  0  0  0
   25.6576  -20.6517   -9.4605 C   0  0  0  0  0  0  0  0  0  0  0  0
   26.0569  -20.2408  -10.8773 C   0  0  0  0  0  0  0  0  0  0  0  0
   25.0749  -20.8058  -11.8640 C   0  0  2  0  0  0  0  0  0  0  0  0
   25.1971  -22.3200  -11.7914 C   0  0  0  0  0  0  0  0  0  0  0  0
   25.2630  -20.3017  -13.2559 C   0  0  2  0  0  0  0  0  0  0  0  0
   24.2426  -20.9148  -14.1358 N   0  0  0  0  0  0  0  0  0  0  0  0
   26.5768  -20.7158  -13.7671 C   0  0  0  0  0  0  0  0  0  0  0  0
   26.7392  -21.7196  -14.4867 O   0  0  0  0  0  0  0  0  0  0  0  0
   27.7006  -19.9758  -13.4505 O   0  0  0  0  0  0  0  0  0  0  0  0
  1  2  1  0
  2  3  1  0
  4  3  1  0
  5  7  1  0
  5  4  1  0
  5  6  1  6
  7  8  2  0
 10 12  1  0
 10  9  1  6
 11 10  1  0
 12 13  1  6
 13  7  1  0
 14 12  1  0
 15 14  2  0
 16 17  1  0
 17 18  1  0
 18 20  1  0
 18 19  1  6
 20 21  1  6
 20 22  1  0
 21 14  1  0
 22 24  1  0
 23 22  2  0
M  END
$$$$
