MTI.pdb
     RDKit          3D

 24 23  0  0  1  0  0  0  0  0999 V2000
   29.1463  -14.6528  -16.8003 C   0  0  0  0  0  0  0  0  0  0  0  0
   29.4835  -15.9136  -18.0791 S   0  0  0  0  0  0  0  0  0  0  0  0
   28.1925  -17.2093  -17.9673 C   0  0  0  0  0  0  0  0  0  0  0  0
   27.4557  -17.0230  -16.6691 C   0  0  0  0  0  0  0  0  0  0  0  0
   26.8520  -18.2877  -16.1549 C   0  0  2  0  0  0  0  0  0  0  0  0
   26.1241  -18.9621  -17.1830 N   0  0  0  0  0  0  0  0  0  0  0  0
   26.0752  -18.1073  -14.9066 C   0  0  0  0  0  0  0  0  0  0  0  0
   25.2159  -17.1907  -14.8445 O   0  0  0  0  0  0  0  0  0  0  0  0
   23.4921  -18.3712  -14.3280 C   0  0  0  0  0  0  0  0  0  0  0  0
   23.9803  -19.3100  -13.2528 C   0  0  1  0  0  0  0  0  0  0  0  0
   24.2257  -20.5737  -13.8431 O   0  0  0  0  0  0  0  0  0  0  0  0
   25.2916  -18.8930  -12.6268 C   0  0  2  0  0  0  0  0  0  0  0  0
   26.2499  -18.9239  -13.7599 N   0  0  0  0  0  0  0  0  0  0  0  0
   25.7687  -19.7810  -11.5638 C   0  0  0  0  0  0  0  0  0  0  0  0
   26.4268  -20.8209  -11.8882 O   0  0  0  0  0  0  0  0  0  0  0  0
   27.4946  -17.7873   -6.9933 C   0  0  0  0  0  0  0  0  0  0  0  0
   27.5401  -18.8150   -8.1235 C   0  0  0  0  0  0  0  0  0  0  0  0
   26.4337  -19.8154   -7.9429 C   0  0  2  0  0  0  0  0  0  0  0  0
   26.8756  -20.7693   -6.8440 C   0  0  0  0  0  0  0  0  0  0  0  0
   26.0703  -20.5429   -9.1941 C   0  0  2  0  0  0  0  0  0  0  0  0
   25.5562  -19.5729  -10.1872 N   0  0  0  0  0  0  0  0  0  0  0  0
   24.9863  -21.4972   -8.9237 C   0  0  0  0  0  0  0  0  0  0  0  0
   23.7809  -21.1860   -8.9702 O   0  0  0  0  0  0  0  0  0  0  0  0
   25.2895  -22.8066   -8.6007 O   0  0  0  0  0  0  0  0  0  0  0  0
  1  2  1  0
  2  3  1  0
  4  3  1  0
  5  7  1  0
  5  4  1  0
  5  6  1  6
  7  8  2  0
 10 12  1  0
 10  9  1  6
 11 10  1  0
 12 13  1  6
 13  7  1  0
 14 12  1  0
 15 14  2  0
 16 17  1  0
 17 18  1  0
 18 20  1  0
 18 19  1  1
 20 21  1  6
 20 22  1  0
 21 14  1  0
 22 24  1  0
 23 22  2  0
M  END
$$$$
