MTI.pdb
     RDKit          3D

 24 23  0  0  1  0  0  0  0  0999 V2000
   30.7218  -20.0082  -11.6649 C   0  0  0  0  0  0  0  0  0  0  0  0
   30.7534  -21.5105  -12.7046 S   0  0  0  0  0  0  0  0  0  0  0  0
   30.2281  -21.0513  -14.3990 C   0  0  0  0  0  0  0  0  0  0  0  0
   29.1342  -20.0249  -14.2864 C   0  0  0  0  0  0  0  0  0  0  0  0
   27.8007  -20.5455  -14.7095 C   0  0  2  0  0  0  0  0  0  0  0  0
   27.5715  -20.2974  -16.0978 N   0  0  0  0  0  0  0  0  0  0  0  0
   26.6879  -20.0966  -13.8408 C   0  0  0  0  0  0  0  0  0  0  0  0
   25.8377  -19.2904  -14.2986 O   0  0  0  0  0  0  0  0  0  0  0  0
   24.1110  -19.8134  -13.8706 C   0  0  0  0  0  0  0  0  0  0  0  0
   24.1691  -20.5299  -12.5442 C   0  0  1  0  0  0  0  0  0  0  0  0
   24.3271  -21.9150  -12.7931 O   0  0  0  0  0  0  0  0  0  0  0  0
   25.3501  -20.1342  -11.6874 C   0  0  2  0  0  0  0  0  0  0  0  0
   26.5261  -20.5325  -12.5006 N   0  0  0  0  0  0  0  0  0  0  0  0
   25.4105  -20.8051  -10.3864 C   0  0  0  0  0  0  0  0  0  0  0  0
   25.6578  -22.0532  -10.3554 O   0  0  0  0  0  0  0  0  0  0  0  0
   27.8853  -18.6509   -6.2495 C   0  0  0  0  0  0  0  0  0  0  0  0
   27.3838  -19.7267   -7.2123 C   0  0  0  0  0  0  0  0  0  0  0  0
   25.9799  -20.1180   -6.8472 C   0  0  2  0  0  0  0  0  0  0  0  0
   26.0560  -20.8414   -5.5117 C   0  0  0  0  0  0  0  0  0  0  0  0
   25.2963  -20.9436   -7.8855 C   0  0  2  0  0  0  0  0  0  0  0  0
   25.2155  -20.1696   -9.1448 N   0  0  0  0  0  0  0  0  0  0  0  0
   23.9172  -21.2333   -7.4693 C   0  0  0  0  0  0  0  0  0  0  0  0
   22.9646  -20.4627   -7.6940 O   0  0  0  0  0  0  0  0  0  0  0  0
   23.6358  -22.4075   -6.7963 O   0  0  0  0  0  0  0  0  0  0  0  0
  1  2  1  0
  2  3  1  0
  4  3  1  0
  5  7  1  0
  5  4  1  0
  5  6  1  6
  7  8  2  0
 10 12  1  0
 10  9  1  6
 11 10  1  0
 12 13  1  6
 13  7  1  0
 14 12  1  0
 15 14  2  0
 16 17  1  0
 17 18  1  0
 18 20  1  0
 18 19  1  1
 20 21  1  6
 20 22  1  0
 21 14  1  0
 22 24  1  0
 23 22  2  0
M  END
$$$$
