MTI.pdb
     RDKit          3D

 24 23  0  0  1  0  0  0  0  0999 V2000
   32.5702  -22.3191  -10.8767 C   0  0  0  0  0  0  0  0  0  0  0  0
   32.9202  -23.1576  -12.4620 S   0  0  0  0  0  0  0  0  0  0  0  0
   31.7606  -22.5115  -13.7253 C   0  0  0  0  0  0  0  0  0  0  0  0
   30.6837  -21.7359  -13.0171 C   0  0  0  0  0  0  0  0  0  0  0  0
   29.6315  -21.2214  -13.9425 C   0  0  2  0  0  0  0  0  0  0  0  0
   30.2133  -20.4864  -15.0208 N   0  0  0  0  0  0  0  0  0  0  0  0
   28.5434  -20.4902  -13.2526 C   0  0  0  0  0  0  0  0  0  0  0  0
   28.1317  -19.4035  -13.7341 O   0  0  0  0  0  0  0  0  0  0  0  0
   26.0597  -19.7241  -13.8110 C   0  0  0  0  0  0  0  0  0  0  0  0
   25.6945  -20.3429  -12.4846 C   0  0  1  0  0  0  0  0  0  0  0  0
   25.4847  -21.7293  -12.6830 O   0  0  0  0  0  0  0  0  0  0  0  0
   26.7852  -20.2425  -11.4427 C   0  0  2  0  0  0  0  0  0  0  0  0
   27.9311  -20.9554  -12.0605 N   0  0  0  0  0  0  0  0  0  0  0  0
   26.4602  -20.8683  -10.1585 C   0  0  0  0  0  0  0  0  0  0  0  0
   26.6982  -22.1095  -10.0080 O   0  0  0  0  0  0  0  0  0  0  0  0
   28.1825  -19.4919   -4.7861 C   0  0  0  0  0  0  0  0  0  0  0  0
   27.1698  -20.3928   -5.4921 C   0  0  0  0  0  0  0  0  0  0  0  0
   26.9336  -19.8915   -6.8887 C   0  0  2  0  0  0  0  0  0  0  0  0
   26.4003  -18.4727   -6.7645 C   0  0  0  0  0  0  0  0  0  0  0  0
   26.0215  -20.7571   -7.6923 C   0  0  2  0  0  0  0  0  0  0  0  0
   25.8974  -20.1958   -9.0565 N   0  0  0  0  0  0  0  0  0  0  0  0
   24.6761  -20.7540   -7.1017 C   0  0  0  0  0  0  0  0  0  0  0  0
   24.4209  -21.2599   -5.9923 O   0  0  0  0  0  0  0  0  0  0  0  0
   23.6273  -20.1697   -7.7868 O   0  0  0  0  0  0  0  0  0  0  0  0
  1  2  1  0
  2  3  1  0
  4  3  1  0
  5  7  1  0
  5  4  1  0
  5  6  1  6
  7  8  2  0
 10 12  1  0
 10  9  1  6
 11 10  1  0
 12 13  1  6
 13  7  1  0
 14 12  1  0
 15 14  2  0
 16 17  1  0
 17 18  1  0
 18 20  1  0
 18 19  1  1
 20 21  1  6
 20 22  1  0
 21 14  1  0
 22 24  1  0
 23 22  2  0
M  END
$$$$
