QCG.pdb
     RDKit          3D

 20 19  0  0  1  0  0  0  0  0999 V2000
   23.8254  -15.5595  -18.9424 N   0  0  0  0  0  0  0  0  0  0  0  0
   22.7171  -15.1831  -19.7819 C   0  0  0  0  0  0  0  0  0  0  0  0
   22.3860  -16.0090  -20.6441 O   0  0  0  0  0  0  0  0  0  0  0  0
   22.0375  -13.8932  -19.6073 C   0  0  0  0  0  0  0  0  0  0  0  0
   22.5807  -13.0438  -18.5116 C   0  0  0  0  0  0  0  0  0  0  0  0
   22.9687  -11.6451  -18.9115 C   0  0  2  0  0  0  0  0  0  0  0  0
   24.1414  -11.7925  -19.7782 N   0  0  0  0  0  0  0  0  0  0  0  0
   23.2830  -10.8300  -17.7256 C   0  0  0  0  0  0  0  0  0  0  0  0
   22.4406  -10.7135  -16.8037 O   0  0  0  0  0  0  0  0  0  0  0  0
   24.5251  -10.1443  -17.5570 N   0  0  0  0  0  0  0  0  0  0  0  0
   24.7626   -9.3614  -16.3607 C   0  0  1  0  0  0  0  0  0  0  0  0
   26.2554   -9.3802  -16.1091 C   0  0  0  0  0  0  0  0  0  0  0  0
   26.7034  -11.0716  -15.6277 S   0  0  0  0  0  0  0  0  0  0  0  0
   24.2387   -7.9816  -16.4868 C   0  0  0  0  0  0  0  0  0  0  0  0
   24.4680   -7.3813  -17.5680 O   0  0  0  0  0  0  0  0  0  0  0  0
   23.5110   -7.3048  -15.4916 N   0  0  0  0  0  0  0  0  0  0  0  0
   22.9496   -5.9943  -15.6348 C   0  0  0  0  0  0  0  0  0  0  0  0
   22.2004   -5.5470  -14.4415 C   0  0  0  0  0  0  0  0  0  0  0  0
   21.8921   -6.4179  -13.5919 O   0  0  0  0  0  0  0  0  0  0  0  0
   21.8218   -4.2488  -14.2031 O   0  0  0  0  0  0  0  0  0  0  0  0
  2  1  1  0
  3  2  2  0
  4  2  1  0
  5  4  1  0
  6  5  1  0
  6  7  1  6
  8  6  1  0
  8 10  1  0
  9  8  2  0
 11 10  1  0
 11 14  1  0
 11 12  1  6
 13 12  1  0
 14 15  2  0
 14 16  1  0
 16 17  1  0
 18 17  1  0
 18 20  1  0
 19 18  2  0
M  END
$$$$
