QCG.pdb
     RDKit          3D

 20 19  0  0  1  0  0  0  0  0999 V2000
   22.0267  -11.9260  -19.0936 N   0  0  0  0  0  0  0  0  0  0  0  0
   21.3760  -13.0821  -18.5327 C   0  0  0  0  0  0  0  0  0  0  0  0
   21.7693  -14.1805  -18.9499 O   0  0  0  0  0  0  0  0  0  0  0  0
   20.3132  -12.9418  -17.5292 C   0  0  0  0  0  0  0  0  0  0  0  0
   19.9942  -11.5380  -17.1488 C   0  0  0  0  0  0  0  0  0  0  0  0
   18.9499  -11.3818  -16.0754 C   0  0  2  0  0  0  0  0  0  0  0  0
   17.7273  -11.9755  -16.6237 N   0  0  0  0  0  0  0  0  0  0  0  0
   18.7487   -9.9609  -15.7441 C   0  0  0  0  0  0  0  0  0  0  0  0
   17.8219   -9.3151  -16.2893 O   0  0  0  0  0  0  0  0  0  0  0  0
   19.5689   -9.2532  -14.8124 N   0  0  0  0  0  0  0  0  0  0  0  0
   19.3223   -7.8488  -14.5527 C   0  0  1  0  0  0  0  0  0  0  0  0
   18.1957   -7.7770  -13.5439 C   0  0  0  0  0  0  0  0  0  0  0  0
   18.7270   -8.6938  -12.0707 S   0  0  0  0  0  0  0  0  0  0  0  0
   20.5385   -7.1500  -14.0767 C   0  0  0  0  0  0  0  0  0  0  0  0
   21.4863   -7.8691  -13.6686 O   0  0  0  0  0  0  0  0  0  0  0  0
   20.7039   -5.7536  -14.0502 N   0  0  0  0  0  0  0  0  0  0  0  0
   21.8992   -5.0772  -13.6415 C   0  0  0  0  0  0  0  0  0  0  0  0
   21.8458   -3.6159  -13.8584 C   0  0  0  0  0  0  0  0  0  0  0  0
   20.8528   -3.1585  -14.4749 O   0  0  0  0  0  0  0  0  0  0  0  0
   22.8057   -2.7315  -13.4321 O   0  0  0  0  0  0  0  0  0  0  0  0
  2  1  1  0
  3  2  2  0
  4  2  1  0
  5  4  1  0
  6  5  1  0
  6  7  1  6
  8  6  1  0
  8 10  1  0
  9  8  2  0
 11 10  1  0
 11 14  1  0
 11 12  1  1
 13 12  1  0
 14 15  2  0
 14 16  1  0
 16 17  1  0
 18 17  1  0
 18 20  1  0
 19 18  2  0
M  END
$$$$
