QCG.pdb
     RDKit          3D

 20 19  0  0  1  0  0  0  0  0999 V2000
   16.6930  -11.6008  -18.8704 N   0  0  0  0  0  0  0  0  0  0  0  0
   17.6277  -11.0911  -17.9002 C   0  0  0  0  0  0  0  0  0  0  0  0
   17.6012   -9.8665  -17.7141 O   0  0  0  0  0  0  0  0  0  0  0  0
   18.5465  -11.9885  -17.1882 C   0  0  0  0  0  0  0  0  0  0  0  0
   19.6968  -11.3107  -16.5293 C   0  0  0  0  0  0  0  0  0  0  0  0
   20.9201  -11.1336  -17.3892 C   0  0  2  0  0  0  0  0  0  0  0  0
   21.4477  -12.4831  -17.6089 N   0  0  0  0  0  0  0  0  0  0  0  0
   21.9125  -10.2775  -16.7172 C   0  0  0  0  0  0  0  0  0  0  0  0
   23.0295  -10.7476  -16.3937 O   0  0  0  0  0  0  0  0  0  0  0  0
   21.6731   -8.9045  -16.4024 N   0  0  0  0  0  0  0  0  0  0  0  0
   22.7574   -8.0737  -15.9182 C   0  0  1  0  0  0  0  0  0  0  0  0
   23.7711   -7.9729  -17.0382 C   0  0  0  0  0  0  0  0  0  0  0  0
   25.1004   -6.8759  -16.4701 S   0  0  0  0  0  0  0  0  0  0  0  0
   22.2826   -6.7414  -15.4783 C   0  0  0  0  0  0  0  0  0  0  0  0
   21.7321   -6.0169  -16.3467 O   0  0  0  0  0  0  0  0  0  0  0  0
   22.4038   -6.2370  -14.1710 N   0  0  0  0  0  0  0  0  0  0  0  0
   21.8418   -5.0007  -13.7139 C   0  0  0  0  0  0  0  0  0  0  0  0
   22.5150   -3.8107  -14.2759 C   0  0  0  0  0  0  0  0  0  0  0  0
   22.1109   -2.6844  -13.8967 O   0  0  0  0  0  0  0  0  0  0  0  0
   23.5472   -3.8563  -15.1802 O   0  0  0  0  0  0  0  0  0  0  0  0
  2  1  1  0
  3  2  2  0
  4  2  1  0
  5  4  1  0
  6  5  1  0
  6  7  1  1
  8  6  1  0
  8 10  1  0
  9  8  2  0
 11 10  1  0
 11 14  1  0
 11 12  1  6
 13 12  1  0
 14 15  2  0
 14 16  1  0
 16 17  1  0
 18 17  1  0
 18 20  1  0
 19 18  2  0
M  END
$$$$
