QCG.pdb
     RDKit          3D

 20 19  0  0  1  0  0  0  0  0999 V2000
   19.6632  -16.2803  -15.2480 N   0  0  0  0  0  0  0  0  0  0  0  0
   18.4324  -16.0179  -15.9488 C   0  0  0  0  0  0  0  0  0  0  0  0
   17.7654  -17.0137  -16.2632 O   0  0  0  0  0  0  0  0  0  0  0  0
   18.0152  -14.6449  -16.2605 C   0  0  0  0  0  0  0  0  0  0  0  0
   18.9611  -13.5869  -15.8102 C   0  0  0  0  0  0  0  0  0  0  0  0
   18.5068  -12.1713  -16.0488 C   0  0  2  0  0  0  0  0  0  0  0  0
   17.7835  -12.1976  -17.3232 N   0  0  0  0  0  0  0  0  0  0  0  0
   19.6586  -11.2554  -16.1098 C   0  0  0  0  0  0  0  0  0  0  0  0
   20.5020  -11.2460  -15.1814 O   0  0  0  0  0  0  0  0  0  0  0  0
   19.8799  -10.3511  -17.1937 N   0  0  0  0  0  0  0  0  0  0  0  0
   21.0090   -9.4432  -17.1592 C   0  0  1  0  0  0  0  0  0  0  0  0
   21.5356   -9.3386  -18.5748 C   0  0  0  0  0  0  0  0  0  0  0  0
   22.3389  -10.9163  -18.9730 S   0  0  0  0  0  0  0  0  0  0  0  0
   20.6408   -8.1197  -16.6052 C   0  0  0  0  0  0  0  0  0  0  0  0
   19.6511   -7.5406  -17.1221 O   0  0  0  0  0  0  0  0  0  0  0  0
   21.3144   -7.4739  -15.5530 N   0  0  0  0  0  0  0  0  0  0  0  0
   20.9285   -6.2181  -14.9808 C   0  0  0  0  0  0  0  0  0  0  0  0
   21.7294   -5.8465  -13.7952 C   0  0  0  0  0  0  0  0  0  0  0  0
   22.5441   -6.6954  -13.3581 O   0  0  0  0  0  0  0  0  0  0  0  0
   21.6410   -4.6405  -13.1446 O   0  0  0  0  0  0  0  0  0  0  0  0
  2  1  1  0
  3  2  2  0
  4  2  1  0
  5  4  1  0
  6  5  1  0
  6  7  1  6
  8  6  1  0
  8 10  1  0
  9  8  2  0
 11 10  1  0
 11 14  1  0
 11 12  1  6
 13 12  1  0
 14 15  2  0
 14 16  1  0
 16 17  1  0
 18 17  1  0
 18 20  1  0
 19 18  2  0
M  END
$$$$
