QCG.pdb
     RDKit          3D

 20 19  0  0  1  0  0  0  0  0999 V2000
   25.6809  -22.5136  -12.2488 N   0  0  0  0  0  0  0  0  0  0  0  0
   24.5693  -23.3573  -12.6055 C   0  0  0  0  0  0  0  0  0  0  0  0
   24.7551  -24.5766  -12.4871 O   0  0  0  0  0  0  0  0  0  0  0  0
   23.3031  -22.7835  -13.0788 C   0  0  0  0  0  0  0  0  0  0  0  0
   23.2973  -21.2998  -13.2034 C   0  0  0  0  0  0  0  0  0  0  0  0
   23.3905  -20.7701  -14.6097 C   0  0  2  0  0  0  0  0  0  0  0  0
   24.2962  -21.6806  -15.3160 N   0  0  0  0  0  0  0  0  0  0  0  0
   23.9101  -19.3920  -14.6164 C   0  0  0  0  0  0  0  0  0  0  0  0
   23.2260  -18.4616  -14.1269 O   0  0  0  0  0  0  0  0  0  0  0  0
   25.1829  -19.0407  -15.1624 N   0  0  0  0  0  0  0  0  0  0  0  0
   25.5827  -17.6491  -15.2278 C   0  0  1  0  0  0  0  0  0  0  0  0
   27.0602  -17.5978  -14.9013 C   0  0  0  0  0  0  0  0  0  0  0  0
   27.3046  -18.5039  -13.3481 S   0  0  0  0  0  0  0  0  0  0  0  0
   25.2853  -17.0472  -16.5481 C   0  0  0  0  0  0  0  0  0  0  0  0
   25.5377  -17.7459  -17.5631 O   0  0  0  0  0  0  0  0  0  0  0  0
   24.7461  -15.7628  -16.7421 N   0  0  0  0  0  0  0  0  0  0  0  0
   24.4084  -15.1991  -18.0155 C   0  0  0  0  0  0  0  0  0  0  0  0
   23.8203  -13.8465  -17.9173 C   0  0  0  0  0  0  0  0  0  0  0  0
   22.6317  -13.7597  -17.5236 O   0  0  0  0  0  0  0  0  0  0  0  0
   24.4852  -12.6857  -18.2267 O   0  0  0  0  0  0  0  0  0  0  0  0
  2  1  1  0
  3  2  2  0
  4  2  1  0
  5  4  1  0
  6  5  1  0
  6  7  1  6
  8  6  1  0
  8 10  1  0
  9  8  2  0
 11 10  1  0
 11 14  1  0
 11 12  1  6
 13 12  1  0
 14 15  2  0
 14 16  1  0
 16 17  1  0
 18 17  1  0
 18 20  1  0
 19 18  2  0
M  END
$$$$
