QCG.pdb
     RDKit          3D

 20 19  0  0  1  0  0  0  0  0999 V2000
   14.8946  -23.4890    0.4478 N   0  0  0  0  0  0  0  0  0  0  0  0
   14.7595  -23.5800   -0.9834 C   0  0  0  0  0  0  0  0  0  0  0  0
   14.3081  -22.5747   -1.5497 O   0  0  0  0  0  0  0  0  0  0  0  0
   15.1400  -24.8011   -1.7048 C   0  0  0  0  0  0  0  0  0  0  0  0
   15.7163  -25.8770   -0.8518 C   0  0  0  0  0  0  0  0  0  0  0  0
   17.1858  -26.1391   -1.0489 C   0  0  2  0  0  0  0  0  0  0  0  0
   17.2818  -26.9647   -2.2560 N   0  0  0  0  0  0  0  0  0  0  0  0
   17.7542  -26.8351    0.1180 C   0  0  0  0  0  0  0  0  0  0  0  0
   18.1475  -28.0213    0.0103 O   0  0  0  0  0  0  0  0  0  0  0  0
   17.8886  -26.2234    1.4023 N   0  0  0  0  0  0  0  0  0  0  0  0
   18.5941  -26.9151    2.4626 C   0  0  1  0  0  0  0  0  0  0  0  0
   20.0199  -27.1088    1.9918 C   0  0  0  0  0  0  0  0  0  0  0  0
   20.6716  -25.4746    1.5472 S   0  0  0  0  0  0  0  0  0  0  0  0
   18.5291  -26.1781    3.7459 C   0  0  0  0  0  0  0  0  0  0  0  0
   18.7102  -24.9343    3.6988 O   0  0  0  0  0  0  0  0  0  0  0  0
   18.2816  -26.7673    4.9987 N   0  0  0  0  0  0  0  0  0  0  0  0
   18.2748  -26.0652    6.2479 C   0  0  0  0  0  0  0  0  0  0  0  0
   19.6269  -25.8595    6.8088 C   0  0  0  0  0  0  0  0  0  0  0  0
   20.5947  -26.3569    6.1832 O   0  0  0  0  0  0  0  0  0  0  0  0
   19.8919  -25.1640    7.9627 O   0  0  0  0  0  0  0  0  0  0  0  0
  2  1  1  0
  3  2  2  0
  4  2  1  0
  5  4  1  0
  6  5  1  0
  6  7  1  6
  8  6  1  0
  8 10  1  0
  9  8  2  0
 11 10  1  0
 11 14  1  0
 11 12  1  6
 13 12  1  0
 14 15  2  0
 14 16  1  0
 16 17  1  0
 18 17  1  0
 18 20  1  0
 19 18  2  0
M  END
$$$$
