QCG.pdb
     RDKit          3D

 20 19  0  0  1  0  0  0  0  0999 V2000
   13.2171  -24.0762   -6.2642 N   0  0  0  0  0  0  0  0  0  0  0  0
   14.5741  -24.1733   -5.7909 C   0  0  0  0  0  0  0  0  0  0  0  0
   15.2926  -24.9983   -6.3724 O   0  0  0  0  0  0  0  0  0  0  0  0
   15.0530  -23.3350   -4.6845 C   0  0  0  0  0  0  0  0  0  0  0  0
   14.0306  -22.4205   -4.1054 C   0  0  0  0  0  0  0  0  0  0  0  0
   13.3882  -22.8962   -2.8295 C   0  0  2  0  0  0  0  0  0  0  0  0
   12.3937  -21.8768   -2.4835 N   0  0  0  0  0  0  0  0  0  0  0  0
   14.3918  -23.0440   -1.7617 C   0  0  0  0  0  0  0  0  0  0  0  0
   15.2500  -23.9563   -1.8298 O   0  0  0  0  0  0  0  0  0  0  0  0
   14.4488  -22.1865   -0.6203 N   0  0  0  0  0  0  0  0  0  0  0  0
   15.4505  -22.4099    0.4030 C   0  0  1  0  0  0  0  0  0  0  0  0
   16.0265  -21.0562    0.7608 C   0  0  0  0  0  0  0  0  0  0  0  0
   14.9871  -20.3533    2.0717 S   0  0  0  0  0  0  0  0  0  0  0  0
   14.8913  -23.1048    1.5855 C   0  0  0  0  0  0  0  0  0  0  0  0
   13.6396  -23.1018    1.7095 O   0  0  0  0  0  0  0  0  0  0  0  0
   15.6554  -23.7602    2.5677 N   0  0  0  0  0  0  0  0  0  0  0  0
   15.1206  -24.3831    3.7421 C   0  0  0  0  0  0  0  0  0  0  0  0
   14.8547  -23.4285    4.8391 C   0  0  0  0  0  0  0  0  0  0  0  0
   15.2475  -22.2464    4.6852 O   0  0  0  0  0  0  0  0  0  0  0  0
   14.2100  -23.7485    6.0084 O   0  0  0  0  0  0  0  0  0  0  0  0
  2  1  1  0
  3  2  2  0
  4  2  1  0
  5  4  1  0
  6  5  1  0
  6  7  1  1
  8  6  1  0
  8 10  1  0
  9  8  2  0
 11 10  1  0
 11 14  1  0
 11 12  1  1
 13 12  1  0
 14 15  2  0
 14 16  1  0
 16 17  1  0
 18 17  1  0
 18 20  1  0
 19 18  2  0
M  END
$$$$
