QCG.pdb
     RDKit          3D

 20 19  0  0  1  0  0  0  0  0999 V2000
   22.4101   -9.4056  -14.6829 N   0  0  0  0  0  0  0  0  0  0  0  0
   21.8716   -8.3375  -15.4852 C   0  0  0  0  0  0  0  0  0  0  0  0
   22.3690   -8.2028  -16.6120 O   0  0  0  0  0  0  0  0  0  0  0  0
   20.7986   -7.4737  -14.9763 C   0  0  0  0  0  0  0  0  0  0  0  0
   20.2837   -7.8444  -13.6293 C   0  0  0  0  0  0  0  0  0  0  0  0
   18.7868   -7.7945  -13.4745 C   0  0  2  0  0  0  0  0  0  0  0  0
   18.3988   -6.4246  -13.8221 N   0  0  0  0  0  0  0  0  0  0  0  0
   18.3922   -8.1250  -12.0945 C   0  0  0  0  0  0  0  0  0  0  0  0
   18.7861   -9.1934  -11.5686 O   0  0  0  0  0  0  0  0  0  0  0  0
   17.5641   -7.2779  -11.2957 N   0  0  0  0  0  0  0  0  0  0  0  0
   17.1331   -7.7167   -9.9834 C   0  0  1  0  0  0  0  0  0  0  0  0
   17.7182   -6.7470   -8.9787 C   0  0  0  0  0  0  0  0  0  0  0  0
   17.0692   -5.0990   -9.3736 S   0  0  0  0  0  0  0  0  0  0  0  0
   15.6576   -7.7979   -9.8815 C   0  0  0  0  0  0  0  0  0  0  0  0
   14.9913   -7.1018  -10.6899 O   0  0  0  0  0  0  0  0  0  0  0  0
   14.9591   -8.5909   -8.9536 N   0  0  0  0  0  0  0  0  0  0  0  0
   13.5409   -8.5583   -8.7507 C   0  0  0  0  0  0  0  0  0  0  0  0
   12.8038   -9.4873   -9.6330 C   0  0  0  0  0  0  0  0  0  0  0  0
   13.4435  -10.0269  -10.5685 O   0  0  0  0  0  0  0  0  0  0  0  0
   11.4729   -9.7969   -9.4972 O   0  0  0  0  0  0  0  0  0  0  0  0
  2  1  1  0
  3  2  2  0
  4  2  1  0
  5  4  1  0
  6  5  1  0
  6  7  1  1
  8  6  1  0
  8 10  1  0
  9  8  2  0
 11 10  1  0
 11 14  1  0
 11 12  1  1
 13 12  1  0
 14 15  2  0
 14 16  1  0
 16 17  1  0
 18 17  1  0
 18 20  1  0
 19 18  2  0
M  END
$$$$
