QCG.pdb
     RDKit          3D

 20 19  0  0  1  0  0  0  0  0999 V2000
   16.3347  -13.5629  -16.9901 N   0  0  0  0  0  0  0  0  0  0  0  0
   16.2251  -12.7245  -18.1562 C   0  0  0  0  0  0  0  0  0  0  0  0
   15.2684  -12.9629  -18.9066 O   0  0  0  0  0  0  0  0  0  0  0  0
   17.2007  -11.6587  -18.4182 C   0  0  0  0  0  0  0  0  0  0  0  0
   18.2967  -11.5545  -17.4157 C   0  0  0  0  0  0  0  0  0  0  0  0
   19.6661  -11.2882  -17.9823 C   0  0  2  0  0  0  0  0  0  0  0  0
   20.0827  -12.5425  -18.6158 N   0  0  0  0  0  0  0  0  0  0  0  0
   20.6046  -10.8925  -16.9184 C   0  0  0  0  0  0  0  0  0  0  0  0
   20.9514  -11.7250  -16.0466 O   0  0  0  0  0  0  0  0  0  0  0  0
   21.1600   -9.5800  -16.8164 N   0  0  0  0  0  0  0  0  0  0  0  0
   22.1822   -9.3020  -15.8273 C   0  0  1  0  0  0  0  0  0  0  0  0
   23.3502  -10.2166  -16.1297 C   0  0  0  0  0  0  0  0  0  0  0  0
   24.6192   -9.9114  -14.8689 S   0  0  0  0  0  0  0  0  0  0  0  0
   22.5807   -7.8754  -15.8262 C   0  0  0  0  0  0  0  0  0  0  0  0
   23.2670   -7.4744  -16.8010 O   0  0  0  0  0  0  0  0  0  0  0  0
   22.2481   -6.9494  -14.8212 N   0  0  0  0  0  0  0  0  0  0  0  0
   22.6535   -5.5751  -14.8059 C   0  0  0  0  0  0  0  0  0  0  0  0
   22.1391   -4.8281  -13.6387 C   0  0  0  0  0  0  0  0  0  0  0  0
   22.5497   -3.6530  -13.4771 O   0  0  0  0  0  0  0  0  0  0  0  0
   21.2469   -5.3324  -12.7249 O   0  0  0  0  0  0  0  0  0  0  0  0
  2  1  1  0
  3  2  2  0
  4  2  1  0
  5  4  1  0
  6  5  1  0
  6  7  1  1
  8  6  1  0
  8 10  1  0
  9  8  2  0
 11 10  1  0
 11 14  1  0
 11 12  1  6
 13 12  1  0
 14 15  2  0
 14 16  1  0
 16 17  1  0
 18 17  1  0
 18 20  1  0
 19 18  2  0
M  END
$$$$
