QCG.pdb
     RDKit          3D

 20 19  0  0  1  0  0  0  0  0999 V2000
   25.1971  -20.2626   -7.3996 N   0  0  0  0  0  0  0  0  0  0  0  0
   24.2697  -21.1461   -8.0587 C   0  0  0  0  0  0  0  0  0  0  0  0
   23.3290  -21.5584   -7.3657 O   0  0  0  0  0  0  0  0  0  0  0  0
   24.4499  -21.5209   -9.4670 C   0  0  0  0  0  0  0  0  0  0  0  0
   25.6414  -20.9188  -10.1264 C   0  0  0  0  0  0  0  0  0  0  0  0
   25.4460  -20.5087  -11.5619 C   0  0  2  0  0  0  0  0  0  0  0  0
   25.0215  -21.7222  -12.2656 N   0  0  0  0  0  0  0  0  0  0  0  0
   26.6965  -19.9753  -12.1286 C   0  0  0  0  0  0  0  0  0  0  0  0
   27.0656  -18.8101  -11.8469 O   0  0  0  0  0  0  0  0  0  0  0  0
   27.5388  -20.7264  -13.0049 N   0  0  0  0  0  0  0  0  0  0  0  0
   28.5058  -20.0429  -13.8405 C   0  0  1  0  0  0  0  0  0  0  0  0
   29.8777  -20.3843  -13.2987 C   0  0  0  0  0  0  0  0  0  0  0  0
   29.6430  -21.5206  -11.9034 S   0  0  0  0  0  0  0  0  0  0  0  0
   28.3657  -20.4121  -15.2681 C   0  0  0  0  0  0  0  0  0  0  0  0
   28.2390  -21.6356  -15.5308 O   0  0  0  0  0  0  0  0  0  0  0  0
   28.3646  -19.4986  -16.3375 N   0  0  0  0  0  0  0  0  0  0  0  0
   28.1224  -19.8407  -17.7077 C   0  0  0  0  0  0  0  0  0  0  0  0
   28.0262  -18.6623  -18.5950 C   0  0  0  0  0  0  0  0  0  0  0  0
   27.4176  -17.6560  -18.1563 O   0  0  0  0  0  0  0  0  0  0  0  0
   28.5557  -18.5968  -19.8602 O   0  0  0  0  0  0  0  0  0  0  0  0
  2  1  1  0
  3  2  2  0
  4  2  1  0
  5  4  1  0
  6  5  1  0
  6  7  1  6
  8  6  1  0
  8 10  1  0
  9  8  2  0
 11 10  1  0
 11 14  1  0
 11 12  1  1
 13 12  1  0
 14 15  2  0
 14 16  1  0
 16 17  1  0
 18 17  1  0
 18 20  1  0
 19 18  2  0
M  END
$$$$
