QCG.pdb
     RDKit          3D

 20 19  0  0  1  0  0  0  0  0999 V2000
   23.5009  -20.3405  -10.8494 N   0  0  0  0  0  0  0  0  0  0  0  0
   23.8784  -20.7419   -9.5186 C   0  0  0  0  0  0  0  0  0  0  0  0
   22.9449  -20.9802   -8.7396 O   0  0  0  0  0  0  0  0  0  0  0  0
   25.2907  -20.8543   -9.1323 C   0  0  0  0  0  0  0  0  0  0  0  0
   26.2579  -20.3519  -10.1468 C   0  0  0  0  0  0  0  0  0  0  0  0
   26.2188  -21.0534  -11.4785 C   0  0  2  0  0  0  0  0  0  0  0  0
   27.4417  -21.8589  -11.5372 N   0  0  0  0  0  0  0  0  0  0  0  0
   26.1704  -20.0790  -12.5819 C   0  0  0  0  0  0  0  0  0  0  0  0
   26.9774  -19.1191  -12.6066 O   0  0  0  0  0  0  0  0  0  0  0  0
   25.2328  -20.1633  -13.6568 N   0  0  0  0  0  0  0  0  0  0  0  0
   25.4823  -19.4476  -14.8920 C   0  0  1  0  0  0  0  0  0  0  0  0
   26.8015  -19.9527  -15.4369 C   0  0  0  0  0  0  0  0  0  0  0  0
   28.0856  -18.7762  -14.9270 S   0  0  0  0  0  0  0  0  0  0  0  0
   24.3787  -19.6176  -15.8653 C   0  0  0  0  0  0  0  0  0  0  0  0
   23.9909  -20.7932  -16.0878 O   0  0  0  0  0  0  0  0  0  0  0  0
   23.7423  -18.5665  -16.5495 N   0  0  0  0  0  0  0  0  0  0  0  0
   22.5031  -18.6821  -17.2597 C   0  0  0  0  0  0  0  0  0  0  0  0
   21.3323  -18.2589  -16.4628 C   0  0  0  0  0  0  0  0  0  0  0  0
   20.9203  -19.0465  -15.5766 O   0  0  0  0  0  0  0  0  0  0  0  0
   20.6698  -17.0675  -16.6274 O   0  0  0  0  0  0  0  0  0  0  0  0
  2  1  1  0
  3  2  2  0
  4  2  1  0
  5  4  1  0
  6  5  1  0
  6  7  1  6
  8  6  1  0
  8 10  1  0
  9  8  2  0
 11 10  1  0
 11 14  1  0
 11 12  1  6
 13 12  1  0
 14 15  2  0
 14 16  1  0
 16 17  1  0
 18 17  1  0
 18 20  1  0
 19 18  2  0
M  END
$$$$
