QCG.pdb
     RDKit          3D

 20 19  0  0  1  0  0  0  0  0999 V2000
   24.7405  -19.4124  -18.1011 N   0  0  0  0  0  0  0  0  0  0  0  0
   24.6716  -18.1443  -18.7807 C   0  0  0  0  0  0  0  0  0  0  0  0
   25.0526  -18.1403  -19.9597 O   0  0  0  0  0  0  0  0  0  0  0  0
   24.1767  -16.9430  -18.0962 C   0  0  0  0  0  0  0  0  0  0  0  0
   23.5870  -17.1884  -16.7512 C   0  0  0  0  0  0  0  0  0  0  0  0
   22.1803  -17.7254  -16.7516 C   0  0  2  0  0  0  0  0  0  0  0  0
   21.3204  -16.5812  -17.0670 N   0  0  0  0  0  0  0  0  0  0  0  0
   21.8396  -18.3009  -15.4393 C   0  0  0  0  0  0  0  0  0  0  0  0
   22.7425  -18.5169  -14.5960 O   0  0  0  0  0  0  0  0  0  0  0  0
   20.5044  -18.6375  -15.0579 N   0  0  0  0  0  0  0  0  0  0  0  0
   20.2493  -19.2201  -13.7556 C   0  0  1  0  0  0  0  0  0  0  0  0
   20.5450  -18.1495  -12.7268 C   0  0  0  0  0  0  0  0  0  0  0  0
   19.2303  -16.9043  -12.8459 S   0  0  0  0  0  0  0  0  0  0  0  0
   18.8652  -19.7346  -13.6387 C   0  0  0  0  0  0  0  0  0  0  0  0
   17.9458  -19.0055  -14.0918 O   0  0  0  0  0  0  0  0  0  0  0  0
   18.5129  -20.9682  -13.0623 N   0  0  0  0  0  0  0  0  0  0  0  0
   17.1883  -21.5141  -13.0400 C   0  0  0  0  0  0  0  0  0  0  0  0
   17.1250  -22.8675  -12.4488 C   0  0  0  0  0  0  0  0  0  0  0  0
   16.0026  -23.4276  -12.4045 O   0  0  0  0  0  0  0  0  0  0  0  0
   18.2072  -23.5481  -11.9479 O   0  0  0  0  0  0  0  0  0  0  0  0
  2  1  1  0
  3  2  2  0
  4  2  1  0
  5  4  1  0
  6  5  1  0
  6  7  1  1
  8  6  1  0
  8 10  1  0
  9  8  2  0
 11 10  1  0
 11 14  1  0
 11 12  1  1
 13 12  1  0
 14 15  2  0
 14 16  1  0
 16 17  1  0
 18 17  1  0
 18 20  1  0
 19 18  2  0
M  END
$$$$
