CTM.pdb
     RDKit          3D

 22 21  0  0  1  0  0  0  0  0999 V2000
    8.1491  -14.6088   17.0995 N   0  0  0  0  0  0  0  0  0  0  0  0
    9.0483  -14.4800   18.2100 C   0  0  1  0  0  0  0  0  0  0  0  0
    9.1309  -13.0142   18.5836 C   0  0  0  0  0  0  0  0  0  0  0  0
    7.5338  -12.4062   19.2165 S   0  0  0  0  0  0  0  0  0  0  0  0
    8.5991  -15.2216   19.4041 C   0  0  0  0  0  0  0  0  0  0  0  0
    7.4140  -15.6599   19.3961 O   0  0  0  0  0  0  0  0  0  0  0  0
    9.1666  -18.2744   20.1215 C   0  0  0  0  0  0  0  0  0  0  0  0
    9.6358  -17.6918   21.4270 C   0  0  1  0  0  0  0  0  0  0  0  0
   11.0269  -17.6154   21.4023 O   0  0  0  0  0  0  0  0  0  0  0  0
    9.0179  -16.3279   21.6140 C   0  0  2  0  0  0  0  0  0  0  0  0
    9.4245  -15.4549   20.5304 N   0  0  0  0  0  0  0  0  0  0  0  0
    9.5046  -15.7578   22.9034 C   0  0  0  0  0  0  0  0  0  0  0  0
   10.6070  -15.1560   22.9601 O   0  0  0  0  0  0  0  0  0  0  0  0
    6.3917  -11.4494   26.7127 C   0  0  0  0  0  0  0  0  0  0  0  0
    6.1840  -13.2436   26.9251 S   0  0  0  0  0  0  0  0  0  0  0  0
    6.9853  -14.0406   25.4931 C   0  0  0  0  0  0  0  0  0  0  0  0
    8.4807  -13.9488   25.5848 C   0  0  0  0  0  0  0  0  0  0  0  0
    9.1203  -15.2573   25.3662 C   0  0  2  0  0  0  0  0  0  0  0  0
    8.7583  -15.8688   24.0969 N   0  0  0  0  0  0  0  0  0  0  0  0
    8.9443  -16.2416   26.4228 C   0  0  0  0  0  0  0  0  0  0  0  0
    8.3272  -17.3141   26.2466 O   0  0  0  0  0  0  0  0  0  0  0  0
    9.4659  -16.0429   27.7258 O   0  0  0  0  0  0  0  0  0  0  0  0
  2  1  1  6
  2  5  1  0
  3  2  1  0
  4  3  1  0
  5 11  1  0
  5  6  2  0
  8  7  1  6
  8 10  1  0
  8  9  1  0
 10 12  1  0
 10 11  1  6
 12 13  2  0
 14 15  1  0
 15 16  1  0
 18 17  1  1
 17 16  1  0
 18 20  1  0
 19 12  1  0
 19 18  1  0
 20 22  1  0
 21 20  2  0
M  END
$$$$
