CTM.pdb
     RDKit          3D

 22 21  0  0  1  0  0  0  0  0999 V2000
    8.3065  -14.8362   17.2331 N   0  0  0  0  0  0  0  0  0  0  0  0
    8.7723  -14.4343   18.5291 C   0  0  1  0  0  0  0  0  0  0  0  0
    8.2483  -13.0406   18.8084 C   0  0  0  0  0  0  0  0  0  0  0  0
    9.5290  -11.7822   18.4965 S   0  0  0  0  0  0  0  0  0  0  0  0
    8.2961  -15.3167   19.6118 C   0  0  0  0  0  0  0  0  0  0  0  0
    7.0810  -15.6618   19.5791 O   0  0  0  0  0  0  0  0  0  0  0  0
    9.1445  -18.6778   20.6473 C   0  0  0  0  0  0  0  0  0  0  0  0
    9.3745  -17.8519   21.8838 C   0  0  1  0  0  0  0  0  0  0  0  0
   10.7422  -17.6176   22.0105 O   0  0  0  0  0  0  0  0  0  0  0  0
    8.6079  -16.5574   21.7673 C   0  0  2  0  0  0  0  0  0  0  0  0
    9.1278  -15.7800   20.6596 N   0  0  0  0  0  0  0  0  0  0  0  0
    8.7881  -15.7827   23.0290 C   0  0  0  0  0  0  0  0  0  0  0  0
    9.8751  -15.1989   23.2704 O   0  0  0  0  0  0  0  0  0  0  0  0
    7.0019  -10.9605   28.0798 C   0  0  0  0  0  0  0  0  0  0  0  0
    6.7480  -11.8915   26.5384 S   0  0  0  0  0  0  0  0  0  0  0  0
    6.6917  -13.6576   26.9919 C   0  0  0  0  0  0  0  0  0  0  0  0
    6.5472  -14.5276   25.7772 C   0  0  0  0  0  0  0  0  0  0  0  0
    7.8571  -14.9243   25.2336 C   0  0  2  0  0  0  0  0  0  0  0  0
    7.7602  -15.6743   23.9909 N   0  0  0  0  0  0  0  0  0  0  0  0
    8.7377  -15.6425   26.1419 C   0  0  0  0  0  0  0  0  0  0  0  0
    8.7318  -16.8885   26.2394 O   0  0  0  0  0  0  0  0  0  0  0  0
    9.6627  -14.9679   26.9778 O   0  0  0  0  0  0  0  0  0  0  0  0
  2  1  1  6
  2  5  1  0
  3  2  1  0
  4  3  1  0
  5 11  1  0
  5  6  2  0
  8  7  1  6
  8 10  1  0
  8  9  1  0
 10 12  1  0
 10 11  1  6
 12 13  2  0
 14 15  1  0
 15 16  1  0
 18 17  1  1
 17 16  1  0
 18 20  1  0
 19 12  1  0
 19 18  1  0
 20 22  1  0
 21 20  2  0
M  END
$$$$
