CTM.pdb
     RDKit          3D

 22 21  0  0  1  0  0  0  0  0999 V2000
    8.1996  -15.0516   17.3472 N   0  0  0  0  0  0  0  0  0  0  0  0
    8.5745  -14.4688   18.6034 C   0  0  1  0  0  0  0  0  0  0  0  0
    7.8407  -13.1517   18.7511 C   0  0  0  0  0  0  0  0  0  0  0  0
    8.9616  -11.8361   19.3288 S   0  0  0  0  0  0  0  0  0  0  0  0
    8.2164  -15.3126   19.7599 C   0  0  0  0  0  0  0  0  0  0  0  0
    7.3764  -16.2351   19.5598 O   0  0  0  0  0  0  0  0  0  0  0  0
    8.5285  -17.9145   20.4622 C   0  0  0  0  0  0  0  0  0  0  0  0
    9.1737  -17.4195   21.7281 C   0  0  1  0  0  0  0  0  0  0  0  0
   10.5433  -17.2925   21.5055 O   0  0  0  0  0  0  0  0  0  0  0  0
    8.5591  -16.0970   22.1158 C   0  0  2  0  0  0  0  0  0  0  0  0
    8.7644  -15.1329   21.0528 N   0  0  0  0  0  0  0  0  0  0  0  0
    9.2315  -15.6043   23.3526 C   0  0  0  0  0  0  0  0  0  0  0  0
   10.3900  -15.1188   23.2996 O   0  0  0  0  0  0  0  0  0  0  0  0
    6.5843  -11.1374   26.4718 C   0  0  0  0  0  0  0  0  0  0  0  0
    6.1978  -12.7512   27.2157 S   0  0  0  0  0  0  0  0  0  0  0  0
    7.0309  -14.0147   26.1973 C   0  0  0  0  0  0  0  0  0  0  0  0
    8.5222  -13.9443   26.3540 C   0  0  0  0  0  0  0  0  0  0  0  0
    9.1794  -15.1645   25.8561 C   0  0  2  0  0  0  0  0  0  0  0  0
    8.6040  -15.6619   24.6161 N   0  0  0  0  0  0  0  0  0  0  0  0
    9.2794  -16.2690   26.7975 C   0  0  0  0  0  0  0  0  0  0  0  0
    8.7716  -17.3893   26.5760 O   0  0  0  0  0  0  0  0  0  0  0  0
    9.9637  -16.1409   28.0323 O   0  0  0  0  0  0  0  0  0  0  0  0
  2  1  1  6
  2  5  1  0
  3  2  1  0
  4  3  1  0
  5 11  1  0
  5  6  2  0
  8  7  1  6
  8 10  1  0
  8  9  1  0
 10 12  1  0
 10 11  1  6
 12 13  2  0
 14 15  1  0
 15 16  1  0
 18 17  1  1
 17 16  1  0
 18 20  1  0
 19 12  1  0
 19 18  1  0
 20 22  1  0
 21 20  2  0
M  END
$$$$
