CTM.pdb
     RDKit          3D

 22 21  0  0  1  0  0  0  0  0999 V2000
    8.3179  -15.1137   17.1171 N   0  0  0  0  0  0  0  0  0  0  0  0
    8.6909  -14.5424   18.3791 C   0  0  1  0  0  0  0  0  0  0  0  0
    8.0109  -13.1948   18.5073 C   0  0  0  0  0  0  0  0  0  0  0  0
    9.0678  -12.0073   19.3984 S   0  0  0  0  0  0  0  0  0  0  0  0
    8.2734  -15.3657   19.5304 C   0  0  0  0  0  0  0  0  0  0  0  0
    7.0736  -15.7617   19.5483 O   0  0  0  0  0  0  0  0  0  0  0  0
    9.3553  -18.6100   20.5863 C   0  0  0  0  0  0  0  0  0  0  0  0
    9.5561  -17.7647   21.8147 C   0  0  1  0  0  0  0  0  0  0  0  0
   10.9074  -17.4386   21.9106 O   0  0  0  0  0  0  0  0  0  0  0  0
    8.7019  -16.5251   21.7110 C   0  0  2  0  0  0  0  0  0  0  0  0
    9.1437  -15.7201   20.5891 N   0  0  0  0  0  0  0  0  0  0  0  0
    8.8577  -15.7337   22.9656 C   0  0  0  0  0  0  0  0  0  0  0  0
    9.8294  -14.9491   23.1094 O   0  0  0  0  0  0  0  0  0  0  0  0
    6.9015  -11.0133   27.9497 C   0  0  0  0  0  0  0  0  0  0  0  0
    6.7862  -11.9672   26.4056 S   0  0  0  0  0  0  0  0  0  0  0  0
    6.6472  -13.7233   26.8795 C   0  0  0  0  0  0  0  0  0  0  0  0
    6.5946  -14.6114   25.6704 C   0  0  0  0  0  0  0  0  0  0  0  0
    7.9427  -14.9976   25.2204 C   0  0  2  0  0  0  0  0  0  0  0  0
    7.9335  -15.8315   24.0286 N   0  0  0  0  0  0  0  0  0  0  0  0
    8.7973  -15.6226   26.2180 C   0  0  0  0  0  0  0  0  0  0  0  0
    9.1925  -15.0186   27.2384 O   0  0  0  0  0  0  0  0  0  0  0  0
    9.2370  -16.9643   26.0927 O   0  0  0  0  0  0  0  0  0  0  0  0
  2  1  1  6
  2  5  1  0
  3  2  1  0
  4  3  1  0
  5 11  1  0
  5  6  2  0
  8  7  1  6
  8 10  1  0
  8  9  1  0
 10 12  1  0
 10 11  1  6
 12 13  2  0
 14 15  1  0
 15 16  1  0
 18 17  1  1
 17 16  1  0
 18 20  1  0
 19 12  1  0
 19 18  1  0
 20 22  1  0
 21 20  2  0
M  END
$$$$
