CTM.pdb
     RDKit          3D

 22 21  0  0  1  0  0  0  0  0999 V2000
    7.9878  -14.8780   17.3409 N   0  0  0  0  0  0  0  0  0  0  0  0
    8.5351  -14.4527   18.5970 C   0  0  1  0  0  0  0  0  0  0  0  0
    7.9029  -13.1255   18.9628 C   0  0  0  0  0  0  0  0  0  0  0  0
    8.7078  -11.7488   18.0807 S   0  0  0  0  0  0  0  0  0  0  0  0
    8.2587  -15.3981   19.6958 C   0  0  0  0  0  0  0  0  0  0  0  0
    7.0853  -15.8604   19.7743 O   0  0  0  0  0  0  0  0  0  0  0  0
    9.3534  -18.6949   20.6076 C   0  0  0  0  0  0  0  0  0  0  0  0
    9.7196  -17.8614   21.8055 C   0  0  1  0  0  0  0  0  0  0  0  0
   11.0819  -17.5751   21.7449 O   0  0  0  0  0  0  0  0  0  0  0  0
    8.8959  -16.5971   21.8027 C   0  0  2  0  0  0  0  0  0  0  0  0
    9.2334  -15.7970   20.6418 N   0  0  0  0  0  0  0  0  0  0  0  0
    9.2136  -15.8197   23.0353 C   0  0  0  0  0  0  0  0  0  0  0  0
   10.2383  -15.0929   23.0857 O   0  0  0  0  0  0  0  0  0  0  0  0
    6.4826  -10.8620   28.1354 C   0  0  0  0  0  0  0  0  0  0  0  0
    6.0511  -12.0742   26.8503 S   0  0  0  0  0  0  0  0  0  0  0  0
    7.4763  -13.2013   26.6883 C   0  0  0  0  0  0  0  0  0  0  0  0
    7.3297  -14.0966   25.4923 C   0  0  0  0  0  0  0  0  0  0  0  0
    8.4993  -14.9758   25.3246 C   0  0  2  0  0  0  0  0  0  0  0  0
    8.3887  -15.8669   24.1802 N   0  0  0  0  0  0  0  0  0  0  0  0
    8.8845  -15.7595   26.4880 C   0  0  0  0  0  0  0  0  0  0  0  0
    9.0388  -15.2519   27.6197 O   0  0  0  0  0  0  0  0  0  0  0  0
    9.1100  -17.1567   26.4085 O   0  0  0  0  0  0  0  0  0  0  0  0
  2  1  1  6
  2  5  1  0
  3  2  1  0
  4  3  1  0
  5 11  1  0
  5  6  2  0
  8  7  1  6
  8 10  1  0
  8  9  1  0
 10 12  1  0
 10 11  1  6
 12 13  2  0
 14 15  1  0
 15 16  1  0
 18 17  1  1
 17 16  1  0
 18 20  1  0
 19 12  1  0
 19 18  1  0
 20 22  1  0
 21 20  2  0
M  END
$$$$
