CTM.pdb
     RDKit          3D

 22 21  0  0  1  0  0  0  0  0999 V2000
    8.1466  -14.7323   16.9535 N   0  0  0  0  0  0  0  0  0  0  0  0
    9.0755  -14.6560   18.0442 C   0  0  1  0  0  0  0  0  0  0  0  0
    9.2499  -13.1977   18.4154 C   0  0  0  0  0  0  0  0  0  0  0  0
    7.7848  -12.5635   19.2942 S   0  0  0  0  0  0  0  0  0  0  0  0
    8.6109  -15.3718   19.2481 C   0  0  0  0  0  0  0  0  0  0  0  0
    7.3620  -15.4884   19.4009 O   0  0  0  0  0  0  0  0  0  0  0  0
    9.4718  -18.7890   20.3248 C   0  0  0  0  0  0  0  0  0  0  0  0
    9.7363  -17.9322   21.5330 C   0  0  1  0  0  0  0  0  0  0  0  0
   11.1109  -17.7298   21.6387 O   0  0  0  0  0  0  0  0  0  0  0  0
    9.0019  -16.6224   21.3849 C   0  0  2  0  0  0  0  0  0  0  0  0
    9.4888  -15.9193   20.2143 N   0  0  0  0  0  0  0  0  0  0  0  0
    9.2653  -15.7899   22.5940 C   0  0  0  0  0  0  0  0  0  0  0  0
   10.0947  -14.8460   22.5513 O   0  0  0  0  0  0  0  0  0  0  0  0
    6.4105  -11.1119   27.7584 C   0  0  0  0  0  0  0  0  0  0  0  0
    6.1116  -12.2464   26.3688 S   0  0  0  0  0  0  0  0  0  0  0  0
    7.5643  -13.3447   26.2626 C   0  0  0  0  0  0  0  0  0  0  0  0
    7.4784  -14.2475   25.0664 C   0  0  0  0  0  0  0  0  0  0  0  0
    8.6473  -15.1384   24.9725 C   0  0  2  0  0  0  0  0  0  0  0  0
    8.6036  -16.0239   23.8192 N   0  0  0  0  0  0  0  0  0  0  0  0
    8.9465  -15.9307   26.1553 C   0  0  0  0  0  0  0  0  0  0  0  0
    9.1300  -15.4172   27.2799 O   0  0  0  0  0  0  0  0  0  0  0  0
    9.0490  -17.3436   26.1039 O   0  0  0  0  0  0  0  0  0  0  0  0
  2  1  1  6
  2  5  1  0
  3  2  1  0
  4  3  1  0
  5 11  1  0
  5  6  2  0
  8  7  1  6
  8 10  1  0
  8  9  1  0
 10 12  1  0
 10 11  1  6
 12 13  2  0
 14 15  1  0
 15 16  1  0
 18 17  1  1
 17 16  1  0
 18 20  1  0
 19 12  1  0
 19 18  1  0
 20 22  1  0
 21 20  2  0
M  END
$$$$
