CTM.pdb
     RDKit          3D

 22 21  0  0  1  0  0  0  0  0999 V2000
    8.4058  -14.9499   17.3263 N   0  0  0  0  0  0  0  0  0  0  0  0
    8.9128  -14.5327   18.6020 C   0  0  1  0  0  0  0  0  0  0  0  0
    8.3745  -13.1472   18.8944 C   0  0  0  0  0  0  0  0  0  0  0  0
    9.0850  -11.9127   17.7576 S   0  0  0  0  0  0  0  0  0  0  0  0
    8.4938  -15.4178   19.7060 C   0  0  0  0  0  0  0  0  0  0  0  0
    7.6714  -16.3354   19.4262 O   0  0  0  0  0  0  0  0  0  0  0  0
    8.7875  -18.0035   20.2970 C   0  0  0  0  0  0  0  0  0  0  0  0
    9.3267  -17.5953   21.6411 C   0  0  1  0  0  0  0  0  0  0  0  0
   10.7128  -17.4883   21.5472 O   0  0  0  0  0  0  0  0  0  0  0  0
    8.7047  -16.2825   22.0492 C   0  0  2  0  0  0  0  0  0  0  0  0
    8.9662  -15.2816   21.0336 N   0  0  0  0  0  0  0  0  0  0  0  0
    9.3226  -15.8421   23.3332 C   0  0  0  0  0  0  0  0  0  0  0  0
   10.4764  -15.3430   23.3487 O   0  0  0  0  0  0  0  0  0  0  0  0
    5.4117  -12.5278   26.7461 C   0  0  0  0  0  0  0  0  0  0  0  0
    6.9893  -12.0347   27.5046 S   0  0  0  0  0  0  0  0  0  0  0  0
    8.1242  -13.4524   27.3307 C   0  0  0  0  0  0  0  0  0  0  0  0
    7.8158  -14.2488   26.0963 C   0  0  0  0  0  0  0  0  0  0  0  0
    8.9175  -15.1625   25.7493 C   0  0  2  0  0  0  0  0  0  0  0  0
    8.6472  -15.9656   24.5669 N   0  0  0  0  0  0  0  0  0  0  0  0
    9.3805  -16.0415   26.8119 C   0  0  0  0  0  0  0  0  0  0  0  0
    9.2468  -17.2832   26.7635 O   0  0  0  0  0  0  0  0  0  0  0  0
   10.0160  -15.5397   27.9754 O   0  0  0  0  0  0  0  0  0  0  0  0
  2  1  1  6
  2  5  1  0
  3  2  1  0
  4  3  1  0
  5 11  1  0
  5  6  2  0
  8  7  1  6
  8 10  1  0
  8  9  1  0
 10 12  1  0
 10 11  1  6
 12 13  2  0
 14 15  1  0
 15 16  1  0
 18 17  1  1
 17 16  1  0
 18 20  1  0
 19 12  1  0
 19 18  1  0
 20 22  1  0
 21 20  2  0
M  END
$$$$
