CTM.pdb
     RDKit          3D

 22 21  0  0  1  0  0  0  0  0999 V2000
    8.0026  -15.4359   17.0373 N   0  0  0  0  0  0  0  0  0  0  0  0
    8.6108  -14.7864   18.1628 C   0  0  1  0  0  0  0  0  0  0  0  0
    8.1433  -13.3456   18.1864 C   0  0  0  0  0  0  0  0  0  0  0  0
    8.8170  -12.4597   19.6295 S   0  0  0  0  0  0  0  0  0  0  0  0
    8.2381  -15.3991   19.4524 C   0  0  0  0  0  0  0  0  0  0  0  0
    7.0043  -15.4936   19.7083 O   0  0  0  0  0  0  0  0  0  0  0  0
    9.0172  -18.7472   20.6443 C   0  0  0  0  0  0  0  0  0  0  0  0
    9.4738  -17.8468   21.7600 C   0  0  1  0  0  0  0  0  0  0  0  0
   10.8585  -17.7131   21.6814 O   0  0  0  0  0  0  0  0  0  0  0  0
    8.7884  -16.5086   21.6317 C   0  0  2  0  0  0  0  0  0  0  0  0
    9.1862  -15.8733   20.3907 N   0  0  0  0  0  0  0  0  0  0  0  0
    9.2102  -15.6467   22.7735 C   0  0  0  0  0  0  0  0  0  0  0  0
   10.2162  -14.8995   22.6722 O   0  0  0  0  0  0  0  0  0  0  0  0
    5.4838  -12.2813   26.2391 C   0  0  0  0  0  0  0  0  0  0  0  0
    6.8290  -12.1399   27.4548 S   0  0  0  0  0  0  0  0  0  0  0  0
    8.1354  -13.3014   26.9334 C   0  0  0  0  0  0  0  0  0  0  0  0
    7.7859  -13.9669   25.6340 C   0  0  0  0  0  0  0  0  0  0  0  0
    8.8729  -14.8407   25.1610 C   0  0  2  0  0  0  0  0  0  0  0  0
    8.5073  -15.6343   23.9979 N   0  0  0  0  0  0  0  0  0  0  0  0
    9.4672  -15.7207   26.1554 C   0  0  0  0  0  0  0  0  0  0  0  0
   10.0944  -15.2887   27.1464 O   0  0  0  0  0  0  0  0  0  0  0  0
    9.3703  -17.1316   26.0602 O   0  0  0  0  0  0  0  0  0  0  0  0
  2  1  1  6
  2  5  1  0
  3  2  1  0
  4  3  1  0
  5 11  1  0
  5  6  2  0
  8  7  1  6
  8 10  1  0
  8  9  1  0
 10 12  1  0
 10 11  1  6
 12 13  2  0
 14 15  1  0
 15 16  1  0
 18 17  1  1
 17 16  1  0
 18 20  1  0
 19 12  1  0
 19 18  1  0
 20 22  1  0
 21 20  2  0
M  END
$$$$
