CTM.pdb
     RDKit          3D

 22 21  0  0  1  0  0  0  0  0999 V2000
    7.9760  -14.7439   16.9350 N   0  0  0  0  0  0  0  0  0  0  0  0
    8.6122  -14.2901   18.1382 C   0  0  1  0  0  0  0  0  0  0  0  0
    8.2338  -12.8393   18.3547 C   0  0  0  0  0  0  0  0  0  0  0  0
    8.9635  -12.1924   19.8942 S   0  0  0  0  0  0  0  0  0  0  0  0
    8.1903  -15.0458   19.3334 C   0  0  0  0  0  0  0  0  0  0  0  0
    6.9484  -15.2035   19.5046 O   0  0  0  0  0  0  0  0  0  0  0  0
    9.1333  -18.4742   20.2438 C   0  0  0  0  0  0  0  0  0  0  0  0
    9.4295  -17.6608   21.4745 C   0  0  1  0  0  0  0  0  0  0  0  0
   10.8021  -17.4274   21.5300 O   0  0  0  0  0  0  0  0  0  0  0  0
    8.6580  -16.3655   21.4125 C   0  0  2  0  0  0  0  0  0  0  0  0
    9.1010  -15.5874   20.2723 N   0  0  0  0  0  0  0  0  0  0  0  0
    8.9257  -15.5922   22.6595 C   0  0  0  0  0  0  0  0  0  0  0  0
    9.8214  -14.7104   22.6845 O   0  0  0  0  0  0  0  0  0  0  0  0
    6.2593  -10.9119   26.6346 C   0  0  0  0  0  0  0  0  0  0  0  0
    5.9021  -12.5970   27.2180 S   0  0  0  0  0  0  0  0  0  0  0  0
    7.3516  -13.6203   26.7941 C   0  0  0  0  0  0  0  0  0  0  0  0
    7.1782  -14.2841   25.4590 C   0  0  0  0  0  0  0  0  0  0  0  0
    8.3663  -15.0695   25.0838 C   0  0  2  0  0  0  0  0  0  0  0  0
    8.1947  -15.8153   23.8467 N   0  0  0  0  0  0  0  0  0  0  0  0
    8.8871  -15.9700   26.1007 C   0  0  0  0  0  0  0  0  0  0  0  0
    8.8147  -17.2135   25.9984 O   0  0  0  0  0  0  0  0  0  0  0  0
    9.5130  -15.4884   27.2778 O   0  0  0  0  0  0  0  0  0  0  0  0
  2  1  1  6
  2  5  1  0
  3  2  1  0
  4  3  1  0
  5 11  1  0
  5  6  2  0
  8  7  1  6
  8 10  1  0
  8  9  1  0
 10 12  1  0
 10 11  1  6
 12 13  2  0
 14 15  1  0
 15 16  1  0
 18 17  1  1
 17 16  1  0
 18 20  1  0
 19 12  1  0
 19 18  1  0
 20 22  1  0
 21 20  2  0
M  END
$$$$
