CTM.pdb
     RDKit          3D

 22 21  0  0  1  0  0  0  0  0999 V2000
    5.5238  -13.7267   26.4824 N   0  0  0  0  0  0  0  0  0  0  0  0
    6.1000  -13.4061   25.2082 C   0  0  1  0  0  0  0  0  0  0  0  0
    6.7921  -12.0638   25.3268 C   0  0  0  0  0  0  0  0  0  0  0  0
    7.6340  -11.8982   26.9346 S   0  0  0  0  0  0  0  0  0  0  0  0
    7.1062  -14.3910   24.7666 C   0  0  0  0  0  0  0  0  0  0  0  0
    7.6244  -15.1219   25.6577 O   0  0  0  0  0  0  0  0  0  0  0  0
    7.1611  -15.1198   20.9077 C   0  0  0  0  0  0  0  0  0  0  0  0
    8.4491  -15.6455   21.4810 C   0  0  1  0  0  0  0  0  0  0  0  0
    9.4950  -14.8467   21.0233 O   0  0  0  0  0  0  0  0  0  0  0  0
    8.3675  -15.6268   22.9876 C   0  0  2  0  0  0  0  0  0  0  0  0
    7.5034  -14.5447   23.4165 N   0  0  0  0  0  0  0  0  0  0  0  0
    9.7360  -15.3995   23.5353 C   0  0  0  0  0  0  0  0  0  0  0  0
   10.2201  -14.2402   23.5840 O   0  0  0  0  0  0  0  0  0  0  0  0
   11.8200  -13.7850   28.7383 C   0  0  0  0  0  0  0  0  0  0  0  0
   10.4982  -15.0328   28.7935 S   0  0  0  0  0  0  0  0  0  0  0  0
   11.0449  -16.4270   27.7518 C   0  0  0  0  0  0  0  0  0  0  0  0
   10.3004  -16.4582   26.4487 C   0  0  0  0  0  0  0  0  0  0  0  0
   11.2191  -16.4754   25.2978 C   0  0  2  0  0  0  0  0  0  0  0  0
   10.5333  -16.4614   24.0150 N   0  0  0  0  0  0  0  0  0  0  0  0
   12.2093  -17.5410   25.2835 C   0  0  0  0  0  0  0  0  0  0  0  0
   13.0425  -17.6971   26.2020 O   0  0  0  0  0  0  0  0  0  0  0  0
   12.2900  -18.4740   24.2194 O   0  0  0  0  0  0  0  0  0  0  0  0
  2  1  1  1
  2  5  1  0
  3  2  1  0
  4  3  1  0
  5 11  1  0
  5  6  2  0
  8  7  1  6
  8 10  1  0
  8  9  1  0
 10 12  1  0
 10 11  1  6
 12 13  2  0
 14 15  1  0
 15 16  1  0
 18 17  1  1
 17 16  1  0
 18 20  1  0
 19 12  1  0
 19 18  1  0
 20 22  1  0
 21 20  2  0
M  END
$$$$
