CTM.pdb
     RDKit          3D

 22 21  0  0  1  0  0  0  0  0999 V2000
   11.4988  -15.5377   17.5816 N   0  0  0  0  0  0  0  0  0  0  0  0
   11.7534  -15.5309   18.9935 C   0  0  1  0  0  0  0  0  0  0  0  0
   12.3252  -14.1779   19.3640 C   0  0  0  0  0  0  0  0  0  0  0  0
   14.1406  -14.1657   19.2051 S   0  0  0  0  0  0  0  0  0  0  0  0
   10.5349  -15.7378   19.7998 C   0  0  0  0  0  0  0  0  0  0  0  0
    9.4703  -15.2021   19.3799 O   0  0  0  0  0  0  0  0  0  0  0  0
    8.9841  -18.9675   20.7514 C   0  0  0  0  0  0  0  0  0  0  0  0
    9.1586  -18.2068   22.0378 C   0  0  1  0  0  0  0  0  0  0  0  0
   10.2945  -18.6883   22.6853 O   0  0  0  0  0  0  0  0  0  0  0  0
    9.2878  -16.7348   21.7320 C   0  0  2  0  0  0  0  0  0  0  0  0
   10.5134  -16.4948   20.9959 N   0  0  0  0  0  0  0  0  0  0  0  0
    9.3419  -15.9844   23.0198 C   0  0  0  0  0  0  0  0  0  0  0  0
   10.4465  -15.7163   23.5570 O   0  0  0  0  0  0  0  0  0  0  0  0
    6.2205  -11.0563   28.0600 C   0  0  0  0  0  0  0  0  0  0  0  0
    6.4666  -11.6997   26.3768 S   0  0  0  0  0  0  0  0  0  0  0  0
    6.8612  -13.4730   26.5424 C   0  0  0  0  0  0  0  0  0  0  0  0
    6.8652  -14.1572   25.2063 C   0  0  0  0  0  0  0  0  0  0  0  0
    8.1452  -14.8384   24.9481 C   0  0  2  0  0  0  0  0  0  0  0  0
    8.1716  -15.5501   23.6796 N   0  0  0  0  0  0  0  0  0  0  0  0
    8.6174  -15.7337   25.9929 C   0  0  0  0  0  0  0  0  0  0  0  0
    8.9421  -15.3283   27.1297 O   0  0  0  0  0  0  0  0  0  0  0  0
    8.7390  -17.1304   25.7837 O   0  0  0  0  0  0  0  0  0  0  0  0
  2  1  1  6
  2  5  1  0
  3  2  1  0
  4  3  1  0
  5 11  1  0
  5  6  2  0
  8  7  1  6
  8 10  1  0
  8  9  1  0
 10 12  1  0
 10 11  1  1
 12 13  2  0
 14 15  1  0
 15 16  1  0
 18 17  1  1
 17 16  1  0
 18 20  1  0
 19 12  1  0
 19 18  1  0
 20 22  1  0
 21 20  2  0
M  END
$$$$
