CTM.pdb
     RDKit          3D

 22 21  0  0  1  0  0  0  0  0999 V2000
    8.1551  -14.3502   17.3284 N   0  0  0  0  0  0  0  0  0  0  0  0
    9.0447  -14.5557   18.4350 C   0  0  1  0  0  0  0  0  0  0  0  0
    9.6441  -13.2171   18.8144 C   0  0  0  0  0  0  0  0  0  0  0  0
    8.3513  -12.0400   19.3284 S   0  0  0  0  0  0  0  0  0  0  0  0
    8.3649  -15.0959   19.6283 C   0  0  0  0  0  0  0  0  0  0  0  0
    7.1227  -14.8865   19.7258 O   0  0  0  0  0  0  0  0  0  0  0  0
    8.1949  -18.6079   20.6682 C   0  0  0  0  0  0  0  0  0  0  0  0
    8.6907  -17.8704   21.8824 C   0  0  1  0  0  0  0  0  0  0  0  0
   10.0711  -18.0392   21.9687 O   0  0  0  0  0  0  0  0  0  0  0  0
    8.3261  -16.4111   21.7617 C   0  0  2  0  0  0  0  0  0  0  0  0
    9.0346  -15.8217   20.6426 N   0  0  0  0  0  0  0  0  0  0  0  0
    8.7349  -15.7134   23.0150 C   0  0  0  0  0  0  0  0  0  0  0  0
    9.9196  -15.3224   23.1710 O   0  0  0  0  0  0  0  0  0  0  0  0
    5.5447  -11.3672   26.7225 C   0  0  0  0  0  0  0  0  0  0  0  0
    7.2407  -11.7522   27.2542 S   0  0  0  0  0  0  0  0  0  0  0  0
    7.3811  -13.5706   27.2938 C   0  0  0  0  0  0  0  0  0  0  0  0
    7.0061  -14.1749   25.9718 C   0  0  0  0  0  0  0  0  0  0  0  0
    8.1565  -14.8316   25.3283 C   0  0  2  0  0  0  0  0  0  0  0  0
    7.8216  -15.4667   24.0631 N   0  0  0  0  0  0  0  0  0  0  0  0
    8.8912  -15.7844   26.1460 C   0  0  0  0  0  0  0  0  0  0  0  0
    8.6688  -17.0137   26.1097 O   0  0  0  0  0  0  0  0  0  0  0  0
    9.9113  -15.3735   27.0404 O   0  0  0  0  0  0  0  0  0  0  0  0
  2  1  1  6
  2  5  1  0
  3  2  1  0
  4  3  1  0
  5 11  1  0
  5  6  2  0
  8  7  1  6
  8 10  1  0
  8  9  1  0
 10 12  1  0
 10 11  1  6
 12 13  2  0
 14 15  1  0
 15 16  1  0
 18 17  1  1
 17 16  1  0
 18 20  1  0
 19 12  1  0
 19 18  1  0
 20 22  1  0
 21 20  2  0
M  END
$$$$
