CTM.pdb
     RDKit          3D

 22 21  0  0  1  0  0  0  0  0999 V2000
    8.1308  -15.2480   16.8915 N   0  0  0  0  0  0  0  0  0  0  0  0
    8.6947  -14.6849   18.0844 C   0  0  1  0  0  0  0  0  0  0  0  0
    8.3913  -13.2008   18.0956 C   0  0  0  0  0  0  0  0  0  0  0  0
    9.0017  -12.4166   19.6233 S   0  0  0  0  0  0  0  0  0  0  0  0
    8.1313  -15.2662   19.3182 C   0  0  0  0  0  0  0  0  0  0  0  0
    6.8723  -15.2768   19.4254 O   0  0  0  0  0  0  0  0  0  0  0  0
    8.1801  -18.5998   20.5112 C   0  0  0  0  0  0  0  0  0  0  0  0
    8.7553  -17.8277   21.6674 C   0  0  1  0  0  0  0  0  0  0  0  0
   10.1421  -17.9604   21.6411 O   0  0  0  0  0  0  0  0  0  0  0  0
    8.3436  -16.3805   21.5534 C   0  0  2  0  0  0  0  0  0  0  0  0
    8.9273  -15.7992   20.3605 N   0  0  0  0  0  0  0  0  0  0  0  0
    8.8515  -15.6459   22.7480 C   0  0  0  0  0  0  0  0  0  0  0  0
   10.0235  -15.1913   22.7677 O   0  0  0  0  0  0  0  0  0  0  0  0
    5.6851  -11.3475   26.1481 C   0  0  0  0  0  0  0  0  0  0  0  0
    6.4543  -12.1516   27.5865 S   0  0  0  0  0  0  0  0  0  0  0  0
    7.7673  -13.2417   26.9420 C   0  0  0  0  0  0  0  0  0  0  0  0
    7.3645  -13.8679   25.6386 C   0  0  0  0  0  0  0  0  0  0  0  0
    8.4533  -14.6763   25.0642 C   0  0  2  0  0  0  0  0  0  0  0  0
    8.0487  -15.4336   23.8899 N   0  0  0  0  0  0  0  0  0  0  0  0
    9.1388  -15.5732   25.9817 C   0  0  0  0  0  0  0  0  0  0  0  0
    8.8638  -16.7896   26.0642 O   0  0  0  0  0  0  0  0  0  0  0  0
   10.1679  -15.1189   26.8443 O   0  0  0  0  0  0  0  0  0  0  0  0
  2  1  1  6
  2  5  1  0
  3  2  1  0
  4  3  1  0
  5 11  1  0
  5  6  2  0
  8  7  1  6
  8 10  1  0
  8  9  1  0
 10 12  1  0
 10 11  1  6
 12 13  2  0
 14 15  1  0
 15 16  1  0
 18 17  1  1
 17 16  1  0
 18 20  1  0
 19 12  1  0
 19 18  1  0
 20 22  1  0
 21 20  2  0
M  END
$$$$
