RAR.pdb
     RDKit          3D

 28 27  0  0  1  0  0  0  0  0999 V2000
    6.4378  -16.9953   11.1866 N   0  0  0  0  0  0  0  0  0  0  0  0
    7.0794  -17.7854   12.1674 C   0  0  0  0  0  0  0  0  0  0  0  0
    7.7770  -18.8305   11.8318 N   0  0  0  0  0  0  0  0  0  0  0  0
    6.9491  -17.4170   13.5309 N   0  0  0  0  0  0  0  0  0  0  0  0
    8.1155  -17.4404   14.3851 C   0  0  0  0  0  0  0  0  0  0  0  0
    7.6290  -17.6588   15.8279 C   0  0  0  0  0  0  0  0  0  0  0  0
    6.8006  -16.4515   16.1956 C   0  0  0  0  0  0  0  0  0  0  0  0
    7.5329  -15.1587   16.1784 C   0  0  2  0  0  0  0  0  0  0  0  0
    8.6185  -15.2397   15.1907 N   0  0  0  0  0  0  0  0  0  0  0  0
    8.1600  -14.7455   17.4343 C   0  0  0  0  0  0  0  0  0  0  0  0
    9.3478  -15.1373   17.6485 O   0  0  0  0  0  0  0  0  0  0  0  0
    8.3236  -19.3445   12.5430 C   0  0  0  0  0  0  0  0  0  0  0  0
    7.3925  -12.7016   20.5310 C   0  0  1  0  0  0  0  0  0  0  0  0
    8.2232  -13.6469   19.6529 N   0  0  0  0  0  0  0  0  0  0  0  0
    7.5577  -13.9496   18.4259 C   0  0  0  0  0  0  0  0  0  0  0  0
    8.4750  -14.8545   20.4865 O   0  0  0  0  0  0  0  0  0  0  0  0
    7.6491  -15.8017   20.4223 N   0  0  0  0  0  0  0  0  0  0  0  0
   14.8334  -21.3216   23.9780 C   0  0  0  0  0  0  0  0  0  0  0  0
   14.5495  -20.2210   23.1154 N   0  0  0  0  0  0  0  0  0  0  0  0
   15.4272  -19.8234   22.2427 N   0  0  0  0  0  0  0  0  0  0  0  0
   13.3199  -19.5249   23.1712 C   0  0  0  0  0  0  0  0  0  0  0  0
   13.0699  -18.4221   22.2102 C   0  0  0  0  0  0  0  0  0  0  0  0
   11.7486  -17.8721   22.5558 C   0  0  0  0  0  0  0  0  0  0  0  0
   11.1407  -16.7418   21.8761 C   0  0  1  0  0  0  0  0  0  0  0  0
    9.7950  -16.2178   22.1792 N   0  0  0  0  0  0  0  0  0  0  0  0
    9.5858  -14.9875   21.3382 C   0  0  0  0  0  0  0  0  0  0  0  0
    9.7069  -15.7051   23.5676 O   0  0  0  0  0  0  0  0  0  0  0  0
    9.6745  -14.5310   23.9432 O   0  0  0  0  0  0  0  0  0  0  0  0
  2  1  1  0
  3  2  2  0
  4  2  1  0
  5  4  1  0
  6  5  1  0
  7  6  1  0
  8  9  1  6
  8  7  1  0
 10  8  1  0
 11 10  2  0
 13 12  1  6
 13 15  1  0
 13 14  1  0
 14 10  1  0
 15 16  2  0
 18 17  1  0
 18 19  2  0
 20 18  1  0
 21 22  1  0
 21 20  1  0
 23 22  1  0
 24 23  1  6
 25 24  1  0
 25 15  1  0
 26 28  1  0
 26 24  1  0
 27 26  2  0
M  END
$$$$
