RAR.pdb
     RDKit          3D

 28 27  0  0  1  0  0  0  0  0999 V2000
    9.8212  -18.9902   12.3695 N   0  0  0  0  0  0  0  0  0  0  0  0
    8.4365  -19.2178   12.1996 C   0  0  0  0  0  0  0  0  0  0  0  0
    7.9789  -20.4144   11.9755 N   0  0  0  0  0  0  0  0  0  0  0  0
    7.5500  -18.1134   12.2782 N   0  0  0  0  0  0  0  0  0  0  0  0
    8.0623  -16.8215   12.6773 C   0  0  0  0  0  0  0  0  0  0  0  0
    8.8507  -17.0190   13.9833 C   0  0  0  0  0  0  0  0  0  0  0  0
    9.3875  -15.6641   14.3770 C   0  0  0  0  0  0  0  0  0  0  0  0
    8.4215  -14.7891   15.0905 C   0  0  2  0  0  0  0  0  0  0  0  0
    8.1609  -13.5985   14.2687 N   0  0  0  0  0  0  0  0  0  0  0  0
    8.8356  -14.2910   16.4026 C   0  0  0  0  0  0  0  0  0  0  0  0
   10.0758  -14.0953   16.5861 O   0  0  0  0  0  0  0  0  0  0  0  0
    6.9687  -20.5666   11.8170 C   0  0  0  0  0  0  0  0  0  0  0  0
    7.4016  -13.0236   19.6507 C   0  0  1  0  0  0  0  0  0  0  0  0
    8.4763  -13.6834   18.7764 N   0  0  0  0  0  0  0  0  0  0  0  0
    7.9749  -14.0102   17.4795 C   0  0  0  0  0  0  0  0  0  0  0  0
    8.9361  -14.8786   19.5357 O   0  0  0  0  0  0  0  0  0  0  0  0
    8.8325  -16.0058   18.9863 N   0  0  0  0  0  0  0  0  0  0  0  0
   16.1142  -15.9453   17.0106 C   0  0  0  0  0  0  0  0  0  0  0  0
   15.7670  -14.8759   17.8891 N   0  0  0  0  0  0  0  0  0  0  0  0
   15.8956  -13.6400   17.5069 N   0  0  0  0  0  0  0  0  0  0  0  0
   15.2752  -15.1099   19.1941 C   0  0  0  0  0  0  0  0  0  0  0  0
   13.9727  -15.8008   19.3621 C   0  0  0  0  0  0  0  0  0  0  0  0
   13.2532  -15.0639   20.4142 C   0  0  0  0  0  0  0  0  0  0  0  0
   11.8356  -14.7537   20.3585 C   0  0  1  0  0  0  0  0  0  0  0  0
   10.8056  -15.4329   21.1679 N   0  0  0  0  0  0  0  0  0  0  0  0
    9.4780  -14.8093   20.8313 C   0  0  0  0  0  0  0  0  0  0  0  0
   10.9658  -15.1431   22.6131 O   0  0  0  0  0  0  0  0  0  0  0  0
   10.4581  -14.2278   23.2652 O   0  0  0  0  0  0  0  0  0  0  0  0
  2  1  1  0
  3  2  2  0
  4  2  1  0
  5  4  1  0
  6  5  1  0
  7  6  1  0
  8  9  1  6
  8  7  1  0
 10  8  1  0
 11 10  2  0
 13 12  1  6
 13 15  1  0
 13 14  1  0
 14 10  1  0
 15 16  2  0
 18 17  1  0
 18 19  2  0
 20 18  1  0
 21 22  1  0
 21 20  1  0
 23 22  1  0
 24 23  1  6
 25 24  1  0
 25 15  1  0
 26 28  1  0
 26 24  1  0
 27 26  2  0
M  END
$$$$
