RAR.pdb
     RDKit          3D

 28 27  0  0  1  0  0  0  0  0999 V2000
    8.3592  -12.3703   14.5715 N   0  0  0  0  0  0  0  0  0  0  0  0
    8.3628  -13.1968   13.4247 C   0  0  0  0  0  0  0  0  0  0  0  0
    8.2739  -12.6851   12.2324 N   0  0  0  0  0  0  0  0  0  0  0  0
    8.4659  -14.6008   13.5974 N   0  0  0  0  0  0  0  0  0  0  0  0
    8.8718  -15.1283   14.8810 C   0  0  0  0  0  0  0  0  0  0  0  0
    7.6238  -15.1738   15.7791 C   0  0  0  0  0  0  0  0  0  0  0  0
    8.0765  -15.6763   17.1286 C   0  0  0  0  0  0  0  0  0  0  0  0
    8.4583  -17.1118   17.1684 C   0  0  2  0  0  0  0  0  0  0  0  0
    7.2717  -17.9281   16.8746 N   0  0  0  0  0  0  0  0  0  0  0  0
    8.9888  -17.6126   18.4368 C   0  0  0  0  0  0  0  0  0  0  0  0
    8.2007  -17.6298   19.4312 O   0  0  0  0  0  0  0  0  0  0  0  0
    8.4094  -13.2791   11.3972 C   0  0  0  0  0  0  0  0  0  0  0  0
   12.0327  -19.3497   19.8291 C   0  0  1  0  0  0  0  0  0  0  0  0
   10.7380  -18.5322   19.9294 N   0  0  0  0  0  0  0  0  0  0  0  0
   10.2998  -18.0774   18.6483 C   0  0  0  0  0  0  0  0  0  0  0  0
   11.0379  -17.4153   20.8671 O   0  0  0  0  0  0  0  0  0  0  0  0
   11.5688  -16.3749   20.3990 N   0  0  0  0  0  0  0  0  0  0  0  0
   10.1431  -16.7849   29.6052 C   0  0  0  0  0  0  0  0  0  0  0  0
   10.3620  -15.4271   29.2252 N   0  0  0  0  0  0  0  0  0  0  0  0
   10.5264  -14.5075   30.1291 N   0  0  0  0  0  0  0  0  0  0  0  0
   10.4089  -15.0284   27.8693 C   0  0  0  0  0  0  0  0  0  0  0  0
    9.7648  -15.8840   26.8420 C   0  0  0  0  0  0  0  0  0  0  0  0
   10.5910  -15.7575   25.6300 C   0  0  0  0  0  0  0  0  0  0  0  0
   10.3364  -16.4845   24.3988 C   0  0  1  0  0  0  0  0  0  0  0  0
   11.1442  -16.3461   23.1718 N   0  0  0  0  0  0  0  0  0  0  0  0
   10.7582  -17.4663   22.2441 C   0  0  0  0  0  0  0  0  0  0  0  0
   12.5825  -16.5946   23.4321 O   0  0  0  0  0  0  0  0  0  0  0  0
   13.1524  -17.6788   23.5750 O   0  0  0  0  0  0  0  0  0  0  0  0
  2  1  1  0
  3  2  2  0
  4  2  1  0
  5  4  1  0
  6  5  1  0
  7  6  1  0
  8  9  1  1
  8  7  1  0
 10  8  1  0
 11 10  2  0
 13 12  1  6
 13 15  1  0
 13 14  1  0
 14 10  1  0
 15 16  2  0
 18 17  1  0
 18 19  2  0
 20 18  1  0
 21 22  1  0
 21 20  1  0
 23 22  1  0
 24 23  1  6
 25 24  1  0
 25 15  1  0
 26 28  1  0
 26 24  1  0
 27 26  2  0
M  END
$$$$
