RAR.pdb
     RDKit          3D

 28 27  0  0  1  0  0  0  0  0999 V2000
   10.3415  -19.5372   17.4085 N   0  0  0  0  0  0  0  0  0  0  0  0
   10.8071  -18.3335   17.9850 C   0  0  0  0  0  0  0  0  0  0  0  0
   11.2494  -17.3635   17.2401 N   0  0  0  0  0  0  0  0  0  0  0  0
   10.7834  -18.2007   19.3970 N   0  0  0  0  0  0  0  0  0  0  0  0
   10.9335  -19.3791   20.2214 C   0  0  0  0  0  0  0  0  0  0  0  0
    9.5725  -19.6595   20.8811 C   0  0  0  0  0  0  0  0  0  0  0  0
    9.7505  -20.8866   21.7421 C   0  0  0  0  0  0  0  0  0  0  0  0
    8.5566  -21.2743   22.5372 C   0  0  2  0  0  0  0  0  0  0  0  0
    7.4856  -21.6853   21.6181 N   0  0  0  0  0  0  0  0  0  0  0  0
    7.9775  -20.2396   23.3946 C   0  0  0  0  0  0  0  0  0  0  0  0
    7.3588  -19.2899   22.8243 O   0  0  0  0  0  0  0  0  0  0  0  0
   11.6109  -16.4962   17.6714 C   0  0  0  0  0  0  0  0  0  0  0  0
    7.4496  -19.4539   27.0554 C   0  0  1  0  0  0  0  0  0  0  0  0
    7.4897  -19.1324   25.5555 N   0  0  0  0  0  0  0  0  0  0  0  0
    8.0482  -20.2078   24.7995 C   0  0  0  0  0  0  0  0  0  0  0  0
    8.2740  -17.8728   25.4340 O   0  0  0  0  0  0  0  0  0  0  0  0
    9.5289  -17.9572   25.3960 N   0  0  0  0  0  0  0  0  0  0  0  0
    6.5151  -14.3208   19.0936 C   0  0  0  0  0  0  0  0  0  0  0  0
    7.7697  -13.7238   19.4185 N   0  0  0  0  0  0  0  0  0  0  0  0
    8.5467  -13.2697   18.4805 N   0  0  0  0  0  0  0  0  0  0  0  0
    8.2162  -13.6021   20.7547 C   0  0  0  0  0  0  0  0  0  0  0  0
    7.3870  -14.1677   21.8477 C   0  0  0  0  0  0  0  0  0  0  0  0
    8.1104  -13.8818   23.0978 C   0  0  0  0  0  0  0  0  0  0  0  0
    7.7133  -14.3952   24.3969 C   0  0  2  0  0  0  0  0  0  0  0  0
    8.5092  -15.3527   25.1888 N   0  0  0  0  0  0  0  0  0  0  0  0
    7.6833  -16.5990   25.3598 C   0  0  0  0  0  0  0  0  0  0  0  0
    8.7103  -14.8792   26.5794 O   0  0  0  0  0  0  0  0  0  0  0  0
    9.4522  -13.9771   26.9750 O   0  0  0  0  0  0  0  0  0  0  0  0
  2  1  1  0
  3  2  2  0
  4  2  1  0
  5  4  1  0
  6  5  1  0
  7  6  1  0
  8  9  1  6
  8  7  1  0
 10  8  1  0
 11 10  2  0
 13 12  1  6
 13 15  1  0
 13 14  1  0
 14 10  1  0
 15 16  2  0
 18 17  1  0
 18 19  2  0
 20 18  1  0
 21 22  1  0
 21 20  1  0
 23 22  1  0
 24 23  1  6
 25 24  1  0
 25 15  1  0
 26 28  1  0
 26 24  1  0
 27 26  2  0
M  END
$$$$
