RAR.pdb
     RDKit          3D

 28 27  0  0  1  0  0  0  0  0999 V2000
    8.8133  -18.2113   15.5160 N   0  0  0  0  0  0  0  0  0  0  0  0
    9.9582  -18.5337   16.2798 C   0  0  0  0  0  0  0  0  0  0  0  0
   10.0993  -19.7147   16.8059 N   0  0  0  0  0  0  0  0  0  0  0  0
   10.9556  -17.5422   16.4636 N   0  0  0  0  0  0  0  0  0  0  0  0
   10.6190  -16.1519   16.2530 C   0  0  0  0  0  0  0  0  0  0  0  0
    9.5268  -15.7802   17.2704 C   0  0  0  0  0  0  0  0  0  0  0  0
    9.2593  -14.3041   17.1024 C   0  0  0  0  0  0  0  0  0  0  0  0
    8.2182  -13.7479   18.0050 C   0  0  2  0  0  0  0  0  0  0  0  0
    8.0766  -12.3092   17.7389 N   0  0  0  0  0  0  0  0  0  0  0  0
    8.4653  -13.8700   19.4421 C   0  0  0  0  0  0  0  0  0  0  0  0
    9.4559  -13.2361   19.9184 O   0  0  0  0  0  0  0  0  0  0  0  0
   10.9020  -19.9189   17.4245 C   0  0  0  0  0  0  0  0  0  0  0  0
    6.9172  -15.2647   22.5796 C   0  0  1  0  0  0  0  0  0  0  0  0
    8.0912  -14.8075   21.7036 N   0  0  0  0  0  0  0  0  0  0  0  0
    7.6972  -14.6313   20.3421 C   0  0  0  0  0  0  0  0  0  0  0  0
    9.1462  -15.8447   21.8699 O   0  0  0  0  0  0  0  0  0  0  0  0
    9.1211  -16.8436   21.1051 N   0  0  0  0  0  0  0  0  0  0  0  0
   16.6335  -13.9416   19.9337 C   0  0  0  0  0  0  0  0  0  0  0  0
   15.3983  -14.0795   19.2328 N   0  0  0  0  0  0  0  0  0  0  0  0
   15.2245  -13.4999   18.0823 N   0  0  0  0  0  0  0  0  0  0  0  0
   14.3254  -14.8409   19.7511 C   0  0  0  0  0  0  0  0  0  0  0  0
   14.2384  -15.0627   21.2158 C   0  0  0  0  0  0  0  0  0  0  0  0
   13.0305  -15.8760   21.4338 C   0  0  0  0  0  0  0  0  0  0  0  0
   12.5221  -16.2321   22.7467 C   0  0  2  0  0  0  0  0  0  0  0  0
   11.2009  -16.8438   22.9864 N   0  0  0  0  0  0  0  0  0  0  0  0
   10.1648  -15.7628   22.8356 C   0  0  0  0  0  0  0  0  0  0  0  0
   11.0452  -17.2760   24.3961 O   0  0  0  0  0  0  0  0  0  0  0  0
   10.3516  -16.7612   25.2763 O   0  0  0  0  0  0  0  0  0  0  0  0
  2  1  1  0
  3  2  2  0
  4  2  1  0
  5  4  1  0
  6  5  1  0
  7  6  1  0
  8  9  1  6
  8  7  1  0
 10  8  1  0
 11 10  2  0
 13 12  1  1
 13 15  1  0
 13 14  1  0
 14 10  1  0
 15 16  2  0
 18 17  1  0
 18 19  2  0
 20 18  1  0
 21 22  1  0
 21 20  1  0
 23 22  1  0
 24 23  1  6
 25 24  1  0
 25 15  1  0
 26 28  1  0
 26 24  1  0
 27 26  2  0
M  END
$$$$
