RAR.pdb
     RDKit          3D

 28 27  0  0  1  0  0  0  0  0999 V2000
    8.4430  -17.2683   13.3096 N   0  0  0  0  0  0  0  0  0  0  0  0
    7.2634  -16.6826   12.7963 C   0  0  0  0  0  0  0  0  0  0  0  0
    6.9195  -16.8525   11.5536 N   0  0  0  0  0  0  0  0  0  0  0  0
    6.4568  -15.9027   13.6641 N   0  0  0  0  0  0  0  0  0  0  0  0
    6.9310  -15.6092   14.9980 C   0  0  0  0  0  0  0  0  0  0  0  0
    8.2546  -14.8376   14.8600 C   0  0  0  0  0  0  0  0  0  0  0  0
    8.7693  -14.6020   16.2594 C   0  0  0  0  0  0  0  0  0  0  0  0
    7.7923  -13.9824   17.1918 C   0  0  2  0  0  0  0  0  0  0  0  0
    7.5678  -12.5870   16.7877 N   0  0  0  0  0  0  0  0  0  0  0  0
    8.1736  -13.9372   18.6038 C   0  0  0  0  0  0  0  0  0  0  0  0
    9.2530  -13.3378   18.8965 O   0  0  0  0  0  0  0  0  0  0  0  0
    6.1056  -16.3488   11.1629 C   0  0  0  0  0  0  0  0  0  0  0  0
    6.8913  -15.0021   22.0029 C   0  0  1  0  0  0  0  0  0  0  0  0
    7.9423  -14.4979   21.0049 N   0  0  0  0  0  0  0  0  0  0  0  0
    7.4445  -14.5024   19.6661 C   0  0  0  0  0  0  0  0  0  0  0  0
    9.1258  -15.3832   21.1839 O   0  0  0  0  0  0  0  0  0  0  0  0
    9.2517  -16.3679   20.4107 N   0  0  0  0  0  0  0  0  0  0  0  0
   17.6883  -14.4310   21.5076 C   0  0  0  0  0  0  0  0  0  0  0  0
   17.2723  -15.6012   20.8051 N   0  0  0  0  0  0  0  0  0  0  0  0
   18.1495  -16.4572   20.3720 N   0  0  0  0  0  0  0  0  0  0  0  0
   15.9085  -15.8768   20.5530 C   0  0  0  0  0  0  0  0  0  0  0  0
   14.8755  -14.9469   21.0729 C   0  0  0  0  0  0  0  0  0  0  0  0
   13.7395  -15.7884   21.4842 C   0  0  0  0  0  0  0  0  0  0  0  0
   12.5054  -15.2639   22.0418 C   0  0  2  0  0  0  0  0  0  0  0  0
   11.3017  -16.0768   22.3022 N   0  0  0  0  0  0  0  0  0  0  0  0
   10.1054  -15.1734   22.1705 C   0  0  0  0  0  0  0  0  0  0  0  0
   11.2398  -16.5269   23.7135 O   0  0  0  0  0  0  0  0  0  0  0  0
   11.9943  -17.3103   24.2948 O   0  0  0  0  0  0  0  0  0  0  0  0
  2  1  1  0
  3  2  2  0
  4  2  1  0
  5  4  1  0
  6  5  1  0
  7  6  1  0
  8  9  1  6
  8  7  1  0
 10  8  1  0
 11 10  2  0
 13 12  1  1
 13 15  1  0
 13 14  1  0
 14 10  1  0
 15 16  2  0
 18 17  1  0
 18 19  2  0
 20 18  1  0
 21 22  1  0
 21 20  1  0
 23 22  1  0
 24 23  1  6
 25 24  1  0
 25 15  1  0
 26 28  1  0
 26 24  1  0
 27 26  2  0
M  END
$$$$
