RAR.pdb
     RDKit          3D

 28 27  0  0  1  0  0  0  0  0999 V2000
    7.5716  -12.9374   17.5202 N   0  0  0  0  0  0  0  0  0  0  0  0
    8.1635  -13.2326   18.7694 C   0  0  0  0  0  0  0  0  0  0  0  0
    9.2567  -12.6381   19.1477 N   0  0  0  0  0  0  0  0  0  0  0  0
    7.5417  -14.1929   19.6078 N   0  0  0  0  0  0  0  0  0  0  0  0
    8.0814  -14.4362   20.9270 C   0  0  0  0  0  0  0  0  0  0  0  0
    8.2270  -15.9584   21.0946 C   0  0  0  0  0  0  0  0  0  0  0  0
    8.9590  -16.4628   19.8745 C   0  0  0  0  0  0  0  0  0  0  0  0
    9.2220  -17.9251   19.8600 C   0  0  2  0  0  0  0  0  0  0  0  0
    8.0300  -18.6280   20.3559 N   0  0  0  0  0  0  0  0  0  0  0  0
   10.3387  -18.3971   20.6794 C   0  0  0  0  0  0  0  0  0  0  0  0
   10.0565  -19.0849   21.7076 O   0  0  0  0  0  0  0  0  0  0  0  0
    9.6953  -12.8771   20.0529 C   0  0  0  0  0  0  0  0  0  0  0  0
   14.0926  -18.6874   20.5177 C   0  0  1  0  0  0  0  0  0  0  0  0
   12.7309  -18.7358   21.2234 N   0  0  0  0  0  0  0  0  0  0  0  0
   11.7006  -18.1529   20.4241 C   0  0  0  0  0  0  0  0  0  0  0  0
   12.9238  -18.0309   22.5206 O   0  0  0  0  0  0  0  0  0  0  0  0
   13.8801  -18.3915   23.2546 N   0  0  0  0  0  0  0  0  0  0  0  0
   10.3585  -14.3073   30.5947 C   0  0  0  0  0  0  0  0  0  0  0  0
    9.9249  -14.7327   29.3035 N   0  0  0  0  0  0  0  0  0  0  0  0
    9.1363  -13.9829   28.5924 N   0  0  0  0  0  0  0  0  0  0  0  0
   10.3277  -15.9697   28.7494 C   0  0  0  0  0  0  0  0  0  0  0  0
    9.9121  -16.3112   27.3663 C   0  0  0  0  0  0  0  0  0  0  0  0
   11.1027  -16.1143   26.5227 C   0  0  0  0  0  0  0  0  0  0  0  0
   11.1525  -16.4357   25.1074 C   0  0  1  0  0  0  0  0  0  0  0  0
   12.3490  -16.2677   24.2604 N   0  0  0  0  0  0  0  0  0  0  0  0
   12.0930  -16.9866   22.9633 C   0  0  0  0  0  0  0  0  0  0  0  0
   13.5221  -16.9790   24.8227 O   0  0  0  0  0  0  0  0  0  0  0  0
   13.7548  -18.1900   24.8085 O   0  0  0  0  0  0  0  0  0  0  0  0
  2  1  1  0
  3  2  2  0
  4  2  1  0
  5  4  1  0
  6  5  1  0
  7  6  1  0
  8  9  1  1
  8  7  1  0
 10  8  1  0
 11 10  2  0
 13 12  1  6
 13 15  1  0
 13 14  1  0
 14 10  1  0
 15 16  2  0
 18 17  1  0
 18 19  2  0
 20 18  1  0
 21 22  1  0
 21 20  1  0
 23 22  1  0
 24 23  1  6
 25 24  1  0
 25 15  1  0
 26 28  1  0
 26 24  1  0
 27 26  2  0
M  END
$$$$
