RAR.pdb
     RDKit          3D

 28 27  0  0  1  0  0  0  0  0999 V2000
    1.5144  -20.0011   21.3794 N   0  0  0  0  0  0  0  0  0  0  0  0
    2.4001  -19.6085   20.3501 C   0  0  0  0  0  0  0  0  0  0  0  0
    2.7843  -20.4550   19.4406 N   0  0  0  0  0  0  0  0  0  0  0  0
    2.8651  -18.2687   20.3260 N   0  0  0  0  0  0  0  0  0  0  0  0
    3.8310  -17.8368   21.3114 C   0  0  0  0  0  0  0  0  0  0  0  0
    5.2173  -18.3069   20.8386 C   0  0  0  0  0  0  0  0  0  0  0  0
    6.2243  -17.7379   21.8087 C   0  0  0  0  0  0  0  0  0  0  0  0
    6.6713  -16.3528   21.5095 C   0  0  2  0  0  0  0  0  0  0  0  0
    7.4706  -16.3667   20.2759 N   0  0  0  0  0  0  0  0  0  0  0  0
    7.5028  -15.7008   22.5217 C   0  0  0  0  0  0  0  0  0  0  0  0
    8.7260  -16.0342   22.5733 O   0  0  0  0  0  0  0  0  0  0  0  0
    3.4622  -20.1698   18.7140 C   0  0  0  0  0  0  0  0  0  0  0  0
    7.1287  -13.3243   25.4497 C   0  0  1  0  0  0  0  0  0  0  0  0
    7.8093  -14.4208   24.6195 N   0  0  0  0  0  0  0  0  0  0  0  0
    7.0612  -14.7343   23.4439 C   0  0  0  0  0  0  0  0  0  0  0  0
    7.9605  -15.5847   25.5354 O   0  0  0  0  0  0  0  0  0  0  0  0
    6.9178  -16.1706   25.9264 N   0  0  0  0  0  0  0  0  0  0  0  0
    7.9952  -22.7390   23.5428 C   0  0  0  0  0  0  0  0  0  0  0  0
    7.1865  -21.5658   23.6171 N   0  0  0  0  0  0  0  0  0  0  0  0
    5.9184  -21.6199   23.3366 N   0  0  0  0  0  0  0  0  0  0  0  0
    7.7210  -20.3118   23.9933 C   0  0  0  0  0  0  0  0  0  0  0  0
    9.1390  -20.2306   24.4232 C   0  0  0  0  0  0  0  0  0  0  0  0
    9.3889  -18.8142   24.7381 C   0  0  0  0  0  0  0  0  0  0  0  0
    9.9345  -18.3514   26.0019 C   0  0  2  0  0  0  0  0  0  0  0  0
    9.3231  -17.2958   26.8322 N   0  0  0  0  0  0  0  0  0  0  0  0
    9.2062  -16.0592   25.9826 C   0  0  0  0  0  0  0  0  0  0  0  0
   10.2235  -16.8742   27.9322 O   0  0  0  0  0  0  0  0  0  0  0  0
   10.4822  -17.4781   28.9758 O   0  0  0  0  0  0  0  0  0  0  0  0
  2  1  1  0
  3  2  2  0
  4  2  1  0
  5  4  1  0
  6  5  1  0
  7  6  1  0
  8  9  1  6
  8  7  1  0
 10  8  1  0
 11 10  2  0
 13 12  1  6
 13 15  1  0
 13 14  1  0
 14 10  1  0
 15 16  2  0
 18 17  1  0
 18 19  2  0
 20 18  1  0
 21 22  1  0
 21 20  1  0
 23 22  1  0
 24 23  1  6
 25 24  1  0
 25 15  1  0
 26 28  1  0
 26 24  1  0
 27 26  2  0
M  END
$$$$
