RAR.pdb
     RDKit          3D

 28 27  0  0  1  0  0  0  0  0999 V2000
    6.0935  -14.7514   17.7169 N   0  0  0  0  0  0  0  0  0  0  0  0
    7.3408  -14.1942   18.0800 C   0  0  0  0  0  0  0  0  0  0  0  0
    7.6413  -12.9683   17.7665 N   0  0  0  0  0  0  0  0  0  0  0  0
    8.2637  -14.9988   18.7960 N   0  0  0  0  0  0  0  0  0  0  0  0
    7.8667  -16.3218   19.2233 C   0  0  0  0  0  0  0  0  0  0  0  0
    8.8997  -16.8049   20.2556 C   0  0  0  0  0  0  0  0  0  0  0  0
    9.4345  -15.5734   20.9456 C   0  0  0  0  0  0  0  0  0  0  0  0
   10.7590  -15.7439   21.5971 C   0  0  2  0  0  0  0  0  0  0  0  0
   11.6034  -16.5924   20.7439 N   0  0  0  0  0  0  0  0  0  0  0  0
   10.7618  -16.3713   22.9190 C   0  0  0  0  0  0  0  0  0  0  0  0
   11.4299  -17.4416   23.0541 O   0  0  0  0  0  0  0  0  0  0  0  0
    8.5869  -12.5967   17.9574 C   0  0  0  0  0  0  0  0  0  0  0  0
    9.6405  -15.5676   26.4453 C   0  0  2  0  0  0  0  0  0  0  0  0
   10.3896  -16.3626   25.3674 N   0  0  0  0  0  0  0  0  0  0  0  0
   10.0861  -15.8886   24.0547 C   0  0  0  0  0  0  0  0  0  0  0  0
   10.0005  -17.7850   25.5720 O   0  0  0  0  0  0  0  0  0  0  0  0
    8.8289  -18.1286   25.2678 N   0  0  0  0  0  0  0  0  0  0  0  0
   14.8412  -22.1473   21.4556 C   0  0  0  0  0  0  0  0  0  0  0  0
   13.7897  -21.2567   21.0856 N   0  0  0  0  0  0  0  0  0  0  0  0
   13.7290  -20.7721   19.8809 N   0  0  0  0  0  0  0  0  0  0  0  0
   12.7828  -20.8679   21.9992 C   0  0  0  0  0  0  0  0  0  0  0  0
   12.7994  -21.4274   23.3736 C   0  0  0  0  0  0  0  0  0  0  0  0
   11.6466  -20.8323   24.0698 C   0  0  0  0  0  0  0  0  0  0  0  0
   11.3611  -21.0347   25.4792 C   0  0  2  0  0  0  0  0  0  0  0  0
   10.4455  -20.1895   26.2696 N   0  0  0  0  0  0  0  0  0  0  0  0
   10.8747  -18.7588   26.0863 C   0  0  0  0  0  0  0  0  0  0  0  0
   10.6116  -20.4151   27.7256 O   0  0  0  0  0  0  0  0  0  0  0  0
   10.3604  -21.4363   28.3696 O   0  0  0  0  0  0  0  0  0  0  0  0
  2  1  1  0
  3  2  2  0
  4  2  1  0
  5  4  1  0
  6  5  1  0
  7  6  1  0
  8  9  1  6
  8  7  1  0
 10  8  1  0
 11 10  2  0
 13 12  1  1
 13 15  1  0
 13 14  1  0
 14 10  1  0
 15 16  2  0
 18 17  1  0
 18 19  2  0
 20 18  1  0
 21 22  1  0
 21 20  1  0
 23 22  1  0
 24 23  1  6
 25 24  1  0
 25 15  1  0
 26 28  1  0
 26 24  1  0
 27 26  2  0
M  END
$$$$
