RAR.pdb
     RDKit          3D

 28 27  0  0  1  0  0  0  0  0999 V2000
    8.4070  -20.0033   11.2816 N   0  0  0  0  0  0  0  0  0  0  0  0
    8.5174  -18.8106   12.0321 C   0  0  0  0  0  0  0  0  0  0  0  0
    9.2562  -17.8249   11.6148 N   0  0  0  0  0  0  0  0  0  0  0  0
    7.8050  -18.7064   13.2542 N   0  0  0  0  0  0  0  0  0  0  0  0
    8.3029  -17.8305   14.2913 C   0  0  0  0  0  0  0  0  0  0  0  0
    8.7126  -16.5070   13.6229 C   0  0  0  0  0  0  0  0  0  0  0  0
    9.2633  -15.6205   14.7137 C   0  0  0  0  0  0  0  0  0  0  0  0
    8.2390  -14.9115   15.5236 C   0  0  2  0  0  0  0  0  0  0  0  0
    7.7452  -13.7561   14.7608 N   0  0  0  0  0  0  0  0  0  0  0  0
    8.6774  -14.3842   16.8163 C   0  0  0  0  0  0  0  0  0  0  0  0
    9.9271  -14.2767   17.0077 O   0  0  0  0  0  0  0  0  0  0  0  0
    9.3925  -16.9873   12.2053 C   0  0  0  0  0  0  0  0  0  0  0  0
    7.2252  -13.1116   20.0770 C   0  0  1  0  0  0  0  0  0  0  0  0
    8.3480  -13.5114   19.1104 N   0  0  0  0  0  0  0  0  0  0  0  0
    7.8303  -13.9856   17.8665 C   0  0  0  0  0  0  0  0  0  0  0  0
    9.1529  -14.5369   19.8294 O   0  0  0  0  0  0  0  0  0  0  0  0
    8.8413  -15.7468   19.6798 N   0  0  0  0  0  0  0  0  0  0  0  0
   14.1433  -16.3956   17.8587 C   0  0  0  0  0  0  0  0  0  0  0  0
   14.9030  -15.1906   17.7763 N   0  0  0  0  0  0  0  0  0  0  0  0
   15.3681  -14.7810   16.6336 N   0  0  0  0  0  0  0  0  0  0  0  0
   15.1792  -14.4012   18.9165 C   0  0  0  0  0  0  0  0  0  0  0  0
   14.7083  -14.8628   20.2459 C   0  0  0  0  0  0  0  0  0  0  0  0
   13.2937  -14.4650   20.3380 C   0  0  0  0  0  0  0  0  0  0  0  0
   12.4360  -14.7847   21.4654 C   0  0  2  0  0  0  0  0  0  0  0  0
   11.0551  -15.2894   21.3399 N   0  0  0  0  0  0  0  0  0  0  0  0
   10.2397  -14.2206   20.6636 C   0  0  0  0  0  0  0  0  0  0  0  0
   10.4028  -15.4346   22.6634 O   0  0  0  0  0  0  0  0  0  0  0  0
    9.5823  -14.6812   23.1927 O   0  0  0  0  0  0  0  0  0  0  0  0
  2  1  1  0
  3  2  2  0
  4  2  1  0
  5  4  1  0
  6  5  1  0
  7  6  1  0
  8  9  1  6
  8  7  1  0
 10  8  1  0
 11 10  2  0
 13 12  1  6
 13 15  1  0
 13 14  1  0
 14 10  1  0
 15 16  2  0
 18 17  1  0
 18 19  2  0
 20 18  1  0
 21 22  1  0
 21 20  1  0
 23 22  1  0
 24 23  1  6
 25 24  1  0
 25 15  1  0
 26 28  1  0
 26 24  1  0
 27 26  2  0
M  END
$$$$
