RAR.pdb
     RDKit          3D

 28 27  0  0  1  0  0  0  0  0999 V2000
    6.9923  -12.6411   17.6522 N   0  0  0  0  0  0  0  0  0  0  0  0
    6.9118  -13.9675   17.1702 C   0  0  0  0  0  0  0  0  0  0  0  0
    7.3454  -14.2741   15.9830 N   0  0  0  0  0  0  0  0  0  0  0  0
    6.3475  -14.9634   18.0077 N   0  0  0  0  0  0  0  0  0  0  0  0
    6.3694  -14.7783   19.4415 C   0  0  0  0  0  0  0  0  0  0  0  0
    7.6179  -15.4958   19.9824 C   0  0  0  0  0  0  0  0  0  0  0  0
    7.6439  -15.2603   21.4732 C   0  0  0  0  0  0  0  0  0  0  0  0
    8.3871  -14.0479   21.9044 C   0  0  2  0  0  0  0  0  0  0  0  0
    9.7743  -14.1456   21.4284 N   0  0  0  0  0  0  0  0  0  0  0  0
    8.4708  -13.8103   23.3459 C   0  0  0  0  0  0  0  0  0  0  0  0
    9.4208  -14.3700   23.9740 O   0  0  0  0  0  0  0  0  0  0  0  0
    7.2735  -15.2449   15.6348 C   0  0  0  0  0  0  0  0  0  0  0  0
    6.5969  -12.0471   26.1214 C   0  0  1  0  0  0  0  0  0  0  0  0
    7.7958  -12.7644   25.4868 N   0  0  0  0  0  0  0  0  0  0  0  0
    7.5869  -13.0131   24.0959 C   0  0  0  0  0  0  0  0  0  0  0  0
    7.9818  -14.0135   26.2752 O   0  0  0  0  0  0  0  0  0  0  0  0
    7.0920  -14.9000   26.1999 N   0  0  0  0  0  0  0  0  0  0  0  0
   12.6704  -21.1533   25.4531 C   0  0  0  0  0  0  0  0  0  0  0  0
   12.8091  -20.6793   26.7918 N   0  0  0  0  0  0  0  0  0  0  0  0
   13.7525  -21.1382   27.5595 N   0  0  0  0  0  0  0  0  0  0  0  0
   11.9398  -19.7047   27.3339 C   0  0  0  0  0  0  0  0  0  0  0  0
   11.6703  -18.4670   26.5608 C   0  0  0  0  0  0  0  0  0  0  0  0
   10.7775  -17.6494   27.3988 C   0  0  0  0  0  0  0  0  0  0  0  0
   10.2261  -16.3714   26.9844 C   0  0  1  0  0  0  0  0  0  0  0  0
    9.2986  -15.5646   27.8005 N   0  0  0  0  0  0  0  0  0  0  0  0
    9.0986  -14.2499   27.0962 C   0  0  0  0  0  0  0  0  0  0  0  0
    9.9070  -15.1730   29.0947 O   0  0  0  0  0  0  0  0  0  0  0  0
   10.3486  -14.0695   29.4235 O   0  0  0  0  0  0  0  0  0  0  0  0
  2  1  1  0
  3  2  2  0
  4  2  1  0
  5  4  1  0
  6  5  1  0
  7  6  1  0
  8  9  1  1
  8  7  1  0
 10  8  1  0
 11 10  2  0
 13 12  1  6
 13 15  1  0
 13 14  1  0
 14 10  1  0
 15 16  2  0
 18 17  1  0
 18 19  2  0
 20 18  1  0
 21 22  1  0
 21 20  1  0
 23 22  1  0
 24 23  1  6
 25 24  1  0
 25 15  1  0
 26 28  1  0
 26 24  1  0
 27 26  2  0
M  END
$$$$
