RAR.pdb
     RDKit          3D

 28 27  0  0  1  0  0  0  0  0999 V2000
    8.8753  -17.8702   15.1878 N   0  0  0  0  0  0  0  0  0  0  0  0
    7.7239  -17.1273   14.8405 C   0  0  0  0  0  0  0  0  0  0  0  0
    7.4354  -16.8856   13.5956 N   0  0  0  0  0  0  0  0  0  0  0  0
    6.8842  -16.6477   15.8781 N   0  0  0  0  0  0  0  0  0  0  0  0
    7.4468  -16.4010   17.1870 C   0  0  0  0  0  0  0  0  0  0  0  0
    8.4268  -15.2226   17.0555 C   0  0  0  0  0  0  0  0  0  0  0  0
    8.9799  -14.9602   18.4354 C   0  0  0  0  0  0  0  0  0  0  0  0
    8.1058  -14.1442   19.3175 C   0  0  2  0  0  0  0  0  0  0  0  0
    8.0830  -12.7619   18.8179 N   0  0  0  0  0  0  0  0  0  0  0  0
    8.4951  -14.0581   20.7254 C   0  0  0  0  0  0  0  0  0  0  0  0
    9.7357  -13.9913   20.9834 O   0  0  0  0  0  0  0  0  0  0  0  0
    6.6612  -16.2447   13.3533 C   0  0  0  0  0  0  0  0  0  0  0  0
    6.9392  -13.8625   24.1714 C   0  0  1  0  0  0  0  0  0  0  0  0
    8.0813  -14.0671   23.1671 N   0  0  0  0  0  0  0  0  0  0  0  0
    7.6100  -14.0429   21.8190 C   0  0  0  0  0  0  0  0  0  0  0  0
    8.7138  -15.3639   23.5345 O   0  0  0  0  0  0  0  0  0  0  0  0
    8.1059  -16.4249   23.2378 N   0  0  0  0  0  0  0  0  0  0  0  0
   15.9269  -16.7019   20.4350 C   0  0  0  0  0  0  0  0  0  0  0  0
   15.1071  -15.6371   20.9146 N   0  0  0  0  0  0  0  0  0  0  0  0
   15.4855  -14.4008   20.7790 N   0  0  0  0  0  0  0  0  0  0  0  0
   13.8662  -15.8762   21.5489 C   0  0  0  0  0  0  0  0  0  0  0  0
   13.5961  -17.2166   22.1257 C   0  0  0  0  0  0  0  0  0  0  0  0
   12.2253  -17.1617   22.6599 C   0  0  0  0  0  0  0  0  0  0  0  0
   11.9086  -16.8505   24.0426 C   0  0  2  0  0  0  0  0  0  0  0  0
   10.5381  -16.7896   24.5860 N   0  0  0  0  0  0  0  0  0  0  0  0
    9.9519  -15.4601   24.1939 C   0  0  0  0  0  0  0  0  0  0  0  0
   10.5382  -16.7424   26.0679 O   0  0  0  0  0  0  0  0  0  0  0  0
   10.2569  -15.7889   26.7976 O   0  0  0  0  0  0  0  0  0  0  0  0
  2  1  1  0
  3  2  2  0
  4  2  1  0
  5  4  1  0
  6  5  1  0
  7  6  1  0
  8  9  1  6
  8  7  1  0
 10  8  1  0
 11 10  2  0
 13 12  1  6
 13 15  1  0
 13 14  1  0
 14 10  1  0
 15 16  2  0
 18 17  1  0
 18 19  2  0
 20 18  1  0
 21 22  1  0
 21 20  1  0
 23 22  1  0
 24 23  1  6
 25 24  1  0
 25 15  1  0
 26 28  1  0
 26 24  1  0
 27 26  2  0
M  END
$$$$
