RAR.pdb
     RDKit          3D

 28 27  0  0  1  0  0  0  0  0999 V2000
    9.1732  -17.9645   13.5885 N   0  0  0  0  0  0  0  0  0  0  0  0
    7.7995  -17.7849   13.3081 C   0  0  0  0  0  0  0  0  0  0  0  0
    7.3099  -18.0924   12.1431 N   0  0  0  0  0  0  0  0  0  0  0  0
    6.9597  -17.2611   14.3241 N   0  0  0  0  0  0  0  0  0  0  0  0
    7.5269  -16.9371   15.6140 C   0  0  0  0  0  0  0  0  0  0  0  0
    8.2211  -15.5705   15.4850 C   0  0  0  0  0  0  0  0  0  0  0  0
    8.7736  -15.2322   16.8485 C   0  0  0  0  0  0  0  0  0  0  0  0
    7.8255  -14.5336   17.7546 C   0  0  2  0  0  0  0  0  0  0  0  0
    7.5630  -13.1884   17.2232 N   0  0  0  0  0  0  0  0  0  0  0  0
    8.2629  -14.3428   19.1378 C   0  0  0  0  0  0  0  0  0  0  0  0
    9.4677  -13.9908   19.3242 O   0  0  0  0  0  0  0  0  0  0  0  0
    6.2958  -18.0038   11.9623 C   0  0  0  0  0  0  0  0  0  0  0  0
    6.8807  -14.3514   22.6580 C   0  0  1  0  0  0  0  0  0  0  0  0
    7.9911  -14.3764   21.5992 N   0  0  0  0  0  0  0  0  0  0  0  0
    7.4606  -14.5164   20.2805 C   0  0  0  0  0  0  0  0  0  0  0  0
    8.8888  -15.5005   21.9827 O   0  0  0  0  0  0  0  0  0  0  0  0
    8.6857  -16.6264   21.4589 N   0  0  0  0  0  0  0  0  0  0  0  0
   16.8087  -17.7253   21.8428 C   0  0  0  0  0  0  0  0  0  0  0  0
   16.4800  -18.2818   23.1149 N   0  0  0  0  0  0  0  0  0  0  0  0
   17.0302  -19.3906   23.5119 N   0  0  0  0  0  0  0  0  0  0  0  0
   15.5553  -17.6610   23.9862 C   0  0  0  0  0  0  0  0  0  0  0  0
   14.7434  -16.5237   23.4866 C   0  0  0  0  0  0  0  0  0  0  0  0
   13.3382  -16.9526   23.5834 C   0  0  0  0  0  0  0  0  0  0  0  0
   12.2114  -16.1225   23.1958 C   0  0  1  0  0  0  0  0  0  0  0  0
   10.7997  -16.5393   23.3002 N   0  0  0  0  0  0  0  0  0  0  0  0
    9.9479  -15.3658   22.8978 C   0  0  0  0  0  0  0  0  0  0  0  0
   10.4041  -16.7855   24.7078 O   0  0  0  0  0  0  0  0  0  0  0  0
    9.7079  -16.0749   25.4366 O   0  0  0  0  0  0  0  0  0  0  0  0
  2  1  1  0
  3  2  2  0
  4  2  1  0
  5  4  1  0
  6  5  1  0
  7  6  1  0
  8  9  1  6
  8  7  1  0
 10  8  1  0
 11 10  2  0
 13 12  1  6
 13 15  1  0
 13 14  1  0
 14 10  1  0
 15 16  2  0
 18 17  1  0
 18 19  2  0
 20 18  1  0
 21 22  1  0
 21 20  1  0
 23 22  1  0
 24 23  1  6
 25 24  1  0
 25 15  1  0
 26 28  1  0
 26 24  1  0
 27 26  2  0
M  END
$$$$
