RAR.pdb
     RDKit          3D

 28 27  0  0  1  0  0  0  0  0999 V2000
    9.2964  -13.8989   19.0557 N   0  0  0  0  0  0  0  0  0  0  0  0
    8.1205  -13.4067   19.6666 C   0  0  0  0  0  0  0  0  0  0  0  0
    7.6885  -12.2064   19.4134 N   0  0  0  0  0  0  0  0  0  0  0  0
    7.4160  -14.2486   20.5648 N   0  0  0  0  0  0  0  0  0  0  0  0
    7.9819  -15.5291   20.9263 C   0  0  0  0  0  0  0  0  0  0  0  0
    7.4439  -16.5712   19.9309 C   0  0  0  0  0  0  0  0  0  0  0  0
    8.0769  -17.8915   20.2981 C   0  0  0  0  0  0  0  0  0  0  0  0
    7.1359  -18.9145   20.8232 C   0  0  2  0  0  0  0  0  0  0  0  0
    5.8094  -18.6895   20.2312 N   0  0  0  0  0  0  0  0  0  0  0  0
    6.9331  -18.9342   22.2722 C   0  0  0  0  0  0  0  0  0  0  0  0
    6.3989  -17.9110   22.7993 O   0  0  0  0  0  0  0  0  0  0  0  0
    6.8540  -11.8378   19.8998 C   0  0  0  0  0  0  0  0  0  0  0  0
    7.2801  -21.2452   25.2408 C   0  0  1  0  0  0  0  0  0  0  0  0
    7.1510  -19.8809   24.5503 N   0  0  0  0  0  0  0  0  0  0  0  0
    7.2803  -19.9922   23.1322 C   0  0  0  0  0  0  0  0  0  0  0  0
    8.2010  -19.0194   25.1600 O   0  0  0  0  0  0  0  0  0  0  0  0
    9.3340  -18.9893   24.6136 N   0  0  0  0  0  0  0  0  0  0  0  0
    5.6884  -11.4980   27.0089 C   0  0  0  0  0  0  0  0  0  0  0  0
    6.6210  -11.7202   25.9521 N   0  0  0  0  0  0  0  0  0  0  0  0
    6.8401  -10.7993   25.0612 N   0  0  0  0  0  0  0  0  0  0  0  0
    7.3368  -12.9335   25.8294 C   0  0  0  0  0  0  0  0  0  0  0  0
    7.0473  -14.0417   26.7730 C   0  0  0  0  0  0  0  0  0  0  0  0
    7.9219  -15.1565   26.3730 C   0  0  0  0  0  0  0  0  0  0  0  0
    8.4936  -16.1104   27.3069 C   0  0  2  0  0  0  0  0  0  0  0  0
    9.0851  -17.4037   26.9134 N   0  0  0  0  0  0  0  0  0  0  0  0
    7.9890  -18.2411   26.3117 C   0  0  0  0  0  0  0  0  0  0  0  0
    9.5124  -18.1923   28.0940 O   0  0  0  0  0  0  0  0  0  0  0  0
    8.9494  -19.1647   28.6023 O   0  0  0  0  0  0  0  0  0  0  0  0
  2  1  1  0
  3  2  2  0
  4  2  1  0
  5  4  1  0
  6  5  1  0
  7  6  1  0
  8  9  1  6
  8  7  1  0
 10  8  1  0
 11 10  2  0
 13 12  1  6
 13 15  1  0
 13 14  1  0
 14 10  1  0
 15 16  2  0
 18 17  1  0
 18 19  2  0
 20 18  1  0
 21 22  1  0
 21 20  1  0
 23 22  1  0
 24 23  1  6
 25 24  1  0
 25 15  1  0
 26 28  1  0
 26 24  1  0
 27 26  2  0
M  END
$$$$
