RAR.pdb
     RDKit          3D

 28 27  0  0  1  0  0  0  0  0999 V2000
   10.8598  -18.9945   12.2346 N   0  0  0  0  0  0  0  0  0  0  0  0
   10.6320  -17.8343   11.4600 C   0  0  0  0  0  0  0  0  0  0  0  0
   10.5627  -17.9001   10.1630 N   0  0  0  0  0  0  0  0  0  0  0  0
   10.4792  -16.5907   12.1248 N   0  0  0  0  0  0  0  0  0  0  0  0
   10.1671  -16.5763   13.5366 C   0  0  0  0  0  0  0  0  0  0  0  0
    8.6389  -16.4645   13.6722 C   0  0  0  0  0  0  0  0  0  0  0  0
    8.3348  -16.4236   15.1503 C   0  0  0  0  0  0  0  0  0  0  0  0
    7.6103  -15.2100   15.6089 C   0  0  2  0  0  0  0  0  0  0  0  0
    7.4509  -14.2926   14.4715 N   0  0  0  0  0  0  0  0  0  0  0  0
    8.2474  -14.4299   16.6703 C   0  0  0  0  0  0  0  0  0  0  0  0
    9.4318  -14.0242   16.4639 O   0  0  0  0  0  0  0  0  0  0  0  0
   10.3812  -17.0487    9.6053 C   0  0  0  0  0  0  0  0  0  0  0  0
    7.5285  -13.1307   20.1554 C   0  0  2  0  0  0  0  0  0  0  0  0
    8.4175  -13.5116   18.9640 N   0  0  0  0  0  0  0  0  0  0  0  0
    7.6580  -14.0907   17.9021 C   0  0  0  0  0  0  0  0  0  0  0  0
    9.4474  -14.4381   19.5094 O   0  0  0  0  0  0  0  0  0  0  0  0
    9.2284  -15.6752   19.4392 N   0  0  0  0  0  0  0  0  0  0  0  0
   18.9401  -14.9235   20.6532 C   0  0  0  0  0  0  0  0  0  0  0  0
   17.7887  -15.0993   21.4774 N   0  0  0  0  0  0  0  0  0  0  0  0
   17.8496  -14.8644   22.7545 N   0  0  0  0  0  0  0  0  0  0  0  0
   16.5499  -15.5304   20.9493 C   0  0  0  0  0  0  0  0  0  0  0  0
   15.5755  -14.5172   20.4737 C   0  0  0  0  0  0  0  0  0  0  0  0
   14.2408  -15.0779   20.7419 C   0  0  0  0  0  0  0  0  0  0  0  0
   12.9990  -14.4145   20.3858 C   0  0  2  0  0  0  0  0  0  0  0  0
   11.6573  -14.9688   20.6500 N   0  0  0  0  0  0  0  0  0  0  0  0
   10.6476  -14.0000   20.0964 C   0  0  0  0  0  0  0  0  0  0  0  0
   11.3511  -14.9940   22.1005 O   0  0  0  0  0  0  0  0  0  0  0  0
   10.7122  -14.1681   22.7565 O   0  0  0  0  0  0  0  0  0  0  0  0
  2  1  1  0
  3  2  2  0
  4  2  1  0
  5  4  1  0
  6  5  1  0
  7  6  1  0
  8  9  1  6
  8  7  1  0
 10  8  1  0
 11 10  2  0
 13 12  1  6
 13 15  1  0
 13 14  1  0
 14 10  1  0
 15 16  2  0
 18 17  1  0
 18 19  2  0
 20 18  1  0
 21 22  1  0
 21 20  1  0
 23 22  1  0
 24 23  1  6
 25 24  1  0
 25 15  1  0
 26 28  1  0
 26 24  1  0
 27 26  2  0
M  END
$$$$
