QGD.pdb
     RDKit          3D

 22 21  0  0  1  0  0  0  0  0999 V2000
    9.0208  -14.0491   17.2635 N   0  0  0  0  0  0  0  0  0  0  0  0
    7.6402  -13.7827   17.1124 C   0  0  0  0  0  0  0  0  0  0  0  0
    7.0808  -14.0200   16.0055 O   0  0  0  0  0  0  0  0  0  0  0  0
    6.8746  -13.2288   18.2582 C   0  0  0  0  0  0  0  0  0  0  0  0
    7.6973  -13.2665   19.5208 C   0  0  0  0  0  0  0  0  0  0  0  0
    7.9319  -14.6790   20.0041 C   0  0  2  0  0  0  0  0  0  0  0  0
    6.7281  -15.3581   20.3612 N   0  0  0  0  0  0  0  0  0  0  0  0
    8.8607  -14.5850   21.1590 C   0  0  0  0  0  0  0  0  0  0  0  0
   10.0032  -14.0874   20.9975 O   0  0  0  0  0  0  0  0  0  0  0  0
    8.4465  -15.0573   22.4280 N   0  0  0  0  0  0  0  0  0  0  0  0
    9.2558  -15.0409   23.6007 C   0  0  0  0  0  0  0  0  0  0  0  0
   10.1031  -16.2353   23.7979 C   0  0  0  0  0  0  0  0  0  0  0  0
    9.7333  -17.3780   23.3433 O   0  0  0  0  0  0  0  0  0  0  0  0
   11.3505  -16.2312   24.4752 N   0  0  0  0  0  0  0  0  0  0  0  0
   12.1246  -17.4521   24.6663 C   0  0  1  0  0  0  0  0  0  0  0  0
   13.6162  -17.1399   24.6414 C   0  0  0  0  0  0  0  0  0  0  0  0
   14.0599  -16.5241   23.3780 C   0  0  0  0  0  0  0  0  0  0  0  0
   14.9257  -15.6193   23.3626 O   0  0  0  0  0  0  0  0  0  0  0  0
   11.7024  -18.1824   25.8690 C   0  0  0  0  0  0  0  0  0  0  0  0
   12.1353  -19.3214   26.1701 O   0  0  0  0  0  0  0  0  0  0  0  0
   13.5280  -16.9323   22.1689 O   0  0  0  0  0  0  0  0  0  0  0  0
   10.7696  -17.6467   26.7791 O   0  0  0  0  0  0  0  0  0  0  0  0
  2  4  1  0
  2  1  1  0
  3  2  2  0
  5  6  1  0
  5  4  1  0
  6  7  1  1
  8  6  1  0
  9  8  2  0
 10  8  1  0
 11 10  1  0
 11 12  1  0
 12 14  1  0
 13 12  2  0
 14 15  1  0
 15 19  1  0
 15 16  1  1
 16 17  1  0
 17 18  2  0
 17 21  1  0
 19 22  1  0
 20 19  2  0
M  END
$$$$
