QGD.pdb
     RDKit          3D

 22 21  0  0  1  0  0  0  0  0999 V2000
    6.2270  -22.5213   15.4663 N   0  0  0  0  0  0  0  0  0  0  0  0
    6.6095  -21.1999   15.1383 C   0  0  0  0  0  0  0  0  0  0  0  0
    5.7640  -20.2674   15.2371 O   0  0  0  0  0  0  0  0  0  0  0  0
    7.9982  -20.9343   14.6837 C   0  0  0  0  0  0  0  0  0  0  0  0
    8.7601  -22.2229   14.5069 C   0  0  0  0  0  0  0  0  0  0  0  0
    9.7570  -22.4508   15.6195 C   0  0  2  0  0  0  0  0  0  0  0  0
    9.2397  -22.1327   16.9115 N   0  0  0  0  0  0  0  0  0  0  0  0
   10.9494  -21.6261   15.2983 C   0  0  0  0  0  0  0  0  0  0  0  0
   11.5910  -21.8485   14.2410 O   0  0  0  0  0  0  0  0  0  0  0  0
   11.3480  -20.5990   16.1878 N   0  0  0  0  0  0  0  0  0  0  0  0
   12.4925  -19.7701   16.0054 C   0  0  0  0  0  0  0  0  0  0  0  0
   13.6307  -20.0620   16.9014 C   0  0  0  0  0  0  0  0  0  0  0  0
   14.6624  -19.2973   16.9135 O   0  0  0  0  0  0  0  0  0  0  0  0
   13.6868  -21.1636   17.7947 N   0  0  0  0  0  0  0  0  0  0  0  0
   14.8479  -21.4066   18.6426 C   0  0  1  0  0  0  0  0  0  0  0  0
   14.4478  -21.3540   20.1123 C   0  0  0  0  0  0  0  0  0  0  0  0
   14.1088  -19.9960   20.5740 C   0  0  0  0  0  0  0  0  0  0  0  0
   14.2962  -18.9942   19.8461 O   0  0  0  0  0  0  0  0  0  0  0  0
   15.5433  -22.6465   18.2723 C   0  0  0  0  0  0  0  0  0  0  0  0
   16.7273  -22.8973   18.6048 O   0  0  0  0  0  0  0  0  0  0  0  0
   13.5715  -19.7917   21.8313 O   0  0  0  0  0  0  0  0  0  0  0  0
   14.9198  -23.6527   17.5078 O   0  0  0  0  0  0  0  0  0  0  0  0
  2  4  1  0
  2  1  1  0
  3  2  2  0
  5  6  1  0
  5  4  1  0
  6  7  1  1
  8  6  1  0
  9  8  2  0
 10  8  1  0
 11 10  1  0
 11 12  1  0
 12 14  1  0
 13 12  2  0
 14 15  1  0
 15 19  1  0
 15 16  1  1
 16 17  1  0
 17 18  2  0
 17 21  1  0
 19 22  1  0
 20 19  2  0
M  END
$$$$
