QGD.pdb
     RDKit          3D

 22 21  0  0  1  0  0  0  0  0999 V2000
    7.1603  -13.0436   17.5408 N   0  0  0  0  0  0  0  0  0  0  0  0
    7.9806  -13.0560   18.6927 C   0  0  0  0  0  0  0  0  0  0  0  0
    9.1065  -12.4857   18.6579 O   0  0  0  0  0  0  0  0  0  0  0  0
    7.5023  -13.7399   19.9212 C   0  0  0  0  0  0  0  0  0  0  0  0
    8.3707  -14.9286   20.2457 C   0  0  0  0  0  0  0  0  0  0  0  0
    7.8921  -15.6626   21.4769 C   0  0  2  0  0  0  0  0  0  0  0  0
    7.6535  -14.7994   22.5886 N   0  0  0  0  0  0  0  0  0  0  0  0
    8.9271  -16.6786   21.7959 C   0  0  0  0  0  0  0  0  0  0  0  0
    9.1476  -17.6148   20.9872 O   0  0  0  0  0  0  0  0  0  0  0  0
    9.6526  -16.5792   23.0078 N   0  0  0  0  0  0  0  0  0  0  0  0
   10.6345  -17.5162   23.4418 C   0  0  0  0  0  0  0  0  0  0  0  0
   10.4415  -18.0430   24.8088 C   0  0  0  0  0  0  0  0  0  0  0  0
    9.5899  -17.4995   25.6016 O   0  0  0  0  0  0  0  0  0  0  0  0
   11.1454  -19.1511   25.3486 N   0  0  0  0  0  0  0  0  0  0  0  0
   10.9590  -19.5806   26.7295 C   0  0  1  0  0  0  0  0  0  0  0  0
   10.9657  -21.1024   26.8138 C   0  0  0  0  0  0  0  0  0  0  0  0
   10.8138  -21.6089   28.1894 C   0  0  0  0  0  0  0  0  0  0  0  0
    9.8349  -21.2833   28.8996 O   0  0  0  0  0  0  0  0  0  0  0  0
   11.9253  -18.9429   27.6338 C   0  0  0  0  0  0  0  0  0  0  0  0
   13.1037  -18.6691   27.2997 O   0  0  0  0  0  0  0  0  0  0  0  0
   11.7546  -22.4624   28.7352 O   0  0  0  0  0  0  0  0  0  0  0  0
   11.5902  -18.5905   28.9563 O   0  0  0  0  0  0  0  0  0  0  0  0
  2  4  1  0
  2  1  1  0
  3  2  2  0
  5  6  1  0
  5  4  1  0
  6  7  1  1
  8  6  1  0
  9  8  2  0
 10  8  1  0
 11 10  1  0
 11 12  1  0
 12 14  1  0
 13 12  2  0
 14 15  1  0
 15 19  1  0
 15 16  1  6
 16 17  1  0
 17 18  2  0
 17 21  1  0
 19 22  1  0
 20 19  2  0
M  END
$$$$
