QGD.pdb
     RDKit          3D

 22 21  0  0  1  0  0  0  0  0999 V2000
    8.8840  -13.9660   15.9629 N   0  0  0  0  0  0  0  0  0  0  0  0
    7.8976  -13.9806   16.9762 C   0  0  0  0  0  0  0  0  0  0  0  0
    7.2008  -15.0195   17.1478 O   0  0  0  0  0  0  0  0  0  0  0  0
    7.7000  -12.7739   17.8190 C   0  0  0  0  0  0  0  0  0  0  0  0
    7.3599  -13.1595   19.2361 C   0  0  0  0  0  0  0  0  0  0  0  0
    8.5841  -13.5657   20.0237 C   0  0  2  0  0  0  0  0  0  0  0  0
    9.1551  -14.7964   19.5799 N   0  0  0  0  0  0  0  0  0  0  0  0
    8.1670  -13.6471   21.4466 C   0  0  0  0  0  0  0  0  0  0  0  0
    7.8525  -12.5977   22.0621 O   0  0  0  0  0  0  0  0  0  0  0  0
    8.1288  -14.9071   22.0917 N   0  0  0  0  0  0  0  0  0  0  0  0
    7.6976  -15.1159   23.4337 C   0  0  0  0  0  0  0  0  0  0  0  0
    8.7778  -15.3648   24.4108 C   0  0  0  0  0  0  0  0  0  0  0  0
    9.9919  -15.5065   24.0168 O   0  0  0  0  0  0  0  0  0  0  0  0
    8.5841  -15.4634   25.8134 N   0  0  0  0  0  0  0  0  0  0  0  0
    9.7010  -15.6516   26.7316 C   0  0  1  0  0  0  0  0  0  0  0  0
    9.4489  -14.8951   28.0305 C   0  0  0  0  0  0  0  0  0  0  0  0
   10.6410  -14.8074   28.8927 C   0  0  0  0  0  0  0  0  0  0  0  0
   11.7253  -15.3399   28.5621 O   0  0  0  0  0  0  0  0  0  0  0  0
   10.0051  -17.0742   26.9357 C   0  0  0  0  0  0  0  0  0  0  0  0
    9.1246  -17.9679   26.9728 O   0  0  0  0  0  0  0  0  0  0  0  0
   10.5926  -14.1302   30.0971 O   0  0  0  0  0  0  0  0  0  0  0  0
   11.3244  -17.5389   27.1062 O   0  0  0  0  0  0  0  0  0  0  0  0
  2  4  1  0
  2  1  1  0
  3  2  2  0
  5  6  1  0
  5  4  1  0
  6  7  1  6
  8  6  1  0
  9  8  2  0
 10  8  1  0
 11 10  1  0
 11 12  1  0
 12 14  1  0
 13 12  2  0
 14 15  1  0
 15 19  1  0
 15 16  1  1
 16 17  1  0
 17 18  2  0
 17 21  1  0
 19 22  1  0
 20 19  2  0
M  END
$$$$
