QGD.pdb
     RDKit          3D

 22 21  0  0  1  0  0  0  0  0999 V2000
    8.0823  -12.5097   17.3765 N   0  0  0  0  0  0  0  0  0  0  0  0
    7.8229  -13.8918   17.2259 C   0  0  0  0  0  0  0  0  0  0  0  0
    7.8253  -14.4004   16.0702 O   0  0  0  0  0  0  0  0  0  0  0  0
    7.5525  -14.7184   18.4297 C   0  0  0  0  0  0  0  0  0  0  0  0
    7.5781  -13.8728   19.6774 C   0  0  0  0  0  0  0  0  0  0  0  0
    8.8951  -13.9817   20.4106 C   0  0  2  0  0  0  0  0  0  0  0  0
    9.7561  -14.9856   19.8733 N   0  0  0  0  0  0  0  0  0  0  0  0
    8.5689  -14.2563   21.8331 C   0  0  0  0  0  0  0  0  0  0  0  0
    7.7104  -13.5510   22.4201 O   0  0  0  0  0  0  0  0  0  0  0  0
    9.2298  -15.3099   22.5099 N   0  0  0  0  0  0  0  0  0  0  0  0
    9.0829  -15.5975   23.8978 C   0  0  0  0  0  0  0  0  0  0  0  0
    9.7685  -16.8209   24.3634 C   0  0  0  0  0  0  0  0  0  0  0  0
    9.5713  -17.2651   25.5521 O   0  0  0  0  0  0  0  0  0  0  0  0
   10.6665  -17.5869   23.5751 N   0  0  0  0  0  0  0  0  0  0  0  0
   12.1121  -17.4679   23.7234 C   0  0  1  0  0  0  0  0  0  0  0  0
   12.6029  -16.1737   23.0854 C   0  0  0  0  0  0  0  0  0  0  0  0
   14.0608  -15.9880   23.1952 C   0  0  0  0  0  0  0  0  0  0  0  0
   14.7729  -16.7883   23.8441 O   0  0  0  0  0  0  0  0  0  0  0  0
   12.5310  -17.6227   25.1230 C   0  0  0  0  0  0  0  0  0  0  0  0
   13.5361  -18.2891   25.4710 O   0  0  0  0  0  0  0  0  0  0  0  0
   14.6843  -14.9181   22.5805 O   0  0  0  0  0  0  0  0  0  0  0  0
   11.8230  -17.0254   26.1848 O   0  0  0  0  0  0  0  0  0  0  0  0
  2  4  1  0
  2  1  1  0
  3  2  2  0
  5  6  1  0
  5  4  1  0
  6  7  1  6
  8  6  1  0
  9  8  2  0
 10  8  1  0
 11 10  1  0
 11 12  1  0
 12 14  1  0
 13 12  2  0
 14 15  1  0
 15 19  1  0
 15 16  1  1
 16 17  1  0
 17 18  2  0
 17 21  1  0
 19 22  1  0
 20 19  2  0
M  END
$$$$
