QGD.pdb
     RDKit          3D

 22 21  0  0  1  0  0  0  0  0999 V2000
    8.0240  -11.3881   19.0151 N   0  0  0  0  0  0  0  0  0  0  0  0
    8.3586  -12.7613   18.9666 C   0  0  0  0  0  0  0  0  0  0  0  0
    9.4552  -13.1141   18.4494 O   0  0  0  0  0  0  0  0  0  0  0  0
    7.4139  -13.7623   19.5245 C   0  0  0  0  0  0  0  0  0  0  0  0
    8.1023  -15.0854   19.7433 C   0  0  0  0  0  0  0  0  0  0  0  0
    8.8026  -15.1471   21.0811 C   0  0  2  0  0  0  0  0  0  0  0  0
    9.7657  -14.1086   21.2597 N   0  0  0  0  0  0  0  0  0  0  0  0
    9.4335  -16.4884   21.1699 C   0  0  0  0  0  0  0  0  0  0  0  0
    8.7112  -17.5165   21.1481 O   0  0  0  0  0  0  0  0  0  0  0  0
   10.8416  -16.5917   21.2777 N   0  0  0  0  0  0  0  0  0  0  0  0
   11.5585  -17.8204   21.3599 C   0  0  0  0  0  0  0  0  0  0  0  0
   13.0304  -17.6942   21.3250 C   0  0  0  0  0  0  0  0  0  0  0  0
   13.7766  -18.7205   21.5228 O   0  0  0  0  0  0  0  0  0  0  0  0
   13.7262  -16.4820   21.0777 N   0  0  0  0  0  0  0  0  0  0  0  0
   15.1682  -16.3724   21.2644 C   0  0  1  0  0  0  0  0  0  0  0  0
   15.7003  -15.1374   20.5470 C   0  0  0  0  0  0  0  0  0  0  0  0
   17.1516  -14.9461   20.7182 C   0  0  0  0  0  0  0  0  0  0  0  0
   17.8461  -15.7670   21.3603 O   0  0  0  0  0  0  0  0  0  0  0  0
   15.5395  -16.4261   22.6847 C   0  0  0  0  0  0  0  0  0  0  0  0
   16.6782  -16.7690   23.0860 O   0  0  0  0  0  0  0  0  0  0  0  0
   17.7881  -13.8478   20.1704 O   0  0  0  0  0  0  0  0  0  0  0  0
   14.6297  -16.0920   23.7076 O   0  0  0  0  0  0  0  0  0  0  0  0
  2  4  1  0
  2  1  1  0
  3  2  2  0
  5  6  1  0
  5  4  1  0
  6  7  1  6
  8  6  1  0
  9  8  2  0
 10  8  1  0
 11 10  1  0
 11 12  1  0
 12 14  1  0
 13 12  2  0
 14 15  1  0
 15 19  1  0
 15 16  1  1
 16 17  1  0
 17 18  2  0
 17 21  1  0
 19 22  1  0
 20 19  2  0
M  END
$$$$
