QGD.pdb
     RDKit          3D

 22 21  0  0  1  0  0  0  0  0999 V2000
    5.6170  -12.2143   28.0660 N   0  0  0  0  0  0  0  0  0  0  0  0
    6.7317  -12.2932   27.1994 C   0  0  0  0  0  0  0  0  0  0  0  0
    7.8111  -12.7940   27.6221 O   0  0  0  0  0  0  0  0  0  0  0  0
    6.6119  -11.7855   25.8089 C   0  0  0  0  0  0  0  0  0  0  0  0
    7.5002  -12.5667   24.8745 C   0  0  0  0  0  0  0  0  0  0  0  0
    6.9574  -13.9497   24.5981 C   0  0  2  0  0  0  0  0  0  0  0  0
    7.2536  -14.8870   25.6333 N   0  0  0  0  0  0  0  0  0  0  0  0
    7.5335  -14.3813   23.2992 C   0  0  0  0  0  0  0  0  0  0  0  0
    7.2030  -13.7834   22.2446 O   0  0  0  0  0  0  0  0  0  0  0  0
    8.4484  -15.4615   23.2659 N   0  0  0  0  0  0  0  0  0  0  0  0
    9.1323  -15.9065   22.0977 C   0  0  0  0  0  0  0  0  0  0  0  0
   10.0574  -17.0403   22.3031 C   0  0  0  0  0  0  0  0  0  0  0  0
   10.4329  -17.7622   21.3096 O   0  0  0  0  0  0  0  0  0  0  0  0
   10.5959  -17.4189   23.5605 N   0  0  0  0  0  0  0  0  0  0  0  0
   12.0240  -17.3318   23.8421 C   0  0  1  0  0  0  0  0  0  0  0  0
   12.6137  -16.0840   23.1955 C   0  0  0  0  0  0  0  0  0  0  0  0
   14.0756  -15.9836   23.3530 C   0  0  0  0  0  0  0  0  0  0  0  0
   14.8070  -15.5917   22.4149 O   0  0  0  0  0  0  0  0  0  0  0  0
   12.3027  -17.4292   25.2812 C   0  0  0  0  0  0  0  0  0  0  0  0
   11.4576  -17.1508   26.1664 O   0  0  0  0  0  0  0  0  0  0  0  0
   14.6815  -16.3219   24.5488 O   0  0  0  0  0  0  0  0  0  0  0  0
   13.5553  -17.8476   25.7726 O   0  0  0  0  0  0  0  0  0  0  0  0
  2  4  1  0
  2  1  1  0
  3  2  2  0
  5  6  1  0
  5  4  1  0
  6  7  1  1
  8  6  1  0
  9  8  2  0
 10  8  1  0
 11 10  1  0
 11 12  1  0
 12 14  1  0
 13 12  2  0
 14 15  1  0
 15 19  1  0
 15 16  1  1
 16 17  1  0
 17 18  2  0
 17 21  1  0
 19 22  1  0
 20 19  2  0
M  END
$$$$
