QGD.pdb
     RDKit          3D

 22 21  0  0  1  0  0  0  0  0999 V2000
    8.3061  -11.6476   19.9347 N   0  0  0  0  0  0  0  0  0  0  0  0
    8.2265  -13.0595   19.9223 C   0  0  0  0  0  0  0  0  0  0  0  0
    7.9354  -13.6543   18.8472 O   0  0  0  0  0  0  0  0  0  0  0  0
    8.4864  -13.8156   21.1738 C   0  0  0  0  0  0  0  0  0  0  0  0
    7.5017  -14.9462   21.3314 C   0  0  0  0  0  0  0  0  0  0  0  0
    7.8496  -15.8445   22.4958 C   0  0  2  0  0  0  0  0  0  0  0  0
    8.2430  -15.1237   23.6636 N   0  0  0  0  0  0  0  0  0  0  0  0
    8.9327  -16.7466   22.0288 C   0  0  0  0  0  0  0  0  0  0  0  0
    8.6380  -17.8448   21.4939 O   0  0  0  0  0  0  0  0  0  0  0  0
   10.2843  -16.3573   22.1921 N   0  0  0  0  0  0  0  0  0  0  0  0
   11.4045  -17.1190   21.7499 C   0  0  0  0  0  0  0  0  0  0  0  0
   11.7106  -18.3167   22.5593 C   0  0  0  0  0  0  0  0  0  0  0  0
   12.7468  -19.0299   22.3004 O   0  0  0  0  0  0  0  0  0  0  0  0
   10.9253  -18.7693   23.6516 N   0  0  0  0  0  0  0  0  0  0  0  0
   11.5292  -19.3722   24.8339 C   0  0  1  0  0  0  0  0  0  0  0  0
   12.6824  -18.5106   25.3345 C   0  0  0  0  0  0  0  0  0  0  0  0
   13.3949  -19.1024   26.4810 C   0  0  0  0  0  0  0  0  0  0  0  0
   13.0699  -18.8330   27.6601 O   0  0  0  0  0  0  0  0  0  0  0  0
   10.5280  -19.6638   25.8687 C   0  0  0  0  0  0  0  0  0  0  0  0
    9.5152  -18.9496   26.0673 O   0  0  0  0  0  0  0  0  0  0  0  0
   14.4477  -19.9763   26.2828 O   0  0  0  0  0  0  0  0  0  0  0  0
   10.6382  -20.7806   26.7209 O   0  0  0  0  0  0  0  0  0  0  0  0
  2  4  1  0
  2  1  1  0
  3  2  2  0
  5  6  1  0
  5  4  1  0
  6  7  1  1
  8  6  1  0
  9  8  2  0
 10  8  1  0
 11 10  1  0
 11 12  1  0
 12 14  1  0
 13 12  2  0
 14 15  1  0
 15 19  1  0
 15 16  1  1
 16 17  1  0
 17 18  2  0
 17 21  1  0
 19 22  1  0
 20 19  2  0
M  END
$$$$
