QGD.pdb
     RDKit          3D

 22 21  0  0  1  0  0  0  0  0999 V2000
    5.7744  -12.9289   21.1134 N   0  0  0  0  0  0  0  0  0  0  0  0
    6.9446  -12.3943   21.7007 C   0  0  0  0  0  0  0  0  0  0  0  0
    6.8396  -11.5611   22.6437 O   0  0  0  0  0  0  0  0  0  0  0  0
    8.2745  -12.8227   21.1972 C   0  0  0  0  0  0  0  0  0  0  0  0
    8.1273  -13.7784   20.0407 C   0  0  0  0  0  0  0  0  0  0  0  0
    7.9466  -15.2059   20.5029 C   0  0  2  0  0  0  0  0  0  0  0  0
    8.6186  -15.4886   21.7302 N   0  0  0  0  0  0  0  0  0  0  0  0
    8.4414  -16.0747   19.4049 C   0  0  0  0  0  0  0  0  0  0  0  0
    7.9440  -15.9666   18.2560 O   0  0  0  0  0  0  0  0  0  0  0  0
    9.4682  -17.0140   19.6668 N   0  0  0  0  0  0  0  0  0  0  0  0
   10.0091  -17.9113   18.7011 C   0  0  0  0  0  0  0  0  0  0  0  0
   10.9858  -18.8878   19.2263 C   0  0  0  0  0  0  0  0  0  0  0  0
   11.5891  -19.6966   18.4319 O   0  0  0  0  0  0  0  0  0  0  0  0
   11.3352  -19.0158   20.5961 N   0  0  0  0  0  0  0  0  0  0  0  0
   12.7235  -18.9841   21.0407 C   0  0  1  0  0  0  0  0  0  0  0  0
   13.3727  -17.6622   20.6483 C   0  0  0  0  0  0  0  0  0  0  0  0
   14.7859  -17.5655   21.0554 C   0  0  0  0  0  0  0  0  0  0  0  0
   15.3614  -18.5102   21.6425 O   0  0  0  0  0  0  0  0  0  0  0  0
   12.8443  -19.2900   22.4725 C   0  0  0  0  0  0  0  0  0  0  0  0
   12.0583  -18.8397   23.3413 O   0  0  0  0  0  0  0  0  0  0  0  0
   15.5177  -16.4211   20.7979 O   0  0  0  0  0  0  0  0  0  0  0  0
   13.8652  -20.1211   22.9750 O   0  0  0  0  0  0  0  0  0  0  0  0
  2  4  1  0
  2  1  1  0
  3  2  2  0
  5  6  1  0
  5  4  1  0
  6  7  1  1
  8  6  1  0
  9  8  2  0
 10  8  1  0
 11 10  1  0
 11 12  1  0
 12 14  1  0
 13 12  2  0
 14 15  1  0
 15 19  1  0
 15 16  1  1
 16 17  1  0
 17 18  2  0
 17 21  1  0
 19 22  1  0
 20 19  2  0
M  END
$$$$
