QGD.pdb
     RDKit          3D

 22 21  0  0  1  0  0  0  0  0999 V2000
    6.2813  -13.3813   18.9950 N   0  0  0  0  0  0  0  0  0  0  0  0
    6.7761  -12.7770   17.8161 C   0  0  0  0  0  0  0  0  0  0  0  0
    6.2958  -11.6724   17.4373 O   0  0  0  0  0  0  0  0  0  0  0  0
    7.8509  -13.4532   17.0458 C   0  0  0  0  0  0  0  0  0  0  0  0
    8.3059  -14.7072   17.7479 C   0  0  0  0  0  0  0  0  0  0  0  0
    9.4389  -14.4396   18.7115 C   0  0  2  0  0  0  0  0  0  0  0  0
   10.6291  -13.9856   18.0673 N   0  0  0  0  0  0  0  0  0  0  0  0
    9.6758  -15.7048   19.4519 C   0  0  0  0  0  0  0  0  0  0  0  0
    8.7701  -16.1727   20.1866 O   0  0  0  0  0  0  0  0  0  0  0  0
   10.9198  -16.3682   19.3201 N   0  0  0  0  0  0  0  0  0  0  0  0
   11.2904  -17.5421   20.0378 C   0  0  0  0  0  0  0  0  0  0  0  0
   12.3821  -17.3630   21.0174 C   0  0  0  0  0  0  0  0  0  0  0  0
   12.8273  -18.3648   21.6863 O   0  0  0  0  0  0  0  0  0  0  0  0
   13.0144  -16.1233   21.2964 N   0  0  0  0  0  0  0  0  0  0  0  0
   14.1045  -16.0166   22.2589 C   0  0  1  0  0  0  0  0  0  0  0  0
   14.9986  -14.8315   21.9137 C   0  0  0  0  0  0  0  0  0  0  0  0
   15.5488  -14.8971   20.5480 C   0  0  0  0  0  0  0  0  0  0  0  0
   15.3325  -15.8815   19.8046 O   0  0  0  0  0  0  0  0  0  0  0  0
   13.6099  -15.9896   23.6419 C   0  0  0  0  0  0  0  0  0  0  0  0
   12.4032  -15.8120   23.9380 O   0  0  0  0  0  0  0  0  0  0  0  0
   16.3234  -13.8664   20.0490 O   0  0  0  0  0  0  0  0  0  0  0  0
   14.4684  -16.1636   24.7456 O   0  0  0  0  0  0  0  0  0  0  0  0
  2  4  1  0
  2  1  1  0
  3  2  2  0
  5  6  1  0
  5  4  1  0
  6  7  1  6
  8  6  1  0
  9  8  2  0
 10  8  1  0
 11 10  1  0
 11 12  1  0
 12 14  1  0
 13 12  2  0
 14 15  1  0
 15 19  1  0
 15 16  1  6
 16 17  1  0
 17 18  2  0
 17 21  1  0
 19 22  1  0
 20 19  2  0
M  END
$$$$
