QGD.pdb
     RDKit          3D

 22 21  0  0  1  0  0  0  0  0999 V2000
    8.6660  -12.8604   16.1380 N   0  0  0  0  0  0  0  0  0  0  0  0
    7.8574  -13.8927   16.6677 C   0  0  0  0  0  0  0  0  0  0  0  0
    7.2840  -14.6964   15.8805 O   0  0  0  0  0  0  0  0  0  0  0  0
    7.6978  -14.0117   18.1394 C   0  0  0  0  0  0  0  0  0  0  0  0
    8.4361  -12.9060   18.8498 C   0  0  0  0  0  0  0  0  0  0  0  0
    9.3345  -13.4344   19.9442 C   0  0  2  0  0  0  0  0  0  0  0  0
   10.4832  -14.1202   19.4461 N   0  0  0  0  0  0  0  0  0  0  0  0
    8.4985  -14.3254   20.7881 C   0  0  0  0  0  0  0  0  0  0  0  0
    7.3929  -13.9130   21.2200 O   0  0  0  0  0  0  0  0  0  0  0  0
    8.9581  -15.6291   21.0951 N   0  0  0  0  0  0  0  0  0  0  0  0
   10.3282  -15.9878   21.2510 C   0  0  0  0  0  0  0  0  0  0  0  0
   10.7426  -16.3053   22.6334 C   0  0  0  0  0  0  0  0  0  0  0  0
   10.9034  -15.3679   23.4963 O   0  0  0  0  0  0  0  0  0  0  0  0
   10.9880  -17.6173   23.1163 N   0  0  0  0  0  0  0  0  0  0  0  0
   11.7449  -17.8564   24.3394 C   0  0  1  0  0  0  0  0  0  0  0  0
   10.8042  -18.2435   25.4744 C   0  0  0  0  0  0  0  0  0  0  0  0
   11.4992  -18.4663   26.7548 C   0  0  0  0  0  0  0  0  0  0  0  0
   12.7403  -18.3315   26.8550 O   0  0  0  0  0  0  0  0  0  0  0  0
   12.8311  -18.8226   24.1280 C   0  0  0  0  0  0  0  0  0  0  0  0
   14.0194  -18.6083   24.4707 O   0  0  0  0  0  0  0  0  0  0  0  0
   10.7940  -18.8325   27.8862 O   0  0  0  0  0  0  0  0  0  0  0  0
   12.6099  -20.0732   23.5176 O   0  0  0  0  0  0  0  0  0  0  0  0
  2  4  1  0
  2  1  1  0
  3  2  2  0
  5  6  1  0
  5  4  1  0
  6  7  1  6
  8  6  1  0
  9  8  2  0
 10  8  1  0
 11 10  1  0
 11 12  1  0
 12 14  1  0
 13 12  2  0
 14 15  1  0
 15 19  1  0
 15 16  1  1
 16 17  1  0
 17 18  2  0
 17 21  1  0
 19 22  1  0
 20 19  2  0
M  END
$$$$
