GLG.pdb
     RDKit          3D

 17 16  0  0  1  0  0  0  0  0999 V2000
   10.3368  -18.9831   18.1584 N   0  0  0  0  0  0  0  0  0  0  0  0
    9.3384  -18.3758   18.9837 C   0  0  0  0  0  0  0  0  0  0  0  0
    9.8037  -17.1317   19.6363 C   0  0  0  0  0  0  0  0  0  0  0  0
   10.9530  -16.6656   19.4332 O   0  0  0  0  0  0  0  0  0  0  0  0
    8.6097  -12.8553   19.5624 C   0  0  0  0  0  0  0  0  0  0  0  0
    7.5877  -13.8166   20.2003 C   0  0  2  0  0  0  0  0  0  0  0  0
    6.3127  -13.0547   20.3511 C   0  0  0  0  0  0  0  0  0  0  0  0
    8.1619  -14.3428   21.4641 C   0  0  0  0  0  0  0  0  0  0  0  0
    9.3094  -15.2731   21.2804 C   0  0  2  0  0  0  0  0  0  0  0  0
    8.9385  -16.4510   20.5074 N   0  0  0  0  0  0  0  0  0  0  0  0
   10.0363  -15.6416   22.5125 C   0  0  0  0  0  0  0  0  0  0  0  0
   10.6051  -14.8068   23.2531 O   0  0  0  0  0  0  0  0  0  0  0  0
   10.1426  -17.0118   22.9547 N   0  0  0  0  0  0  0  0  0  0  0  0
   10.6833  -17.3698   24.2319 C   0  0  0  0  0  0  0  0  0  0  0  0
   12.1123  -17.6436   24.2347 C   0  0  0  0  0  0  0  0  0  0  0  0
   12.7875  -17.5596   23.1866 O   0  0  0  0  0  0  0  0  0  0  0  0
   12.7562  -18.0038   25.4005 O   0  0  0  0  0  0  0  0  0  0  0  0
  1  2  1  0
  2  3  1  0
  3  4  2  0
  3 10  1  0
  6  5  1  1
  7  6  1  0
  8  6  1  0
  9  8  1  1
 10  9  1  0
 11  9  1  0
 11 12  2  0
 13 11  1  0
 14 13  1  0
 14 15  1  0
 15 17  1  0
 16 15  2  0
M  END
$$$$
