GLG.pdb
     RDKit          3D

 17 16  0  0  1  0  0  0  0  0999 V2000
    6.5240  -17.4147   21.8410 N   0  0  0  0  0  0  0  0  0  0  0  0
    6.2032  -16.9318   23.1489 C   0  0  0  0  0  0  0  0  0  0  0  0
    7.2032  -15.9764   23.6758 C   0  0  0  0  0  0  0  0  0  0  0  0
    8.2341  -15.6693   23.0262 O   0  0  0  0  0  0  0  0  0  0  0  0
    7.1685  -11.6519   24.9931 C   0  0  0  0  0  0  0  0  0  0  0  0
    6.3419  -12.6132   25.8694 C   0  0  2  0  0  0  0  0  0  0  0  0
    5.5348  -11.7670   26.7974 C   0  0  0  0  0  0  0  0  0  0  0  0
    7.2709  -13.5647   26.5294 C   0  0  0  0  0  0  0  0  0  0  0  0
    7.9460  -14.5124   25.6010 C   0  0  2  0  0  0  0  0  0  0  0  0
    6.9964  -15.3954   24.9368 N   0  0  0  0  0  0  0  0  0  0  0  0
    9.0789  -15.2687   26.1730 C   0  0  0  0  0  0  0  0  0  0  0  0
   10.0753  -14.7234   26.7008 O   0  0  0  0  0  0  0  0  0  0  0  0
    9.1155  -16.7119   26.1626 N   0  0  0  0  0  0  0  0  0  0  0  0
   10.0665  -17.4643   26.9250 C   0  0  0  0  0  0  0  0  0  0  0  0
   11.1757  -18.0053   26.1543 C   0  0  0  0  0  0  0  0  0  0  0  0
   11.3051  -17.7443   24.9391 O   0  0  0  0  0  0  0  0  0  0  0  0
   12.1135  -18.8223   26.7513 O   0  0  0  0  0  0  0  0  0  0  0  0
  1  2  1  0
  2  3  1  0
  3  4  2  0
  3 10  1  0
  6  5  1  6
  7  6  1  0
  8  6  1  0
  9  8  1  1
 10  9  1  0
 11  9  1  0
 11 12  2  0
 13 11  1  0
 14 13  1  0
 14 15  1  0
 15 17  1  0
 16 15  2  0
M  END
$$$$
