GLG.pdb
     RDKit          3D

 17 16  0  0  1  0  0  0  0  0999 V2000
    7.3106  -14.2236   20.0489 N   0  0  0  0  0  0  0  0  0  0  0  0
    6.6500  -14.4176   21.3030 C   0  0  0  0  0  0  0  0  0  0  0  0
    7.5700  -14.3466   22.4601 C   0  0  0  0  0  0  0  0  0  0  0  0
    8.8184  -14.3419   22.3160 O   0  0  0  0  0  0  0  0  0  0  0  0
    7.8233  -11.2983   25.6560 C   0  0  0  0  0  0  0  0  0  0  0  0
    6.6145  -12.2438   25.7987 C   0  0  2  0  0  0  0  0  0  0  0  0
    5.7217  -11.6507   26.8378 C   0  0  0  0  0  0  0  0  0  0  0  0
    7.1170  -13.6074   26.1018 C   0  0  0  0  0  0  0  0  0  0  0  0
    7.8335  -14.2657   24.9752 C   0  0  2  0  0  0  0  0  0  0  0  0
    7.0353  -14.2826   23.7565 N   0  0  0  0  0  0  0  0  0  0  0  0
    8.3991  -15.5982   25.2698 C   0  0  0  0  0  0  0  0  0  0  0  0
    7.7057  -16.6377   25.3563 O   0  0  0  0  0  0  0  0  0  0  0  0
    9.8134  -15.7967   25.4817 N   0  0  0  0  0  0  0  0  0  0  0  0
   10.3964  -17.0975   25.6230 C   0  0  0  0  0  0  0  0  0  0  0  0
   10.6619  -17.5015   26.9953 C   0  0  0  0  0  0  0  0  0  0  0  0
   10.2986  -16.7931   27.9584 O   0  0  0  0  0  0  0  0  0  0  0  0
   11.3240  -18.6816   27.2645 O   0  0  0  0  0  0  0  0  0  0  0  0
  1  2  1  0
  2  3  1  0
  3  4  2  0
  3 10  1  0
  6  5  1  1
  7  6  1  0
  8  6  1  0
  9  8  1  1
 10  9  1  0
 11  9  1  0
 11 12  2  0
 13 11  1  0
 14 13  1  0
 14 15  1  0
 15 17  1  0
 16 15  2  0
M  END
$$$$
