GLG.pdb
     RDKit          3D

 17 16  0  0  1  0  0  0  0  0999 V2000
   11.2940  -20.4772   28.7214 N   0  0  0  0  0  0  0  0  0  0  0  0
   11.8181  -19.3259   28.0533 C   0  0  0  0  0  0  0  0  0  0  0  0
   10.7638  -18.4421   27.5076 C   0  0  0  0  0  0  0  0  0  0  0  0
    9.5907  -18.8492   27.3150 O   0  0  0  0  0  0  0  0  0  0  0  0
    9.1379  -15.2329   29.3933 C   0  0  0  0  0  0  0  0  0  0  0  0
   10.4535  -14.8645   28.6800 C   0  0  2  0  0  0  0  0  0  0  0  0
   10.9209  -13.5764   29.2724 C   0  0  0  0  0  0  0  0  0  0  0  0
   10.2025  -14.8323   27.2172 C   0  0  0  0  0  0  0  0  0  0  0  0
   10.1603  -16.1715   26.5686 C   0  0  2  0  0  0  0  0  0  0  0  0
   11.0809  -17.1107   27.1955 N   0  0  0  0  0  0  0  0  0  0  0  0
   10.3034  -16.1736   25.0982 C   0  0  0  0  0  0  0  0  0  0  0  0
    9.5946  -15.4775   24.3356 O   0  0  0  0  0  0  0  0  0  0  0  0
   11.2866  -16.9920   24.4287 N   0  0  0  0  0  0  0  0  0  0  0  0
   11.4660  -16.9734   23.0077 C   0  0  0  0  0  0  0  0  0  0  0  0
   12.8060  -16.6176   22.5663 C   0  0  0  0  0  0  0  0  0  0  0  0
   13.7211  -16.4036   23.3897 O   0  0  0  0  0  0  0  0  0  0  0  0
   13.0969  -16.5081   21.2221 O   0  0  0  0  0  0  0  0  0  0  0  0
  1  2  1  0
  2  3  1  0
  3  4  2  0
  3 10  1  0
  6  5  1  1
  7  6  1  0
  8  6  1  0
  9  8  1  1
 10  9  1  0
 11  9  1  0
 11 12  2  0
 13 11  1  0
 14 13  1  0
 14 15  1  0
 15 17  1  0
 16 15  2  0
M  END
$$$$
