GLG.pdb
     RDKit          3D

 17 16  0  0  1  0  0  0  0  0999 V2000
    4.4731  -23.1980   18.9382 N   0  0  0  0  0  0  0  0  0  0  0  0
    4.7123  -22.9244   20.3219 C   0  0  0  0  0  0  0  0  0  0  0  0
    4.6118  -21.4858   20.6544 C   0  0  0  0  0  0  0  0  0  0  0  0
    5.0825  -20.5963   19.9017 O   0  0  0  0  0  0  0  0  0  0  0  0
    1.1452  -19.2238   20.9269 C   0  0  0  0  0  0  0  0  0  0  0  0
    1.3553  -20.0425   22.2157 C   0  0  2  0  0  0  0  0  0  0  0  0
    0.0626  -20.0143   22.9618 C   0  0  0  0  0  0  0  0  0  0  0  0
    2.5183  -19.4793   22.9464 C   0  0  0  0  0  0  0  0  0  0  0  0
    3.8340  -19.7227   22.2939 C   0  0  2  0  0  0  0  0  0  0  0  0
    3.9732  -21.1013   21.8439 N   0  0  0  0  0  0  0  0  0  0  0  0
    5.0178  -19.2815   23.0596 C   0  0  0  0  0  0  0  0  0  0  0  0
    5.1048  -18.1590   23.6084 O   0  0  0  0  0  0  0  0  0  0  0  0
    6.1747  -20.1282   23.2305 N   0  0  0  0  0  0  0  0  0  0  0  0
    7.3524  -19.6938   23.9205 C   0  0  0  0  0  0  0  0  0  0  0  0
    7.6367  -20.4112   25.1540 C   0  0  0  0  0  0  0  0  0  0  0  0
    6.9443  -21.3903   25.5053 O   0  0  0  0  0  0  0  0  0  0  0  0
    8.6823  -20.0242   25.9667 O   0  0  0  0  0  0  0  0  0  0  0  0
  1  2  1  0
  2  3  1  0
  3  4  2  0
  3 10  1  0
  6  5  1  6
  7  6  1  0
  8  6  1  0
  9  8  1  1
 10  9  1  0
 11  9  1  0
 11 12  2  0
 13 11  1  0
 14 13  1  0
 14 15  1  0
 15 17  1  0
 16 15  2  0
M  END
$$$$
