GLG.pdb
     RDKit          3D

 17 16  0  0  1  0  0  0  0  0999 V2000
   -6.8169  -22.4940   28.2251 N   0  0  0  0  0  0  0  0  0  0  0  0
   -5.4024  -22.3129   28.1105 C   0  0  0  0  0  0  0  0  0  0  0  0
   -4.9191  -22.3907   26.7139 C   0  0  0  0  0  0  0  0  0  0  0  0
   -5.5480  -23.0226   25.8282 O   0  0  0  0  0  0  0  0  0  0  0  0
   -0.7525  -19.4546   23.2315 C   0  0  0  0  0  0  0  0  0  0  0  0
   -1.8770  -20.5057   23.3096 C   0  0  2  0  0  0  0  0  0  0  0  0
   -2.9022  -20.1187   22.2958 C   0  0  0  0  0  0  0  0  0  0  0  0
   -2.3661  -20.5683   24.7098 C   0  0  0  0  0  0  0  0  0  0  0  0
   -3.0988  -21.8180   25.0524 C   0  0  2  0  0  0  0  0  0  0  0  0
   -3.7242  -21.7411   26.3660 N   0  0  0  0  0  0  0  0  0  0  0  0
   -2.3343  -23.0715   24.8899 C   0  0  0  0  0  0  0  0  0  0  0  0
   -1.4753  -23.4665   25.7115 O   0  0  0  0  0  0  0  0  0  0  0  0
   -2.5280  -23.9414   23.7540 N   0  0  0  0  0  0  0  0  0  0  0  0
   -1.8224  -25.1787   23.6017 C   0  0  0  0  0  0  0  0  0  0  0  0
   -0.4790  -25.0521   23.0575 C   0  0  0  0  0  0  0  0  0  0  0  0
   -0.0122  -23.9362   22.7440 O   0  0  0  0  0  0  0  0  0  0  0  0
    0.3128  -26.1670   22.8749 O   0  0  0  0  0  0  0  0  0  0  0  0
  1  2  1  0
  2  3  1  0
  3  4  2  0
  3 10  1  0
  6  5  1  1
  7  6  1  0
  8  6  1  0
  9  8  1  1
 10  9  1  0
 11  9  1  0
 11 12  2  0
 13 11  1  0
 14 13  1  0
 14 15  1  0
 15 17  1  0
 16 15  2  0
M  END
$$$$
