GLG.pdb
     RDKit          3D

 17 16  0  0  1  0  0  0  0  0999 V2000
    5.6885  -18.4409   22.7662 N   0  0  0  0  0  0  0  0  0  0  0  0
    5.6912  -17.7063   23.9938 C   0  0  0  0  0  0  0  0  0  0  0  0
    6.7324  -16.6555   24.0386 C   0  0  0  0  0  0  0  0  0  0  0  0
    7.4983  -16.4384   23.0662 O   0  0  0  0  0  0  0  0  0  0  0  0
    6.7976  -12.1345   24.7501 C   0  0  0  0  0  0  0  0  0  0  0  0
    6.3589  -13.0387   25.9187 C   0  0  2  0  0  0  0  0  0  0  0  0
    5.7674  -12.1454   26.9584 C   0  0  0  0  0  0  0  0  0  0  0  0
    7.5304  -13.8350   26.3628 C   0  0  0  0  0  0  0  0  0  0  0  0
    7.9383  -14.9117   25.4193 C   0  0  2  0  0  0  0  0  0  0  0  0
    6.8702  -15.8777   25.1990 N   0  0  0  0  0  0  0  0  0  0  0  0
    9.2179  -15.5815   25.7295 C   0  0  0  0  0  0  0  0  0  0  0  0
   10.3008  -14.9680   25.8704 O   0  0  0  0  0  0  0  0  0  0  0  0
    9.3094  -17.0129   25.8941 N   0  0  0  0  0  0  0  0  0  0  0  0
   10.5375  -17.6743   26.2202 C   0  0  0  0  0  0  0  0  0  0  0  0
   10.7448  -17.9107   27.6409 C   0  0  0  0  0  0  0  0  0  0  0  0
    9.8742  -17.5980   28.4809 O   0  0  0  0  0  0  0  0  0  0  0  0
   11.9131  -18.4882   28.0937 O   0  0  0  0  0  0  0  0  0  0  0  0
  1  2  1  0
  2  3  1  0
  3  4  2  0
  3 10  1  0
  6  5  1  6
  7  6  1  0
  8  6  1  0
  9  8  1  1
 10  9  1  0
 11  9  1  0
 11 12  2  0
 13 11  1  0
 14 13  1  0
 14 15  1  0
 15 17  1  0
 16 15  2  0
M  END
$$$$
