GLG.pdb
     RDKit          3D

 17 16  0  0  1  0  0  0  0  0999 V2000
    5.4599  -18.3422   22.9812 N   0  0  0  0  0  0  0  0  0  0  0  0
    5.7991  -17.7818   24.2530 C   0  0  0  0  0  0  0  0  0  0  0  0
    6.7521  -16.6538   24.1542 C   0  0  0  0  0  0  0  0  0  0  0  0
    7.3453  -16.3784   23.0811 O   0  0  0  0  0  0  0  0  0  0  0  0
    6.8740  -11.9527   25.0499 C   0  0  0  0  0  0  0  0  0  0  0  0
    6.5075  -12.9667   26.1513 C   0  0  2  0  0  0  0  0  0  0  0  0
    6.0127  -12.1781   27.3183 C   0  0  0  0  0  0  0  0  0  0  0  0
    7.6938  -13.8172   26.4214 C   0  0  0  0  0  0  0  0  0  0  0  0
    7.9995  -14.8075   25.3528 C   0  0  2  0  0  0  0  0  0  0  0  0
    7.0023  -15.8678   25.2900 N   0  0  0  0  0  0  0  0  0  0  0  0
    9.3714  -15.3553   25.3634 C   0  0  0  0  0  0  0  0  0  0  0  0
    9.8107  -16.0968   26.2722 O   0  0  0  0  0  0  0  0  0  0  0  0
   10.3154  -15.0685   24.3093 N   0  0  0  0  0  0  0  0  0  0  0  0
   11.6870  -15.4770   24.3708 C   0  0  0  0  0  0  0  0  0  0  0  0
   11.9412  -16.8333   23.9093 C   0  0  0  0  0  0  0  0  0  0  0  0
   11.3392  -17.8081   24.4080 O   0  0  0  0  0  0  0  0  0  0  0  0
   12.8572  -17.0738   22.9060 O   0  0  0  0  0  0  0  0  0  0  0  0
  1  2  1  0
  2  3  1  0
  3  4  2  0
  3 10  1  0
  6  5  1  6
  7  6  1  0
  8  6  1  0
  9  8  1  1
 10  9  1  0
 11  9  1  0
 11 12  2  0
 13 11  1  0
 14 13  1  0
 14 15  1  0
 15 17  1  0
 16 15  2  0
M  END
$$$$
