GLG.pdb
     RDKit          3D

 17 16  0  0  1  0  0  0  0  0999 V2000
    5.7198  -18.4855   23.2935 N   0  0  0  0  0  0  0  0  0  0  0  0
    5.7487  -17.6401   24.4473 C   0  0  0  0  0  0  0  0  0  0  0  0
    6.7759  -16.5780   24.3624 C   0  0  0  0  0  0  0  0  0  0  0  0
    7.4521  -16.3906   23.3198 O   0  0  0  0  0  0  0  0  0  0  0  0
    6.7717  -11.9743   24.8023 C   0  0  0  0  0  0  0  0  0  0  0  0
    6.3889  -12.8126   26.0377 C   0  0  2  0  0  0  0  0  0  0  0  0
    5.8583  -11.8613   27.0586 C   0  0  0  0  0  0  0  0  0  0  0  0
    7.5768  -13.5955   26.4615 C   0  0  0  0  0  0  0  0  0  0  0  0
    7.9766  -14.6719   25.5141 C   0  0  2  0  0  0  0  0  0  0  0  0
    7.0033  -15.7552   25.4768 N   0  0  0  0  0  0  0  0  0  0  0  0
    9.3522  -15.1859   25.6753 C   0  0  0  0  0  0  0  0  0  0  0  0
   10.3704  -14.4582   25.6252 O   0  0  0  0  0  0  0  0  0  0  0  0
    9.6214  -16.5855   25.9055 N   0  0  0  0  0  0  0  0  0  0  0  0
   10.9334  -17.0798   26.1993 C   0  0  0  0  0  0  0  0  0  0  0  0
   11.6315  -17.6687   25.0668 C   0  0  0  0  0  0  0  0  0  0  0  0
   11.6514  -17.1001   23.9543 O   0  0  0  0  0  0  0  0  0  0  0  0
   12.2902  -18.8740   25.1971 O   0  0  0  0  0  0  0  0  0  0  0  0
  1  2  1  0
  2  3  1  0
  3  4  2  0
  3 10  1  0
  6  5  1  6
  7  6  1  0
  8  6  1  0
  9  8  1  1
 10  9  1  0
 11  9  1  0
 11 12  2  0
 13 11  1  0
 14 13  1  0
 14 15  1  0
 15 17  1  0
 16 15  2  0
M  END
$$$$
