GLG.pdb
     RDKit          3D

 17 16  0  0  1  0  0  0  0  0999 V2000
    5.9229  -18.0700   22.6365 N   0  0  0  0  0  0  0  0  0  0  0  0
    5.7628  -17.3879   23.8838 C   0  0  0  0  0  0  0  0  0  0  0  0
    6.8620  -16.4394   24.1713 C   0  0  0  0  0  0  0  0  0  0  0  0
    7.8480  -16.3136   23.4024 O   0  0  0  0  0  0  0  0  0  0  0  0
    7.1067  -11.8936   24.9192 C   0  0  0  0  0  0  0  0  0  0  0  0
    6.3344  -12.7012   25.9808 C   0  0  2  0  0  0  0  0  0  0  0  0
    5.6922  -11.7111   26.8951 C   0  0  0  0  0  0  0  0  0  0  0  0
    7.2778  -13.6436   26.6332 C   0  0  0  0  0  0  0  0  0  0  0  0
    7.8233  -14.6944   25.7309 C   0  0  2  0  0  0  0  0  0  0  0  0
    6.8038  -15.6571   25.3354 N   0  0  0  0  0  0  0  0  0  0  0  0
    9.0495  -15.3688   26.2042 C   0  0  0  0  0  0  0  0  0  0  0  0
   10.0910  -14.7552   26.5320 O   0  0  0  0  0  0  0  0  0  0  0  0
    9.1326  -16.8053   26.3231 N   0  0  0  0  0  0  0  0  0  0  0  0
   10.2567  -17.4657   26.9164 C   0  0  0  0  0  0  0  0  0  0  0  0
   11.1791  -18.0714   25.9679 C   0  0  0  0  0  0  0  0  0  0  0  0
   11.0177  -17.9382   24.7360 O   0  0  0  0  0  0  0  0  0  0  0  0
   12.2573  -18.8096   26.4104 O   0  0  0  0  0  0  0  0  0  0  0  0
  1  2  1  0
  2  3  1  0
  3  4  2  0
  3 10  1  0
  6  5  1  6
  7  6  1  0
  8  6  1  0
  9  8  1  1
 10  9  1  0
 11  9  1  0
 11 12  2  0
 13 11  1  0
 14 13  1  0
 14 15  1  0
 15 17  1  0
 16 15  2  0
M  END
$$$$
