GLG.pdb
     RDKit          3D

 17 16  0  0  1  0  0  0  0  0999 V2000
    5.3818  -18.5373   23.2775 N   0  0  0  0  0  0  0  0  0  0  0  0
    5.7014  -17.8578   24.4951 C   0  0  0  0  0  0  0  0  0  0  0  0
    6.6346  -16.7258   24.2997 C   0  0  0  0  0  0  0  0  0  0  0  0
    7.3026  -16.5911   23.2439 O   0  0  0  0  0  0  0  0  0  0  0  0
    6.7037  -12.0350   24.5672 C   0  0  0  0  0  0  0  0  0  0  0  0
    6.3077  -12.8463   25.8164 C   0  0  2  0  0  0  0  0  0  0  0  0
    5.7828  -11.8709   26.8173 C   0  0  0  0  0  0  0  0  0  0  0  0
    7.4860  -13.6331   26.2594 C   0  0  0  0  0  0  0  0  0  0  0  0
    7.8370  -14.7733   25.3691 C   0  0  2  0  0  0  0  0  0  0  0  0
    6.7793  -15.7740   25.3214 N   0  0  0  0  0  0  0  0  0  0  0  0
    9.1561  -15.3918   25.6136 C   0  0  0  0  0  0  0  0  0  0  0  0
    9.5003  -15.8670   26.7202 O   0  0  0  0  0  0  0  0  0  0  0  0
   10.1555  -15.4924   24.5764 N   0  0  0  0  0  0  0  0  0  0  0  0
   11.4432  -16.0782   24.8012 C   0  0  0  0  0  0  0  0  0  0  0  0
   12.3171  -16.0959   23.6380 C   0  0  0  0  0  0  0  0  0  0  0  0
   11.8853  -15.8051   22.5021 O   0  0  0  0  0  0  0  0  0  0  0  0
   13.6482  -16.4358   23.7646 O   0  0  0  0  0  0  0  0  0  0  0  0
  1  2  1  0
  2  3  1  0
  3  4  2  0
  3 10  1  0
  6  5  1  6
  7  6  1  0
  8  6  1  0
  9  8  1  1
 10  9  1  0
 11  9  1  0
 11 12  2  0
 13 11  1  0
 14 13  1  0
 14 15  1  0
 15 17  1  0
 16 15  2  0
M  END
$$$$
