GLG.pdb
     RDKit          3D

 17 16  0  0  1  0  0  0  0  0999 V2000
    9.4273  -18.7690   17.6586 N   0  0  0  0  0  0  0  0  0  0  0  0
    8.7057  -18.3559   18.8228 C   0  0  0  0  0  0  0  0  0  0  0  0
    9.3815  -17.2715   19.5696 C   0  0  0  0  0  0  0  0  0  0  0  0
   10.6125  -17.0497   19.4485 O   0  0  0  0  0  0  0  0  0  0  0  0
    8.4628  -12.8700   19.6379 C   0  0  0  0  0  0  0  0  0  0  0  0
    7.5004  -13.8148   20.3841 C   0  0  2  0  0  0  0  0  0  0  0  0
    6.2616  -13.0325   20.6705 C   0  0  0  0  0  0  0  0  0  0  0  0
    8.1994  -14.3504   21.5792 C   0  0  0  0  0  0  0  0  0  0  0  0
    9.1892  -15.4229   21.2864 C   0  0  2  0  0  0  0  0  0  0  0  0
    8.6282  -16.4665   20.4385 N   0  0  0  0  0  0  0  0  0  0  0  0
    9.8791  -15.9934   22.4615 C   0  0  0  0  0  0  0  0  0  0  0  0
    9.2824  -16.5794   23.3939 O   0  0  0  0  0  0  0  0  0  0  0  0
   11.3121  -15.9131   22.6183 N   0  0  0  0  0  0  0  0  0  0  0  0
   11.9934  -16.4453   23.7604 C   0  0  0  0  0  0  0  0  0  0  0  0
   13.4299  -16.2142   23.7766 C   0  0  0  0  0  0  0  0  0  0  0  0
   14.1232  -16.5303   24.7669 O   0  0  0  0  0  0  0  0  0  0  0  0
   14.0609  -15.6381   22.6934 O   0  0  0  0  0  0  0  0  0  0  0  0
  1  2  1  0
  2  3  1  0
  3  4  2  0
  3 10  1  0
  6  5  1  1
  7  6  1  0
  8  6  1  0
  9  8  1  1
 10  9  1  0
 11  9  1  0
 11 12  2  0
 13 11  1  0
 14 13  1  0
 14 15  1  0
 15 17  1  0
 16 15  2  0
M  END
$$$$
