GLG.pdb
     RDKit          3D

 17 16  0  0  1  0  0  0  0  0999 V2000
    6.2420  -18.8236   22.4924 N   0  0  0  0  0  0  0  0  0  0  0  0
    5.9084  -18.1127   23.6883 C   0  0  0  0  0  0  0  0  0  0  0  0
    6.7387  -16.9053   23.8959 C   0  0  0  0  0  0  0  0  0  0  0  0
    7.7001  -16.6227   23.1376 O   0  0  0  0  0  0  0  0  0  0  0  0
    6.2725  -11.7510   27.2929 C   0  0  0  0  0  0  0  0  0  0  0  0
    7.1281  -12.5807   26.3157 C   0  0  2  0  0  0  0  0  0  0  0  0
    7.4036  -11.7096   25.1349 C   0  0  0  0  0  0  0  0  0  0  0  0
    6.4074  -13.8430   26.0144 C   0  0  0  0  0  0  0  0  0  0  0  0
    7.2287  -14.8719   25.3195 C   0  0  2  0  0  0  0  0  0  0  0  0
    6.4459  -16.0498   24.9697 N   0  0  0  0  0  0  0  0  0  0  0  0
    8.4914  -15.2415   25.9913 C   0  0  0  0  0  0  0  0  0  0  0  0
    9.4405  -14.4425   26.1628 O   0  0  0  0  0  0  0  0  0  0  0  0
    8.7216  -16.5712   26.5045 N   0  0  0  0  0  0  0  0  0  0  0  0
    9.9002  -16.9201   27.2400 C   0  0  0  0  0  0  0  0  0  0  0  0
   10.8942  -17.6651   26.4825 C   0  0  0  0  0  0  0  0  0  0  0  0
   11.1622  -17.3649   25.2995 O   0  0  0  0  0  0  0  0  0  0  0  0
   11.5659  -18.7246   27.0567 O   0  0  0  0  0  0  0  0  0  0  0  0
  1  2  1  0
  2  3  1  0
  3  4  2  0
  3 10  1  0
  6  5  1  1
  7  6  1  0
  8  6  1  0
  9  8  1  1
 10  9  1  0
 11  9  1  0
 11 12  2  0
 13 11  1  0
 14 13  1  0
 14 15  1  0
 15 17  1  0
 16 15  2  0
M  END
$$$$
