WKI.pdb
     RDKit          3D

 32 33  0  0  1  0  0  0  0  0999 V2000
    9.1137  -16.8786   21.2198 N   0  0  0  0  0  0  0  0  0  0  0  0
    8.2760  -16.2178   22.2005 C   0  0  1  0  0  0  0  0  0  0  0  0
    6.8439  -16.1494   21.7186 C   0  0  0  0  0  0  0  0  0  0  0  0
    6.8586  -15.4219   20.4280 C   0  0  0  0  0  0  0  0  0  0  0  0
    6.4865  -15.9191   19.2043 C   0  0  0  0  0  0  0  0  0  0  0  0
    6.6596  -14.9242   18.3185 N   0  0  0  0  0  0  0  0  0  0  0  0
    7.1247  -13.8114   18.9117 C   0  0  0  0  0  0  0  0  0  0  0  0
    7.4407  -12.5698   18.3951 C   0  0  0  0  0  0  0  0  0  0  0  0
    7.9080  -11.5850   19.2519 C   0  0  0  0  0  0  0  0  0  0  0  0
    8.0405  -11.8831   20.5935 C   0  0  0  0  0  0  0  0  0  0  0  0
    7.7293  -13.1183   21.1258 C   0  0  0  0  0  0  0  0  0  0  0  0
    7.2592  -14.1039   20.2540 C   0  0  0  0  0  0  0  0  0  0  0  0
    8.4299  -16.9403   23.4850 C   0  0  0  0  0  0  0  0  0  0  0  0
    7.6930  -16.6961   24.4598 O   0  0  0  0  0  0  0  0  0  0  0  0
    9.4244  -17.9463   23.6683 N   0  0  0  0  0  0  0  0  0  0  0  0
    9.7452  -18.5623   24.9354 C   0  0  1  0  0  0  0  0  0  0  0  0
   10.4379  -19.8707   24.8060 C   0  0  0  0  0  0  0  0  0  0  0  0
   10.6200  -20.6153   26.0841 C   0  0  0  0  0  0  0  0  0  0  0  0
   12.0540  -20.7519   26.5160 C   0  0  0  0  0  0  0  0  0  0  0  0
   12.0451  -21.6804   27.7247 C   0  0  0  0  0  0  0  0  0  0  0  0
   13.4210  -21.9249   28.1571 N   0  0  0  0  0  0  0  0  0  0  0  0
   10.4360  -17.5761   25.7824 C   0  0  0  0  0  0  0  0  0  0  0  0
   11.4093  -16.9451   25.3123 O   0  0  0  0  0  0  0  0  0  0  0  0
    8.1260  -13.3919   27.7032 C   0  0  0  0  0  0  0  0  0  0  0  0
    9.1847  -14.3434   27.2779 C   0  0  0  0  0  0  0  0  0  0  0  0
    9.8559  -15.1299   28.3621 C   0  0  2  0  0  0  0  0  0  0  0  0
   10.6290  -14.1806   29.2803 C   0  0  0  0  0  0  0  0  0  0  0  0
   10.6860  -16.2857   27.9381 C   0  0  2  0  0  0  0  0  0  0  0  0
   10.0744  -17.2764   27.1275 N   0  0  0  0  0  0  0  0  0  0  0  0
   11.2088  -16.9329   29.1776 C   0  0  0  0  0  0  0  0  0  0  0  0
   10.7792  -18.0307   29.5971 O   0  0  0  0  0  0  0  0  0  0  0  0
   12.2099  -16.3178   29.9149 O   0  0  0  0  0  0  0  0  0  0  0  0
  2  1  1  6
  2 13  1  0
  2  3  1  0
  4  5  2  0
  4  3  1  0
  6  5  1  0
  7 12  2  0
  7  6  1  0
  8  7  1  0
  9 10  1  0
  9  8  2  0
 10 11  2  0
 11 12  1  0
 12  4  1  0
 13 14  2  0
 15 16  1  0
 15 13  1  0
 16 17  1  6
 18 17  1  0
 19 20  1  0
 19 18  1  0
 21 20  1  0
 22 16  1  0
 22 23  2  0
 24 25  1  0
 25 26  1  0
 26 28  1  0
 26 27  1  6
 28 29  1  1
 28 30  1  0
 29 22  1  0
 30 31  2  0
 30 32  1  0
M  END
$$$$
