WKI.pdb
     RDKit          3D

 32 33  0  0  1  0  0  0  0  0999 V2000
    6.8514  -17.4380   21.7690 N   0  0  0  0  0  0  0  0  0  0  0  0
    8.2181  -17.1250   22.1356 C   0  0  1  0  0  0  0  0  0  0  0  0
    8.4507  -15.6309   22.0990 C   0  0  0  0  0  0  0  0  0  0  0  0
    8.1991  -15.1903   20.7070 C   0  0  0  0  0  0  0  0  0  0  0  0
    8.2316  -15.9752   19.5818 C   0  0  0  0  0  0  0  0  0  0  0  0
    7.9474  -15.1696   18.5452 N   0  0  0  0  0  0  0  0  0  0  0  0
    7.7336  -13.9052   18.9477 C   0  0  0  0  0  0  0  0  0  0  0  0
    7.4168  -12.7652   18.2346 C   0  0  0  0  0  0  0  0  0  0  0  0
    7.2485  -11.5706   18.9179 C   0  0  0  0  0  0  0  0  0  0  0  0
    7.4044  -11.5651   20.2898 C   0  0  0  0  0  0  0  0  0  0  0  0
    7.7208  -12.6950   21.0173 C   0  0  0  0  0  0  0  0  0  0  0  0
    7.8883  -13.8938   20.3192 C   0  0  0  0  0  0  0  0  0  0  0  0
    8.4780  -17.7278   23.4639 C   0  0  0  0  0  0  0  0  0  0  0  0
    7.7033  -17.5451   24.4228 O   0  0  0  0  0  0  0  0  0  0  0  0
    9.6222  -18.5433   23.7096 N   0  0  0  0  0  0  0  0  0  0  0  0
   10.2747  -18.6775   24.9919 C   0  0  1  0  0  0  0  0  0  0  0  0
   11.3855  -19.6646   24.9974 C   0  0  0  0  0  0  0  0  0  0  0  0
   11.9887  -19.9255   26.3350 C   0  0  0  0  0  0  0  0  0  0  0  0
   13.0991  -20.9396   26.3204 C   0  0  0  0  0  0  0  0  0  0  0  0
   13.6604  -20.9727   27.7372 C   0  0  0  0  0  0  0  0  0  0  0  0
   14.7628  -21.9321   27.7985 N   0  0  0  0  0  0  0  0  0  0  0  0
   10.6333  -17.3377   25.4855 C   0  0  0  0  0  0  0  0  0  0  0  0
   11.4265  -16.6354   24.8192 O   0  0  0  0  0  0  0  0  0  0  0  0
    8.0352  -12.8185   27.3349 C   0  0  0  0  0  0  0  0  0  0  0  0
    8.6539  -14.1482   27.5721 C   0  0  0  0  0  0  0  0  0  0  0  0
   10.0740  -14.3175   27.1255 C   0  0  2  0  0  0  0  0  0  0  0  0
   10.2092  -13.8726   25.6675 C   0  0  0  0  0  0  0  0  0  0  0  0
   10.6974  -15.6448   27.3577 C   0  0  2  0  0  0  0  0  0  0  0  0
   10.1358  -16.7643   26.6913 N   0  0  0  0  0  0  0  0  0  0  0  0
   10.6680  -15.8957   28.8290 C   0  0  0  0  0  0  0  0  0  0  0  0
   10.0818  -16.8794   29.3333 O   0  0  0  0  0  0  0  0  0  0  0  0
   11.3064  -15.0220   29.6970 O   0  0  0  0  0  0  0  0  0  0  0  0
  2  1  1  1
  2 13  1  0
  2  3  1  0
  4  5  2  0
  4  3  1  0
  6  5  1  0
  7 12  2  0
  7  6  1  0
  8  7  1  0
  9 10  1  0
  9  8  2  0
 10 11  2  0
 11 12  1  0
 12  4  1  0
 13 14  2  0
 15 16  1  0
 15 13  1  0
 16 17  1  6
 18 17  1  0
 19 20  1  0
 19 18  1  0
 21 20  1  0
 22 16  1  0
 22 23  2  0
 24 25  1  0
 25 26  1  0
 26 28  1  0
 26 27  1  6
 28 29  1  6
 28 30  1  0
 29 22  1  0
 30 31  2  0
 30 32  1  0
M  END
$$$$
