WKI.pdb
     RDKit          3D

 32 33  0  0  1  0  0  0  0  0999 V2000
    5.8273  -17.6107   24.6795 N   0  0  0  0  0  0  0  0  0  0  0  0
    6.8401  -16.5741   24.6729 C   0  0  1  0  0  0  0  0  0  0  0  0
    7.0458  -16.0212   26.0656 C   0  0  0  0  0  0  0  0  0  0  0  0
    6.2062  -14.8052   26.1741 C   0  0  0  0  0  0  0  0  0  0  0  0
    4.9026  -14.7462   26.5988 C   0  0  0  0  0  0  0  0  0  0  0  0
    4.5383  -13.4548   26.5369 N   0  0  0  0  0  0  0  0  0  0  0  0
    5.5430  -12.6799   26.0935 C   0  0  0  0  0  0  0  0  0  0  0  0
    5.6133  -11.3171   25.8781 C   0  0  0  0  0  0  0  0  0  0  0  0
    6.7982  -10.7717   25.4083 C   0  0  0  0  0  0  0  0  0  0  0  0
    7.8669  -11.6136   25.1726 C   0  0  0  0  0  0  0  0  0  0  0  0
    7.8133  -12.9770   25.3825 C   0  0  0  0  0  0  0  0  0  0  0  0
    6.6146  -13.5169   25.8560 C   0  0  0  0  0  0  0  0  0  0  0  0
    8.0707  -17.1498   24.0816 C   0  0  0  0  0  0  0  0  0  0  0  0
    8.4852  -18.2769   24.4142 O   0  0  0  0  0  0  0  0  0  0  0  0
    8.8380  -16.4457   23.1068 N   0  0  0  0  0  0  0  0  0  0  0  0
   10.2392  -16.6779   22.8408 C   0  0  1  0  0  0  0  0  0  0  0  0
   10.7128  -16.0805   21.5652 C   0  0  0  0  0  0  0  0  0  0  0  0
   10.0242  -16.5812   20.3420 C   0  0  0  0  0  0  0  0  0  0  0  0
   10.5276  -15.9735   19.0618 C   0  0  0  0  0  0  0  0  0  0  0  0
    9.6197  -16.5016   17.9573 C   0  0  0  0  0  0  0  0  0  0  0  0
   10.1427  -16.0796   16.6580 N   0  0  0  0  0  0  0  0  0  0  0  0
   11.0185  -16.2977   24.0305 C   0  0  0  0  0  0  0  0  0  0  0  0
   11.4149  -15.1163   24.1469 O   0  0  0  0  0  0  0  0  0  0  0  0
   10.0006  -13.6877   27.5657 C   0  0  0  0  0  0  0  0  0  0  0  0
   10.8498  -14.5472   26.7012 C   0  0  0  0  0  0  0  0  0  0  0  0
   11.1535  -15.9223   27.2125 C   0  0  2  0  0  0  0  0  0  0  0  0
   11.7675  -15.8252   28.6110 C   0  0  0  0  0  0  0  0  0  0  0  0
   11.9440  -16.8102   26.3231 C   0  0  2  0  0  0  0  0  0  0  0  0
   11.3647  -17.1909   25.0852 N   0  0  0  0  0  0  0  0  0  0  0  0
   12.2678  -18.0418   27.1022 C   0  0  0  0  0  0  0  0  0  0  0  0
   13.0226  -18.0290   28.1000 O   0  0  0  0  0  0  0  0  0  0  0  0
   11.7260  -19.2633   26.7300 O   0  0  0  0  0  0  0  0  0  0  0  0
  2  1  1  1
  2 13  1  0
  2  3  1  0
  4  5  2  0
  4  3  1  0
  6  5  1  0
  7 12  2  0
  7  6  1  0
  8  7  1  0
  9 10  1  0
  9  8  2  0
 10 11  2  0
 11 12  1  0
 12  4  1  0
 13 14  2  0
 15 16  1  0
 15 13  1  0
 16 17  1  6
 18 17  1  0
 19 20  1  0
 19 18  1  0
 21 20  1  0
 22 16  1  0
 22 23  2  0
 24 25  1  0
 25 26  1  0
 26 28  1  0
 26 27  1  1
 28 29  1  6
 28 30  1  0
 29 22  1  0
 30 31  2  0
 30 32  1  0
M  END
$$$$
