WKI.pdb
     RDKit          3D

 32 33  0  0  1  0  0  0  0  0999 V2000
    5.7941  -18.4660   24.5951 N   0  0  0  0  0  0  0  0  0  0  0  0
    6.1816  -17.0712   24.6618 C   0  0  1  0  0  0  0  0  0  0  0  0
    6.7330  -16.7361   26.0297 C   0  0  0  0  0  0  0  0  0  0  0  0
    6.0814  -15.4769   26.4597 C   0  0  0  0  0  0  0  0  0  0  0  0
    4.7703  -15.3204   26.8337 C   0  0  0  0  0  0  0  0  0  0  0  0
    4.6127  -14.0222   27.1410 N   0  0  0  0  0  0  0  0  0  0  0  0
    5.7573  -13.3357   26.9832 C   0  0  0  0  0  0  0  0  0  0  0  0
    6.0515  -12.0006   27.1811 C   0  0  0  0  0  0  0  0  0  0  0  0
    7.3412  -11.5538   26.9374 C   0  0  0  0  0  0  0  0  0  0  0  0
    8.2860  -12.4628   26.5046 C   0  0  0  0  0  0  0  0  0  0  0  0
    8.0086  -13.7999   26.3018 C   0  0  0  0  0  0  0  0  0  0  0  0
    6.7060  -14.2402   26.5503 C   0  0  0  0  0  0  0  0  0  0  0  0
    7.1422  -16.8171   23.5626 C   0  0  0  0  0  0  0  0  0  0  0  0
    8.0332  -17.6397   23.2757 O   0  0  0  0  0  0  0  0  0  0  0  0
    7.0948  -15.6241   22.7822 N   0  0  0  0  0  0  0  0  0  0  0  0
    8.0781  -15.2519   21.7910 C   0  0  1  0  0  0  0  0  0  0  0  0
    7.7574  -13.9897   21.0749 C   0  0  0  0  0  0  0  0  0  0  0  0
    8.6981  -13.6339   19.9751 C   0  0  0  0  0  0  0  0  0  0  0  0
    8.1969  -13.9843   18.6012 C   0  0  0  0  0  0  0  0  0  0  0  0
    9.4365  -14.1941   17.7395 C   0  0  0  0  0  0  0  0  0  0  0  0
    9.0277  -14.4576   16.3599 N   0  0  0  0  0  0  0  0  0  0  0  0
    9.4141  -15.2925   22.4079 C   0  0  0  0  0  0  0  0  0  0  0  0
   10.4252  -15.1820   21.6785 O   0  0  0  0  0  0  0  0  0  0  0  0
   10.1333  -13.7734   27.8809 C   0  0  0  0  0  0  0  0  0  0  0  0
   10.3502  -13.8667   26.4142 C   0  0  0  0  0  0  0  0  0  0  0  0
   10.9466  -15.1427   25.9032 C   0  0  2  0  0  0  0  0  0  0  0  0
   12.3545  -15.3163   26.4773 C   0  0  0  0  0  0  0  0  0  0  0  0
   10.9192  -15.3559   24.4341 C   0  0  2  0  0  0  0  0  0  0  0  0
    9.6518  -15.4512   23.8037 N   0  0  0  0  0  0  0  0  0  0  0  0
   11.6913  -16.6024   24.1539 C   0  0  0  0  0  0  0  0  0  0  0  0
   12.8975  -16.7314   24.4608 O   0  0  0  0  0  0  0  0  0  0  0  0
   11.0753  -17.6773   23.5297 O   0  0  0  0  0  0  0  0  0  0  0  0
  2  1  1  1
  2 13  1  0
  2  3  1  0
  4  5  2  0
  4  3  1  0
  6  5  1  0
  7 12  2  0
  7  6  1  0
  8  7  1  0
  9 10  1  0
  9  8  2  0
 10 11  2  0
 11 12  1  0
 12  4  1  0
 13 14  2  0
 15 16  1  0
 15 13  1  0
 16 17  1  1
 18 17  1  0
 19 20  1  0
 19 18  1  0
 21 20  1  0
 22 16  1  0
 22 23  2  0
 24 25  1  0
 25 26  1  0
 26 28  1  0
 26 27  1  6
 28 29  1  1
 28 30  1  0
 29 22  1  0
 30 31  2  0
 30 32  1  0
M  END
$$$$
