WKI.pdb
     RDKit          3D

 32 33  0  0  1  0  0  0  0  0999 V2000
    6.1249  -18.6845   25.0873 N   0  0  0  0  0  0  0  0  0  0  0  0
    6.8408  -17.4601   24.7896 C   0  0  1  0  0  0  0  0  0  0  0  0
    7.0751  -16.6597   26.0514 C   0  0  0  0  0  0  0  0  0  0  0  0
    6.3082  -15.3999   25.9104 C   0  0  0  0  0  0  0  0  0  0  0  0
    4.9450  -15.2790   25.8075 C   0  0  0  0  0  0  0  0  0  0  0  0
    4.6849  -13.9659   25.6961 N   0  0  0  0  0  0  0  0  0  0  0  0
    5.8132  -13.2359   25.7222 C   0  0  0  0  0  0  0  0  0  0  0  0
    6.0157  -11.8718   25.6400 C   0  0  0  0  0  0  0  0  0  0  0  0
    7.3110  -11.3807   25.6957 C   0  0  0  0  0  0  0  0  0  0  0  0
    8.3533  -12.2761   25.8316 C   0  0  0  0  0  0  0  0  0  0  0  0
    8.1682  -13.6416   25.9150 C   0  0  0  0  0  0  0  0  0  0  0  0
    6.8590  -14.1265   25.8579 C   0  0  0  0  0  0  0  0  0  0  0  0
    8.0920  -17.8288   24.0868 C   0  0  0  0  0  0  0  0  0  0  0  0
    8.7809  -18.8003   24.4537 O   0  0  0  0  0  0  0  0  0  0  0  0
    8.5675  -17.0936   22.9608 N   0  0  0  0  0  0  0  0  0  0  0  0
    9.9607  -16.9405   22.6092 C   0  0  1  0  0  0  0  0  0  0  0  0
   10.1769  -16.4275   21.2313 C   0  0  0  0  0  0  0  0  0  0  0  0
   11.6042  -16.3238   20.8153 C   0  0  0  0  0  0  0  0  0  0  0  0
   11.8027  -15.7478   19.4403 C   0  0  0  0  0  0  0  0  0  0  0  0
   13.3004  -15.8153   19.1656 C   0  0  0  0  0  0  0  0  0  0  0  0
   13.6066  -15.0437   17.9612 N   0  0  0  0  0  0  0  0  0  0  0  0
   10.6374  -16.1750   23.6690 C   0  0  0  0  0  0  0  0  0  0  0  0
   10.4692  -14.9362   23.7276 O   0  0  0  0  0  0  0  0  0  0  0  0
   11.1225  -13.3081   27.9048 C   0  0  0  0  0  0  0  0  0  0  0  0
   11.4837  -14.7490   27.9236 C   0  0  0  0  0  0  0  0  0  0  0  0
   10.9690  -15.5852   26.7920 C   0  0  2  0  0  0  0  0  0  0  0  0
   10.1071  -16.7222   27.3456 C   0  0  0  0  0  0  0  0  0  0  0  0
   11.9694  -16.0779   25.8118 C   0  0  2  0  0  0  0  0  0  0  0  0
   11.4890  -16.7480   24.6572 N   0  0  0  0  0  0  0  0  0  0  0  0
   12.8967  -16.9886   26.5462 C   0  0  0  0  0  0  0  0  0  0  0  0
   14.0852  -16.6847   26.7923 O   0  0  0  0  0  0  0  0  0  0  0  0
   12.4527  -18.2272   26.9857 O   0  0  0  0  0  0  0  0  0  0  0  0
  2  1  1  1
  2 13  1  0
  2  3  1  0
  4  5  2  0
  4  3  1  0
  6  5  1  0
  7 12  2  0
  7  6  1  0
  8  7  1  0
  9 10  1  0
  9  8  2  0
 10 11  2  0
 11 12  1  0
 12  4  1  0
 13 14  2  0
 15 16  1  0
 15 13  1  0
 16 17  1  6
 18 17  1  0
 19 20  1  0
 19 18  1  0
 21 20  1  0
 22 16  1  0
 22 23  2  0
 24 25  1  0
 25 26  1  0
 26 28  1  0
 26 27  1  1
 28 29  1  6
 28 30  1  0
 29 22  1  0
 30 31  2  0
 30 32  1  0
M  END
$$$$
