WKI.pdb
     RDKit          3D

 32 33  0  0  1  0  0  0  0  0999 V2000
    6.0640  -17.5416   24.6697 N   0  0  0  0  0  0  0  0  0  0  0  0
    7.2240  -16.6778   24.5777 C   0  0  1  0  0  0  0  0  0  0  0  0
    7.5128  -16.0295   25.9134 C   0  0  0  0  0  0  0  0  0  0  0  0
    6.6529  -14.8263   26.0025 C   0  0  0  0  0  0  0  0  0  0  0  0
    5.4458  -14.7293   26.6482 C   0  0  0  0  0  0  0  0  0  0  0  0
    5.0188  -13.4678   26.4732 N   0  0  0  0  0  0  0  0  0  0  0  0
    5.8912  -12.7483   25.7468 C   0  0  0  0  0  0  0  0  0  0  0  0
    5.8603  -11.4310   25.3321 C   0  0  0  0  0  0  0  0  0  0  0  0
    6.9154  -10.9389   24.5792 C   0  0  0  0  0  0  0  0  0  0  0  0
    7.9608  -11.7867   24.2712 C   0  0  0  0  0  0  0  0  0  0  0  0
    8.0072  -13.1053   24.6776 C   0  0  0  0  0  0  0  0  0  0  0  0
    6.9390  -13.5915   25.4359 C   0  0  0  0  0  0  0  0  0  0  0  0
    8.3512  -17.4900   24.0628 C   0  0  0  0  0  0  0  0  0  0  0  0
    8.5811  -18.6337   24.5011 O   0  0  0  0  0  0  0  0  0  0  0  0
    9.2248  -17.0053   23.0447 N   0  0  0  0  0  0  0  0  0  0  0  0
   10.6631  -17.1424   23.0634 C   0  0  1  0  0  0  0  0  0  0  0  0
   11.3283  -16.6365   21.8345 C   0  0  0  0  0  0  0  0  0  0  0  0
   12.7957  -16.8871   21.7648 C   0  0  0  0  0  0  0  0  0  0  0  0
   13.2378  -17.6024   20.5179 C   0  0  0  0  0  0  0  0  0  0  0  0
   14.7391  -17.8207   20.6653 C   0  0  0  0  0  0  0  0  0  0  0  0
   15.2188  -18.6471   19.5577 N   0  0  0  0  0  0  0  0  0  0  0  0
   11.1781  -16.5809   24.3231 C   0  0  0  0  0  0  0  0  0  0  0  0
   11.9155  -15.5704   24.2829 O   0  0  0  0  0  0  0  0  0  0  0  0
   10.4594  -13.0041   27.4894 C   0  0  0  0  0  0  0  0  0  0  0  0
   11.0097  -14.1910   26.7855 C   0  0  0  0  0  0  0  0  0  0  0  0
   10.9246  -15.5002   27.5090 C   0  0  2  0  0  0  0  0  0  0  0  0
   11.4741  -15.3383   28.9280 C   0  0  0  0  0  0  0  0  0  0  0  0
   11.5025  -16.6845   26.8249 C   0  0  2  0  0  0  0  0  0  0  0  0
   10.8956  -17.1104   25.6153 N   0  0  0  0  0  0  0  0  0  0  0  0
   11.4774  -17.8144   27.8002 C   0  0  0  0  0  0  0  0  0  0  0  0
   10.7152  -18.7984   27.6720 O   0  0  0  0  0  0  0  0  0  0  0  0
   12.3203  -17.8018   28.9019 O   0  0  0  0  0  0  0  0  0  0  0  0
  2  1  1  1
  2 13  1  0
  2  3  1  0
  4  5  2  0
  4  3  1  0
  6  5  1  0
  7 12  2  0
  7  6  1  0
  8  7  1  0
  9 10  1  0
  9  8  2  0
 10 11  2  0
 11 12  1  0
 12  4  1  0
 13 14  2  0
 15 16  1  0
 15 13  1  0
 16 17  1  6
 18 17  1  0
 19 20  1  0
 19 18  1  0
 21 20  1  0
 22 16  1  0
 22 23  2  0
 24 25  1  0
 25 26  1  0
 26 28  1  0
 26 27  1  1
 28 29  1  6
 28 30  1  0
 29 22  1  0
 30 31  2  0
 30 32  1  0
M  END
$$$$
