WKI.pdb
     RDKit          3D

 32 33  0  0  1  0  0  0  0  0999 V2000
    6.3136  -18.6839   25.0829 N   0  0  0  0  0  0  0  0  0  0  0  0
    6.6481  -17.2900   24.8697 C   0  0  1  0  0  0  0  0  0  0  0  0
    7.3370  -16.7151   26.0874 C   0  0  0  0  0  0  0  0  0  0  0  0
    6.6906  -15.4129   26.3727 C   0  0  0  0  0  0  0  0  0  0  0  0
    5.3450  -15.1794   26.5066 C   0  0  0  0  0  0  0  0  0  0  0  0
    5.2078  -13.8669   26.7577 N   0  0  0  0  0  0  0  0  0  0  0  0
    6.3985  -13.2444   26.7921 C   0  0  0  0  0  0  0  0  0  0  0  0
    6.7267  -11.9211   27.0147 C   0  0  0  0  0  0  0  0  0  0  0  0
    8.0617  -11.5477   26.9944 C   0  0  0  0  0  0  0  0  0  0  0  0
    9.0162  -12.5154   26.7517 C   0  0  0  0  0  0  0  0  0  0  0  0
    8.7053  -13.8416   26.5273 C   0  0  0  0  0  0  0  0  0  0  0  0
    7.3569  -14.2077   26.5498 C   0  0  0  0  0  0  0  0  0  0  0  0
    7.4663  -17.2061   23.6373 C   0  0  0  0  0  0  0  0  0  0  0  0
    8.5327  -17.8402   23.5212 O   0  0  0  0  0  0  0  0  0  0  0  0
    7.0755  -16.3990   22.5279 N   0  0  0  0  0  0  0  0  0  0  0  0
    7.9930  -15.6974   21.6596 C   0  0  1  0  0  0  0  0  0  0  0  0
    7.4270  -14.4568   21.0687 C   0  0  0  0  0  0  0  0  0  0  0  0
    8.3039  -13.7770   20.0738 C   0  0  0  0  0  0  0  0  0  0  0  0
    7.9042  -14.0098   18.6428 C   0  0  0  0  0  0  0  0  0  0  0  0
    8.9398  -13.2851   17.7911 C   0  0  0  0  0  0  0  0  0  0  0  0
    8.6094  -13.4578   16.3766 N   0  0  0  0  0  0  0  0  0  0  0  0
    9.2734  -15.5204   22.3641 C   0  0  0  0  0  0  0  0  0  0  0  0
    9.3179  -14.7751   23.3685 O   0  0  0  0  0  0  0  0  0  0  0  0
   12.2786  -19.0758   24.8956 C   0  0  0  0  0  0  0  0  0  0  0  0
   11.9044  -18.2663   23.7075 C   0  0  0  0  0  0  0  0  0  0  0  0
   12.0131  -16.7785   23.8473 C   0  0  2  0  0  0  0  0  0  0  0  0
   11.1738  -16.3131   25.0393 C   0  0  0  0  0  0  0  0  0  0  0  0
   11.7437  -15.9683   22.6326 C   0  0  2  0  0  0  0  0  0  0  0  0
   10.4952  -16.1465   21.9828 N   0  0  0  0  0  0  0  0  0  0  0  0
   12.8385  -16.2541   21.6588 C   0  0  0  0  0  0  0  0  0  0  0  0
   12.6416  -16.8616   20.5827 O   0  0  0  0  0  0  0  0  0  0  0  0
   14.1355  -15.8430   21.9291 O   0  0  0  0  0  0  0  0  0  0  0  0
  2  1  1  1
  2 13  1  0
  2  3  1  0
  4  5  2  0
  4  3  1  0
  6  5  1  0
  7 12  2  0
  7  6  1  0
  8  7  1  0
  9 10  1  0
  9  8  2  0
 10 11  2  0
 11 12  1  0
 12  4  1  0
 13 14  2  0
 15 16  1  0
 15 13  1  0
 16 17  1  1
 18 17  1  0
 19 20  1  0
 19 18  1  0
 21 20  1  0
 22 16  1  0
 22 23  2  0
 24 25  1  0
 25 26  1  0
 26 28  1  0
 26 27  1  1
 28 29  1  6
 28 30  1  0
 29 22  1  0
 30 31  2  0
 30 32  1  0
M  END
$$$$
