WKI.pdb
     RDKit          3D

 32 33  0  0  1  0  0  0  0  0999 V2000
    8.8038  -17.5606   20.7161 N   0  0  0  0  0  0  0  0  0  0  0  0
    8.4662  -16.5919   21.7397 C   0  0  1  0  0  0  0  0  0  0  0  0
    7.0487  -16.0964   21.5577 C   0  0  0  0  0  0  0  0  0  0  0  0
    7.0151  -15.3492   20.2788 C   0  0  0  0  0  0  0  0  0  0  0  0
    6.5846  -15.8236   19.0651 C   0  0  0  0  0  0  0  0  0  0  0  0
    6.7298  -14.8168   18.1877 N   0  0  0  0  0  0  0  0  0  0  0  0
    7.2324  -13.7182   18.7767 C   0  0  0  0  0  0  0  0  0  0  0  0
    7.5391  -12.4720   18.2655 C   0  0  0  0  0  0  0  0  0  0  0  0
    8.0541  -11.5055   19.1157 C   0  0  0  0  0  0  0  0  0  0  0  0
    8.2416  -11.8257   20.4456 C   0  0  0  0  0  0  0  0  0  0  0  0
    7.9404  -13.0658   20.9724 C   0  0  0  0  0  0  0  0  0  0  0  0
    7.4220  -14.0329   20.1072 C   0  0  0  0  0  0  0  0  0  0  0  0
    8.7019  -17.2274   23.0573 C   0  0  0  0  0  0  0  0  0  0  0  0
    7.8004  -17.2982   23.9147 O   0  0  0  0  0  0  0  0  0  0  0  0
    9.9664  -17.7869   23.4077 N   0  0  0  0  0  0  0  0  0  0  0  0
   10.3598  -18.1501   24.7498 C   0  0  1  0  0  0  0  0  0  0  0  0
   11.4264  -19.1837   24.8014 C   0  0  0  0  0  0  0  0  0  0  0  0
   11.7760  -19.6591   26.1699 C   0  0  0  0  0  0  0  0  0  0  0  0
   12.9413  -20.6090   26.2107 C   0  0  0  0  0  0  0  0  0  0  0  0
   13.3760  -20.6826   27.6697 C   0  0  0  0  0  0  0  0  0  0  0  0
   12.6871  -21.7947   28.3243 N   0  0  0  0  0  0  0  0  0  0  0  0
   10.6488  -16.9226   25.5093 C   0  0  0  0  0  0  0  0  0  0  0  0
   11.5936  -16.1880   25.1430 O   0  0  0  0  0  0  0  0  0  0  0  0
    7.5155  -12.9058   26.2264 C   0  0  0  0  0  0  0  0  0  0  0  0
    8.7489  -13.7331   26.1887 C   0  0  0  0  0  0  0  0  0  0  0  0
    9.2474  -14.2559   27.5013 C   0  0  2  0  0  0  0  0  0  0  0  0
    9.7414  -13.0914   28.3625 C   0  0  0  0  0  0  0  0  0  0  0  0
   10.2348  -15.3636   27.4518 C   0  0  2  0  0  0  0  0  0  0  0  0
    9.9193  -16.4950   26.6561 N   0  0  0  0  0  0  0  0  0  0  0  0
   10.4665  -15.8124   28.8566 C   0  0  0  0  0  0  0  0  0  0  0  0
   10.0741  -16.9214   29.2832 O   0  0  0  0  0  0  0  0  0  0  0  0
   11.1401  -14.9902   29.7479 O   0  0  0  0  0  0  0  0  0  0  0  0
  2  1  1  6
  2 13  1  0
  2  3  1  0
  4  5  2  0
  4  3  1  0
  6  5  1  0
  7 12  2  0
  7  6  1  0
  8  7  1  0
  9 10  1  0
  9  8  2  0
 10 11  2  0
 11 12  1  0
 12  4  1  0
 13 14  2  0
 15 16  1  0
 15 13  1  0
 16 17  1  6
 18 17  1  0
 19 20  1  0
 19 18  1  0
 21 20  1  0
 22 16  1  0
 22 23  2  0
 24 25  1  0
 25 26  1  0
 26 28  1  0
 26 27  1  6
 28 29  1  6
 28 30  1  0
 29 22  1  0
 30 31  2  0
 30 32  1  0
M  END
$$$$
