WKI.pdb
     RDKit          3D

 32 33  0  0  1  0  0  0  0  0999 V2000
    6.0183  -18.2408   24.3470 N   0  0  0  0  0  0  0  0  0  0  0  0
    6.5982  -16.9154   24.4328 C   0  0  1  0  0  0  0  0  0  0  0  0
    6.7657  -16.4997   25.8774 C   0  0  0  0  0  0  0  0  0  0  0  0
    5.9364  -15.2880   26.0754 C   0  0  0  0  0  0  0  0  0  0  0  0
    4.6050  -15.2529   26.4063 C   0  0  0  0  0  0  0  0  0  0  0  0
    4.2635  -13.9559   26.4805 N   0  0  0  0  0  0  0  0  0  0  0  0
    5.3091  -13.1547   26.2137 C   0  0  0  0  0  0  0  0  0  0  0  0
    5.4135  -11.7777   26.1772 C   0  0  0  0  0  0  0  0  0  0  0  0
    6.6379  -11.2050   25.8689 C   0  0  0  0  0  0  0  0  0  0  0  0
    7.7103  -12.0349   25.6091 C   0  0  0  0  0  0  0  0  0  0  0  0
    7.6230  -13.4123   25.6413 C   0  0  0  0  0  0  0  0  0  0  0  0
    6.3847  -13.9797   25.9530 C   0  0  0  0  0  0  0  0  0  0  0  0
    7.8708  -16.9301   23.6742 C   0  0  0  0  0  0  0  0  0  0  0  0
    8.6422  -17.9079   23.7186 O   0  0  0  0  0  0  0  0  0  0  0  0
    8.2741  -15.8311   22.8592 N   0  0  0  0  0  0  0  0  0  0  0  0
    9.6216  -15.6105   22.3866 C   0  0  1  0  0  0  0  0  0  0  0  0
    9.7249  -14.5561   21.3445 C   0  0  0  0  0  0  0  0  0  0  0  0
    9.0364  -14.8707   20.0607 C   0  0  0  0  0  0  0  0  0  0  0  0
    9.1854  -13.8075   19.0076 C   0  0  0  0  0  0  0  0  0  0  0  0
    8.3809  -14.2875   17.8053 C   0  0  0  0  0  0  0  0  0  0  0  0
    8.4699  -13.2936   16.7357 N   0  0  0  0  0  0  0  0  0  0  0  0
   10.5081  -15.4242   23.5471 C   0  0  0  0  0  0  0  0  0  0  0  0
   10.7761  -14.2627   23.9285 O   0  0  0  0  0  0  0  0  0  0  0  0
   10.0142  -13.8343   27.6733 C   0  0  0  0  0  0  0  0  0  0  0  0
   10.8717  -14.3225   26.5627 C   0  0  0  0  0  0  0  0  0  0  0  0
   11.3360  -15.7445   26.6479 C   0  0  2  0  0  0  0  0  0  0  0  0
   12.2486  -15.9136   27.8647 C   0  0  0  0  0  0  0  0  0  0  0  0
   11.9359  -16.3298   25.4223 C   0  0  2  0  0  0  0  0  0  0  0  0
   11.0988  -16.4884   24.2879 N   0  0  0  0  0  0  0  0  0  0  0  0
   12.4963  -17.6617   25.7971 C   0  0  0  0  0  0  0  0  0  0  0  0
   11.9557  -18.7390   25.4613 O   0  0  0  0  0  0  0  0  0  0  0  0
   13.6608  -17.7409   26.5468 O   0  0  0  0  0  0  0  0  0  0  0  0
  2  1  1  1
  2 13  1  0
  2  3  1  0
  4  5  2  0
  4  3  1  0
  6  5  1  0
  7 12  2  0
  7  6  1  0
  8  7  1  0
  9 10  1  0
  9  8  2  0
 10 11  2  0
 11 12  1  0
 12  4  1  0
 13 14  2  0
 15 16  1  0
 15 13  1  0
 16 17  1  6
 18 17  1  0
 19 20  1  0
 19 18  1  0
 21 20  1  0
 22 16  1  0
 22 23  2  0
 24 25  1  0
 25 26  1  0
 26 28  1  0
 26 27  1  1
 28 29  1  6
 28 30  1  0
 29 22  1  0
 30 31  2  0
 30 32  1  0
M  END
$$$$
