WKI.pdb
     RDKit          3D

 32 33  0  0  1  0  0  0  0  0999 V2000
    6.1966  -17.2840   24.7499 N   0  0  0  0  0  0  0  0  0  0  0  0
    7.3453  -16.4407   24.4860 C   0  0  1  0  0  0  0  0  0  0  0  0
    7.7082  -15.6352   25.7136 C   0  0  0  0  0  0  0  0  0  0  0  0
    6.6983  -14.5579   25.8353 C   0  0  0  0  0  0  0  0  0  0  0  0
    5.3791  -14.7084   26.1823 C   0  0  0  0  0  0  0  0  0  0  0  0
    4.8371  -13.4794   26.1672 N   0  0  0  0  0  0  0  0  0  0  0  0
    5.7422  -12.5456   25.8277 C   0  0  0  0  0  0  0  0  0  0  0  0
    5.6275  -11.1758   25.6899 C   0  0  0  0  0  0  0  0  0  0  0  0
    6.7450  -10.4419   25.3230 C   0  0  0  0  0  0  0  0  0  0  0  0
    7.9344  -11.1096   25.1084 C   0  0  0  0  0  0  0  0  0  0  0  0
    8.0660  -12.4774   25.2417 C   0  0  0  0  0  0  0  0  0  0  0  0
    6.9338  -13.2080   25.6118 C   0  0  0  0  0  0  0  0  0  0  0  0
    8.4445  -17.3123   24.0090 C   0  0  0  0  0  0  0  0  0  0  0  0
    8.6364  -18.4421   24.4985 O   0  0  0  0  0  0  0  0  0  0  0  0
    9.3330  -16.9033   22.9708 N   0  0  0  0  0  0  0  0  0  0  0  0
   10.6860  -17.3847   22.8112 C   0  0  1  0  0  0  0  0  0  0  0  0
   11.2575  -17.1272   21.4637 C   0  0  0  0  0  0  0  0  0  0  0  0
   10.4723  -17.6906   20.3292 C   0  0  0  0  0  0  0  0  0  0  0  0
   11.0595  -17.4050   18.9745 C   0  0  0  0  0  0  0  0  0  0  0  0
   10.0551  -17.9349   17.9578 C   0  0  0  0  0  0  0  0  0  0  0  0
   10.5897  -17.7513   16.6087 N   0  0  0  0  0  0  0  0  0  0  0  0
   11.5012  -16.8937   23.9344 C   0  0  0  0  0  0  0  0  0  0  0  0
   12.4387  -16.0972   23.7041 O   0  0  0  0  0  0  0  0  0  0  0  0
    9.3740  -15.2473   28.9048 C   0  0  0  0  0  0  0  0  0  0  0  0
    9.9998  -16.1834   27.9357 C   0  0  0  0  0  0  0  0  0  0  0  0
   11.2220  -15.6928   27.2214 C   0  0  2  0  0  0  0  0  0  0  0  0
   10.8755  -14.4397   26.4142 C   0  0  0  0  0  0  0  0  0  0  0  0
   11.9679  -16.6853   26.4071 C   0  0  2  0  0  0  0  0  0  0  0  0
   11.3013  -17.2631   25.2960 N   0  0  0  0  0  0  0  0  0  0  0  0
   12.4023  -17.7763   27.3286 C   0  0  0  0  0  0  0  0  0  0  0  0
   11.9959  -18.9545   27.2170 O   0  0  0  0  0  0  0  0  0  0  0  0
   13.2906  -17.5048   28.3589 O   0  0  0  0  0  0  0  0  0  0  0  0
  2  1  1  1
  2 13  1  0
  2  3  1  0
  4  5  2  0
  4  3  1  0
  6  5  1  0
  7 12  2  0
  7  6  1  0
  8  7  1  0
  9 10  1  0
  9  8  2  0
 10 11  2  0
 11 12  1  0
 12  4  1  0
 13 14  2  0
 15 16  1  0
 15 13  1  0
 16 17  1  6
 18 17  1  0
 19 20  1  0
 19 18  1  0
 21 20  1  0
 22 16  1  0
 22 23  2  0
 24 25  1  0
 25 26  1  0
 26 28  1  0
 26 27  1  6
 28 29  1  6
 28 30  1  0
 29 22  1  0
 30 31  2  0
 30 32  1  0
M  END
$$$$
