WKI.pdb
     RDKit          3D

 32 33  0  0  1  0  0  0  0  0999 V2000
    6.1871  -18.5713   25.0145 N   0  0  0  0  0  0  0  0  0  0  0  0
    6.3949  -17.1423   24.8923 C   0  0  1  0  0  0  0  0  0  0  0  0
    6.8313  -16.5523   26.2149 C   0  0  0  0  0  0  0  0  0  0  0  0
    5.9899  -15.3558   26.4508 C   0  0  0  0  0  0  0  0  0  0  0  0
    4.6325  -15.3368   26.6518 C   0  0  0  0  0  0  0  0  0  0  0  0
    4.2890  -14.0493   26.8213 N   0  0  0  0  0  0  0  0  0  0  0  0
    5.3581  -13.2390   26.7394 C   0  0  0  0  0  0  0  0  0  0  0  0
    5.4695  -11.8665   26.8510 C   0  0  0  0  0  0  0  0  0  0  0  0
    6.7200  -11.2816   26.7226 C   0  0  0  0  0  0  0  0  0  0  0  0
    7.8104  -12.0952   26.4874 C   0  0  0  0  0  0  0  0  0  0  0  0
    7.7164  -13.4678   26.3732 C   0  0  0  0  0  0  0  0  0  0  0  0
    6.4518  -14.0476   26.5041 C   0  0  0  0  0  0  0  0  0  0  0  0
    7.3704  -16.9203   23.7994 C   0  0  0  0  0  0  0  0  0  0  0  0
    8.3288  -17.6955   23.6170 O   0  0  0  0  0  0  0  0  0  0  0  0
    7.2610  -15.8136   22.9061 N   0  0  0  0  0  0  0  0  0  0  0  0
    8.3077  -15.3735   22.0125 C   0  0  1  0  0  0  0  0  0  0  0  0
    7.8995  -14.2617   21.1147 C   0  0  0  0  0  0  0  0  0  0  0  0
    8.9098  -13.8785   20.0884 C   0  0  0  0  0  0  0  0  0  0  0  0
    8.3687  -13.8191   18.6864 C   0  0  0  0  0  0  0  0  0  0  0  0
    9.5377  -13.4083   17.7989 C   0  0  0  0  0  0  0  0  0  0  0  0
    9.0848  -13.3241   16.4105 N   0  0  0  0  0  0  0  0  0  0  0  0
    9.5277  -15.1209   22.7967 C   0  0  0  0  0  0  0  0  0  0  0  0
    9.8932  -13.9398   22.9910 O   0  0  0  0  0  0  0  0  0  0  0  0
   11.8657  -13.9746   27.4463 C   0  0  0  0  0  0  0  0  0  0  0  0
   12.0585  -15.2233   26.6650 C   0  0  0  0  0  0  0  0  0  0  0  0
   10.9652  -15.5935   25.7098 C   0  0  2  0  0  0  0  0  0  0  0  0
   10.0939  -16.6893   26.3279 C   0  0  0  0  0  0  0  0  0  0  0  0
   11.3712  -15.9284   24.3214 C   0  0  2  0  0  0  0  0  0  0  0  0
   10.3443  -16.1405   23.3657 N   0  0  0  0  0  0  0  0  0  0  0  0
   12.2228  -17.1524   24.3929 C   0  0  0  0  0  0  0  0  0  0  0  0
   13.2988  -17.1884   25.0305 O   0  0  0  0  0  0  0  0  0  0  0  0
   11.8328  -18.3109   23.7371 O   0  0  0  0  0  0  0  0  0  0  0  0
  2  1  1  1
  2 13  1  0
  2  3  1  0
  4  5  2  0
  4  3  1  0
  6  5  1  0
  7 12  2  0
  7  6  1  0
  8  7  1  0
  9 10  1  0
  9  8  2  0
 10 11  2  0
 11 12  1  0
 12  4  1  0
 13 14  2  0
 15 16  1  0
 15 13  1  0
 16 17  1  1
 18 17  1  0
 19 20  1  0
 19 18  1  0
 21 20  1  0
 22 16  1  0
 22 23  2  0
 24 25  1  0
 25 26  1  0
 26 28  1  0
 26 27  1  1
 28 29  1  6
 28 30  1  0
 29 22  1  0
 30 31  2  0
 30 32  1  0
M  END
$$$$
