WKI.pdb
     RDKit          3D

 32 33  0  0  1  0  0  0  0  0999 V2000
    9.5099  -16.6362   20.9122 N   0  0  0  0  0  0  0  0  0  0  0  0
    8.6784  -16.0684   21.9544 C   0  0  1  0  0  0  0  0  0  0  0  0
    7.2381  -15.9846   21.5006 C   0  0  0  0  0  0  0  0  0  0  0  0
    7.2243  -15.1757   20.2595 C   0  0  0  0  0  0  0  0  0  0  0  0
    6.9284  -15.6212   18.9957 C   0  0  0  0  0  0  0  0  0  0  0  0
    7.0391  -14.5595   18.1802 N   0  0  0  0  0  0  0  0  0  0  0  0
    7.3916  -13.4529   18.8567 C   0  0  0  0  0  0  0  0  0  0  0  0
    7.6138  -12.1582   18.4294 C   0  0  0  0  0  0  0  0  0  0  0  0
    7.9727  -11.1959   19.3608 C   0  0  0  0  0  0  0  0  0  0  0  0
    8.0949  -11.5689   20.6846 C   0  0  0  0  0  0  0  0  0  0  0  0
    7.8765  -12.8580   21.1280 C   0  0  0  0  0  0  0  0  0  0  0  0
    7.5153  -13.8203   20.1815 C   0  0  0  0  0  0  0  0  0  0  0  0
    8.8633  -16.8876   23.1752 C   0  0  0  0  0  0  0  0  0  0  0  0
    8.0317  -16.8672   24.1030 O   0  0  0  0  0  0  0  0  0  0  0  0
    9.9968  -17.7362   23.3477 N   0  0  0  0  0  0  0  0  0  0  0  0
   10.5169  -18.1611   24.6271 C   0  0  1  0  0  0  0  0  0  0  0  0
   11.6736  -19.0886   24.5243 C   0  0  0  0  0  0  0  0  0  0  0  0
   12.1790  -19.6106   25.8255 C   0  0  0  0  0  0  0  0  0  0  0  0
   13.3882  -20.4964   25.7036 C   0  0  0  0  0  0  0  0  0  0  0  0
   13.7740  -20.8836   27.1264 C   0  0  0  0  0  0  0  0  0  0  0  0
   13.8053  -22.3417   27.2393 N   0  0  0  0  0  0  0  0  0  0  0  0
   10.7475  -16.9730   25.4651 C   0  0  0  0  0  0  0  0  0  0  0  0
   11.5000  -16.0665   25.0426 O   0  0  0  0  0  0  0  0  0  0  0  0
    7.2612  -13.4767   26.7924 C   0  0  0  0  0  0  0  0  0  0  0  0
    8.5273  -14.2210   26.5692 C   0  0  0  0  0  0  0  0  0  0  0  0
    9.2438  -14.7093   27.7910 C   0  0  2  0  0  0  0  0  0  0  0  0
    9.6376  -13.5165   28.6652 C   0  0  0  0  0  0  0  0  0  0  0  0
   10.3836  -15.6362   27.5760 C   0  0  2  0  0  0  0  0  0  0  0  0
   10.1669  -16.7694   26.7503 N   0  0  0  0  0  0  0  0  0  0  0  0
   10.8362  -16.0998   28.9208 C   0  0  0  0  0  0  0  0  0  0  0  0
   10.6389  -17.2644   29.3338 O   0  0  0  0  0  0  0  0  0  0  0  0
   11.5044  -15.2288   29.7688 O   0  0  0  0  0  0  0  0  0  0  0  0
  2  1  1  6
  2 13  1  0
  2  3  1  0
  4  5  2  0
  4  3  1  0
  6  5  1  0
  7 12  2  0
  7  6  1  0
  8  7  1  0
  9 10  1  0
  9  8  2  0
 10 11  2  0
 11 12  1  0
 12  4  1  0
 13 14  2  0
 15 16  1  0
 15 13  1  0
 16 17  1  6
 18 17  1  0
 19 20  1  0
 19 18  1  0
 21 20  1  0
 22 16  1  0
 22 23  2  0
 24 25  1  0
 25 26  1  0
 26 28  1  0
 26 27  1  6
 28 29  1  6
 28 30  1  0
 29 22  1  0
 30 31  2  0
 30 32  1  0
M  END
$$$$
