WKI.pdb
     RDKit          3D

 32 33  0  0  1  0  0  0  0  0999 V2000
    6.1189  -18.7730   24.9772 N   0  0  0  0  0  0  0  0  0  0  0  0
    6.4937  -17.3755   24.8955 C   0  0  1  0  0  0  0  0  0  0  0  0
    7.0636  -16.8987   26.2129 C   0  0  0  0  0  0  0  0  0  0  0  0
    6.3098  -15.6809   26.5922 C   0  0  0  0  0  0  0  0  0  0  0  0
    4.9944  -15.6201   26.9787 C   0  0  0  0  0  0  0  0  0  0  0  0
    4.7279  -14.3269   27.2260 N   0  0  0  0  0  0  0  0  0  0  0  0
    5.8067  -13.5527   27.0178 C   0  0  0  0  0  0  0  0  0  0  0  0
    5.9858  -12.1891   27.1472 C   0  0  0  0  0  0  0  0  0  0  0  0
    7.2289  -11.6450   26.8624 C   0  0  0  0  0  0  0  0  0  0  0  0
    8.2443  -12.4892   26.4590 C   0  0  0  0  0  0  0  0  0  0  0  0
    8.0819  -13.8536   26.3247 C   0  0  0  0  0  0  0  0  0  0  0  0
    6.8254  -14.3920   26.6140 C   0  0  0  0  0  0  0  0  0  0  0  0
    7.4340  -17.2265   23.7601 C   0  0  0  0  0  0  0  0  0  0  0  0
    8.3369  -18.0595   23.5511 O   0  0  0  0  0  0  0  0  0  0  0  0
    7.3526  -16.1274   22.8546 N   0  0  0  0  0  0  0  0  0  0  0  0
    8.3555  -15.8017   21.8667 C   0  0  1  0  0  0  0  0  0  0  0  0
    7.8865  -14.8441   20.8315 C   0  0  0  0  0  0  0  0  0  0  0  0
    8.8609  -14.5740   19.7367 C   0  0  0  0  0  0  0  0  0  0  0  0
    8.3365  -13.6666   18.6581 C   0  0  0  0  0  0  0  0  0  0  0  0
    9.2928  -13.8128   17.4803 C   0  0  0  0  0  0  0  0  0  0  0  0
    8.8444  -12.9549   16.3836 N   0  0  0  0  0  0  0  0  0  0  0  0
    9.5946  -15.4096   22.5581 C   0  0  0  0  0  0  0  0  0  0  0  0
   10.2161  -14.3963   22.1663 O   0  0  0  0  0  0  0  0  0  0  0  0
   11.1412  -13.5651   27.8756 C   0  0  0  0  0  0  0  0  0  0  0  0
   11.6519  -14.3441   26.7183 C   0  0  0  0  0  0  0  0  0  0  0  0
   10.6252  -14.9637   25.8201 C   0  0  2  0  0  0  0  0  0  0  0  0
    9.7536  -15.9285   26.6271 C   0  0  0  0  0  0  0  0  0  0  0  0
   11.1179  -15.5836   24.5642 C   0  0  2  0  0  0  0  0  0  0  0  0
   10.1549  -16.1100   23.6651 N   0  0  0  0  0  0  0  0  0  0  0  0
   12.0627  -16.6731   24.9499 C   0  0  0  0  0  0  0  0  0  0  0  0
   13.1352  -16.4520   25.5552 O   0  0  0  0  0  0  0  0  0  0  0  0
   11.7680  -17.9925   24.6390 O   0  0  0  0  0  0  0  0  0  0  0  0
  2  1  1  1
  2 13  1  0
  2  3  1  0
  4  5  2  0
  4  3  1  0
  6  5  1  0
  7 12  2  0
  7  6  1  0
  8  7  1  0
  9 10  1  0
  9  8  2  0
 10 11  2  0
 11 12  1  0
 12  4  1  0
 13 14  2  0
 15 16  1  0
 15 13  1  0
 16 17  1  1
 18 17  1  0
 19 20  1  0
 19 18  1  0
 21 20  1  0
 22 16  1  0
 22 23  2  0
 24 25  1  0
 25 26  1  0
 26 28  1  0
 26 27  1  1
 28 29  1  1
 28 30  1  0
 29 22  1  0
 30 31  2  0
 30 32  1  0
M  END
$$$$
