IKM.pdb
     RDKit          3D

 26 25  0  0  1  0  0  0  0  0999 V2000
   27.1790  -13.6701  -16.8968 C   0  0  0  0  0  0  0  0  0  0  0  0
   27.4192  -15.0631  -16.4399 C   0  0  0  0  0  0  0  0  0  0  0  0
   26.1920  -15.9521  -16.4999 C   0  0  2  0  0  0  0  0  0  0  0  0
   25.0947  -15.4735  -15.6171 C   0  0  0  0  0  0  0  0  0  0  0  0
   26.6900  -17.3028  -15.9542 C   0  0  2  0  0  0  0  0  0  0  0  0
   27.7502  -17.7572  -16.8762 N   0  0  0  0  0  0  0  0  0  0  0  0
   25.6594  -18.3498  -15.9861 C   0  0  0  0  0  0  0  0  0  0  0  0
   25.0932  -18.6305  -17.0962 O   0  0  0  0  0  0  0  0  0  0  0  0
   25.2016  -19.1194  -14.8849 N   0  0  0  0  0  0  0  0  0  0  0  0
   24.1873  -20.1463  -15.0182 C   0  0  1  0  0  0  0  0  0  0  0  0
   24.5883  -21.4420  -14.3438 C   0  0  0  0  0  0  0  0  0  0  0  0
   23.5174  -22.4613  -14.5491 C   0  0  0  0  0  0  0  0  0  0  0  0
   23.8779  -23.7304  -13.8529 C   0  0  0  0  0  0  0  0  0  0  0  0
   22.8739  -24.8053  -14.1066 C   0  0  0  0  0  0  0  0  0  0  0  0
   23.2685  -26.0152  -13.3638 N   0  0  0  0  0  0  0  0  0  0  0  0
   22.9328  -19.6726  -14.3417 C   0  0  0  0  0  0  0  0  0  0  0  0
   23.0277  -19.2915  -13.1524 O   0  0  0  0  0  0  0  0  0  0  0  0
   18.3532  -15.9819  -17.0555 C   0  0  0  0  0  0  0  0  0  0  0  0
   17.3826  -16.9514  -15.8725 S   0  0  0  0  0  0  0  0  0  0  0  0
   18.4311  -17.7682  -14.6682 C   0  0  0  0  0  0  0  0  0  0  0  0
   19.6819  -18.3419  -15.2014 C   0  0  0  0  0  0  0  0  0  0  0  0
   20.5121  -19.0865  -14.2328 C   0  0  2  0  0  0  0  0  0  0  0  0
   21.6935  -19.6433  -14.9777 N   0  0  0  0  0  0  0  0  0  0  0  0
   19.8448  -20.1885  -13.5571 C   0  0  0  0  0  0  0  0  0  0  0  0
   19.1496  -19.9571  -12.3614 O   0  0  0  0  0  0  0  0  0  0  0  0
   19.8467  -21.3488  -13.9737 O   0  0  0  0  0  0  0  0  0  0  0  0
  2  3  1  0
  2  1  1  0
  3  4  1  1
  5  3  1  0
  5  6  1  6
  7  9  1  0
  7  5  1  0
  8  7  2  0
 10 11  1  1
 10  9  1  0
 11 12  1  0
 12 13  1  0
 13 14  1  0
 14 15  1  0
 16 10  1  0
 16 17  2  0
 19 20  1  0
 19 18  1  0
 20 21  1  0
 22 21  1  6
 22 24  1  0
 22 23  1  0
 23 16  1  0
 24 25  1  0
 26 24  2  0
M  END
$$$$
