IKM.pdb
     RDKit          3D

 26 25  0  0  1  0  0  0  0  0999 V2000
   27.8045  -16.2620  -18.3749 C   0  0  0  0  0  0  0  0  0  0  0  0
   27.8878  -17.3821  -17.4027 C   0  0  0  0  0  0  0  0  0  0  0  0
   26.9569  -17.2377  -16.2142 C   0  0  2  0  0  0  0  0  0  0  0  0
   27.1999  -15.9878  -15.4453 C   0  0  0  0  0  0  0  0  0  0  0  0
   27.3229  -18.4317  -15.3138 C   0  0  2  0  0  0  0  0  0  0  0  0
   27.2101  -19.6379  -16.1583 N   0  0  0  0  0  0  0  0  0  0  0  0
   26.3744  -18.6294  -14.2091 C   0  0  0  0  0  0  0  0  0  0  0  0
   26.4111  -17.8354  -13.2091 O   0  0  0  0  0  0  0  0  0  0  0  0
   25.3797  -19.6379  -14.1189 N   0  0  0  0  0  0  0  0  0  0  0  0
   24.5416  -19.8052  -12.9482 C   0  0  1  0  0  0  0  0  0  0  0  0
   23.3782  -20.7412  -13.2026 C   0  0  0  0  0  0  0  0  0  0  0  0
   22.3193  -20.0208  -13.9694 C   0  0  0  0  0  0  0  0  0  0  0  0
   21.1666  -20.9312  -14.2299 C   0  0  0  0  0  0  0  0  0  0  0  0
   20.0995  -20.2585  -15.0279 C   0  0  0  0  0  0  0  0  0  0  0  0
   19.0053  -21.2157  -15.2687 N   0  0  0  0  0  0  0  0  0  0  0  0
   25.3645  -20.4202  -11.8525 C   0  0  0  0  0  0  0  0  0  0  0  0
   26.0306  -21.4423  -12.1361 O   0  0  0  0  0  0  0  0  0  0  0  0
   28.8089  -18.1497   -6.9498 C   0  0  0  0  0  0  0  0  0  0  0  0
   27.9729  -19.5129   -6.0990 S   0  0  0  0  0  0  0  0  0  0  0  0
   27.0920  -20.5700   -7.2493 C   0  0  0  0  0  0  0  0  0  0  0  0
   26.6663  -19.9242   -8.5061 C   0  0  0  0  0  0  0  0  0  0  0  0
   25.9198  -20.7817   -9.4493 C   0  0  2  0  0  0  0  0  0  0  0  0
   25.4114  -19.9042  -10.5592 N   0  0  0  0  0  0  0  0  0  0  0  0
   24.7853  -21.4930   -8.8810 C   0  0  0  0  0  0  0  0  0  0  0  0
   24.9995  -22.6227   -8.0781 O   0  0  0  0  0  0  0  0  0  0  0  0
   23.6110  -21.1634   -9.0605 O   0  0  0  0  0  0  0  0  0  0  0  0
  2  3  1  0
  2  1  1  0
  3  4  1  1
  5  3  1  0
  5  6  1  6
  7  9  1  0
  7  5  1  0
  8  7  2  0
 10 11  1  6
 10  9  1  0
 11 12  1  0
 12 13  1  0
 13 14  1  0
 14 15  1  0
 16 10  1  0
 16 17  2  0
 19 20  1  0
 19 18  1  0
 20 21  1  0
 22 21  1  1
 22 24  1  0
 22 23  1  0
 23 16  1  0
 24 25  1  0
 26 24  2  0
M  END
$$$$
