IKM.pdb
     RDKit          3D

 26 25  0  0  1  0  0  0  0  0999 V2000
   10.5696  -12.6621  -10.8069 C   0  0  0  0  0  0  0  0  0  0  0  0
   11.9031  -12.4742  -11.4340 C   0  0  0  0  0  0  0  0  0  0  0  0
   12.8094  -11.5189  -10.6816 C   0  0  2  0  0  0  0  0  0  0  0  0
   12.2524  -10.1417  -10.6055 C   0  0  0  0  0  0  0  0  0  0  0  0
   14.0865  -11.4713  -11.5400 C   0  0  2  0  0  0  0  0  0  0  0  0
   14.7466  -12.7819  -11.3744 N   0  0  0  0  0  0  0  0  0  0  0  0
   15.0578  -10.4744  -11.0689 C   0  0  0  0  0  0  0  0  0  0  0  0
   15.7809  -10.7442  -10.0510 O   0  0  0  0  0  0  0  0  0  0  0  0
   15.2994   -9.1957  -11.6356 N   0  0  0  0  0  0  0  0  0  0  0  0
   16.2447   -8.2557  -11.0667 C   0  0  1  0  0  0  0  0  0  0  0  0
   17.2403   -7.7503  -12.0903 C   0  0  0  0  0  0  0  0  0  0  0  0
   18.1005   -8.8812  -12.5475 C   0  0  0  0  0  0  0  0  0  0  0  0
   19.0455   -8.4121  -13.6022 C   0  0  0  0  0  0  0  0  0  0  0  0
   19.8891   -9.5270  -14.1250 C   0  0  0  0  0  0  0  0  0  0  0  0
   20.8545   -8.9831  -15.0964 N   0  0  0  0  0  0  0  0  0  0  0  0
   15.4888   -7.0585  -10.5654 C   0  0  0  0  0  0  0  0  0  0  0  0
   14.5948   -6.5893  -11.3065 O   0  0  0  0  0  0  0  0  0  0  0  0
   12.1156   -3.3866   -4.5918 C   0  0  0  0  0  0  0  0  0  0  0  0
   13.0953   -4.7660   -5.2389 S   0  0  0  0  0  0  0  0  0  0  0  0
   13.6211   -4.4693   -6.9277 C   0  0  0  0  0  0  0  0  0  0  0  0
   14.4161   -5.5494   -7.5437 C   0  0  0  0  0  0  0  0  0  0  0  0
   14.9084   -5.2860   -8.9113 C   0  0  2  0  0  0  0  0  0  0  0  0
   15.7424   -6.4645   -9.3309 N   0  0  0  0  0  0  0  0  0  0  0  0
   15.7157   -4.0853   -9.0629 C   0  0  0  0  0  0  0  0  0  0  0  0
   15.0972   -2.8272   -9.0992 O   0  0  0  0  0  0  0  0  0  0  0  0
   16.9441   -4.0948   -9.1652 O   0  0  0  0  0  0  0  0  0  0  0  0
  2  3  1  0
  2  1  1  0
  3  4  1  6
  5  3  1  0
  5  6  1  1
  7  9  1  0
  7  5  1  0
  8  7  2  0
 10 11  1  6
 10  9  1  0
 11 12  1  0
 12 13  1  0
 13 14  1  0
 14 15  1  0
 16 10  1  0
 16 17  2  0
 19 20  1  0
 19 18  1  0
 20 21  1  0
 22 21  1  1
 22 24  1  0
 22 23  1  0
 23 16  1  0
 24 25  1  0
 26 24  2  0
M  END
$$$$
