IKM.pdb
     RDKit          3D

 26 25  0  0  1  0  0  0  0  0999 V2000
   17.9354  -17.6785  -18.5783 C   0  0  0  0  0  0  0  0  0  0  0  0
   18.1224  -16.6611  -17.5122 C   0  0  0  0  0  0  0  0  0  0  0  0
   18.7196  -15.3562  -18.0029 C   0  0  2  0  0  0  0  0  0  0  0  0
   20.0844  -15.5283  -18.5688 C   0  0  0  0  0  0  0  0  0  0  0  0
   18.8353  -14.5025  -16.7270 C   0  0  2  0  0  0  0  0  0  0  0  0
   17.4923  -14.4903  -16.1129 N   0  0  0  0  0  0  0  0  0  0  0  0
   19.1585  -13.0963  -17.0047 C   0  0  0  0  0  0  0  0  0  0  0  0
   20.3175  -12.8024  -17.4544 O   0  0  0  0  0  0  0  0  0  0  0  0
   18.2995  -11.9803  -16.8276 N   0  0  0  0  0  0  0  0  0  0  0  0
   18.6794  -10.6346  -17.2092 C   0  0  1  0  0  0  0  0  0  0  0  0
   17.5215   -9.6623  -17.1181 C   0  0  0  0  0  0  0  0  0  0  0  0
   17.9581   -8.3220  -17.6091 C   0  0  0  0  0  0  0  0  0  0  0  0
   16.8042   -7.3766  -17.6117 C   0  0  0  0  0  0  0  0  0  0  0  0
   17.1722   -6.0558  -18.2016 C   0  0  0  0  0  0  0  0  0  0  0  0
   15.9643   -5.2164  -18.2892 N   0  0  0  0  0  0  0  0  0  0  0  0
   19.7350  -10.1459  -16.2591 C   0  0  0  0  0  0  0  0  0  0  0  0
   19.5286  -10.3089  -15.0345 O   0  0  0  0  0  0  0  0  0  0  0  0
   27.1255  -10.5248  -14.3434 C   0  0  0  0  0  0  0  0  0  0  0  0
   25.7411  -10.8754  -15.4579 S   0  0  0  0  0  0  0  0  0  0  0  0
   24.3221   -9.8398  -15.0968 C   0  0  0  0  0  0  0  0  0  0  0  0
   23.1372  -10.0683  -15.9463 C   0  0  0  0  0  0  0  0  0  0  0  0
   21.9680   -9.2110  -15.6636 C   0  0  2  0  0  0  0  0  0  0  0  0
   20.9107   -9.5305  -16.6837 N   0  0  0  0  0  0  0  0  0  0  0  0
   22.2196   -7.7789  -15.7083 C   0  0  0  0  0  0  0  0  0  0  0  0
   22.5793   -7.0956  -14.5377 O   0  0  0  0  0  0  0  0  0  0  0  0
   22.1365   -7.1009  -16.7345 O   0  0  0  0  0  0  0  0  0  0  0  0
  2  3  1  0
  2  1  1  0
  3  4  1  1
  5  3  1  0
  5  6  1  6
  7  9  1  0
  7  5  1  0
  8  7  2  0
 10 11  1  1
 10  9  1  0
 11 12  1  0
 12 13  1  0
 13 14  1  0
 14 15  1  0
 16 10  1  0
 16 17  2  0
 19 20  1  0
 19 18  1  0
 20 21  1  0
 22 21  1  6
 22 24  1  0
 22 23  1  0
 23 16  1  0
 24 25  1  0
 26 24  2  0
M  END
$$$$
