IKM.pdb
     RDKit          3D

 26 25  0  0  1  0  0  0  0  0999 V2000
   32.6086  -22.1627  -11.0576 C   0  0  0  0  0  0  0  0  0  0  0  0
   31.5307  -21.7643  -11.9989 C   0  0  0  0  0  0  0  0  0  0  0  0
   30.3014  -21.1899  -11.3215 C   0  0  2  0  0  0  0  0  0  0  0  0
   29.6302  -22.1704  -10.4266 C   0  0  0  0  0  0  0  0  0  0  0  0
   29.3490  -20.8796  -12.4905 C   0  0  2  0  0  0  0  0  0  0  0  0
   30.0110  -19.8362  -13.2991 N   0  0  0  0  0  0  0  0  0  0  0  0
   28.0743  -20.2944  -12.0525 C   0  0  0  0  0  0  0  0  0  0  0  0
   28.0725  -19.1274  -11.5328 O   0  0  0  0  0  0  0  0  0  0  0  0
   26.7919  -20.8956  -12.1444 N   0  0  0  0  0  0  0  0  0  0  0  0
   25.6566  -20.4353  -11.3697 C   0  0  1  0  0  0  0  0  0  0  0  0
   24.3405  -20.9471  -11.9179 C   0  0  0  0  0  0  0  0  0  0  0  0
   24.0505  -20.2774  -13.2201 C   0  0  0  0  0  0  0  0  0  0  0  0
   23.0494  -21.0696  -13.9917 C   0  0  0  0  0  0  0  0  0  0  0  0
   21.8388  -21.3777  -13.1747 C   0  0  0  0  0  0  0  0  0  0  0  0
   20.7870  -21.9112  -14.0581 N   0  0  0  0  0  0  0  0  0  0  0  0
   25.7826  -20.9673   -9.9707 C   0  0  0  0  0  0  0  0  0  0  0  0
   26.1412  -22.1599   -9.8374 O   0  0  0  0  0  0  0  0  0  0  0  0
   29.4818  -18.9315   -5.4193 C   0  0  0  0  0  0  0  0  0  0  0  0
   28.0168  -19.2916   -4.4165 S   0  0  0  0  0  0  0  0  0  0  0  0
   26.8369  -20.3056   -5.3089 C   0  0  0  0  0  0  0  0  0  0  0  0
   26.6664  -19.9731   -6.7365 C   0  0  0  0  0  0  0  0  0  0  0  0
   25.7101  -20.8155   -7.4835 C   0  0  2  0  0  0  0  0  0  0  0  0
   25.5198  -20.1964   -8.8403 N   0  0  0  0  0  0  0  0  0  0  0  0
   24.4003  -20.9666   -6.8689 C   0  0  0  0  0  0  0  0  0  0  0  0
   23.2601  -20.4806   -7.5249 O   0  0  0  0  0  0  0  0  0  0  0  0
   24.2147  -21.5087   -5.7774 O   0  0  0  0  0  0  0  0  0  0  0  0
  2  3  1  0
  2  1  1  0
  3  4  1  1
  5  3  1  0
  5  6  1  6
  7  9  1  0
  7  5  1  0
  8  7  2  0
 10 11  1  6
 10  9  1  0
 11 12  1  0
 12 13  1  0
 13 14  1  0
 14 15  1  0
 16 10  1  0
 16 17  2  0
 19 20  1  0
 19 18  1  0
 20 21  1  0
 22 21  1  1
 22 24  1  0
 22 23  1  0
 23 16  1  0
 24 25  1  0
 26 24  2  0
M  END
$$$$
