IKM.pdb
     RDKit          3D

 26 25  0  0  1  0  0  0  0  0999 V2000
   18.3642  -20.8825  -12.0937 C   0  0  0  0  0  0  0  0  0  0  0  0
   19.0858  -20.4211  -13.3075 C   0  0  0  0  0  0  0  0  0  0  0  0
   20.5866  -20.3015  -13.1247 C   0  0  2  0  0  0  0  0  0  0  0  0
   20.9608  -19.2619  -12.1288 C   0  0  0  0  0  0  0  0  0  0  0  0
   21.0894  -19.8435  -14.5058 C   0  0  2  0  0  0  0  0  0  0  0  0
   20.6623  -20.8798  -15.4673 N   0  0  0  0  0  0  0  0  0  0  0  0
   22.5553  -19.7969  -14.5963 C   0  0  0  0  0  0  0  0  0  0  0  0
   23.1901  -18.9035  -13.9401 O   0  0  0  0  0  0  0  0  0  0  0  0
   23.3836  -20.6640  -15.3556 N   0  0  0  0  0  0  0  0  0  0  0  0
   24.8106  -20.4534  -15.4985 C   0  0  1  0  0  0  0  0  0  0  0  0
   25.5093  -21.6475  -16.1154 C   0  0  0  0  0  0  0  0  0  0  0  0
   26.9839  -21.4158  -16.1139 C   0  0  0  0  0  0  0  0  0  0  0  0
   27.6877  -22.5917  -16.7033 C   0  0  0  0  0  0  0  0  0  0  0  0
   29.1683  -22.4027  -16.7129 C   0  0  0  0  0  0  0  0  0  0  0  0
   29.7978  -23.5784  -17.3397 N   0  0  0  0  0  0  0  0  0  0  0  0
   25.0342  -19.2914  -16.4236 C   0  0  0  0  0  0  0  0  0  0  0  0
   24.3393  -19.2409  -17.4643 O   0  0  0  0  0  0  0  0  0  0  0  0
   26.7275  -13.4574  -14.5222 C   0  0  0  0  0  0  0  0  0  0  0  0
   27.1236  -13.2579  -16.2785 S   0  0  0  0  0  0  0  0  0  0  0  0
   26.7842  -14.7540  -17.2076 C   0  0  0  0  0  0  0  0  0  0  0  0
   26.4803  -15.9491  -16.3969 C   0  0  0  0  0  0  0  0  0  0  0  0
   26.1022  -17.1603  -17.1533 C   0  0  2  0  0  0  0  0  0  0  0  0
   25.9682  -18.2892  -16.1694 N   0  0  0  0  0  0  0  0  0  0  0  0
   27.0426  -17.5702  -18.1847 C   0  0  0  0  0  0  0  0  0  0  0  0
   26.7949  -17.2441  -19.5259 O   0  0  0  0  0  0  0  0  0  0  0  0
   28.0750  -18.2042  -17.9569 O   0  0  0  0  0  0  0  0  0  0  0  0
  2  3  1  0
  2  1  1  0
  3  4  1  1
  5  3  1  0
  5  6  1  6
  7  9  1  0
  7  5  1  0
  8  7  2  0
 10 11  1  6
 10  9  1  0
 11 12  1  0
 12 13  1  0
 13 14  1  0
 14 15  1  0
 16 10  1  0
 16 17  2  0
 19 20  1  0
 19 18  1  0
 20 21  1  0
 22 21  1  1
 22 24  1  0
 22 23  1  0
 23 16  1  0
 24 25  1  0
 26 24  2  0
M  END
$$$$
