IKM.pdb
     RDKit          3D

 26 25  0  0  1  0  0  0  0  0999 V2000
   20.1685  -16.7545  -20.0335 C   0  0  0  0  0  0  0  0  0  0  0  0
   20.1269  -15.8305  -18.8710 C   0  0  0  0  0  0  0  0  0  0  0  0
   20.1603  -14.3621  -19.2487 C   0  0  2  0  0  0  0  0  0  0  0  0
   21.4278  -13.9731  -19.9230 C   0  0  0  0  0  0  0  0  0  0  0  0
   20.0960  -13.6330  -17.8943 C   0  0  2  0  0  0  0  0  0  0  0  0
   18.8241  -14.0402  -17.2640 N   0  0  0  0  0  0  0  0  0  0  0  0
   20.0218  -12.1719  -18.0320 C   0  0  0  0  0  0  0  0  0  0  0  0
   21.0666  -11.5274  -18.3855 O   0  0  0  0  0  0  0  0  0  0  0  0
   18.8794  -11.3588  -17.8123 N   0  0  0  0  0  0  0  0  0  0  0  0
   18.8768   -9.9316  -18.0654 C   0  0  1  0  0  0  0  0  0  0  0  0
   17.5493   -9.4464  -18.6101 C   0  0  0  0  0  0  0  0  0  0  0  0
   17.3608   -9.9669  -19.9964 C   0  0  0  0  0  0  0  0  0  0  0  0
   16.0686   -9.4753  -20.5568 C   0  0  0  0  0  0  0  0  0  0  0  0
   15.8132  -10.0232  -21.9215 C   0  0  0  0  0  0  0  0  0  0  0  0
   14.5346   -9.4882  -22.4216 N   0  0  0  0  0  0  0  0  0  0  0  0
   19.1038   -9.2131  -16.7661 C   0  0  0  0  0  0  0  0  0  0  0  0
   18.4036   -9.5580  -15.7865 O   0  0  0  0  0  0  0  0  0  0  0  0
   23.2010  -10.3635  -12.5197 C   0  0  0  0  0  0  0  0  0  0  0  0
   21.8922   -9.2624  -11.9230 S   0  0  0  0  0  0  0  0  0  0  0  0
   21.4830   -8.0040  -13.1336 C   0  0  0  0  0  0  0  0  0  0  0  0
   21.0501   -8.5081  -14.4513 C   0  0  0  0  0  0  0  0  0  0  0  0
   20.2320   -7.5797  -15.2581 C   0  0  2  0  0  0  0  0  0  0  0  0
   20.0461   -8.1978  -16.6160 N   0  0  0  0  0  0  0  0  0  0  0  0
   20.7946   -6.2507  -15.4407 C   0  0  0  0  0  0  0  0  0  0  0  0
   20.9572   -5.4027  -14.3357 O   0  0  0  0  0  0  0  0  0  0  0  0
   21.1500   -5.8019  -16.5325 O   0  0  0  0  0  0  0  0  0  0  0  0
  2  3  1  0
  2  1  1  0
  3  4  1  1
  5  3  1  0
  5  6  1  6
  7  9  1  0
  7  5  1  0
  8  7  2  0
 10 11  1  1
 10  9  1  0
 11 12  1  0
 12 13  1  0
 13 14  1  0
 14 15  1  0
 16 10  1  0
 16 17  2  0
 19 20  1  0
 19 18  1  0
 20 21  1  0
 22 21  1  1
 22 24  1  0
 22 23  1  0
 23 16  1  0
 24 25  1  0
 26 24  2  0
M  END
$$$$
