IKM.pdb
     RDKit          3D

 26 25  0  0  1  0  0  0  0  0999 V2000
   12.4516  -21.2414   -4.8918 C   0  0  0  0  0  0  0  0  0  0  0  0
   13.6697  -22.0792   -5.0368 C   0  0  0  0  0  0  0  0  0  0  0  0
   13.7939  -23.1728   -3.9934 C   0  0  2  0  0  0  0  0  0  0  0  0
   14.1304  -22.6420   -2.6451 C   0  0  0  0  0  0  0  0  0  0  0  0
   14.9838  -24.0166   -4.4856 C   0  0  2  0  0  0  0  0  0  0  0  0
   14.5694  -24.6054   -5.7749 N   0  0  0  0  0  0  0  0  0  0  0  0
   15.2827  -25.1552   -3.6061 C   0  0  0  0  0  0  0  0  0  0  0  0
   14.3708  -25.5942   -2.8266 O   0  0  0  0  0  0  0  0  0  0  0  0
   16.5142  -25.8553   -3.5183 N   0  0  0  0  0  0  0  0  0  0  0  0
   16.7652  -26.8703   -2.5144 C   0  0  1  0  0  0  0  0  0  0  0  0
   17.9538  -27.7424   -2.8627 C   0  0  0  0  0  0  0  0  0  0  0  0
   18.2024  -28.7098   -1.7535 C   0  0  0  0  0  0  0  0  0  0  0  0
   18.2843  -30.0981   -2.2934 C   0  0  0  0  0  0  0  0  0  0  0  0
   18.5052  -31.1009   -1.2102 C   0  0  0  0  0  0  0  0  0  0  0  0
   18.4334  -32.4546   -1.7879 N   0  0  0  0  0  0  0  0  0  0  0  0
   17.0891  -26.1905   -1.2148 C   0  0  0  0  0  0  0  0  0  0  0  0
   18.0040  -25.3352   -1.2238 O   0  0  0  0  0  0  0  0  0  0  0  0
   14.4799  -21.7816    1.3040 C   0  0  0  0  0  0  0  0  0  0  0  0
   15.0729  -22.4295    2.8884 S   0  0  0  0  0  0  0  0  0  0  0  0
   16.1669  -23.8325    2.6619 C   0  0  0  0  0  0  0  0  0  0  0  0
   15.9466  -24.6167    1.4313 C   0  0  0  0  0  0  0  0  0  0  0  0
   16.8523  -25.7663    1.2303 C   0  0  2  0  0  0  0  0  0  0  0  0
   16.4213  -26.4726   -0.0249 N   0  0  0  0  0  0  0  0  0  0  0  0
   16.8734  -26.7398    2.3111 C   0  0  0  0  0  0  0  0  0  0  0  0
   17.7384  -26.5570    3.3997 O   0  0  0  0  0  0  0  0  0  0  0  0
   16.1625  -27.7465    2.3395 O   0  0  0  0  0  0  0  0  0  0  0  0
  2  3  1  0
  2  1  1  0
  3  4  1  1
  5  3  1  0
  5  6  1  6
  7  9  1  0
  7  5  1  0
  8  7  2  0
 10 11  1  6
 10  9  1  0
 11 12  1  0
 12 13  1  0
 13 14  1  0
 14 15  1  0
 16 10  1  0
 16 17  2  0
 19 20  1  0
 19 18  1  0
 20 21  1  0
 22 21  1  1
 22 24  1  0
 22 23  1  0
 23 16  1  0
 24 25  1  0
 26 24  2  0
M  END
$$$$
