IKM.pdb
     RDKit          3D

 26 25  0  0  1  0  0  0  0  0999 V2000
   28.9463  -18.4790  -18.7951 C   0  0  0  0  0  0  0  0  0  0  0  0
   28.7696  -19.3093  -17.5761 C   0  0  0  0  0  0  0  0  0  0  0  0
   27.6290  -18.8595  -16.6834 C   0  0  2  0  0  0  0  0  0  0  0  0
   27.8107  -17.4724  -16.1777 C   0  0  0  0  0  0  0  0  0  0  0  0
   27.7021  -19.8196  -15.4822 C   0  0  2  0  0  0  0  0  0  0  0  0
   27.5335  -21.1811  -16.0286 N   0  0  0  0  0  0  0  0  0  0  0  0
   26.5980  -19.6333  -14.5306 C   0  0  0  0  0  0  0  0  0  0  0  0
   26.5213  -18.5401  -13.8743 O   0  0  0  0  0  0  0  0  0  0  0  0
   25.5628  -20.5612  -14.2444 N   0  0  0  0  0  0  0  0  0  0  0  0
   24.5288  -20.2990  -13.2631 C   0  0  1  0  0  0  0  0  0  0  0  0
   23.2453  -21.0438  -13.5667 C   0  0  0  0  0  0  0  0  0  0  0  0
   22.2073  -20.6768  -12.5587 C   0  0  0  0  0  0  0  0  0  0  0  0
   20.9487  -21.4335  -12.8207 C   0  0  0  0  0  0  0  0  0  0  0  0
   19.8128  -20.5220  -13.1475 C   0  0  0  0  0  0  0  0  0  0  0  0
   18.6253  -21.3323  -13.4709 N   0  0  0  0  0  0  0  0  0  0  0  0
   25.0057  -20.7804  -11.9226 C   0  0  0  0  0  0  0  0  0  0  0  0
   25.3947  -21.9682  -11.8416 O   0  0  0  0  0  0  0  0  0  0  0  0
   28.4607  -19.7375   -5.0266 C   0  0  0  0  0  0  0  0  0  0  0  0
   27.7612  -18.9867   -6.5194 S   0  0  0  0  0  0  0  0  0  0  0  0
   26.8450  -20.1814   -7.4941 C   0  0  0  0  0  0  0  0  0  0  0  0
   26.2354  -19.6569   -8.7315 C   0  0  0  0  0  0  0  0  0  0  0  0
   25.3554  -20.5921   -9.4616 C   0  0  2  0  0  0  0  0  0  0  0  0
   25.0297  -19.9688  -10.7904 N   0  0  0  0  0  0  0  0  0  0  0  0
   24.1030  -20.9173   -8.7968 C   0  0  0  0  0  0  0  0  0  0  0  0
   24.0933  -21.8298   -7.7320 O   0  0  0  0  0  0  0  0  0  0  0  0
   23.0144  -20.4327   -9.1127 O   0  0  0  0  0  0  0  0  0  0  0  0
  2  3  1  0
  2  1  1  0
  3  4  1  1
  5  3  1  0
  5  6  1  6
  7  9  1  0
  7  5  1  0
  8  7  2  0
 10 11  1  6
 10  9  1  0
 11 12  1  0
 12 13  1  0
 13 14  1  0
 14 15  1  0
 16 10  1  0
 16 17  2  0
 19 20  1  0
 19 18  1  0
 20 21  1  0
 22 21  1  1
 22 24  1  0
 22 23  1  0
 23 16  1  0
 24 25  1  0
 26 24  2  0
M  END
$$$$
