IKM.pdb
     RDKit          3D

 26 25  0  0  1  0  0  0  0  0999 V2000
   26.1087  -17.6503  -17.1221 C   0  0  0  0  0  0  0  0  0  0  0  0
   26.5184  -18.6339  -16.0870 C   0  0  0  0  0  0  0  0  0  0  0  0
   27.8804  -18.3585  -15.4793 C   0  0  2  0  0  0  0  0  0  0  0  0
   28.9862  -18.5033  -16.4635 C   0  0  0  0  0  0  0  0  0  0  0  0
   28.0384  -19.4615  -14.4169 C   0  0  2  0  0  0  0  0  0  0  0  0
   27.8118  -20.7437  -15.1135 N   0  0  0  0  0  0  0  0  0  0  0  0
   27.0158  -19.3948  -13.3639 C   0  0  0  0  0  0  0  0  0  0  0  0
   26.9480  -18.3522  -12.6288 O   0  0  0  0  0  0  0  0  0  0  0  0
   26.0532  -20.3913  -13.0556 N   0  0  0  0  0  0  0  0  0  0  0  0
   25.0906  -20.2413  -11.9824 C   0  0  1  0  0  0  0  0  0  0  0  0
   23.8541  -21.0897  -12.1960 C   0  0  0  0  0  0  0  0  0  0  0  0
   23.0613  -20.5355  -13.3328 C   0  0  0  0  0  0  0  0  0  0  0  0
   21.8285  -21.3490  -13.5423 C   0  0  0  0  0  0  0  0  0  0  0  0
   20.9836  -20.7999  -14.6435 C   0  0  0  0  0  0  0  0  0  0  0  0
   19.7297  -21.5704  -14.7157 N   0  0  0  0  0  0  0  0  0  0  0  0
   25.7227  -20.7063  -10.7018 C   0  0  0  0  0  0  0  0  0  0  0  0
   26.3662  -21.7804  -10.7332 O   0  0  0  0  0  0  0  0  0  0  0  0
   30.2116  -19.3747   -6.1389 C   0  0  0  0  0  0  0  0  0  0  0  0
   28.5856  -19.2415   -5.3517 S   0  0  0  0  0  0  0  0  0  0  0  0
   27.3664  -20.2686   -6.1733 C   0  0  0  0  0  0  0  0  0  0  0  0
   26.9985  -19.8474   -7.5390 C   0  0  0  0  0  0  0  0  0  0  0  0
   25.9967  -20.6896   -8.2240 C   0  0  2  0  0  0  0  0  0  0  0  0
   25.6201  -19.9994   -9.5055 N   0  0  0  0  0  0  0  0  0  0  0  0
   24.7769  -20.9431   -7.4729 C   0  0  0  0  0  0  0  0  0  0  0  0
   24.8239  -21.7158   -6.3037 O   0  0  0  0  0  0  0  0  0  0  0  0
   23.6691  -20.5135   -7.8014 O   0  0  0  0  0  0  0  0  0  0  0  0
  2  3  1  0
  2  1  1  0
  3  4  1  6
  5  3  1  0
  5  6  1  6
  7  9  1  0
  7  5  1  0
  8  7  2  0
 10 11  1  6
 10  9  1  0
 11 12  1  0
 12 13  1  0
 13 14  1  0
 14 15  1  0
 16 10  1  0
 16 17  2  0
 19 20  1  0
 19 18  1  0
 20 21  1  0
 22 21  1  1
 22 24  1  0
 22 23  1  0
 23 16  1  0
 24 25  1  0
 26 24  2  0
M  END
$$$$
