IKM.pdb
     RDKit          3D

 26 25  0  0  1  0  0  0  0  0999 V2000
   24.3620  -13.0032  -15.4976 C   0  0  0  0  0  0  0  0  0  0  0  0
   25.2934  -14.0114  -16.0658 C   0  0  0  0  0  0  0  0  0  0  0  0
   25.3566  -15.3057  -15.2780 C   0  0  2  0  0  0  0  0  0  0  0  0
   26.3272  -15.2439  -14.1524 C   0  0  0  0  0  0  0  0  0  0  0  0
   25.8752  -16.3331  -16.3005 C   0  0  2  0  0  0  0  0  0  0  0  0
   24.9036  -16.3383  -17.4125 N   0  0  0  0  0  0  0  0  0  0  0  0
   25.8890  -17.7063  -15.7778 C   0  0  0  0  0  0  0  0  0  0  0  0
   24.7793  -18.3102  -15.5887 O   0  0  0  0  0  0  0  0  0  0  0  0
   27.0363  -18.4737  -15.4469 N   0  0  0  0  0  0  0  0  0  0  0  0
   26.9507  -19.8395  -14.9692 C   0  0  1  0  0  0  0  0  0  0  0  0
   28.0641  -20.7102  -15.5139 C   0  0  0  0  0  0  0  0  0  0  0  0
   27.8276  -22.1283  -15.1123 C   0  0  0  0  0  0  0  0  0  0  0  0
   27.2216  -22.8871  -16.2447 C   0  0  0  0  0  0  0  0  0  0  0  0
   27.0724  -24.3369  -15.9224 C   0  0  0  0  0  0  0  0  0  0  0  0
   26.4901  -25.0293  -17.0855 N   0  0  0  0  0  0  0  0  0  0  0  0
   27.0925  -19.8350  -13.4740 C   0  0  0  0  0  0  0  0  0  0  0  0
   28.1980  -19.4849  -13.0006 O   0  0  0  0  0  0  0  0  0  0  0  0
   28.2640  -18.3561   -7.6979 C   0  0  0  0  0  0  0  0  0  0  0  0
   26.7179  -19.2923   -7.5783 S   0  0  0  0  0  0  0  0  0  0  0  0
   26.5739  -20.5031   -8.8936 C   0  0  0  0  0  0  0  0  0  0  0  0
   26.4864  -19.9494  -10.2588 C   0  0  0  0  0  0  0  0  0  0  0  0
   26.3976  -20.9407  -11.3504 C   0  0  2  0  0  0  0  0  0  0  0  0
   26.0588  -20.1990  -12.6136 N   0  0  0  0  0  0  0  0  0  0  0  0
   25.4057  -21.9880  -11.1624 C   0  0  0  0  0  0  0  0  0  0  0  0
   25.5409  -22.8967  -10.1029 O   0  0  0  0  0  0  0  0  0  0  0  0
   24.4231  -22.1390  -11.8914 O   0  0  0  0  0  0  0  0  0  0  0  0
  2  3  1  0
  2  1  1  0
  3  4  1  1
  5  3  1  0
  5  6  1  6
  7  9  1  0
  7  5  1  0
  8  7  2  0
 10 11  1  6
 10  9  1  0
 11 12  1  0
 12 13  1  0
 13 14  1  0
 14 15  1  0
 16 10  1  0
 16 17  2  0
 19 20  1  0
 19 18  1  0
 20 21  1  0
 22 21  1  1
 22 24  1  0
 22 23  1  0
 23 16  1  0
 24 25  1  0
 26 24  2  0
M  END
$$$$
