IKM.pdb
     RDKit          3D

 26 25  0  0  1  0  0  0  0  0999 V2000
   29.9140  -22.4673  -19.5043 C   0  0  0  0  0  0  0  0  0  0  0  0
   29.4372  -22.7985  -18.1370 C   0  0  0  0  0  0  0  0  0  0  0  0
   28.7260  -21.6558  -17.4381 C   0  0  2  0  0  0  0  0  0  0  0  0
   29.5860  -20.4511  -17.2906 C   0  0  0  0  0  0  0  0  0  0  0  0
   28.4342  -22.2101  -16.0318 C   0  0  2  0  0  0  0  0  0  0  0  0
   27.6882  -23.4692  -16.2287 N   0  0  0  0  0  0  0  0  0  0  0  0
   27.5479  -21.3414  -15.2450 C   0  0  0  0  0  0  0  0  0  0  0  0
   27.9680  -20.1911  -14.8815 O   0  0  0  0  0  0  0  0  0  0  0  0
   26.2251  -21.6402  -14.8262 N   0  0  0  0  0  0  0  0  0  0  0  0
   25.4308  -20.7220  -14.0343 C   0  0  1  0  0  0  0  0  0  0  0  0
   23.9671  -20.7445  -14.4233 C   0  0  0  0  0  0  0  0  0  0  0  0
   23.1978  -19.8429  -13.5160 C   0  0  0  0  0  0  0  0  0  0  0  0
   21.7407  -19.9278  -13.8243 C   0  0  0  0  0  0  0  0  0  0  0  0
   20.9450  -18.9655  -13.0065 C   0  0  0  0  0  0  0  0  0  0  0  0
   19.5111  -19.1935  -13.2580 N   0  0  0  0  0  0  0  0  0  0  0  0
   25.5058  -21.1413  -12.5940 C   0  0  0  0  0  0  0  0  0  0  0  0
   25.2394  -22.3355  -12.3265 O   0  0  0  0  0  0  0  0  0  0  0  0
   28.7521  -20.1542   -5.7681 C   0  0  0  0  0  0  0  0  0  0  0  0
   27.7607  -19.1505   -6.9044 S   0  0  0  0  0  0  0  0  0  0  0  0
   26.6455  -20.1616   -7.8795 C   0  0  0  0  0  0  0  0  0  0  0  0
   26.6969  -19.9379   -9.3373 C   0  0  0  0  0  0  0  0  0  0  0  0
   25.7629  -20.7480  -10.1457 C   0  0  2  0  0  0  0  0  0  0  0  0
   25.8539  -20.2663  -11.5671 N   0  0  0  0  0  0  0  0  0  0  0  0
   24.3683  -20.6852   -9.7366 C   0  0  0  0  0  0  0  0  0  0  0  0
   23.8900  -21.5570   -8.7478 O   0  0  0  0  0  0  0  0  0  0  0  0
   23.5503  -19.8952  -10.2124 O   0  0  0  0  0  0  0  0  0  0  0  0
  2  3  1  0
  2  1  1  0
  3  4  1  1
  5  3  1  0
  5  6  1  6
  7  9  1  0
  7  5  1  0
  8  7  2  0
 10 11  1  6
 10  9  1  0
 11 12  1  0
 12 13  1  0
 13 14  1  0
 14 15  1  0
 16 10  1  0
 16 17  2  0
 19 20  1  0
 19 18  1  0
 20 21  1  0
 22 21  1  1
 22 24  1  0
 22 23  1  0
 23 16  1  0
 24 25  1  0
 26 24  2  0
M  END
$$$$
