IKM.pdb
     RDKit          3D

 26 25  0  0  1  0  0  0  0  0999 V2000
   27.6570  -20.6654   -6.8405 C   0  0  0  0  0  0  0  0  0  0  0  0
   26.2397  -20.2451   -6.9863 C   0  0  0  0  0  0  0  0  0  0  0  0
   25.6800  -20.4369   -8.3827 C   0  0  2  0  0  0  0  0  0  0  0  0
   25.6804  -21.8621   -8.8088 C   0  0  0  0  0  0  0  0  0  0  0  0
   26.6655  -19.6688   -9.2821 C   0  0  2  0  0  0  0  0  0  0  0  0
   26.5347  -18.2435   -8.9182 N   0  0  0  0  0  0  0  0  0  0  0  0
   26.3222  -19.7483  -10.7086 C   0  0  0  0  0  0  0  0  0  0  0  0
   25.3261  -19.0789  -11.1461 O   0  0  0  0  0  0  0  0  0  0  0  0
   26.9954  -20.5100  -11.6991 N   0  0  0  0  0  0  0  0  0  0  0  0
   26.5760  -20.5312  -13.0864 C   0  0  1  0  0  0  0  0  0  0  0  0
   27.6582  -21.0570  -14.0066 C   0  0  0  0  0  0  0  0  0  0  0  0
   27.1228  -21.1590  -15.3962 C   0  0  0  0  0  0  0  0  0  0  0  0
   27.9025  -20.2762  -16.3117 C   0  0  0  0  0  0  0  0  0  0  0  0
   27.3955  -20.3472  -17.7137 C   0  0  0  0  0  0  0  0  0  0  0  0
   28.2299  -19.4854  -18.5697 N   0  0  0  0  0  0  0  0  0  0  0  0
   25.4021  -21.4587  -13.2191 C   0  0  0  0  0  0  0  0  0  0  0  0
   25.2567  -22.3347  -12.3358 O   0  0  0  0  0  0  0  0  0  0  0  0
   20.5982  -18.5864  -11.7726 C   0  0  0  0  0  0  0  0  0  0  0  0
   20.3333  -20.3412  -11.4094 S   0  0  0  0  0  0  0  0  0  0  0  0
   21.0796  -21.3947  -12.6545 C   0  0  0  0  0  0  0  0  0  0  0  0
   22.5112  -21.1504  -12.9171 C   0  0  0  0  0  0  0  0  0  0  0  0
   23.0934  -21.8959  -14.0517 C   0  0  2  0  0  0  0  0  0  0  0  0
   24.4889  -21.3801  -14.2684 N   0  0  0  0  0  0  0  0  0  0  0  0
   22.3703  -21.7825  -15.3089 C   0  0  0  0  0  0  0  0  0  0  0  0
   21.2727  -22.6179  -15.5617 O   0  0  0  0  0  0  0  0  0  0  0  0
   22.6628  -20.9788  -16.1967 O   0  0  0  0  0  0  0  0  0  0  0  0
  2  3  1  0
  2  1  1  0
  3  4  1  6
  5  3  1  0
  5  6  1  1
  7  9  1  0
  7  5  1  0
  8  7  2  0
 10 11  1  6
 10  9  1  0
 11 12  1  0
 12 13  1  0
 13 14  1  0
 14 15  1  0
 16 10  1  0
 16 17  2  0
 19 20  1  0
 19 18  1  0
 20 21  1  0
 22 21  1  1
 22 24  1  0
 22 23  1  0
 23 16  1  0
 24 25  1  0
 26 24  2  0
M  END
$$$$
