IKM.pdb
     RDKit          3D

 26 25  0  0  1  0  0  0  0  0999 V2000
   28.9660  -19.8102   -7.5988 C   0  0  0  0  0  0  0  0  0  0  0  0
   27.9785  -20.6754   -8.2937 C   0  0  0  0  0  0  0  0  0  0  0  0
   26.9324  -19.9089   -9.0800 C   0  0  2  0  0  0  0  0  0  0  0  0
   25.9946  -19.1572   -8.2037 C   0  0  0  0  0  0  0  0  0  0  0  0
   26.1343  -21.0107   -9.8006 C   0  0  2  0  0  0  0  0  0  0  0  0
   27.0951  -21.7163  -10.6722 N   0  0  0  0  0  0  0  0  0  0  0  0
   25.1006  -20.4768  -10.6982 C   0  0  0  0  0  0  0  0  0  0  0  0
   24.1520  -19.7768  -10.2064 O   0  0  0  0  0  0  0  0  0  0  0  0
   25.0299  -20.6516  -12.1049 N   0  0  0  0  0  0  0  0  0  0  0  0
   23.9202  -20.1608  -12.8977 C   0  0  1  0  0  0  0  0  0  0  0  0
   24.2918  -19.9745  -14.3543 C   0  0  0  0  0  0  0  0  0  0  0  0
   23.1346  -19.3862  -15.0911 C   0  0  0  0  0  0  0  0  0  0  0  0
   23.4738  -19.2278  -16.5352 C   0  0  0  0  0  0  0  0  0  0  0  0
   22.3578  -18.5972  -17.2998 C   0  0  0  0  0  0  0  0  0  0  0  0
   22.7791  -18.4143  -18.7000 N   0  0  0  0  0  0  0  0  0  0  0  0
   22.8143  -21.1763  -12.8563 C   0  0  0  0  0  0  0  0  0  0  0  0
   23.1020  -22.3552  -13.1666 O   0  0  0  0  0  0  0  0  0  0  0  0
   19.9358  -23.4539   -7.9467 C   0  0  0  0  0  0  0  0  0  0  0  0
   18.5043  -23.2227   -9.0325 S   0  0  0  0  0  0  0  0  0  0  0  0
   18.9951  -23.0673  -10.7505 C   0  0  0  0  0  0  0  0  0  0  0  0
   20.1243  -22.1525  -11.0076 C   0  0  0  0  0  0  0  0  0  0  0  0
   20.4878  -21.9622  -12.4266 C   0  0  2  0  0  0  0  0  0  0  0  0
   21.5073  -20.8591  -12.4924 N   0  0  0  0  0  0  0  0  0  0  0  0
   19.3868  -21.6121  -13.3107 C   0  0  0  0  0  0  0  0  0  0  0  0
   18.5642  -22.6194  -13.8353 O   0  0  0  0  0  0  0  0  0  0  0  0
   19.1164  -20.4561  -13.6426 O   0  0  0  0  0  0  0  0  0  0  0  0
  2  3  1  0
  2  1  1  0
  3  4  1  1
  5  3  1  0
  5  6  1  6
  7  9  1  0
  7  5  1  0
  8  7  2  0
 10 11  1  6
 10  9  1  0
 11 12  1  0
 12 13  1  0
 13 14  1  0
 14 15  1  0
 16 10  1  0
 16 17  2  0
 19 20  1  0
 19 18  1  0
 20 21  1  0
 22 21  1  1
 22 24  1  0
 22 23  1  0
 23 16  1  0
 24 25  1  0
 26 24  2  0
M  END
$$$$
