FTM.pdb
     RDKit          3D

 27 27  0  0  1  0  0  0  0  0999 V2000
   19.5382  -12.3901  -22.3530 N   0  0  0  0  0  0  0  0  0  0  0  0
   19.3449  -11.6880  -21.1019 C   0  0  1  0  0  0  0  0  0  0  0  0
   19.1892  -12.7064  -19.9980 C   0  0  0  0  0  0  0  0  0  0  0  0
   18.0222  -13.5924  -20.2179 C   0  0  0  0  0  0  0  0  0  0  0  0
   18.2779  -14.9052  -20.6242 C   0  0  0  0  0  0  0  0  0  0  0  0
   17.2701  -15.7901  -20.8525 C   0  0  0  0  0  0  0  0  0  0  0  0
   15.9502  -15.3933  -20.6817 C   0  0  0  0  0  0  0  0  0  0  0  0
   15.6960  -14.0917  -20.2790 C   0  0  0  0  0  0  0  0  0  0  0  0
   16.7103  -13.1869  -20.0449 C   0  0  0  0  0  0  0  0  0  0  0  0
   20.4405  -10.7425  -20.8471 C   0  0  0  0  0  0  0  0  0  0  0  0
   21.5973  -10.8598  -21.3154 O   0  0  0  0  0  0  0  0  0  0  0  0
   20.1351   -6.9342  -21.1370 C   0  0  0  0  0  0  0  0  0  0  0  0
   20.6627   -7.2461  -19.7573 C   0  0  1  0  0  0  0  0  0  0  0  0
   19.5105   -7.2234  -18.9304 O   0  0  0  0  0  0  0  0  0  0  0  0
   21.2620   -8.6275  -19.7698 C   0  0  2  0  0  0  0  0  0  0  0  0
   20.1998   -9.6171  -20.0220 N   0  0  0  0  0  0  0  0  0  0  0  0
   21.8155   -8.9424  -18.4453 C   0  0  0  0  0  0  0  0  0  0  0  0
   21.0653   -9.5101  -17.5636 O   0  0  0  0  0  0  0  0  0  0  0  0
   28.0818  -11.0194  -14.2128 C   0  0  0  0  0  0  0  0  0  0  0  0
   27.4049  -10.2992  -15.7044 S   0  0  0  0  0  0  0  0  0  0  0  0
   25.7124   -9.7889  -15.5733 C   0  0  0  0  0  0  0  0  0  0  0  0
   24.9684   -9.4813  -16.8033 C   0  0  0  0  0  0  0  0  0  0  0  0
   23.5517   -9.0356  -16.6494 C   0  0  2  0  0  0  0  0  0  0  0  0
   23.1297   -8.6746  -18.0461 N   0  0  0  0  0  0  0  0  0  0  0  0
   23.4324   -7.8454  -15.8081 C   0  0  0  0  0  0  0  0  0  0  0  0
   23.2143   -7.8288  -14.5888 O   0  0  0  0  0  0  0  0  0  0  0  0
   23.5750   -6.5862  -16.4153 O   0  0  0  0  0  0  0  0  0  0  0  0
  2  1  1  6
  2 10  1  0
  3  2  1  0
  3  4  1  0
  4  9  2  0
  5  4  1  0
  5  6  2  0
  6  7  1  0
  7  8  2  0
  9  8  1  0
 10 16  1  0
 11 10  2  0
 13 12  1  6
 13 14  1  0
 15 17  1  0
 15 13  1  0
 15 16  1  1
 17 24  1  0
 18 17  2  0
 19 20  1  0
 20 21  1  0
 23 22  1  6
 22 21  1  0
 23 25  1  0
 24 23  1  0
 25 26  2  0
 25 27  1  0
M  END
$$$$
