FTM.pdb
     RDKit          3D

 27 27  0  0  1  0  0  0  0  0999 V2000
   25.6000  -20.6095  -13.9001 N   0  0  0  0  0  0  0  0  0  0  0  0
   25.0558  -20.9339  -12.5985 C   0  0  1  0  0  0  0  0  0  0  0  0
   25.8104  -20.1489  -11.5525 C   0  0  0  0  0  0  0  0  0  0  0  0
   27.2392  -20.5357  -11.4885 C   0  0  0  0  0  0  0  0  0  0  0  0
   27.6203  -21.4281  -10.4823 C   0  0  0  0  0  0  0  0  0  0  0  0
   28.9100  -21.8385  -10.3442 C   0  0  0  0  0  0  0  0  0  0  0  0
   29.8822  -21.3677  -11.2170 C   0  0  0  0  0  0  0  0  0  0  0  0
   29.5050  -20.4829  -12.2148 C   0  0  0  0  0  0  0  0  0  0  0  0
   28.2004  -20.0605  -12.3635 C   0  0  0  0  0  0  0  0  0  0  0  0
   23.6075  -20.6905  -12.5512 C   0  0  0  0  0  0  0  0  0  0  0  0
   23.0639  -19.6042  -12.8604 O   0  0  0  0  0  0  0  0  0  0  0  0
   19.3595  -21.5141  -13.7137 C   0  0  0  0  0  0  0  0  0  0  0  0
   20.8643  -21.4202  -13.6354 C   0  0  1  0  0  0  0  0  0  0  0  0
   21.1553  -20.1072  -14.0861 O   0  0  0  0  0  0  0  0  0  0  0  0
   21.2843  -21.5775  -12.1979 C   0  0  2  0  0  0  0  0  0  0  0  0
   22.7479  -21.7349  -12.1324 N   0  0  0  0  0  0  0  0  0  0  0  0
   20.7097  -22.8111  -11.6431 C   0  0  0  0  0  0  0  0  0  0  0  0
   20.9841  -23.9428  -12.1968 O   0  0  0  0  0  0  0  0  0  0  0  0
   17.9634  -23.3951   -5.6732 C   0  0  0  0  0  0  0  0  0  0  0  0
   17.3849  -24.8738   -6.4980 S   0  0  0  0  0  0  0  0  0  0  0  0
   17.9656  -25.0639   -8.1619 C   0  0  0  0  0  0  0  0  0  0  0  0
   18.7206  -23.9635   -8.7784 C   0  0  0  0  0  0  0  0  0  0  0  0
   19.2255  -24.1776  -10.1672 C   0  0  2  0  0  0  0  0  0  0  0  0
   19.8665  -22.8667  -10.5276 N   0  0  0  0  0  0  0  0  0  0  0  0
   18.1446  -24.4403  -11.1166 C   0  0  0  0  0  0  0  0  0  0  0  0
   17.2906  -23.6280  -11.4975 O   0  0  0  0  0  0  0  0  0  0  0  0
   18.0418  -25.7299  -11.6653 O   0  0  0  0  0  0  0  0  0  0  0  0
  2  1  1  6
  2 10  1  0
  3  2  1  0
  3  4  1  0
  4  9  2  0
  5  4  1  0
  5  6  2  0
  6  7  1  0
  7  8  2  0
  9  8  1  0
 10 16  1  0
 11 10  2  0
 13 12  1  1
 13 14  1  0
 15 17  1  0
 15 13  1  0
 15 16  1  6
 17 24  1  0
 18 17  2  0
 19 20  1  0
 20 21  1  0
 23 22  1  1
 22 21  1  0
 23 25  1  0
 24 23  1  0
 25 26  2  0
 25 27  1  0
M  END
$$$$
