FTM.pdb
     RDKit          3D

 27 27  0  0  1  0  0  0  0  0999 V2000
   25.4195  -16.8916  -16.7059 N   0  0  0  0  0  0  0  0  0  0  0  0
   26.2298  -17.1403  -15.5324 C   0  0  1  0  0  0  0  0  0  0  0  0
   26.3381  -15.8582  -14.7422 C   0  0  0  0  0  0  0  0  0  0  0  0
   26.9793  -14.7748  -15.5233 C   0  0  0  0  0  0  0  0  0  0  0  0
   26.2244  -13.6241  -15.7683 C   0  0  0  0  0  0  0  0  0  0  0  0
   26.7282  -12.5784  -16.4780 C   0  0  0  0  0  0  0  0  0  0  0  0
   28.0225  -12.6419  -16.9773 C   0  0  0  0  0  0  0  0  0  0  0  0
   28.7715  -13.7825  -16.7349 C   0  0  0  0  0  0  0  0  0  0  0  0
   28.2703  -14.8481  -16.0167 C   0  0  0  0  0  0  0  0  0  0  0  0
   25.6876  -18.2500  -14.7362 C   0  0  0  0  0  0  0  0  0  0  0  0
   24.4681  -18.5270  -14.6502 O   0  0  0  0  0  0  0  0  0  0  0  0
   26.0908  -22.7209  -13.2689 C   0  0  0  0  0  0  0  0  0  0  0  0
   26.6944  -21.5012  -13.9226 C   0  0  1  0  0  0  0  0  0  0  0  0
   26.2989  -21.6023  -15.2809 O   0  0  0  0  0  0  0  0  0  0  0  0
   26.0910  -20.2703  -13.2995 C   0  0  2  0  0  0  0  0  0  0  0  0
   26.5797  -19.0752  -14.0095 N   0  0  0  0  0  0  0  0  0  0  0  0
   26.5473  -20.1413  -11.9085 C   0  0  0  0  0  0  0  0  0  0  0  0
   27.7929  -20.3253  -11.6306 O   0  0  0  0  0  0  0  0  0  0  0  0
   27.5560  -18.2235   -5.5617 C   0  0  0  0  0  0  0  0  0  0  0  0
   28.3779  -19.3124   -6.7195 S   0  0  0  0  0  0  0  0  0  0  0  0
   27.7115  -19.2796   -8.3616 C   0  0  0  0  0  0  0  0  0  0  0  0
   26.2749  -19.5300   -8.5478 C   0  0  0  0  0  0  0  0  0  0  0  0
   25.8886  -20.5793   -9.5373 C   0  0  2  0  0  0  0  0  0  0  0  0
   25.7216  -19.8218  -10.8248 N   0  0  0  0  0  0  0  0  0  0  0  0
   24.6132  -21.2132   -9.2050 C   0  0  0  0  0  0  0  0  0  0  0  0
   23.5141  -20.9604   -9.7173 O   0  0  0  0  0  0  0  0  0  0  0  0
   24.6050  -22.2083   -8.2129 O   0  0  0  0  0  0  0  0  0  0  0  0
  2  1  1  6
  2 10  1  0
  3  2  1  0
  3  4  1  0
  4  9  2  0
  5  4  1  0
  5  6  2  0
  6  7  1  0
  7  8  2  0
  9  8  1  0
 10 16  1  0
 11 10  2  0
 13 12  1  1
 13 14  1  0
 15 17  1  0
 15 13  1  0
 15 16  1  6
 17 24  1  0
 18 17  2  0
 19 20  1  0
 20 21  1  0
 23 22  1  1
 22 21  1  0
 23 25  1  0
 24 23  1  0
 25 26  2  0
 25 27  1  0
M  END
$$$$
