FTM.pdb
     RDKit          3D

 27 27  0  0  1  0  0  0  0  0999 V2000
   30.2759  -20.2786  -14.3939 N   0  0  0  0  0  0  0  0  0  0  0  0
   29.4473  -21.0755  -13.5141 C   0  0  1  0  0  0  0  0  0  0  0  0
   30.1339  -21.1829  -12.1736 C   0  0  0  0  0  0  0  0  0  0  0  0
   31.3585  -22.0142  -12.2398 C   0  0  0  0  0  0  0  0  0  0  0  0
   31.2012  -23.3696  -12.5433 C   0  0  0  0  0  0  0  0  0  0  0  0
   32.2674  -24.2107  -12.6237 C   0  0  0  0  0  0  0  0  0  0  0  0
   33.5492  -23.7248  -12.4013 C   0  0  0  0  0  0  0  0  0  0  0  0
   33.7059  -22.3811  -12.1003 C   0  0  0  0  0  0  0  0  0  0  0  0
   32.6318  -21.5199  -12.0163 C   0  0  0  0  0  0  0  0  0  0  0  0
   28.0913  -20.5190  -13.4108 C   0  0  0  0  0  0  0  0  0  0  0  0
   27.7135  -19.4698  -13.9833 O   0  0  0  0  0  0  0  0  0  0  0  0
   23.5247  -20.2689  -12.1461 C   0  0  0  0  0  0  0  0  0  0  0  0
   24.7239  -20.9054  -12.8064 C   0  0  1  0  0  0  0  0  0  0  0  0
   24.7234  -20.3702  -14.1199 O   0  0  0  0  0  0  0  0  0  0  0  0
   25.9659  -20.4726  -12.0731 C   0  0  2  0  0  0  0  0  0  0  0  0
   27.1299  -21.1927  -12.6191 N   0  0  0  0  0  0  0  0  0  0  0  0
   25.8681  -20.8562  -10.6578 C   0  0  0  0  0  0  0  0  0  0  0  0
   25.7750  -22.1035  -10.3443 O   0  0  0  0  0  0  0  0  0  0  0  0
   27.7988  -19.1787   -3.2164 C   0  0  0  0  0  0  0  0  0  0  0  0
   27.6484  -18.6911   -4.9314 S   0  0  0  0  0  0  0  0  0  0  0  0
   26.7218  -19.8174   -5.9388 C   0  0  0  0  0  0  0  0  0  0  0  0
   26.6069  -19.5486   -7.3795 C   0  0  0  0  0  0  0  0  0  0  0  0
   25.7813  -20.4961   -8.1857 C   0  0  2  0  0  0  0  0  0  0  0  0
   25.8712  -19.9567   -9.5858 N   0  0  0  0  0  0  0  0  0  0  0  0
   24.3767  -20.4937   -7.7786 C   0  0  0  0  0  0  0  0  0  0  0  0
   23.4707  -19.8115   -8.2767 O   0  0  0  0  0  0  0  0  0  0  0  0
   23.9899  -21.3372   -6.7233 O   0  0  0  0  0  0  0  0  0  0  0  0
  2  1  1  6
  2 10  1  0
  3  2  1  0
  3  4  1  0
  4  9  2  0
  5  4  1  0
  5  6  2  0
  6  7  1  0
  7  8  2  0
  9  8  1  0
 10 16  1  0
 11 10  2  0
 13 12  1  1
 13 14  1  0
 15 17  1  0
 15 13  1  0
 15 16  1  6
 17 24  1  0
 18 17  2  0
 19 20  1  0
 20 21  1  0
 23 22  1  1
 22 21  1  0
 23 25  1  0
 24 23  1  0
 25 26  2  0
 25 27  1  0
M  END
$$$$
