FTM.pdb
     RDKit          3D

 27 27  0  0  1  0  0  0  0  0999 V2000
   28.4647  -21.2003   -8.9676 N   0  0  0  0  0  0  0  0  0  0  0  0
   27.1535  -20.5871   -8.9828 C   0  0  1  0  0  0  0  0  0  0  0  0
   27.2166  -19.2973   -8.2001 C   0  0  0  0  0  0  0  0  0  0  0  0
   27.6371  -19.5173   -6.7966 C   0  0  0  0  0  0  0  0  0  0  0  0
   26.7558  -20.2100   -5.9613 C   0  0  0  0  0  0  0  0  0  0  0  0
   27.0549  -20.4572   -4.6574 C   0  0  0  0  0  0  0  0  0  0  0  0
   28.2615  -20.0167   -4.1297 C   0  0  0  0  0  0  0  0  0  0  0  0
   29.1357  -19.3299   -4.9572 C   0  0  0  0  0  0  0  0  0  0  0  0
   28.8422  -19.0740   -6.2804 C   0  0  0  0  0  0  0  0  0  0  0  0
   26.6736  -20.3901  -10.3576 C   0  0  0  0  0  0  0  0  0  0  0  0
   27.4218  -20.2149  -11.3480 O   0  0  0  0  0  0  0  0  0  0  0  0
   26.7278  -21.4410  -12.8265 C   0  0  0  0  0  0  0  0  0  0  0  0
   25.2183  -21.4223  -12.8080 C   0  0  1  0  0  0  0  0  0  0  0  0
   24.8626  -22.6390  -12.1718 O   0  0  0  0  0  0  0  0  0  0  0  0
   24.7595  -20.2525  -11.9781 C   0  0  2  0  0  0  0  0  0  0  0  0
   25.2797  -20.3942  -10.6068 N   0  0  0  0  0  0  0  0  0  0  0  0
   23.2941  -20.2637  -11.8684 C   0  0  0  0  0  0  0  0  0  0  0  0
   22.7464  -20.4005  -10.7092 O   0  0  0  0  0  0  0  0  0  0  0  0
   19.5827  -16.4680  -15.7896 C   0  0  0  0  0  0  0  0  0  0  0  0
   19.8629  -18.1452  -16.3464 S   0  0  0  0  0  0  0  0  0  0  0  0
   20.2832  -19.2882  -15.0585 C   0  0  0  0  0  0  0  0  0  0  0  0
   20.6599  -18.7609  -13.7390 C   0  0  0  0  0  0  0  0  0  0  0  0
   20.9828  -19.7564  -12.6741 C   0  0  2  0  0  0  0  0  0  0  0  0
   22.4126  -20.1308  -12.9472 N   0  0  0  0  0  0  0  0  0  0  0  0
   20.1618  -20.9626  -12.7742 C   0  0  0  0  0  0  0  0  0  0  0  0
   18.9963  -21.0907  -12.3748 O   0  0  0  0  0  0  0  0  0  0  0  0
   20.7243  -22.1003  -13.3775 O   0  0  0  0  0  0  0  0  0  0  0  0
  2  1  1  6
  2 10  1  0
  3  2  1  0
  3  4  1  0
  4  9  2  0
  5  4  1  0
  5  6  2  0
  6  7  1  0
  7  8  2  0
  9  8  1  0
 10 16  1  0
 11 10  2  0
 13 12  1  1
 13 14  1  0
 15 17  1  0
 15 13  1  0
 15 16  1  1
 17 24  1  0
 18 17  2  0
 19 20  1  0
 20 21  1  0
 23 22  1  6
 22 21  1  0
 23 25  1  0
 24 23  1  0
 25 26  2  0
 25 27  1  0
M  END
$$$$
