FTM.pdb
     RDKit          3D

 27 27  0  0  1  0  0  0  0  0999 V2000
   28.4509  -21.4025   -9.2516 N   0  0  0  0  0  0  0  0  0  0  0  0
   27.1251  -20.8217   -9.2297 C   0  0  1  0  0  0  0  0  0  0  0  0
   27.1553  -19.5869   -8.3612 C   0  0  0  0  0  0  0  0  0  0  0  0
   27.4353  -19.9101   -6.9427 C   0  0  0  0  0  0  0  0  0  0  0  0
   28.6538  -19.4770   -6.4118 C   0  0  0  0  0  0  0  0  0  0  0  0
   28.9987  -19.7291   -5.1202 C   0  0  0  0  0  0  0  0  0  0  0  0
   28.1290  -20.4328   -4.2974 C   0  0  0  0  0  0  0  0  0  0  0  0
   26.9208  -20.8625   -4.8231 C   0  0  0  0  0  0  0  0  0  0  0  0
   26.5614  -20.6123   -6.1310 C   0  0  0  0  0  0  0  0  0  0  0  0
   26.6430  -20.5436  -10.5896 C   0  0  0  0  0  0  0  0  0  0  0  0
   27.2598  -19.8450  -11.4280 O   0  0  0  0  0  0  0  0  0  0  0  0
   26.4689  -22.5496  -13.2787 C   0  0  0  0  0  0  0  0  0  0  0  0
   25.0121  -22.1775  -13.1418 C   0  0  1  0  0  0  0  0  0  0  0  0
   24.4527  -23.2347  -12.3795 O   0  0  0  0  0  0  0  0  0  0  0  0
   24.9135  -20.8829  -12.3791 C   0  0  2  0  0  0  0  0  0  0  0  0
   25.4038  -21.0884  -11.0048 N   0  0  0  0  0  0  0  0  0  0  0  0
   23.5050  -20.4805  -12.2606 C   0  0  0  0  0  0  0  0  0  0  0  0
   22.9068  -20.5948  -11.1241 O   0  0  0  0  0  0  0  0  0  0  0  0
   19.4891  -17.4025  -17.0699 C   0  0  0  0  0  0  0  0  0  0  0  0
   19.1654  -16.9017  -15.3828 S   0  0  0  0  0  0  0  0  0  0  0  0
   19.5899  -18.1132  -14.1606 C   0  0  0  0  0  0  0  0  0  0  0  0
   20.9795  -18.5873  -14.0864 C   0  0  0  0  0  0  0  0  0  0  0  0
   21.2977  -19.6042  -13.0404 C   0  0  2  0  0  0  0  0  0  0  0  0
   22.7325  -19.9638  -13.3068 N   0  0  0  0  0  0  0  0  0  0  0  0
   20.4853  -20.8127  -13.1756 C   0  0  0  0  0  0  0  0  0  0  0  0
   20.7193  -21.7730  -13.9221 O   0  0  0  0  0  0  0  0  0  0  0  0
   19.3220  -20.9214  -12.3948 O   0  0  0  0  0  0  0  0  0  0  0  0
  2  1  1  6
  2 10  1  0
  3  2  1  0
  3  4  1  0
  4  9  2  0
  5  4  1  0
  5  6  2  0
  6  7  1  0
  7  8  2  0
  9  8  1  0
 10 16  1  0
 11 10  2  0
 13 12  1  1
 13 14  1  0
 15 17  1  0
 15 13  1  0
 15 16  1  1
 17 24  1  0
 18 17  2  0
 19 20  1  0
 20 21  1  0
 23 22  1  6
 22 21  1  0
 23 25  1  0
 24 23  1  0
 25 26  2  0
 25 27  1  0
M  END
$$$$
