FTM.pdb
     RDKit          3D

 27 27  0  0  1  0  0  0  0  0999 V2000
   27.7521  -17.6069  -16.6975 N   0  0  0  0  0  0  0  0  0  0  0  0
   26.9328  -17.5213  -15.5071 C   0  0  1  0  0  0  0  0  0  0  0  0
   25.9328  -16.4050  -15.6908 C   0  0  0  0  0  0  0  0  0  0  0  0
   26.5909  -15.0853  -15.8331 C   0  0  0  0  0  0  0  0  0  0  0  0
   26.5142  -14.4585  -17.0802 C   0  0  0  0  0  0  0  0  0  0  0  0
   27.0897  -13.2466  -17.3059 C   0  0  0  0  0  0  0  0  0  0  0  0
   27.7733  -12.6049  -16.2814 C   0  0  0  0  0  0  0  0  0  0  0  0
   27.8498  -13.2257  -15.0447 C   0  0  0  0  0  0  0  0  0  0  0  0
   27.2699  -14.4541  -14.8055 C   0  0  0  0  0  0  0  0  0  0  0  0
   26.2922  -18.8094  -15.2078 C   0  0  0  0  0  0  0  0  0  0  0  0
   26.1387  -19.7321  -16.0422 O   0  0  0  0  0  0  0  0  0  0  0  0
   25.1987  -22.1240  -11.8368 C   0  0  0  0  0  0  0  0  0  0  0  0
   25.8803  -20.8468  -12.2650 C   0  0  1  0  0  0  0  0  0  0  0  0
   27.2209  -21.2352  -12.5177 O   0  0  0  0  0  0  0  0  0  0  0  0
   25.2364  -20.3576  -13.5353 C   0  0  2  0  0  0  0  0  0  0  0  0
   25.8083  -19.0491  -13.8988 N   0  0  0  0  0  0  0  0  0  0  0  0
   23.8010  -20.1348  -13.3125 C   0  0  0  0  0  0  0  0  0  0  0  0
   23.4204  -19.1595  -12.5599 O   0  0  0  0  0  0  0  0  0  0  0  0
   19.5190  -19.2460  -17.9096 C   0  0  0  0  0  0  0  0  0  0  0  0
   18.5409  -20.0555  -16.6488 S   0  0  0  0  0  0  0  0  0  0  0  0
   19.3105  -20.1290  -15.0538 C   0  0  0  0  0  0  0  0  0  0  0  0
   20.7320  -20.4941  -14.9697 C   0  0  0  0  0  0  0  0  0  0  0  0
   21.3494  -20.5213  -13.6105 C   0  0  2  0  0  0  0  0  0  0  0  0
   22.7779  -20.9120  -13.8672 N   0  0  0  0  0  0  0  0  0  0  0  0
   20.7421  -21.5318  -12.7450 C   0  0  0  0  0  0  0  0  0  0  0  0
   21.0788  -22.7207  -12.6589 O   0  0  0  0  0  0  0  0  0  0  0  0
   19.6720  -21.1437  -11.9210 O   0  0  0  0  0  0  0  0  0  0  0  0
  2  1  1  6
  2 10  1  0
  3  2  1  0
  3  4  1  0
  4  9  2  0
  5  4  1  0
  5  6  2  0
  6  7  1  0
  7  8  2  0
  9  8  1  0
 10 16  1  0
 11 10  2  0
 13 12  1  6
 13 14  1  0
 15 17  1  0
 15 13  1  0
 15 16  1  1
 17 24  1  0
 18 17  2  0
 19 20  1  0
 20 21  1  0
 23 22  1  6
 22 21  1  0
 23 25  1  0
 24 23  1  0
 25 26  2  0
 25 27  1  0
M  END
$$$$
