FTM.pdb
     RDKit          3D

 27 27  0  0  1  0  0  0  0  0999 V2000
   21.3111  -19.9553  -15.4788 N   0  0  0  0  0  0  0  0  0  0  0  0
   22.4133  -19.3652  -14.7491 C   0  0  1  0  0  0  0  0  0  0  0  0
   22.0642  -17.9320  -14.4268 C   0  0  0  0  0  0  0  0  0  0  0  0
   22.0329  -17.0801  -15.6385 C   0  0  0  0  0  0  0  0  0  0  0  0
   20.7937  -16.5683  -16.0341 C   0  0  0  0  0  0  0  0  0  0  0  0
   20.6667  -15.7787  -17.1346 C   0  0  0  0  0  0  0  0  0  0  0  0
   21.7870  -15.4650  -17.8930 C   0  0  0  0  0  0  0  0  0  0  0  0
   23.0160  -15.9721  -17.5014 C   0  0  0  0  0  0  0  0  0  0  0  0
   23.1556  -16.7735  -16.3875 C   0  0  0  0  0  0  0  0  0  0  0  0
   22.7394  -20.1500  -13.5504 C   0  0  0  0  0  0  0  0  0  0  0  0
   21.8868  -20.6894  -12.8065 O   0  0  0  0  0  0  0  0  0  0  0  0
   23.9045  -23.2186  -13.3788 C   0  0  0  0  0  0  0  0  0  0  0  0
   25.0151  -22.5067  -12.6448 C   0  0  1  0  0  0  0  0  0  0  0  0
   25.9773  -22.2324  -13.6501 O   0  0  0  0  0  0  0  0  0  0  0  0
   24.4748  -21.2186  -12.0823 C   0  0  2  0  0  0  0  0  0  0  0  0
   24.0978  -20.3233  -13.1903 N   0  0  0  0  0  0  0  0  0  0  0  0
   25.5275  -20.5238  -11.3282 C   0  0  0  0  0  0  0  0  0  0  0  0
   26.1120  -19.5007  -11.8519 O   0  0  0  0  0  0  0  0  0  0  0  0
   29.1729  -19.0685   -4.4595 C   0  0  0  0  0  0  0  0  0  0  0  0
   27.8699  -19.8646   -5.3923 S   0  0  0  0  0  0  0  0  0  0  0  0
   28.0464  -19.7467   -7.1521 C   0  0  0  0  0  0  0  0  0  0  0  0
   26.9522  -20.2289   -8.0073 C   0  0  0  0  0  0  0  0  0  0  0  0
   27.1851  -20.2192   -9.4821 C   0  0  2  0  0  0  0  0  0  0  0  0
   25.9623  -20.8853  -10.0482 N   0  0  0  0  0  0  0  0  0  0  0  0
   28.3581  -21.0046   -9.8642 C   0  0  0  0  0  0  0  0  0  0  0  0
   28.3709  -22.2089  -10.1535 O   0  0  0  0  0  0  0  0  0  0  0  0
   29.6034  -20.3554   -9.9166 O   0  0  0  0  0  0  0  0  0  0  0  0
  2  1  1  1
  2 10  1  0
  3  2  1  0
  3  4  1  0
  4  9  2  0
  5  4  1  0
  5  6  2  0
  6  7  1  0
  7  8  2  0
  9  8  1  0
 10 16  1  0
 11 10  2  0
 13 12  1  6
 13 14  1  0
 15 17  1  0
 15 13  1  0
 15 16  1  6
 17 24  1  0
 18 17  2  0
 19 20  1  0
 20 21  1  0
 23 22  1  1
 22 21  1  0
 23 25  1  0
 24 23  1  0
 25 26  2  0
 25 27  1  0
M  END
$$$$
