FTM.pdb
     RDKit          3D

 27 27  0  0  1  0  0  0  0  0999 V2000
   23.3847  -18.1833  -17.3473 N   0  0  0  0  0  0  0  0  0  0  0  0
   22.0413  -18.4161  -16.8610 C   0  0  1  0  0  0  0  0  0  0  0  0
   21.1377  -18.6651  -18.0448 C   0  0  0  0  0  0  0  0  0  0  0  0
   20.9617  -17.4517  -18.8765 C   0  0  0  0  0  0  0  0  0  0  0  0
   22.0082  -17.1019  -19.7347 C   0  0  0  0  0  0  0  0  0  0  0  0
   21.9377  -16.0036  -20.5345 C   0  0  0  0  0  0  0  0  0  0  0  0
   20.8045  -15.2012  -20.5081 C   0  0  0  0  0  0  0  0  0  0  0  0
   19.7666  -15.5474  -19.6573 C   0  0  0  0  0  0  0  0  0  0  0  0
   19.8280  -16.6586  -18.8425 C   0  0  0  0  0  0  0  0  0  0  0  0
   22.0107  -19.5154  -15.8864 C   0  0  0  0  0  0  0  0  0  0  0  0
   23.0281  -20.0018  -15.3390 O   0  0  0  0  0  0  0  0  0  0  0  0
   20.0947  -18.9294  -13.0820 C   0  0  0  0  0  0  0  0  0  0  0  0
   20.9631  -20.1641  -13.1044 C   0  0  1  0  0  0  0  0  0  0  0  0
   20.5674  -20.8892  -11.9514 O   0  0  0  0  0  0  0  0  0  0  0  0
   20.6464  -20.9554  -14.3458 C   0  0  2  0  0  0  0  0  0  0  0  0
   20.7633  -20.0796  -15.5250 N   0  0  0  0  0  0  0  0  0  0  0  0
   19.2494  -21.4097  -14.3041 C   0  0  0  0  0  0  0  0  0  0  0  0
   18.3035  -20.5758  -14.5735 O   0  0  0  0  0  0  0  0  0  0  0  0
   17.5003  -26.9508  -16.8788 C   0  0  0  0  0  0  0  0  0  0  0  0
   16.6154  -25.4474  -16.4805 S   0  0  0  0  0  0  0  0  0  0  0  0
   16.3133  -25.2071  -14.7506 C   0  0  0  0  0  0  0  0  0  0  0  0
   17.3356  -24.5284  -13.9409 C   0  0  0  0  0  0  0  0  0  0  0  0
   17.3759  -23.0372  -14.0044 C   0  0  2  0  0  0  0  0  0  0  0  0
   18.8432  -22.7118  -13.9912 N   0  0  0  0  0  0  0  0  0  0  0  0
   16.7537  -22.4147  -12.8364 C   0  0  0  0  0  0  0  0  0  0  0  0
   17.2885  -22.2249  -11.7354 O   0  0  0  0  0  0  0  0  0  0  0  0
   15.4218  -21.9804  -12.9462 O   0  0  0  0  0  0  0  0  0  0  0  0
  2  1  1  6
  2 10  1  0
  3  2  1  0
  3  4  1  0
  4  9  2  0
  5  4  1  0
  5  6  2  0
  6  7  1  0
  7  8  2  0
  9  8  1  0
 10 16  1  0
 11 10  2  0
 13 12  1  6
 13 14  1  0
 15 17  1  0
 15 13  1  0
 15 16  1  6
 17 24  1  0
 18 17  2  0
 19 20  1  0
 20 21  1  0
 23 22  1  1
 22 21  1  0
 23 25  1  0
 24 23  1  0
 25 26  2  0
 25 27  1  0
M  END
$$$$
