FTM.pdb
     RDKit          3D

 27 27  0  0  1  0  0  0  0  0999 V2000
   28.1695  -20.9004  -14.7613 N   0  0  0  0  0  0  0  0  0  0  0  0
   27.0812  -20.4625  -13.9131 C   0  0  1  0  0  0  0  0  0  0  0  0
   27.6402  -19.5555  -12.8432 C   0  0  0  0  0  0  0  0  0  0  0  0
   28.5377  -20.2789  -11.9125 C   0  0  0  0  0  0  0  0  0  0  0  0
   29.9149  -20.1198  -12.0916 C   0  0  0  0  0  0  0  0  0  0  0  0
   30.8157  -20.7462  -11.2873 C   0  0  0  0  0  0  0  0  0  0  0  0
   30.3706  -21.5668  -10.2591 C   0  0  0  0  0  0  0  0  0  0  0  0
   29.0053  -21.7251  -10.0810 C   0  0  0  0  0  0  0  0  0  0  0  0
   28.0837  -21.0946  -10.8908 C   0  0  0  0  0  0  0  0  0  0  0  0
   26.0187  -19.8202  -14.6991 C   0  0  0  0  0  0  0  0  0  0  0  0
   26.2157  -19.1647  -15.7492 O   0  0  0  0  0  0  0  0  0  0  0  0
   24.9473  -20.9157  -16.8561 C   0  0  0  0  0  0  0  0  0  0  0  0
   23.5775  -20.8591  -16.2239 C   0  0  1  0  0  0  0  0  0  0  0  0
   23.4408  -22.1136  -15.5762 O   0  0  0  0  0  0  0  0  0  0  0  0
   23.5599  -19.7486  -15.2070 C   0  0  2  0  0  0  0  0  0  0  0  0
   24.6762  -19.9343  -14.2633 N   0  0  0  0  0  0  0  0  0  0  0  0
   22.3273  -19.8222  -14.4102 C   0  0  0  0  0  0  0  0  0  0  0  0
   21.1848  -19.7246  -14.9998 O   0  0  0  0  0  0  0  0  0  0  0  0
   19.3996  -22.3896   -9.8623 C   0  0  0  0  0  0  0  0  0  0  0  0
   19.7817  -20.9004   -8.9469 S   0  0  0  0  0  0  0  0  0  0  0  0
   20.1901  -19.5008   -9.9549 C   0  0  0  0  0  0  0  0  0  0  0  0
   21.3020  -19.6161  -10.9096 C   0  0  0  0  0  0  0  0  0  0  0  0
   20.9541  -19.9410  -12.3248 C   0  0  2  0  0  0  0  0  0  0  0  0
   22.2841  -19.9987  -13.0226 N   0  0  0  0  0  0  0  0  0  0  0  0
   20.1476  -18.8950  -12.9526 C   0  0  0  0  0  0  0  0  0  0  0  0
   20.5134  -17.7380  -13.2013 O   0  0  0  0  0  0  0  0  0  0  0  0
   18.8270  -19.2051  -13.3193 O   0  0  0  0  0  0  0  0  0  0  0  0
  2  1  1  6
  2 10  1  0
  3  2  1  0
  3  4  1  0
  4  9  2  0
  5  4  1  0
  5  6  2  0
  6  7  1  0
  7  8  2  0
  9  8  1  0
 10 16  1  0
 11 10  2  0
 13 12  1  1
 13 14  1  0
 15 17  1  0
 15 13  1  0
 15 16  1  1
 17 24  1  0
 18 17  2  0
 19 20  1  0
 20 21  1  0
 23 22  1  1
 22 21  1  0
 23 25  1  0
 24 23  1  0
 25 26  2  0
 25 27  1  0
M  END
$$$$
