FTM.pdb
     RDKit          3D

 27 27  0  0  1  0  0  0  0  0999 V2000
   20.5325  -19.3246  -16.3886 N   0  0  0  0  0  0  0  0  0  0  0  0
   21.6000  -18.7543  -15.5945 C   0  0  1  0  0  0  0  0  0  0  0  0
   21.2122  -17.3474  -15.2069 C   0  0  0  0  0  0  0  0  0  0  0  0
   21.1491  -16.4438  -16.3793 C   0  0  0  0  0  0  0  0  0  0  0  0
   22.3573  -15.9407  -16.8704 C   0  0  0  0  0  0  0  0  0  0  0  0
   22.3981  -15.1027  -17.9413 C   0  0  0  0  0  0  0  0  0  0  0  0
   21.2184  -14.7293  -18.5718 C   0  0  0  0  0  0  0  0  0  0  0  0
   20.0202  -15.2276  -18.0854 C   0  0  0  0  0  0  0  0  0  0  0  0
   19.9678  -16.0778  -17.0005 C   0  0  0  0  0  0  0  0  0  0  0  0
   21.9058  -19.5966  -14.4299 C   0  0  0  0  0  0  0  0  0  0  0  0
   21.0554  -19.9767  -13.5910 O   0  0  0  0  0  0  0  0  0  0  0  0
   24.3326  -23.3258  -12.8180 C   0  0  0  0  0  0  0  0  0  0  0  0
   23.9076  -22.3310  -13.8711 C   0  0  1  0  0  0  0  0  0  0  0  0
   22.7476  -22.9084  -14.4478 O   0  0  0  0  0  0  0  0  0  0  0  0
   23.5563  -21.0320  -13.1953 C   0  0  2  0  0  0  0  0  0  0  0  0
   23.2404  -20.0202  -14.2189 N   0  0  0  0  0  0  0  0  0  0  0  0
   24.7206  -20.5241  -12.4563 C   0  0  0  0  0  0  0  0  0  0  0  0
   25.6140  -19.8331  -13.0784 O   0  0  0  0  0  0  0  0  0  0  0  0
   27.0171  -18.3698   -5.9673 C   0  0  0  0  0  0  0  0  0  0  0  0
   27.0905  -20.0864   -6.4669 S   0  0  0  0  0  0  0  0  0  0  0  0
   27.3105  -20.3380   -8.2077 C   0  0  0  0  0  0  0  0  0  0  0  0
   26.1220  -20.5335   -9.0506 C   0  0  0  0  0  0  0  0  0  0  0  0
   26.3063  -20.4111  -10.5272 C   0  0  2  0  0  0  0  0  0  0  0  0
   24.9495  -20.7283  -11.0909 N   0  0  0  0  0  0  0  0  0  0  0  0
   27.2635  -21.3854  -11.0500 C   0  0  0  0  0  0  0  0  0  0  0  0
   28.4010  -21.1399  -11.4742 O   0  0  0  0  0  0  0  0  0  0  0  0
   26.8822  -22.7375  -11.0855 O   0  0  0  0  0  0  0  0  0  0  0  0
  2  1  1  1
  2 10  1  0
  3  2  1  0
  3  4  1  0
  4  9  2  0
  5  4  1  0
  5  6  2  0
  6  7  1  0
  7  8  2  0
  9  8  1  0
 10 16  1  0
 11 10  2  0
 13 12  1  1
 13 14  1  0
 15 17  1  0
 15 13  1  0
 15 16  1  6
 17 24  1  0
 18 17  2  0
 19 20  1  0
 20 21  1  0
 23 22  1  1
 22 21  1  0
 23 25  1  0
 24 23  1  0
 25 26  2  0
 25 27  1  0
M  END
$$$$
