FTM.pdb
     RDKit          3D

 27 27  0  0  1  0  0  0  0  0999 V2000
   28.7652  -21.1227  -15.7734 N   0  0  0  0  0  0  0  0  0  0  0  0
   28.9480  -21.1463  -14.3375 C   0  0  1  0  0  0  0  0  0  0  0  0
   30.3053  -20.5684  -14.0159 C   0  0  0  0  0  0  0  0  0  0  0  0
   31.0684  -21.4261  -13.0794 C   0  0  0  0  0  0  0  0  0  0  0  0
   30.9815  -21.1278  -11.7165 C   0  0  0  0  0  0  0  0  0  0  0  0
   31.6486  -21.8583  -10.7827 C   0  0  0  0  0  0  0  0  0  0  0  0
   32.4390  -22.9293  -11.1786 C   0  0  0  0  0  0  0  0  0  0  0  0
   32.5258  -23.2256  -12.5296 C   0  0  0  0  0  0  0  0  0  0  0  0
   31.8536  -22.4914  -13.4844 C   0  0  0  0  0  0  0  0  0  0  0  0
   27.8571  -20.4413  -13.6503 C   0  0  0  0  0  0  0  0  0  0  0  0
   27.2340  -19.4657  -14.1310 O   0  0  0  0  0  0  0  0  0  0  0  0
   25.1810  -19.8186  -13.7505 C   0  0  0  0  0  0  0  0  0  0  0  0
   25.0752  -20.4311  -12.3747 C   0  0  1  0  0  0  0  0  0  0  0  0
   24.8993  -21.8165  -12.6228 O   0  0  0  0  0  0  0  0  0  0  0  0
   26.3695  -20.1984  -11.6411 C   0  0  2  0  0  0  0  0  0  0  0  0
   27.4650  -20.8726  -12.3598 N   0  0  0  0  0  0  0  0  0  0  0  0
   26.3055  -20.8167  -10.3094 C   0  0  0  0  0  0  0  0  0  0  0  0
   26.6586  -22.0483  -10.1649 O   0  0  0  0  0  0  0  0  0  0  0  0
   28.5481  -18.2685   -5.0301 C   0  0  0  0  0  0  0  0  0  0  0  0
   28.0623  -19.9080   -4.5028 S   0  0  0  0  0  0  0  0  0  0  0  0
   26.9349  -20.7293   -5.5965 C   0  0  0  0  0  0  0  0  0  0  0  0
   26.8465  -20.2773   -6.9925 C   0  0  0  0  0  0  0  0  0  0  0  0
   25.8254  -20.9372   -7.8592 C   0  0  2  0  0  0  0  0  0  0  0  0
   25.8847  -20.1627   -9.1460 N   0  0  0  0  0  0  0  0  0  0  0  0
   24.4742  -20.8215   -7.3118 C   0  0  0  0  0  0  0  0  0  0  0  0
   23.5681  -20.0961   -7.7444 O   0  0  0  0  0  0  0  0  0  0  0  0
   24.1449  -21.5969   -6.1870 O   0  0  0  0  0  0  0  0  0  0  0  0
  2  1  1  6
  2 10  1  0
  3  2  1  0
  3  4  1  0
  4  9  2  0
  5  4  1  0
  5  6  2  0
  6  7  1  0
  7  8  2  0
  9  8  1  0
 10 16  1  0
 11 10  2  0
 13 12  1  6
 13 14  1  0
 15 17  1  0
 15 13  1  0
 15 16  1  6
 17 24  1  0
 18 17  2  0
 19 20  1  0
 20 21  1  0
 23 22  1  1
 22 21  1  0
 23 25  1  0
 24 23  1  0
 25 26  2  0
 25 27  1  0
M  END
$$$$
