IDV.pdb
     RDKit          3D

 24 23  0  0  1  0  0  0  0  0999 V2000
   20.9223  -18.9440  -15.0849 C   0  0  0  0  0  0  0  0  0  0  0  0
   19.6921  -18.0764  -15.2225 C   0  0  0  0  0  0  0  0  0  0  0  0
   19.9500  -16.7320  -15.7844 C   0  0  2  0  0  0  0  0  0  0  0  0
   20.9625  -15.9817  -14.9875 C   0  0  0  0  0  0  0  0  0  0  0  0
   18.6653  -15.9253  -15.9881 C   0  0  2  0  0  0  0  0  0  0  0  0
   17.7660  -16.6465  -16.8701 N   0  0  0  0  0  0  0  0  0  0  0  0
   18.9693  -14.6263  -16.6519 C   0  0  0  0  0  0  0  0  0  0  0  0
   18.9503  -14.5783  -17.8942 O   0  0  0  0  0  0  0  0  0  0  0  0
   19.2752  -13.4702  -15.9037 N   0  0  0  0  0  0  0  0  0  0  0  0
   19.5695  -12.1836  -16.5621 C   0  0  1  0  0  0  0  0  0  0  0  0
   18.4767  -11.8222  -17.5061 C   0  0  0  0  0  0  0  0  0  0  0  0
   18.5990  -10.5221  -18.1827 C   0  0  0  0  0  0  0  0  0  0  0  0
   17.9899   -9.5211  -17.7229 O   0  0  0  0  0  0  0  0  0  0  0  0
   19.9368  -11.1884  -15.5484 C   0  0  0  0  0  0  0  0  0  0  0  0
   19.1579  -11.0625  -14.5151 O   0  0  0  0  0  0  0  0  0  0  0  0
   19.3619  -10.3143  -19.3262 O   0  0  0  0  0  0  0  0  0  0  0  0
   22.9920  -11.0270  -13.3639 C   0  0  0  0  0  0  0  0  0  0  0  0
   22.8448   -9.6414  -13.9654 C   0  0  1  0  0  0  0  0  0  0  0  0
   23.9513   -9.3793  -14.9445 C   0  0  0  0  0  0  0  0  0  0  0  0
   21.4678   -9.4346  -14.5063 C   0  0  2  0  0  0  0  0  0  0  0  0
   21.0430  -10.3337  -15.5260 N   0  0  0  0  0  0  0  0  0  0  0  0
   21.1167   -8.0026  -14.6588 C   0  0  0  0  0  0  0  0  0  0  0  0
   21.0940   -7.1040  -13.6492 O   0  0  0  0  0  0  0  0  0  0  0  0
   20.8300   -7.6332  -15.8273 O   0  0  0  0  0  0  0  0  0  0  0  0
  1  2  1  0
  2  3  1  0
  3  5  1  0
  3  4  1  1
  5  7  1  0
  5  6  1  6
  7  8  2  0
  9 10  1  0
  9  7  1  0
 10 14  1  0
 10 11  1  1
 12 13  2  0
 12 11  1  0
 14 15  2  0
 14 21  1  0
 16 12  1  0
 18 17  1  6
 18 20  1  0
 18 19  1  0
 20 22  1  0
 20 21  1  6
 22 24  2  0
 22 23  1  0
M  END
$$$$
