IDV.pdb
     RDKit          3D

 24 23  0  0  1  0  0  0  0  0999 V2000
   11.1530  -13.0093  -13.9637 C   0  0  0  0  0  0  0  0  0  0  0  0
   12.5107  -12.7142  -14.5590 C   0  0  0  0  0  0  0  0  0  0  0  0
   13.3706  -11.8464  -13.7240 C   0  0  2  0  0  0  0  0  0  0  0  0
   12.6623  -10.6044  -13.3011 C   0  0  0  0  0  0  0  0  0  0  0  0
   14.7171  -11.5440  -14.3857 C   0  0  2  0  0  0  0  0  0  0  0  0
   15.4342  -12.7820  -14.6305 N   0  0  0  0  0  0  0  0  0  0  0  0
   15.5686  -10.7258  -13.4768 C   0  0  0  0  0  0  0  0  0  0  0  0
   16.1196  -11.2901  -12.5156 O   0  0  0  0  0  0  0  0  0  0  0  0
   15.7538   -9.3432  -13.6866 N   0  0  0  0  0  0  0  0  0  0  0  0
   16.5984   -8.5352  -12.7871 C   0  0  1  0  0  0  0  0  0  0  0  0
   17.7537   -7.9656  -13.5332 C   0  0  0  0  0  0  0  0  0  0  0  0
   18.6152   -7.0314  -12.7926 C   0  0  0  0  0  0  0  0  0  0  0  0
   18.1767   -5.8933  -12.4816 O   0  0  0  0  0  0  0  0  0  0  0  0
   15.7557   -7.5969  -12.0371 C   0  0  0  0  0  0  0  0  0  0  0  0
   14.9013   -6.8829  -12.7083 O   0  0  0  0  0  0  0  0  0  0  0  0
   19.9161   -7.3250  -12.4002 O   0  0  0  0  0  0  0  0  0  0  0  0
   13.5571   -8.0535   -8.7307 C   0  0  0  0  0  0  0  0  0  0  0  0
   14.4563   -6.8386   -8.5936 C   0  0  1  0  0  0  0  0  0  0  0  0
   15.5144   -7.0888   -7.5594 C   0  0  0  0  0  0  0  0  0  0  0  0
   14.9728   -6.4003   -9.9250 C   0  0  2  0  0  0  0  0  0  0  0  0
   15.7301   -7.3569  -10.6600 N   0  0  0  0  0  0  0  0  0  0  0  0
   15.4476   -4.9961   -9.9261 C   0  0  0  0  0  0  0  0  0  0  0  0
   14.6777   -3.9232   -9.6374 O   0  0  0  0  0  0  0  0  0  0  0  0
   16.6611   -4.8313  -10.2164 O   0  0  0  0  0  0  0  0  0  0  0  0
  1  2  1  0
  2  3  1  0
  3  5  1  0
  3  4  1  6
  5  7  1  0
  5  6  1  1
  7  8  2  0
  9 10  1  0
  9  7  1  0
 10 14  1  0
 10 11  1  6
 12 13  2  0
 12 11  1  0
 14 15  2  0
 14 21  1  0
 16 12  1  0
 18 17  1  6
 18 20  1  0
 18 19  1  0
 20 22  1  0
 20 21  1  1
 22 24  2  0
 22 23  1  0
M  END
$$$$
