IDV.pdb
     RDKit          3D

 24 23  0  0  1  0  0  0  0  0999 V2000
   16.9567  -15.7747  -17.4830 C   0  0  0  0  0  0  0  0  0  0  0  0
   18.0710  -14.8402  -17.8952 C   0  0  0  0  0  0  0  0  0  0  0  0
   18.3801  -13.7819  -16.9082 C   0  0  2  0  0  0  0  0  0  0  0  0
   17.1808  -12.9572  -16.5841 C   0  0  0  0  0  0  0  0  0  0  0  0
   19.5745  -12.9210  -17.3262 C   0  0  2  0  0  0  0  0  0  0  0  0
   20.7504  -13.7562  -17.4883 N   0  0  0  0  0  0  0  0  0  0  0  0
   19.8950  -11.9283  -16.2620 C   0  0  0  0  0  0  0  0  0  0  0  0
   20.6370  -12.2808  -15.3287 O   0  0  0  0  0  0  0  0  0  0  0  0
   19.3757  -10.6172  -16.2966 N   0  0  0  0  0  0  0  0  0  0  0  0
   19.7192   -9.6264  -15.2596 C   0  0  1  0  0  0  0  0  0  0  0  0
   20.8849   -8.8072  -15.6909 C   0  0  0  0  0  0  0  0  0  0  0  0
   21.2992   -7.7279  -14.7817 C   0  0  0  0  0  0  0  0  0  0  0  0
   21.1397   -7.8638  -13.5405 O   0  0  0  0  0  0  0  0  0  0  0  0
   18.5078   -8.9063  -14.8509 C   0  0  0  0  0  0  0  0  0  0  0  0
   17.7652   -8.3932  -15.7866 O   0  0  0  0  0  0  0  0  0  0  0  0
   21.8714   -6.5348  -15.2080 O   0  0  0  0  0  0  0  0  0  0  0  0
   15.3166   -9.8941  -12.9455 C   0  0  0  0  0  0  0  0  0  0  0  0
   15.9060   -8.6805  -12.2505 C   0  0  1  0  0  0  0  0  0  0  0  0
   16.4636   -9.0674  -10.9122 C   0  0  0  0  0  0  0  0  0  0  0  0
   16.8638   -7.9626  -13.1443 C   0  0  2  0  0  0  0  0  0  0  0  0
   18.0143   -8.6918  -13.5605 N   0  0  0  0  0  0  0  0  0  0  0  0
   17.0464   -6.5399  -12.7706 C   0  0  0  0  0  0  0  0  0  0  0  0
   16.0396   -5.6558  -12.5923 O   0  0  0  0  0  0  0  0  0  0  0  0
   18.2378   -6.1668  -12.6117 O   0  0  0  0  0  0  0  0  0  0  0  0
  1  2  1  0
  2  3  1  0
  3  5  1  0
  3  4  1  6
  5  7  1  0
  5  6  1  1
  7  8  2  0
  9 10  1  0
  9  7  1  0
 10 14  1  0
 10 11  1  6
 12 13  2  0
 12 11  1  0
 14 15  2  0
 14 21  1  0
 16 12  1  0
 18 17  1  6
 18 20  1  0
 18 19  1  0
 20 22  1  0
 20 21  1  1
 22 24  2  0
 22 23  1  0
M  END
$$$$
