IDV.pdb
     RDKit          3D

 24 23  0  0  1  0  0  0  0  0999 V2000
   29.1899  -16.7977  -17.5258 C   0  0  0  0  0  0  0  0  0  0  0  0
   28.1259  -17.8089  -17.8870 C   0  0  0  0  0  0  0  0  0  0  0  0
   26.9762  -17.8479  -16.9563 C   0  0  2  0  0  0  0  0  0  0  0  0
   27.4110  -18.0500  -15.5445 C   0  0  0  0  0  0  0  0  0  0  0  0
   25.9118  -18.8622  -17.3814 C   0  0  2  0  0  0  0  0  0  0  0  0
   25.4430  -18.5520  -18.7196 N   0  0  0  0  0  0  0  0  0  0  0  0
   24.7278  -18.7787  -16.4804 C   0  0  0  0  0  0  0  0  0  0  0  0
   24.1085  -17.7025  -16.4160 O   0  0  0  0  0  0  0  0  0  0  0  0
   24.3079  -19.8839  -15.7109 N   0  0  0  0  0  0  0  0  0  0  0  0
   23.2126  -19.7665  -14.7303 C   0  0  1  0  0  0  0  0  0  0  0  0
   21.9119  -20.1229  -15.3604 C   0  0  0  0  0  0  0  0  0  0  0  0
   20.7348  -20.1218  -14.4785 C   0  0  0  0  0  0  0  0  0  0  0  0
   20.5161  -19.1312  -13.7332 O   0  0  0  0  0  0  0  0  0  0  0  0
   23.5793  -20.4776  -13.5002 C   0  0  0  0  0  0  0  0  0  0  0  0
   23.7248  -21.7678  -13.5686 O   0  0  0  0  0  0  0  0  0  0  0  0
   19.8203  -21.1665  -14.4083 O   0  0  0  0  0  0  0  0  0  0  0  0
   24.9356  -21.1274   -8.7983 C   0  0  0  0  0  0  0  0  0  0  0  0
   24.9799  -20.2869  -10.0612 C   0  0  1  0  0  0  0  0  0  0  0  0
   26.3356  -20.3768  -10.6983 C   0  0  0  0  0  0  0  0  0  0  0  0
   23.8391  -20.6184  -10.9667 C   0  0  2  0  0  0  0  0  0  0  0  0
   23.8115  -19.9525  -12.2255 N   0  0  0  0  0  0  0  0  0  0  0  0
   22.5556  -20.7794  -10.2429 C   0  0  0  0  0  0  0  0  0  0  0  0
   22.2695  -21.7970   -9.4005 O   0  0  0  0  0  0  0  0  0  0  0  0
   21.6975  -19.8820  -10.4489 O   0  0  0  0  0  0  0  0  0  0  0  0
  1  2  1  0
  2  3  1  0
  3  5  1  0
  3  4  1  1
  5  7  1  0
  5  6  1  6
  7  8  2  0
  9 10  1  0
  9  7  1  0
 10 14  1  0
 10 11  1  6
 12 13  2  0
 12 11  1  0
 14 15  2  0
 14 21  1  0
 16 12  1  0
 18 17  1  1
 18 20  1  0
 18 19  1  0
 20 22  1  0
 20 21  1  6
 22 24  2  0
 22 23  1  0
M  END
$$$$
