IDV.pdb
     RDKit          3D

 24 23  0  0  1  0  0  0  0  0999 V2000
   28.5929  -15.6910  -18.5896 C   0  0  0  0  0  0  0  0  0  0  0  0
   28.2757  -17.1126  -18.1852 C   0  0  0  0  0  0  0  0  0  0  0  0
   27.2563  -17.2337  -17.1194 C   0  0  2  0  0  0  0  0  0  0  0  0
   27.6976  -16.5833  -15.8523 C   0  0  0  0  0  0  0  0  0  0  0  0
   26.8085  -18.6804  -16.8979 C   0  0  2  0  0  0  0  0  0  0  0  0
   26.3891  -19.2643  -18.1588 N   0  0  0  0  0  0  0  0  0  0  0  0
   25.6280  -18.7238  -15.9896 C   0  0  0  0  0  0  0  0  0  0  0  0
   24.6266  -18.0503  -16.2889 O   0  0  0  0  0  0  0  0  0  0  0  0
   25.6310  -19.5032  -14.8139 N   0  0  0  0  0  0  0  0  0  0  0  0
   24.4319  -19.6152  -13.9624 C   0  0  1  0  0  0  0  0  0  0  0  0
   23.2556  -20.0294  -14.7751 C   0  0  0  0  0  0  0  0  0  0  0  0
   21.9935  -20.2284  -14.0466 C   0  0  0  0  0  0  0  0  0  0  0  0
   21.5913  -21.3965  -13.8053 O   0  0  0  0  0  0  0  0  0  0  0  0
   24.7469  -20.4224  -12.7782 C   0  0  0  0  0  0  0  0  0  0  0  0
   25.1069  -21.6573  -12.9669 O   0  0  0  0  0  0  0  0  0  0  0  0
   21.1909  -19.1883  -13.5921 O   0  0  0  0  0  0  0  0  0  0  0  0
   26.0613  -18.9714   -8.9790 C   0  0  0  0  0  0  0  0  0  0  0  0
   26.2093  -20.3978   -9.4758 C   0  0  1  0  0  0  0  0  0  0  0  0
   26.5566  -21.3116   -8.3373 C   0  0  0  0  0  0  0  0  0  0  0  0
   25.0166  -20.8152  -10.2724 C   0  0  2  0  0  0  0  0  0  0  0  0
   24.7244  -20.0427  -11.4328 N   0  0  0  0  0  0  0  0  0  0  0  0
   23.8788  -21.2458   -9.4255 C   0  0  0  0  0  0  0  0  0  0  0  0
   23.9222  -22.2646   -8.5383 O   0  0  0  0  0  0  0  0  0  0  0  0
   22.8148  -20.5886   -9.5670 O   0  0  0  0  0  0  0  0  0  0  0  0
  1  2  1  0
  2  3  1  0
  3  5  1  0
  3  4  1  1
  5  7  1  0
  5  6  1  6
  7  8  2  0
  9 10  1  0
  9  7  1  0
 10 14  1  0
 10 11  1  6
 12 13  2  0
 12 11  1  0
 14 15  2  0
 14 21  1  0
 16 12  1  0
 18 17  1  1
 18 20  1  0
 18 19  1  0
 20 22  1  0
 20 21  1  1
 22 24  2  0
 22 23  1  0
M  END
$$$$
