IDV.pdb
     RDKit          3D

 24 23  0  0  1  0  0  0  0  0999 V2000
   26.2004  -20.8519   -7.7761 C   0  0  0  0  0  0  0  0  0  0  0  0
   24.8650  -20.5752   -8.4280 C   0  0  0  0  0  0  0  0  0  0  0  0
   24.8527  -20.7484   -9.8975 C   0  0  2  0  0  0  0  0  0  0  0  0
   25.9657  -20.0042  -10.5539 C   0  0  0  0  0  0  0  0  0  0  0  0
   23.4933  -20.4137  -10.5160 C   0  0  2  0  0  0  0  0  0  0  0  0
   22.4744  -21.2908   -9.9692 N   0  0  0  0  0  0  0  0  0  0  0  0
   23.5211  -20.6507  -11.9870 C   0  0  0  0  0  0  0  0  0  0  0  0
   23.1951  -21.7731  -12.4112 O   0  0  0  0  0  0  0  0  0  0  0  0
   23.9075  -19.6378  -12.8895 N   0  0  0  0  0  0  0  0  0  0  0  0
   23.8284  -19.8369  -14.3487 C   0  0  1  0  0  0  0  0  0  0  0  0
   22.4791  -20.3354  -14.7318 C   0  0  0  0  0  0  0  0  0  0  0  0
   22.2293  -20.5092  -16.1707 C   0  0  0  0  0  0  0  0  0  0  0  0
   22.9202  -21.3309  -16.8279 O   0  0  0  0  0  0  0  0  0  0  0  0
   24.3190  -18.6354  -15.0334 C   0  0  0  0  0  0  0  0  0  0  0  0
   23.6503  -17.5322  -14.8716 O   0  0  0  0  0  0  0  0  0  0  0  0
   21.2561  -19.8108  -16.8763 O   0  0  0  0  0  0  0  0  0  0  0  0
   27.7025  -16.9010  -14.8350 C   0  0  0  0  0  0  0  0  0  0  0  0
   27.3765  -17.0104  -16.3132 C   0  0  1  0  0  0  0  0  0  0  0  0
   28.3383  -17.9423  -16.9902 C   0  0  0  0  0  0  0  0  0  0  0  0
   25.9342  -17.3388  -16.5219 C   0  0  2  0  0  0  0  0  0  0  0  0
   25.4422  -18.4967  -15.8542 N   0  0  0  0  0  0  0  0  0  0  0  0
   25.4838  -17.1012  -17.9139 C   0  0  0  0  0  0  0  0  0  0  0  0
   25.1472  -15.8931  -18.4182 O   0  0  0  0  0  0  0  0  0  0  0  0
   25.4284  -18.1203  -18.6502 O   0  0  0  0  0  0  0  0  0  0  0  0
  1  2  1  0
  2  3  1  0
  3  5  1  0
  3  4  1  6
  5  7  1  0
  5  6  1  1
  7  8  2  0
  9 10  1  0
  9  7  1  0
 10 14  1  0
 10 11  1  6
 12 13  2  0
 12 11  1  0
 14 15  2  0
 14 21  1  0
 16 12  1  0
 18 17  1  1
 18 20  1  0
 18 19  1  0
 20 22  1  0
 20 21  1  6
 22 24  2  0
 22 23  1  0
M  END
$$$$
