IDV.pdb
     RDKit          3D

 24 23  0  0  1  0  0  0  0  0999 V2000
   18.5763  -17.3906  -16.1803 C   0  0  0  0  0  0  0  0  0  0  0  0
   17.6695  -16.3457  -16.7891 C   0  0  0  0  0  0  0  0  0  0  0  0
   18.2905  -15.0118  -16.9467 C   0  0  2  0  0  0  0  0  0  0  0  0
   18.8159  -14.4875  -15.6535 C   0  0  0  0  0  0  0  0  0  0  0  0
   17.3623  -14.0109  -17.6388 C   0  0  2  0  0  0  0  0  0  0  0  0
   16.9755  -14.5185  -18.9425 N   0  0  0  0  0  0  0  0  0  0  0  0
   18.0725  -12.7218  -17.8722 C   0  0  0  0  0  0  0  0  0  0  0  0
   18.9096  -12.6657  -18.7899 O   0  0  0  0  0  0  0  0  0  0  0  0
   17.8147  -11.5842  -17.0790 N   0  0  0  0  0  0  0  0  0  0  0  0
   18.5452  -10.3200  -17.2870 C   0  0  1  0  0  0  0  0  0  0  0  0
   17.6323   -9.2765  -17.8287 C   0  0  0  0  0  0  0  0  0  0  0  0
   18.2055   -7.9339  -18.0082 C   0  0  0  0  0  0  0  0  0  0  0  0
   19.4054   -7.8123  -18.3689 O   0  0  0  0  0  0  0  0  0  0  0  0
   19.3006   -9.9866  -16.0740 C   0  0  0  0  0  0  0  0  0  0  0  0
   18.6659  -10.0162  -14.9397 O   0  0  0  0  0  0  0  0  0  0  0  0
   17.4958   -6.7564  -17.8025 O   0  0  0  0  0  0  0  0  0  0  0  0
   22.4351  -11.4221  -14.4578 C   0  0  0  0  0  0  0  0  0  0  0  0
   22.6497   -9.9207  -14.5122 C   0  0  1  0  0  0  0  0  0  0  0  0
   23.7821   -9.5906  -15.4398 C   0  0  0  0  0  0  0  0  0  0  0  0
   21.3712   -9.2061  -14.8054 C   0  0  2  0  0  0  0  0  0  0  0  0
   20.6494   -9.6388  -15.9546 N   0  0  0  0  0  0  0  0  0  0  0  0
   21.4533   -7.7482  -14.5507 C   0  0  0  0  0  0  0  0  0  0  0  0
   21.6809   -7.1899  -13.3409 O   0  0  0  0  0  0  0  0  0  0  0  0
   21.3002   -7.0094  -15.5581 O   0  0  0  0  0  0  0  0  0  0  0  0
  1  2  1  0
  2  3  1  0
  3  5  1  0
  3  4  1  1
  5  7  1  0
  5  6  1  6
  7  8  2  0
  9 10  1  0
  9  7  1  0
 10 14  1  0
 10 11  1  1
 12 13  2  0
 12 11  1  0
 14 15  2  0
 14 21  1  0
 16 12  1  0
 18 17  1  6
 18 20  1  0
 18 19  1  0
 20 22  1  0
 20 21  1  6
 22 24  2  0
 22 23  1  0
M  END
$$$$
