IDV.pdb
     RDKit          3D

 24 23  0  0  1  0  0  0  0  0999 V2000
   13.0411  -13.6930  -13.6679 C   0  0  0  0  0  0  0  0  0  0  0  0
   14.1090  -12.9428  -14.4306 C   0  0  0  0  0  0  0  0  0  0  0  0
   14.7691  -11.8649  -13.6611 C   0  0  2  0  0  0  0  0  0  0  0  0
   13.7790  -10.9319  -13.0507 C   0  0  0  0  0  0  0  0  0  0  0  0
   15.8287  -11.1241  -14.4802 C   0  0  2  0  0  0  0  0  0  0  0  0
   16.8568  -12.0539  -14.9107 N   0  0  0  0  0  0  0  0  0  0  0  0
   16.5040  -10.0935  -13.6420 C   0  0  0  0  0  0  0  0  0  0  0  0
   17.4613  -10.4445  -12.9305 O   0  0  0  0  0  0  0  0  0  0  0  0
   16.0786   -8.7486  -13.6427 N   0  0  0  0  0  0  0  0  0  0  0  0
   16.7792   -7.7200  -12.8512 C   0  0  1  0  0  0  0  0  0  0  0  0
   17.4812   -6.7631  -13.7497 C   0  0  0  0  0  0  0  0  0  0  0  0
   18.1056   -5.5976  -13.1056 C   0  0  0  0  0  0  0  0  0  0  0  0
   18.8572   -5.7648  -12.1097 O   0  0  0  0  0  0  0  0  0  0  0  0
   15.8579   -7.1555  -11.8584 C   0  0  0  0  0  0  0  0  0  0  0  0
   14.7024   -6.7325  -12.2780 O   0  0  0  0  0  0  0  0  0  0  0  0
   17.9197   -4.2872  -13.5311 O   0  0  0  0  0  0  0  0  0  0  0  0
   13.8544   -6.1635   -7.5137 C   0  0  0  0  0  0  0  0  0  0  0  0
   14.9062   -6.9493   -8.2749 C   0  0  1  0  0  0  0  0  0  0  0  0
   14.4687   -8.3747   -8.4446 C   0  0  0  0  0  0  0  0  0  0  0  0
   15.2822   -6.2544   -9.5427 C   0  0  2  0  0  0  0  0  0  0  0  0
   16.0435   -7.0093  -10.4804 N   0  0  0  0  0  0  0  0  0  0  0  0
   15.6554   -4.8352   -9.3341 C   0  0  0  0  0  0  0  0  0  0  0  0
   16.8709   -4.3109   -9.6074 O   0  0  0  0  0  0  0  0  0  0  0  0
   14.7478   -4.0951   -8.8730 O   0  0  0  0  0  0  0  0  0  0  0  0
  1  2  1  0
  2  3  1  0
  3  5  1  0
  3  4  1  6
  5  7  1  0
  5  6  1  1
  7  8  2  0
  9 10  1  0
  9  7  1  0
 10 14  1  0
 10 11  1  6
 12 13  2  0
 12 11  1  0
 14 15  2  0
 14 21  1  0
 16 12  1  0
 18 17  1  6
 18 20  1  0
 18 19  1  0
 20 22  1  0
 20 21  1  1
 22 24  2  0
 22 23  1  0
M  END
$$$$
