IDV.pdb
     RDKit          3D

 24 23  0  0  1  0  0  0  0  0999 V2000
   26.0953  -20.7015   -8.7535 C   0  0  0  0  0  0  0  0  0  0  0  0
   25.4761  -21.5910   -9.8073 C   0  0  0  0  0  0  0  0  0  0  0  0
   25.3832  -20.9769  -11.1504 C   0  0  2  0  0  0  0  0  0  0  0  0
   24.5990  -19.7089  -11.1283 C   0  0  0  0  0  0  0  0  0  0  0  0
   24.8660  -21.9550  -12.2078 C   0  0  2  0  0  0  0  0  0  0  0  0
   25.7325  -23.1178  -12.2684 N   0  0  0  0  0  0  0  0  0  0  0  0
   24.8980  -21.3235  -13.5572 C   0  0  0  0  0  0  0  0  0  0  0  0
   25.9657  -21.3432  -14.1940 O   0  0  0  0  0  0  0  0  0  0  0  0
   23.7543  -20.7120  -14.1121 N   0  0  0  0  0  0  0  0  0  0  0  0
   23.7582  -20.1782  -15.4869 C   0  0  1  0  0  0  0  0  0  0  0  0
   22.8079  -20.9406  -16.3420 C   0  0  0  0  0  0  0  0  0  0  0  0
   22.7183  -20.5276  -17.7508 C   0  0  0  0  0  0  0  0  0  0  0  0
   21.6489  -20.0262  -18.1859 O   0  0  0  0  0  0  0  0  0  0  0  0
   23.6017  -18.7198  -15.4455 C   0  0  0  0  0  0  0  0  0  0  0  0
   22.6627  -18.2340  -14.6888 O   0  0  0  0  0  0  0  0  0  0  0  0
   23.7609  -20.6549  -18.6616 O   0  0  0  0  0  0  0  0  0  0  0  0
   25.9043  -15.4242  -14.6919 C   0  0  0  0  0  0  0  0  0  0  0  0
   25.3570  -15.4771  -16.1064 C   0  0  1  0  0  0  0  0  0  0  0  0
   26.4449  -15.8479  -17.0713 C   0  0  0  0  0  0  0  0  0  0  0  0
   24.1368  -16.3359  -16.1780 C   0  0  2  0  0  0  0  0  0  0  0  0
   24.3448  -17.7436  -16.1159 N   0  0  0  0  0  0  0  0  0  0  0  0
   23.1300  -15.8289  -17.1405 C   0  0  0  0  0  0  0  0  0  0  0  0
   23.1533  -16.0604  -18.4721 O   0  0  0  0  0  0  0  0  0  0  0  0
   22.1993  -15.1420  -16.6445 O   0  0  0  0  0  0  0  0  0  0  0  0
  1  2  1  0
  2  3  1  0
  3  5  1  0
  3  4  1  1
  5  7  1  0
  5  6  1  6
  7  8  2  0
  9 10  1  0
  9  7  1  0
 10 14  1  0
 10 11  1  6
 12 13  2  0
 12 11  1  0
 14 15  2  0
 14 21  1  0
 16 12  1  0
 18 17  1  1
 18 20  1  0
 18 19  1  0
 20 22  1  0
 20 21  1  6
 22 24  2  0
 22 23  1  0
M  END
$$$$
