IDV.pdb
     RDKit          3D

 24 23  0  0  1  0  0  0  0  0999 V2000
   16.4316  -16.2143  -17.2234 C   0  0  0  0  0  0  0  0  0  0  0  0
   17.6950  -15.5911  -17.7714 C   0  0  0  0  0  0  0  0  0  0  0  0
   18.0964  -14.3323  -17.1051 C   0  0  2  0  0  0  0  0  0  0  0  0
   16.9945  -13.3278  -17.1055 C   0  0  0  0  0  0  0  0  0  0  0  0
   19.3979  -13.7588  -17.6705 C   0  0  2  0  0  0  0  0  0  0  0  0
   20.4737  -14.7180  -17.4993 N   0  0  0  0  0  0  0  0  0  0  0  0
   19.7917  -12.5321  -16.9216 C   0  0  0  0  0  0  0  0  0  0  0  0
   20.2838  -12.6642  -15.7875 O   0  0  0  0  0  0  0  0  0  0  0  0
   19.6152  -11.2448  -17.4708 N   0  0  0  0  0  0  0  0  0  0  0  0
   20.0291  -10.0331  -16.7390 C   0  0  1  0  0  0  0  0  0  0  0  0
   21.0682   -9.2933  -17.5064 C   0  0  0  0  0  0  0  0  0  0  0  0
   22.3569   -9.9775  -17.6914 C   0  0  0  0  0  0  0  0  0  0  0  0
   22.8990  -10.5588  -16.7153 O   0  0  0  0  0  0  0  0  0  0  0  0
   18.8388   -9.2816  -16.3248 C   0  0  0  0  0  0  0  0  0  0  0  0
   17.9042   -9.0946  -17.2091 O   0  0  0  0  0  0  0  0  0  0  0  0
   23.0378  -10.0296  -18.9023 O   0  0  0  0  0  0  0  0  0  0  0  0
   16.1498   -9.9623  -13.8139 C   0  0  0  0  0  0  0  0  0  0  0  0
   16.6301   -8.5552  -13.5098 C   0  0  1  0  0  0  0  0  0  0  0  0
   17.3484   -8.5242  -12.1926 C   0  0  0  0  0  0  0  0  0  0  0  0
   17.4024   -7.9919  -14.6577 C   0  0  2  0  0  0  0  0  0  0  0  0
   18.5492   -8.7265  -15.0747 N   0  0  0  0  0  0  0  0  0  0  0  0
   17.5085   -6.5141  -14.6122 C   0  0  0  0  0  0  0  0  0  0  0  0
   16.4602   -5.6645  -14.6913 O   0  0  0  0  0  0  0  0  0  0  0  0
   18.6735   -6.0551  -14.4850 O   0  0  0  0  0  0  0  0  0  0  0  0
  1  2  1  0
  2  3  1  0
  3  5  1  0
  3  4  1  6
  5  7  1  0
  5  6  1  1
  7  8  2  0
  9 10  1  0
  9  7  1  0
 10 14  1  0
 10 11  1  6
 12 13  2  0
 12 11  1  0
 14 15  2  0
 14 21  1  0
 16 12  1  0
 18 17  1  6
 18 20  1  0
 18 19  1  0
 20 22  1  0
 20 21  1  1
 22 24  2  0
 22 23  1  0
M  END
$$$$
