IDV.pdb
     RDKit          3D

 24 23  0  0  1  0  0  0  0  0999 V2000
   20.9643  -18.5190  -15.0346 C   0  0  0  0  0  0  0  0  0  0  0  0
   20.4349  -17.7658  -16.2335 C   0  0  0  0  0  0  0  0  0  0  0  0
   20.8500  -16.3470  -16.2982 C   0  0  2  0  0  0  0  0  0  0  0  0
   20.5785  -15.6299  -15.0195 C   0  0  0  0  0  0  0  0  0  0  0  0
   20.2558  -15.6166  -17.5049 C   0  0  2  0  0  0  0  0  0  0  0  0
   20.5827  -16.3333  -18.7240 N   0  0  0  0  0  0  0  0  0  0  0  0
   20.8517  -14.2567  -17.6320 C   0  0  0  0  0  0  0  0  0  0  0  0
   22.0631  -14.1170  -17.3898 O   0  0  0  0  0  0  0  0  0  0  0  0
   20.0736  -13.1440  -18.0148 N   0  0  0  0  0  0  0  0  0  0  0  0
   20.6481  -11.7868  -18.0712 C   0  0  1  0  0  0  0  0  0  0  0  0
   19.9443  -10.9679  -19.0959 C   0  0  0  0  0  0  0  0  0  0  0  0
   20.4628   -9.6096  -19.3179 C   0  0  0  0  0  0  0  0  0  0  0  0
   21.2020   -9.0757  -18.4501 O   0  0  0  0  0  0  0  0  0  0  0  0
   20.7331  -11.2352  -16.7141 C   0  0  0  0  0  0  0  0  0  0  0  0
   19.6635  -11.2782  -15.9762 O   0  0  0  0  0  0  0  0  0  0  0  0
   20.1871   -8.8523  -20.4507 O   0  0  0  0  0  0  0  0  0  0  0  0
   24.3158  -10.4448  -14.3801 C   0  0  0  0  0  0  0  0  0  0  0  0
   22.9042  -10.5670  -13.8363 C   0  0  1  0  0  0  0  0  0  0  0  0
   22.8267   -9.9848  -12.4554 C   0  0  0  0  0  0  0  0  0  0  0  0
   21.9070  -10.0189  -14.8041 C   0  0  2  0  0  0  0  0  0  0  0  0
   21.8346  -10.6590  -16.0744 N   0  0  0  0  0  0  0  0  0  0  0  0
   21.8239   -8.5393  -14.7712 C   0  0  0  0  0  0  0  0  0  0  0  0
   22.3421   -7.7183  -15.7117 O   0  0  0  0  0  0  0  0  0  0  0  0
   21.2154   -8.0494  -13.7844 O   0  0  0  0  0  0  0  0  0  0  0  0
  1  2  1  0
  2  3  1  0
  3  5  1  0
  3  4  1  1
  5  7  1  0
  5  6  1  6
  7  8  2  0
  9 10  1  0
  9  7  1  0
 10 14  1  0
 10 11  1  6
 12 13  2  0
 12 11  1  0
 14 15  2  0
 14 21  1  0
 16 12  1  0
 18 17  1  6
 18 20  1  0
 18 19  1  0
 20 22  1  0
 20 21  1  6
 22 24  2  0
 22 23  1  0
M  END
$$$$
