IDV.pdb
     RDKit          3D

 24 23  0  0  1  0  0  0  0  0999 V2000
   30.6025  -21.3194  -11.2772 C   0  0  0  0  0  0  0  0  0  0  0  0
   29.1863  -21.8165  -11.0976 C   0  0  0  0  0  0  0  0  0  0  0  0
   28.1445  -20.8939  -11.6004 C   0  0  2  0  0  0  0  0  0  0  0  0
   28.2865  -19.5271  -11.0215 C   0  0  0  0  0  0  0  0  0  0  0  0
   26.7306  -21.4514  -11.4195 C   0  0  2  0  0  0  0  0  0  0  0  0
   26.6467  -22.7785  -12.0011 N   0  0  0  0  0  0  0  0  0  0  0  0
   25.7425  -20.6015  -12.1420 C   0  0  0  0  0  0  0  0  0  0  0  0
   25.3966  -19.5259  -11.6232 O   0  0  0  0  0  0  0  0  0  0  0  0
   25.2015  -20.9943  -13.3842 N   0  0  0  0  0  0  0  0  0  0  0  0
   24.1893  -20.1744  -14.0759 C   0  0  1  0  0  0  0  0  0  0  0  0
   24.4983  -20.0863  -15.5294 C   0  0  0  0  0  0  0  0  0  0  0  0
   23.5394  -19.3407  -16.3588 C   0  0  0  0  0  0  0  0  0  0  0  0
   23.9566  -18.6532  -17.3272 O   0  0  0  0  0  0  0  0  0  0  0  0
   22.8476  -20.6360  -13.7020 C   0  0  0  0  0  0  0  0  0  0  0  0
   22.5850  -21.9023  -13.8362 O   0  0  0  0  0  0  0  0  0  0  0  0
   22.1661  -19.3421  -16.1432 O   0  0  0  0  0  0  0  0  0  0  0  0
   20.1068  -18.4997  -11.0074 C   0  0  0  0  0  0  0  0  0  0  0  0
   20.3451  -19.9893  -11.1733 C   0  0  1  0  0  0  0  0  0  0  0  0
   19.2592  -20.7687  -10.4913 C   0  0  0  0  0  0  0  0  0  0  0  0
   20.5621  -20.3415  -12.6086 C   0  0  2  0  0  0  0  0  0  0  0  0
   21.7778  -19.8904  -13.1978 N   0  0  0  0  0  0  0  0  0  0  0  0
   19.3251  -20.2459  -13.4197 C   0  0  0  0  0  0  0  0  0  0  0  0
   18.2937  -21.1173  -13.3558 O   0  0  0  0  0  0  0  0  0  0  0  0
   19.2652  -19.2674  -14.2090 O   0  0  0  0  0  0  0  0  0  0  0  0
  1  2  1  0
  2  3  1  0
  3  5  1  0
  3  4  1  1
  5  7  1  0
  5  6  1  6
  7  8  2  0
  9 10  1  0
  9  7  1  0
 10 14  1  0
 10 11  1  6
 12 13  2  0
 12 11  1  0
 14 15  2  0
 14 21  1  0
 16 12  1  0
 18 17  1  6
 18 20  1  0
 18 19  1  0
 20 22  1  0
 20 21  1  6
 22 24  2  0
 22 23  1  0
M  END
$$$$
