IDV.pdb
     RDKit          3D

 24 23  0  0  1  0  0  0  0  0999 V2000
   18.5524  -15.5691  -16.6237 C   0  0  0  0  0  0  0  0  0  0  0  0
   18.0805  -14.2611  -17.2164 C   0  0  0  0  0  0  0  0  0  0  0  0
   18.2310  -13.0926  -16.3210 C   0  0  2  0  0  0  0  0  0  0  0  0
   17.5092  -13.2851  -15.0306 C   0  0  0  0  0  0  0  0  0  0  0  0
   17.8482  -11.7774  -17.0039 C   0  0  2  0  0  0  0  0  0  0  0  0
   18.5491  -11.6576  -18.2692 N   0  0  0  0  0  0  0  0  0  0  0  0
   18.2687  -10.6181  -16.1673 C   0  0  0  0  0  0  0  0  0  0  0  0
   17.7743  -10.4974  -15.0329 O   0  0  0  0  0  0  0  0  0  0  0  0
   19.2023   -9.6706  -16.6369 N   0  0  0  0  0  0  0  0  0  0  0  0
   19.5118   -8.4501  -15.8689 C   0  0  1  0  0  0  0  0  0  0  0  0
   20.9829   -8.3088  -15.6904 C   0  0  0  0  0  0  0  0  0  0  0  0
   21.4491   -7.0673  -15.0544 C   0  0  0  0  0  0  0  0  0  0  0  0
   21.7106   -6.0629  -15.7667 O   0  0  0  0  0  0  0  0  0  0  0  0
   18.7941   -7.3107  -16.4517 C   0  0  0  0  0  0  0  0  0  0  0  0
   18.9056   -7.1174  -17.7326 O   0  0  0  0  0  0  0  0  0  0  0  0
   21.6260   -6.9201  -13.6834 O   0  0  0  0  0  0  0  0  0  0  0  0
   15.2961   -6.5534  -17.0127 C   0  0  0  0  0  0  0  0  0  0  0  0
   15.8077   -5.2894  -16.3466 C   0  0  1  0  0  0  0  0  0  0  0  0
   15.1806   -5.1243  -14.9933 C   0  0  0  0  0  0  0  0  0  0  0  0
   17.3008   -5.2451  -16.3546 C   0  0  2  0  0  0  0  0  0  0  0  0
   17.9739   -6.3768  -15.8116 N   0  0  0  0  0  0  0  0  0  0  0  0
   17.8402   -3.9021  -16.0343 C   0  0  0  0  0  0  0  0  0  0  0  0
   17.6141   -2.7876  -16.7650 O   0  0  0  0  0  0  0  0  0  0  0  0
   18.5505   -3.8331  -14.9976 O   0  0  0  0  0  0  0  0  0  0  0  0
  1  2  1  0
  2  3  1  0
  3  5  1  0
  3  4  1  1
  5  7  1  0
  5  6  1  6
  7  8  2  0
  9 10  1  0
  9  7  1  0
 10 14  1  0
 10 11  1  6
 12 13  2  0
 12 11  1  0
 14 15  2  0
 14 21  1  0
 16 12  1  0
 18 17  1  1
 18 20  1  0
 18 19  1  0
 20 22  1  0
 20 21  1  1
 22 24  2  0
 22 23  1  0
M  END
$$$$
