IDV.pdb
     RDKit          3D

 24 23  0  0  1  0  0  0  0  0999 V2000
   26.0894  -15.9513  -15.2422 C   0  0  0  0  0  0  0  0  0  0  0  0
   24.5806  -15.9825  -15.1550 C   0  0  0  0  0  0  0  0  0  0  0  0
   23.9079  -14.8052  -15.7475 C   0  0  2  0  0  0  0  0  0  0  0  0
   24.3767  -13.5301  -15.1332 C   0  0  0  0  0  0  0  0  0  0  0  0
   22.3825  -14.9283  -15.7246 C   0  0  2  0  0  0  0  0  0  0  0  0
   21.9799  -16.1752  -16.3490 N   0  0  0  0  0  0  0  0  0  0  0  0
   21.7624  -13.8297  -16.5178 C   0  0  0  0  0  0  0  0  0  0  0  0
   21.2064  -14.1173  -17.5921 O   0  0  0  0  0  0  0  0  0  0  0  0
   21.7984  -12.4906  -16.0758 N   0  0  0  0  0  0  0  0  0  0  0  0
   21.0571  -11.4280  -16.7805 C   0  0  1  0  0  0  0  0  0  0  0  0
   19.6307  -11.8173  -16.9524 C   0  0  0  0  0  0  0  0  0  0  0  0
   18.7494  -10.8175  -17.5746 C   0  0  0  0  0  0  0  0  0  0  0  0
   17.8135  -10.3090  -16.9038 O   0  0  0  0  0  0  0  0  0  0  0  0
   21.3274  -10.1359  -16.1398 C   0  0  0  0  0  0  0  0  0  0  0  0
   21.2542  -10.0774  -14.8431 O   0  0  0  0  0  0  0  0  0  0  0  0
   18.8809  -10.3817  -18.8881 O   0  0  0  0  0  0  0  0  0  0  0  0
   24.3834   -7.8702  -17.1542 C   0  0  0  0  0  0  0  0  0  0  0  0
   23.2001   -6.9680  -16.8558 C   0  0  1  0  0  0  0  0  0  0  0  0
   22.7509   -6.2692  -18.1055 C   0  0  0  0  0  0  0  0  0  0  0  0
   22.1254   -7.7133  -16.1341 C   0  0  2  0  0  0  0  0  0  0  0  0
   21.6722   -8.9206  -16.7388 N   0  0  0  0  0  0  0  0  0  0  0  0
   21.1083   -6.8195  -15.5310 C   0  0  0  0  0  0  0  0  0  0  0  0
   21.3741   -5.8520  -14.6252 O   0  0  0  0  0  0  0  0  0  0  0  0
   19.9247   -7.0012  -15.9184 O   0  0  0  0  0  0  0  0  0  0  0  0
  1  2  1  0
  2  3  1  0
  3  5  1  0
  3  4  1  1
  5  7  1  0
  5  6  1  6
  7  8  2  0
  9 10  1  0
  9  7  1  0
 10 14  1  0
 10 11  1  1
 12 13  2  0
 12 11  1  0
 14 15  2  0
 14 21  1  0
 16 12  1  0
 18 17  1  6
 18 20  1  0
 18 19  1  0
 20 22  1  0
 20 21  1  6
 22 24  2  0
 22 23  1  0
M  END
$$$$
