IDV.pdb
     RDKit          3D

 24 23  0  0  1  0  0  0  0  0999 V2000
   12.7949  -14.2804  -13.4907 C   0  0  0  0  0  0  0  0  0  0  0  0
   13.8352  -13.5503  -14.3090 C   0  0  0  0  0  0  0  0  0  0  0  0
   14.4682  -12.4063  -13.6159 C   0  0  2  0  0  0  0  0  0  0  0  0
   13.4551  -11.4601  -13.0668 C   0  0  0  0  0  0  0  0  0  0  0  0
   15.5073  -11.6955  -14.4863 C   0  0  2  0  0  0  0  0  0  0  0  0
   16.5378  -12.6350  -14.8888 N   0  0  0  0  0  0  0  0  0  0  0  0
   16.1852  -10.6199  -13.7090 C   0  0  0  0  0  0  0  0  0  0  0  0
   17.1207  -10.9362  -12.9536 O   0  0  0  0  0  0  0  0  0  0  0  0
   15.7862   -9.2710  -13.8147 N   0  0  0  0  0  0  0  0  0  0  0  0
   16.5201   -8.1954  -13.1221 C   0  0  1  0  0  0  0  0  0  0  0  0
   17.2953   -7.3836  -14.0999 C   0  0  0  0  0  0  0  0  0  0  0  0
   17.9889   -6.2018  -13.5657 C   0  0  0  0  0  0  0  0  0  0  0  0
   17.5918   -5.0503  -13.8833 O   0  0  0  0  0  0  0  0  0  0  0  0
   15.6050   -7.4759  -12.2288 C   0  0  0  0  0  0  0  0  0  0  0  0
   14.4531   -7.1117  -12.7095 O   0  0  0  0  0  0  0  0  0  0  0  0
   19.0828   -6.2682  -12.7103 O   0  0  0  0  0  0  0  0  0  0  0  0
   13.8603   -8.1427   -8.8545 C   0  0  0  0  0  0  0  0  0  0  0  0
   14.6264   -6.8399   -8.7169 C   0  0  1  0  0  0  0  0  0  0  0  0
   15.7786   -7.0116   -7.7710 C   0  0  0  0  0  0  0  0  0  0  0  0
   14.9923   -6.2884  -10.0561 C   0  0  2  0  0  0  0  0  0  0  0  0
   15.7931   -7.1206  -10.8898 N   0  0  0  0  0  0  0  0  0  0  0  0
   15.3096   -4.8410  -10.0173 C   0  0  0  0  0  0  0  0  0  0  0  0
   16.4634   -4.2939  -10.4604 O   0  0  0  0  0  0  0  0  0  0  0  0
   14.4141   -4.0996   -9.5350 O   0  0  0  0  0  0  0  0  0  0  0  0
  1  2  1  0
  2  3  1  0
  3  5  1  0
  3  4  1  6
  5  7  1  0
  5  6  1  1
  7  8  2  0
  9 10  1  0
  9  7  1  0
 10 14  1  0
 10 11  1  6
 12 13  2  0
 12 11  1  0
 14 15  2  0
 14 21  1  0
 16 12  1  0
 18 17  1  6
 18 20  1  0
 18 19  1  0
 20 22  1  0
 20 21  1  1
 22 24  2  0
 22 23  1  0
M  END
$$$$
