FQN.pdb
     RDKit          3D

 29 29  0  0  1  0  0  0  0  0999 V2000
   19.0853  -11.3788  -16.8097 N   0  0  0  0  0  0  0  0  0  0  0  0
   19.8154  -10.3629  -17.5047 C   0  0  1  0  0  0  0  0  0  0  0  0
   19.0316   -9.9297  -18.7265 C   0  0  0  0  0  0  0  0  0  0  0  0
   18.9840  -10.9473  -19.7814 C   0  0  0  0  0  0  0  0  0  0  0  0
   17.7866  -11.5787  -20.0089 C   0  0  0  0  0  0  0  0  0  0  0  0
   17.5850  -12.5590  -20.9684 C   0  0  0  0  0  0  0  0  0  0  0  0
   18.6996  -12.8920  -21.7271 C   0  0  0  0  0  0  0  0  0  0  0  0
   19.9106  -12.2747  -21.5199 C   0  0  0  0  0  0  0  0  0  0  0  0
   20.0741  -11.2996  -20.5519 C   0  0  0  0  0  0  0  0  0  0  0  0
   19.9643   -9.1875  -16.5787 C   0  0  0  0  0  0  0  0  0  0  0  0
   19.1715   -8.9697  -15.6304 O   0  0  0  0  0  0  0  0  0  0  0  0
   21.6374   -7.3056  -12.7081 N   0  0  0  0  0  0  0  0  0  0  0  0
   22.3380   -6.0980  -13.0297 C   0  0  0  0  0  0  0  0  0  0  0  0
   22.4483   -5.2457  -12.1162 O   0  0  0  0  0  0  0  0  0  0  0  0
   22.8605   -5.9716  -14.3990 C   0  0  0  0  0  0  0  0  0  0  0  0
   22.4661   -7.1333  -15.2285 C   0  0  0  0  0  0  0  0  0  0  0  0
   21.1377   -7.0479  -15.9126 C   0  0  2  0  0  0  0  0  0  0  0  0
   21.0309   -8.2520  -16.7399 N   0  0  0  0  0  0  0  0  0  0  0  0
   20.9912   -5.8209  -16.7323 C   0  0  0  0  0  0  0  0  0  0  0  0
   21.6987   -5.6765  -17.7657 O   0  0  0  0  0  0  0  0  0  0  0  0
   19.4215   -1.1989  -18.6813 N   0  0  0  0  0  0  0  0  0  0  0  0
   18.3843   -1.9343  -18.1310 C   0  0  0  0  0  0  0  0  0  0  0  0
   17.1813   -1.5212  -18.3046 O   0  0  0  0  0  0  0  0  0  0  0  0
   18.5626   -3.1607  -17.3611 C   0  0  0  0  0  0  0  0  0  0  0  0
   19.9899   -3.5848  -17.2535 C   0  0  2  0  0  0  0  0  0  0  0  0
   20.0838   -4.7670  -16.4241 N   0  0  0  0  0  0  0  0  0  0  0  0
   20.9095   -2.5271  -16.7742 C   0  0  0  0  0  0  0  0  0  0  0  0
   21.7201   -2.7677  -15.6840 O   0  0  0  0  0  0  0  0  0  0  0  0
   20.9516   -1.4286  -17.3526 O   0  0  0  0  0  0  0  0  0  0  0  0
  2  1  1  1
  2  3  1  0
  3  4  1  0
  4  9  2  0
  5  4  1  0
  5  6  2  0
  6  7  1  0
  7  8  2  0
  9  8  1  0
 10  2  1  0
 10 18  1  0
 11 10  2  0
 13 12  1  0
 13 15  1  0
 14 13  2  0
 16 15  1  0
 17 16  1  6
 17 18  1  0
 19 17  1  0
 20 19  2  0
 21 22  1  0
 22 23  2  0
 22 24  1  0
 25 24  1  1
 25 26  1  0
 25 27  1  0
 26 19  1  0
 27 28  1  0
 29 27  2  0
M  END
$$$$
