FQN.pdb
     RDKit          3D

 29 29  0  0  1  0  0  0  0  0999 V2000
   29.2972  -23.0626  -12.9378 N   0  0  0  0  0  0  0  0  0  0  0  0
   28.6543  -22.2277  -11.9694 C   0  0  1  0  0  0  0  0  0  0  0  0
   29.5404  -21.0365  -11.6679 C   0  0  0  0  0  0  0  0  0  0  0  0
   30.7210  -21.3744  -10.8662 C   0  0  0  0  0  0  0  0  0  0  0  0
   31.8831  -21.6746  -11.5323 C   0  0  0  0  0  0  0  0  0  0  0  0
   33.0779  -22.0120  -10.9151 C   0  0  0  0  0  0  0  0  0  0  0  0
   33.0487  -22.0349   -9.5268 C   0  0  0  0  0  0  0  0  0  0  0  0
   31.8980  -21.7382   -8.8351 C   0  0  0  0  0  0  0  0  0  0  0  0
   30.7232  -21.4054   -9.4860 C   0  0  0  0  0  0  0  0  0  0  0  0
   27.3648  -21.7372  -12.5675 C   0  0  0  0  0  0  0  0  0  0  0  0
   27.1731  -21.6803  -13.8065 O   0  0  0  0  0  0  0  0  0  0  0  0
   22.4964  -20.9513   -8.9390 N   0  0  0  0  0  0  0  0  0  0  0  0
   21.7942  -20.7473  -10.1711 C   0  0  0  0  0  0  0  0  0  0  0  0
   20.5533  -20.5814  -10.0961 O   0  0  0  0  0  0  0  0  0  0  0  0
   22.5937  -20.7524  -11.4060 C   0  0  0  0  0  0  0  0  0  0  0  0
   24.0181  -21.0363  -11.1166 C   0  0  0  0  0  0  0  0  0  0  0  0
   24.9540  -21.0254  -12.2844 C   0  0  2  0  0  0  0  0  0  0  0  0
   26.2840  -21.3074  -11.7392 N   0  0  0  0  0  0  0  0  0  0  0  0
   24.9395  -19.7383  -13.0207 C   0  0  0  0  0  0  0  0  0  0  0  0
   25.3828  -18.6986  -12.4622 O   0  0  0  0  0  0  0  0  0  0  0  0
   28.7374  -18.1711  -16.1835 N   0  0  0  0  0  0  0  0  0  0  0  0
   27.3855  -18.4435  -16.3162 C   0  0  0  0  0  0  0  0  0  0  0  0
   26.7751  -18.0191  -17.3627 O   0  0  0  0  0  0  0  0  0  0  0  0
   26.5964  -19.1893  -15.3416 C   0  0  0  0  0  0  0  0  0  0  0  0
   25.1541  -18.8042  -15.3348 C   0  0  2  0  0  0  0  0  0  0  0  0
   24.4459  -19.5919  -14.3487 N   0  0  0  0  0  0  0  0  0  0  0  0
   24.4906  -18.8891  -16.6565 C   0  0  0  0  0  0  0  0  0  0  0  0
   24.2535  -17.7373  -17.3782 O   0  0  0  0  0  0  0  0  0  0  0  0
   24.1507  -19.9929  -17.1138 O   0  0  0  0  0  0  0  0  0  0  0  0
  2  1  1  6
  2  3  1  0
  3  4  1  0
  4  9  2  0
  5  4  1  0
  5  6  2  0
  6  7  1  0
  7  8  2  0
  9  8  1  0
 10  2  1  0
 10 18  1  0
 11 10  2  0
 13 12  1  0
 13 15  1  0
 14 13  2  0
 16 15  1  0
 17 16  1  1
 17 18  1  0
 19 17  1  0
 20 19  2  0
 21 22  1  0
 22 23  2  0
 22 24  1  0
 25 24  1  6
 25 26  1  0
 25 27  1  0
 26 19  1  0
 27 28  1  0
 29 27  2  0
M  END
$$$$
