FQN.pdb
     RDKit          3D

 29 29  0  0  1  0  0  0  0  0999 V2000
   20.6727   -7.5786  -16.3990 N   0  0  0  0  0  0  0  0  0  0  0  0
   20.0402   -8.1903  -15.2703 C   0  0  1  0  0  0  0  0  0  0  0  0
   21.0361   -8.2946  -14.1336 C   0  0  0  0  0  0  0  0  0  0  0  0
   21.9876   -9.3995  -14.2896 C   0  0  0  0  0  0  0  0  0  0  0  0
   21.5478  -10.6685  -14.0060 C   0  0  0  0  0  0  0  0  0  0  0  0
   22.3270  -11.8109  -14.1056 C   0  0  0  0  0  0  0  0  0  0  0  0
   23.6354  -11.6081  -14.5249 C   0  0  0  0  0  0  0  0  0  0  0  0
   24.1013  -10.3475  -14.8155 C   0  0  0  0  0  0  0  0  0  0  0  0
   23.2934   -9.2296  -14.7043 C   0  0  0  0  0  0  0  0  0  0  0  0
   18.9033   -7.3037  -14.8429 C   0  0  0  0  0  0  0  0  0  0  0  0
   18.9151   -6.0604  -15.0133 O   0  0  0  0  0  0  0  0  0  0  0  0
   13.3647   -9.2986  -15.2423 N   0  0  0  0  0  0  0  0  0  0  0  0
   12.9740   -8.0757  -14.6062 C   0  0  0  0  0  0  0  0  0  0  0  0
   11.7441   -7.8407  -14.5355 O   0  0  0  0  0  0  0  0  0  0  0  0
   14.0509   -7.2121  -14.0975 C   0  0  0  0  0  0  0  0  0  0  0  0
   15.3796   -7.8190  -14.3411 C   0  0  0  0  0  0  0  0  0  0  0  0
   16.5699   -7.0216  -13.9081 C   0  0  2  0  0  0  0  0  0  0  0  0
   17.7416   -7.8457  -14.2140 N   0  0  0  0  0  0  0  0  0  0  0  0
   16.5289   -6.6627  -12.4699 C   0  0  0  0  0  0  0  0  0  0  0  0
   16.9169   -7.4991  -11.6100 O   0  0  0  0  0  0  0  0  0  0  0  0
   15.4655   -4.1764   -7.9396 N   0  0  0  0  0  0  0  0  0  0  0  0
   15.9219   -3.3090   -8.9187 C   0  0  0  0  0  0  0  0  0  0  0  0
   16.1226   -2.0808   -8.6036 O   0  0  0  0  0  0  0  0  0  0  0  0
   16.1966   -3.6959  -10.2983 C   0  0  0  0  0  0  0  0  0  0  0  0
   15.9541   -5.1452  -10.5618 C   0  0  2  0  0  0  0  0  0  0  0  0
   16.0690   -5.4066  -11.9805 N   0  0  0  0  0  0  0  0  0  0  0  0
   14.6700   -5.6584  -10.0309 C   0  0  0  0  0  0  0  0  0  0  0  0
   14.6185   -6.1871   -8.7575 O   0  0  0  0  0  0  0  0  0  0  0  0
   13.6435   -5.6114  -10.7288 O   0  0  0  0  0  0  0  0  0  0  0  0
  2  1  1  6
  2  3  1  0
  3  4  1  0
  4  9  2  0
  5  4  1  0
  5  6  2  0
  6  7  1  0
  7  8  2  0
  9  8  1  0
 10  2  1  0
 10 18  1  0
 11 10  2  0
 13 12  1  0
 13 15  1  0
 14 13  2  0
 16 15  1  0
 17 16  1  1
 17 18  1  0
 19 17  1  0
 20 19  2  0
 21 22  1  0
 22 23  2  0
 22 24  1  0
 25 24  1  6
 25 26  1  0
 25 27  1  0
 26 19  1  0
 27 28  1  0
 29 27  2  0
M  END
$$$$
