FQN.pdb
     RDKit          3D

 29 29  0  0  1  0  0  0  0  0999 V2000
   24.8097  -20.9866   -7.8926 N   0  0  0  0  0  0  0  0  0  0  0  0
   25.7629  -20.1728   -8.5836 C   0  0  1  0  0  0  0  0  0  0  0  0
   27.1598  -20.6821   -8.2939 C   0  0  0  0  0  0  0  0  0  0  0  0
   27.6868  -20.2387   -6.9991 C   0  0  0  0  0  0  0  0  0  0  0  0
   27.5976  -18.9032   -6.6946 C   0  0  0  0  0  0  0  0  0  0  0  0
   28.0497  -18.3345   -5.5138 C   0  0  0  0  0  0  0  0  0  0  0  0
   28.6248  -19.2155   -4.6071 C   0  0  0  0  0  0  0  0  0  0  0  0
   28.7264  -20.5578   -4.8872 C   0  0  0  0  0  0  0  0  0  0  0  0
   28.2635  -21.0898   -6.0777 C   0  0  0  0  0  0  0  0  0  0  0  0
   25.4937  -20.2991  -10.0576 C   0  0  0  0  0  0  0  0  0  0  0  0
   24.7269  -21.1720  -10.5322 O   0  0  0  0  0  0  0  0  0  0  0  0
   27.6242  -16.0538  -13.9564 N   0  0  0  0  0  0  0  0  0  0  0  0
   27.0292  -16.8871  -14.9586 C   0  0  0  0  0  0  0  0  0  0  0  0
   27.1527  -16.5171  -16.1505 O   0  0  0  0  0  0  0  0  0  0  0  0
   26.3302  -18.0958  -14.4954 C   0  0  0  0  0  0  0  0  0  0  0  0
   26.4743  -18.2659  -13.0313 C   0  0  0  0  0  0  0  0  0  0  0  0
   25.7325  -19.4095  -12.4135 C   0  0  2  0  0  0  0  0  0  0  0  0
   26.1084  -19.4175  -10.9978 N   0  0  0  0  0  0  0  0  0  0  0  0
   26.0415  -20.7095  -13.0565 C   0  0  0  0  0  0  0  0  0  0  0  0
   26.7513  -21.5521  -12.4437 O   0  0  0  0  0  0  0  0  0  0  0  0
   24.8461  -25.1575  -15.3996 N   0  0  0  0  0  0  0  0  0  0  0  0
   24.3508  -24.5876  -14.2381 C   0  0  0  0  0  0  0  0  0  0  0  0
   23.6601  -25.3209  -13.4424 O   0  0  0  0  0  0  0  0  0  0  0  0
   24.5623  -23.1977  -13.8479 C   0  0  0  0  0  0  0  0  0  0  0  0
   25.4973  -22.4684  -14.7548 C   0  0  2  0  0  0  0  0  0  0  0  0
   25.5807  -21.0809  -14.3521 N   0  0  0  0  0  0  0  0  0  0  0  0
   25.1694  -22.5833  -16.1947 C   0  0  0  0  0  0  0  0  0  0  0  0
   25.6026  -23.6811  -16.9095 O   0  0  0  0  0  0  0  0  0  0  0  0
   24.5058  -21.6958  -16.7558 O   0  0  0  0  0  0  0  0  0  0  0  0
  2  1  1  1
  2  3  1  0
  3  4  1  0
  4  9  2  0
  5  4  1  0
  5  6  2  0
  6  7  1  0
  7  8  2  0
  9  8  1  0
 10  2  1  0
 10 18  1  0
 11 10  2  0
 13 12  1  0
 13 15  1  0
 14 13  2  0
 16 15  1  0
 17 16  1  6
 17 18  1  0
 19 17  1  0
 20 19  2  0
 21 22  1  0
 22 23  2  0
 22 24  1  0
 25 24  1  1
 25 26  1  0
 25 27  1  0
 26 19  1  0
 27 28  1  0
 29 27  2  0
M  END
$$$$
