FQN.pdb
     RDKit          3D

 29 29  0  0  1  0  0  0  0  0999 V2000
   22.8231  -22.9671  -18.9873 N   0  0  0  0  0  0  0  0  0  0  0  0
   21.4703  -23.3378  -18.7033 C   0  0  1  0  0  0  0  0  0  0  0  0
   21.3540  -24.8482  -18.7045 C   0  0  0  0  0  0  0  0  0  0  0  0
   21.5217  -25.4463  -20.0329 C   0  0  0  0  0  0  0  0  0  0  0  0
   20.4072  -25.5717  -20.8243 C   0  0  0  0  0  0  0  0  0  0  0  0
   20.4062  -26.1150  -22.0998 C   0  0  0  0  0  0  0  0  0  0  0  0
   21.6404  -26.5486  -22.5665 C   0  0  0  0  0  0  0  0  0  0  0  0
   22.7723  -26.4346  -21.7942 C   0  0  0  0  0  0  0  0  0  0  0  0
   22.7345  -25.8862  -20.5244 C   0  0  0  0  0  0  0  0  0  0  0  0
   21.1300  -22.8235  -17.3318 C   0  0  0  0  0  0  0  0  0  0  0  0
   21.9902  -22.6894  -16.4278 O   0  0  0  0  0  0  0  0  0  0  0  0
   15.6546  -19.4068  -15.5837 N   0  0  0  0  0  0  0  0  0  0  0  0
   16.2333  -20.1235  -16.6810 C   0  0  0  0  0  0  0  0  0  0  0  0
   15.9616  -19.7115  -17.8340 O   0  0  0  0  0  0  0  0  0  0  0  0
   17.0896  -21.2736  -16.3522 C   0  0  0  0  0  0  0  0  0  0  0  0
   18.4401  -20.8299  -15.9366 C   0  0  0  0  0  0  0  0  0  0  0  0
   19.4490  -21.9052  -15.6798 C   0  0  2  0  0  0  0  0  0  0  0  0
   19.7919  -22.4594  -16.9916 N   0  0  0  0  0  0  0  0  0  0  0  0
   18.9447  -22.9606  -14.7684 C   0  0  0  0  0  0  0  0  0  0  0  0
   18.6035  -24.0783  -15.2413 O   0  0  0  0  0  0  0  0  0  0  0  0
   19.2360  -26.4693  -10.6023 N   0  0  0  0  0  0  0  0  0  0  0  0
   18.8894  -25.1345  -10.4706 C   0  0  0  0  0  0  0  0  0  0  0  0
   18.1562  -24.7874   -9.4756 O   0  0  0  0  0  0  0  0  0  0  0  0
   19.3046  -24.0813  -11.3910 C   0  0  0  0  0  0  0  0  0  0  0  0
   18.3427  -23.8681  -12.5127 C   0  0  2  0  0  0  0  0  0  0  0  0
   18.8151  -22.7940  -13.3597 N   0  0  0  0  0  0  0  0  0  0  0  0
   16.9449  -23.6295  -12.0847 C   0  0  0  0  0  0  0  0  0  0  0  0
   16.1228  -24.7016  -11.8044 O   0  0  0  0  0  0  0  0  0  0  0  0
   16.5152  -22.4690  -11.9771 O   0  0  0  0  0  0  0  0  0  0  0  0
  2  1  1  1
  2  3  1  0
  3  4  1  0
  4  9  2  0
  5  4  1  0
  5  6  2  0
  6  7  1  0
  7  8  2  0
  9  8  1  0
 10  2  1  0
 10 18  1  0
 11 10  2  0
 13 12  1  0
 13 15  1  0
 14 13  2  0
 16 15  1  0
 17 16  1  6
 17 18  1  0
 19 17  1  0
 20 19  2  0
 21 22  1  0
 22 23  2  0
 22 24  1  0
 25 24  1  1
 25 26  1  0
 25 27  1  0
 26 19  1  0
 27 28  1  0
 29 27  2  0
M  END
$$$$
