FQN.pdb
     RDKit          3D

 29 29  0  0  1  0  0  0  0  0999 V2000
   27.3666  -18.6237  -15.7821 N   0  0  0  0  0  0  0  0  0  0  0  0
   26.4149  -18.1171  -14.8410 C   0  0  1  0  0  0  0  0  0  0  0  0
   25.4406  -17.2037  -15.5562 C   0  0  0  0  0  0  0  0  0  0  0  0
   26.0568  -15.9725  -16.0612 C   0  0  0  0  0  0  0  0  0  0  0  0
   26.2907  -14.9591  -15.1655 C   0  0  0  0  0  0  0  0  0  0  0  0
   26.8646  -13.7396  -15.4907 C   0  0  0  0  0  0  0  0  0  0  0  0
   27.2100  -13.5781  -16.8262 C   0  0  0  0  0  0  0  0  0  0  0  0
   26.9868  -14.5773  -17.7440 C   0  0  0  0  0  0  0  0  0  0  0  0
   26.4112  -15.7824  -17.3820 C   0  0  0  0  0  0  0  0  0  0  0  0
   25.6598  -19.2874  -14.2740 C   0  0  0  0  0  0  0  0  0  0  0  0
   25.5046  -20.3611  -14.9050 O   0  0  0  0  0  0  0  0  0  0  0  0
   25.6891  -22.8503  -11.2520 N   0  0  0  0  0  0  0  0  0  0  0  0
   26.6581  -21.8656  -10.8722 C   0  0  0  0  0  0  0  0  0  0  0  0
   27.8489  -22.2482  -10.7786 O   0  0  0  0  0  0  0  0  0  0  0  0
   26.1656  -20.5012  -10.6277 C   0  0  0  0  0  0  0  0  0  0  0  0
   24.7228  -20.3917  -10.9432 C   0  0  0  0  0  0  0  0  0  0  0  0
   24.3545  -20.3636  -12.3936 C   0  0  2  0  0  0  0  0  0  0  0  0
   25.0765  -19.2281  -12.9721 N   0  0  0  0  0  0  0  0  0  0  0  0
   22.8934  -20.2366  -12.6132 C   0  0  0  0  0  0  0  0  0  0  0  0
   22.3563  -19.0968  -12.5726 O   0  0  0  0  0  0  0  0  0  0  0  0
   19.1519  -20.2094  -16.5694 N   0  0  0  0  0  0  0  0  0  0  0  0
   19.4400  -20.0798  -15.2206 C   0  0  0  0  0  0  0  0  0  0  0  0
   18.4977  -19.7243  -14.4244 O   0  0  0  0  0  0  0  0  0  0  0  0
   20.7525  -20.3235  -14.6319 C   0  0  0  0  0  0  0  0  0  0  0  0
   20.6956  -21.1520  -13.3913 C   0  0  2  0  0  0  0  0  0  0  0  0
   22.0332  -21.3418  -12.8726 N   0  0  0  0  0  0  0  0  0  0  0  0
   20.0007  -22.4502  -13.5523 C   0  0  0  0  0  0  0  0  0  0  0  0
   18.6718  -22.5633  -13.1989 O   0  0  0  0  0  0  0  0  0  0  0  0
   20.6115  -23.4324  -14.0051 O   0  0  0  0  0  0  0  0  0  0  0  0
  2  1  1  6
  2  3  1  0
  3  4  1  0
  4  9  2  0
  5  4  1  0
  5  6  2  0
  6  7  1  0
  7  8  2  0
  9  8  1  0
 10  2  1  0
 10 18  1  0
 11 10  2  0
 13 12  1  0
 13 15  1  0
 14 13  2  0
 16 15  1  0
 17 16  1  1
 17 18  1  0
 19 17  1  0
 20 19  2  0
 21 22  1  0
 22 23  2  0
 22 24  1  0
 25 24  1  6
 25 26  1  0
 25 27  1  0
 26 19  1  0
 27 28  1  0
 29 27  2  0
M  END
$$$$
