FQN.pdb
     RDKit          3D

 29 29  0  0  1  0  0  0  0  0999 V2000
   28.3805  -21.6148   -9.2718 N   0  0  0  0  0  0  0  0  0  0  0  0
   27.1681  -20.8560   -9.2204 C   0  0  1  0  0  0  0  0  0  0  0  0
   27.4613  -19.4811   -8.6561 C   0  0  0  0  0  0  0  0  0  0  0  0
   27.8431  -19.4996   -7.2403 C   0  0  0  0  0  0  0  0  0  0  0  0
   26.8881  -19.8634   -6.3239 C   0  0  0  0  0  0  0  0  0  0  0  0
   27.0970  -19.9283   -4.9549 C   0  0  0  0  0  0  0  0  0  0  0  0
   28.3755  -19.5934   -4.5281 C   0  0  0  0  0  0  0  0  0  0  0  0
   29.3507  -19.2256   -5.4250 C   0  0  0  0  0  0  0  0  0  0  0  0
   29.1050  -19.1723   -6.7857 C   0  0  0  0  0  0  0  0  0  0  0  0
   26.6577  -20.7073  -10.6270 C   0  0  0  0  0  0  0  0  0  0  0  0
   27.4227  -20.6362  -11.6194 O   0  0  0  0  0  0  0  0  0  0  0  0
   25.5577  -24.5772  -13.5018 N   0  0  0  0  0  0  0  0  0  0  0  0
   24.7188  -23.8530  -14.4099 C   0  0  0  0  0  0  0  0  0  0  0  0
   24.3452  -24.4585  -15.4427 O   0  0  0  0  0  0  0  0  0  0  0  0
   24.3760  -22.4695  -14.0459 C   0  0  0  0  0  0  0  0  0  0  0  0
   24.9368  -22.1129  -12.7224 C   0  0  0  0  0  0  0  0  0  0  0  0
   24.7305  -20.7027  -12.2654 C   0  0  2  0  0  0  0  0  0  0  0  0
   25.2579  -20.6390  -10.9003 N   0  0  0  0  0  0  0  0  0  0  0  0
   23.3079  -20.2866  -12.3093 C   0  0  0  0  0  0  0  0  0  0  0  0
   22.5298  -20.6362  -11.3810 O   0  0  0  0  0  0  0  0  0  0  0  0
   19.4588  -16.2518  -14.8008 N   0  0  0  0  0  0  0  0  0  0  0  0
   19.7647  -17.5456  -14.4113 C   0  0  0  0  0  0  0  0  0  0  0  0
   18.8134  -18.3017  -13.9975 O   0  0  0  0  0  0  0  0  0  0  0  0
   21.1061  -18.1187  -14.4401 C   0  0  0  0  0  0  0  0  0  0  0  0
   21.3672  -19.0608  -13.3118 C   0  0  2  0  0  0  0  0  0  0  0  0
   22.7455  -19.4998  -13.3550 N   0  0  0  0  0  0  0  0  0  0  0  0
   20.4443  -20.2179  -13.2531 C   0  0  0  0  0  0  0  0  0  0  0  0
   20.6135  -21.2729  -14.1260 O   0  0  0  0  0  0  0  0  0  0  0  0
   19.5228  -20.2388  -12.4204 O   0  0  0  0  0  0  0  0  0  0  0  0
  2  1  1  6
  2  3  1  0
  3  4  1  0
  4  9  2  0
  5  4  1  0
  5  6  2  0
  6  7  1  0
  7  8  2  0
  9  8  1  0
 10  2  1  0
 10 18  1  0
 11 10  2  0
 13 12  1  0
 13 15  1  0
 14 13  2  0
 16 15  1  0
 17 16  1  1
 17 18  1  0
 19 17  1  0
 20 19  2  0
 21 22  1  0
 22 23  2  0
 22 24  1  0
 25 24  1  6
 25 26  1  0
 25 27  1  0
 26 19  1  0
 27 28  1  0
 29 27  2  0
M  END
$$$$
