FQN.pdb
     RDKit          3D

 29 29  0  0  1  0  0  0  0  0999 V2000
   23.6767  -12.9641  -18.0057 N   0  0  0  0  0  0  0  0  0  0  0  0
   23.7017  -12.2103  -16.7894 C   0  0  1  0  0  0  0  0  0  0  0  0
   25.1297  -11.8145  -16.4748 C   0  0  0  0  0  0  0  0  0  0  0  0
   26.0020  -12.9566  -16.1828 C   0  0  0  0  0  0  0  0  0  0  0  0
   27.0244  -13.2224  -17.0593 C   0  0  0  0  0  0  0  0  0  0  0  0
   27.9291  -14.2636  -16.9191 C   0  0  0  0  0  0  0  0  0  0  0  0
   27.7490  -15.0661  -15.8000 C   0  0  0  0  0  0  0  0  0  0  0  0
   26.7330  -14.8218  -14.9063 C   0  0  0  0  0  0  0  0  0  0  0  0
   25.8485  -13.7720  -15.0793 C   0  0  0  0  0  0  0  0  0  0  0  0
   22.8862  -10.9650  -17.0024 C   0  0  0  0  0  0  0  0  0  0  0  0
   22.7582  -10.4254  -18.1283 O   0  0  0  0  0  0  0  0  0  0  0  0
   17.8862  -10.1651  -14.0155 N   0  0  0  0  0  0  0  0  0  0  0  0
   17.8160   -8.8923  -14.6696 C   0  0  0  0  0  0  0  0  0  0  0  0
   16.7370   -8.2610  -14.5680 O   0  0  0  0  0  0  0  0  0  0  0  0
   19.0140   -8.4470  -15.3980 C   0  0  0  0  0  0  0  0  0  0  0  0
   20.0623   -9.4931  -15.3881 C   0  0  0  0  0  0  0  0  0  0  0  0
   21.3305   -9.1775  -16.1174 C   0  0  2  0  0  0  0  0  0  0  0  0
   22.2105  -10.3311  -15.9160 N   0  0  0  0  0  0  0  0  0  0  0  0
   21.9706   -7.9270  -15.6425 C   0  0  0  0  0  0  0  0  0  0  0  0
   22.6047   -7.9291  -14.5529 O   0  0  0  0  0  0  0  0  0  0  0  0
   24.8477   -3.0256  -16.3937 N   0  0  0  0  0  0  0  0  0  0  0  0
   23.5040   -3.3369  -16.5236 C   0  0  0  0  0  0  0  0  0  0  0  0
   22.6363   -2.4316  -16.2487 O   0  0  0  0  0  0  0  0  0  0  0  0
   22.9977   -4.6345  -16.9579 C   0  0  0  0  0  0  0  0  0  0  0  0
   22.5377   -5.4942  -15.8275 C   0  0  2  0  0  0  0  0  0  0  0  0
   21.9163   -6.6921  -16.3503 N   0  0  0  0  0  0  0  0  0  0  0  0
   21.6447   -4.8122  -14.8624 C   0  0  0  0  0  0  0  0  0  0  0  0
   20.2826   -4.7991  -15.0820 O   0  0  0  0  0  0  0  0  0  0  0  0
   22.1201   -4.2558  -13.8587 O   0  0  0  0  0  0  0  0  0  0  0  0
  2  1  1  6
  2  3  1  0
  3  4  1  0
  4  9  2  0
  5  4  1  0
  5  6  2  0
  6  7  1  0
  7  8  2  0
  9  8  1  0
 10  2  1  0
 10 18  1  0
 11 10  2  0
 13 12  1  0
 13 15  1  0
 14 13  2  0
 16 15  1  0
 17 16  1  1
 17 18  1  0
 19 17  1  0
 20 19  2  0
 21 22  1  0
 22 23  2  0
 22 24  1  0
 25 24  1  6
 25 26  1  0
 25 27  1  0
 26 19  1  0
 27 28  1  0
 29 27  2  0
M  END
$$$$
