FQN.pdb
     RDKit          3D

 29 29  0  0  1  0  0  0  0  0999 V2000
   27.2795  -22.4206   -9.9270 N   0  0  0  0  0  0  0  0  0  0  0  0
   26.6274  -21.2002  -10.2923 C   0  0  1  0  0  0  0  0  0  0  0  0
   27.5339  -20.0310   -9.9669 C   0  0  0  0  0  0  0  0  0  0  0  0
   27.8388  -19.9079   -8.5377 C   0  0  0  0  0  0  0  0  0  0  0  0
   26.9211  -19.2718   -7.7394 C   0  0  0  0  0  0  0  0  0  0  0  0
   27.0671  -19.0787   -6.3742 C   0  0  0  0  0  0  0  0  0  0  0  0
   28.2381  -19.5801   -5.8208 C   0  0  0  0  0  0  0  0  0  0  0  0
   29.1737  -20.2214   -6.5980 C   0  0  0  0  0  0  0  0  0  0  0  0
   28.9932  -20.3958   -7.9587 C   0  0  0  0  0  0  0  0  0  0  0  0
   26.3871  -21.2327  -11.7764 C   0  0  0  0  0  0  0  0  0  0  0  0
   27.0077  -22.0073  -12.5446 O   0  0  0  0  0  0  0  0  0  0  0  0
   24.7531  -24.5176  -13.7839 N   0  0  0  0  0  0  0  0  0  0  0  0
   23.7374  -24.0278  -14.6677 C   0  0  0  0  0  0  0  0  0  0  0  0
   23.3020  -24.8276  -15.5301 O   0  0  0  0  0  0  0  0  0  0  0  0
   23.3022  -22.6350  -14.4809 C   0  0  0  0  0  0  0  0  0  0  0  0
   24.0089  -22.0049  -13.3422 C   0  0  0  0  0  0  0  0  0  0  0  0
   24.7401  -20.7310  -13.6296 C   0  0  2  0  0  0  0  0  0  0  0  0
   25.4271  -20.3701  -12.3872 N   0  0  0  0  0  0  0  0  0  0  0  0
   23.8409  -19.6412  -14.0797 C   0  0  0  0  0  0  0  0  0  0  0  0
   23.2882  -18.8989  -13.2237 O   0  0  0  0  0  0  0  0  0  0  0  0
   23.7024  -15.3515  -16.9009 N   0  0  0  0  0  0  0  0  0  0  0  0
   24.6669  -15.8741  -16.0548 C   0  0  0  0  0  0  0  0  0  0  0  0
   25.6274  -15.1114  -15.6758 O   0  0  0  0  0  0  0  0  0  0  0  0
   24.6684  -17.2449  -15.5553 C   0  0  0  0  0  0  0  0  0  0  0  0
   23.4479  -18.0127  -15.9419 C   0  0  2  0  0  0  0  0  0  0  0  0
   23.5506  -19.3689  -15.4474 N   0  0  0  0  0  0  0  0  0  0  0  0
   23.1488  -17.9991  -17.3925 C   0  0  0  0  0  0  0  0  0  0  0  0
   22.0202  -17.3520  -17.8523 O   0  0  0  0  0  0  0  0  0  0  0  0
   23.9118  -18.5665  -18.1918 O   0  0  0  0  0  0  0  0  0  0  0  0
  2  1  1  6
  2  3  1  0
  3  4  1  0
  4  9  2  0
  5  4  1  0
  5  6  2  0
  6  7  1  0
  7  8  2  0
  9  8  1  0
 10  2  1  0
 10 18  1  0
 11 10  2  0
 13 12  1  0
 13 15  1  0
 14 13  2  0
 16 15  1  0
 17 16  1  1
 17 18  1  0
 19 17  1  0
 20 19  2  0
 21 22  1  0
 22 23  2  0
 22 24  1  0
 25 24  1  6
 25 26  1  0
 25 27  1  0
 26 19  1  0
 27 28  1  0
 29 27  2  0
M  END
$$$$
