FQN.pdb
     RDKit          3D

 29 29  0  0  1  0  0  0  0  0999 V2000
   27.8204  -21.2941   -8.5410 N   0  0  0  0  0  0  0  0  0  0  0  0
   26.5715  -20.6414   -8.2909 C   0  0  1  0  0  0  0  0  0  0  0  0
   26.8246  -19.3392   -7.5595 C   0  0  0  0  0  0  0  0  0  0  0  0
   27.6218  -19.4996   -6.3391 C   0  0  0  0  0  0  0  0  0  0  0  0
   28.7405  -18.7170   -6.1973 C   0  0  0  0  0  0  0  0  0  0  0  0
   29.5918  -18.7538   -5.1036 C   0  0  0  0  0  0  0  0  0  0  0  0
   29.2488  -19.6599   -4.1085 C   0  0  0  0  0  0  0  0  0  0  0  0
   28.1335  -20.4555   -4.2255 C   0  0  0  0  0  0  0  0  0  0  0  0
   27.3065  -20.3908   -5.3330 C   0  0  0  0  0  0  0  0  0  0  0  0
   25.9357  -20.3389   -9.6196 C   0  0  0  0  0  0  0  0  0  0  0  0
   24.9347  -19.5906   -9.7349 O   0  0  0  0  0  0  0  0  0  0  0  0
   28.6319  -22.0039  -14.8647 N   0  0  0  0  0  0  0  0  0  0  0  0
   27.4524  -21.4648  -15.4738 C   0  0  0  0  0  0  0  0  0  0  0  0
   27.4197  -21.4452  -16.7274 O   0  0  0  0  0  0  0  0  0  0  0  0
   26.3930  -20.9855  -14.5727 C   0  0  0  0  0  0  0  0  0  0  0  0
   26.7709  -21.1832  -13.1545 C   0  0  0  0  0  0  0  0  0  0  0  0
   25.8229  -20.6476  -12.1277 C   0  0  2  0  0  0  0  0  0  0  0  0
   26.4505  -20.8986  -10.8281 N   0  0  0  0  0  0  0  0  0  0  0  0
   24.4805  -21.2730  -12.2031 C   0  0  0  0  0  0  0  0  0  0  0  0
   24.1048  -22.0498  -11.2839 O   0  0  0  0  0  0  0  0  0  0  0  0
   19.7458  -19.0437  -12.0655 N   0  0  0  0  0  0  0  0  0  0  0  0
   21.0736  -19.4150  -12.2005 C   0  0  0  0  0  0  0  0  0  0  0  0
   21.9224  -18.5282  -12.5763 O   0  0  0  0  0  0  0  0  0  0  0  0
   21.5837  -20.7571  -11.9408 C   0  0  0  0  0  0  0  0  0  0  0  0
   22.1659  -21.4090  -13.1510 C   0  0  2  0  0  0  0  0  0  0  0  0
   23.5632  -21.0517  -13.2702 N   0  0  0  0  0  0  0  0  0  0  0  0
   21.4378  -21.1267  -14.4097 C   0  0  0  0  0  0  0  0  0  0  0  0
   22.0956  -20.5183  -15.4589 O   0  0  0  0  0  0  0  0  0  0  0  0
   20.2404  -21.4380  -14.5205 O   0  0  0  0  0  0  0  0  0  0  0  0
  2  1  1  6
  2  3  1  0
  3  4  1  0
  4  9  2  0
  5  4  1  0
  5  6  2  0
  6  7  1  0
  7  8  2  0
  9  8  1  0
 10  2  1  0
 10 18  1  0
 11 10  2  0
 13 12  1  0
 13 15  1  0
 14 13  2  0
 16 15  1  0
 17 16  1  6
 17 18  1  0
 19 17  1  0
 20 19  2  0
 21 22  1  0
 22 23  2  0
 22 24  1  0
 25 24  1  1
 25 26  1  0
 25 27  1  0
 26 19  1  0
 27 28  1  0
 29 27  2  0
M  END
$$$$
