FQN.pdb
     RDKit          3D

 29 29  0  0  1  0  0  0  0  0999 V2000
   27.4754  -21.2719  -13.5581 N   0  0  0  0  0  0  0  0  0  0  0  0
   26.6082  -21.2377  -12.4201 C   0  0  1  0  0  0  0  0  0  0  0  0
   27.2823  -20.4730  -11.2995 C   0  0  0  0  0  0  0  0  0  0  0  0
   28.5437  -21.0758  -10.8567 C   0  0  0  0  0  0  0  0  0  0  0  0
   29.6936  -20.7075  -11.5096 C   0  0  0  0  0  0  0  0  0  0  0  0
   30.9579  -21.1891  -11.2067 C   0  0  0  0  0  0  0  0  0  0  0  0
   31.0155  -22.1048  -10.1641 C   0  0  0  0  0  0  0  0  0  0  0  0
   29.8788  -22.4906   -9.4934 C   0  0  0  0  0  0  0  0  0  0  0  0
   28.6328  -21.9879   -9.8242 C   0  0  0  0  0  0  0  0  0  0  0  0
   25.3529  -20.5124  -12.8192 C   0  0  0  0  0  0  0  0  0  0  0  0
   25.3621  -19.3358  -13.2559 O   0  0  0  0  0  0  0  0  0  0  0  0
   25.2969  -21.8209  -16.5853 N   0  0  0  0  0  0  0  0  0  0  0  0
   25.0641  -20.4072  -16.5924 C   0  0  0  0  0  0  0  0  0  0  0  0
   25.7642  -19.7210  -17.3747 O   0  0  0  0  0  0  0  0  0  0  0  0
   24.0281  -19.8948  -15.6824 C   0  0  0  0  0  0  0  0  0  0  0  0
   23.3540  -21.0020  -14.9662 C   0  0  0  0  0  0  0  0  0  0  0  0
   22.9421  -20.7330  -13.5527 C   0  0  2  0  0  0  0  0  0  0  0  0
   24.0744  -21.1400  -12.7173 N   0  0  0  0  0  0  0  0  0  0  0  0
   21.7058  -21.4552  -13.1670 C   0  0  0  0  0  0  0  0  0  0  0  0
   21.7581  -22.6919  -12.9281 O   0  0  0  0  0  0  0  0  0  0  0  0
   16.7594  -22.6284  -11.7933 N   0  0  0  0  0  0  0  0  0  0  0  0
   17.1008  -21.3264  -11.4656 C   0  0  0  0  0  0  0  0  0  0  0  0
   16.2904  -20.6449  -10.7397 O   0  0  0  0  0  0  0  0  0  0  0  0
   18.3312  -20.6664  -11.8891 C   0  0  0  0  0  0  0  0  0  0  0  0
   19.2649  -21.5753  -12.6177 C   0  0  2  0  0  0  0  0  0  0  0  0
   20.4306  -20.8322  -13.0454 N   0  0  0  0  0  0  0  0  0  0  0  0
   18.6522  -22.3004  -13.7548 C   0  0  0  0  0  0  0  0  0  0  0  0
   18.0467  -23.5216  -13.5410 O   0  0  0  0  0  0  0  0  0  0  0  0
   18.6822  -21.8101  -14.8957 O   0  0  0  0  0  0  0  0  0  0  0  0
  2  1  1  6
  2  3  1  0
  3  4  1  0
  4  9  2  0
  5  4  1  0
  5  6  2  0
  6  7  1  0
  7  8  2  0
  9  8  1  0
 10  2  1  0
 10 18  1  0
 11 10  2  0
 13 12  1  0
 13 15  1  0
 14 13  2  0
 16 15  1  0
 17 16  1  6
 17 18  1  0
 19 17  1  0
 20 19  2  0
 21 22  1  0
 22 23  2  0
 22 24  1  0
 25 24  1  6
 25 26  1  0
 25 27  1  0
 26 19  1  0
 27 28  1  0
 29 27  2  0
M  END
$$$$
