FQN.pdb
     RDKit          3D

 29 29  0  0  1  0  0  0  0  0999 V2000
   24.8538  -21.0011   -8.2929 N   0  0  0  0  0  0  0  0  0  0  0  0
   25.8710  -20.1763   -8.8701 C   0  0  1  0  0  0  0  0  0  0  0  0
   27.2311  -20.6721   -8.4237 C   0  0  0  0  0  0  0  0  0  0  0  0
   27.6891  -20.0703   -7.1673 C   0  0  0  0  0  0  0  0  0  0  0  0
   28.4481  -20.8444   -6.3254 C   0  0  0  0  0  0  0  0  0  0  0  0
   28.9528  -20.4176   -5.1066 C   0  0  0  0  0  0  0  0  0  0  0  0
   28.6432  -19.1100   -4.7556 C   0  0  0  0  0  0  0  0  0  0  0  0
   27.8849  -18.3132   -5.5806 C   0  0  0  0  0  0  0  0  0  0  0  0
   27.3980  -18.7742   -6.7910 C   0  0  0  0  0  0  0  0  0  0  0  0
   25.7728  -20.3022  -10.3654 C   0  0  0  0  0  0  0  0  0  0  0  0
   24.8691  -20.9657  -10.9297 O   0  0  0  0  0  0  0  0  0  0  0  0
   26.0688  -16.2514  -13.5885 N   0  0  0  0  0  0  0  0  0  0  0  0
   26.5308  -16.9693  -14.7391 C   0  0  0  0  0  0  0  0  0  0  0  0
   26.0678  -16.6180  -15.8505 O   0  0  0  0  0  0  0  0  0  0  0  0
   27.5027  -18.0492  -14.5085 C   0  0  0  0  0  0  0  0  0  0  0  0
   27.5300  -18.4450  -13.0817 C   0  0  0  0  0  0  0  0  0  0  0  0
   26.3796  -19.2681  -12.5926 C   0  0  2  0  0  0  0  0  0  0  0  0
   26.7182  -19.6625  -11.2231 N   0  0  0  0  0  0  0  0  0  0  0  0
   26.1199  -20.4551  -13.4426 C   0  0  0  0  0  0  0  0  0  0  0  0
   25.6567  -20.2974  -14.6044 O   0  0  0  0  0  0  0  0  0  0  0  0
   25.4137  -25.0911  -15.5781 N   0  0  0  0  0  0  0  0  0  0  0  0
   24.4532  -24.4232  -14.8360 C   0  0  0  0  0  0  0  0  0  0  0  0
   23.2313  -24.8051  -14.9306 O   0  0  0  0  0  0  0  0  0  0  0  0
   24.7341  -23.3050  -13.9419 C   0  0  0  0  0  0  0  0  0  0  0  0
   26.1742  -22.9121  -13.9265 C   0  0  2  0  0  0  0  0  0  0  0  0
   26.3631  -21.7953  -13.0258 N   0  0  0  0  0  0  0  0  0  0  0  0
   26.7440  -22.6180  -15.2618 C   0  0  0  0  0  0  0  0  0  0  0  0
   28.0155  -23.0531  -15.5740 O   0  0  0  0  0  0  0  0  0  0  0  0
   26.0789  -21.9837  -16.0975 O   0  0  0  0  0  0  0  0  0  0  0  0
  2  1  1  1
  2  3  1  0
  3  4  1  0
  4  9  2  0
  5  4  1  0
  5  6  2  0
  6  7  1  0
  7  8  2  0
  9  8  1  0
 10  2  1  0
 10 18  1  0
 11 10  2  0
 13 12  1  0
 13 15  1  0
 14 13  2  0
 16 15  1  0
 17 16  1  6
 17 18  1  0
 19 17  1  0
 20 19  2  0
 21 22  1  0
 22 23  2  0
 22 24  1  0
 25 24  1  6
 25 26  1  0
 25 27  1  0
 26 19  1  0
 27 28  1  0
 29 27  2  0
M  END
$$$$
