VSC.pdb
     RDKit          3D

 20 19  0  0  1  0  0  0  0  0999 V2000
   13.0429  -11.9549  -10.9635 C   0  0  0  0  0  0  0  0  0  0  0  0
   13.9105  -13.0804  -11.4089 C   0  0  1  0  0  0  0  0  0  0  0  0
   13.0212  -14.1840  -11.9517 C   0  0  0  0  0  0  0  0  0  0  0  0
   14.8929  -12.7260  -12.4805 C   0  0  2  0  0  0  0  0  0  0  0  0
   15.5306  -13.9367  -12.9292 N   0  0  0  0  0  0  0  0  0  0  0  0
   15.8476  -11.6765  -12.0999 C   0  0  0  0  0  0  0  0  0  0  0  0
   16.8029  -11.9935  -11.3481 O   0  0  0  0  0  0  0  0  0  0  0  0
   18.3603   -7.7182  -12.7563 O   0  0  0  0  0  0  0  0  0  0  0  0
   17.5066   -8.7213  -13.2125 C   0  0  0  0  0  0  0  0  0  0  0  0
   16.6677   -9.2852  -12.1005 C   0  0  2  0  0  0  0  0  0  0  0  0
   15.7799  -10.3256  -12.5134 N   0  0  0  0  0  0  0  0  0  0  0  0
   15.8902   -8.2025  -11.4430 C   0  0  0  0  0  0  0  0  0  0  0  0
   14.8064   -7.7548  -11.9513 O   0  0  0  0  0  0  0  0  0  0  0  0
   16.3702   -7.6515  -10.2122 N   0  0  0  0  0  0  0  0  0  0  0  0
   15.6697   -6.5238   -9.6559 C   0  0  1  0  0  0  0  0  0  0  0  0
   15.8611   -6.4152   -8.1571 C   0  0  0  0  0  0  0  0  0  0  0  0
   15.0705   -7.7651   -7.2609 S   0  0  0  0  0  0  0  0  0  0  0  0
   16.1996   -5.2805  -10.2516 C   0  0  0  0  0  0  0  0  0  0  0  0
   15.6469   -4.1915   -9.9843 O   0  0  0  0  0  0  0  0  0  0  0  0
   17.2920   -5.2705  -11.1007 O   0  0  0  0  0  0  0  0  0  0  0  0
  2  1  1  6
  3  2  1  0
  4  5  1  1
  4  2  1  0
  6  4  1  0
  6  7  2  0
  8  9  1  0
 10  9  1  6
 10 11  1  0
 10 12  1  0
 11  6  1  0
 12 13  2  0
 12 14  1  0
 14 15  1  0
 15 18  1  0
 15 16  1  1
 17 16  1  0
 18 19  2  0
 18 20  1  0
M  END
$$$$
