VSC.pdb
     RDKit          3D

 20 19  0  0  1  0  0  0  0  0999 V2000
   15.5357   -8.3679  -10.7187 C   0  0  0  0  0  0  0  0  0  0  0  0
   15.3519   -9.8327  -10.9146 C   0  0  1  0  0  0  0  0  0  0  0  0
   14.0226  -10.2342  -10.3022 C   0  0  0  0  0  0  0  0  0  0  0  0
   15.3411  -10.2757  -12.3438 C   0  0  2  0  0  0  0  0  0  0  0  0
   15.2150  -11.7099  -12.3729 N   0  0  0  0  0  0  0  0  0  0  0  0
   16.4727   -9.7785  -13.1375 C   0  0  0  0  0  0  0  0  0  0  0  0
   17.6051  -10.2804  -12.9278 O   0  0  0  0  0  0  0  0  0  0  0  0
   16.2016   -6.5396  -15.9502 O   0  0  0  0  0  0  0  0  0  0  0  0
   17.1060   -7.5802  -16.1564 C   0  0  0  0  0  0  0  0  0  0  0  0
   17.4958   -8.2418  -14.8646 C   0  0  2  0  0  0  0  0  0  0  0  0
   16.3925   -8.7719  -14.1279 N   0  0  0  0  0  0  0  0  0  0  0  0
   18.2526   -7.2917  -14.0081 C   0  0  0  0  0  0  0  0  0  0  0  0
   17.6822   -6.6381  -13.0695 O   0  0  0  0  0  0  0  0  0  0  0  0
   19.6525   -7.1077  -14.2435 N   0  0  0  0  0  0  0  0  0  0  0  0
   20.3309   -6.0678  -13.5154 C   0  0  1  0  0  0  0  0  0  0  0  0
   21.5770   -6.5768  -12.8204 C   0  0  0  0  0  0  0  0  0  0  0  0
   22.4768   -5.2665  -11.9699 S   0  0  0  0  0  0  0  0  0  0  0  0
   20.7601   -5.0150  -14.4582 C   0  0  0  0  0  0  0  0  0  0  0  0
   21.0920   -5.3342  -15.6204 O   0  0  0  0  0  0  0  0  0  0  0  0
   20.8106   -3.6779  -14.1056 O   0  0  0  0  0  0  0  0  0  0  0  0
  2  1  1  6
  3  2  1  0
  4  5  1  1
  4  2  1  0
  6  4  1  0
  6  7  2  0
  8  9  1  0
 10  9  1  6
 10 11  1  0
 10 12  1  0
 11  6  1  0
 12 13  2  0
 12 14  1  0
 14 15  1  0
 15 18  1  0
 15 16  1  6
 17 16  1  0
 18 19  2  0
 18 20  1  0
M  END
$$$$
