VSC.pdb
     RDKit          3D

 20 19  0  0  1  0  0  0  0  0999 V2000
   19.6822  -15.9631  -18.0632 C   0  0  0  0  0  0  0  0  0  0  0  0
   19.9122  -14.8800  -17.0673 C   0  0  1  0  0  0  0  0  0  0  0  0
   20.9658  -15.3517  -16.0822 C   0  0  0  0  0  0  0  0  0  0  0  0
   20.3877  -13.5862  -17.6496 C   0  0  2  0  0  0  0  0  0  0  0  0
   21.5097  -13.8613  -18.5093 N   0  0  0  0  0  0  0  0  0  0  0  0
   20.6646  -12.5426  -16.6536 C   0  0  0  0  0  0  0  0  0  0  0  0
   19.7606  -12.2618  -15.8275 O   0  0  0  0  0  0  0  0  0  0  0  0
   24.3022  -11.3298  -14.7761 O   0  0  0  0  0  0  0  0  0  0  0  0
   23.5835  -10.3873  -15.5098 C   0  0  0  0  0  0  0  0  0  0  0  0
   22.1322  -10.7606  -15.6234 C   0  0  2  0  0  0  0  0  0  0  0  0
   21.8760  -11.8205  -16.5463 N   0  0  0  0  0  0  0  0  0  0  0  0
   21.3231   -9.5714  -15.9976 C   0  0  0  0  0  0  0  0  0  0  0  0
   21.1154   -9.2623  -17.2203 O   0  0  0  0  0  0  0  0  0  0  0  0
   20.7655   -8.7563  -14.9615 N   0  0  0  0  0  0  0  0  0  0  0  0
   19.9657   -7.6234  -15.3471 C   0  0  1  0  0  0  0  0  0  0  0  0
   18.5046   -7.8085  -14.9924 C   0  0  0  0  0  0  0  0  0  0  0  0
   17.5542   -6.2864  -15.1661 S   0  0  0  0  0  0  0  0  0  0  0  0
   20.4388   -6.4257  -14.6239 C   0  0  0  0  0  0  0  0  0  0  0  0
   20.9983   -6.5635  -13.5145 O   0  0  0  0  0  0  0  0  0  0  0  0
   20.2872   -5.1458  -15.1274 O   0  0  0  0  0  0  0  0  0  0  0  0
  2  1  1  6
  3  2  1  0
  4  5  1  1
  4  2  1  0
  6  4  1  0
  6  7  2  0
  8  9  1  0
 10  9  1  6
 10 11  1  0
 10 12  1  0
 11  6  1  0
 12 13  2  0
 12 14  1  0
 14 15  1  0
 15 18  1  0
 15 16  1  1
 17 16  1  0
 18 19  2  0
 18 20  1  0
M  END
$$$$
