VSC.pdb
     RDKit          3D

 20 19  0  0  1  0  0  0  0  0999 V2000
   18.8120   -9.1510  -19.1937 C   0  0  0  0  0  0  0  0  0  0  0  0
   18.0570  -10.3566  -18.7528 C   0  0  1  0  0  0  0  0  0  0  0  0
   17.7108  -11.1795  -19.9801 C   0  0  0  0  0  0  0  0  0  0  0  0
   18.7995  -11.2482  -17.8080 C   0  0  2  0  0  0  0  0  0  0  0  0
   17.9615  -12.3772  -17.4969 N   0  0  0  0  0  0  0  0  0  0  0  0
   19.3157  -10.5650  -16.6144 C   0  0  0  0  0  0  0  0  0  0  0  0
   18.4839  -10.0949  -15.7986 O   0  0  0  0  0  0  0  0  0  0  0  0
   23.4580  -10.3160  -15.6407 O   0  0  0  0  0  0  0  0  0  0  0  0
   22.4890  -10.1923  -14.6463 C   0  0  0  0  0  0  0  0  0  0  0  0
   21.1972   -9.6533  -15.1933 C   0  0  2  0  0  0  0  0  0  0  0  0
   20.6846  -10.3908  -16.3042 N   0  0  0  0  0  0  0  0  0  0  0  0
   21.3568   -8.2264  -15.5771 C   0  0  0  0  0  0  0  0  0  0  0  0
   21.4904   -7.8738  -16.7983 O   0  0  0  0  0  0  0  0  0  0  0  0
   21.3604   -7.2273  -14.5520 N   0  0  0  0  0  0  0  0  0  0  0  0
   21.5910   -5.8603  -14.9391 C   0  0  1  0  0  0  0  0  0  0  0  0
   20.3101   -5.1548  -15.3345 C   0  0  0  0  0  0  0  0  0  0  0  0
   19.5122   -5.9198  -16.7587 S   0  0  0  0  0  0  0  0  0  0  0  0
   22.1578   -5.1198  -13.7938 C   0  0  0  0  0  0  0  0  0  0  0  0
   22.1984   -5.6688  -12.6714 O   0  0  0  0  0  0  0  0  0  0  0  0
   22.6501   -3.8321  -13.9121 O   0  0  0  0  0  0  0  0  0  0  0  0
  2  1  1  6
  3  2  1  0
  4  5  1  1
  4  2  1  0
  6  4  1  0
  6  7  2  0
  8  9  1  0
 10  9  1  6
 10 11  1  0
 10 12  1  0
 11  6  1  0
 12 13  2  0
 12 14  1  0
 14 15  1  0
 15 18  1  0
 15 16  1  1
 17 16  1  0
 18 19  2  0
 18 20  1  0
M  END
$$$$
