VSC.pdb
     RDKit          3D

 20 19  0  0  1  0  0  0  0  0999 V2000
   25.8067  -34.9535   -8.7269 C   0  0  0  0  0  0  0  0  0  0  0  0
   24.8008  -33.8727   -8.9215 C   0  0  1  0  0  0  0  0  0  0  0  0
   23.4528  -34.3824   -8.4457 C   0  0  0  0  0  0  0  0  0  0  0  0
   25.0915  -32.6072   -8.1777 C   0  0  2  0  0  0  0  0  0  0  0  0
   26.2364  -31.9781   -8.7837 N   0  0  0  0  0  0  0  0  0  0  0  0
   25.2275  -32.7793   -6.7253 C   0  0  0  0  0  0  0  0  0  0  0  0
   26.3751  -32.9970   -6.2626 O   0  0  0  0  0  0  0  0  0  0  0  0
   23.2350  -32.4750   -2.2514 O   0  0  0  0  0  0  0  0  0  0  0  0
   23.0183  -32.5550   -3.6261 C   0  0  0  0  0  0  0  0  0  0  0  0
   24.2949  -32.8131   -4.3758 C   0  0  2  0  0  0  0  0  0  0  0  0
   24.1635  -32.7197   -5.7953 N   0  0  0  0  0  0  0  0  0  0  0  0
   24.8421  -34.1472   -4.0156 C   0  0  0  0  0  0  0  0  0  0  0  0
   24.4894  -35.2050   -4.6404 O   0  0  0  0  0  0  0  0  0  0  0  0
   25.7856  -34.2449   -2.9436 N   0  0  0  0  0  0  0  0  0  0  0  0
   26.3027  -35.5468   -2.6127 C   0  0  1  0  0  0  0  0  0  0  0  0
   27.2308  -36.0818   -3.6838 C   0  0  0  0  0  0  0  0  0  0  0  0
   28.5553  -34.9277   -4.0886 S   0  0  0  0  0  0  0  0  0  0  0  0
   27.0880  -35.4552   -1.3652 C   0  0  0  0  0  0  0  0  0  0  0  0
   27.1827  -34.3531   -0.7828 O   0  0  0  0  0  0  0  0  0  0  0  0
   27.7290  -36.5481   -0.8092 O   0  0  0  0  0  0  0  0  0  0  0  0
  2  1  1  1
  3  2  1  0
  4  5  1  6
  4  2  1  0
  6  4  1  0
  6  7  2  0
  8  9  1  0
 10  9  1  1
 10 11  1  0
 10 12  1  0
 11  6  1  0
 12 13  2  0
 12 14  1  0
 14 15  1  0
 15 18  1  0
 15 16  1  6
 17 16  1  0
 18 19  2  0
 18 20  1  0
M  END
$$$$
