VSC.pdb
     RDKit          3D

 20 19  0  0  1  0  0  0  0  0999 V2000
  -46.4885  -42.3139  -83.5166 C   0  0  0  0  0  0  0  0  0  0  0  0
  -45.0217  -42.0715  -83.4312 C   0  0  1  0  0  0  0  0  0  0  0  0
  -44.6226  -41.1474  -84.5669 C   0  0  0  0  0  0  0  0  0  0  0  0
  -44.5662  -41.4380  -82.1543 C   0  0  2  0  0  0  0  0  0  0  0  0
  -43.6691  -40.3592  -82.4784 N   0  0  0  0  0  0  0  0  0  0  0  0
  -44.0060  -42.3828  -81.1790 C   0  0  0  0  0  0  0  0  0  0  0  0
  -44.6612  -43.4238  -80.9237 O   0  0  0  0  0  0  0  0  0  0  0  0
  -42.5276  -42.4385  -83.1330 O   0  0  0  0  0  0  0  0  0  0  0  0
  -41.3097  -42.4482  -82.4549 C   0  0  0  0  0  0  0  0  0  0  0  0
  -41.4987  -42.6342  -80.9757 C   0  0  2  0  0  0  0  0  0  0  0  0
  -42.7782  -42.2162  -80.4969 N   0  0  0  0  0  0  0  0  0  0  0  0
  -40.4320  -41.9197  -80.2270 C   0  0  0  0  0  0  0  0  0  0  0  0
  -40.3700  -41.9593  -78.9510 O   0  0  0  0  0  0  0  0  0  0  0  0
  -39.4536  -41.1712  -80.9560 N   0  0  0  0  0  0  0  0  0  0  0  0
  -39.0826  -39.8735  -80.4560 C   0  0  1  0  0  0  0  0  0  0  0  0
  -37.5970  -39.6113  -80.5945 C   0  0  0  0  0  0  0  0  0  0  0  0
  -36.6849  -41.0732  -81.1246 S   0  0  0  0  0  0  0  0  0  0  0  0
  -39.7809  -38.8334  -81.2383 C   0  0  0  0  0  0  0  0  0  0  0  0
  -40.9527  -38.5229  -80.9327 O   0  0  0  0  0  0  0  0  0  0  0  0
  -39.1869  -38.1823  -82.3051 O   0  0  0  0  0  0  0  0  0  0  0  0
  2  1  1  1
  3  2  1  0
  4  5  1  6
  4  2  1  0
  6  4  1  0
  6  7  2  0
  8  9  1  0
 10  9  1  6
 10 11  1  0
 10 12  1  0
 11  6  1  0
 12 13  2  0
 12 14  1  0
 14 15  1  0
 15 18  1  0
 15 16  1  6
 17 16  1  0
 18 19  2  0
 18 20  1  0
M  END
$$$$
