VSC.pdb
     RDKit          3D

 20 19  0  0  1  0  0  0  0  0999 V2000
   15.5863   -9.7826  -16.4302 C   0  0  0  0  0  0  0  0  0  0  0  0
   15.3531  -10.9440  -15.5276 C   0  0  1  0  0  0  0  0  0  0  0  0
   14.1719  -11.7341  -16.0601 C   0  0  0  0  0  0  0  0  0  0  0  0
   16.5093  -11.8867  -15.4107 C   0  0  2  0  0  0  0  0  0  0  0  0
   16.1384  -12.9496  -14.5126 N   0  0  0  0  0  0  0  0  0  0  0  0
   17.7789  -11.2418  -15.0503 C   0  0  0  0  0  0  0  0  0  0  0  0
   17.8996  -10.7888  -13.8848 O   0  0  0  0  0  0  0  0  0  0  0  0
   22.4743  -10.2899  -15.9922 O   0  0  0  0  0  0  0  0  0  0  0  0
   21.2845  -10.8774  -16.4193 C   0  0  0  0  0  0  0  0  0  0  0  0
   20.1163  -10.4388  -15.5819 C   0  0  2  0  0  0  0  0  0  0  0  0
   18.8875  -11.0869  -15.9149 N   0  0  0  0  0  0  0  0  0  0  0  0
   19.9407   -8.9659  -15.6754 C   0  0  0  0  0  0  0  0  0  0  0  0
   19.3328   -8.4267  -16.6620 O   0  0  0  0  0  0  0  0  0  0  0  0
   20.4662   -8.1360  -14.6343 N   0  0  0  0  0  0  0  0  0  0  0  0
   20.3860   -6.7085  -14.8002 C   0  0  1  0  0  0  0  0  0  0  0  0
   19.3423   -6.0861  -13.8955 C   0  0  0  0  0  0  0  0  0  0  0  0
   19.4556   -4.2875  -13.8467 S   0  0  0  0  0  0  0  0  0  0  0  0
   21.6852   -6.1038  -14.4428 C   0  0  0  0  0  0  0  0  0  0  0  0
   22.5675   -6.8177  -13.9188 O   0  0  0  0  0  0  0  0  0  0  0  0
   21.9693   -4.7681  -14.6659 O   0  0  0  0  0  0  0  0  0  0  0  0
  2  1  1  6
  3  2  1  0
  4  5  1  1
  4  2  1  0
  6  4  1  0
  6  7  2  0
  8  9  1  0
 10  9  1  6
 10 11  1  0
 10 12  1  0
 11  6  1  0
 12 13  2  0
 12 14  1  0
 14 15  1  0
 15 18  1  0
 15 16  1  1
 17 16  1  0
 18 19  2  0
 18 20  1  0
M  END
$$$$
