VSC.pdb
     RDKit          3D

 20 19  0  0  1  0  0  0  0  0999 V2000
   18.7634  -12.4144  -17.9744 C   0  0  0  0  0  0  0  0  0  0  0  0
   18.5687  -11.0367  -17.4437 C   0  0  1  0  0  0  0  0  0  0  0  0
   17.2624  -11.0013  -16.6721 C   0  0  0  0  0  0  0  0  0  0  0  0
   19.6486  -10.5635  -16.5223 C   0  0  2  0  0  0  0  0  0  0  0  0
   19.8592  -11.5714  -15.5155 N   0  0  0  0  0  0  0  0  0  0  0  0
   19.4192   -9.2253  -15.9617 C   0  0  0  0  0  0  0  0  0  0  0  0
   19.5465   -8.2365  -16.7261 O   0  0  0  0  0  0  0  0  0  0  0  0
   18.9008   -8.4931  -11.8196 O   0  0  0  0  0  0  0  0  0  0  0  0
   18.1975   -7.6783  -12.7054 C   0  0  0  0  0  0  0  0  0  0  0  0
   18.8343   -7.6578  -14.0665 C   0  0  2  0  0  0  0  0  0  0  0  0
   19.0633   -8.9548  -14.6198 N   0  0  0  0  0  0  0  0  0  0  0  0
   20.1146   -6.9043  -14.0240 C   0  0  0  0  0  0  0  0  0  0  0  0
   21.2436   -7.5025  -14.0594 O   0  0  0  0  0  0  0  0  0  0  0  0
   20.0778   -5.4757  -13.9415 N   0  0  0  0  0  0  0  0  0  0  0  0
   21.3274   -4.7625  -13.9781 C   0  0  1  0  0  0  0  0  0  0  0  0
   22.1248   -5.0709  -15.2287 C   0  0  0  0  0  0  0  0  0  0  0  0
   23.5743   -4.0130  -15.4013 S   0  0  0  0  0  0  0  0  0  0  0  0
   21.0583   -3.3103  -13.9830 C   0  0  0  0  0  0  0  0  0  0  0  0
   19.9949   -2.8880  -14.4867 O   0  0  0  0  0  0  0  0  0  0  0  0
   21.9419   -2.3893  -13.4485 O   0  0  0  0  0  0  0  0  0  0  0  0
  2  1  1  1
  3  2  1  0
  4  5  1  1
  4  2  1  0
  6  4  1  0
  6  7  2  0
  8  9  1  0
 10  9  1  1
 10 11  1  0
 10 12  1  0
 11  6  1  0
 12 13  2  0
 12 14  1  0
 14 15  1  0
 15 18  1  0
 15 16  1  6
 17 16  1  0
 18 19  2  0
 18 20  1  0
M  END
$$$$
