VSC.pdb
     RDKit          3D

 20 19  0  0  1  0  0  0  0  0999 V2000
   20.8658  -12.0236  -16.7584 C   0  0  0  0  0  0  0  0  0  0  0  0
   19.6072  -12.4923  -17.4019 C   0  0  1  0  0  0  0  0  0  0  0  0
   19.5299  -14.0012  -17.2586 C   0  0  0  0  0  0  0  0  0  0  0  0
   18.3550  -11.9198  -16.8160 C   0  0  2  0  0  0  0  0  0  0  0  0
   17.2278  -12.5165  -17.4846 N   0  0  0  0  0  0  0  0  0  0  0  0
   18.3106  -10.4517  -16.8060 C   0  0  0  0  0  0  0  0  0  0  0  0
   18.1309   -9.8601  -17.8997 O   0  0  0  0  0  0  0  0  0  0  0  0
   16.6707   -7.8945  -14.1835 O   0  0  0  0  0  0  0  0  0  0  0  0
   17.2272   -7.5252  -15.4071 C   0  0  0  0  0  0  0  0  0  0  0  0
   18.5400   -8.2146  -15.6511 C   0  0  2  0  0  0  0  0  0  0  0  0
   18.4547   -9.6406  -15.6562 N   0  0  0  0  0  0  0  0  0  0  0  0
   19.5432   -7.7819  -14.6434 C   0  0  0  0  0  0  0  0  0  0  0  0
   19.5810   -8.2971  -13.4743 O   0  0  0  0  0  0  0  0  0  0  0  0
   20.4868   -6.7645  -14.9947 N   0  0  0  0  0  0  0  0  0  0  0  0
   21.4428   -6.3545  -13.9998 C   0  0  1  0  0  0  0  0  0  0  0  0
   22.8471   -6.8144  -14.3335 C   0  0  0  0  0  0  0  0  0  0  0  0
   23.3048   -6.4524  -16.0393 S   0  0  0  0  0  0  0  0  0  0  0  0
   21.4740   -4.8793  -13.9346 C   0  0  0  0  0  0  0  0  0  0  0  0
   20.8426   -4.2169  -14.7863 O   0  0  0  0  0  0  0  0  0  0  0  0
   22.1792   -4.1936  -12.9614 O   0  0  0  0  0  0  0  0  0  0  0  0
  2  1  1  1
  3  2  1  0
  4  5  1  6
  4  2  1  0
  6  4  1  0
  6  7  2  0
  8  9  1  0
 10  9  1  1
 10 11  1  0
 10 12  1  0
 11  6  1  0
 12 13  2  0
 12 14  1  0
 14 15  1  0
 15 18  1  0
 15 16  1  6
 17 16  1  0
 18 19  2  0
 18 20  1  0
M  END
$$$$
