QCL.pdb
     RDKit          3D

 24 23  0  0  1  0  0  0  0  0999 V2000
    9.7160  -14.5294   15.9997 N   0  0  0  0  0  0  0  0  0  0  0  0
    8.4739  -14.2311   16.6154 C   0  0  0  0  0  0  0  0  0  0  0  0
    8.1055  -13.0477   16.6812 O   0  0  0  0  0  0  0  0  0  0  0  0
    7.6549  -15.3182   17.1547 C   0  0  0  0  0  0  0  0  0  0  0  0
    7.2748  -15.2165   18.5826 C   0  0  0  0  0  0  0  0  0  0  0  0
    8.2730  -15.6480   19.5932 C   0  0  2  0  0  0  0  0  0  0  0  0
    8.9560  -16.8794   19.3082 N   0  0  0  0  0  0  0  0  0  0  0  0
    7.6952  -15.6680   20.9805 C   0  0  0  0  0  0  0  0  0  0  0  0
    6.8831  -14.7599   21.2977 O   0  0  0  0  0  0  0  0  0  0  0  0
    8.0468  -16.6673   21.8999 N   0  0  0  0  0  0  0  0  0  0  0  0
    7.4395  -16.7418   23.2270 C   0  0  1  0  0  0  0  0  0  0  0  0
    7.5512  -18.1827   23.7067 C   0  0  0  0  0  0  0  0  0  0  0  0
    9.3362  -18.5614   23.8341 S   0  0  0  0  0  0  0  0  0  0  0  0
    8.2288  -15.8885   24.1593 C   0  0  0  0  0  0  0  0  0  0  0  0
    9.4736  -15.6961   23.9444 O   0  0  0  0  0  0  0  0  0  0  0  0
    5.7739  -11.5849   26.3494 C   0  0  0  0  0  0  0  0  0  0  0  0
    6.7911  -12.5026   25.7442 C   0  0  1  0  0  0  0  0  0  0  0  0
    7.5117  -11.7825   24.6217 C   0  0  0  0  0  0  0  0  0  0  0  0
    7.6875  -13.2084   26.6741 C   0  0  0  0  0  0  0  0  0  0  0  0
    8.3648  -14.4446   26.2164 C   0  0  2  0  0  0  0  0  0  0  0  0
    7.6452  -15.2686   25.2974 N   0  0  0  0  0  0  0  0  0  0  0  0
    8.9787  -15.2214   27.3243 C   0  0  0  0  0  0  0  0  0  0  0  0
    8.7061  -16.5672   27.4590 O   0  0  0  0  0  0  0  0  0  0  0  0
    9.7298  -14.6557   28.1177 O   0  0  0  0  0  0  0  0  0  0  0  0
  1  2  1  0
  2  4  1  0
  3  2  2  0
  4  5  1  0
  6  7  1  6
  6  5  1  0
  8  6  1  0
  8  9  2  0
 10  8  1  0
 11 10  1  0
 11 14  1  0
 12 13  1  0
 11 12  1  1
 14 15  2  0
 14 21  1  0
 17 16  1  1
 17 18  1  0
 19 17  1  0
 20 19  1  1
 21 20  1  0
 22 23  1  0
 22 20  1  0
 24 22  2  0
M  END
$$$$
