QCL.pdb
     RDKit          3D

 24 23  0  0  1  0  0  0  0  0999 V2000
   13.9243  -14.7818   17.2765 N   0  0  0  0  0  0  0  0  0  0  0  0
   14.2870  -14.4967   18.6174 C   0  0  0  0  0  0  0  0  0  0  0  0
   15.4596  -14.1750   18.8666 O   0  0  0  0  0  0  0  0  0  0  0  0
   13.2769  -14.5840   19.6736 C   0  0  0  0  0  0  0  0  0  0  0  0
   11.8991  -14.9213   19.2473 C   0  0  0  0  0  0  0  0  0  0  0  0
   11.3394  -16.2218   19.6933 C   0  0  2  0  0  0  0  0  0  0  0  0
   11.2180  -17.2297   18.6766 N   0  0  0  0  0  0  0  0  0  0  0  0
   10.0416  -16.0512   20.4318 C   0  0  0  0  0  0  0  0  0  0  0  0
    8.9839  -15.9507   19.7564 O   0  0  0  0  0  0  0  0  0  0  0  0
   10.0034  -16.0047   21.8332 N   0  0  0  0  0  0  0  0  0  0  0  0
    8.7416  -16.0062   22.5703 C   0  0  1  0  0  0  0  0  0  0  0  0
    8.1341  -17.3969   22.4447 C   0  0  0  0  0  0  0  0  0  0  0  0
    9.3404  -18.5685   23.1644 S   0  0  0  0  0  0  0  0  0  0  0  0
    9.0329  -15.7645   24.0115 C   0  0  0  0  0  0  0  0  0  0  0  0
   10.2075  -15.9792   24.4667 O   0  0  0  0  0  0  0  0  0  0  0  0
    5.5009  -12.3027   26.4646 C   0  0  0  0  0  0  0  0  0  0  0  0
    6.7978  -12.8962   26.0077 C   0  0  1  0  0  0  0  0  0  0  0  0
    7.7474  -11.7826   25.6123 C   0  0  0  0  0  0  0  0  0  0  0  0
    7.4041  -13.9189   26.8753 C   0  0  0  0  0  0  0  0  0  0  0  0
    8.3075  -14.9265   26.2713 C   0  0  2  0  0  0  0  0  0  0  0  0
    8.0423  -15.2970   24.9171 N   0  0  0  0  0  0  0  0  0  0  0  0
    8.5487  -16.0997   27.1504 C   0  0  0  0  0  0  0  0  0  0  0  0
    9.1945  -15.9370   28.3588 O   0  0  0  0  0  0  0  0  0  0  0  0
    8.1688  -17.2138   26.7925 O   0  0  0  0  0  0  0  0  0  0  0  0
  1  2  1  0
  2  4  1  0
  3  2  2  0
  4  5  1  0
  6  7  1  6
  6  5  1  0
  8  6  1  0
  8  9  2  0
 10  8  1  0
 11 10  1  0
 11 14  1  0
 12 13  1  0
 11 12  1  1
 14 15  2  0
 14 21  1  0
 17 16  1  1
 17 18  1  0
 19 17  1  0
 20 19  1  1
 21 20  1  0
 22 23  1  0
 22 20  1  0
 24 22  2  0
M  END
$$$$
