QCL.pdb
     RDKit          3D

 24 23  0  0  1  0  0  0  0  0999 V2000
    7.2331  -15.0644   16.1312 N   0  0  0  0  0  0  0  0  0  0  0  0
    8.1850  -14.0354   16.3451 C   0  0  0  0  0  0  0  0  0  0  0  0
    8.8873  -13.6600   15.3931 O   0  0  0  0  0  0  0  0  0  0  0  0
    8.3173  -13.4382   17.6753 C   0  0  0  0  0  0  0  0  0  0  0  0
    7.6059  -14.1190   18.7816 C   0  0  0  0  0  0  0  0  0  0  0  0
    8.3856  -15.0577   19.6270 C   0  0  2  0  0  0  0  0  0  0  0  0
    8.8078  -16.2715   18.9844 N   0  0  0  0  0  0  0  0  0  0  0  0
    7.6885  -15.3567   20.9245 C   0  0  0  0  0  0  0  0  0  0  0  0
    6.5102  -14.9394   21.0743 O   0  0  0  0  0  0  0  0  0  0  0  0
    8.3271  -16.0793   21.9431 N   0  0  0  0  0  0  0  0  0  0  0  0
    7.6345  -16.4509   23.1750 C   0  0  1  0  0  0  0  0  0  0  0  0
    7.6677  -17.9693   23.2846 C   0  0  0  0  0  0  0  0  0  0  0  0
    6.9182  -18.4003   24.8965 S   0  0  0  0  0  0  0  0  0  0  0  0
    8.3907  -15.8937   24.3318 C   0  0  0  0  0  0  0  0  0  0  0  0
    9.6640  -15.9948   24.3661 O   0  0  0  0  0  0  0  0  0  0  0  0
    5.9818  -11.7386   26.9983 C   0  0  0  0  0  0  0  0  0  0  0  0
    7.0511  -12.5429   26.3253 C   0  0  1  0  0  0  0  0  0  0  0  0
    7.9290  -11.6212   25.5021 C   0  0  0  0  0  0  0  0  0  0  0  0
    7.8013  -13.4889   27.1670 C   0  0  0  0  0  0  0  0  0  0  0  0
    8.4322  -14.6692   26.5304 C   0  0  2  0  0  0  0  0  0  0  0  0
    7.7441  -15.2431   25.4175 N   0  0  0  0  0  0  0  0  0  0  0  0
    8.8906  -15.6885   27.5094 C   0  0  0  0  0  0  0  0  0  0  0  0
    8.5455  -17.0137   27.3405 O   0  0  0  0  0  0  0  0  0  0  0  0
    9.5784  -15.3416   28.4686 O   0  0  0  0  0  0  0  0  0  0  0  0
  1  2  1  0
  2  4  1  0
  3  2  2  0
  4  5  1  0
  6  7  1  6
  6  5  1  0
  8  6  1  0
  8  9  2  0
 10  8  1  0
 11 10  1  0
 11 14  1  0
 12 13  1  0
 11 12  1  1
 14 15  2  0
 14 21  1  0
 17 16  1  1
 17 18  1  0
 19 17  1  0
 20 19  1  1
 21 20  1  0
 22 23  1  0
 22 20  1  0
 24 22  2  0
M  END
$$$$
