QCL.pdb
     RDKit          3D

 24 23  0  0  1  0  0  0  0  0999 V2000
    8.4745  -12.7397   16.4359 N   0  0  0  0  0  0  0  0  0  0  0  0
    8.2485  -14.0132   15.8546 C   0  0  0  0  0  0  0  0  0  0  0  0
    8.5352  -14.1870   14.6596 O   0  0  0  0  0  0  0  0  0  0  0  0
    7.6882  -15.0914   16.6713 C   0  0  0  0  0  0  0  0  0  0  0  0
    7.4611  -14.7892   18.1033 C   0  0  0  0  0  0  0  0  0  0  0  0
    8.3987  -15.3829   19.0893 C   0  0  2  0  0  0  0  0  0  0  0  0
    9.2423  -16.4344   18.5924 N   0  0  0  0  0  0  0  0  0  0  0  0
    7.6945  -15.8137   20.3452 C   0  0  0  0  0  0  0  0  0  0  0  0
    6.5486  -16.3240   20.2373 O   0  0  0  0  0  0  0  0  0  0  0  0
    8.2915  -15.6544   21.6045 N   0  0  0  0  0  0  0  0  0  0  0  0
    7.6332  -16.0982   22.8313 C   0  0  1  0  0  0  0  0  0  0  0  0
    7.5706  -17.6193   22.7986 C   0  0  0  0  0  0  0  0  0  0  0  0
    9.2143  -18.2281   23.3218 S   0  0  0  0  0  0  0  0  0  0  0  0
    8.4770  -15.7014   23.9936 C   0  0  0  0  0  0  0  0  0  0  0  0
    9.7500  -15.7685   23.9064 O   0  0  0  0  0  0  0  0  0  0  0  0
    6.1335  -12.8019   25.8131 C   0  0  0  0  0  0  0  0  0  0  0  0
    7.4132  -12.5678   26.5551 C   0  0  1  0  0  0  0  0  0  0  0  0
    7.2423  -11.3866   27.4898 C   0  0  0  0  0  0  0  0  0  0  0  0
    8.0426  -13.7408   27.1829 C   0  0  0  0  0  0  0  0  0  0  0  0
    8.6859  -14.7574   26.3174 C   0  0  2  0  0  0  0  0  0  0  0  0
    7.9158  -15.2436   25.2165 N   0  0  0  0  0  0  0  0  0  0  0  0
    9.3443  -15.8474   27.0830 C   0  0  0  0  0  0  0  0  0  0  0  0
    9.0361  -17.1651   26.8139 O   0  0  0  0  0  0  0  0  0  0  0  0
   10.1639  -15.5654   27.9560 O   0  0  0  0  0  0  0  0  0  0  0  0
  1  2  1  0
  2  4  1  0
  3  2  2  0
  4  5  1  0
  6  7  1  6
  6  5  1  0
  8  6  1  0
  8  9  2  0
 10  8  1  0
 11 10  1  0
 11 14  1  0
 12 13  1  0
 11 12  1  6
 14 15  2  0
 14 21  1  0
 17 16  1  1
 17 18  1  0
 19 17  1  0
 20 19  1  1
 21 20  1  0
 22 23  1  0
 22 20  1  0
 24 22  2  0
M  END
$$$$
