QCL.pdb
     RDKit          3D

 24 23  0  0  1  0  0  0  0  0999 V2000
   14.3782  -20.1504   19.8700 N   0  0  0  0  0  0  0  0  0  0  0  0
   13.8628  -18.8858   20.2522 C   0  0  0  0  0  0  0  0  0  0  0  0
   14.1562  -17.8883   19.5745 O   0  0  0  0  0  0  0  0  0  0  0  0
   12.9980  -18.7834   21.4291 C   0  0  0  0  0  0  0  0  0  0  0  0
   11.5789  -19.1652   21.2445 C   0  0  0  0  0  0  0  0  0  0  0  0
   10.5936  -18.6493   22.2278 C   0  0  2  0  0  0  0  0  0  0  0  0
    9.5208  -19.5441   22.5633 N   0  0  0  0  0  0  0  0  0  0  0  0
   10.0591  -17.3013   21.8331 C   0  0  0  0  0  0  0  0  0  0  0  0
   10.8862  -16.3940   21.5541 O   0  0  0  0  0  0  0  0  0  0  0  0
    8.6794  -17.0548   21.7753 N   0  0  0  0  0  0  0  0  0  0  0  0
    8.1451  -15.7455   21.4069 C   0  0  1  0  0  0  0  0  0  0  0  0
    6.6712  -15.9256   21.0693 C   0  0  0  0  0  0  0  0  0  0  0  0
    5.9095  -16.8088   22.4784 S   0  0  0  0  0  0  0  0  0  0  0  0
    8.2350  -14.8454   22.5910 C   0  0  0  0  0  0  0  0  0  0  0  0
    8.0758  -13.5860   22.4448 O   0  0  0  0  0  0  0  0  0  0  0  0
    8.2657  -11.5971   26.4859 C   0  0  0  0  0  0  0  0  0  0  0  0
    7.2943  -12.7358   26.4308 C   0  0  1  0  0  0  0  0  0  0  0  0
    5.9056  -12.2270   26.7633 C   0  0  0  0  0  0  0  0  0  0  0  0
    7.3459  -13.5974   25.2387 C   0  0  0  0  0  0  0  0  0  0  0  0
    8.4901  -14.5248   25.0743 C   0  0  2  0  0  0  0  0  0  0  0  0
    8.4948  -15.3371   23.8990 N   0  0  0  0  0  0  0  0  0  0  0  0
    8.8017  -15.2957   26.3058 C   0  0  0  0  0  0  0  0  0  0  0  0
    9.7526  -14.8305   27.1906 O   0  0  0  0  0  0  0  0  0  0  0  0
    8.2061  -16.3489   26.5286 O   0  0  0  0  0  0  0  0  0  0  0  0
  1  2  1  0
  2  4  1  0
  3  2  2  0
  4  5  1  0
  6  7  1  6
  6  5  1  0
  8  6  1  0
  8  9  2  0
 10  8  1  0
 11 10  1  0
 11 14  1  0
 12 13  1  0
 11 12  1  1
 14 15  2  0
 14 21  1  0
 17 16  1  6
 17 18  1  0
 19 17  1  0
 20 19  1  1
 21 20  1  0
 22 23  1  0
 22 20  1  0
 24 22  2  0
M  END
$$$$
