QCL.pdb
     RDKit          3D

 24 23  0  0  1  0  0  0  0  0999 V2000
   13.1530  -18.1211   16.4135 N   0  0  0  0  0  0  0  0  0  0  0  0
   11.7560  -17.8938   16.5009 C   0  0  0  0  0  0  0  0  0  0  0  0
   11.1219  -17.6466   15.4630 O   0  0  0  0  0  0  0  0  0  0  0  0
   11.0934  -17.9580   17.8049 C   0  0  0  0  0  0  0  0  0  0  0  0
   11.9405  -18.3302   18.9615 C   0  0  0  0  0  0  0  0  0  0  0  0
   11.2965  -18.3818   20.2981 C   0  0  2  0  0  0  0  0  0  0  0  0
   10.6208  -19.6089   20.6174 N   0  0  0  0  0  0  0  0  0  0  0  0
   10.3967  -17.2014   20.5341 C   0  0  0  0  0  0  0  0  0  0  0  0
   10.8059  -16.0641   20.1816 O   0  0  0  0  0  0  0  0  0  0  0  0
    9.1361  -17.3558   21.1296 N   0  0  0  0  0  0  0  0  0  0  0  0
    8.2518  -16.2172   21.3684 C   0  0  1  0  0  0  0  0  0  0  0  0
    6.8224  -16.6828   21.1261 C   0  0  0  0  0  0  0  0  0  0  0  0
    6.4724  -17.9835   22.3636 S   0  0  0  0  0  0  0  0  0  0  0  0
    8.3653  -15.8195   22.7999 C   0  0  0  0  0  0  0  0  0  0  0  0
    9.1816  -16.4343   23.5670 O   0  0  0  0  0  0  0  0  0  0  0  0
    8.1573  -12.0969   26.9799 C   0  0  0  0  0  0  0  0  0  0  0  0
    6.8818  -12.7290   26.5143 C   0  0  1  0  0  0  0  0  0  0  0  0
    5.7126  -11.8474   26.9065 C   0  0  0  0  0  0  0  0  0  0  0  0
    6.8395  -13.1919   25.1178 C   0  0  0  0  0  0  0  0  0  0  0  0
    7.6460  -14.3733   24.7303 C   0  0  2  0  0  0  0  0  0  0  0  0
    7.5905  -14.7667   23.3579 N   0  0  0  0  0  0  0  0  0  0  0  0
    7.4920  -15.5200   25.6625 C   0  0  0  0  0  0  0  0  0  0  0  0
    8.4824  -15.8025   26.5806 O   0  0  0  0  0  0  0  0  0  0  0  0
    6.4768  -16.2128   25.6087 O   0  0  0  0  0  0  0  0  0  0  0  0
  1  2  1  0
  2  4  1  0
  3  2  2  0
  4  5  1  0
  6  7  1  6
  6  5  1  0
  8  6  1  0
  8  9  2  0
 10  8  1  0
 11 10  1  0
 11 14  1  0
 12 13  1  0
 11 12  1  1
 14 15  2  0
 14 21  1  0
 17 16  1  6
 17 18  1  0
 19 17  1  0
 20 19  1  1
 21 20  1  0
 22 23  1  0
 22 20  1  0
 24 22  2  0
M  END
$$$$
