QCL.pdb
     RDKit          3D

 24 23  0  0  1  0  0  0  0  0999 V2000
   14.6754  -19.9298   22.9153 N   0  0  0  0  0  0  0  0  0  0  0  0
   13.6904  -19.5910   21.9531 C   0  0  0  0  0  0  0  0  0  0  0  0
   13.9847  -18.7946   21.0477 O   0  0  0  0  0  0  0  0  0  0  0  0
   12.3558  -20.1859   22.0444 C   0  0  0  0  0  0  0  0  0  0  0  0
   11.2921  -19.3409   22.6346 C   0  0  0  0  0  0  0  0  0  0  0  0
   10.1271  -19.0029   21.7788 C   0  0  2  0  0  0  0  0  0  0  0  0
   10.1590  -19.5344   20.4444 N   0  0  0  0  0  0  0  0  0  0  0  0
    9.8562  -17.5248   21.7571 C   0  0  0  0  0  0  0  0  0  0  0  0
   10.7776  -16.7587   21.3709 O   0  0  0  0  0  0  0  0  0  0  0  0
    8.6144  -17.0075   22.1544 N   0  0  0  0  0  0  0  0  0  0  0  0
    8.3261  -15.5756   22.1101 C   0  0  1  0  0  0  0  0  0  0  0  0
    6.8572  -15.4105   21.7441 C   0  0  0  0  0  0  0  0  0  0  0  0
    6.4496  -13.6423   21.9749 S   0  0  0  0  0  0  0  0  0  0  0  0
    8.5225  -15.0089   23.4742 C   0  0  0  0  0  0  0  0  0  0  0  0
    8.4284  -13.7478   23.6576 O   0  0  0  0  0  0  0  0  0  0  0  0
    6.1748  -12.6229   26.0414 C   0  0  0  0  0  0  0  0  0  0  0  0
    7.5630  -13.1799   25.9644 C   0  0  1  0  0  0  0  0  0  0  0  0
    8.5381  -12.1803   26.5542 C   0  0  0  0  0  0  0  0  0  0  0  0
    7.7549  -14.5576   26.4456 C   0  0  0  0  0  0  0  0  0  0  0  0
    8.9081  -15.3388   25.9394 C   0  0  2  0  0  0  0  0  0  0  0  0
    8.8153  -15.8261   24.5996 N   0  0  0  0  0  0  0  0  0  0  0  0
    9.3799  -16.3740   26.8951 C   0  0  0  0  0  0  0  0  0  0  0  0
    9.6228  -17.6597   26.4575 O   0  0  0  0  0  0  0  0  0  0  0  0
    9.5514  -16.0755   28.0763 O   0  0  0  0  0  0  0  0  0  0  0  0
  1  2  1  0
  2  4  1  0
  3  2  2  0
  4  5  1  0
  6  7  1  6
  6  5  1  0
  8  6  1  0
  8  9  2  0
 10  8  1  0
 11 10  1  0
 11 14  1  0
 12 13  1  0
 11 12  1  1
 14 15  2  0
 14 21  1  0
 17 16  1  1
 17 18  1  0
 19 17  1  0
 20 19  1  1
 21 20  1  0
 22 23  1  0
 22 20  1  0
 24 22  2  0
M  END
$$$$
