QCL.pdb
     RDKit          3D

 24 23  0  0  1  0  0  0  0  0999 V2000
    8.7668  -12.7479   16.7548 N   0  0  0  0  0  0  0  0  0  0  0  0
    8.1349  -14.0117   16.6353 C   0  0  0  0  0  0  0  0  0  0  0  0
    8.3223  -14.6817   15.6074 O   0  0  0  0  0  0  0  0  0  0  0  0
    7.2822  -14.4991   17.7210 C   0  0  0  0  0  0  0  0  0  0  0  0
    7.7461  -14.2280   19.1012 C   0  0  0  0  0  0  0  0  0  0  0  0
    8.3477  -15.3538   19.8590 C   0  0  2  0  0  0  0  0  0  0  0  0
    8.4347  -16.6032   19.1549 N   0  0  0  0  0  0  0  0  0  0  0  0
    7.6937  -15.5420   21.1990 C   0  0  0  0  0  0  0  0  0  0  0  0
    6.6647  -14.8641   21.4571 O   0  0  0  0  0  0  0  0  0  0  0  0
    8.2102  -16.4456   22.1395 N   0  0  0  0  0  0  0  0  0  0  0  0
    7.5427  -16.6959   23.4151 C   0  0  1  0  0  0  0  0  0  0  0  0
    7.6412  -18.1878   23.7039 C   0  0  0  0  0  0  0  0  0  0  0  0
    6.8871  -18.4596   25.3481 S   0  0  0  0  0  0  0  0  0  0  0  0
    8.2827  -15.9740   24.4883 C   0  0  0  0  0  0  0  0  0  0  0  0
    9.5600  -16.0037   24.5092 O   0  0  0  0  0  0  0  0  0  0  0  0
    5.6910  -11.6898   27.0684 C   0  0  0  0  0  0  0  0  0  0  0  0
    6.6959  -12.5442   26.3588 C   0  0  1  0  0  0  0  0  0  0  0  0
    7.4881  -11.6878   25.3908 C   0  0  0  0  0  0  0  0  0  0  0  0
    7.5264  -13.4272   27.1935 C   0  0  0  0  0  0  0  0  0  0  0  0
    8.2866  -14.5207   26.5432 C   0  0  2  0  0  0  0  0  0  0  0  0
    7.6162  -15.2411   25.5074 N   0  0  0  0  0  0  0  0  0  0  0  0
    8.9733  -15.4141   27.5116 C   0  0  0  0  0  0  0  0  0  0  0  0
    9.8871  -14.8935   28.4047 O   0  0  0  0  0  0  0  0  0  0  0  0
    8.7206  -16.6181   27.5101 O   0  0  0  0  0  0  0  0  0  0  0  0
  1  2  1  0
  2  4  1  0
  3  2  2  0
  4  5  1  0
  6  7  1  6
  6  5  1  0
  8  6  1  0
  8  9  2  0
 10  8  1  0
 11 10  1  0
 11 14  1  0
 12 13  1  0
 11 12  1  1
 14 15  2  0
 14 21  1  0
 17 16  1  1
 17 18  1  0
 19 17  1  0
 20 19  1  1
 21 20  1  0
 22 23  1  0
 22 20  1  0
 24 22  2  0
M  END
$$$$
