QCL.pdb
     RDKit          3D

 24 23  0  0  1  0  0  0  0  0999 V2000
    9.3509  -17.4357   17.4396 N   0  0  0  0  0  0  0  0  0  0  0  0
    8.0948  -17.9372   17.8657 C   0  0  0  0  0  0  0  0  0  0  0  0
    7.2650  -18.2834   17.0099 O   0  0  0  0  0  0  0  0  0  0  0  0
    7.8049  -18.0390   19.2971 C   0  0  0  0  0  0  0  0  0  0  0  0
    8.8469  -17.5365   20.2221 C   0  0  0  0  0  0  0  0  0  0  0  0
    8.5505  -17.5697   21.6763 C   0  0  2  0  0  0  0  0  0  0  0  0
    7.3192  -18.2105   22.0471 N   0  0  0  0  0  0  0  0  0  0  0  0
    8.6507  -16.2065   22.3012 C   0  0  0  0  0  0  0  0  0  0  0  0
    9.6228  -15.4754   21.9765 O   0  0  0  0  0  0  0  0  0  0  0  0
    7.6917  -15.7560   23.2205 N   0  0  0  0  0  0  0  0  0  0  0  0
    7.7424  -14.4114   23.7905 C   0  0  1  0  0  0  0  0  0  0  0  0
    6.3614  -14.0925   24.3471 C   0  0  0  0  0  0  0  0  0  0  0  0
    6.5447  -12.6076   25.3994 S   0  0  0  0  0  0  0  0  0  0  0  0
    8.7035  -14.4139   24.9293 C   0  0  0  0  0  0  0  0  0  0  0  0
    8.9910  -13.3179   25.5199 O   0  0  0  0  0  0  0  0  0  0  0  0
   11.8046  -14.0745   28.7896 C   0  0  0  0  0  0  0  0  0  0  0  0
   10.5786  -14.9217   28.9382 C   0  0  1  0  0  0  0  0  0  0  0  0
    9.8729  -14.5607   30.2304 C   0  0  0  0  0  0  0  0  0  0  0  0
    9.6841  -15.0083   27.7726 C   0  0  0  0  0  0  0  0  0  0  0  0
   10.1760  -15.6678   26.5399 C   0  0  2  0  0  0  0  0  0  0  0  0
    9.3246  -15.6047   25.3943 N   0  0  0  0  0  0  0  0  0  0  0  0
   10.7152  -17.0314   26.7797 C   0  0  0  0  0  0  0  0  0  0  0  0
   12.0733  -17.2210   26.9318 O   0  0  0  0  0  0  0  0  0  0  0  0
    9.9424  -17.9867   26.8411 O   0  0  0  0  0  0  0  0  0  0  0  0
  1  2  1  0
  2  4  1  0
  3  2  2  0
  4  5  1  0
  6  7  1  6
  6  5  1  0
  8  6  1  0
  8  9  2  0
 10  8  1  0
 11 10  1  0
 11 14  1  0
 12 13  1  0
 11 12  1  1
 14 15  2  0
 14 21  1  0
 17 16  1  6
 17 18  1  0
 19 17  1  0
 20 19  1  1
 21 20  1  0
 22 23  1  0
 22 20  1  0
 24 22  2  0
M  END
$$$$
