QCL.pdb
     RDKit          3D

 24 23  0  0  1  0  0  0  0  0999 V2000
    9.0530  -12.5461   17.0904 N   0  0  0  0  0  0  0  0  0  0  0  0
    8.2034  -13.6638   16.8906 C   0  0  0  0  0  0  0  0  0  0  0  0
    7.5702  -13.7539   15.8269 O   0  0  0  0  0  0  0  0  0  0  0  0
    8.0935  -14.6840   17.9348 C   0  0  0  0  0  0  0  0  0  0  0  0
    8.9064  -14.4744   19.1550 C   0  0  0  0  0  0  0  0  0  0  0  0
    8.8673  -15.5299   20.1982 C   0  0  2  0  0  0  0  0  0  0  0  0
    8.0676  -16.6827   19.8887 N   0  0  0  0  0  0  0  0  0  0  0  0
    8.5017  -14.9743   21.5460 C   0  0  0  0  0  0  0  0  0  0  0  0
    7.9160  -13.8607   21.5893 O   0  0  0  0  0  0  0  0  0  0  0  0
    8.8018  -15.6717   22.7254 N   0  0  0  0  0  0  0  0  0  0  0  0
    8.3528  -15.2017   24.0342 C   0  0  1  0  0  0  0  0  0  0  0  0
    6.8396  -15.3626   24.0896 C   0  0  0  0  0  0  0  0  0  0  0  0
    6.2990  -14.7283   25.7178 S   0  0  0  0  0  0  0  0  0  0  0  0
    8.9435  -16.0803   25.0829 C   0  0  0  0  0  0  0  0  0  0  0  0
    8.3924  -17.1999   25.3575 O   0  0  0  0  0  0  0  0  0  0  0  0
    8.8705  -13.0006   29.0262 C   0  0  0  0  0  0  0  0  0  0  0  0
    9.7032  -13.7830   28.0580 C   0  0  1  0  0  0  0  0  0  0  0  0
   11.0952  -13.1860   27.9967 C   0  0  0  0  0  0  0  0  0  0  0  0
    9.6867  -15.2481   28.1982 C   0  0  0  0  0  0  0  0  0  0  0  0
   10.3564  -16.0739   27.1658 C   0  0  2  0  0  0  0  0  0  0  0  0
   10.1143  -15.7191   25.8031 N   0  0  0  0  0  0  0  0  0  0  0  0
   10.2297  -17.5340   27.4098 C   0  0  0  0  0  0  0  0  0  0  0  0
   11.0132  -18.1456   28.3668 O   0  0  0  0  0  0  0  0  0  0  0  0
    9.4227  -18.1906   26.7531 O   0  0  0  0  0  0  0  0  0  0  0  0
  1  2  1  0
  2  4  1  0
  3  2  2  0
  4  5  1  0
  6  7  1  6
  6  5  1  0
  8  6  1  0
  8  9  2  0
 10  8  1  0
 11 10  1  0
 11 14  1  0
 12 13  1  0
 11 12  1  6
 14 15  2  0
 14 21  1  0
 17 16  1  1
 17 18  1  0
 19 17  1  0
 20 19  1  1
 21 20  1  0
 22 23  1  0
 22 20  1  0
 24 22  2  0
M  END
$$$$
