RCH.pdb
     RDKit          3D

 28 28  0  0  1  0  0  0  0  0999 V2000
   13.4586  -14.9101  -16.3781 N   0  0  0  0  0  0  0  0  0  0  0  0
   14.3686  -15.9782  -16.4872 C   0  0  0  0  0  0  0  0  0  0  0  0
   14.0222  -17.2198  -16.3492 N   0  0  0  0  0  0  0  0  0  0  0  0
   15.7212  -15.6776  -16.7599 N   0  0  0  0  0  0  0  0  0  0  0  0
   16.0865  -14.2796  -17.0287 C   0  0  0  0  0  0  0  0  0  0  0  0
   17.5440  -14.2168  -17.3668 C   0  0  0  0  0  0  0  0  0  0  0  0
   17.9955  -12.8779  -17.8209 C   0  0  0  0  0  0  0  0  0  0  0  0
   19.4315  -12.7308  -18.1979 C   0  0  2  0  0  0  0  0  0  0  0  0
   20.1328  -13.9637  -18.2777 N   0  0  0  0  0  0  0  0  0  0  0  0
   20.0657  -11.8074  -17.1987 C   0  0  0  0  0  0  0  0  0  0  0  0
   20.5414  -12.3489  -16.1674 O   0  0  0  0  0  0  0  0  0  0  0  0
   14.7197  -17.9871  -16.4476 N   0  0  0  0  0  0  0  0  0  0  0  0
   20.1127  -10.4092  -17.4282 C   0  0  1  0  0  0  0  0  0  0  0  0
   20.6931   -9.5562  -16.4336 C   0  0  0  0  0  0  0  0  0  0  0  0
   22.0056   -8.9894  -16.9285 S   0  0  0  0  0  0  0  0  0  0  0  0
   22.7824   -7.8800  -15.7468 C   0  0  0  0  0  0  0  0  0  0  0  0
   19.7661   -8.4819  -15.9960 O   0  0  0  0  0  0  0  0  0  0  0  0
   19.0392   -7.9110  -16.8510 N   0  0  0  0  0  0  0  0  0  0  0  0
   19.6429   -8.0509  -14.6661 C   0  0  1  0  0  0  0  0  0  0  0  0
   18.7707   -7.0530  -14.1548 C   0  0  0  0  0  0  0  0  0  0  0  0
   18.4305   -7.1103  -12.7139 C   0  0  0  0  0  0  0  0  0  0  0  0
   17.5707   -8.2361  -12.2935 C   0  0  0  0  0  0  0  0  0  0  0  0
   16.9975   -9.2395  -13.0272 N   0  0  0  0  0  0  0  0  0  0  0  0
   16.2885  -10.0346  -12.2112 C   0  0  0  0  0  0  0  0  0  0  0  0
   16.4107   -9.5416  -10.9778 N   0  0  0  0  0  0  0  0  0  0  0  0
   17.1815   -8.4567  -11.0136 C   0  0  0  0  0  0  0  0  0  0  0  0
   19.4618   -5.7237  -14.3477 O   0  0  0  0  0  0  0  0  0  0  0  0
   18.8059   -4.5320  -14.0780 O   0  0  0  0  0  0  0  0  0  0  0  0
  2  4  1  0
  2  1  1  0
  3  2  2  0
  5  6  1  0
  5  4  1  0
  7  6  1  0
  8  7  1  0
  8  9  1  1
 10 11  2  0
 10  8  1  0
 12 10  1  0
 13 12  1  0
 13 14  1  1
 15 14  1  0
 16 13  1  0
 16 18  1  0
 17 16  2  0
 19 18  1  0
 19 20  1  1
 20 21  1  0
 21 22  2  0
 21 25  1  0
 22 23  1  0
 23 24  1  0
 25 24  2  0
 26 19  1  0
 27 26  1  0
 28 26  2  0
M  END
$$$$
