RCH.pdb
     RDKit          3D

 28 28  0  0  1  0  0  0  0  0999 V2000
   27.9490  -21.0159  -11.7790 N   0  0  0  0  0  0  0  0  0  0  0  0
   26.8991  -20.8950  -10.8496 C   0  0  0  0  0  0  0  0  0  0  0  0
   27.0640  -20.4246   -9.6529 N   0  0  0  0  0  0  0  0  0  0  0  0
   25.6072  -21.3068  -11.2444 N   0  0  0  0  0  0  0  0  0  0  0  0
   25.0219  -20.7099  -12.4533 C   0  0  0  0  0  0  0  0  0  0  0  0
   23.6242  -21.2218  -12.6175 C   0  0  0  0  0  0  0  0  0  0  0  0
   22.9344  -20.7010  -13.8240 C   0  0  0  0  0  0  0  0  0  0  0  0
   23.7286  -20.6166  -15.0841 C   0  0  2  0  0  0  0  0  0  0  0  0
   24.8901  -21.4346  -15.0859 N   0  0  0  0  0  0  0  0  0  0  0  0
   24.0791  -19.1728  -15.2981 C   0  0  0  0  0  0  0  0  0  0  0  0
   23.3270  -18.3314  -14.7419 O   0  0  0  0  0  0  0  0  0  0  0  0
   26.2803  -20.4119   -8.9670 N   0  0  0  0  0  0  0  0  0  0  0  0
   25.1988  -18.8054  -16.0863 C   0  0  1  0  0  0  0  0  0  0  0  0
   25.4732  -17.4163  -16.3073 C   0  0  0  0  0  0  0  0  0  0  0  0
   26.7767  -17.0265  -15.6457 S   0  0  0  0  0  0  0  0  0  0  0  0
   26.5723  -16.5225  -13.9325 C   0  0  0  0  0  0  0  0  0  0  0  0
   25.4651  -17.0583  -17.7484 O   0  0  0  0  0  0  0  0  0  0  0  0
   26.1198  -17.7632  -18.5607 N   0  0  0  0  0  0  0  0  0  0  0  0
   24.7625  -15.9645  -18.2771 C   0  0  1  0  0  0  0  0  0  0  0  0
   24.6474  -15.5847  -19.6410 C   0  0  0  0  0  0  0  0  0  0  0  0
   23.2889  -15.3126  -20.1664 C   0  0  0  0  0  0  0  0  0  0  0  0
   22.3804  -16.4747  -20.2517 C   0  0  0  0  0  0  0  0  0  0  0  0
   22.6534  -17.8081  -20.3983 N   0  0  0  0  0  0  0  0  0  0  0  0
   21.5007  -18.4941  -20.4351 C   0  0  0  0  0  0  0  0  0  0  0  0
   20.5113  -17.6078  -20.3138 N   0  0  0  0  0  0  0  0  0  0  0  0
   21.0284  -16.3860  -20.2024 C   0  0  0  0  0  0  0  0  0  0  0  0
   25.4033  -14.2867  -19.8017 O   0  0  0  0  0  0  0  0  0  0  0  0
   25.8964  -13.6063  -18.6986 O   0  0  0  0  0  0  0  0  0  0  0  0
  2  4  1  0
  2  1  1  0
  3  2  2  0
  5  6  1  0
  5  4  1  0
  7  6  1  0
  8  7  1  0
  8  9  1  1
 10 11  2  0
 10  8  1  0
 12 10  1  0
 13 12  1  0
 13 14  1  1
 15 14  1  0
 16 13  1  0
 16 18  1  0
 17 16  2  0
 19 18  1  0
 19 20  1  6
 20 21  1  0
 21 22  2  0
 21 25  1  0
 22 23  1  0
 23 24  1  0
 25 24  2  0
 26 19  1  0
 27 26  1  0
 28 26  2  0
M  END
$$$$
