RCH.pdb
     RDKit          3D

 28 28  0  0  1  0  0  0  0  0999 V2000
   21.2371  -22.1126   -8.9628 N   0  0  0  0  0  0  0  0  0  0  0  0
   21.8647  -22.0045   -7.7078 C   0  0  0  0  0  0  0  0  0  0  0  0
   21.2820  -22.3254   -6.5952 N   0  0  0  0  0  0  0  0  0  0  0  0
   23.1917  -21.5232   -7.6643 N   0  0  0  0  0  0  0  0  0  0  0  0
   23.8223  -21.0961   -8.9213 C   0  0  0  0  0  0  0  0  0  0  0  0
   25.3067  -21.2481   -8.7940 C   0  0  0  0  0  0  0  0  0  0  0  0
   26.0595  -20.7887   -9.9876 C   0  0  0  0  0  0  0  0  0  0  0  0
   25.4284  -21.0079  -11.3216 C   0  0  2  0  0  0  0  0  0  0  0  0
   25.5836  -22.3295  -11.8193 N   0  0  0  0  0  0  0  0  0  0  0  0
   26.0129  -19.9983  -12.2662 C   0  0  0  0  0  0  0  0  0  0  0  0
   26.0431  -18.8088  -11.8571 O   0  0  0  0  0  0  0  0  0  0  0  0
   21.7680  -22.2120   -5.6810 N   0  0  0  0  0  0  0  0  0  0  0  0
   26.4960  -20.3890  -13.5405 C   0  0  1  0  0  0  0  0  0  0  0  0
   27.1119  -19.4092  -14.3857 C   0  0  0  0  0  0  0  0  0  0  0  0
   28.0304  -20.0792  -15.3839 S   0  0  0  0  0  0  0  0  0  0  0  0
   29.0782  -21.3366  -14.6412 C   0  0  0  0  0  0  0  0  0  0  0  0
   26.1182  -18.5360  -15.0602 O   0  0  0  0  0  0  0  0  0  0  0  0
   25.1649  -19.0631  -15.6916 N   0  0  0  0  0  0  0  0  0  0  0  0
   26.1709  -17.1337  -15.0410 C   0  0  1  0  0  0  0  0  0  0  0  0
   25.2253  -16.2225  -15.5828 C   0  0  0  0  0  0  0  0  0  0  0  0
   25.2220  -14.8391  -15.0523 C   0  0  0  0  0  0  0  0  0  0  0  0
   24.3196  -13.8853  -15.7302 C   0  0  0  0  0  0  0  0  0  0  0  0
   23.4444  -14.0719  -16.7661 N   0  0  0  0  0  0  0  0  0  0  0  0
   22.8428  -12.9070  -17.0521 C   0  0  0  0  0  0  0  0  0  0  0  0
   23.3303  -11.9952  -16.2094 N   0  0  0  0  0  0  0  0  0  0  0  0
   24.2220  -12.5723  -15.4068 C   0  0  0  0  0  0  0  0  0  0  0  0
   25.5405  -16.0838  -17.0536 O   0  0  0  0  0  0  0  0  0  0  0  0
   24.5287  -16.0598  -18.0015 O   0  0  0  0  0  0  0  0  0  0  0  0
  2  4  1  0
  2  1  1  0
  3  2  2  0
  5  6  1  0
  5  4  1  0
  7  6  1  0
  8  7  1  0
  8  9  1  6
 10 11  2  0
 10  8  1  0
 12 10  1  0
 13 12  1  0
 13 14  1  1
 15 14  1  0
 16 13  1  0
 16 18  1  0
 17 16  2  0
 19 18  1  0
 19 20  1  6
 20 21  1  0
 21 22  2  0
 21 25  1  0
 22 23  1  0
 23 24  1  0
 25 24  2  0
 26 19  1  0
 27 26  1  0
 28 26  2  0
M  END
$$$$
