RCH.pdb
     RDKit          3D

 28 28  0  0  1  0  0  0  0  0999 V2000
   31.0902  -29.5881  -20.1567 N   0  0  0  0  0  0  0  0  0  0  0  0
   32.1889  -29.0966  -19.4274 C   0  0  0  0  0  0  0  0  0  0  0  0
   33.4142  -29.4379  -19.6778 N   0  0  0  0  0  0  0  0  0  0  0  0
   31.9392  -28.1892  -18.3745 N   0  0  0  0  0  0  0  0  0  0  0  0
   30.5524  -27.7701  -18.1265 C   0  0  0  0  0  0  0  0  0  0  0  0
   30.5358  -26.8070  -16.9799 C   0  0  0  0  0  0  0  0  0  0  0  0
   29.1873  -26.2706  -16.6689 C   0  0  0  0  0  0  0  0  0  0  0  0
   28.5253  -25.4347  -17.7124 C   0  0  2  0  0  0  0  0  0  0  0  0
   29.0217  -24.1055  -17.7825 N   0  0  0  0  0  0  0  0  0  0  0  0
   27.0508  -25.4512  -17.4321 C   0  0  0  0  0  0  0  0  0  0  0  0
   26.6551  -24.7030  -16.5011 O   0  0  0  0  0  0  0  0  0  0  0  0
   34.2014  -29.0823  -19.0959 N   0  0  0  0  0  0  0  0  0  0  0  0
   26.1760  -26.2718  -18.1878 C   0  0  2  0  0  0  0  0  0  0  0  0
   24.7634  -26.1800  -17.9646 C   0  0  0  0  0  0  0  0  0  0  0  0
   24.0971  -25.4478  -19.1086 S   0  0  0  0  0  0  0  0  0  0  0  0
   24.5112  -23.6995  -19.1603 C   0  0  0  0  0  0  0  0  0  0  0  0
   24.1385  -27.5063  -17.7289 O   0  0  0  0  0  0  0  0  0  0  0  0
   24.6455  -28.5282  -18.2617 N   0  0  0  0  0  0  0  0  0  0  0  0
   22.9971  -27.7017  -16.9360 C   0  0  1  0  0  0  0  0  0  0  0  0
   22.3003  -28.9175  -16.7033 C   0  0  0  0  0  0  0  0  0  0  0  0
   21.1800  -28.8928  -15.7338 C   0  0  0  0  0  0  0  0  0  0  0  0
   20.4724  -30.1732  -15.5258 C   0  0  0  0  0  0  0  0  0  0  0  0
   20.7170  -31.4181  -16.0397 N   0  0  0  0  0  0  0  0  0  0  0  0
   19.7990  -32.2779  -15.5720 C   0  0  0  0  0  0  0  0  0  0  0  0
   18.9841  -31.5872  -14.7731 N   0  0  0  0  0  0  0  0  0  0  0  0
   19.3793  -30.3164  -14.7367 C   0  0  0  0  0  0  0  0  0  0  0  0
   21.6795  -29.3276  -18.0179 O   0  0  0  0  0  0  0  0  0  0  0  0
   21.5184  -28.4129  -19.0476 O   0  0  0  0  0  0  0  0  0  0  0  0
  2  4  1  0
  2  1  1  0
  3  2  2  0
  5  6  1  0
  5  4  1  0
  7  6  1  0
  8  7  1  0
  8  9  1  1
 10 11  2  0
 10  8  1  0
 12 10  1  0
 13 12  1  0
 13 14  1  1
 15 14  1  0
 16 13  1  0
 16 18  1  0
 17 16  2  0
 19 18  1  0
 19 20  1  6
 20 21  1  0
 21 22  2  0
 21 25  1  0
 22 23  1  0
 23 24  1  0
 25 24  2  0
 26 19  1  0
 27 26  1  0
 28 26  2  0
M  END
$$$$
