RCH.pdb
     RDKit          3D

 28 28  0  0  1  0  0  0  0  0999 V2000
   17.7809  -22.8105  -13.2058 N   0  0  0  0  0  0  0  0  0  0  0  0
   18.0727  -24.0209  -13.8619 C   0  0  0  0  0  0  0  0  0  0  0  0
   17.1608  -24.7822  -14.3809 N   0  0  0  0  0  0  0  0  0  0  0  0
   19.4240  -24.4201  -13.9564 N   0  0  0  0  0  0  0  0  0  0  0  0
   20.4510  -23.5611  -13.3501 C   0  0  0  0  0  0  0  0  0  0  0  0
   21.1282  -22.7787  -14.4327 C   0  0  0  0  0  0  0  0  0  0  0  0
   22.2041  -21.8831  -13.9398 C   0  0  0  0  0  0  0  0  0  0  0  0
   22.0148  -21.2593  -12.5978 C   0  0  2  0  0  0  0  0  0  0  0  0
   20.8614  -20.4349  -12.5061 N   0  0  0  0  0  0  0  0  0  0  0  0
   23.2625  -20.4871  -12.2816 C   0  0  0  0  0  0  0  0  0  0  0  0
   23.4528  -19.4413  -12.9548 O   0  0  0  0  0  0  0  0  0  0  0  0
   17.4076  -25.6918  -14.8243 N   0  0  0  0  0  0  0  0  0  0  0  0
   24.1584  -20.9325  -11.2772 C   0  0  2  0  0  0  0  0  0  0  0  0
   25.4169  -20.2660  -11.1168 C   0  0  0  0  0  0  0  0  0  0  0  0
   25.8155  -20.2400   -9.6575 S   0  0  0  0  0  0  0  0  0  0  0  0
   24.4322  -20.5250   -8.5459 C   0  0  0  0  0  0  0  0  0  0  0  0
   26.4844  -20.8574  -11.9628 O   0  0  0  0  0  0  0  0  0  0  0  0
   26.6947  -22.0977  -11.9096 N   0  0  0  0  0  0  0  0  0  0  0  0
   27.2916  -20.1118  -12.8358 C   0  0  1  0  0  0  0  0  0  0  0  0
   27.9174  -20.5560  -14.0311 C   0  0  0  0  0  0  0  0  0  0  0  0
   27.5100  -21.8741  -14.5714 C   0  0  0  0  0  0  0  0  0  0  0  0
   28.1817  -22.3020  -15.8161 C   0  0  0  0  0  0  0  0  0  0  0  0
   29.4396  -22.0345  -16.2850 N   0  0  0  0  0  0  0  0  0  0  0  0
   29.6054  -22.6346  -17.4737 C   0  0  0  0  0  0  0  0  0  0  0  0
   28.4684  -23.2732  -17.7540 N   0  0  0  0  0  0  0  0  0  0  0  0
   27.6014  -23.0806  -16.7623 C   0  0  0  0  0  0  0  0  0  0  0  0
   27.5652  -19.5582  -15.1092 O   0  0  0  0  0  0  0  0  0  0  0  0
   28.5493  -18.9840  -15.8998 O   0  0  0  0  0  0  0  0  0  0  0  0
  2  4  1  0
  2  1  1  0
  3  2  2  0
  5  6  1  0
  5  4  1  0
  7  6  1  0
  8  7  1  0
  8  9  1  6
 10 11  2  0
 10  8  1  0
 12 10  1  0
 13 12  1  0
 13 14  1  6
 15 14  1  0
 16 13  1  0
 16 18  1  0
 17 16  2  0
 19 18  1  0
 19 20  1  1
 20 21  1  0
 21 22  2  0
 21 25  1  0
 22 23  1  0
 23 24  1  0
 25 24  2  0
 26 19  1  0
 27 26  1  0
 28 26  2  0
M  END
$$$$
