RCH.pdb
     RDKit          3D

 28 28  0  0  1  0  0  0  0  0999 V2000
   30.1680  -22.0850  -18.5851 N   0  0  0  0  0  0  0  0  0  0  0  0
   29.8554  -21.0208  -19.4512 C   0  0  0  0  0  0  0  0  0  0  0  0
   30.3877  -20.8840  -20.6252 N   0  0  0  0  0  0  0  0  0  0  0  0
   28.9169  -20.0594  -19.0158 N   0  0  0  0  0  0  0  0  0  0  0  0
   28.3556  -20.1923  -17.6640 C   0  0  0  0  0  0  0  0  0  0  0  0
   27.6950  -21.5309  -17.5438 C   0  0  0  0  0  0  0  0  0  0  0  0
   26.6305  -21.5819  -16.5109 C   0  0  0  0  0  0  0  0  0  0  0  0
   26.8473  -20.7916  -15.2642 C   0  0  2  0  0  0  0  0  0  0  0  0
   28.0913  -21.0517  -14.6294 N   0  0  0  0  0  0  0  0  0  0  0  0
   25.6962  -21.0788  -14.3446 C   0  0  0  0  0  0  0  0  0  0  0  0
   24.5511  -21.0535  -14.8652 O   0  0  0  0  0  0  0  0  0  0  0  0
   30.1296  -20.0865  -21.2435 N   0  0  0  0  0  0  0  0  0  0  0  0
   25.9144  -21.3595  -12.9722 C   0  0  2  0  0  0  0  0  0  0  0  0
   24.7865  -21.5623  -12.1117 C   0  0  0  0  0  0  0  0  0  0  0  0
   25.2481  -21.8901  -10.7088 S   0  0  0  0  0  0  0  0  0  0  0  0
   26.4055  -20.6832  -10.0496 C   0  0  0  0  0  0  0  0  0  0  0  0
   23.8502  -20.4098  -12.1220 O   0  0  0  0  0  0  0  0  0  0  0  0
   24.3128  -19.2426  -12.2165 N   0  0  0  0  0  0  0  0  0  0  0  0
   22.4554  -20.5362  -12.0315 C   0  0  1  0  0  0  0  0  0  0  0  0
   21.4692  -19.7769  -12.7161 C   0  0  0  0  0  0  0  0  0  0  0  0
   21.7557  -19.3798  -14.1145 C   0  0  0  0  0  0  0  0  0  0  0  0
   20.7015  -18.6022  -14.7982 C   0  0  0  0  0  0  0  0  0  0  0  0
   19.4680  -18.2005  -14.3612 N   0  0  0  0  0  0  0  0  0  0  0  0
   18.8524  -17.5194  -15.3399 C   0  0  0  0  0  0  0  0  0  0  0  0
   19.6841  -17.4902  -16.3823 N   0  0  0  0  0  0  0  0  0  0  0  0
   20.8031  -18.1399  -16.0686 C   0  0  0  0  0  0  0  0  0  0  0  0
   20.2281  -20.6345  -12.7925 O   0  0  0  0  0  0  0  0  0  0  0  0
   18.9872  -20.0731  -13.0536 O   0  0  0  0  0  0  0  0  0  0  0  0
  2  4  1  0
  2  1  1  0
  3  2  2  0
  5  6  1  0
  5  4  1  0
  7  6  1  0
  8  7  1  0
  8  9  1  1
 10 11  2  0
 10  8  1  0
 12 10  1  0
 13 12  1  0
 13 14  1  1
 15 14  1  0
 16 13  1  0
 16 18  1  0
 17 16  2  0
 19 18  1  0
 19 20  1  1
 20 21  1  0
 21 22  2  0
 21 25  1  0
 22 23  1  0
 23 24  1  0
 25 24  2  0
 26 19  1  0
 27 26  1  0
 28 26  2  0
M  END
$$$$
