RCH.pdb
     RDKit          3D

 28 28  0  0  1  0  0  0  0  0999 V2000
   16.1469  -14.9869  -15.0491 N   0  0  0  0  0  0  0  0  0  0  0  0
   16.7326  -16.0818  -15.7115 C   0  0  0  0  0  0  0  0  0  0  0  0
   16.0693  -17.1445  -16.0450 N   0  0  0  0  0  0  0  0  0  0  0  0
   18.1079  -16.0143  -16.0253 N   0  0  0  0  0  0  0  0  0  0  0  0
   18.8144  -14.7449  -15.8029 C   0  0  0  0  0  0  0  0  0  0  0  0
   18.7012  -13.9054  -17.0379 C   0  0  0  0  0  0  0  0  0  0  0  0
   19.2578  -12.5381  -16.8847 C   0  0  0  0  0  0  0  0  0  0  0  0
   20.6850  -12.3328  -17.2679 C   0  0  2  0  0  0  0  0  0  0  0  0
   21.4405  -13.5342  -17.3309 N   0  0  0  0  0  0  0  0  0  0  0  0
   21.2794  -11.3668  -16.2846 C   0  0  0  0  0  0  0  0  0  0  0  0
   20.8651  -11.4564  -15.0999 O   0  0  0  0  0  0  0  0  0  0  0  0
   16.5257  -17.9222  -16.5663 N   0  0  0  0  0  0  0  0  0  0  0  0
   22.2502  -10.4180  -16.6934 C   0  0  1  0  0  0  0  0  0  0  0  0
   22.7683   -9.4890  -15.7330 C   0  0  0  0  0  0  0  0  0  0  0  0
   24.2781   -9.5717  -15.6834 S   0  0  0  0  0  0  0  0  0  0  0  0
   24.8758  -11.1513  -15.0685 C   0  0  0  0  0  0  0  0  0  0  0  0
   22.3064   -8.0996  -15.9806 O   0  0  0  0  0  0  0  0  0  0  0  0
   22.3202   -7.6474  -17.1556 N   0  0  0  0  0  0  0  0  0  0  0  0
   21.8460   -7.2386  -14.9725 C   0  0  1  0  0  0  0  0  0  0  0  0
   21.3889   -5.9013  -15.1157 C   0  0  0  0  0  0  0  0  0  0  0  0
   19.9616   -5.6282  -14.8268 C   0  0  0  0  0  0  0  0  0  0  0  0
   18.9833   -6.2366  -15.7522 C   0  0  0  0  0  0  0  0  0  0  0  0
   18.7162   -5.9666  -17.0673 N   0  0  0  0  0  0  0  0  0  0  0  0
   17.7316   -6.7728  -17.4932 C   0  0  0  0  0  0  0  0  0  0  0  0
   17.3798   -7.5426  -16.4622 N   0  0  0  0  0  0  0  0  0  0  0  0
   18.1271   -7.2292  -15.4059 C   0  0  0  0  0  0  0  0  0  0  0  0
   22.1626   -5.0634  -14.1252 O   0  0  0  0  0  0  0  0  0  0  0  0
   22.1402   -3.6784  -14.1905 O   0  0  0  0  0  0  0  0  0  0  0  0
  2  4  1  0
  2  1  1  0
  3  2  2  0
  5  6  1  0
  5  4  1  0
  7  6  1  0
  8  7  1  0
  8  9  1  1
 10 11  2  0
 10  8  1  0
 12 10  1  0
 13 12  1  0
 13 14  1  1
 15 14  1  0
 16 13  1  0
 16 18  1  0
 17 16  2  0
 19 18  1  0
 19 20  1  6
 20 21  1  0
 21 22  2  0
 21 25  1  0
 22 23  1  0
 23 24  1  0
 25 24  2  0
 26 19  1  0
 27 26  1  0
 28 26  2  0
M  END
$$$$
