RCH.pdb
     RDKit          3D

 28 28  0  0  1  0  0  0  0  0999 V2000
   29.0658  -24.3073  -17.3466 N   0  0  0  0  0  0  0  0  0  0  0  0
   30.1761  -23.4435  -17.3892 C   0  0  0  0  0  0  0  0  0  0  0  0
   31.3573  -23.7887  -16.9818 N   0  0  0  0  0  0  0  0  0  0  0  0
   29.9889  -22.1405  -17.9007 N   0  0  0  0  0  0  0  0  0  0  0  0
   28.6844  -21.4927  -17.7038 C   0  0  0  0  0  0  0  0  0  0  0  0
   28.6605  -20.8548  -16.3491 C   0  0  0  0  0  0  0  0  0  0  0  0
   27.4308  -20.0687  -16.0798 C   0  0  0  0  0  0  0  0  0  0  0  0
   26.2383  -20.8126  -15.5795 C   0  0  2  0  0  0  0  0  0  0  0  0
   25.7241  -21.7606  -16.5043 N   0  0  0  0  0  0  0  0  0  0  0  0
   25.1985  -19.7959  -15.2073 C   0  0  0  0  0  0  0  0  0  0  0  0
   25.5486  -18.9268  -14.3675 O   0  0  0  0  0  0  0  0  0  0  0  0
   32.1795  -23.1656  -17.1253 N   0  0  0  0  0  0  0  0  0  0  0  0
   23.9039  -19.8352  -15.7836 C   0  0  1  0  0  0  0  0  0  0  0  0
   22.9845  -18.7700  -15.5118 C   0  0  0  0  0  0  0  0  0  0  0  0
   23.5058  -17.4682  -16.0800 S   0  0  0  0  0  0  0  0  0  0  0  0
   24.8259  -17.7024  -17.2771 C   0  0  0  0  0  0  0  0  0  0  0  0
   21.6129  -19.0661  -15.9976 O   0  0  0  0  0  0  0  0  0  0  0  0
   21.4650  -19.6560  -17.1000 N   0  0  0  0  0  0  0  0  0  0  0  0
   20.4459  -18.7256  -15.2962 C   0  0  1  0  0  0  0  0  0  0  0  0
   19.1015  -18.9988  -15.6647 C   0  0  0  0  0  0  0  0  0  0  0  0
   18.0937  -19.0743  -14.5812 C   0  0  0  0  0  0  0  0  0  0  0  0
   18.1373  -20.2859  -13.7365 C   0  0  0  0  0  0  0  0  0  0  0  0
   18.9420  -21.3909  -13.8075 N   0  0  0  0  0  0  0  0  0  0  0  0
   18.6087  -22.2445  -12.8272 C   0  0  0  0  0  0  0  0  0  0  0  0
   17.6066  -21.6881  -12.1449 N   0  0  0  0  0  0  0  0  0  0  0  0
   17.3127  -20.5064  -12.6831 C   0  0  0  0  0  0  0  0  0  0  0  0
   18.6485  -17.8623  -16.5507 O   0  0  0  0  0  0  0  0  0  0  0  0
   19.4383  -16.7363  -16.7277 O   0  0  0  0  0  0  0  0  0  0  0  0
  2  4  1  0
  2  1  1  0
  3  2  2  0
  5  6  1  0
  5  4  1  0
  7  6  1  0
  8  7  1  0
  8  9  1  6
 10 11  2  0
 10  8  1  0
 12 10  1  0
 13 12  1  0
 13 14  1  1
 15 14  1  0
 16 13  1  0
 16 18  1  0
 17 16  2  0
 19 18  1  0
 19 20  1  6
 20 21  1  0
 21 22  2  0
 21 25  1  0
 22 23  1  0
 23 24  1  0
 25 24  2  0
 26 19  1  0
 27 26  1  0
 28 26  2  0
M  END
$$$$
