RCH.pdb
     RDKit          3D

 28 28  0  0  1  0  0  0  0  0999 V2000
   17.4247  -13.0724  -14.1265 N   0  0  0  0  0  0  0  0  0  0  0  0
   16.3701  -12.2750  -14.6090 C   0  0  0  0  0  0  0  0  0  0  0  0
   15.9735  -12.2972  -15.8429 N   0  0  0  0  0  0  0  0  0  0  0  0
   15.7167  -11.4120  -13.7019 N   0  0  0  0  0  0  0  0  0  0  0  0
   16.1720  -11.3917  -12.3046 C   0  0  0  0  0  0  0  0  0  0  0  0
   15.3608  -10.3870  -11.5461 C   0  0  0  0  0  0  0  0  0  0  0  0
   15.7450  -10.2634  -10.1179 C   0  0  0  0  0  0  0  0  0  0  0  0
   14.9666   -9.3059   -9.2796 C   0  0  2  0  0  0  0  0  0  0  0  0
   13.5751   -9.5878   -9.2290 N   0  0  0  0  0  0  0  0  0  0  0  0
   15.2237   -7.9277   -9.8159 C   0  0  0  0  0  0  0  0  0  0  0  0
   14.4784   -7.5511  -10.7570 O   0  0  0  0  0  0  0  0  0  0  0  0
   15.1366  -11.7579  -16.1489 N   0  0  0  0  0  0  0  0  0  0  0  0
   16.2537   -7.1174   -9.2752 C   0  0  1  0  0  0  0  0  0  0  0  0
   16.4318   -5.7862   -9.7751 C   0  0  0  0  0  0  0  0  0  0  0  0
   16.1773   -4.7749   -8.6789 S   0  0  0  0  0  0  0  0  0  0  0  0
   16.5405   -3.0877   -9.1811 C   0  0  0  0  0  0  0  0  0  0  0  0
   17.7638   -5.5881  -10.4008 O   0  0  0  0  0  0  0  0  0  0  0  0
   18.7951   -5.9612   -9.7824 N   0  0  0  0  0  0  0  0  0  0  0  0
   17.9547   -5.0009  -11.6610 C   0  0  1  0  0  0  0  0  0  0  0  0
   19.1851   -4.7648  -12.3307 C   0  0  0  0  0  0  0  0  0  0  0  0
   19.4920   -5.5963  -13.5180 C   0  0  0  0  0  0  0  0  0  0  0  0
   19.5160   -7.0575  -13.2994 C   0  0  0  0  0  0  0  0  0  0  0  0
   20.5312   -7.8785  -12.8881 N   0  0  0  0  0  0  0  0  0  0  0  0
   20.0860   -9.1436  -12.8427 C   0  0  0  0  0  0  0  0  0  0  0  0
   18.8068   -9.1243  -13.2201 N   0  0  0  0  0  0  0  0  0  0  0  0
   18.4506   -7.8720  -13.4984 C   0  0  0  0  0  0  0  0  0  0  0  0
   19.1428   -3.3435  -12.8407 O   0  0  0  0  0  0  0  0  0  0  0  0
   20.2862   -2.7228  -13.3207 O   0  0  0  0  0  0  0  0  0  0  0  0
  2  4  1  0
  2  1  1  0
  3  2  2  0
  5  6  1  0
  5  4  1  0
  7  6  1  0
  8  7  1  0
  8  9  1  6
 10 11  2  0
 10  8  1  0
 12 10  1  0
 13 12  1  0
 13 14  1  6
 15 14  1  0
 16 13  1  0
 16 18  1  0
 17 16  2  0
 19 18  1  0
 19 20  1  6
 20 21  1  0
 21 22  2  0
 21 25  1  0
 22 23  1  0
 23 24  1  0
 25 24  2  0
 26 19  1  0
 27 26  1  0
 28 26  2  0
M  END
$$$$
