RCH.pdb
     RDKit          3D

 28 28  0  0  1  0  0  0  0  0999 V2000
   10.9124  -18.1899    3.3065 N   0  0  0  0  0  0  0  0  0  0  0  0
   11.2378  -17.8150    1.9897 C   0  0  0  0  0  0  0  0  0  0  0  0
   10.3510  -17.4453    1.1195 N   0  0  0  0  0  0  0  0  0  0  0  0
   12.5959  -17.8449    1.6034 N   0  0  0  0  0  0  0  0  0  0  0  0
   13.5830  -18.3694    2.5576 C   0  0  0  0  0  0  0  0  0  0  0  0
   14.3203  -17.2198    3.1720 C   0  0  0  0  0  0  0  0  0  0  0  0
   15.3811  -17.6305    4.1253 C   0  0  0  0  0  0  0  0  0  0  0  0
   16.1048  -16.5476    4.8529 C   0  0  2  0  0  0  0  0  0  0  0  0
   16.6631  -15.5578    4.0003 N   0  0  0  0  0  0  0  0  0  0  0  0
   17.1624  -17.2010    5.6941 C   0  0  0  0  0  0  0  0  0  0  0  0
   18.3101  -17.2739    5.1838 O   0  0  0  0  0  0  0  0  0  0  0  0
   10.6269  -17.1703    0.1535 N   0  0  0  0  0  0  0  0  0  0  0  0
   16.8590  -17.6990    6.9863 C   0  0  2  0  0  0  0  0  0  0  0  0
   17.9101  -18.2544    7.7866 C   0  0  0  0  0  0  0  0  0  0  0  0
   18.0135  -17.5170    9.1036 S   0  0  0  0  0  0  0  0  0  0  0  0
   19.4037  -18.0592   10.1055 C   0  0  0  0  0  0  0  0  0  0  0  0
   17.7551  -19.7169    7.9917 O   0  0  0  0  0  0  0  0  0  0  0  0
   16.6040  -20.1939    8.1722 N   0  0  0  0  0  0  0  0  0  0  0  0
   18.8275  -20.6223    7.9982 C   0  0  1  0  0  0  0  0  0  0  0  0
   18.7739  -22.0292    8.1865 C   0  0  0  0  0  0  0  0  0  0  0  0
   19.0194  -22.8905    7.0062 C   0  0  0  0  0  0  0  0  0  0  0  0
   18.1112  -22.6930    5.8575 C   0  0  0  0  0  0  0  0  0  0  0  0
   18.2586  -21.9346    4.7275 N   0  0  0  0  0  0  0  0  0  0  0  0
   17.1616  -22.0594    3.9648 C   0  0  0  0  0  0  0  0  0  0  0  0
   16.3307  -22.8852    4.6029 N   0  0  0  0  0  0  0  0  0  0  0  0
   16.8915  -23.2745    5.7459 C   0  0  0  0  0  0  0  0  0  0  0  0
   19.8638  -22.3832    9.1708 O   0  0  0  0  0  0  0  0  0  0  0  0
   20.0205  -23.6839    9.6254 O   0  0  0  0  0  0  0  0  0  0  0  0
  2  4  1  0
  2  1  1  0
  3  2  2  0
  5  6  1  0
  5  4  1  0
  7  6  1  0
  8  7  1  0
  8  9  1  6
 10 11  2  0
 10  8  1  0
 12 10  1  0
 13 12  1  0
 13 14  1  1
 15 14  1  0
 16 13  1  0
 16 18  1  0
 17 16  2  0
 19 18  1  0
 19 20  1  1
 20 21  1  0
 21 22  2  0
 21 25  1  0
 22 23  1  0
 23 24  1  0
 25 24  2  0
 26 19  1  0
 27 26  1  0
 28 26  2  0
M  END
$$$$
