KNY.pdb
     RDKit          3D

 30 30  0  0  1  0  0  0  0  0999 V2000
    9.5791  -15.7196   20.2217 N   0  0  0  0  0  0  0  0  0  0  0  0
    8.8421  -14.5695   20.7168 C   0  0  1  0  0  0  0  0  0  0  0  0
    8.0397  -14.0281   19.6075 C   0  0  0  0  0  0  0  0  0  0  0  0
    8.3277  -14.3426   18.2089 C   0  0  0  0  0  0  0  0  0  0  0  0
    8.0352  -13.3949   17.1194 C   0  0  0  0  0  0  0  0  0  0  0  0
    8.3108  -13.9112   15.7533 C   0  0  0  0  0  0  0  0  0  0  0  0
    7.8607  -12.9224   14.7674 N   0  0  0  0  0  0  0  0  0  0  0  0
    7.8985  -15.1731   21.7614 C   0  0  0  0  0  0  0  0  0  0  0  0
    7.0262  -14.4820   22.2795 O   0  0  0  0  0  0  0  0  0  0  0  0
    5.8581  -18.6660   25.0198 N   0  0  0  0  0  0  0  0  0  0  0  0
    6.6067  -19.3728   24.0421 C   0  0  0  0  0  0  0  0  0  0  0  0
    6.5911  -20.6301   24.0797 O   0  0  0  0  0  0  0  0  0  0  0  0
    7.4022  -18.6825   22.9839 C   0  0  0  0  0  0  0  0  0  0  0  0
    7.3294  -17.1635   23.1839 C   0  0  2  0  0  0  0  0  0  0  0  0
    8.0375  -16.5248   22.1239 N   0  0  0  0  0  0  0  0  0  0  0  0
    7.8585  -16.8858   24.5193 C   0  0  0  0  0  0  0  0  0  0  0  0
    7.2324  -17.2907   25.5288 O   0  0  0  0  0  0  0  0  0  0  0  0
    6.0793  -10.3587   25.7659 O   0  0  0  0  0  0  0  0  0  0  0  0
    6.6712  -11.5996   26.0058 C   0  0  0  0  0  0  0  0  0  0  0  0
    6.6207  -12.1215   27.2663 C   0  0  0  0  0  0  0  0  0  0  0  0
    7.1759  -13.3235   27.5693 C   0  0  0  0  0  0  0  0  0  0  0  0
    7.8106  -14.0424   26.5793 C   0  0  0  0  0  0  0  0  0  0  0  0
    8.4051  -15.3542   26.9403 C   0  0  0  0  0  0  0  0  0  0  0  0
    9.5456  -15.7469   26.0271 C   0  0  2  0  0  0  0  0  0  0  0  0
    9.0637  -16.1699   24.7269 N   0  0  0  0  0  0  0  0  0  0  0  0
   10.3009  -16.8757   26.6235 C   0  0  0  0  0  0  0  0  0  0  0  0
   10.8744  -16.7866   27.8818 O   0  0  0  0  0  0  0  0  0  0  0  0
    7.8763  -13.5367   25.2926 C   0  0  0  0  0  0  0  0  0  0  0  0
    7.3033  -12.3103   25.0088 C   0  0  0  0  0  0  0  0  0  0  0  0
   10.4595  -17.9765   26.0132 O   0  0  0  0  0  0  0  0  0  0  0  0
  2  3  1  0
  2  1  1  6
  4  5  1  0
  4  3  1  0
  6  5  1  0
  7  6  1  0
  8 15  1  0
  8  2  1  0
  9  8  2  0
 11 10  1  0
 11 12  2  0
 13 11  1  0
 14 13  1  6
 14 15  1  0
 16 14  1  0
 17 16  2  0
 19 20  2  0
 19 18  1  0
 21 20  1  0
 22 21  2  0
 24 23  1  1
 23 22  1  0
 24 25  1  0
 25 16  1  0
 26 27  1  0
 26 24  1  0
 28 22  1  0
 28 29  2  0
 29 19  1  0
 30 26  2  0
M  END
$$$$
