KNY.pdb
     RDKit          3D

 30 30  0  0  1  0  0  0  0  0999 V2000
    5.3460  -16.8744   23.0317 N   0  0  0  0  0  0  0  0  0  0  0  0
    5.4857  -18.1229   22.3019 C   0  0  1  0  0  0  0  0  0  0  0  0
    4.3151  -18.2716   21.4214 C   0  0  0  0  0  0  0  0  0  0  0  0
    3.0082  -18.6928   21.9237 C   0  0  0  0  0  0  0  0  0  0  0  0
    2.0230  -19.3715   21.0638 C   0  0  0  0  0  0  0  0  0  0  0  0
    0.7069  -19.6268   21.7052 C   0  0  0  0  0  0  0  0  0  0  0  0
   -0.2063  -20.2036   20.7123 N   0  0  0  0  0  0  0  0  0  0  0  0
    6.7291  -17.8937   21.4375 C   0  0  0  0  0  0  0  0  0  0  0  0
    6.8736  -18.5107   20.3860 O   0  0  0  0  0  0  0  0  0  0  0  0
    7.4610  -12.5809   20.1271 N   0  0  0  0  0  0  0  0  0  0  0  0
    7.3730  -13.9409   19.7290 C   0  0  0  0  0  0  0  0  0  0  0  0
    7.6724  -14.2307   18.5421 O   0  0  0  0  0  0  0  0  0  0  0  0
    6.9423  -15.0255   20.6604 C   0  0  0  0  0  0  0  0  0  0  0  0
    8.1574  -15.8569   21.0905 C   0  0  2  0  0  0  0  0  0  0  0  0
    7.7051  -16.9718   21.8558 N   0  0  0  0  0  0  0  0  0  0  0  0
    9.0563  -14.9537   21.8092 C   0  0  0  0  0  0  0  0  0  0  0  0
   10.1859  -14.6939   21.3281 O   0  0  0  0  0  0  0  0  0  0  0  0
   10.7667  -15.6803   30.4202 O   0  0  0  0  0  0  0  0  0  0  0  0
   10.1609  -15.5494   29.1698 C   0  0  0  0  0  0  0  0  0  0  0  0
    9.9411  -14.2975   28.6713 C   0  0  0  0  0  0  0  0  0  0  0  0
    9.3564  -14.0979   27.4618 C   0  0  0  0  0  0  0  0  0  0  0  0
    8.9711  -15.1872   26.7105 C   0  0  0  0  0  0  0  0  0  0  0  0
    8.3372  -14.9372   25.3912 C   0  0  0  0  0  0  0  0  0  0  0  0
    9.3495  -14.6431   24.3061 C   0  0  2  0  0  0  0  0  0  0  0  0
    8.7033  -14.3502   23.0418 N   0  0  0  0  0  0  0  0  0  0  0  0
   10.2292  -15.8209   24.1072 C   0  0  0  0  0  0  0  0  0  0  0  0
   11.5937  -15.7610   24.3411 O   0  0  0  0  0  0  0  0  0  0  0  0
    9.1821  -16.4676   27.1918 C   0  0  0  0  0  0  0  0  0  0  0  0
    9.7795  -16.6452   28.4266 C   0  0  0  0  0  0  0  0  0  0  0  0
    9.7777  -16.9393   23.7138 O   0  0  0  0  0  0  0  0  0  0  0  0
  2  3  1  0
  2  1  1  1
  4  5  1  0
  4  3  1  0
  6  5  1  0
  7  6  1  0
  8 15  1  0
  8  2  1  0
  9  8  2  0
 11 10  1  0
 11 12  2  0
 13 11  1  0
 14 13  1  1
 14 15  1  0
 16 14  1  0
 17 16  2  0
 19 20  2  0
 19 18  1  0
 21 20  1  0
 22 21  2  0
 24 23  1  1
 23 22  1  0
 24 25  1  0
 25 16  1  0
 26 27  1  0
 26 24  1  0
 28 22  1  0
 28 29  2  0
 29 19  1  0
 30 26  2  0
M  END
$$$$
