KNY.pdb
     RDKit          3D

 30 30  0  0  1  0  0  0  0  0999 V2000
    9.8977  -19.5220   20.7818 N   0  0  0  0  0  0  0  0  0  0  0  0
   10.1226  -18.8207   19.5293 C   0  0  1  0  0  0  0  0  0  0  0  0
    9.2310  -19.4027   18.5125 C   0  0  0  0  0  0  0  0  0  0  0  0
    7.9495  -20.0167   18.8565 C   0  0  0  0  0  0  0  0  0  0  0  0
    7.1503  -20.7617   17.8680 C   0  0  0  0  0  0  0  0  0  0  0  0
    5.8140  -21.1994   18.3491 C   0  0  0  0  0  0  0  0  0  0  0  0
    5.1242  -21.9102   17.2668 N   0  0  0  0  0  0  0  0  0  0  0  0
    9.6615  -17.3920   19.8325 C   0  0  0  0  0  0  0  0  0  0  0  0
    9.1863  -16.6935   18.9418 O   0  0  0  0  0  0  0  0  0  0  0  0
    7.6888  -13.4127   22.2578 N   0  0  0  0  0  0  0  0  0  0  0  0
    6.9695  -14.5482   21.8006 C   0  0  0  0  0  0  0  0  0  0  0  0
    5.7169  -14.4630   21.7221 O   0  0  0  0  0  0  0  0  0  0  0  0
    7.6415  -15.8243   21.4145 C   0  0  0  0  0  0  0  0  0  0  0  0
    9.1566  -15.6982   21.6171 C   0  0  2  0  0  0  0  0  0  0  0  0
    9.7859  -16.8846   21.1381 N   0  0  0  0  0  0  0  0  0  0  0  0
    9.3734  -15.4294   23.0388 C   0  0  0  0  0  0  0  0  0  0  0  0
    9.6199  -14.2581   23.4159 O   0  0  0  0  0  0  0  0  0  0  0  0
    5.8967  -11.3386   26.1086 O   0  0  0  0  0  0  0  0  0  0  0  0
    6.5404  -12.5760   26.1547 C   0  0  0  0  0  0  0  0  0  0  0  0
    7.8252  -12.6342   26.6130 C   0  0  0  0  0  0  0  0  0  0  0  0
    8.5104  -13.8047   26.6843 C   0  0  0  0  0  0  0  0  0  0  0  0
    7.8963  -14.9717   26.2836 C   0  0  0  0  0  0  0  0  0  0  0  0
    8.6698  -16.2358   26.3760 C   0  0  0  0  0  0  0  0  0  0  0  0
    9.8063  -16.2963   25.3794 C   0  0  2  0  0  0  0  0  0  0  0  0
    9.3164  -16.4471   24.0233 N   0  0  0  0  0  0  0  0  0  0  0  0
   10.6783  -17.4577   25.6817 C   0  0  0  0  0  0  0  0  0  0  0  0
   11.4002  -17.5412   26.8615 O   0  0  0  0  0  0  0  0  0  0  0  0
    6.5943  -14.9413   25.8149 C   0  0  0  0  0  0  0  0  0  0  0  0
    5.9172  -13.7369   25.7517 C   0  0  0  0  0  0  0  0  0  0  0  0
   10.8065  -18.4303   24.8773 O   0  0  0  0  0  0  0  0  0  0  0  0
  2  3  1  0
  2  1  1  1
  4  5  1  0
  4  3  1  0
  6  5  1  0
  7  6  1  0
  8 15  1  0
  8  2  1  0
  9  8  2  0
 11 10  1  0
 11 12  2  0
 13 11  1  0
 14 13  1  1
 14 15  1  0
 16 14  1  0
 17 16  2  0
 19 20  2  0
 19 18  1  0
 21 20  1  0
 22 21  2  0
 24 23  1  1
 23 22  1  0
 24 25  1  0
 25 16  1  0
 26 27  1  0
 26 24  1  0
 28 22  1  0
 28 29  2  0
 29 19  1  0
 30 26  2  0
M  END
$$$$
