KNY.pdb
     RDKit          3D

 30 30  0  0  1  0  0  0  0  0999 V2000
    7.3650  -17.9796   19.5479 N   0  0  0  0  0  0  0  0  0  0  0  0
    8.4185  -16.9909   19.7015 C   0  0  1  0  0  0  0  0  0  0  0  0
    7.7869  -15.6720   19.8724 C   0  0  0  0  0  0  0  0  0  0  0  0
    7.4007  -14.8375   18.7357 C   0  0  0  0  0  0  0  0  0  0  0  0
    8.2270  -13.7054   18.2817 C   0  0  0  0  0  0  0  0  0  0  0  0
    7.6936  -12.9784   17.1004 C   0  0  0  0  0  0  0  0  0  0  0  0
    8.5231  -11.7942   16.8515 N   0  0  0  0  0  0  0  0  0  0  0  0
    9.0939  -17.3904   21.0168 C   0  0  0  0  0  0  0  0  0  0  0  0
    8.4589  -17.9869   21.8817 O   0  0  0  0  0  0  0  0  0  0  0  0
   13.6180  -18.3131   19.9849 N   0  0  0  0  0  0  0  0  0  0  0  0
   13.0821  -18.4454   21.2931 C   0  0  0  0  0  0  0  0  0  0  0  0
   12.9500  -19.6043   21.7640 O   0  0  0  0  0  0  0  0  0  0  0  0
   12.6752  -17.2697   22.1184 C   0  0  0  0  0  0  0  0  0  0  0  0
   11.1738  -17.3414   22.4241 C   0  0  2  0  0  0  0  0  0  0  0  0
   10.4466  -17.0694   21.2281 N   0  0  0  0  0  0  0  0  0  0  0  0
   10.9180  -16.4012   23.5155 C   0  0  0  0  0  0  0  0  0  0  0  0
   10.9365  -15.1676   23.2858 O   0  0  0  0  0  0  0  0  0  0  0  0
    6.1433  -11.3488   27.8475 O   0  0  0  0  0  0  0  0  0  0  0  0
    6.6819  -12.4720   27.2181 C   0  0  0  0  0  0  0  0  0  0  0  0
    7.8211  -12.3310   26.4790 C   0  0  0  0  0  0  0  0  0  0  0  0
    8.3983  -13.3816   25.8405 C   0  0  0  0  0  0  0  0  0  0  0  0
    7.8217  -14.6297   25.9376 C   0  0  0  0  0  0  0  0  0  0  0  0
    8.4774  -15.7592   25.2311 C   0  0  0  0  0  0  0  0  0  0  0  0
    9.8475  -16.0769   25.7884 C   0  0  2  0  0  0  0  0  0  0  0  0
   10.6462  -16.8274   24.8393 N   0  0  0  0  0  0  0  0  0  0  0  0
    9.7121  -16.8947   27.0186 C   0  0  0  0  0  0  0  0  0  0  0  0
    9.9422  -16.3634   28.2775 O   0  0  0  0  0  0  0  0  0  0  0  0
    6.6666  -14.8010   26.6805 C   0  0  0  0  0  0  0  0  0  0  0  0
    6.0975  -13.7156   27.3217 C   0  0  0  0  0  0  0  0  0  0  0  0
    9.3798  -18.1184   26.9801 O   0  0  0  0  0  0  0  0  0  0  0  0
  2  3  1  0
  2  1  1  1
  4  5  1  0
  4  3  1  0
  6  5  1  0
  7  6  1  0
  8 15  1  0
  8  2  1  0
  9  8  2  0
 11 10  1  0
 11 12  2  0
 13 11  1  0
 14 13  1  6
 14 15  1  0
 16 14  1  0
 17 16  2  0
 19 20  2  0
 19 18  1  0
 21 20  1  0
 22 21  2  0
 24 23  1  6
 23 22  1  0
 24 25  1  0
 25 16  1  0
 26 27  1  0
 26 24  1  0
 28 22  1  0
 28 29  2  0
 29 19  1  0
 30 26  2  0
M  END
$$$$
