KNY.pdb
     RDKit          3D

 30 30  0  0  1  0  0  0  0  0999 V2000
    8.1163  -18.4463   20.2348 N   0  0  0  0  0  0  0  0  0  0  0  0
    9.5369  -18.3117   19.9614 C   0  0  1  0  0  0  0  0  0  0  0  0
    9.7261  -18.3346   18.5016 C   0  0  0  0  0  0  0  0  0  0  0  0
    8.8904  -19.1463   17.6181 C   0  0  0  0  0  0  0  0  0  0  0  0
    9.0386  -19.1103   16.1527 C   0  0  0  0  0  0  0  0  0  0  0  0
    7.9594  -19.8010   15.3998 C   0  0  0  0  0  0  0  0  0  0  0  0
    8.1580  -19.5770   13.9636 N   0  0  0  0  0  0  0  0  0  0  0  0
    9.8691  -16.9099   20.4816 C   0  0  0  0  0  0  0  0  0  0  0  0
   10.9928  -16.4417   20.3227 O   0  0  0  0  0  0  0  0  0  0  0  0
    7.6979  -12.7464   19.0355 N   0  0  0  0  0  0  0  0  0  0  0  0
    7.6021  -13.9622   19.7625 C   0  0  0  0  0  0  0  0  0  0  0  0
    7.3687  -15.0186   19.1208 O   0  0  0  0  0  0  0  0  0  0  0  0
    7.7672  -14.0282   21.2449 C   0  0  0  0  0  0  0  0  0  0  0  0
    9.0345  -14.8184   21.5942 C   0  0  2  0  0  0  0  0  0  0  0  0
    8.8787  -16.1619   21.1428 N   0  0  0  0  0  0  0  0  0  0  0  0
    9.2339  -14.6837   23.0373 C   0  0  0  0  0  0  0  0  0  0  0  0
    9.4893  -13.5552   23.5233 O   0  0  0  0  0  0  0  0  0  0  0  0
    6.2218  -10.3983   26.4317 O   0  0  0  0  0  0  0  0  0  0  0  0
    6.6770  -11.7154   26.3559 C   0  0  0  0  0  0  0  0  0  0  0  0
    7.9695  -11.9873   26.7015 C   0  0  0  0  0  0  0  0  0  0  0  0
    8.4774  -13.2460   26.6510 C   0  0  0  0  0  0  0  0  0  0  0  0
    7.6691  -14.2839   26.2396 C   0  0  0  0  0  0  0  0  0  0  0  0
    8.2517  -15.6489   26.1977 C   0  0  0  0  0  0  0  0  0  0  0  0
    9.4898  -15.7264   25.3317 C   0  0  2  0  0  0  0  0  0  0  0  0
    9.1504  -15.7863   23.9235 N   0  0  0  0  0  0  0  0  0  0  0  0
   10.2621  -16.9476   25.6676 C   0  0  0  0  0  0  0  0  0  0  0  0
   10.7707  -17.1634   26.9383 O   0  0  0  0  0  0  0  0  0  0  0  0
    6.3547  -14.0363   25.8836 C   0  0  0  0  0  0  0  0  0  0  0  0
    5.8605  -12.7458   25.9433 C   0  0  0  0  0  0  0  0  0  0  0  0
   10.4952  -17.8535   24.8105 O   0  0  0  0  0  0  0  0  0  0  0  0
  2  3  1  0
  2  1  1  6
  4  5  1  0
  4  3  1  0
  6  5  1  0
  7  6  1  0
  8 15  1  0
  8  2  1  0
  9  8  2  0
 11 10  1  0
 11 12  2  0
 13 11  1  0
 14 13  1  1
 14 15  1  0
 16 14  1  0
 17 16  2  0
 19 20  2  0
 19 18  1  0
 21 20  1  0
 22 21  2  0
 24 23  1  1
 23 22  1  0
 24 25  1  0
 25 16  1  0
 26 27  1  0
 26 24  1  0
 28 22  1  0
 28 29  2  0
 29 19  1  0
 30 26  2  0
M  END
$$$$
