KNY.pdb
     RDKit          3D

 30 30  0  0  1  0  0  0  0  0999 V2000
    5.1344  -16.9700   22.9378 N   0  0  0  0  0  0  0  0  0  0  0  0
    5.6553  -17.9812   22.0339 C   0  0  1  0  0  0  0  0  0  0  0  0
    4.6174  -18.2787   21.0330 C   0  0  0  0  0  0  0  0  0  0  0  0
    3.2718  -18.7108   21.4077 C   0  0  0  0  0  0  0  0  0  0  0  0
    2.4244  -19.5022   20.4987 C   0  0  0  0  0  0  0  0  0  0  0  0
    1.0441  -19.7497   20.9905 C   0  0  0  0  0  0  0  0  0  0  0  0
    0.3408  -20.6096   20.0321 N   0  0  0  0  0  0  0  0  0  0  0  0
    6.8228  -17.2727   21.3405 C   0  0  0  0  0  0  0  0  0  0  0  0
    7.4606  -17.8464   20.4624 O   0  0  0  0  0  0  0  0  0  0  0  0
    6.9466  -12.4581   18.8745 N   0  0  0  0  0  0  0  0  0  0  0  0
    7.5725  -13.6072   19.4257 C   0  0  0  0  0  0  0  0  0  0  0  0
    7.9623  -14.5051   18.6355 O   0  0  0  0  0  0  0  0  0  0  0  0
    7.7810  -13.7836   20.8935 C   0  0  0  0  0  0  0  0  0  0  0  0
    8.2528  -15.2136   21.1854 C   0  0  2  0  0  0  0  0  0  0  0  0
    7.1600  -15.9601   21.7159 N   0  0  0  0  0  0  0  0  0  0  0  0
    9.4042  -15.1056   22.0815 C   0  0  0  0  0  0  0  0  0  0  0  0
   10.0714  -14.0429   22.1054 O   0  0  0  0  0  0  0  0  0  0  0  0
   10.9142  -14.6621   30.5133 O   0  0  0  0  0  0  0  0  0  0  0  0
   10.5256  -14.8447   29.1854 C   0  0  0  0  0  0  0  0  0  0  0  0
   10.2463  -13.7470   28.4232 C   0  0  0  0  0  0  0  0  0  0  0  0
    9.8628  -13.8525   27.1245 C   0  0  0  0  0  0  0  0  0  0  0  0
    9.7503  -15.1018   26.5534 C   0  0  0  0  0  0  0  0  0  0  0  0
    9.3319  -15.1849   25.1312 C   0  0  0  0  0  0  0  0  0  0  0  0
   10.3055  -15.9743   24.2838 C   0  0  2  0  0  0  0  0  0  0  0  0
    9.8056  -16.1624   22.9360 N   0  0  0  0  0  0  0  0  0  0  0  0
   10.5203  -17.3145   24.8823 C   0  0  0  0  0  0  0  0  0  0  0  0
    9.5725  -18.3202   24.7800 O   0  0  0  0  0  0  0  0  0  0  0  0
   10.0275  -16.2316   27.3034 C   0  0  0  0  0  0  0  0  0  0  0  0
   10.4163  -16.0984   28.6241 C   0  0  0  0  0  0  0  0  0  0  0  0
   11.5796  -17.6065   25.5162 O   0  0  0  0  0  0  0  0  0  0  0  0
  2  3  1  0
  2  1  1  1
  4  5  1  0
  4  3  1  0
  6  5  1  0
  7  6  1  0
  8 15  1  0
  8  2  1  0
  9  8  2  0
 11 10  1  0
 11 12  2  0
 13 11  1  0
 14 13  1  1
 14 15  1  0
 16 14  1  0
 17 16  2  0
 19 20  2  0
 19 18  1  0
 21 20  1  0
 22 21  2  0
 24 23  1  1
 23 22  1  0
 24 25  1  0
 25 16  1  0
 26 27  1  0
 26 24  1  0
 28 22  1  0
 28 29  2  0
 29 19  1  0
 30 26  2  0
M  END
$$$$
