KNY.pdb
     RDKit          3D

 30 30  0  0  1  0  0  0  0  0999 V2000
    7.3460  -16.5194   21.0722 N   0  0  0  0  0  0  0  0  0  0  0  0
    8.2839  -15.6909   21.8103 C   0  0  1  0  0  0  0  0  0  0  0  0
    7.6600  -14.3751   22.0269 C   0  0  0  0  0  0  0  0  0  0  0  0
    7.4265  -13.4318   20.9344 C   0  0  0  0  0  0  0  0  0  0  0  0
    8.1904  -13.4901   19.6759 C   0  0  0  0  0  0  0  0  0  0  0  0
    7.7619  -12.5136   18.6408 C   0  0  0  0  0  0  0  0  0  0  0  0
    8.4631  -12.8067   17.3859 N   0  0  0  0  0  0  0  0  0  0  0  0
    8.4088  -16.4072   23.1582 C   0  0  0  0  0  0  0  0  0  0  0  0
    7.4997  -17.1260   23.5631 O   0  0  0  0  0  0  0  0  0  0  0  0
   11.0192  -18.9484   21.5323 N   0  0  0  0  0  0  0  0  0  0  0  0
   10.7012  -18.9077   22.9154 C   0  0  0  0  0  0  0  0  0  0  0  0
    9.8795  -19.7507   23.3588 O   0  0  0  0  0  0  0  0  0  0  0  0
   11.3017  -17.9101   23.8499 C   0  0  0  0  0  0  0  0  0  0  0  0
   10.2008  -17.2605   24.6976 C   0  0  2  0  0  0  0  0  0  0  0  0
    9.5719  -16.2366   23.9300 N   0  0  0  0  0  0  0  0  0  0  0  0
   10.8355  -16.7907   25.9292 C   0  0  0  0  0  0  0  0  0  0  0  0
   11.6047  -17.5565   26.5593 O   0  0  0  0  0  0  0  0  0  0  0  0
    6.1192  -11.4847   24.9968 O   0  0  0  0  0  0  0  0  0  0  0  0
    6.7789  -12.4400   25.7713 C   0  0  0  0  0  0  0  0  0  0  0  0
    7.8706  -12.0604   26.4979 C   0  0  0  0  0  0  0  0  0  0  0  0
    8.5592  -12.9382   27.2725 C   0  0  0  0  0  0  0  0  0  0  0  0
    8.1488  -14.2526   27.3310 C   0  0  0  0  0  0  0  0  0  0  0  0
    8.9198  -15.1878   28.1887 C   0  0  0  0  0  0  0  0  0  0  0  0
   10.3949  -15.2028   27.8532 C   0  0  2  0  0  0  0  0  0  0  0  0
   10.6177  -15.4908   26.4499 N   0  0  0  0  0  0  0  0  0  0  0  0
   11.0804  -16.2505   28.6487 C   0  0  0  0  0  0  0  0  0  0  0  0
   11.7194  -17.3229   28.0472 O   0  0  0  0  0  0  0  0  0  0  0  0
    7.0450  -14.6645   26.6046 C   0  0  0  0  0  0  0  0  0  0  0  0
    6.3602  -13.7518   25.8229 C   0  0  0  0  0  0  0  0  0  0  0  0
   11.1159  -16.2175   29.9164 O   0  0  0  0  0  0  0  0  0  0  0  0
  2  3  1  0
  2  1  1  6
  4  5  1  0
  4  3  1  0
  6  5  1  0
  7  6  1  0
  8 15  1  0
  8  2  1  0
  9  8  2  0
 11 10  1  0
 11 12  2  0
 13 11  1  0
 14 13  1  6
 14 15  1  0
 16 14  1  0
 17 16  2  0
 19 20  2  0
 19 18  1  0
 21 20  1  0
 22 21  2  0
 24 23  1  6
 23 22  1  0
 24 25  1  0
 25 16  1  0
 26 27  1  0
 26 24  1  0
 28 22  1  0
 28 29  2  0
 29 19  1  0
 30 26  2  0
M  END
$$$$
