KNY.pdb
     RDKit          3D

 30 30  0  0  1  0  0  0  0  0999 V2000
    7.2029  -19.0114   18.1174 N   0  0  0  0  0  0  0  0  0  0  0  0
    6.4538  -18.1720   19.0368 C   0  0  1  0  0  0  0  0  0  0  0  0
    5.8680  -19.0380   20.0734 C   0  0  0  0  0  0  0  0  0  0  0  0
    6.3074  -20.4174   20.2789 C   0  0  0  0  0  0  0  0  0  0  0  0
    5.7214  -21.2761   21.3229 C   0  0  0  0  0  0  0  0  0  0  0  0
    6.2116  -22.6791   21.3238 C   0  0  0  0  0  0  0  0  0  0  0  0
    5.5576  -23.4146   22.4118 N   0  0  0  0  0  0  0  0  0  0  0  0
    7.5324  -17.2934   19.6774 C   0  0  0  0  0  0  0  0  0  0  0  0
    8.6991  -17.3759   19.3046 O   0  0  0  0  0  0  0  0  0  0  0  0
    8.6216  -12.1088   19.3741 N   0  0  0  0  0  0  0  0  0  0  0  0
    8.2772  -13.4806   19.4983 C   0  0  0  0  0  0  0  0  0  0  0  0
    8.7253  -14.2833   18.6397 O   0  0  0  0  0  0  0  0  0  0  0  0
    7.4116  -13.9961   20.6002 C   0  0  0  0  0  0  0  0  0  0  0  0
    7.9886  -15.3080   21.1467 C   0  0  2  0  0  0  0  0  0  0  0  0
    7.1780  -16.3910   20.6961 N   0  0  0  0  0  0  0  0  0  0  0  0
    8.0575  -15.1674   22.6014 C   0  0  0  0  0  0  0  0  0  0  0  0
    7.0182  -14.8827   23.2448 O   0  0  0  0  0  0  0  0  0  0  0  0
    5.7050  -10.7861   27.5280 O   0  0  0  0  0  0  0  0  0  0  0  0
    6.3250  -11.9329   27.0298 C   0  0  0  0  0  0  0  0  0  0  0  0
    5.5766  -12.8372   26.3327 C   0  0  0  0  0  0  0  0  0  0  0  0
    6.1158  -13.9736   25.8204 C   0  0  0  0  0  0  0  0  0  0  0  0
    7.4577  -14.2274   26.0066 C   0  0  0  0  0  0  0  0  0  0  0  0
    8.0189  -15.4764   25.4324 C   0  0  0  0  0  0  0  0  0  0  0  0
    9.3621  -15.2600   24.7708 C   0  0  2  0  0  0  0  0  0  0  0  0
    9.2624  -15.3410   23.3267 N   0  0  0  0  0  0  0  0  0  0  0  0
   10.3177  -16.3013   25.2216 C   0  0  0  0  0  0  0  0  0  0  0  0
   10.9394  -17.1580   24.3274 O   0  0  0  0  0  0  0  0  0  0  0  0
    8.2398  -13.3274   26.7095 C   0  0  0  0  0  0  0  0  0  0  0  0
    7.6675  -12.1769   27.2215 C   0  0  0  0  0  0  0  0  0  0  0  0
   10.6129  -16.4594   26.4452 O   0  0  0  0  0  0  0  0  0  0  0  0
  2  3  1  0
  2  1  1  6
  4  5  1  0
  4  3  1  0
  6  5  1  0
  7  6  1  0
  8 15  1  0
  8  2  1  0
  9  8  2  0
 11 10  1  0
 11 12  2  0
 13 11  1  0
 14 13  1  6
 14 15  1  0
 16 14  1  0
 17 16  2  0
 19 20  2  0
 19 18  1  0
 21 20  1  0
 22 21  2  0
 24 23  1  1
 23 22  1  0
 24 25  1  0
 25 16  1  0
 26 27  1  0
 26 24  1  0
 28 22  1  0
 28 29  2  0
 29 19  1  0
 30 26  2  0
M  END
$$$$
