KNY.pdb
     RDKit          3D

 30 30  0  0  1  0  0  0  0  0999 V2000
    8.2685  -17.3636   21.1641 N   0  0  0  0  0  0  0  0  0  0  0  0
    8.8388  -16.2642   21.9237 C   0  0  1  0  0  0  0  0  0  0  0  0
    8.3764  -15.0031   21.3211 C   0  0  0  0  0  0  0  0  0  0  0  0
    8.4542  -14.7496   19.8832 C   0  0  0  0  0  0  0  0  0  0  0  0
    8.0291  -13.4688   19.2920 C   0  0  0  0  0  0  0  0  0  0  0  0
    8.1295  -13.4020   17.8108 C   0  0  0  0  0  0  0  0  0  0  0  0
    7.5737  -12.1249   17.3498 N   0  0  0  0  0  0  0  0  0  0  0  0
    8.1983  -16.4159   23.3067 C   0  0  0  0  0  0  0  0  0  0  0  0
    6.9999  -16.6616   23.4095 O   0  0  0  0  0  0  0  0  0  0  0  0
   12.2459  -19.9961   24.2644 N   0  0  0  0  0  0  0  0  0  0  0  0
   11.2706  -19.1798   24.8958 C   0  0  0  0  0  0  0  0  0  0  0  0
   11.0100  -19.3986   26.1068 O   0  0  0  0  0  0  0  0  0  0  0  0
   10.5528  -18.0841   24.1794 C   0  0  0  0  0  0  0  0  0  0  0  0
    9.6270  -17.3434   25.1526 C   0  0  2  0  0  0  0  0  0  0  0  0
    8.9917  -16.2720   24.4588 N   0  0  0  0  0  0  0  0  0  0  0  0
   10.4510  -16.9261   26.2872 C   0  0  0  0  0  0  0  0  0  0  0  0
   11.0676  -17.7916   26.9548 O   0  0  0  0  0  0  0  0  0  0  0  0
    6.2794  -11.7342   24.7126 O   0  0  0  0  0  0  0  0  0  0  0  0
    6.9391  -12.5484   25.6343 C   0  0  0  0  0  0  0  0  0  0  0  0
    8.0426  -12.0610   26.2735 C   0  0  0  0  0  0  0  0  0  0  0  0
    8.7318  -12.7992   27.1817 C   0  0  0  0  0  0  0  0  0  0  0  0
    8.3099  -14.0790   27.4708 C   0  0  0  0  0  0  0  0  0  0  0  0
    9.0820  -14.8603   28.4699 C   0  0  0  0  0  0  0  0  0  0  0  0
   10.5131  -15.0995   28.0412 C   0  0  2  0  0  0  0  0  0  0  0  0
   10.5860  -15.5688   26.6715 N   0  0  0  0  0  0  0  0  0  0  0  0
   11.1323  -16.1298   28.9104 C   0  0  0  0  0  0  0  0  0  0  0  0
   11.2709  -15.9450   30.2767 O   0  0  0  0  0  0  0  0  0  0  0  0
    7.1942  -14.5981   26.8374 C   0  0  0  0  0  0  0  0  0  0  0  0
    6.5089  -13.8268   25.9162 C   0  0  0  0  0  0  0  0  0  0  0  0
   11.5650  -17.2289   28.4479 O   0  0  0  0  0  0  0  0  0  0  0  0
  2  3  1  0
  2  1  1  6
  4  5  1  0
  4  3  1  0
  6  5  1  0
  7  6  1  0
  8 15  1  0
  8  2  1  0
  9  8  2  0
 11 10  1  0
 11 12  2  0
 13 11  1  0
 14 13  1  6
 14 15  1  0
 16 14  1  0
 17 16  2  0
 19 20  2  0
 19 18  1  0
 21 20  1  0
 22 21  2  0
 24 23  1  1
 23 22  1  0
 24 25  1  0
 25 16  1  0
 26 27  1  0
 26 24  1  0
 28 22  1  0
 28 29  2  0
 29 19  1  0
 30 26  2  0
M  END
$$$$
