KNY.pdb
     RDKit          3D

 30 30  0  0  1  0  0  0  0  0999 V2000
    8.6606  -16.1442   18.8789 N   0  0  0  0  0  0  0  0  0  0  0  0
    8.7942  -15.0629   19.8399 C   0  0  1  0  0  0  0  0  0  0  0  0
    7.7766  -14.0455   19.5286 C   0  0  0  0  0  0  0  0  0  0  0  0
    7.4662  -13.6452   18.1570 C   0  0  0  0  0  0  0  0  0  0  0  0
    8.2394  -14.1411   17.0050 C   0  0  0  0  0  0  0  0  0  0  0  0
    7.8063  -13.6075   15.6873 C   0  0  0  0  0  0  0  0  0  0  0  0
    8.6396  -14.1976   14.6339 N   0  0  0  0  0  0  0  0  0  0  0  0
    8.4393  -15.7255   21.1744 C   0  0  0  0  0  0  0  0  0  0  0  0
    7.9172  -15.0694   22.0711 O   0  0  0  0  0  0  0  0  0  0  0  0
   12.7502  -19.0055   20.2714 N   0  0  0  0  0  0  0  0  0  0  0  0
   11.4669  -18.3984   20.2489 C   0  0  0  0  0  0  0  0  0  0  0  0
   10.6085  -18.8585   19.4527 O   0  0  0  0  0  0  0  0  0  0  0  0
   11.1064  -17.2464   21.1275 C   0  0  0  0  0  0  0  0  0  0  0  0
    9.8896  -17.6077   21.9886 C   0  0  2  0  0  0  0  0  0  0  0  0
    8.7153  -17.0910   21.3666 N   0  0  0  0  0  0  0  0  0  0  0  0
   10.1470  -17.0804   23.3288 C   0  0  0  0  0  0  0  0  0  0  0  0
   11.1850  -16.4071   23.5394 O   0  0  0  0  0  0  0  0  0  0  0  0
    5.8315  -11.1107   27.6681 O   0  0  0  0  0  0  0  0  0  0  0  0
    6.4215  -12.0919   26.8701 C   0  0  0  0  0  0  0  0  0  0  0  0
    5.6951  -13.2006   26.5432 C   0  0  0  0  0  0  0  0  0  0  0  0
    6.2073  -14.1935   25.7707 C   0  0  0  0  0  0  0  0  0  0  0  0
    7.4980  -14.0844   25.2999 C   0  0  0  0  0  0  0  0  0  0  0  0
    8.0291  -15.1843   24.4556 C   0  0  0  0  0  0  0  0  0  0  0  0
    8.7414  -16.2461   25.2641 C   0  0  2  0  0  0  0  0  0  0  0  0
    9.2640  -17.2989   24.4154 N   0  0  0  0  0  0  0  0  0  0  0  0
    7.7962  -16.8628   26.2269 C   0  0  0  0  0  0  0  0  0  0  0  0
    6.9186  -17.8659   25.8478 O   0  0  0  0  0  0  0  0  0  0  0  0
    8.2568  -12.9709   25.6162 C   0  0  0  0  0  0  0  0  0  0  0  0
    7.7129  -11.9730   26.4045 C   0  0  0  0  0  0  0  0  0  0  0  0
    7.7438  -16.5036   27.4425 O   0  0  0  0  0  0  0  0  0  0  0  0
  2  3  1  0
  2  1  1  6
  4  5  1  0
  4  3  1  0
  6  5  1  0
  7  6  1  0
  8 15  1  0
  8  2  1  0
  9  8  2  0
 11 10  1  0
 11 12  2  0
 13 11  1  0
 14 13  1  6
 14 15  1  0
 16 14  1  0
 17 16  2  0
 19 20  2  0
 19 18  1  0
 21 20  1  0
 22 21  2  0
 24 23  1  6
 23 22  1  0
 24 25  1  0
 25 16  1  0
 26 27  1  0
 26 24  1  0
 28 22  1  0
 28 29  2  0
 29 19  1  0
 30 26  2  0
M  END
$$$$
