KNY.pdb
     RDKit          3D

 30 30  0  0  1  0  0  0  0  0999 V2000
    9.4342  -13.2144   19.5723 N   0  0  0  0  0  0  0  0  0  0  0  0
    8.0380  -13.5412   19.8060 C   0  0  1  0  0  0  0  0  0  0  0  0
    7.3964  -13.7679   18.5004 C   0  0  0  0  0  0  0  0  0  0  0  0
    8.0936  -14.4128   17.3888 C   0  0  0  0  0  0  0  0  0  0  0  0
    8.1539  -13.8058   16.0476 C   0  0  0  0  0  0  0  0  0  0  0  0
    8.7434  -14.6748   14.9960 C   0  0  0  0  0  0  0  0  0  0  0  0
    8.7992  -13.9291   13.7337 N   0  0  0  0  0  0  0  0  0  0  0  0
    8.1047  -14.8715   20.5622 C   0  0  0  0  0  0  0  0  0  0  0  0
    7.0724  -15.4617   20.8674 O   0  0  0  0  0  0  0  0  0  0  0  0
   12.0882  -19.3663   21.5487 N   0  0  0  0  0  0  0  0  0  0  0  0
   10.8047  -18.8185   21.2869 C   0  0  0  0  0  0  0  0  0  0  0  0
    9.7957  -19.5184   21.5600 O   0  0  0  0  0  0  0  0  0  0  0  0
   10.6147  -17.4566   20.7055 C   0  0  0  0  0  0  0  0  0  0  0  0
    9.5567  -16.6894   21.5085 C   0  0  2  0  0  0  0  0  0  0  0  0
    9.3563  -15.4131   20.9052 N   0  0  0  0  0  0  0  0  0  0  0  0
   10.0297  -16.6377   22.8920 C   0  0  0  0  0  0  0  0  0  0  0  0
   10.0961  -17.6964   23.5626 O   0  0  0  0  0  0  0  0  0  0  0  0
    4.9117  -11.5346   27.4022 O   0  0  0  0  0  0  0  0  0  0  0  0
    5.8267  -12.0915   26.5076 C   0  0  0  0  0  0  0  0  0  0  0  0
    5.5876  -13.3411   26.0123 C   0  0  0  0  0  0  0  0  0  0  0  0
    6.4360  -13.9423   25.1385 C   0  0  0  0  0  0  0  0  0  0  0  0
    7.5737  -13.2766   24.7361 C   0  0  0  0  0  0  0  0  0  0  0  0
    8.4803  -13.9584   23.7780 C   0  0  0  0  0  0  0  0  0  0  0  0
    9.6037  -14.7006   24.4678 C   0  0  2  0  0  0  0  0  0  0  0  0
   10.4220  -15.4282   23.5177 N   0  0  0  0  0  0  0  0  0  0  0  0
    9.0423  -15.6795   25.4306 C   0  0  0  0  0  0  0  0  0  0  0  0
    8.8502  -17.0093   25.0916 O   0  0  0  0  0  0  0  0  0  0  0  0
    7.8406  -12.0087   25.2227 C   0  0  0  0  0  0  0  0  0  0  0  0
    6.9613  -11.4173   26.1117 C   0  0  0  0  0  0  0  0  0  0  0  0
    8.7105  -15.3493   26.6097 O   0  0  0  0  0  0  0  0  0  0  0  0
  2  3  1  0
  2  1  1  6
  4  5  1  0
  4  3  1  0
  6  5  1  0
  7  6  1  0
  8 15  1  0
  8  2  1  0
  9  8  2  0
 11 10  1  0
 11 12  2  0
 13 11  1  0
 14 13  1  6
 14 15  1  0
 16 14  1  0
 17 16  2  0
 19 20  2  0
 19 18  1  0
 21 20  1  0
 22 21  2  0
 24 23  1  6
 23 22  1  0
 24 25  1  0
 25 16  1  0
 26 27  1  0
 26 24  1  0
 28 22  1  0
 28 29  2  0
 29 19  1  0
 30 26  2  0
M  END
$$$$
