KNY.pdb
     RDKit          3D

 30 30  0  0  1  0  0  0  0  0999 V2000
   10.2853  -15.5791   20.5194 N   0  0  0  0  0  0  0  0  0  0  0  0
    9.3374  -15.0558   21.4882 C   0  0  1  0  0  0  0  0  0  0  0  0
    8.1615  -14.5582   20.7552 C   0  0  0  0  0  0  0  0  0  0  0  0
    8.1212  -14.4927   19.2951 C   0  0  0  0  0  0  0  0  0  0  0  0
    7.2504  -13.5435   18.5799 C   0  0  0  0  0  0  0  0  0  0  0  0
    7.2701  -13.6733   17.0996 C   0  0  0  0  0  0  0  0  0  0  0  0
    6.3701  -12.6709   16.5186 N   0  0  0  0  0  0  0  0  0  0  0  0
    8.9310  -16.2931   22.2942 C   0  0  0  0  0  0  0  0  0  0  0  0
    8.2442  -17.1696   21.7774 O   0  0  0  0  0  0  0  0  0  0  0  0
   13.5733  -17.8027   23.1375 N   0  0  0  0  0  0  0  0  0  0  0  0
   13.0649  -16.5885   23.6697 C   0  0  0  0  0  0  0  0  0  0  0  0
   13.7937  -15.9392   24.4633 O   0  0  0  0  0  0  0  0  0  0  0  0
   11.7112  -16.0628   23.3233 C   0  0  0  0  0  0  0  0  0  0  0  0
   10.6333  -16.8813   24.0450 C   0  0  2  0  0  0  0  0  0  0  0  0
    9.3495  -16.4193   23.6308 N   0  0  0  0  0  0  0  0  0  0  0  0
   10.8905  -16.7500   25.4792 C   0  0  0  0  0  0  0  0  0  0  0  0
   12.0378  -16.9925   25.9262 O   0  0  0  0  0  0  0  0  0  0  0  0
    6.6733  -11.6604   24.7997 O   0  0  0  0  0  0  0  0  0  0  0  0
    7.2946  -12.5256   25.7014 C   0  0  0  0  0  0  0  0  0  0  0  0
    6.6560  -13.6795   26.0547 C   0  0  0  0  0  0  0  0  0  0  0  0
    7.2030  -14.5657   26.9266 C   0  0  0  0  0  0  0  0  0  0  0  0
    8.4391  -14.2980   27.4744 C   0  0  0  0  0  0  0  0  0  0  0  0
    9.0124  -15.2870   28.4220 C   0  0  0  0  0  0  0  0  0  0  0  0
   10.1280  -16.1029   27.8066 C   0  0  2  0  0  0  0  0  0  0  0  0
    9.8876  -16.3555   26.3994 N   0  0  0  0  0  0  0  0  0  0  0  0
   10.2305  -17.4131   28.4947 C   0  0  0  0  0  0  0  0  0  0  0  0
    9.9377  -18.6027   27.8472 O   0  0  0  0  0  0  0  0  0  0  0  0
    9.1085  -13.1356   27.1335 C   0  0  0  0  0  0  0  0  0  0  0  0
    8.5307  -12.2485   26.2433 C   0  0  0  0  0  0  0  0  0  0  0  0
   10.5904  -17.5101   29.7073 O   0  0  0  0  0  0  0  0  0  0  0  0
  2  3  1  0
  2  1  1  6
  4  5  1  0
  4  3  1  0
  6  5  1  0
  7  6  1  0
  8 15  1  0
  8  2  1  0
  9  8  2  0
 11 10  1  0
 11 12  2  0
 13 11  1  0
 14 13  1  6
 14 15  1  0
 16 14  1  0
 17 16  2  0
 19 20  2  0
 19 18  1  0
 21 20  1  0
 22 21  2  0
 24 23  1  1
 23 22  1  0
 24 25  1  0
 25 16  1  0
 26 27  1  0
 26 24  1  0
 28 22  1  0
 28 29  2  0
 29 19  1  0
 30 26  2  0
M  END
$$$$
