LQN.pdb
     RDKit          3D

 26 25  0  0  1  0  0  0  0  0999 V2000
   26.4228  -20.2729   -8.8027 C   0  0  0  0  0  0  0  0  0  0  0  0
   25.5416  -20.9503   -9.7925 C   0  0  1  0  0  0  0  0  0  0  0  0
   24.0937  -21.0043   -9.3579 C   0  0  0  0  0  0  0  0  0  0  0  0
   25.7313  -20.5294  -11.2066 C   0  0  0  0  0  0  0  0  0  0  0  0
   24.8570  -21.1553  -12.2212 C   0  0  2  0  0  0  0  0  0  0  0  0
   25.2606  -22.4808  -12.6229 N   0  0  0  0  0  0  0  0  0  0  0  0
   24.8902  -20.3103  -13.4486 C   0  0  0  0  0  0  0  0  0  0  0  0
   24.4575  -19.1224  -13.3298 O   0  0  0  0  0  0  0  0  0  0  0  0
   26.5342  -20.2283  -20.1087 N   0  0  0  0  0  0  0  0  0  0  0  0
   27.2833  -19.7341  -18.9958 C   0  0  0  0  0  0  0  0  0  0  0  0
   28.5385  -19.8906  -19.0619 O   0  0  0  0  0  0  0  0  0  0  0  0
   26.6246  -19.0781  -17.8359 C   0  0  0  0  0  0  0  0  0  0  0  0
   26.5786  -20.0514  -16.7085 C   0  0  0  0  0  0  0  0  0  0  0  0
   25.3772  -19.8854  -15.8156 C   0  0  2  0  0  0  0  0  0  0  0  0
   25.3723  -20.7728  -14.7019 N   0  0  0  0  0  0  0  0  0  0  0  0
   24.1467  -20.1072  -16.6245 C   0  0  0  0  0  0  0  0  0  0  0  0
   23.9034  -19.3849  -17.5988 O   0  0  0  0  0  0  0  0  0  0  0  0
   21.1114  -19.6270  -15.1797 N   0  0  0  0  0  0  0  0  0  0  0  0
   20.5662  -20.9398  -15.1362 C   0  0  0  0  0  0  0  0  0  0  0  0
   19.7216  -21.2235  -14.2621 O   0  0  0  0  0  0  0  0  0  0  0  0
   21.0012  -21.9405  -16.1149 C   0  0  0  0  0  0  0  0  0  0  0  0
   22.1102  -21.4082  -16.9772 C   0  0  2  0  0  0  0  0  0  0  0  0
   23.2938  -21.1891  -16.1982 N   0  0  0  0  0  0  0  0  0  0  0  0
   21.6766  -20.1322  -17.6144 C   0  0  0  0  0  0  0  0  0  0  0  0
   22.2964  -18.9573  -17.2409 O   0  0  0  0  0  0  0  0  0  0  0  0
   20.7662  -20.1555  -18.4681 O   0  0  0  0  0  0  0  0  0  0  0  0
  2  1  1  1
  3  2  1  0
  4  2  1  0
  4  5  1  0
  5  6  1  6
  7  8  2  0
  7  5  1  0
  9 10  1  0
 10 12  1  0
 11 10  2  0
 12 13  1  0
 14 13  1  6
 14 15  1  0
 15  7  1  0
 16 17  2  0
 16 14  1  0
 18 19  1  0
 19 20  2  0
 19 21  1  0
 22 21  1  1
 22 23  1  0
 23 16  1  0
 24 22  1  0
 25 24  1  0
 26 24  2  0
M  END
$$$$
