LQN.pdb
     RDKit          3D

 26 25  0  0  1  0  0  0  0  0999 V2000
   28.7966  -19.6731  -13.4224 C   0  0  0  0  0  0  0  0  0  0  0  0
   27.7258  -20.3154  -12.6123 C   0  0  1  0  0  0  0  0  0  0  0  0
   27.5065  -19.6393  -11.2771 C   0  0  0  0  0  0  0  0  0  0  0  0
   26.4690  -20.6214  -13.3469 C   0  0  0  0  0  0  0  0  0  0  0  0
   25.3455  -21.1762  -12.5621 C   0  0  2  0  0  0  0  0  0  0  0  0
   25.5428  -22.5323  -12.1116 N   0  0  0  0  0  0  0  0  0  0  0  0
   24.1336  -21.1882  -13.4298 C   0  0  0  0  0  0  0  0  0  0  0  0
   24.0123  -22.1756  -14.2190 O   0  0  0  0  0  0  0  0  0  0  0  0
   19.6092  -21.6772  -13.6490 N   0  0  0  0  0  0  0  0  0  0  0  0
   19.1395  -20.7877  -14.6650 C   0  0  0  0  0  0  0  0  0  0  0  0
   18.1810  -21.2160  -15.3737 O   0  0  0  0  0  0  0  0  0  0  0  0
   19.7424  -19.4449  -14.8720 C   0  0  0  0  0  0  0  0  0  0  0  0
   20.9198  -19.3133  -13.9683 C   0  0  0  0  0  0  0  0  0  0  0  0
   22.0622  -20.2268  -14.3271 C   0  0  2  0  0  0  0  0  0  0  0  0
   23.1453  -20.1687  -13.4044 N   0  0  0  0  0  0  0  0  0  0  0  0
   22.5549  -19.8647  -15.6849 C   0  0  0  0  0  0  0  0  0  0  0  0
   23.4840  -19.0586  -15.8156 O   0  0  0  0  0  0  0  0  0  0  0  0
   23.4738  -19.8527  -20.5735 N   0  0  0  0  0  0  0  0  0  0  0  0
   24.1538  -20.7646  -19.7198 C   0  0  0  0  0  0  0  0  0  0  0  0
   25.2084  -21.3029  -20.1147 O   0  0  0  0  0  0  0  0  0  0  0  0
   23.6097  -21.0603  -18.3913 C   0  0  0  0  0  0  0  0  0  0  0  0
   22.4057  -20.2113  -18.0978 C   0  0  2  0  0  0  0  0  0  0  0  0
   21.8886  -20.5037  -16.7928 N   0  0  0  0  0  0  0  0  0  0  0  0
   21.3578  -20.4605  -19.1283 C   0  0  0  0  0  0  0  0  0  0  0  0
   21.3793  -19.7201  -20.2925 O   0  0  0  0  0  0  0  0  0  0  0  0
   20.4878  -21.3301  -18.9154 O   0  0  0  0  0  0  0  0  0  0  0  0
  2  1  1  6
  3  2  1  0
  4  2  1  0
  4  5  1  0
  5  6  1  6
  7  8  2  0
  7  5  1  0
  9 10  1  0
 10 12  1  0
 11 10  2  0
 12 13  1  0
 14 13  1  1
 14 15  1  0
 15  7  1  0
 16 17  2  0
 16 14  1  0
 18 19  1  0
 19 20  2  0
 19 21  1  0
 22 21  1  6
 22 23  1  0
 23 16  1  0
 24 22  1  0
 25 24  1  0
 26 24  2  0
M  END
$$$$
