LQN.pdb
     RDKit          3D

 26 25  0  0  1  0  0  0  0  0999 V2000
   15.4198  -14.0053  -14.8033 C   0  0  0  0  0  0  0  0  0  0  0  0
   15.2361  -12.5498  -15.0540 C   0  0  1  0  0  0  0  0  0  0  0  0
   13.7894  -12.1630  -15.2675 C   0  0  0  0  0  0  0  0  0  0  0  0
   15.9715  -11.6466  -14.1286 C   0  0  0  0  0  0  0  0  0  0  0  0
   15.7503  -10.1932  -14.2848 C   0  0  2  0  0  0  0  0  0  0  0  0
   16.1329   -9.6649  -15.5715 N   0  0  0  0  0  0  0  0  0  0  0  0
   16.5808   -9.4848  -13.2699 C   0  0  0  0  0  0  0  0  0  0  0  0
   16.3690   -9.7865  -12.0547 O   0  0  0  0  0  0  0  0  0  0  0  0
   21.9328   -6.1855  -13.8439 N   0  0  0  0  0  0  0  0  0  0  0  0
   21.5941   -6.0430  -12.4622 C   0  0  0  0  0  0  0  0  0  0  0  0
   22.4081   -5.3725  -11.7606 O   0  0  0  0  0  0  0  0  0  0  0  0
   20.3620   -6.6465  -11.8902 C   0  0  0  0  0  0  0  0  0  0  0  0
   19.5860   -7.2715  -12.9982 C   0  0  0  0  0  0  0  0  0  0  0  0
   18.2648   -7.8472  -12.5608 C   0  0  2  0  0  0  0  0  0  0  0  0
   17.5660   -8.5182  -13.6046 N   0  0  0  0  0  0  0  0  0  0  0  0
   17.4151   -6.7447  -12.0319 C   0  0  0  0  0  0  0  0  0  0  0  0
   16.7906   -6.0123  -12.8088 O   0  0  0  0  0  0  0  0  0  0  0  0
   14.7861   -3.5255   -9.6750 N   0  0  0  0  0  0  0  0  0  0  0  0
   14.2234   -4.7189  -10.2060 C   0  0  0  0  0  0  0  0  0  0  0  0
   13.0032   -4.7580  -10.4655 O   0  0  0  0  0  0  0  0  0  0  0  0
   15.0804   -5.8846  -10.4412 C   0  0  0  0  0  0  0  0  0  0  0  0
   16.5084   -5.5885  -10.0810 C   0  0  2  0  0  0  0  0  0  0  0  0
   17.3794   -6.6038  -10.5970 N   0  0  0  0  0  0  0  0  0  0  0  0
   16.6416   -5.5088   -8.5984 C   0  0  0  0  0  0  0  0  0  0  0  0
   15.9763   -4.5060   -7.9231 O   0  0  0  0  0  0  0  0  0  0  0  0
   17.3491   -6.3478   -8.0038 O   0  0  0  0  0  0  0  0  0  0  0  0
  2  1  1  1
  3  2  1  0
  4  2  1  0
  4  5  1  0
  5  6  1  6
  7  8  2  0
  7  5  1  0
  9 10  1  0
 10 12  1  0
 11 10  2  0
 12 13  1  0
 14 13  1  6
 14 15  1  0
 15  7  1  0
 16 17  2  0
 16 14  1  0
 18 19  1  0
 19 20  2  0
 19 21  1  0
 22 21  1  1
 22 23  1  0
 23 16  1  0
 24 22  1  0
 25 24  1  0
 26 24  2  0
M  END
$$$$
