LQN.pdb
     RDKit          3D

 26 25  0  0  1  0  0  0  0  0999 V2000
   29.7291  -20.1386   -6.1087 C   0  0  0  0  0  0  0  0  0  0  0  0
   28.2420  -20.1830   -6.1504 C   0  0  1  0  0  0  0  0  0  0  0  0
   27.5935  -19.3523   -5.0653 C   0  0  0  0  0  0  0  0  0  0  0  0
   27.6371  -19.9950   -7.4964 C   0  0  0  0  0  0  0  0  0  0  0  0
   26.1699  -20.1419   -7.6045 C   0  0  2  0  0  0  0  0  0  0  0  0
   25.6686  -21.4383   -7.2183 N   0  0  0  0  0  0  0  0  0  0  0  0
   25.7870  -19.9456   -9.0315 C   0  0  0  0  0  0  0  0  0  0  0  0
   26.2776  -18.9298   -9.6146 O   0  0  0  0  0  0  0  0  0  0  0  0
   26.6943  -22.6914  -14.0550 N   0  0  0  0  0  0  0  0  0  0  0  0
   27.3996  -21.6442  -13.3842 C   0  0  0  0  0  0  0  0  0  0  0  0
   28.5910  -21.4478  -13.7670 O   0  0  0  0  0  0  0  0  0  0  0  0
   26.7689  -20.8393  -12.3055 C   0  0  0  0  0  0  0  0  0  0  0  0
   25.3872  -21.3510  -12.0831 C   0  0  0  0  0  0  0  0  0  0  0  0
   24.5946  -20.5400  -11.0920 C   0  0  2  0  0  0  0  0  0  0  0  0
   24.9225  -20.8251   -9.7358 N   0  0  0  0  0  0  0  0  0  0  0  0
   23.1452  -20.8015  -11.3112 C   0  0  0  0  0  0  0  0  0  0  0  0
   22.5773  -21.7137  -10.6984 O   0  0  0  0  0  0  0  0  0  0  0  0
   18.1352  -19.7135  -11.4114 N   0  0  0  0  0  0  0  0  0  0  0  0
   18.8866  -19.0340  -12.4096 C   0  0  0  0  0  0  0  0  0  0  0  0
   18.3055  -18.6047  -13.4274 O   0  0  0  0  0  0  0  0  0  0  0  0
   20.3295  -18.8467  -12.2318 C   0  0  0  0  0  0  0  0  0  0  0  0
   21.0704  -20.1402  -12.4171 C   0  0  2  0  0  0  0  0  0  0  0  0
   22.4814  -19.9402  -12.2585 N   0  0  0  0  0  0  0  0  0  0  0  0
   20.7832  -20.6886  -13.7732 C   0  0  0  0  0  0  0  0  0  0  0  0
   19.6298  -21.4216  -13.9644 O   0  0  0  0  0  0  0  0  0  0  0  0
   21.5894  -20.4729  -14.7014 O   0  0  0  0  0  0  0  0  0  0  0  0
  2  1  1  6
  3  2  1  0
  4  2  1  0
  4  5  1  0
  5  6  1  6
  7  8  2  0
  7  5  1  0
  9 10  1  0
 10 12  1  0
 11 10  2  0
 12 13  1  0
 14 13  1  6
 14 15  1  0
 15  7  1  0
 16 17  2  0
 16 14  1  0
 18 19  1  0
 19 20  2  0
 19 21  1  0
 22 21  1  6
 22 23  1  0
 23 16  1  0
 24 22  1  0
 25 24  1  0
 26 24  2  0
M  END
$$$$
