LQN.pdb
     RDKit          3D

 26 25  0  0  1  0  0  0  0  0999 V2000
   27.1259  -17.9069  -17.4407 C   0  0  0  0  0  0  0  0  0  0  0  0
   25.9803  -17.1938  -16.8128 C   0  0  1  0  0  0  0  0  0  0  0  0
   24.8738  -18.1250  -16.3693 C   0  0  0  0  0  0  0  0  0  0  0  0
   26.3470  -16.1678  -15.8000 C   0  0  0  0  0  0  0  0  0  0  0  0
   25.2454  -15.3815  -15.2050 C   0  0  2  0  0  0  0  0  0  0  0  0
   24.0700  -15.2758  -16.0347 N   0  0  0  0  0  0  0  0  0  0  0  0
   25.7346  -13.9915  -14.9811 C   0  0  0  0  0  0  0  0  0  0  0  0
   26.7916  -13.8681  -14.2883 O   0  0  0  0  0  0  0  0  0  0  0  0
   29.0114  -10.8000  -17.7145 N   0  0  0  0  0  0  0  0  0  0  0  0
   28.6257   -9.7771  -16.7930 C   0  0  0  0  0  0  0  0  0  0  0  0
   29.3820   -8.7620  -16.7469 O   0  0  0  0  0  0  0  0  0  0  0  0
   27.4118   -9.9025  -15.9446 C   0  0  0  0  0  0  0  0  0  0  0  0
   26.8066  -11.2429  -16.1842 C   0  0  0  0  0  0  0  0  0  0  0  0
   25.6512  -11.5564  -15.2703 C   0  0  2  0  0  0  0  0  0  0  0  0
   25.0813  -12.8414  -15.4981 N   0  0  0  0  0  0  0  0  0  0  0  0
   24.6021  -10.5155  -15.4525 C   0  0  0  0  0  0  0  0  0  0  0  0
   24.8795   -9.3191  -15.3043 O   0  0  0  0  0  0  0  0  0  0  0  0
   20.6400  -11.0745  -19.1630 N   0  0  0  0  0  0  0  0  0  0  0  0
   21.2731  -10.2441  -18.1974 C   0  0  0  0  0  0  0  0  0  0  0  0
   21.9508   -9.2679  -18.5792 O   0  0  0  0  0  0  0  0  0  0  0  0
   21.1226  -10.5436  -16.7705 C   0  0  0  0  0  0  0  0  0  0  0  0
   22.2744   -9.9948  -15.9775 C   0  0  2  0  0  0  0  0  0  0  0  0
   23.2873  -10.9943  -15.8018 N   0  0  0  0  0  0  0  0  0  0  0  0
   21.7859   -9.5261  -14.6494 C   0  0  0  0  0  0  0  0  0  0  0  0
   21.3995  -10.4635  -13.7133 O   0  0  0  0  0  0  0  0  0  0  0  0
   21.7378   -8.3010  -14.4150 O   0  0  0  0  0  0  0  0  0  0  0  0
  2  1  1  1
  3  2  1  0
  4  2  1  0
  4  5  1  0
  5  6  1  6
  7  8  2  0
  7  5  1  0
  9 10  1  0
 10 12  1  0
 11 10  2  0
 12 13  1  0
 14 13  1  6
 14 15  1  0
 15  7  1  0
 16 17  2  0
 16 14  1  0
 18 19  1  0
 19 20  2  0
 19 21  1  0
 22 21  1  6
 22 23  1  0
 23 16  1  0
 24 22  1  0
 25 24  1  0
 26 24  2  0
M  END
$$$$
