LQN.pdb
     RDKit          3D

 26 25  0  0  1  0  0  0  0  0999 V2000
   34.3141   -6.4080  -15.5164 C   0  0  0  0  0  0  0  0  0  0  0  0
   34.1104   -7.6713  -16.2766 C   0  0  1  0  0  0  0  0  0  0  0  0
   34.1588   -8.9041  -15.4014 C   0  0  0  0  0  0  0  0  0  0  0  0
   32.9761   -7.6592  -17.2389 C   0  0  0  0  0  0  0  0  0  0  0  0
   32.5992   -8.9489  -17.8556 C   0  0  2  0  0  0  0  0  0  0  0  0
   33.5688   -9.4726  -18.7867 N   0  0  0  0  0  0  0  0  0  0  0  0
   31.3382   -8.7461  -18.6238 C   0  0  0  0  0  0  0  0  0  0  0  0
   31.4619   -8.3107  -19.8103 O   0  0  0  0  0  0  0  0  0  0  0  0
   27.2360  -12.2792  -20.5906 N   0  0  0  0  0  0  0  0  0  0  0  0
   27.4004  -12.2478  -19.1707 C   0  0  0  0  0  0  0  0  0  0  0  0
   26.9678  -13.2590  -18.5424 O   0  0  0  0  0  0  0  0  0  0  0  0
   28.0400  -11.0974  -18.4802 C   0  0  0  0  0  0  0  0  0  0  0  0
   28.3160  -10.0368  -19.4898 C   0  0  0  0  0  0  0  0  0  0  0  0
   28.9005   -8.7797  -18.9013 C   0  0  2  0  0  0  0  0  0  0  0  0
   30.0487   -9.0137  -18.0922 N   0  0  0  0  0  0  0  0  0  0  0  0
   27.8548   -8.1037  -18.0846 C   0  0  0  0  0  0  0  0  0  0  0  0
   27.7678   -8.3318  -16.8719 O   0  0  0  0  0  0  0  0  0  0  0  0
   24.4111   -3.5112  -17.5458 N   0  0  0  0  0  0  0  0  0  0  0  0
   24.2264   -4.8349  -18.0320 C   0  0  0  0  0  0  0  0  0  0  0  0
   23.1580   -5.4329  -17.7895 O   0  0  0  0  0  0  0  0  0  0  0  0
   25.2892   -5.4788  -18.8094 C   0  0  0  0  0  0  0  0  0  0  0  0
   25.9654   -6.5578  -18.0124 C   0  0  2  0  0  0  0  0  0  0  0  0
   26.9848   -7.1969  -18.7922 N   0  0  0  0  0  0  0  0  0  0  0  0
   24.9540   -7.5620  -17.5756 C   0  0  0  0  0  0  0  0  0  0  0  0
   24.3689   -7.4209  -16.3339 O   0  0  0  0  0  0  0  0  0  0  0  0
   24.6604   -8.5040  -18.3401 O   0  0  0  0  0  0  0  0  0  0  0  0
  2  1  1  1
  3  2  1  0
  4  2  1  0
  4  5  1  0
  5  6  1  6
  7  8  2  0
  7  5  1  0
  9 10  1  0
 10 12  1  0
 11 10  2  0
 12 13  1  0
 14 13  1  1
 14 15  1  0
 15  7  1  0
 16 17  2  0
 16 14  1  0
 18 19  1  0
 19 20  2  0
 19 21  1  0
 22 21  1  6
 22 23  1  0
 23 16  1  0
 24 22  1  0
 25 24  1  0
 26 24  2  0
M  END
$$$$
