LQN.pdb
     RDKit          3D

 26 25  0  0  1  0  0  0  0  0999 V2000
   18.3664  -15.1965  -15.4825 C   0  0  0  0  0  0  0  0  0  0  0  0
   18.7231  -14.0635  -16.3792 C   0  0  1  0  0  0  0  0  0  0  0  0
   17.5291  -13.4819  -17.1032 C   0  0  0  0  0  0  0  0  0  0  0  0
   19.6247  -13.0406  -15.7846 C   0  0  0  0  0  0  0  0  0  0  0  0
   19.9478  -11.8602  -16.6142 C   0  0  2  0  0  0  0  0  0  0  0  0
   20.6842  -12.1588  -17.8181 N   0  0  0  0  0  0  0  0  0  0  0  0
   20.8043  -10.9453  -15.8074 C   0  0  0  0  0  0  0  0  0  0  0  0
   20.4131  -10.7002  -14.6244 O   0  0  0  0  0  0  0  0  0  0  0  0
   26.8751   -9.8516  -16.2529 N   0  0  0  0  0  0  0  0  0  0  0  0
   26.2331  -10.9566  -15.6119 C   0  0  0  0  0  0  0  0  0  0  0  0
   26.9734  -11.9518  -15.3549 O   0  0  0  0  0  0  0  0  0  0  0  0
   24.7867  -10.9333  -15.2705 C   0  0  0  0  0  0  0  0  0  0  0  0
   24.2361   -9.6003  -15.6453 C   0  0  0  0  0  0  0  0  0  0  0  0
   22.7462   -9.4871  -15.4565 C   0  0  2  0  0  0  0  0  0  0  0  0
   22.0005  -10.3593  -16.2998 N   0  0  0  0  0  0  0  0  0  0  0  0
   22.3367   -8.0802  -15.7218 C   0  0  0  0  0  0  0  0  0  0  0  0
   22.4094   -7.6158  -16.8660 O   0  0  0  0  0  0  0  0  0  0  0  0
   20.0654   -6.5216  -16.9875 N   0  0  0  0  0  0  0  0  0  0  0  0
   19.3705   -6.0265  -15.8497 C   0  0  0  0  0  0  0  0  0  0  0  0
   18.1293   -5.9031  -15.8960 O   0  0  0  0  0  0  0  0  0  0  0  0
   20.1176   -5.6682  -14.6406 C   0  0  0  0  0  0  0  0  0  0  0  0
   21.5848   -5.9433  -14.8092 C   0  0  2  0  0  0  0  0  0  0  0  0
   21.8668   -7.3308  -14.5828 N   0  0  0  0  0  0  0  0  0  0  0  0
   22.3617   -5.1034  -13.8536 C   0  0  0  0  0  0  0  0  0  0  0  0
   22.3507   -3.7325  -14.0109 O   0  0  0  0  0  0  0  0  0  0  0  0
   23.0022   -5.6571  -12.9364 O   0  0  0  0  0  0  0  0  0  0  0  0
  2  1  1  1
  3  2  1  0
  4  2  1  0
  4  5  1  0
  5  6  1  6
  7  8  2  0
  7  5  1  0
  9 10  1  0
 10 12  1  0
 11 10  2  0
 12 13  1  0
 14 13  1  6
 14 15  1  0
 15  7  1  0
 16 17  2  0
 16 14  1  0
 18 19  1  0
 19 20  2  0
 19 21  1  0
 22 21  1  1
 22 23  1  0
 23 16  1  0
 24 22  1  0
 25 24  1  0
 26 24  2  0
M  END
$$$$
