LQN.pdb
     RDKit          3D

 26 25  0  0  1  0  0  0  0  0999 V2000
   29.3184  -20.4759   -5.8694 C   0  0  0  0  0  0  0  0  0  0  0  0
   27.9049  -20.1457   -6.1983 C   0  0  1  0  0  0  0  0  0  0  0  0
   27.4723  -18.7970   -5.6673 C   0  0  0  0  0  0  0  0  0  0  0  0
   27.5047  -20.3949   -7.6092 C   0  0  0  0  0  0  0  0  0  0  0  0
   26.0977  -20.1207   -7.9711 C   0  0  2  0  0  0  0  0  0  0  0  0
   25.1584  -21.1173   -7.5178 N   0  0  0  0  0  0  0  0  0  0  0  0
   25.9982  -20.0873   -9.4579 C   0  0  0  0  0  0  0  0  0  0  0  0
   26.6748  -19.1909  -10.0505 O   0  0  0  0  0  0  0  0  0  0  0  0
   25.3742  -24.0718  -14.0996 N   0  0  0  0  0  0  0  0  0  0  0  0
   26.0314  -22.8953  -14.5770 C   0  0  0  0  0  0  0  0  0  0  0  0
   26.3318  -22.8916  -15.8075 O   0  0  0  0  0  0  0  0  0  0  0  0
   26.3403  -21.7507  -13.6804 C   0  0  0  0  0  0  0  0  0  0  0  0
   25.8242  -22.0669  -12.3188 C   0  0  0  0  0  0  0  0  0  0  0  0
   25.1831  -20.8922  -11.6277 C   0  0  2  0  0  0  0  0  0  0  0  0
   25.2004  -20.9922  -10.2073 N   0  0  0  0  0  0  0  0  0  0  0  0
   23.7736  -20.7750  -12.0937 C   0  0  0  0  0  0  0  0  0  0  0  0
   22.8698  -21.3767  -11.5012 O   0  0  0  0  0  0  0  0  0  0  0  0
   20.3193  -18.2857  -16.2778 N   0  0  0  0  0  0  0  0  0  0  0  0
   20.6144  -18.3801  -14.8897 C   0  0  0  0  0  0  0  0  0  0  0  0
   19.6824  -18.3330  -14.0609 O   0  0  0  0  0  0  0  0  0  0  0  0
   22.0047  -18.5309  -14.4507 C   0  0  0  0  0  0  0  0  0  0  0  0
   22.1970  -19.8128  -13.6915 C   0  0  2  0  0  0  0  0  0  0  0  0
   23.5543  -19.9365  -13.2464 N   0  0  0  0  0  0  0  0  0  0  0  0
   21.8405  -20.9670  -14.5651 C   0  0  0  0  0  0  0  0  0  0  0  0
   20.5486  -21.4508  -14.5350 O   0  0  0  0  0  0  0  0  0  0  0  0
   22.7155  -21.4676  -15.3012 O   0  0  0  0  0  0  0  0  0  0  0  0
  2  1  1  6
  3  2  1  0
  4  2  1  0
  4  5  1  0
  5  6  1  6
  7  8  2  0
  7  5  1  0
  9 10  1  0
 10 12  1  0
 11 10  2  0
 12 13  1  0
 14 13  1  6
 14 15  1  0
 15  7  1  0
 16 17  2  0
 16 14  1  0
 18 19  1  0
 19 20  2  0
 19 21  1  0
 22 21  1  6
 22 23  1  0
 23 16  1  0
 24 22  1  0
 25 24  1  0
 26 24  2  0
M  END
$$$$
