LQN.pdb
     RDKit          3D

 26 25  0  0  1  0  0  0  0  0999 V2000
   28.5334  -19.0770   -6.1351 C   0  0  0  0  0  0  0  0  0  0  0  0
   28.1638  -20.2123   -7.0237 C   0  0  1  0  0  0  0  0  0  0  0  0
   27.6915  -21.4312   -6.2626 C   0  0  0  0  0  0  0  0  0  0  0  0
   27.3063  -19.8577   -8.1863 C   0  0  0  0  0  0  0  0  0  0  0  0
   26.9736  -20.9409   -9.1360 C   0  0  2  0  0  0  0  0  0  0  0  0
   28.1177  -21.5831   -9.7355 N   0  0  0  0  0  0  0  0  0  0  0  0
   26.1819  -20.3525  -10.2534 C   0  0  0  0  0  0  0  0  0  0  0  0
   26.6258  -19.2735  -10.7547 O   0  0  0  0  0  0  0  0  0  0  0  0
   29.0162  -20.7723  -13.4047 N   0  0  0  0  0  0  0  0  0  0  0  0
   27.6378  -21.0069  -13.7033 C   0  0  0  0  0  0  0  0  0  0  0  0
   27.3868  -22.0606  -14.3600 O   0  0  0  0  0  0  0  0  0  0  0  0
   26.5701  -20.0691  -13.2675 C   0  0  0  0  0  0  0  0  0  0  0  0
   25.2865  -20.8218  -13.1876 C   0  0  0  0  0  0  0  0  0  0  0  0
   24.4497  -20.4635  -11.9876 C   0  0  2  0  0  0  0  0  0  0  0  0
   24.9903  -20.9373  -10.7583 N   0  0  0  0  0  0  0  0  0  0  0  0
   23.0840  -21.0275  -12.1723 C   0  0  0  0  0  0  0  0  0  0  0  0
   22.7932  -22.1268  -11.6853 O   0  0  0  0  0  0  0  0  0  0  0  0
   17.7050  -19.8735  -14.2322 N   0  0  0  0  0  0  0  0  0  0  0  0
   18.4556  -20.1130  -13.0481 C   0  0  0  0  0  0  0  0  0  0  0  0
   17.9340  -20.7517  -12.1111 O   0  0  0  0  0  0  0  0  0  0  0  0
   19.8278  -19.6085  -12.9427 C   0  0  0  0  0  0  0  0  0  0  0  0
   20.8256  -20.7261  -13.0517 C   0  0  2  0  0  0  0  0  0  0  0  0
   22.1626  -20.2216  -12.9347 N   0  0  0  0  0  0  0  0  0  0  0  0
   20.6557  -21.4191  -14.3606 C   0  0  0  0  0  0  0  0  0  0  0  0
   21.5501  -21.1516  -15.3767 O   0  0  0  0  0  0  0  0  0  0  0  0
   19.7118  -22.2228  -14.5071 O   0  0  0  0  0  0  0  0  0  0  0  0
  2  1  1  1
  3  2  1  0
  4  2  1  0
  4  5  1  0
  5  6  1  6
  7  8  2  0
  7  5  1  0
  9 10  1  0
 10 12  1  0
 11 10  2  0
 12 13  1  0
 14 13  1  6
 14 15  1  0
 15  7  1  0
 16 17  2  0
 16 14  1  0
 18 19  1  0
 19 20  2  0
 19 21  1  0
 22 21  1  6
 22 23  1  0
 23 16  1  0
 24 22  1  0
 25 24  1  0
 26 24  2  0
M  END
$$$$
