LQN.pdb
     RDKit          3D

 26 25  0  0  1  0  0  0  0  0999 V2000
   32.1463  -21.6198  -12.5213 C   0  0  0  0  0  0  0  0  0  0  0  0
   31.1998  -20.9927  -13.4836 C   0  0  1  0  0  0  0  0  0  0  0  0
   31.7559  -20.9004  -14.8873 C   0  0  0  0  0  0  0  0  0  0  0  0
   29.8015  -21.4965  -13.4210 C   0  0  0  0  0  0  0  0  0  0  0  0
   28.7344  -20.5893  -13.8945 C   0  0  2  0  0  0  0  0  0  0  0  0
   28.8225  -19.2436  -13.3823 N   0  0  0  0  0  0  0  0  0  0  0  0
   27.4245  -21.1337  -13.4371 C   0  0  0  0  0  0  0  0  0  0  0  0
   27.1096  -22.2865  -13.8665 O   0  0  0  0  0  0  0  0  0  0  0  0
   24.3956  -20.5717   -8.0984 N   0  0  0  0  0  0  0  0  0  0  0  0
   25.7449  -20.3246   -8.5014 C   0  0  0  0  0  0  0  0  0  0  0  0
   26.5279  -19.9214   -7.5910 O   0  0  0  0  0  0  0  0  0  0  0  0
   26.1952  -20.5299   -9.9030 C   0  0  0  0  0  0  0  0  0  0  0  0
   25.0167  -20.9307  -10.7219 C   0  0  0  0  0  0  0  0  0  0  0  0
   25.3105  -21.0299  -12.1958 C   0  0  2  0  0  0  0  0  0  0  0  0
   26.5479  -20.4313  -12.5681 N   0  0  0  0  0  0  0  0  0  0  0  0
   24.2040  -20.3770  -12.9484 C   0  0  0  0  0  0  0  0  0  0  0  0
   24.4260  -19.3724  -13.6353 O   0  0  0  0  0  0  0  0  0  0  0  0
   21.4804  -19.4678  -17.2158 N   0  0  0  0  0  0  0  0  0  0  0  0
   21.1519  -19.9878  -15.9335 C   0  0  0  0  0  0  0  0  0  0  0  0
   19.9671  -19.9498  -15.5424 O   0  0  0  0  0  0  0  0  0  0  0  0
   22.2048  -20.5600  -15.0894 C   0  0  0  0  0  0  0  0  0  0  0  0
   21.8602  -20.4328  -13.6328 C   0  0  2  0  0  0  0  0  0  0  0  0
   22.9028  -20.9851  -12.8180 N   0  0  0  0  0  0  0  0  0  0  0  0
   20.5750  -21.1378  -13.3620 C   0  0  0  0  0  0  0  0  0  0  0  0
   20.5500  -22.5168  -13.4048 O   0  0  0  0  0  0  0  0  0  0  0  0
   19.5544  -20.4672  -13.1035 O   0  0  0  0  0  0  0  0  0  0  0  0
  2  1  1  1
  3  2  1  0
  4  2  1  0
  4  5  1  0
  5  6  1  1
  7  8  2  0
  7  5  1  0
  9 10  1  0
 10 12  1  0
 11 10  2  0
 12 13  1  0
 14 13  1  1
 14 15  1  0
 15  7  1  0
 16 17  2  0
 16 14  1  0
 18 19  1  0
 19 20  2  0
 19 21  1  0
 22 21  1  6
 22 23  1  0
 23 16  1  0
 24 22  1  0
 25 24  1  0
 26 24  2  0
M  END
$$$$
