LQN.pdb
     RDKit          3D

 26 25  0  0  1  0  0  0  0  0999 V2000
   21.3465  -14.2674  -20.8417 C   0  0  0  0  0  0  0  0  0  0  0  0
   21.4180  -13.9623  -19.3867 C   0  0  1  0  0  0  0  0  0  0  0  0
   22.4841  -14.7574  -18.6660 C   0  0  0  0  0  0  0  0  0  0  0  0
   21.4053  -12.5162  -19.0381 C   0  0  0  0  0  0  0  0  0  0  0  0
   21.3756  -12.1675  -17.6017 C   0  0  2  0  0  0  0  0  0  0  0  0
   20.5828  -13.0555  -16.7869 N   0  0  0  0  0  0  0  0  0  0  0  0
   20.7717  -10.8117  -17.4648 C   0  0  0  0  0  0  0  0  0  0  0  0
   21.2759   -9.8925  -18.1814 O   0  0  0  0  0  0  0  0  0  0  0  0
   14.9395   -9.3210  -15.8672 N   0  0  0  0  0  0  0  0  0  0  0  0
   15.5305   -8.0455  -16.1278 C   0  0  0  0  0  0  0  0  0  0  0  0
   14.7426   -7.0543  -16.0920 O   0  0  0  0  0  0  0  0  0  0  0  0
   16.9801   -7.8979  -16.4216 C   0  0  0  0  0  0  0  0  0  0  0  0
   17.6121   -9.2459  -16.3614 C   0  0  0  0  0  0  0  0  0  0  0  0
   19.0953   -9.2301  -16.6231 C   0  0  2  0  0  0  0  0  0  0  0  0
   19.6899  -10.5237  -16.5909 N   0  0  0  0  0  0  0  0  0  0  0  0
   19.7507   -8.3639  -15.6045 C   0  0  0  0  0  0  0  0  0  0  0  0
   20.0374   -8.8199  -14.4909 O   0  0  0  0  0  0  0  0  0  0  0  0
   21.9715   -4.5174  -13.3178 N   0  0  0  0  0  0  0  0  0  0  0  0
   22.7162   -5.0134  -14.4235 C   0  0  0  0  0  0  0  0  0  0  0  0
   23.8981   -4.6443  -14.5808 O   0  0  0  0  0  0  0  0  0  0  0  0
   22.0887   -5.9486  -15.3616 C   0  0  0  0  0  0  0  0  0  0  0  0
   20.6411   -6.1651  -15.0238 C   0  0  2  0  0  0  0  0  0  0  0  0
   20.0146   -7.0035  -16.0038 N   0  0  0  0  0  0  0  0  0  0  0  0
   19.9431   -4.8496  -14.9581 C   0  0  0  0  0  0  0  0  0  0  0  0
   20.1351   -4.0485  -13.8511 O   0  0  0  0  0  0  0  0  0  0  0  0
   19.2036   -4.5038  -15.9024 O   0  0  0  0  0  0  0  0  0  0  0  0
  2  1  1  6
  3  2  1  0
  4  2  1  0
  4  5  1  0
  5  6  1  1
  7  8  2  0
  7  5  1  0
  9 10  1  0
 10 12  1  0
 11 10  2  0
 12 13  1  0
 14 13  1  1
 14 15  1  0
 15  7  1  0
 16 17  2  0
 16 14  1  0
 18 19  1  0
 19 20  2  0
 19 21  1  0
 22 21  1  6
 22 23  1  0
 23 16  1  0
 24 22  1  0
 25 24  1  0
 26 24  2  0
M  END
$$$$
