LQN.pdb
     RDKit          3D

 26 25  0  0  1  0  0  0  0  0999 V2000
   22.4198  -18.0098  -16.4470 C   0  0  0  0  0  0  0  0  0  0  0  0
   22.7688  -16.5795  -16.6652 C   0  0  1  0  0  0  0  0  0  0  0  0
   24.0834  -16.3940  -17.3901 C   0  0  0  0  0  0  0  0  0  0  0  0
   21.6667  -15.7279  -17.1877 C   0  0  0  0  0  0  0  0  0  0  0  0
   21.8685  -14.2637  -17.1513 C   0  0  2  0  0  0  0  0  0  0  0  0
   22.7137  -13.8030  -16.0768 N   0  0  0  0  0  0  0  0  0  0  0  0
   20.5405  -13.6161  -16.9556 C   0  0  0  0  0  0  0  0  0  0  0  0
   19.5410  -14.2080  -17.4687 O   0  0  0  0  0  0  0  0  0  0  0  0
   17.0384  -14.7346  -13.9251 N   0  0  0  0  0  0  0  0  0  0  0  0
   16.9350  -14.8311  -15.3478 C   0  0  0  0  0  0  0  0  0  0  0  0
   16.3531  -15.8657  -15.7901 O   0  0  0  0  0  0  0  0  0  0  0  0
   17.4782  -13.7797  -16.2471 C   0  0  0  0  0  0  0  0  0  0  0  0
   18.0779  -12.7053  -15.4065 C   0  0  0  0  0  0  0  0  0  0  0  0
   19.0589  -11.8351  -16.1473 C   0  0  2  0  0  0  0  0  0  0  0  0
   20.3617  -12.4025  -16.2400 N   0  0  0  0  0  0  0  0  0  0  0  0
   19.1455  -10.5186  -15.4570 C   0  0  0  0  0  0  0  0  0  0  0  0
   18.9586  -10.4419  -14.2366 O   0  0  0  0  0  0  0  0  0  0  0  0
   22.6742   -6.8134  -13.7598 N   0  0  0  0  0  0  0  0  0  0  0  0
   21.3087   -7.0740  -14.0603 C   0  0  0  0  0  0  0  0  0  0  0  0
   20.4453   -6.2181  -13.7777 O   0  0  0  0  0  0  0  0  0  0  0  0
   20.9331   -8.3403  -14.6958 C   0  0  0  0  0  0  0  0  0  0  0  0
   19.7555   -8.1587  -15.6107 C   0  0  2  0  0  0  0  0  0  0  0  0
   19.4527   -9.3835  -16.2919 N   0  0  0  0  0  0  0  0  0  0  0  0
   20.0557   -7.0860  -16.6014 C   0  0  0  0  0  0  0  0  0  0  0  0
   20.0842   -7.4076  -17.9430 O   0  0  0  0  0  0  0  0  0  0  0  0
   20.2734   -5.9255  -16.1963 O   0  0  0  0  0  0  0  0  0  0  0  0
  2  1  1  6
  3  2  1  0
  4  2  1  0
  4  5  1  0
  5  6  1  1
  7  8  2  0
  7  5  1  0
  9 10  1  0
 10 12  1  0
 11 10  2  0
 12 13  1  0
 14 13  1  1
 14 15  1  0
 15  7  1  0
 16 17  2  0
 16 14  1  0
 18 19  1  0
 19 20  2  0
 19 21  1  0
 22 21  1  1
 22 23  1  0
 23 16  1  0
 24 22  1  0
 25 24  1  0
 26 24  2  0
M  END
$$$$
