LQN.pdb
     RDKit          3D

 26 25  0  0  1  0  0  0  0  0999 V2000
   27.2371  -17.9673  -18.0691 C   0  0  0  0  0  0  0  0  0  0  0  0
   27.8927  -18.7591  -16.9927 C   0  0  1  0  0  0  0  0  0  0  0  0
   28.6667  -17.9031  -16.0148 C   0  0  0  0  0  0  0  0  0  0  0  0
   27.0340  -19.7872  -16.3458 C   0  0  0  0  0  0  0  0  0  0  0  0
   27.6042  -20.5158  -15.1926 C   0  0  2  0  0  0  0  0  0  0  0  0
   28.4156  -21.6548  -15.5467 N   0  0  0  0  0  0  0  0  0  0  0  0
   26.4770  -21.0362  -14.3680 C   0  0  0  0  0  0  0  0  0  0  0  0
   26.0296  -22.1829  -14.6802 O   0  0  0  0  0  0  0  0  0  0  0  0
   25.1521  -20.5134   -8.3829 N   0  0  0  0  0  0  0  0  0  0  0  0
   26.2686  -21.0548   -9.0933 C   0  0  0  0  0  0  0  0  0  0  0  0
   27.3000  -21.2966   -8.3990 O   0  0  0  0  0  0  0  0  0  0  0  0
   26.2162  -21.3156  -10.5557 C   0  0  0  0  0  0  0  0  0  0  0  0
   24.9307  -20.7781  -11.0839 C   0  0  0  0  0  0  0  0  0  0  0  0
   24.8028  -20.8801  -12.5811 C   0  0  2  0  0  0  0  0  0  0  0  0
   25.9068  -20.3182  -13.2835 N   0  0  0  0  0  0  0  0  0  0  0  0
   23.5518  -20.1905  -13.0016 C   0  0  0  0  0  0  0  0  0  0  0  0
   23.6005  -19.0534  -13.4862 O   0  0  0  0  0  0  0  0  0  0  0  0
   19.9751  -20.6947  -17.0368 N   0  0  0  0  0  0  0  0  0  0  0  0
   20.3992  -20.0400  -15.8475 C   0  0  0  0  0  0  0  0  0  0  0  0
   19.8403  -18.9796  -15.4996 O   0  0  0  0  0  0  0  0  0  0  0  0
   21.4837  -20.6165  -15.0475 C   0  0  0  0  0  0  0  0  0  0  0  0
   21.1978  -20.4921  -13.5780 C   0  0  2  0  0  0  0  0  0  0  0  0
   22.3262  -20.9249  -12.8064 N   0  0  0  0  0  0  0  0  0  0  0  0
   20.0007  -21.3106  -13.2327 C   0  0  0  0  0  0  0  0  0  0  0  0
   18.9117  -20.6880  -12.6578 O   0  0  0  0  0  0  0  0  0  0  0  0
   20.0107  -22.5360  -13.4705 O   0  0  0  0  0  0  0  0  0  0  0  0
  2  1  1  1
  3  2  1  0
  4  2  1  0
  4  5  1  0
  5  6  1  6
  7  8  2  0
  7  5  1  0
  9 10  1  0
 10 12  1  0
 11 10  2  0
 12 13  1  0
 14 13  1  1
 14 15  1  0
 15  7  1  0
 16 17  2  0
 16 14  1  0
 18 19  1  0
 19 20  2  0
 19 21  1  0
 22 21  1  6
 22 23  1  0
 23 16  1  0
 24 22  1  0
 25 24  1  0
 26 24  2  0
M  END
$$$$
