QCV.pdb
     RDKit          3D

 23 22  0  0  1  0  0  0  0  0999 V2000
    6.0743  -18.2796   23.4290 N   0  0  0  0  0  0  0  0  0  0  0  0
    7.2450  -18.4412   22.6161 C   0  0  0  0  0  0  0  0  0  0  0  0
    7.8751  -19.5275   22.6429 O   0  0  0  0  0  0  0  0  0  0  0  0
    7.6516  -17.3175   21.7797 C   0  0  0  0  0  0  0  0  0  0  0  0
    6.7906  -16.1182   21.8371 C   0  0  0  0  0  0  0  0  0  0  0  0
    7.4897  -14.7916   21.8584 C   0  0  2  0  0  0  0  0  0  0  0  0
    8.5183  -14.6656   20.8803 N   0  0  0  0  0  0  0  0  0  0  0  0
    7.9431  -14.5137   23.2310 C   0  0  0  0  0  0  0  0  0  0  0  0
    9.1734  -14.5981   23.4990 O   0  0  0  0  0  0  0  0  0  0  0  0
    7.0887  -14.1620   24.2610 N   0  0  0  0  0  0  0  0  0  0  0  0
    7.4957  -13.8200   25.6072 C   0  0  1  0  0  0  0  0  0  0  0  0
    6.3882  -13.3336   26.4707 C   0  0  0  0  0  0  0  0  0  0  0  0
    5.6035  -11.8346   25.8285 S   0  0  0  0  0  0  0  0  0  0  0  0
    8.1144  -15.0040   26.2301 C   0  0  0  0  0  0  0  0  0  0  0  0
    7.7771  -16.1857   25.9440 O   0  0  0  0  0  0  0  0  0  0  0  0
   12.6697  -16.0445   27.4733 C   0  0  0  0  0  0  0  0  0  0  0  0
   11.4865  -15.1539   27.2561 C   0  0  2  0  0  0  0  0  0  0  0  0
   11.6361  -13.9496   28.1525 C   0  0  0  0  0  0  0  0  0  0  0  0
   10.1651  -15.8309   27.4307 C   0  0  2  0  0  0  0  0  0  0  0  0
    9.1294  -14.8440   27.1906 N   0  0  0  0  0  0  0  0  0  0  0  0
   10.0016  -16.4914   28.7424 C   0  0  0  0  0  0  0  0  0  0  0  0
    9.1411  -15.9942   29.7212 O   0  0  0  0  0  0  0  0  0  0  0  0
   10.6392  -17.5216   29.0041 O   0  0  0  0  0  0  0  0  0  0  0  0
  1  2  1  0
  2  3  2  0
  4  5  1  0
  4  2  1  0
  6  5  1  0
  6  8  1  0
  6  7  1  6
  8  9  2  0
 10 11  1  0
 10  8  1  0
 11 12  1  1
 13 12  1  0
 14 11  1  0
 14 15  2  0
 17 16  1  1
 17 19  1  0
 18 17  1  0
 19 20  1  1
 19 21  1  0
 20 14  1  0
 21 23  2  0
 21 22  1  0
M  END
$$$$
