QCV.pdb
     RDKit          3D

 23 22  0  0  1  0  0  0  0  0999 V2000
    5.1406  -18.1084   21.5245 N   0  0  0  0  0  0  0  0  0  0  0  0
    6.4844  -18.0113   21.0324 C   0  0  0  0  0  0  0  0  0  0  0  0
    7.0452  -19.0272   20.5517 O   0  0  0  0  0  0  0  0  0  0  0  0
    7.1446  -16.7129   21.1117 C   0  0  0  0  0  0  0  0  0  0  0  0
    6.3473  -15.6115   21.6895 C   0  0  0  0  0  0  0  0  0  0  0  0
    6.9678  -14.2465   21.6574 C   0  0  2  0  0  0  0  0  0  0  0  0
    7.6026  -13.9301   20.4216 N   0  0  0  0  0  0  0  0  0  0  0  0
    7.8467  -14.0948   22.8284 C   0  0  0  0  0  0  0  0  0  0  0  0
    9.0893  -14.2661   22.6883 O   0  0  0  0  0  0  0  0  0  0  0  0
    7.3859  -13.7728   24.0927 N   0  0  0  0  0  0  0  0  0  0  0  0
    8.2111  -13.6237   25.2723 C   0  0  1  0  0  0  0  0  0  0  0  0
    7.6089  -12.7709   26.3302 C   0  0  0  0  0  0  0  0  0  0  0  0
    5.8598  -13.1373   26.6163 S   0  0  0  0  0  0  0  0  0  0  0  0
    8.4917  -14.9606   25.8261 C   0  0  0  0  0  0  0  0  0  0  0  0
    7.6425  -15.8937   25.8316 O   0  0  0  0  0  0  0  0  0  0  0  0
   11.2019  -17.2201   24.8235 C   0  0  0  0  0  0  0  0  0  0  0  0
   11.3415  -17.0099   26.2988 C   0  0  2  0  0  0  0  0  0  0  0  0
   11.8561  -18.2908   26.9077 C   0  0  0  0  0  0  0  0  0  0  0  0
   10.0996  -16.5203   26.9719 C   0  0  2  0  0  0  0  0  0  0  0  0
    9.7533  -15.2416   26.3810 N   0  0  0  0  0  0  0  0  0  0  0  0
   10.2124  -16.4337   28.4427 C   0  0  0  0  0  0  0  0  0  0  0  0
   10.1394  -17.5618   29.2600 O   0  0  0  0  0  0  0  0  0  0  0  0
   10.3775  -15.3342   28.9905 O   0  0  0  0  0  0  0  0  0  0  0  0
  1  2  1  0
  2  3  2  0
  4  5  1  0
  4  2  1  0
  6  5  1  0
  6  8  1  0
  6  7  1  6
  8  9  2  0
 10 11  1  0
 10  8  1  0
 11 12  1  1
 13 12  1  0
 14 11  1  0
 14 15  2  0
 17 16  1  6
 17 19  1  0
 18 17  1  0
 19 20  1  6
 19 21  1  0
 20 14  1  0
 21 23  2  0
 21 22  1  0
M  END
$$$$
