QCV.pdb
     RDKit          3D

 23 22  0  0  1  0  0  0  0  0999 V2000
    4.5905  -18.2719   20.5814 N   0  0  0  0  0  0  0  0  0  0  0  0
    5.9354  -18.4447   20.1136 C   0  0  0  0  0  0  0  0  0  0  0  0
    6.3210  -19.5787   19.7355 O   0  0  0  0  0  0  0  0  0  0  0  0
    6.8041  -17.2731   20.0957 C   0  0  0  0  0  0  0  0  0  0  0  0
    6.1867  -15.9984   20.5164 C   0  0  0  0  0  0  0  0  0  0  0  0
    7.0791  -14.7932   20.5279 C   0  0  2  0  0  0  0  0  0  0  0  0
    7.7893  -14.5893   19.3094 N   0  0  0  0  0  0  0  0  0  0  0  0
    7.9479  -14.8545   21.7144 C   0  0  0  0  0  0  0  0  0  0  0  0
    9.1571  -15.1870   21.5721 O   0  0  0  0  0  0  0  0  0  0  0  0
    7.5121  -14.5673   22.9959 N   0  0  0  0  0  0  0  0  0  0  0  0
    8.3480  -14.5324   24.1769 C   0  0  1  0  0  0  0  0  0  0  0  0
    7.7159  -13.8711   25.3482 C   0  0  0  0  0  0  0  0  0  0  0  0
    5.9195  -14.0860   25.3911 S   0  0  0  0  0  0  0  0  0  0  0  0
    8.7160  -15.9134   24.5377 C   0  0  0  0  0  0  0  0  0  0  0  0
    7.9334  -16.8925   24.3937 O   0  0  0  0  0  0  0  0  0  0  0  0
   11.8583  -17.5524   23.3196 C   0  0  0  0  0  0  0  0  0  0  0  0
   11.8099  -17.6942   24.8089 C   0  0  2  0  0  0  0  0  0  0  0  0
   12.4291  -19.0208   25.1733 C   0  0  0  0  0  0  0  0  0  0  0  0
   10.4479  -17.5218   25.4005 C   0  0  2  0  0  0  0  0  0  0  0  0
    9.9895  -16.1860   25.0690 N   0  0  0  0  0  0  0  0  0  0  0  0
   10.3922  -17.7770   26.8549 C   0  0  0  0  0  0  0  0  0  0  0  0
   10.1920  -19.0551   27.3767 O   0  0  0  0  0  0  0  0  0  0  0  0
   10.5251  -16.8410   27.6564 O   0  0  0  0  0  0  0  0  0  0  0  0
  1  2  1  0
  2  3  2  0
  4  5  1  0
  4  2  1  0
  6  5  1  0
  6  8  1  0
  6  7  1  6
  8  9  2  0
 10 11  1  0
 10  8  1  0
 11 12  1  1
 13 12  1  0
 14 11  1  0
 14 15  2  0
 17 16  1  6
 17 19  1  0
 18 17  1  0
 19 20  1  1
 19 21  1  0
 20 14  1  0
 21 23  2  0
 21 22  1  0
M  END
$$$$
