QCV.pdb
     RDKit          3D

 23 22  0  0  1  0  0  0  0  0999 V2000
   14.2620  -16.9675   21.0413 N   0  0  0  0  0  0  0  0  0  0  0  0
   13.1344  -17.2788   21.8714 C   0  0  0  0  0  0  0  0  0  0  0  0
   13.3202  -17.7446   23.0230 O   0  0  0  0  0  0  0  0  0  0  0  0
   11.8030  -17.0309   21.3295 C   0  0  0  0  0  0  0  0  0  0  0  0
   10.8537  -18.1613   21.3921 C   0  0  0  0  0  0  0  0  0  0  0  0
    9.4736  -17.9076   20.8629 C   0  0  2  0  0  0  0  0  0  0  0  0
    9.4464  -17.4765   19.5050 N   0  0  0  0  0  0  0  0  0  0  0  0
    8.7690  -17.0013   21.7842 C   0  0  0  0  0  0  0  0  0  0  0  0
    8.6414  -15.7856   21.4701 O   0  0  0  0  0  0  0  0  0  0  0  0
    8.2317  -17.4073   22.9930 N   0  0  0  0  0  0  0  0  0  0  0  0
    7.3446  -16.6198   23.8221 C   0  0  1  0  0  0  0  0  0  0  0  0
    6.3762  -17.4258   24.6107 C   0  0  0  0  0  0  0  0  0  0  0  0
    7.1834  -18.5417   25.7847 S   0  0  0  0  0  0  0  0  0  0  0  0
    8.1568  -15.8006   24.7398 C   0  0  0  0  0  0  0  0  0  0  0  0
    9.3572  -16.0694   25.0203 O   0  0  0  0  0  0  0  0  0  0  0  0
    6.2025  -12.5669   26.8627 C   0  0  0  0  0  0  0  0  0  0  0  0
    7.6249  -12.5283   26.3985 C   0  0  2  0  0  0  0  0  0  0  0  0
    7.6650  -11.8117   25.0714 C   0  0  0  0  0  0  0  0  0  0  0  0
    8.2913  -13.8653   26.3421 C   0  0  2  0  0  0  0  0  0  0  0  0
    7.5984  -14.6611   25.3467 N   0  0  0  0  0  0  0  0  0  0  0  0
    8.3584  -14.5544   27.6475 C   0  0  0  0  0  0  0  0  0  0  0  0
    9.2321  -14.1488   28.6564 O   0  0  0  0  0  0  0  0  0  0  0  0
    7.6243  -15.5265   27.8764 O   0  0  0  0  0  0  0  0  0  0  0  0
  1  2  1  0
  2  3  2  0
  4  5  1  0
  4  2  1  0
  6  5  1  0
  6  8  1  0
  6  7  1  6
  8  9  2  0
 10 11  1  0
 10  8  1  0
 11 12  1  1
 13 12  1  0
 14 11  1  0
 14 15  2  0
 17 16  1  6
 17 19  1  0
 18 17  1  0
 19 20  1  6
 19 21  1  0
 20 14  1  0
 21 23  2  0
 21 22  1  0
M  END
$$$$
