QCV.pdb
     RDKit          3D

 23 22  0  0  1  0  0  0  0  0999 V2000
    9.7626  -18.6654   16.0374 N   0  0  0  0  0  0  0  0  0  0  0  0
    8.7809  -17.6519   16.2952 C   0  0  0  0  0  0  0  0  0  0  0  0
    8.5396  -16.7835   15.4203 O   0  0  0  0  0  0  0  0  0  0  0  0
    8.0953  -17.6822   17.5823 C   0  0  0  0  0  0  0  0  0  0  0  0
    8.5023  -16.6531   18.5611 C   0  0  0  0  0  0  0  0  0  0  0  0
    9.1227  -17.1469   19.8340 C   0  0  2  0  0  0  0  0  0  0  0  0
    9.3311  -18.5562   19.8656 N   0  0  0  0  0  0  0  0  0  0  0  0
    8.3407  -16.6401   20.9734 C   0  0  0  0  0  0  0  0  0  0  0  0
    7.9245  -15.4489   20.9497 O   0  0  0  0  0  0  0  0  0  0  0  0
    8.0313  -17.4016   22.0865 N   0  0  0  0  0  0  0  0  0  0  0  0
    7.2059  -16.9695   23.1941 C   0  0  1  0  0  0  0  0  0  0  0  0
    6.6569  -18.0824   24.0120 C   0  0  0  0  0  0  0  0  0  0  0  0
    5.6190  -17.5047   25.3773 S   0  0  0  0  0  0  0  0  0  0  0  0
    8.0008  -16.0774   24.0573 C   0  0  0  0  0  0  0  0  0  0  0  0
    9.2573  -16.1491   24.1469 O   0  0  0  0  0  0  0  0  0  0  0  0
    6.7454  -12.2800   24.8911 C   0  0  0  0  0  0  0  0  0  0  0  0
    7.1609  -13.0814   26.0850 C   0  0  2  0  0  0  0  0  0  0  0  0
    7.7722  -12.1388   27.0919 C   0  0  0  0  0  0  0  0  0  0  0  0
    8.0573  -14.2358   25.7708 C   0  0  2  0  0  0  0  0  0  0  0  0
    7.3604  -15.0909   24.8288 N   0  0  0  0  0  0  0  0  0  0  0  0
    8.5076  -14.9836   26.9631 C   0  0  0  0  0  0  0  0  0  0  0  0
    9.6960  -14.6769   27.6260 O   0  0  0  0  0  0  0  0  0  0  0  0
    7.8240  -15.9175   27.4067 O   0  0  0  0  0  0  0  0  0  0  0  0
  1  2  1  0
  2  3  2  0
  4  5  1  0
  4  2  1  0
  6  5  1  0
  6  8  1  0
  6  7  1  6
  8  9  2  0
 10 11  1  0
 10  8  1  0
 11 12  1  1
 13 12  1  0
 14 11  1  0
 14 15  2  0
 17 16  1  6
 17 19  1  0
 18 17  1  0
 19 20  1  6
 19 21  1  0
 20 14  1  0
 21 23  2  0
 21 22  1  0
M  END
$$$$
