QCV.pdb
     RDKit          3D

 23 22  0  0  1  0  0  0  0  0999 V2000
    8.3597  -12.3792   17.5107 N   0  0  0  0  0  0  0  0  0  0  0  0
    8.4209  -13.8073   17.3911 C   0  0  0  0  0  0  0  0  0  0  0  0
    8.7777  -14.3252   16.3038 O   0  0  0  0  0  0  0  0  0  0  0  0
    8.0633  -14.6028   18.5603 C   0  0  0  0  0  0  0  0  0  0  0  0
    8.6576  -14.1767   19.8441 C   0  0  0  0  0  0  0  0  0  0  0  0
    8.9376  -15.2581   20.8448 C   0  0  2  0  0  0  0  0  0  0  0  0
    8.2718  -16.4871   20.5678 N   0  0  0  0  0  0  0  0  0  0  0  0
    8.6759  -14.7364   22.1961 C   0  0  0  0  0  0  0  0  0  0  0  0
    9.0557  -13.5684   22.4863 O   0  0  0  0  0  0  0  0  0  0  0  0
    8.0308  -15.4609   23.1828 N   0  0  0  0  0  0  0  0  0  0  0  0
    7.7889  -15.0042   24.5347 C   0  0  1  0  0  0  0  0  0  0  0  0
    6.4326  -15.3262   25.0503 C   0  0  0  0  0  0  0  0  0  0  0  0
    5.9548  -14.2971   26.4602 S   0  0  0  0  0  0  0  0  0  0  0  0
    8.8018  -15.6002   25.4243 C   0  0  0  0  0  0  0  0  0  0  0  0
    9.4024  -16.6771   25.1568 O   0  0  0  0  0  0  0  0  0  0  0  0
    9.0808  -14.3113   29.5494 C   0  0  0  0  0  0  0  0  0  0  0  0
   10.2762  -14.4938   28.6675 C   0  0  2  0  0  0  0  0  0  0  0  0
   10.6718  -13.1410   28.1292 C   0  0  0  0  0  0  0  0  0  0  0  0
   10.0927  -15.5051   27.5819 C   0  0  2  0  0  0  0  0  0  0  0  0
    9.1371  -14.9649   26.6336 N   0  0  0  0  0  0  0  0  0  0  0  0
    9.6873  -16.8392   28.0714 C   0  0  0  0  0  0  0  0  0  0  0  0
    8.3862  -17.3198   27.9233 O   0  0  0  0  0  0  0  0  0  0  0  0
   10.5126  -17.5725   28.6348 O   0  0  0  0  0  0  0  0  0  0  0  0
  1  2  1  0
  2  3  2  0
  4  5  1  0
  4  2  1  0
  6  5  1  0
  6  8  1  0
  6  7  1  6
  8  9  2  0
 10 11  1  0
 10  8  1  0
 11 12  1  1
 13 12  1  0
 14 11  1  0
 14 15  2  0
 17 16  1  6
 17 19  1  0
 18 17  1  0
 19 20  1  6
 19 21  1  0
 20 14  1  0
 21 23  2  0
 21 22  1  0
M  END
$$$$
