QCV.pdb
     RDKit          3D

 23 22  0  0  1  0  0  0  0  0999 V2000
   11.6133  -13.6213   19.9253 N   0  0  0  0  0  0  0  0  0  0  0  0
   10.8088  -13.8531   18.7607 C   0  0  0  0  0  0  0  0  0  0  0  0
   11.2082  -14.6531   17.8785 O   0  0  0  0  0  0  0  0  0  0  0  0
    9.5411  -13.1388   18.6577 C   0  0  0  0  0  0  0  0  0  0  0  0
    8.4559  -13.6076   19.5439 C   0  0  0  0  0  0  0  0  0  0  0  0
    8.2721  -15.0921   19.6510 C   0  0  2  0  0  0  0  0  0  0  0  0
    7.6710  -15.6836   18.5024 N   0  0  0  0  0  0  0  0  0  0  0  0
    7.5689  -15.3959   20.9079 C   0  0  0  0  0  0  0  0  0  0  0  0
    6.3217  -15.2134   20.9720 O   0  0  0  0  0  0  0  0  0  0  0  0
    8.2023  -15.8748   22.0410 N   0  0  0  0  0  0  0  0  0  0  0  0
    7.5626  -16.1293   23.3140 C   0  0  1  0  0  0  0  0  0  0  0  0
    7.6135  -17.5507   23.7453 C   0  0  0  0  0  0  0  0  0  0  0  0
    6.9616  -17.8018   25.4148 S   0  0  0  0  0  0  0  0  0  0  0  0
    8.2000  -15.2861   24.3414 C   0  0  0  0  0  0  0  0  0  0  0  0
    9.4483  -15.1175   24.4137 O   0  0  0  0  0  0  0  0  0  0  0  0
    6.2087  -12.0852   25.7512 C   0  0  0  0  0  0  0  0  0  0  0  0
    6.8663  -12.8882   26.8296 C   0  0  2  0  0  0  0  0  0  0  0  0
    7.3383  -11.9361   27.9005 C   0  0  0  0  0  0  0  0  0  0  0  0
    7.9587  -13.7884   26.3487 C   0  0  2  0  0  0  0  0  0  0  0  0
    7.4094  -14.6255   25.2990 N   0  0  0  0  0  0  0  0  0  0  0  0
    8.5861  -14.5903   27.4196 C   0  0  0  0  0  0  0  0  0  0  0  0
    9.7058  -14.1437   28.1215 O   0  0  0  0  0  0  0  0  0  0  0  0
    8.1201  -15.6984   27.7216 O   0  0  0  0  0  0  0  0  0  0  0  0
  1  2  1  0
  2  3  2  0
  4  5  1  0
  4  2  1  0
  6  5  1  0
  6  8  1  0
  6  7  1  6
  8  9  2  0
 10 11  1  0
 10  8  1  0
 11 12  1  1
 13 12  1  0
 14 11  1  0
 14 15  2  0
 17 16  1  6
 17 19  1  0
 18 17  1  0
 19 20  1  6
 19 21  1  0
 20 14  1  0
 21 23  2  0
 21 22  1  0
M  END
$$$$
