QCV.pdb
     RDKit          3D

 23 22  0  0  1  0  0  0  0  0999 V2000
    9.7807  -14.2942   18.1900 N   0  0  0  0  0  0  0  0  0  0  0  0
    8.4716  -13.8600   17.7963 C   0  0  0  0  0  0  0  0  0  0  0  0
    8.0760  -14.0647   16.6218 O   0  0  0  0  0  0  0  0  0  0  0  0
    7.6471  -13.1937   18.7983 C   0  0  0  0  0  0  0  0  0  0  0  0
    8.1540  -13.2273   20.1856 C   0  0  0  0  0  0  0  0  0  0  0  0
    7.8349  -14.4546   20.9862 C   0  0  2  0  0  0  0  0  0  0  0  0
    6.4689  -14.8531   20.9119 N   0  0  0  0  0  0  0  0  0  0  0  0
    8.3206  -14.2654   22.3628 C   0  0  0  0  0  0  0  0  0  0  0  0
    9.5316  -13.9628   22.5493 O   0  0  0  0  0  0  0  0  0  0  0  0
    7.5181  -14.4031   23.4815 N   0  0  0  0  0  0  0  0  0  0  0  0
    7.9794  -14.3673   24.8529 C   0  0  1  0  0  0  0  0  0  0  0  0
    6.9936  -13.8004   25.8100 C   0  0  0  0  0  0  0  0  0  0  0  0
    7.6543  -12.4051   26.7544 S   0  0  0  0  0  0  0  0  0  0  0  0
    8.3308  -15.7366   25.2703 C   0  0  0  0  0  0  0  0  0  0  0  0
    7.5284  -16.7068   25.1880 O   0  0  0  0  0  0  0  0  0  0  0  0
   11.4507  -17.4775   24.0703 C   0  0  0  0  0  0  0  0  0  0  0  0
   11.4144  -17.5412   25.5653 C   0  0  2  0  0  0  0  0  0  0  0  0
   12.0361  -18.8475   25.9934 C   0  0  0  0  0  0  0  0  0  0  0  0
   10.0573  -17.3371   26.1582 C   0  0  2  0  0  0  0  0  0  0  0  0
    9.6103  -16.0077   25.7879 N   0  0  0  0  0  0  0  0  0  0  0  0
   10.0070  -17.5467   27.6201 C   0  0  0  0  0  0  0  0  0  0  0  0
    9.9621  -16.4826   28.5209 O   0  0  0  0  0  0  0  0  0  0  0  0
   10.0035  -18.6959   28.0842 O   0  0  0  0  0  0  0  0  0  0  0  0
  1  2  1  0
  2  3  2  0
  4  5  1  0
  4  2  1  0
  6  5  1  0
  6  8  1  0
  6  7  1  1
  8  9  2  0
 10 11  1  0
 10  8  1  0
 11 12  1  1
 13 12  1  0
 14 11  1  0
 14 15  2  0
 17 16  1  6
 17 19  1  0
 18 17  1  0
 19 20  1  1
 19 21  1  0
 20 14  1  0
 21 23  2  0
 21 22  1  0
M  END
$$$$
