QCV.pdb
     RDKit          3D

 23 22  0  0  1  0  0  0  0  0999 V2000
    8.0439  -18.7312   20.2964 N   0  0  0  0  0  0  0  0  0  0  0  0
    7.8358  -17.6557   19.3704 C   0  0  0  0  0  0  0  0  0  0  0  0
    8.4453  -17.6545   18.2720 O   0  0  0  0  0  0  0  0  0  0  0  0
    6.9068  -16.5988   19.7546 C   0  0  0  0  0  0  0  0  0  0  0  0
    7.0447  -16.0794   21.1308 C   0  0  0  0  0  0  0  0  0  0  0  0
    7.2083  -14.5955   21.2739 C   0  0  2  0  0  0  0  0  0  0  0  0
    7.7899  -13.9666   20.1352 N   0  0  0  0  0  0  0  0  0  0  0  0
    7.9191  -14.3134   22.5316 C   0  0  0  0  0  0  0  0  0  0  0  0
    9.1787  -14.2350   22.5194 O   0  0  0  0  0  0  0  0  0  0  0  0
    7.2804  -14.1281   23.7449 N   0  0  0  0  0  0  0  0  0  0  0  0
    7.9341  -13.8050   24.9951 C   0  0  1  0  0  0  0  0  0  0  0  0
    7.1153  -12.9663   25.9090 C   0  0  0  0  0  0  0  0  0  0  0  0
    7.9761  -12.5583   27.4478 S   0  0  0  0  0  0  0  0  0  0  0  0
    8.2952  -15.0599   25.6789 C   0  0  0  0  0  0  0  0  0  0  0  0
    7.4722  -15.9956   25.8765 O   0  0  0  0  0  0  0  0  0  0  0  0
   11.1630  -17.2618   24.7581 C   0  0  0  0  0  0  0  0  0  0  0  0
   11.2982  -16.9267   26.2106 C   0  0  2  0  0  0  0  0  0  0  0  0
   11.8786  -18.1274   26.9160 C   0  0  0  0  0  0  0  0  0  0  0  0
   10.0364  -16.4462   26.8524 C   0  0  2  0  0  0  0  0  0  0  0  0
    9.6082  -15.2547   26.1444 N   0  0  0  0  0  0  0  0  0  0  0  0
   10.1592  -16.2079   28.3056 C   0  0  0  0  0  0  0  0  0  0  0  0
   10.0417  -17.2380   29.2388 O   0  0  0  0  0  0  0  0  0  0  0  0
   10.3734  -15.0642   28.7327 O   0  0  0  0  0  0  0  0  0  0  0  0
  1  2  1  0
  2  3  2  0
  4  5  1  0
  4  2  1  0
  6  5  1  0
  6  8  1  0
  6  7  1  6
  8  9  2  0
 10 11  1  0
 10  8  1  0
 11 12  1  1
 13 12  1  0
 14 11  1  0
 14 15  2  0
 17 16  1  6
 17 19  1  0
 18 17  1  0
 19 20  1  6
 19 21  1  0
 20 14  1  0
 21 23  2  0
 21 22  1  0
M  END
$$$$
