QCV.pdb
     RDKit          3D

 23 22  0  0  1  0  0  0  0  0999 V2000
   10.0280  -16.9385   12.4550 N   0  0  0  0  0  0  0  0  0  0  0  0
    8.9486  -16.6615   13.3582 C   0  0  0  0  0  0  0  0  0  0  0  0
    8.4673  -15.5027   13.4145 O   0  0  0  0  0  0  0  0  0  0  0  0
    8.4509  -17.7599   14.1789 C   0  0  0  0  0  0  0  0  0  0  0  0
    7.3777  -17.4225   15.1366 C   0  0  0  0  0  0  0  0  0  0  0  0
    6.9410  -18.5153   16.0662 C   0  0  2  0  0  0  0  0  0  0  0  0
    5.9336  -19.3652   15.5246 N   0  0  0  0  0  0  0  0  0  0  0  0
    6.5777  -17.9213   17.3630 C   0  0  0  0  0  0  0  0  0  0  0  0
    5.4628  -17.3417   17.4809 O   0  0  0  0  0  0  0  0  0  0  0  0
    7.3979  -17.9587   18.4768 N   0  0  0  0  0  0  0  0  0  0  0  0
    7.0796  -17.3939   19.7708 C   0  0  1  0  0  0  0  0  0  0  0  0
    6.7304  -18.4036   20.8041 C   0  0  0  0  0  0  0  0  0  0  0  0
    7.0499  -20.1009   20.2636 S   0  0  0  0  0  0  0  0  0  0  0  0
    8.2302  -16.5990   20.2366 C   0  0  0  0  0  0  0  0  0  0  0  0
    9.0833  -16.1007   19.4518 O   0  0  0  0  0  0  0  0  0  0  0  0
    7.0339  -13.7495   22.5043 C   0  0  0  0  0  0  0  0  0  0  0  0
    8.2746  -13.9943   21.7037 C   0  0  2  0  0  0  0  0  0  0  0  0
    7.8853  -14.0698   20.2480 C   0  0  0  0  0  0  0  0  0  0  0  0
    9.0662  -15.1844   22.1420 C   0  0  2  0  0  0  0  0  0  0  0  0
    8.4143  -16.3667   21.6116 N   0  0  0  0  0  0  0  0  0  0  0  0
    9.2544  -15.2701   23.6051 C   0  0  0  0  0  0  0  0  0  0  0  0
   10.3427  -14.6809   24.2489 O   0  0  0  0  0  0  0  0  0  0  0  0
    8.4318  -15.8797   24.3037 O   0  0  0  0  0  0  0  0  0  0  0  0
  1  2  1  0
  2  3  2  0
  4  5  1  0
  4  2  1  0
  6  5  1  0
  6  8  1  0
  6  7  1  6
  8  9  2  0
 10 11  1  0
 10  8  1  0
 11 12  1  1
 13 12  1  0
 14 11  1  0
 14 15  2  0
 17 16  1  1
 17 19  1  0
 18 17  1  0
 19 20  1  1
 19 21  1  0
 20 14  1  0
 21 23  2  0
 21 22  1  0
M  END
$$$$
