QCV.pdb
     RDKit          3D

 23 22  0  0  1  0  0  0  0  0999 V2000
    7.2619  -19.8797   17.5400 N   0  0  0  0  0  0  0  0  0  0  0  0
    7.3922  -20.2613   16.1635 C   0  0  0  0  0  0  0  0  0  0  0  0
    8.5355  -20.3823   15.6576 O   0  0  0  0  0  0  0  0  0  0  0  0
    6.1686  -20.4985   15.4057 C   0  0  0  0  0  0  0  0  0  0  0  0
    4.9012  -20.3264   16.1453 C   0  0  0  0  0  0  0  0  0  0  0  0
    3.6368  -20.5209   15.3626 C   0  0  2  0  0  0  0  0  0  0  0  0
    3.4726  -19.5950   14.2920 N   0  0  0  0  0  0  0  0  0  0  0  0
    2.4987  -20.5524   16.2956 C   0  0  0  0  0  0  0  0  0  0  0  0
    1.8030  -19.5107   16.4492 O   0  0  0  0  0  0  0  0  0  0  0  0
    2.1414  -21.6714   17.0270 N   0  0  0  0  0  0  0  0  0  0  0  0
    0.9799  -21.7762   17.8841 C   0  0  1  0  0  0  0  0  0  0  0  0
    0.1027  -22.9362   17.5780 C   0  0  0  0  0  0  0  0  0  0  0  0
    0.9998  -24.5078   17.5534 S   0  0  0  0  0  0  0  0  0  0  0  0
    1.4312  -21.8636   19.2846 C   0  0  0  0  0  0  0  0  0  0  0  0
    2.5720  -22.2909   19.6131 O   0  0  0  0  0  0  0  0  0  0  0  0
    1.3991  -18.9935   21.5800 C   0  0  0  0  0  0  0  0  0  0  0  0
    0.6791  -20.1051   22.2774 C   0  0  2  0  0  0  0  0  0  0  0  0
    0.9877  -20.0107   23.7512 C   0  0  0  0  0  0  0  0  0  0  0  0
    0.9615  -21.4649   21.7242 C   0  0  2  0  0  0  0  0  0  0  0  0
    0.5757  -21.4603   20.3258 N   0  0  0  0  0  0  0  0  0  0  0  0
    0.3089  -22.5604   22.4709 C   0  0  0  0  0  0  0  0  0  0  0  0
    0.9762  -23.2857   23.4580 O   0  0  0  0  0  0  0  0  0  0  0  0
   -0.8688  -22.8625   22.2298 O   0  0  0  0  0  0  0  0  0  0  0  0
  1  2  1  0
  2  3  2  0
  4  5  1  0
  4  2  1  0
  6  5  1  0
  6  8  1  0
  6  7  1  6
  8  9  2  0
 10 11  1  0
 10  8  1  0
 11 12  1  6
 13 12  1  0
 14 11  1  0
 14 15  2  0
 17 16  1  6
 17 19  1  0
 18 17  1  0
 19 20  1  6
 19 21  1  0
 20 14  1  0
 21 23  2  0
 21 22  1  0
M  END
$$$$
