QCV.pdb
     RDKit          3D

 23 22  0  0  1  0  0  0  0  0999 V2000
    8.6615  -12.7588   17.4628 N   0  0  0  0  0  0  0  0  0  0  0  0
    7.7139  -13.8145   17.6750 C   0  0  0  0  0  0  0  0  0  0  0  0
    6.7333  -13.9346   16.8993 O   0  0  0  0  0  0  0  0  0  0  0  0
    7.9417  -14.7159   18.7990 C   0  0  0  0  0  0  0  0  0  0  0  0
    9.1618  -14.4689   19.5947 C   0  0  0  0  0  0  0  0  0  0  0  0
    9.4563  -15.4482   20.6916 C   0  0  2  0  0  0  0  0  0  0  0  0
    8.8538  -16.7256   20.5019 N   0  0  0  0  0  0  0  0  0  0  0  0
    9.1289  -14.8275   21.9855 C   0  0  0  0  0  0  0  0  0  0  0  0
    9.3945  -13.6067   22.1642 O   0  0  0  0  0  0  0  0  0  0  0  0
    8.5405  -15.5122   23.0340 N   0  0  0  0  0  0  0  0  0  0  0  0
    8.2306  -14.9515   24.3318 C   0  0  1  0  0  0  0  0  0  0  0  0
    6.8227  -15.1573   24.7612 C   0  0  0  0  0  0  0  0  0  0  0  0
    6.3150  -14.0184   26.0728 S   0  0  0  0  0  0  0  0  0  0  0  0
    9.1361  -15.5445   25.3324 C   0  0  0  0  0  0  0  0  0  0  0  0
    9.7084  -16.6567   25.1670 O   0  0  0  0  0  0  0  0  0  0  0  0
   10.1443  -13.0639   28.5239 C   0  0  0  0  0  0  0  0  0  0  0  0
   10.0670  -14.5341   28.7939 C   0  0  2  0  0  0  0  0  0  0  0  0
   11.0569  -14.8627   29.8839 C   0  0  0  0  0  0  0  0  0  0  0  0
   10.2488  -15.3933   27.5840 C   0  0  2  0  0  0  0  0  0  0  0  0
    9.3952  -14.8654   26.5367 N   0  0  0  0  0  0  0  0  0  0  0  0
    9.9963  -16.8286   27.8279 C   0  0  0  0  0  0  0  0  0  0  0  0
    8.7069  -17.3599   27.8603 O   0  0  0  0  0  0  0  0  0  0  0  0
   10.9449  -17.6048   28.0123 O   0  0  0  0  0  0  0  0  0  0  0  0
  1  2  1  0
  2  3  2  0
  4  5  1  0
  4  2  1  0
  6  5  1  0
  6  8  1  0
  6  7  1  6
  8  9  2  0
 10 11  1  0
 10  8  1  0
 11 12  1  1
 13 12  1  0
 14 11  1  0
 14 15  2  0
 17 16  1  6
 17 19  1  0
 18 17  1  0
 19 20  1  6
 19 21  1  0
 20 14  1  0
 21 23  2  0
 21 22  1  0
M  END
$$$$
