QCV.pdb
     RDKit          3D

 23 22  0  0  1  0  0  0  0  0999 V2000
    8.7621  -12.7464   16.3538 N   0  0  0  0  0  0  0  0  0  0  0  0
    8.5768  -14.0372   16.9511 C   0  0  0  0  0  0  0  0  0  0  0  0
    9.5100  -14.8774   16.9173 O   0  0  0  0  0  0  0  0  0  0  0  0
    7.2921  -14.3148   17.5837 C   0  0  0  0  0  0  0  0  0  0  0  0
    7.1945  -14.0014   19.0242 C   0  0  0  0  0  0  0  0  0  0  0  0
    8.2784  -14.5490   19.9042 C   0  0  2  0  0  0  0  0  0  0  0  0
    9.0160  -15.6164   19.3150 N   0  0  0  0  0  0  0  0  0  0  0  0
    7.7031  -14.8832   21.2172 C   0  0  0  0  0  0  0  0  0  0  0  0
    6.7889  -14.1526   21.6897 O   0  0  0  0  0  0  0  0  0  0  0  0
    8.1114  -15.9652   21.9769 N   0  0  0  0  0  0  0  0  0  0  0  0
    7.6031  -16.3077   23.2880 C   0  0  1  0  0  0  0  0  0  0  0  0
    7.8468  -17.7195   23.6834 C   0  0  0  0  0  0  0  0  0  0  0  0
    7.2830  -18.0855   25.3637 S   0  0  0  0  0  0  0  0  0  0  0  0
    8.2173  -15.4107   24.2834 C   0  0  0  0  0  0  0  0  0  0  0  0
    9.4335  -15.0766   24.2488 O   0  0  0  0  0  0  0  0  0  0  0  0
    6.0003  -12.4196   25.6904 C   0  0  0  0  0  0  0  0  0  0  0  0
    6.7670  -13.1161   26.7708 C   0  0  2  0  0  0  0  0  0  0  0  0
    7.1624  -12.0880   27.8017 C   0  0  0  0  0  0  0  0  0  0  0  0
    7.9363  -13.9099   26.2833 C   0  0  2  0  0  0  0  0  0  0  0  0
    7.4401  -14.8859   25.3318 N   0  0  0  0  0  0  0  0  0  0  0  0
    8.7193  -14.5443   27.3639 C   0  0  0  0  0  0  0  0  0  0  0  0
    9.6950  -13.8498   28.0791 O   0  0  0  0  0  0  0  0  0  0  0  0
    8.5204  -15.7308   27.6624 O   0  0  0  0  0  0  0  0  0  0  0  0
  1  2  1  0
  2  3  2  0
  4  5  1  0
  4  2  1  0
  6  5  1  0
  6  8  1  0
  6  7  1  6
  8  9  2  0
 10 11  1  0
 10  8  1  0
 11 12  1  1
 13 12  1  0
 14 11  1  0
 14 15  2  0
 17 16  1  6
 17 19  1  0
 18 17  1  0
 19 20  1  6
 19 21  1  0
 20 14  1  0
 21 23  2  0
 21 22  1  0
M  END
$$$$
