ARN.pdb
     RDKit          3D

 25 24  0  0  1  0  0  0  0  0999 V2000
    7.5005  -11.8884   26.8349 C   0  0  0  0  0  0  0  0  0  0  0  0
    6.2014  -12.2850   26.1823 C   0  0  2  0  0  0  0  0  0  0  0  0
    5.1440  -12.3335   27.1488 N   0  0  0  0  0  0  0  0  0  0  0  0
    6.3706  -13.6283   25.5854 C   0  0  0  0  0  0  0  0  0  0  0  0
    5.3320  -14.3126   25.3191 O   0  0  0  0  0  0  0  0  0  0  0  0
    9.8123  -12.9512   18.8186 N   0  0  0  0  0  0  0  0  0  0  0  0
    8.8666  -13.9070   18.3717 C   0  0  0  0  0  0  0  0  0  0  0  0
    8.7538  -14.1388   17.0928 N   0  0  0  0  0  0  0  0  0  0  0  0
    8.0298  -14.6342   19.2386 N   0  0  0  0  0  0  0  0  0  0  0  0
    7.5073  -14.0739   20.4579 C   0  0  0  0  0  0  0  0  0  0  0  0
    8.0103  -14.8629   21.6522 C   0  0  0  0  0  0  0  0  0  0  0  0
    7.7081  -14.1395   22.9147 C   0  0  0  0  0  0  0  0  0  0  0  0
    7.9352  -14.9344   24.1654 C   0  0  2  0  0  0  0  0  0  0  0  0
    7.6597  -14.1173   25.3277 N   0  0  0  0  0  0  0  0  0  0  0  0
    9.3798  -15.2904   24.1906 C   0  0  0  0  0  0  0  0  0  0  0  0
   10.2269  -14.3690   24.2834 O   0  0  0  0  0  0  0  0  0  0  0  0
    8.0499  -14.7803   16.7013 N   0  0  0  0  0  0  0  0  0  0  0  0
    9.1015  -18.7573   26.6731 C   0  0  0  0  0  0  0  0  0  0  0  0
   10.3661  -18.1377   26.4903 O   0  0  0  0  0  0  0  0  0  0  0  0
   10.8292  -17.4672   27.4265 C   0  0  0  0  0  0  0  0  0  0  0  0
   11.0908  -18.2944   25.2286 C   0  0  2  0  0  0  0  0  0  0  0  0
   11.1430  -16.9874   24.4750 N   0  0  0  0  0  0  0  0  0  0  0  0
    9.7575  -16.6472   24.1094 C   0  0  0  0  0  0  0  0  0  0  0  0
   11.8063  -17.2487   23.1589 O   0  0  0  0  0  0  0  0  0  0  0  0
   11.1501  -17.1332   21.9544 O   0  0  0  0  0  0  0  0  0  0  0  0
  2  1  1  1
  2  3  1  0
  4  2  1  0
  5  4  2  0
  6  7  1  0
  7  8  2  0
  7  9  1  0
  9 10  1  0
 10 11  1  0
 11 12  1  0
 13 12  1  6
 13 14  1  0
 14  4  1  0
 15 16  2  0
 15 13  1  0
 18 20  1  0
 18 17  1  0
 19 18  2  0
 21 20  1  1
 21 22  1  0
 22 15  1  0
 23 21  1  0
 24 23  1  0
 25 23  2  0
M  END
$$$$
