ARN.pdb
     RDKit          3D

 25 24  0  0  1  0  0  0  0  0999 V2000
    9.3468  -13.4497   19.3360 C   0  0  0  0  0  0  0  0  0  0  0  0
    7.8861  -13.8166   19.2866 C   0  0  2  0  0  0  0  0  0  0  0  0
    7.0663  -12.6479   19.4166 N   0  0  0  0  0  0  0  0  0  0  0  0
    7.5977  -14.7349   20.4103 C   0  0  0  0  0  0  0  0  0  0  0  0
    7.4901  -14.2505   21.5816 O   0  0  0  0  0  0  0  0  0  0  0  0
    6.8122  -23.5459   20.0743 N   0  0  0  0  0  0  0  0  0  0  0  0
    5.9292  -22.6365   20.7075 C   0  0  0  0  0  0  0  0  0  0  0  0
    5.1604  -23.0643   21.6708 N   0  0  0  0  0  0  0  0  0  0  0  0
    5.8316  -21.2775   20.3551 N   0  0  0  0  0  0  0  0  0  0  0  0
    5.2946  -20.2845   21.2491 C   0  0  0  0  0  0  0  0  0  0  0  0
    6.4010  -19.3674   21.7355 C   0  0  0  0  0  0  0  0  0  0  0  0
    6.7131  -18.3419   20.7062 C   0  0  0  0  0  0  0  0  0  0  0  0
    7.2363  -17.0455   21.2476 C   0  0  2  0  0  0  0  0  0  0  0  0
    7.4507  -16.1082   20.1659 N   0  0  0  0  0  0  0  0  0  0  0  0
    8.5582  -17.3407   21.8637 C   0  0  0  0  0  0  0  0  0  0  0  0
    9.4567  -17.8490   21.1499 O   0  0  0  0  0  0  0  0  0  0  0  0
    4.5254  -22.4461   22.1951 N   0  0  0  0  0  0  0  0  0  0  0  0
   11.0022  -14.4622   22.3653 C   0  0  0  0  0  0  0  0  0  0  0  0
   11.4612  -15.6727   22.9487 O   0  0  0  0  0  0  0  0  0  0  0  0
   12.4180  -16.2537   22.4127 C   0  0  0  0  0  0  0  0  0  0  0  0
   10.8145  -16.2074   24.1477 C   0  0  2  0  0  0  0  0  0  0  0  0
   10.0440  -17.4649   23.8250 N   0  0  0  0  0  0  0  0  0  0  0  0
    8.7657  -17.0434   23.2270 C   0  0  0  0  0  0  0  0  0  0  0  0
    9.6416  -18.0957   25.1214 O   0  0  0  0  0  0  0  0  0  0  0  0
    8.3354  -18.1535   25.5516 O   0  0  0  0  0  0  0  0  0  0  0  0
  2  1  1  1
  2  3  1  0
  4  2  1  0
  5  4  2  0
  6  7  1  0
  7  8  2  0
  7  9  1  0
  9 10  1  0
 10 11  1  0
 11 12  1  0
 13 12  1  6
 13 14  1  0
 14  4  1  0
 15 16  2  0
 15 13  1  0
 18 20  1  0
 18 17  1  0
 19 18  2  0
 21 20  1  6
 21 22  1  0
 22 15  1  0
 23 21  1  0
 24 23  1  0
 25 23  2  0
M  END
$$$$
