ARN.pdb
     RDKit          3D

 25 24  0  0  1  0  0  0  0  0999 V2000
    8.2977  -22.1526   21.5953 C   0  0  0  0  0  0  0  0  0  0  0  0
    7.7642  -21.6249   20.2885 C   0  0  2  0  0  0  0  0  0  0  0  0
    8.0923  -22.5132   19.2125 N   0  0  0  0  0  0  0  0  0  0  0  0
    8.3837  -20.3062   20.0305 C   0  0  0  0  0  0  0  0  0  0  0  0
    9.4495  -20.2580   19.3379 O   0  0  0  0  0  0  0  0  0  0  0  0
    9.5555  -13.4879   20.6508 N   0  0  0  0  0  0  0  0  0  0  0  0
    8.5247  -12.7498   20.0180 C   0  0  0  0  0  0  0  0  0  0  0  0
    8.8407  -11.7185   19.2840 N   0  0  0  0  0  0  0  0  0  0  0  0
    7.1589  -13.0687   20.1341 N   0  0  0  0  0  0  0  0  0  0  0  0
    6.6998  -14.3982   20.4431 C   0  0  0  0  0  0  0  0  0  0  0  0
    7.8447  -15.3864   20.3238 C   0  0  0  0  0  0  0  0  0  0  0  0
    7.3598  -16.7711   20.5604 C   0  0  0  0  0  0  0  0  0  0  0  0
    8.3868  -17.8425   20.3484 C   0  0  2  0  0  0  0  0  0  0  0  0
    7.7908  -19.1459   20.5498 N   0  0  0  0  0  0  0  0  0  0  0  0
    9.4280  -17.6510   21.3940 C   0  0  0  0  0  0  0  0  0  0  0  0
    9.2405  -18.1489   22.5308 O   0  0  0  0  0  0  0  0  0  0  0  0
    8.1379  -11.1323   18.8122 N   0  0  0  0  0  0  0  0  0  0  0  0
   13.8470  -17.3103   23.6885 C   0  0  0  0  0  0  0  0  0  0  0  0
   13.4156  -18.4376   22.9404 O   0  0  0  0  0  0  0  0  0  0  0  0
   14.0763  -19.4846   23.0278 C   0  0  0  0  0  0  0  0  0  0  0  0
   12.2239  -18.3519   22.0952 C   0  0  1  0  0  0  0  0  0  0  0  0
   11.6898  -16.9403   22.0640 N   0  0  0  0  0  0  0  0  0  0  0  0
   10.5924  -16.9183   21.0820 C   0  0  0  0  0  0  0  0  0  0  0  0
   12.7402  -16.0712   21.4462 O   0  0  0  0  0  0  0  0  0  0  0  0
   13.5878  -15.2800   22.1879 O   0  0  0  0  0  0  0  0  0  0  0  0
  2  1  1  1
  2  3  1  0
  4  2  1  0
  5  4  2  0
  6  7  1  0
  7  8  2  0
  7  9  1  0
  9 10  1  0
 10 11  1  0
 11 12  1  0
 13 12  1  1
 13 14  1  0
 14  4  1  0
 15 16  2  0
 15 13  1  0
 18 20  1  0
 18 17  1  0
 19 18  2  0
 21 20  1  1
 21 22  1  0
 22 15  1  0
 23 21  1  0
 24 23  1  0
 25 23  2  0
M  END
$$$$
