ARN.pdb
     RDKit          3D

 25 24  0  0  1  0  0  0  0  0999 V2000
    4.6953  -18.7651   23.2786 C   0  0  0  0  0  0  0  0  0  0  0  0
    4.8443  -18.2897   21.8564 C   0  0  2  0  0  0  0  0  0  0  0  0
    4.5881  -19.3586   20.9363 N   0  0  0  0  0  0  0  0  0  0  0  0
    6.2322  -17.8133   21.6671 C   0  0  0  0  0  0  0  0  0  0  0  0
    7.1775  -18.6642   21.6888 O   0  0  0  0  0  0  0  0  0  0  0  0
    9.4074  -14.3554   17.0833 N   0  0  0  0  0  0  0  0  0  0  0  0
    8.2908  -13.5681   16.7073 C   0  0  0  0  0  0  0  0  0  0  0  0
    7.9464  -13.5140   15.4502 N   0  0  0  0  0  0  0  0  0  0  0  0
    7.5179  -12.8309   17.6236 N   0  0  0  0  0  0  0  0  0  0  0  0
    7.6976  -12.9389   19.0483 C   0  0  0  0  0  0  0  0  0  0  0  0
    7.6503  -14.3951   19.4713 C   0  0  0  0  0  0  0  0  0  0  0  0
    7.8216  -14.5123   20.9428 C   0  0  0  0  0  0  0  0  0  0  0  0
    7.8245  -15.9172   21.4662 C   0  0  2  0  0  0  0  0  0  0  0  0
    6.4774  -16.4464   21.4701 N   0  0  0  0  0  0  0  0  0  0  0  0
    8.2909  -15.8478   22.8775 C   0  0  0  0  0  0  0  0  0  0  0  0
    7.5990  -15.2145   23.7114 O   0  0  0  0  0  0  0  0  0  0  0  0
    7.1563  -12.9472   15.1113 N   0  0  0  0  0  0  0  0  0  0  0  0
    9.9087  -18.7147   23.7794 C   0  0  0  0  0  0  0  0  0  0  0  0
    9.5312  -18.4000   25.1117 O   0  0  0  0  0  0  0  0  0  0  0  0
    9.1875  -19.3309   25.8571 C   0  0  0  0  0  0  0  0  0  0  0  0
    9.5518  -17.0129   25.5779 C   0  0  1  0  0  0  0  0  0  0  0  0
   10.1137  -16.0992   24.5157 N   0  0  0  0  0  0  0  0  0  0  0  0
    9.4926  -16.4919   23.2394 C   0  0  0  0  0  0  0  0  0  0  0  0
   11.5576  -16.4492   24.3336 O   0  0  0  0  0  0  0  0  0  0  0  0
   12.0586  -16.9724   23.1631 O   0  0  0  0  0  0  0  0  0  0  0  0
  2  1  1  1
  2  3  1  0
  4  2  1  0
  5  4  2  0
  6  7  1  0
  7  8  2  0
  7  9  1  0
  9 10  1  0
 10 11  1  0
 11 12  1  0
 13 12  1  1
 13 14  1  0
 14  4  1  0
 15 16  2  0
 15 13  1  0
 18 20  1  0
 18 17  1  0
 19 18  2  0
 21 20  1  1
 21 22  1  0
 22 15  1  0
 23 21  1  0
 24 23  1  0
 25 23  2  0
M  END
$$$$
