ARN.pdb
     RDKit          3D

 25 24  0  0  1  0  0  0  0  0999 V2000
   11.7195  -19.3351   24.8882 C   0  0  0  0  0  0  0  0  0  0  0  0
   10.4656  -19.1284   24.0784 C   0  0  2  0  0  0  0  0  0  0  0  0
    9.8487  -20.3854   23.7715 N   0  0  0  0  0  0  0  0  0  0  0  0
   10.8327  -18.4507   22.8155 C   0  0  0  0  0  0  0  0  0  0  0  0
   11.1841  -19.1621   21.8213 O   0  0  0  0  0  0  0  0  0  0  0  0
    8.5094  -12.3516   19.7148 N   0  0  0  0  0  0  0  0  0  0  0  0
    8.2436  -13.3588   18.7544 C   0  0  0  0  0  0  0  0  0  0  0  0
    7.4274  -13.0985   17.7704 N   0  0  0  0  0  0  0  0  0  0  0  0
    8.8176  -14.6430   18.7980 N   0  0  0  0  0  0  0  0  0  0  0  0
   10.2300  -14.8516   18.9859 C   0  0  0  0  0  0  0  0  0  0  0  0
   10.6859  -14.2024   20.2791 C   0  0  0  0  0  0  0  0  0  0  0  0
   10.3448  -15.0656   21.4397 C   0  0  0  0  0  0  0  0  0  0  0  0
   11.1072  -16.3545   21.5111 C   0  0  2  0  0  0  0  0  0  0  0  0
   10.7876  -17.0509   22.7389 N   0  0  0  0  0  0  0  0  0  0  0  0
   12.5509  -15.9967   21.5526 C   0  0  0  0  0  0  0  0  0  0  0  0
   13.0134  -15.4740   22.5956 O   0  0  0  0  0  0  0  0  0  0  0  0
    7.1655  -13.7983   17.0619 N   0  0  0  0  0  0  0  0  0  0  0  0
   15.3025  -19.3260   19.4582 C   0  0  0  0  0  0  0  0  0  0  0  0
   15.6666  -18.1661   20.1919 O   0  0  0  0  0  0  0  0  0  0  0  0
   16.1012  -18.3163   21.3447 C   0  0  0  0  0  0  0  0  0  0  0  0
   15.5279  -16.8382   19.5925 C   0  0  2  0  0  0  0  0  0  0  0  0
   14.7861  -15.9067   20.5203 N   0  0  0  0  0  0  0  0  0  0  0  0
   13.3577  -16.2527   20.4241 C   0  0  0  0  0  0  0  0  0  0  0  0
   14.8608  -14.5304   19.9365 O   0  0  0  0  0  0  0  0  0  0  0  0
   15.9221  -13.6816   20.1553 O   0  0  0  0  0  0  0  0  0  0  0  0
  2  1  1  1
  2  3  1  0
  4  2  1  0
  5  4  2  0
  6  7  1  0
  7  8  2  0
  7  9  1  0
  9 10  1  0
 10 11  1  0
 11 12  1  0
 13 12  1  1
 13 14  1  0
 14  4  1  0
 15 16  2  0
 15 13  1  0
 18 20  1  0
 18 17  1  0
 19 18  2  0
 21 20  1  1
 21 22  1  0
 22 15  1  0
 23 21  1  0
 24 23  1  0
 25 23  2  0
M  END
$$$$
