ARN.pdb
     RDKit          3D

 25 24  0  0  1  0  0  0  0  0999 V2000
    7.2046  -11.8297   26.9601 C   0  0  0  0  0  0  0  0  0  0  0  0
    6.1618  -12.4150   26.0431 C   0  0  2  0  0  0  0  0  0  0  0  0
    4.9519  -12.6876   26.7618 N   0  0  0  0  0  0  0  0  0  0  0  0
    6.6877  -13.6813   25.4872 C   0  0  0  0  0  0  0  0  0  0  0  0
    6.3290  -14.7780   26.0225 O   0  0  0  0  0  0  0  0  0  0  0  0
    9.2751  -14.4359   17.8585 N   0  0  0  0  0  0  0  0  0  0  0  0
    8.0118  -13.8198   18.0377 C   0  0  0  0  0  0  0  0  0  0  0  0
    7.5422  -13.0483   17.0962 N   0  0  0  0  0  0  0  0  0  0  0  0
    7.2198  -13.9945   19.1878 N   0  0  0  0  0  0  0  0  0  0  0  0
    7.6589  -14.7727   20.3170 C   0  0  0  0  0  0  0  0  0  0  0  0
    7.9218  -13.8663   21.5049 C   0  0  0  0  0  0  0  0  0  0  0  0
    8.7671  -14.5622   22.5097 C   0  0  0  0  0  0  0  0  0  0  0  0
    8.0802  -14.8678   23.8068 C   0  0  2  0  0  0  0  0  0  0  0  0
    7.5635  -13.6491   24.3921 N   0  0  0  0  0  0  0  0  0  0  0  0
    9.1187  -15.4095   24.7244 C   0  0  0  0  0  0  0  0  0  0  0  0
    9.4228  -14.7502   25.7482 O   0  0  0  0  0  0  0  0  0  0  0  0
    6.6997  -12.4688   17.2171 N   0  0  0  0  0  0  0  0  0  0  0  0
    8.0955  -19.1823   28.2430 C   0  0  0  0  0  0  0  0  0  0  0  0
    8.9697  -18.2875   27.5710 O   0  0  0  0  0  0  0  0  0  0  0  0
    9.8437  -17.7126   28.2388 C   0  0  0  0  0  0  0  0  0  0  0  0
    8.8318  -18.0603   26.1319 C   0  0  2  0  0  0  0  0  0  0  0  0
   10.1111  -17.5071   25.5521 N   0  0  0  0  0  0  0  0  0  0  0  0
    9.7315  -16.6434   24.4211 C   0  0  0  0  0  0  0  0  0  0  0  0
   10.8440  -18.6410   24.9059 O   0  0  0  0  0  0  0  0  0  0  0  0
   11.9703  -19.2125   25.4533 O   0  0  0  0  0  0  0  0  0  0  0  0
  2  1  1  1
  2  3  1  0
  4  2  1  0
  5  4  2  0
  6  7  1  0
  7  8  2  0
  7  9  1  0
  9 10  1  0
 10 11  1  0
 11 12  1  0
 13 12  1  6
 13 14  1  0
 14  4  1  0
 15 16  2  0
 15 13  1  0
 18 20  1  0
 18 17  1  0
 19 18  2  0
 21 20  1  1
 21 22  1  0
 22 15  1  0
 23 21  1  0
 24 23  1  0
 25 23  2  0
M  END
$$$$
