ARN.pdb
     RDKit          3D

 25 24  0  0  1  0  0  0  0  0999 V2000
   12.3481  -19.9895   19.5315 C   0  0  0  0  0  0  0  0  0  0  0  0
   12.0013  -18.5534   19.2348 C   0  0  2  0  0  0  0  0  0  0  0  0
   13.0326  -17.9347   18.4550 N   0  0  0  0  0  0  0  0  0  0  0  0
   11.8694  -17.8308   20.5192 C   0  0  0  0  0  0  0  0  0  0  0  0
   12.9257  -17.5257   21.1588 O   0  0  0  0  0  0  0  0  0  0  0  0
    7.8824  -14.0602   18.4918 N   0  0  0  0  0  0  0  0  0  0  0  0
    7.8409  -12.9931   19.4231 C   0  0  0  0  0  0  0  0  0  0  0  0
    8.2332  -11.8068   19.0476 N   0  0  0  0  0  0  0  0  0  0  0  0
    7.3931  -13.1382   20.7494 N   0  0  0  0  0  0  0  0  0  0  0  0
    7.5009  -14.3806   21.4694 C   0  0  0  0  0  0  0  0  0  0  0  0
    8.9460  -14.8416   21.5012 C   0  0  0  0  0  0  0  0  0  0  0  0
    9.0662  -16.1155   22.2569 C   0  0  0  0  0  0  0  0  0  0  0  0
   10.4285  -16.7407   22.2240 C   0  0  2  0  0  0  0  0  0  0  0  0
   10.5951  -17.4997   21.0030 N   0  0  0  0  0  0  0  0  0  0  0  0
   10.4904  -17.6937   23.3651 C   0  0  0  0  0  0  0  0  0  0  0  0
    9.7574  -18.7122   23.3412 O   0  0  0  0  0  0  0  0  0  0  0  0
    8.1900  -10.9831   19.6639 N   0  0  0  0  0  0  0  0  0  0  0  0
   12.8645  -19.8947   23.9243 C   0  0  0  0  0  0  0  0  0  0  0  0
   13.5038  -19.3950   25.0896 O   0  0  0  0  0  0  0  0  0  0  0  0
   14.6912  -19.7008   25.2815 C   0  0  0  0  0  0  0  0  0  0  0  0
   12.7705  -18.5446   26.0281 C   0  0  2  0  0  0  0  0  0  0  0  0
   11.3411  -18.3600   25.5791 N   0  0  0  0  0  0  0  0  0  0  0  0
   11.3663  -17.4285   24.4386 C   0  0  0  0  0  0  0  0  0  0  0  0
   10.6245  -17.5965   26.6487 O   0  0  0  0  0  0  0  0  0  0  0  0
   10.2933  -18.1464   27.8663 O   0  0  0  0  0  0  0  0  0  0  0  0
  2  1  1  1
  2  3  1  0
  4  2  1  0
  5  4  2  0
  6  7  1  0
  7  8  2  0
  7  9  1  0
  9 10  1  0
 10 11  1  0
 11 12  1  0
 13 12  1  6
 13 14  1  0
 14  4  1  0
 15 16  2  0
 15 13  1  0
 18 20  1  0
 18 17  1  0
 19 18  2  0
 21 20  1  6
 21 22  1  0
 22 15  1  0
 23 21  1  0
 24 23  1  0
 25 23  2  0
M  END
$$$$
