ARN.pdb
     RDKit          3D

 25 24  0  0  1  0  0  0  0  0999 V2000
    7.6343  -17.1619   27.3125 C   0  0  0  0  0  0  0  0  0  0  0  0
    7.1413  -18.0750   26.2198 C   0  0  2  0  0  0  0  0  0  0  0  0
    7.1523  -19.4398   26.6578 N   0  0  0  0  0  0  0  0  0  0  0  0
    8.0419  -17.9357   25.0542 C   0  0  0  0  0  0  0  0  0  0  0  0
    8.9279  -18.8270   24.8580 O   0  0  0  0  0  0  0  0  0  0  0  0
    8.4461  -13.3781   19.0237 N   0  0  0  0  0  0  0  0  0  0  0  0
    7.9031  -12.8880   20.2372 C   0  0  0  0  0  0  0  0  0  0  0  0
    8.2677  -11.7112   20.6667 N   0  0  0  0  0  0  0  0  0  0  0  0
    6.9779  -13.6052   21.0184 N   0  0  0  0  0  0  0  0  0  0  0  0
    6.4294  -14.8691   20.5998 C   0  0  0  0  0  0  0  0  0  0  0  0
    6.8991  -15.9745   21.5268 C   0  0  0  0  0  0  0  0  0  0  0  0
    8.2086  -15.6196   22.1333 C   0  0  0  0  0  0  0  0  0  0  0  0
    8.7765  -16.6560   23.0558 C   0  0  2  0  0  0  0  0  0  0  0  0
    7.9039  -16.8344   24.1966 N   0  0  0  0  0  0  0  0  0  0  0  0
   10.0735  -16.1226   23.5531 C   0  0  0  0  0  0  0  0  0  0  0  0
   10.1012  -15.5448   24.6669 O   0  0  0  0  0  0  0  0  0  0  0  0
    7.9404  -11.3164   21.5595 N   0  0  0  0  0  0  0  0  0  0  0  0
   14.1723  -18.3753   26.0659 C   0  0  0  0  0  0  0  0  0  0  0  0
   13.9367  -17.4557   25.0098 O   0  0  0  0  0  0  0  0  0  0  0  0
   14.8664  -16.7081   24.6675 C   0  0  0  0  0  0  0  0  0  0  0  0
   12.6298  -17.4027   24.3533 C   0  0  1  0  0  0  0  0  0  0  0  0
   12.5337  -16.1987   23.4477 N   0  0  0  0  0  0  0  0  0  0  0  0
   11.2320  -16.2791   22.7635 C   0  0  0  0  0  0  0  0  0  0  0  0
   13.5293  -16.3800   22.3448 O   0  0  0  0  0  0  0  0  0  0  0  0
   13.1668  -16.6854   21.0525 O   0  0  0  0  0  0  0  0  0  0  0  0
  2  1  1  1
  2  3  1  0
  4  2  1  0
  5  4  2  0
  6  7  1  0
  7  8  2  0
  7  9  1  0
  9 10  1  0
 10 11  1  0
 11 12  1  0
 13 12  1  6
 13 14  1  0
 14  4  1  0
 15 16  2  0
 15 13  1  0
 18 20  1  0
 18 17  1  0
 19 18  2  0
 21 20  1  1
 21 22  1  0
 22 15  1  0
 23 21  1  0
 24 23  1  0
 25 23  2  0
M  END
$$$$
