ARN.pdb
     RDKit          3D

 25 24  0  0  1  0  0  0  0  0999 V2000
    7.2509  -12.5226   18.7698 C   0  0  0  0  0  0  0  0  0  0  0  0
    8.0972  -13.5829   18.1139 C   0  0  2  0  0  0  0  0  0  0  0  0
    7.2734  -14.6190   17.5639 N   0  0  0  0  0  0  0  0  0  0  0  0
    8.9879  -14.1691   19.1396 C   0  0  0  0  0  0  0  0  0  0  0  0
    9.8501  -13.4196   19.6990 O   0  0  0  0  0  0  0  0  0  0  0  0
   12.3476  -19.3418   21.1743 N   0  0  0  0  0  0  0  0  0  0  0  0
   11.6538  -20.5446   21.4565 C   0  0  0  0  0  0  0  0  0  0  0  0
   12.1295  -21.6728   21.0060 N   0  0  0  0  0  0  0  0  0  0  0  0
   10.4644  -20.5962   22.2070 N   0  0  0  0  0  0  0  0  0  0  0  0
    9.4042  -19.6359   22.0411 C   0  0  0  0  0  0  0  0  0  0  0  0
    9.9841  -18.2515   21.8192 C   0  0  0  0  0  0  0  0  0  0  0  0
    9.1992  -17.5206   20.7905 C   0  0  0  0  0  0  0  0  0  0  0  0
    9.6418  -16.1091   20.5466 C   0  0  2  0  0  0  0  0  0  0  0  0
    8.8668  -15.5264   19.4721 N   0  0  0  0  0  0  0  0  0  0  0  0
   11.0601  -16.1755   20.1016 C   0  0  0  0  0  0  0  0  0  0  0  0
   11.3167  -16.6638   18.9743 O   0  0  0  0  0  0  0  0  0  0  0  0
   11.6848  -22.5820   21.1954 N   0  0  0  0  0  0  0  0  0  0  0  0
   16.0976  -13.6362   20.7955 C   0  0  0  0  0  0  0  0  0  0  0  0
   15.1007  -13.8832   19.8148 O   0  0  0  0  0  0  0  0  0  0  0  0
   15.4462  -13.9054   18.6229 C   0  0  0  0  0  0  0  0  0  0  0  0
   13.7099  -14.1035   20.2135 C   0  0  2  0  0  0  0  0  0  0  0  0
   13.4317  -15.5761   20.3949 N   0  0  0  0  0  0  0  0  0  0  0  0
   12.0741  -15.6907   20.9542 C   0  0  0  0  0  0  0  0  0  0  0  0
   14.3153  -16.0725   21.4964 O   0  0  0  0  0  0  0  0  0  0  0  0
   15.6051  -16.5039   21.2838 O   0  0  0  0  0  0  0  0  0  0  0  0
  2  1  1  1
  2  3  1  0
  4  2  1  0
  5  4  2  0
  6  7  1  0
  7  8  2  0
  7  9  1  0
  9 10  1  0
 10 11  1  0
 11 12  1  0
 13 12  1  6
 13 14  1  0
 14  4  1  0
 15 16  2  0
 15 13  1  0
 18 20  1  0
 18 17  1  0
 19 18  2  0
 21 20  1  6
 21 22  1  0
 22 15  1  0
 23 21  1  0
 24 23  1  0
 25 23  2  0
M  END
$$$$
