ARN.pdb
     RDKit          3D

 25 24  0  0  1  0  0  0  0  0999 V2000
   15.0920  -16.8882   15.7930 C   0  0  0  0  0  0  0  0  0  0  0  0
   14.3470  -15.5784   15.8088 C   0  0  2  0  0  0  0  0  0  0  0  0
   15.1058  -14.5570   15.1488 N   0  0  0  0  0  0  0  0  0  0  0  0
   14.1296  -15.1827   17.2177 C   0  0  0  0  0  0  0  0  0  0  0  0
   15.0123  -14.4713   17.7947 O   0  0  0  0  0  0  0  0  0  0  0  0
    7.5346  -13.1003   20.0022 N   0  0  0  0  0  0  0  0  0  0  0  0
    7.4731  -13.3174   18.6034 C   0  0  0  0  0  0  0  0  0  0  0  0
    6.8811  -12.4328   17.8489 N   0  0  0  0  0  0  0  0  0  0  0  0
    8.0227  -14.4469   17.9688 N   0  0  0  0  0  0  0  0  0  0  0  0
    8.9617  -15.3202   18.6239 C   0  0  0  0  0  0  0  0  0  0  0  0
   10.2086  -14.5482   19.0127 C   0  0  0  0  0  0  0  0  0  0  0  0
   11.2369  -15.4693   19.5630 C   0  0  0  0  0  0  0  0  0  0  0  0
   12.6510  -15.1154   19.2127 C   0  0  2  0  0  0  0  0  0  0  0  0
   12.9667  -15.5956   17.8845 N   0  0  0  0  0  0  0  0  0  0  0  0
   13.5248  -15.8362   20.1776 C   0  0  0  0  0  0  0  0  0  0  0  0
   13.7512  -17.0566   19.9916 O   0  0  0  0  0  0  0  0  0  0  0  0
    6.7750  -12.5479   16.8312 N   0  0  0  0  0  0  0  0  0  0  0  0
   16.9708  -13.2323   20.7024 C   0  0  0  0  0  0  0  0  0  0  0  0
   16.9586  -14.5416   21.2519 O   0  0  0  0  0  0  0  0  0  0  0  0
   17.6510  -15.4126   20.7021 C   0  0  0  0  0  0  0  0  0  0  0  0
   16.1479  -14.8402   22.4332 C   0  0  2  0  0  0  0  0  0  0  0  0
   15.0643  -15.8374   22.1010 N   0  0  0  0  0  0  0  0  0  0  0  0
   14.0725  -15.1328   21.2709 C   0  0  0  0  0  0  0  0  0  0  0  0
   14.3225  -16.1394   23.3655 O   0  0  0  0  0  0  0  0  0  0  0  0
   14.8124  -16.9827   24.3369 O   0  0  0  0  0  0  0  0  0  0  0  0
  2  1  1  1
  2  3  1  0
  4  2  1  0
  5  4  2  0
  6  7  1  0
  7  8  2  0
  7  9  1  0
  9 10  1  0
 10 11  1  0
 11 12  1  0
 13 12  1  1
 13 14  1  0
 14  4  1  0
 15 16  2  0
 15 13  1  0
 18 20  1  0
 18 17  1  0
 19 18  2  0
 21 20  1  6
 21 22  1  0
 22 15  1  0
 23 21  1  0
 24 23  1  0
 25 23  2  0
M  END
$$$$
