ARN.pdb
     RDKit          3D

 25 24  0  0  1  0  0  0  0  0999 V2000
   13.4387  -21.1086   18.5286 C   0  0  0  0  0  0  0  0  0  0  0  0
   12.6919  -20.0433   17.7682 C   0  0  2  0  0  0  0  0  0  0  0  0
   13.4190  -19.6552   16.5955 N   0  0  0  0  0  0  0  0  0  0  0  0
   12.5343  -18.8653   18.6494 C   0  0  0  0  0  0  0  0  0  0  0  0
   13.5421  -18.1160   18.8521 O   0  0  0  0  0  0  0  0  0  0  0  0
    7.5975  -13.0624   18.6425 N   0  0  0  0  0  0  0  0  0  0  0  0
    7.4857  -13.0100   20.0540 C   0  0  0  0  0  0  0  0  0  0  0  0
    7.4505  -11.8477   20.6455 N   0  0  0  0  0  0  0  0  0  0  0  0
    7.4074  -14.1547   20.8689 N   0  0  0  0  0  0  0  0  0  0  0  0
    7.7345  -15.4710   20.3851 C   0  0  0  0  0  0  0  0  0  0  0  0
    9.2299  -15.7068   20.4847 C   0  0  0  0  0  0  0  0  0  0  0  0
    9.5824  -17.0372   19.9242 C   0  0  0  0  0  0  0  0  0  0  0  0
   11.0450  -17.3656   19.9545 C   0  0  2  0  0  0  0  0  0  0  0  0
   11.2898  -18.5998   19.2395 N   0  0  0  0  0  0  0  0  0  0  0  0
   11.4051  -17.5863   21.3813 C   0  0  0  0  0  0  0  0  0  0  0  0
   11.1567  -18.7014   21.9009 O   0  0  0  0  0  0  0  0  0  0  0  0
    7.4318  -11.7424   21.6697 N   0  0  0  0  0  0  0  0  0  0  0  0
   14.9381  -17.8682   23.0803 C   0  0  0  0  0  0  0  0  0  0  0  0
   14.8738  -16.5152   23.5068 O   0  0  0  0  0  0  0  0  0  0  0  0
   15.9382  -15.8870   23.6201 C   0  0  0  0  0  0  0  0  0  0  0  0
   13.5821  -15.8932   23.8003 C   0  0  2  0  0  0  0  0  0  0  0  0
   12.4483  -16.8385   23.4842 N   0  0  0  0  0  0  0  0  0  0  0  0
   12.0128  -16.5416   22.1090 C   0  0  0  0  0  0  0  0  0  0  0  0
   11.2762  -16.4384   24.3248 O   0  0  0  0  0  0  0  0  0  0  0  0
   11.1627  -16.7692   25.6561 O   0  0  0  0  0  0  0  0  0  0  0  0
  2  1  1  1
  2  3  1  0
  4  2  1  0
  5  4  2  0
  6  7  1  0
  7  8  2  0
  7  9  1  0
  9 10  1  0
 10 11  1  0
 11 12  1  0
 13 12  1  1
 13 14  1  0
 14  4  1  0
 15 16  2  0
 15 13  1  0
 18 20  1  0
 18 17  1  0
 19 18  2  0
 21 20  1  6
 21 22  1  0
 22 15  1  0
 23 21  1  0
 24 23  1  0
 25 23  2  0
M  END
$$$$
