ARN.pdb
     RDKit          3D

 25 24  0  0  1  0  0  0  0  0999 V2000
    5.9251  -12.1164   26.4081 C   0  0  0  0  0  0  0  0  0  0  0  0
    7.1233  -13.0135   26.5826 C   0  0  2  0  0  0  0  0  0  0  0  0
    8.3371  -12.2535   26.5228 N   0  0  0  0  0  0  0  0  0  0  0  0
    7.1236  -14.0090   25.4881 C   0  0  0  0  0  0  0  0  0  0  0  0
    6.1549  -14.8296   25.4096 O   0  0  0  0  0  0  0  0  0  0  0  0
    8.3721  -14.1181   17.2329 N   0  0  0  0  0  0  0  0  0  0  0  0
    7.8462  -13.3400   18.2939 C   0  0  0  0  0  0  0  0  0  0  0  0
    8.2988  -12.1305   18.4793 N   0  0  0  0  0  0  0  0  0  0  0  0
    6.8478  -13.8004   19.1724 N   0  0  0  0  0  0  0  0  0  0  0  0
    7.1495  -14.5859   20.3409 C   0  0  0  0  0  0  0  0  0  0  0  0
    7.6514  -13.6893   21.4571 C   0  0  0  0  0  0  0  0  0  0  0  0
    8.7105  -14.3793   22.2385 C   0  0  0  0  0  0  0  0  0  0  0  0
    8.2394  -15.0172   23.5109 C   0  0  2  0  0  0  0  0  0  0  0  0
    8.1816  -14.0298   24.5674 N   0  0  0  0  0  0  0  0  0  0  0  0
    9.2635  -16.0287   23.8879 C   0  0  0  0  0  0  0  0  0  0  0  0
   10.3968  -15.9689   23.3520 O   0  0  0  0  0  0  0  0  0  0  0  0
    7.9205  -11.4965   19.1970 N   0  0  0  0  0  0  0  0  0  0  0  0
   11.8762  -19.6976   26.1238 C   0  0  0  0  0  0  0  0  0  0  0  0
   12.1028  -18.3031   26.2676 O   0  0  0  0  0  0  0  0  0  0  0  0
   13.1644  -17.9349   26.7947 C   0  0  0  0  0  0  0  0  0  0  0  0
   11.1039  -17.3399   25.8028 C   0  0  1  0  0  0  0  0  0  0  0  0
    9.9558  -18.0454   25.1222 N   0  0  0  0  0  0  0  0  0  0  0  0
    8.9353  -17.0236   24.8326 C   0  0  0  0  0  0  0  0  0  0  0  0
    9.2999  -18.9283   26.1374 O   0  0  0  0  0  0  0  0  0  0  0  0
    8.0077  -18.7372   26.5716 O   0  0  0  0  0  0  0  0  0  0  0  0
  2  1  1  6
  2  3  1  0
  4  2  1  0
  5  4  2  0
  6  7  1  0
  7  8  2  0
  7  9  1  0
  9 10  1  0
 10 11  1  0
 11 12  1  0
 13 12  1  6
 13 14  1  0
 14  4  1  0
 15 16  2  0
 15 13  1  0
 18 20  1  0
 18 17  1  0
 19 18  2  0
 21 20  1  6
 21 22  1  0
 22 15  1  0
 23 21  1  0
 24 23  1  0
 25 23  2  0
M  END
$$$$
