ARN.pdb
     RDKit          3D

 25 24  0  0  1  0  0  0  0  0999 V2000
    7.4032  -22.0021   21.4990 C   0  0  0  0  0  0  0  0  0  0  0  0
    6.9851  -21.1338   22.6575 C   0  0  2  0  0  0  0  0  0  0  0  0
    5.6378  -20.6754   22.4856 N   0  0  0  0  0  0  0  0  0  0  0  0
    7.8888  -19.9636   22.7129 C   0  0  0  0  0  0  0  0  0  0  0  0
    9.1428  -20.1642   22.7855 O   0  0  0  0  0  0  0  0  0  0  0  0
    7.0865  -12.6203   18.8986 N   0  0  0  0  0  0  0  0  0  0  0  0
    8.4388  -12.7466   19.3025 C   0  0  0  0  0  0  0  0  0  0  0  0
    9.3848  -12.4248   18.4636 N   0  0  0  0  0  0  0  0  0  0  0  0
    8.8287  -13.2037   20.5751 N   0  0  0  0  0  0  0  0  0  0  0  0
    7.9730  -14.0179   21.3988 C   0  0  0  0  0  0  0  0  0  0  0  0
    8.3346  -15.4826   21.2389 C   0  0  0  0  0  0  0  0  0  0  0  0
    7.4967  -16.3231   22.1333 C   0  0  0  0  0  0  0  0  0  0  0  0
    8.2039  -17.4997   22.7360 C   0  0  2  0  0  0  0  0  0  0  0  0
    7.3515  -18.6682   22.6854 N   0  0  0  0  0  0  0  0  0  0  0  0
    8.4410  -17.1700   24.1675 C   0  0  0  0  0  0  0  0  0  0  0  0
    7.4536  -16.9189   24.9005 O   0  0  0  0  0  0  0  0  0  0  0  0
   10.3854  -12.5236   18.6854 N   0  0  0  0  0  0  0  0  0  0  0  0
    9.7795  -18.3498   28.7456 C   0  0  0  0  0  0  0  0  0  0  0  0
    9.5356  -19.2682   27.6904 O   0  0  0  0  0  0  0  0  0  0  0  0
    9.5666  -20.4810   27.9524 C   0  0  0  0  0  0  0  0  0  0  0  0
    9.2569  -18.7835   26.3380 C   0  0  1  0  0  0  0  0  0  0  0  0
    9.9596  -17.4718   26.0838 N   0  0  0  0  0  0  0  0  0  0  0  0
    9.7625  -17.1480   24.6606 C   0  0  0  0  0  0  0  0  0  0  0  0
   11.4321  -17.7171   26.1941 O   0  0  0  0  0  0  0  0  0  0  0  0
   12.2891  -17.6201   25.1213 O   0  0  0  0  0  0  0  0  0  0  0  0
  2  1  1  6
  2  3  1  0
  4  2  1  0
  5  4  2  0
  6  7  1  0
  7  8  2  0
  7  9  1  0
  9 10  1  0
 10 11  1  0
 11 12  1  0
 13 12  1  6
 13 14  1  0
 14  4  1  0
 15 16  2  0
 15 13  1  0
 18 20  1  0
 18 17  1  0
 19 18  2  0
 21 20  1  1
 21 22  1  0
 22 15  1  0
 23 21  1  0
 24 23  1  0
 25 23  2  0
M  END
$$$$
