VQD.pdb
     RDKit          3D

 25 24  0  0  1  0  0  0  0  0999 V2000
    7.2083  -11.3708   26.7820 C   0  0  0  0  0  0  0  0  0  0  0  0
    7.7518  -12.5964   26.0743 C   0  0  1  0  0  0  0  0  0  0  0  0
    8.4199  -13.5570   27.0396 C   0  0  0  0  0  0  0  0  0  0  0  0
    6.6039  -13.3478   25.4350 C   0  0  2  0  0  0  0  0  0  0  0  0
    5.7238  -13.8176   26.4669 N   0  0  0  0  0  0  0  0  0  0  0  0
    7.0857  -14.5021   24.6415 C   0  0  0  0  0  0  0  0  0  0  0  0
    6.9818  -15.6229   25.1938 O   0  0  0  0  0  0  0  0  0  0  0  0
    7.2807  -12.2046   18.7613 N   0  0  0  0  0  0  0  0  0  0  0  0
    7.4729  -13.5131   19.2736 C   0  0  0  0  0  0  0  0  0  0  0  0
    7.6557  -14.4525   18.4725 O   0  0  0  0  0  0  0  0  0  0  0  0
    7.4702  -13.8180   20.7449 C   0  0  0  0  0  0  0  0  0  0  0  0
    8.3930  -14.9598   21.0700 C   0  0  0  0  0  0  0  0  0  0  0  0
    8.1928  -15.3719   22.5138 C   0  0  2  0  0  0  0  0  0  0  0  0
    7.6236  -14.3401   23.3526 N   0  0  0  0  0  0  0  0  0  0  0  0
    9.2602  -16.1485   23.1076 C   0  0  0  0  0  0  0  0  0  0  0  0
    9.5550  -17.3021   22.6319 O   0  0  0  0  0  0  0  0  0  0  0  0
   10.0602  -15.7585   24.2143 N   0  0  0  0  0  0  0  0  0  0  0  0
   11.0952  -16.6166   24.7678 C   0  0  1  0  0  0  0  0  0  0  0  0
   12.3981  -15.8615   24.7866 C   0  0  0  0  0  0  0  0  0  0  0  0
   13.1303  -15.8981   23.5204 C   0  0  0  0  0  0  0  0  0  0  0  0
   12.5434  -16.4684   22.5448 O   0  0  0  0  0  0  0  0  0  0  0  0
   10.7506  -17.1884   26.0589 C   0  0  0  0  0  0  0  0  0  0  0  0
   11.4700  -18.2333   26.5899 O   0  0  0  0  0  0  0  0  0  0  0  0
   14.3736  -15.3884   23.2698 O   0  0  0  0  0  0  0  0  0  0  0  0
    9.7892  -16.7343   26.7072 O   0  0  0  0  0  0  0  0  0  0  0  0
  2  1  1  1
  2  3  1  0
  4  2  1  0
  4  6  1  0
  4  5  1  1
  6 14  1  0
  7  6  2  0
  9 11  1  0
  9  8  1  0
 10  9  2  0
 12 11  1  0
 13 12  1  6
 14 13  1  0
 15 13  1  0
 15 17  1  0
 16 15  2  0
 18 17  1  0
 18 19  1  1
 20 21  2  0
 20 19  1  0
 22 23  1  0
 22 18  1  0
 24 20  1  0
 25 22  2  0
M  END
$$$$
