VQD.pdb
     RDKit          3D

 25 24  0  0  1  0  0  0  0  0999 V2000
    8.1305  -11.9358   25.3798 C   0  0  0  0  0  0  0  0  0  0  0  0
    7.2577  -12.6378   26.4015 C   0  0  1  0  0  0  0  0  0  0  0  0
    6.3575  -11.6655   27.1397 C   0  0  0  0  0  0  0  0  0  0  0  0
    6.3506  -13.6167   25.6875 C   0  0  2  0  0  0  0  0  0  0  0  0
    5.6088  -14.3612   26.6651 N   0  0  0  0  0  0  0  0  0  0  0  0
    7.1238  -14.5560   24.8424 C   0  0  0  0  0  0  0  0  0  0  0  0
    7.2868  -15.7055   25.3158 O   0  0  0  0  0  0  0  0  0  0  0  0
    8.5263  -16.7440   19.2631 N   0  0  0  0  0  0  0  0  0  0  0  0
    7.3541  -16.3461   19.9553 C   0  0  0  0  0  0  0  0  0  0  0  0
    6.4518  -17.1874   20.1448 O   0  0  0  0  0  0  0  0  0  0  0  0
    7.1522  -14.9512   20.4762 C   0  0  0  0  0  0  0  0  0  0  0  0
    8.3602  -14.4669   21.2293 C   0  0  0  0  0  0  0  0  0  0  0  0
    8.3264  -15.0174   22.6401 C   0  0  2  0  0  0  0  0  0  0  0  0
    7.6376  -14.1727   23.5909 N   0  0  0  0  0  0  0  0  0  0  0  0
    9.5492  -15.6310   23.1130 C   0  0  0  0  0  0  0  0  0  0  0  0
   10.2795  -16.3096   22.3067 O   0  0  0  0  0  0  0  0  0  0  0  0
   10.0591  -15.5637   24.4368 N   0  0  0  0  0  0  0  0  0  0  0  0
   11.2247  -16.3218   24.8617 C   0  0  1  0  0  0  0  0  0  0  0  0
   10.8026  -17.3253   25.9022 C   0  0  0  0  0  0  0  0  0  0  0  0
   11.9008  -18.1277   26.4414 C   0  0  0  0  0  0  0  0  0  0  0  0
   13.0479  -17.9361   25.9227 O   0  0  0  0  0  0  0  0  0  0  0  0
   11.9649  -16.9191   23.7627 C   0  0  0  0  0  0  0  0  0  0  0  0
   11.4752  -18.0107   23.0844 O   0  0  0  0  0  0  0  0  0  0  0  0
   11.8312  -19.0592   27.4393 O   0  0  0  0  0  0  0  0  0  0  0  0
   13.0636  -16.4448   23.4180 O   0  0  0  0  0  0  0  0  0  0  0  0
  2  1  1  6
  2  3  1  0
  4  2  1  0
  4  6  1  0
  4  5  1  1
  6 14  1  0
  7  6  2  0
  9 11  1  0
  9  8  1  0
 10  9  2  0
 12 11  1  0
 13 12  1  6
 14 13  1  0
 15 13  1  0
 15 17  1  0
 16 15  2  0
 18 17  1  0
 18 19  1  1
 20 21  2  0
 20 19  1  0
 22 23  1  0
 22 18  1  0
 24 20  1  0
 25 22  2  0
M  END
$$$$
