VQD.pdb
     RDKit          3D

 25 24  0  0  1  0  0  0  0  0999 V2000
    8.3264  -12.2094   18.8199 C   0  0  0  0  0  0  0  0  0  0  0  0
    8.4750  -13.1592   19.9922 C   0  0  1  0  0  0  0  0  0  0  0  0
    7.2375  -13.1726   20.8693 C   0  0  0  0  0  0  0  0  0  0  0  0
    8.6538  -14.5677   19.4676 C   0  0  2  0  0  0  0  0  0  0  0  0
    7.5597  -14.8802   18.5926 N   0  0  0  0  0  0  0  0  0  0  0  0
    8.6947  -15.5563   20.5701 C   0  0  0  0  0  0  0  0  0  0  0  0
    7.5876  -15.8451   21.0828 O   0  0  0  0  0  0  0  0  0  0  0  0
    9.2305  -21.1502   21.6038 N   0  0  0  0  0  0  0  0  0  0  0  0
    9.2541  -20.3420   20.4386 C   0  0  0  0  0  0  0  0  0  0  0  0
    9.2317  -20.8965   19.3206 O   0  0  0  0  0  0  0  0  0  0  0  0
    9.3009  -18.8411   20.4918 C   0  0  0  0  0  0  0  0  0  0  0  0
    9.2070  -18.3394   21.9062 C   0  0  0  0  0  0  0  0  0  0  0  0
   10.0709  -17.1045   22.0594 C   0  0  2  0  0  0  0  0  0  0  0  0
    9.9031  -16.1279   21.0058 N   0  0  0  0  0  0  0  0  0  0  0  0
   11.4317  -17.3306   22.4978 C   0  0  0  0  0  0  0  0  0  0  0  0
   12.2107  -18.0812   21.8096 O   0  0  0  0  0  0  0  0  0  0  0  0
   12.0342  -16.7876   23.6636 N   0  0  0  0  0  0  0  0  0  0  0  0
   13.1854  -17.4031   24.3039 C   0  0  1  0  0  0  0  0  0  0  0  0
   14.2582  -16.3619   24.4861 C   0  0  0  0  0  0  0  0  0  0  0  0
   14.9860  -16.0306   23.2609 C   0  0  0  0  0  0  0  0  0  0  0  0
   14.6055  -16.6232   22.2000 O   0  0  0  0  0  0  0  0  0  0  0  0
   12.8621  -18.1077   25.5333 C   0  0  0  0  0  0  0  0  0  0  0  0
   13.8123  -18.8409   26.2049 O   0  0  0  0  0  0  0  0  0  0  0  0
   16.0284  -15.1560   23.1298 O   0  0  0  0  0  0  0  0  0  0  0  0
   11.7081  -18.0558   25.9987 O   0  0  0  0  0  0  0  0  0  0  0  0
  2  1  1  6
  2  3  1  0
  4  2  1  0
  4  6  1  0
  4  5  1  6
  6 14  1  0
  7  6  2  0
  9 11  1  0
  9  8  1  0
 10  9  2  0
 12 11  1  0
 13 12  1  6
 14 13  1  0
 15 13  1  0
 15 17  1  0
 16 15  2  0
 18 17  1  0
 18 19  1  1
 20 21  2  0
 20 19  1  0
 22 23  1  0
 22 18  1  0
 24 20  1  0
 25 22  2  0
M  END
$$$$
