VQD.pdb
     RDKit          3D

 25 24  0  0  1  0  0  0  0  0999 V2000
    7.3745  -12.4188   19.5560 C   0  0  0  0  0  0  0  0  0  0  0  0
    8.6717  -13.1327   19.8817 C   0  0  1  0  0  0  0  0  0  0  0  0
    8.5194  -14.0709   21.0638 C   0  0  0  0  0  0  0  0  0  0  0  0
    9.0780  -13.9840   18.6980 C   0  0  2  0  0  0  0  0  0  0  0  0
    8.0454  -14.9476   18.4421 N   0  0  0  0  0  0  0  0  0  0  0  0
   10.3543  -14.6921   18.9513 C   0  0  0  0  0  0  0  0  0  0  0  0
   10.2507  -15.8395   19.4459 O   0  0  0  0  0  0  0  0  0  0  0  0
   16.2319  -13.4552   16.4374 N   0  0  0  0  0  0  0  0  0  0  0  0
   16.4426  -14.2717   17.5777 C   0  0  0  0  0  0  0  0  0  0  0  0
   17.6032  -14.6448   17.8451 O   0  0  0  0  0  0  0  0  0  0  0  0
   15.3252  -14.7054   18.4840 C   0  0  0  0  0  0  0  0  0  0  0  0
   14.0136  -14.1009   18.0653 C   0  0  0  0  0  0  0  0  0  0  0  0
   12.9052  -14.6520   18.9384 C   0  0  2  0  0  0  0  0  0  0  0  0
   11.5968  -14.1057   18.6526 N   0  0  0  0  0  0  0  0  0  0  0  0
   13.2244  -14.8218   20.3400 C   0  0  0  0  0  0  0  0  0  0  0  0
   13.1363  -13.8260   21.1428 O   0  0  0  0  0  0  0  0  0  0  0  0
   13.6458  -16.0280   20.9599 N   0  0  0  0  0  0  0  0  0  0  0  0
   13.8512  -16.1354   22.3952 C   0  0  1  0  0  0  0  0  0  0  0  0
   13.1806  -17.3887   22.8928 C   0  0  0  0  0  0  0  0  0  0  0  0
   13.3887  -17.6552   24.3162 C   0  0  0  0  0  0  0  0  0  0  0  0
   14.5935  -17.6213   24.7270 O   0  0  0  0  0  0  0  0  0  0  0  0
   15.2456  -16.0398   22.7940 C   0  0  0  0  0  0  0  0  0  0  0  0
   16.2599  -16.1705   21.8744 O   0  0  0  0  0  0  0  0  0  0  0  0
   12.4334  -17.9364   25.2526 O   0  0  0  0  0  0  0  0  0  0  0  0
   15.5424  -15.8362   23.9862 O   0  0  0  0  0  0  0  0  0  0  0  0
  2  1  1  6
  2  3  1  0
  4  2  1  0
  4  6  1  0
  4  5  1  1
  6 14  1  0
  7  6  2  0
  9 11  1  0
  9  8  1  0
 10  9  2  0
 12 11  1  0
 13 12  1  1
 14 13  1  0
 15 13  1  0
 15 17  1  0
 16 15  2  0
 18 17  1  0
 18 19  1  6
 20 21  2  0
 20 19  1  0
 22 23  1  0
 22 18  1  0
 24 20  1  0
 25 22  2  0
M  END
$$$$
