VQD.pdb
     RDKit          3D

 25 24  0  0  1  0  0  0  0  0999 V2000
    6.3081  -10.8234   26.2326 C   0  0  0  0  0  0  0  0  0  0  0  0
    7.1837  -11.9494   25.7186 C   0  0  1  0  0  0  0  0  0  0  0  0
    8.0573  -12.5313   26.8135 C   0  0  0  0  0  0  0  0  0  0  0  0
    6.3012  -13.0737   25.2203 C   0  0  2  0  0  0  0  0  0  0  0  0
    5.5635  -13.6114   26.3279 N   0  0  0  0  0  0  0  0  0  0  0  0
    7.0993  -14.1537   24.5951 C   0  0  0  0  0  0  0  0  0  0  0  0
    7.3330  -15.1479   25.3225 O   0  0  0  0  0  0  0  0  0  0  0  0
    7.0486  -14.2322   18.2428 N   0  0  0  0  0  0  0  0  0  0  0  0
    7.5359  -13.3171   19.2106 C   0  0  0  0  0  0  0  0  0  0  0  0
    8.0060  -12.2269   18.8256 O   0  0  0  0  0  0  0  0  0  0  0  0
    7.5068  -13.6025   20.6856 C   0  0  0  0  0  0  0  0  0  0  0  0
    8.3702  -14.7837   21.0327 C   0  0  0  0  0  0  0  0  0  0  0  0
    8.2298  -15.0917   22.5092 C   0  0  2  0  0  0  0  0  0  0  0  0
    7.5604  -14.0598   23.2702 N   0  0  0  0  0  0  0  0  0  0  0  0
    9.3808  -15.6967   23.1450 C   0  0  0  0  0  0  0  0  0  0  0  0
   10.5288  -15.6445   22.5763 O   0  0  0  0  0  0  0  0  0  0  0  0
    9.3843  -16.3769   24.3917 N   0  0  0  0  0  0  0  0  0  0  0  0
   10.5639  -17.0531   24.9066 C   0  0  1  0  0  0  0  0  0  0  0  0
   10.3465  -17.3760   26.3614 C   0  0  0  0  0  0  0  0  0  0  0  0
   11.4384  -18.1301   26.9776 C   0  0  0  0  0  0  0  0  0  0  0  0
   12.5651  -17.5405   27.0437 O   0  0  0  0  0  0  0  0  0  0  0  0
   10.9636  -18.2088   24.1210 C   0  0  0  0  0  0  0  0  0  0  0  0
   12.2600  -18.6678   24.1383 O   0  0  0  0  0  0  0  0  0  0  0  0
   11.3824  -19.3963   27.4895 O   0  0  0  0  0  0  0  0  0  0  0  0
   10.1282  -18.8041   23.4149 O   0  0  0  0  0  0  0  0  0  0  0  0
  2  1  1  1
  2  3  1  0
  4  2  1  0
  4  6  1  0
  4  5  1  1
  6 14  1  0
  7  6  2  0
  9 11  1  0
  9  8  1  0
 10  9  2  0
 12 11  1  0
 13 12  1  6
 14 13  1  0
 15 13  1  0
 15 17  1  0
 16 15  2  0
 18 17  1  0
 18 19  1  1
 20 21  2  0
 20 19  1  0
 22 23  1  0
 22 18  1  0
 24 20  1  0
 25 22  2  0
M  END
$$$$
