VQD.pdb
     RDKit          3D

 25 24  0  0  1  0  0  0  0  0999 V2000
    9.5284  -12.4770   20.2339 C   0  0  0  0  0  0  0  0  0  0  0  0
    8.4476  -13.3089   19.5719 C   0  0  1  0  0  0  0  0  0  0  0  0
    7.2341  -12.4742   19.2092 C   0  0  0  0  0  0  0  0  0  0  0  0
    8.9867  -13.8807   18.2783 C   0  0  2  0  0  0  0  0  0  0  0  0
    7.9514  -14.6428   17.6399 N   0  0  0  0  0  0  0  0  0  0  0  0
   10.1587  -14.7545   18.5179 C   0  0  0  0  0  0  0  0  0  0  0  0
    9.8991  -15.9181   18.9059 O   0  0  0  0  0  0  0  0  0  0  0  0
   14.2945  -17.8688   16.5425 N   0  0  0  0  0  0  0  0  0  0  0  0
   13.1019  -17.1374   16.3099 C   0  0  0  0  0  0  0  0  0  0  0  0
   12.0247  -17.7593   16.2059 O   0  0  0  0  0  0  0  0  0  0  0  0
   13.0781  -15.6401   16.1870 C   0  0  0  0  0  0  0  0  0  0  0  0
   13.6801  -14.9809   17.3971 C   0  0  0  0  0  0  0  0  0  0  0  0
   12.6936  -15.0418   18.5450 C   0  0  2  0  0  0  0  0  0  0  0  0
   11.4737  -14.2980   18.3199 N   0  0  0  0  0  0  0  0  0  0  0  0
   13.2573  -14.9396   19.8742 C   0  0  0  0  0  0  0  0  0  0  0  0
   13.7038  -13.8144   20.2966 O   0  0  0  0  0  0  0  0  0  0  0  0
   13.3787  -15.9983   20.8131 N   0  0  0  0  0  0  0  0  0  0  0  0
   14.0079  -15.8193   22.1116 C   0  0  1  0  0  0  0  0  0  0  0  0
   13.4072  -16.7987   23.0851 C   0  0  0  0  0  0  0  0  0  0  0  0
   13.9897  -16.7445   24.4262 C   0  0  0  0  0  0  0  0  0  0  0  0
   14.9317  -15.9054   24.5993 O   0  0  0  0  0  0  0  0  0  0  0  0
   15.4596  -15.8768   22.0696 C   0  0  0  0  0  0  0  0  0  0  0  0
   16.2275  -14.8433   22.5529 O   0  0  0  0  0  0  0  0  0  0  0  0
   13.6346  -17.4946   25.5123 O   0  0  0  0  0  0  0  0  0  0  0  0
   16.0322  -16.8735   21.5903 O   0  0  0  0  0  0  0  0  0  0  0  0
  2  1  1  6
  2  3  1  0
  4  2  1  0
  4  6  1  0
  4  5  1  1
  6 14  1  0
  7  6  2  0
  9 11  1  0
  9  8  1  0
 10  9  2  0
 12 11  1  0
 13 12  1  6
 14 13  1  0
 15 13  1  0
 15 17  1  0
 16 15  2  0
 18 17  1  0
 18 19  1  1
 20 21  2  0
 20 19  1  0
 22 23  1  0
 22 18  1  0
 24 20  1  0
 25 22  2  0
M  END
$$$$
