VQD.pdb
     RDKit          3D

 25 24  0  0  1  0  0  0  0  0999 V2000
    7.3686  -12.4405   19.1819 C   0  0  0  0  0  0  0  0  0  0  0  0
    8.2404  -13.3465   20.0289 C   0  0  1  0  0  0  0  0  0  0  0  0
    8.0095  -13.1284   21.5121 C   0  0  0  0  0  0  0  0  0  0  0  0
    7.8832  -14.7885   19.7388 C   0  0  2  0  0  0  0  0  0  0  0  0
    6.4753  -14.9703   19.9507 N   0  0  0  0  0  0  0  0  0  0  0  0
    8.6327  -15.7199   20.6135 C   0  0  0  0  0  0  0  0  0  0  0  0
    8.0414  -16.0784   21.6593 O   0  0  0  0  0  0  0  0  0  0  0  0
    9.1661  -20.0412   18.9653 N   0  0  0  0  0  0  0  0  0  0  0  0
   10.1324  -19.2576   18.2845 C   0  0  0  0  0  0  0  0  0  0  0  0
   10.1938  -19.3249   17.0398 O   0  0  0  0  0  0  0  0  0  0  0  0
   11.0866  -18.3429   18.9993 C   0  0  0  0  0  0  0  0  0  0  0  0
   10.9216  -18.4358   20.4910 C   0  0  0  0  0  0  0  0  0  0  0  0
   10.7663  -17.0432   21.0667 C   0  0  2  0  0  0  0  0  0  0  0  0
    9.9241  -16.1669   20.2827 N   0  0  0  0  0  0  0  0  0  0  0  0
   11.9654  -16.4428   21.6115 C   0  0  0  0  0  0  0  0  0  0  0  0
   12.9973  -16.2828   20.8675 O   0  0  0  0  0  0  0  0  0  0  0  0
   12.1388  -15.9868   22.9453 N   0  0  0  0  0  0  0  0  0  0  0  0
   13.1214  -16.5682   23.8455 C   0  0  1  0  0  0  0  0  0  0  0  0
   12.5945  -17.8808   24.3626 C   0  0  0  0  0  0  0  0  0  0  0  0
   12.3934  -17.9170   25.8113 C   0  0  0  0  0  0  0  0  0  0  0  0
   12.8277  -16.9155   26.4670 O   0  0  0  0  0  0  0  0  0  0  0  0
   14.4504  -16.6769   23.2672 C   0  0  0  0  0  0  0  0  0  0  0  0
   15.4540  -15.8052   23.6200 O   0  0  0  0  0  0  0  0  0  0  0  0
   11.7916  -18.9064   26.5376 O   0  0  0  0  0  0  0  0  0  0  0  0
   14.6995  -17.5703   22.4362 O   0  0  0  0  0  0  0  0  0  0  0  0
  2  1  1  6
  2  3  1  0
  4  2  1  0
  4  6  1  0
  4  5  1  1
  6 14  1  0
  7  6  2  0
  9 11  1  0
  9  8  1  0
 10  9  2  0
 12 11  1  0
 13 12  1  6
 14 13  1  0
 15 13  1  0
 15 17  1  0
 16 15  2  0
 18 17  1  0
 18 19  1  6
 20 21  2  0
 20 19  1  0
 22 23  1  0
 22 18  1  0
 24 20  1  0
 25 22  2  0
M  END
$$$$
