VQD.pdb
     RDKit          3D

 25 24  0  0  1  0  0  0  0  0999 V2000
    7.2438  -16.1105   19.8795 C   0  0  0  0  0  0  0  0  0  0  0  0
    7.8251  -14.8483   19.2732 C   0  0  1  0  0  0  0  0  0  0  0  0
    7.1338  -14.4738   17.9760 C   0  0  0  0  0  0  0  0  0  0  0  0
    7.6107  -13.6959   20.2308 C   0  0  2  0  0  0  0  0  0  0  0  0
    8.0899  -12.4886   19.6199 N   0  0  0  0  0  0  0  0  0  0  0  0
    8.3259  -13.9128   21.5098 C   0  0  0  0  0  0  0  0  0  0  0  0
    9.5758  -13.8312   21.4546 O   0  0  0  0  0  0  0  0  0  0  0  0
    6.3166  -10.9724   26.9056 N   0  0  0  0  0  0  0  0  0  0  0  0
    6.2026  -12.2655   26.3343 C   0  0  0  0  0  0  0  0  0  0  0  0
    5.4268  -13.0899   26.8600 O   0  0  0  0  0  0  0  0  0  0  0  0
    6.9751  -12.6864   25.1161 C   0  0  0  0  0  0  0  0  0  0  0  0
    7.3346  -14.1454   25.1718 C   0  0  0  0  0  0  0  0  0  0  0  0
    8.2213  -14.4895   23.9929 C   0  0  2  0  0  0  0  0  0  0  0  0
    7.6373  -14.1917   22.7036 N   0  0  0  0  0  0  0  0  0  0  0  0
    8.9428  -15.7410   24.0835 C   0  0  0  0  0  0  0  0  0  0  0  0
    8.3696  -16.8374   23.7470 O   0  0  0  0  0  0  0  0  0  0  0  0
   10.2829  -15.9018   24.5254 N   0  0  0  0  0  0  0  0  0  0  0  0
   10.8882  -17.2099   24.7163 C   0  0  1  0  0  0  0  0  0  0  0  0
   12.3556  -17.1222   24.3890 C   0  0  0  0  0  0  0  0  0  0  0  0
   12.6393  -16.7771   22.9957 C   0  0  0  0  0  0  0  0  0  0  0  0
   11.8489  -17.2603   22.1220 O   0  0  0  0  0  0  0  0  0  0  0  0
   10.6310  -17.7866   26.0255 C   0  0  0  0  0  0  0  0  0  0  0  0
   11.0246  -19.0690   26.3285 O   0  0  0  0  0  0  0  0  0  0  0  0
   13.6581  -15.9943   22.5293 O   0  0  0  0  0  0  0  0  0  0  0  0
   10.0448  -17.1193   26.8984 O   0  0  0  0  0  0  0  0  0  0  0  0
  2  1  1  1
  2  3  1  0
  4  2  1  0
  4  6  1  0
  4  5  1  6
  6 14  1  0
  7  6  2  0
  9 11  1  0
  9  8  1  0
 10  9  2  0
 12 11  1  0
 13 12  1  1
 14 13  1  0
 15 13  1  0
 15 17  1  0
 16 15  2  0
 18 17  1  0
 18 19  1  1
 20 21  2  0
 20 19  1  0
 22 23  1  0
 22 18  1  0
 24 20  1  0
 25 22  2  0
M  END
$$$$
