VQD.pdb
     RDKit          3D

 25 24  0  0  1  0  0  0  0  0999 V2000
    7.8412  -12.6418   18.1892 C   0  0  0  0  0  0  0  0  0  0  0  0
    8.3600  -13.0672   19.5488 C   0  0  1  0  0  0  0  0  0  0  0  0
    7.2684  -13.0482   20.6018 C   0  0  0  0  0  0  0  0  0  0  0  0
    8.8592  -14.4936   19.4631 C   0  0  2  0  0  0  0  0  0  0  0  0
    7.7996  -15.3283   18.9728 N   0  0  0  0  0  0  0  0  0  0  0  0
    9.3025  -14.9937   20.7852 C   0  0  0  0  0  0  0  0  0  0  0  0
    8.4640  -14.8967   21.7123 O   0  0  0  0  0  0  0  0  0  0  0  0
   10.6178  -19.6613   21.7864 N   0  0  0  0  0  0  0  0  0  0  0  0
    9.4499  -18.9333   21.4433 C   0  0  0  0  0  0  0  0  0  0  0  0
    8.6045  -19.4681   20.6969 O   0  0  0  0  0  0  0  0  0  0  0  0
    9.1833  -17.5422   21.9448 C   0  0  0  0  0  0  0  0  0  0  0  0
   10.2550  -17.0875   22.8964 C   0  0  0  0  0  0  0  0  0  0  0  0
   11.1302  -16.0577   22.2122 C   0  0  2  0  0  0  0  0  0  0  0  0
   10.5837  -15.5402   20.9770 N   0  0  0  0  0  0  0  0  0  0  0  0
   12.5510  -16.3342   22.2051 C   0  0  0  0  0  0  0  0  0  0  0  0
   13.0585  -17.0593   21.2775 O   0  0  0  0  0  0  0  0  0  0  0  0
   13.4965  -15.8698   23.1577 N   0  0  0  0  0  0  0  0  0  0  0  0
   14.9103  -16.1990   23.0759 C   0  0  1  0  0  0  0  0  0  0  0  0
   15.7124  -14.9254   23.1232 C   0  0  0  0  0  0  0  0  0  0  0  0
   17.1537  -15.1183   22.9617 C   0  0  0  0  0  0  0  0  0  0  0  0
   17.7617  -15.6726   23.9335 O   0  0  0  0  0  0  0  0  0  0  0  0
   15.3394  -17.1784   24.0605 C   0  0  0  0  0  0  0  0  0  0  0  0
   16.3896  -18.0295   23.8074 O   0  0  0  0  0  0  0  0  0  0  0  0
   17.9184  -14.7695   21.8837 O   0  0  0  0  0  0  0  0  0  0  0  0
   14.7550  -17.2598   25.1572 O   0  0  0  0  0  0  0  0  0  0  0  0
  2  1  1  6
  2  3  1  0
  4  2  1  0
  4  6  1  0
  4  5  1  1
  6 14  1  0
  7  6  2  0
  9 11  1  0
  9  8  1  0
 10  9  2  0
 12 11  1  0
 13 12  1  6
 14 13  1  0
 15 13  1  0
 15 17  1  0
 16 15  2  0
 18 17  1  0
 18 19  1  1
 20 21  2  0
 20 19  1  0
 22 23  1  0
 22 18  1  0
 24 20  1  0
 25 22  2  0
M  END
$$$$
