VQD.pdb
     RDKit          3D

 25 24  0  0  1  0  0  0  0  0999 V2000
    7.9948  -11.6433   25.7835 C   0  0  0  0  0  0  0  0  0  0  0  0
    7.0598  -12.3603   26.7376 C   0  0  1  0  0  0  0  0  0  0  0  0
    6.2205  -11.3879   27.5443 C   0  0  0  0  0  0  0  0  0  0  0  0
    6.0957  -13.2110   25.9389 C   0  0  2  0  0  0  0  0  0  0  0  0
    5.3490  -14.0397   26.8421 N   0  0  0  0  0  0  0  0  0  0  0  0
    6.8083  -14.0696   24.9647 C   0  0  0  0  0  0  0  0  0  0  0  0
    7.3123  -15.1187   25.4311 O   0  0  0  0  0  0  0  0  0  0  0  0
    7.6465  -12.8132   18.5581 N   0  0  0  0  0  0  0  0  0  0  0  0
    8.2330  -14.0749   18.8332 C   0  0  0  0  0  0  0  0  0  0  0  0
    8.7409  -14.7206   17.8937 O   0  0  0  0  0  0  0  0  0  0  0  0
    8.2733  -14.6684   20.2131 C   0  0  0  0  0  0  0  0  0  0  0  0
    7.5568  -13.7960   21.2064 C   0  0  0  0  0  0  0  0  0  0  0  0
    7.6631  -14.4134   22.5855 C   0  0  2  0  0  0  0  0  0  0  0  0
    6.9074  -13.7211   23.6061 N   0  0  0  0  0  0  0  0  0  0  0  0
    8.9790  -14.8711   22.9779 C   0  0  0  0  0  0  0  0  0  0  0  0
    9.8011  -14.0590   23.5333 O   0  0  0  0  0  0  0  0  0  0  0  0
    9.4904  -16.1853   22.8094 N   0  0  0  0  0  0  0  0  0  0  0  0
   10.7892  -16.5875   23.3244 C   0  0  1  0  0  0  0  0  0  0  0  0
   10.6228  -17.8366   24.1490 C   0  0  0  0  0  0  0  0  0  0  0  0
   11.8723  -18.3622   24.6995 C   0  0  0  0  0  0  0  0  0  0  0  0
   12.9300  -17.7090   24.4238 O   0  0  0  0  0  0  0  0  0  0  0  0
   11.8100  -16.7155   22.2977 C   0  0  0  0  0  0  0  0  0  0  0  0
   13.1422  -16.8107   22.6259 O   0  0  0  0  0  0  0  0  0  0  0  0
   12.0292  -19.4761   25.4761 O   0  0  0  0  0  0  0  0  0  0  0  0
   11.4874  -16.7410   21.0951 O   0  0  0  0  0  0  0  0  0  0  0  0
  2  1  1  6
  2  3  1  0
  4  2  1  0
  4  6  1  0
  4  5  1  1
  6 14  1  0
  7  6  2  0
  9 11  1  0
  9  8  1  0
 10  9  2  0
 12 11  1  0
 13 12  1  6
 14 13  1  0
 15 13  1  0
 15 17  1  0
 16 15  2  0
 18 17  1  0
 18 19  1  6
 20 21  2  0
 20 19  1  0
 22 23  1  0
 22 18  1  0
 24 20  1  0
 25 22  2  0
M  END
$$$$
