VQD.pdb
     RDKit          3D

 25 24  0  0  1  0  0  0  0  0999 V2000
    8.5913  -12.1310   19.9859 C   0  0  0  0  0  0  0  0  0  0  0  0
    7.5293  -13.2129   20.0016 C   0  0  1  0  0  0  0  0  0  0  0  0
    6.9858  -13.4919   18.6132 C   0  0  0  0  0  0  0  0  0  0  0  0
    8.1459  -14.5036   20.4967 C   0  0  2  0  0  0  0  0  0  0  0  0
    7.1093  -15.4839   20.6532 N   0  0  0  0  0  0  0  0  0  0  0  0
    8.8368  -14.3127   21.7931 C   0  0  0  0  0  0  0  0  0  0  0  0
    9.9346  -13.7092   21.7406 O   0  0  0  0  0  0  0  0  0  0  0  0
    6.7079  -12.0172   26.9182 N   0  0  0  0  0  0  0  0  0  0  0  0
    6.1669  -13.2799   26.5654 C   0  0  0  0  0  0  0  0  0  0  0  0
    5.0500  -13.6042   27.0180 O   0  0  0  0  0  0  0  0  0  0  0  0
    6.8812  -14.2462   25.6632 C   0  0  0  0  0  0  0  0  0  0  0  0
    8.2247  -13.7158   25.2454 C   0  0  0  0  0  0  0  0  0  0  0  0
    8.8885  -14.7081   24.3130 C   0  0  2  0  0  0  0  0  0  0  0  0
    8.2878  -14.7822   22.9993 N   0  0  0  0  0  0  0  0  0  0  0  0
    9.2752  -15.9729   24.9010 C   0  0  0  0  0  0  0  0  0  0  0  0
    8.4824  -16.9785   24.8376 O   0  0  0  0  0  0  0  0  0  0  0  0
   10.4961  -16.2415   25.5752 N   0  0  0  0  0  0  0  0  0  0  0  0
   10.8742  -17.5804   25.9973 C   0  0  1  0  0  0  0  0  0  0  0  0
   12.2521  -17.8875   25.4729 C   0  0  0  0  0  0  0  0  0  0  0  0
   12.2814  -18.9112   24.4280 C   0  0  0  0  0  0  0  0  0  0  0  0
   11.1584  -19.4107   24.0951 O   0  0  0  0  0  0  0  0  0  0  0  0
   10.7489  -17.7982   27.4289 C   0  0  0  0  0  0  0  0  0  0  0  0
   10.8984  -19.0518   27.9743 O   0  0  0  0  0  0  0  0  0  0  0  0
   13.3801  -19.3898   23.7706 O   0  0  0  0  0  0  0  0  0  0  0  0
   10.5019  -16.8419   28.1875 O   0  0  0  0  0  0  0  0  0  0  0  0
  2  1  1  6
  2  3  1  0
  4  2  1  0
  4  6  1  0
  4  5  1  1
  6 14  1  0
  7  6  2  0
  9 11  1  0
  9  8  1  0
 10  9  2  0
 12 11  1  0
 13 12  1  1
 14 13  1  0
 15 13  1  0
 15 17  1  0
 16 15  2  0
 18 17  1  0
 18 19  1  1
 20 21  2  0
 20 19  1  0
 22 23  1  0
 22 18  1  0
 24 20  1  0
 25 22  2  0
M  END
$$$$
