VQD.pdb
     RDKit          3D

 25 24  0  0  1  0  0  0  0  0999 V2000
    7.7344  -11.3788   25.9724 C   0  0  0  0  0  0  0  0  0  0  0  0
    7.0158  -12.2699   26.9664 C   0  0  1  0  0  0  0  0  0  0  0  0
    6.1025  -11.4756   27.8806 C   0  0  0  0  0  0  0  0  0  0  0  0
    6.1377  -13.2448   26.2116 C   0  0  2  0  0  0  0  0  0  0  0  0
    5.5583  -14.1678   27.1457 N   0  0  0  0  0  0  0  0  0  0  0  0
    6.9106  -13.9979   25.1968 C   0  0  0  0  0  0  0  0  0  0  0  0
    7.5243  -15.0065   25.6190 O   0  0  0  0  0  0  0  0  0  0  0  0
    6.3298  -14.2893   19.1263 N   0  0  0  0  0  0  0  0  0  0  0  0
    7.6992  -14.6222   19.2856 C   0  0  0  0  0  0  0  0  0  0  0  0
    8.2519  -15.3290   18.4181 O   0  0  0  0  0  0  0  0  0  0  0  0
    8.5178  -14.1555   20.4560 C   0  0  0  0  0  0  0  0  0  0  0  0
    7.6663  -13.4473   21.4731 C   0  0  0  0  0  0  0  0  0  0  0  0
    7.7229  -14.1995   22.7867 C   0  0  2  0  0  0  0  0  0  0  0  0
    6.9470  -13.5985   23.8492 N   0  0  0  0  0  0  0  0  0  0  0  0
    9.0201  -14.7157   23.1688 C   0  0  0  0  0  0  0  0  0  0  0  0
    9.8690  -13.9504   23.7498 O   0  0  0  0  0  0  0  0  0  0  0  0
    9.4843  -16.0420   22.9631 N   0  0  0  0  0  0  0  0  0  0  0  0
   10.7474  -16.5176   23.5037 C   0  0  1  0  0  0  0  0  0  0  0  0
   10.4811  -17.6928   24.4071 C   0  0  0  0  0  0  0  0  0  0  0  0
   11.6762  -18.2335   25.0552 C   0  0  0  0  0  0  0  0  0  0  0  0
   12.7615  -17.5966   24.8604 O   0  0  0  0  0  0  0  0  0  0  0  0
   11.7490  -16.7965   22.4880 C   0  0  0  0  0  0  0  0  0  0  0  0
   13.0916  -16.7652   22.7843 O   0  0  0  0  0  0  0  0  0  0  0  0
   11.7559  -19.3459   25.8456 O   0  0  0  0  0  0  0  0  0  0  0  0
   11.4000  -17.0702   21.3243 O   0  0  0  0  0  0  0  0  0  0  0  0
  2  1  1  6
  2  3  1  0
  4  2  1  0
  4  6  1  0
  4  5  1  1
  6 14  1  0
  7  6  2  0
  9 11  1  0
  9  8  1  0
 10  9  2  0
 12 11  1  0
 13 12  1  6
 14 13  1  0
 15 13  1  0
 15 17  1  0
 16 15  2  0
 18 17  1  0
 18 19  1  6
 20 21  2  0
 20 19  1  0
 22 23  1  0
 22 18  1  0
 24 20  1  0
 25 22  2  0
M  END
$$$$
