VQD.pdb
     RDKit          3D

 25 24  0  0  1  0  0  0  0  0999 V2000
    8.4694  -12.4633   18.9513 C   0  0  0  0  0  0  0  0  0  0  0  0
    8.1213  -13.1106   20.2773 C   0  0  1  0  0  0  0  0  0  0  0  0
    6.7185  -12.7530   20.7301 C   0  0  0  0  0  0  0  0  0  0  0  0
    8.1584  -14.6153   20.1176 C   0  0  2  0  0  0  0  0  0  0  0  0
    7.4329  -14.9750   18.9324 N   0  0  0  0  0  0  0  0  0  0  0  0
    7.5561  -15.3000   21.2850 C   0  0  0  0  0  0  0  0  0  0  0  0
    6.3165  -15.1647   21.4149 O   0  0  0  0  0  0  0  0  0  0  0  0
    6.4959  -21.0356   24.6253 N   0  0  0  0  0  0  0  0  0  0  0  0
    6.0570  -19.9619   23.8093 C   0  0  0  0  0  0  0  0  0  0  0  0
    5.4583  -20.2201   22.7450 O   0  0  0  0  0  0  0  0  0  0  0  0
    6.2786  -18.5212   24.1739 C   0  0  0  0  0  0  0  0  0  0  0  0
    6.6465  -17.7008   22.9687 C   0  0  0  0  0  0  0  0  0  0  0  0
    7.8540  -16.8456   23.2929 C   0  0  2  0  0  0  0  0  0  0  0  0
    8.3341  -16.0510   22.1838 N   0  0  0  0  0  0  0  0  0  0  0  0
    8.8740  -17.4686   24.1093 C   0  0  0  0  0  0  0  0  0  0  0  0
    9.5617  -18.4447   23.6422 O   0  0  0  0  0  0  0  0  0  0  0  0
    9.2183  -17.1032   25.4379 N   0  0  0  0  0  0  0  0  0  0  0  0
   10.2087  -17.8317   26.2140 C   0  0  1  0  0  0  0  0  0  0  0  0
   11.3324  -16.8960   26.5743 C   0  0  0  0  0  0  0  0  0  0  0  0
   12.3066  -16.6887   25.5025 C   0  0  0  0  0  0  0  0  0  0  0  0
   12.1012  -17.3286   24.4210 O   0  0  0  0  0  0  0  0  0  0  0  0
    9.6539  -18.5242   27.3652 C   0  0  0  0  0  0  0  0  0  0  0  0
   10.4275  -19.3640   28.1319 O   0  0  0  0  0  0  0  0  0  0  0  0
   13.4116  -15.8847   25.5344 O   0  0  0  0  0  0  0  0  0  0  0  0
    8.4584  -18.3639   27.6749 O   0  0  0  0  0  0  0  0  0  0  0  0
  2  1  1  6
  2  3  1  0
  4  2  1  0
  4  6  1  0
  4  5  1  6
  6 14  1  0
  7  6  2  0
  9 11  1  0
  9  8  1  0
 10  9  2  0
 12 11  1  0
 13 12  1  6
 14 13  1  0
 15 13  1  0
 15 17  1  0
 16 15  2  0
 18 17  1  0
 18 19  1  1
 20 21  2  0
 20 19  1  0
 22 23  1  0
 22 18  1  0
 24 20  1  0
 25 22  2  0
M  END
$$$$
