YMY.pdb
     RDKit          3D

 33 34  0  0  1  0  0  0  0  0999 V2000
   12.5502  -19.8864   18.6453 O   0  0  0  0  0  0  0  0  0  0  0  0
   11.2991  -19.5765   19.1761 C   0  0  0  0  0  0  0  0  0  0  0  0
   10.2036  -19.3985   18.3556 C   0  0  0  0  0  0  0  0  0  0  0  0
    8.9699  -19.0942   18.8737 C   0  0  0  0  0  0  0  0  0  0  0  0
    8.7738  -18.9522   20.2533 C   0  0  0  0  0  0  0  0  0  0  0  0
    7.4298  -18.6234   20.8185 C   0  0  0  0  0  0  0  0  0  0  0  0
    7.1275  -17.2025   20.4929 C   0  0  2  0  0  0  0  0  0  0  0  0
    7.4180  -16.9622   19.0953 N   0  0  0  0  0  0  0  0  0  0  0  0
    7.8389  -16.2116   21.3391 C   0  0  0  0  0  0  0  0  0  0  0  0
    8.8659  -15.6271   20.8958 O   0  0  0  0  0  0  0  0  0  0  0  0
    9.8865  -19.1355   21.0519 C   0  0  0  0  0  0  0  0  0  0  0  0
   11.1328  -19.4410   20.5563 C   0  0  0  0  0  0  0  0  0  0  0  0
    6.9352  -11.4131   27.5752 C   0  0  0  0  0  0  0  0  0  0  0  0
    6.2456  -12.6272   26.4190 S   0  0  0  0  0  0  0  0  0  0  0  0
    7.5760  -13.2546   25.3316 C   0  0  0  0  0  0  0  0  0  0  0  0
    6.9841  -14.2621   24.3851 C   0  0  0  0  0  0  0  0  0  0  0  0
    8.0268  -14.8835   23.4891 C   0  0  2  0  0  0  0  0  0  0  0  0
    7.4158  -15.8787   22.6521 N   0  0  0  0  0  0  0  0  0  0  0  0
    9.1178  -15.4856   24.3103 C   0  0  0  0  0  0  0  0  0  0  0  0
    8.8237  -16.3558   25.1406 O   0  0  0  0  0  0  0  0  0  0  0  0
   10.6918  -17.5056   30.9341 O   0  0  0  0  0  0  0  0  0  0  0  0
   10.8058  -17.4200   29.5336 C   0  0  0  0  0  0  0  0  0  0  0  0
   11.6545  -16.5149   28.9351 C   0  0  0  0  0  0  0  0  0  0  0  0
   11.7567  -16.4414   27.5595 C   0  0  0  0  0  0  0  0  0  0  0  0
   11.0256  -17.2561   26.7378 C   0  0  0  0  0  0  0  0  0  0  0  0
   11.1041  -17.2126   25.2571 C   0  0  0  0  0  0  0  0  0  0  0  0
   11.5644  -15.8635   24.7485 C   0  0  2  0  0  0  0  0  0  0  0  0
   10.4706  -15.1065   24.1808 N   0  0  0  0  0  0  0  0  0  0  0  0
   12.7248  -15.9600   23.8500 C   0  0  0  0  0  0  0  0  0  0  0  0
   13.8783  -16.6406   24.2684 O   0  0  0  0  0  0  0  0  0  0  0  0
   10.1749  -18.1636   27.3207 C   0  0  0  0  0  0  0  0  0  0  0  0
   10.0792  -18.2308   28.6913 C   0  0  0  0  0  0  0  0  0  0  0  0
   12.7674  -15.4665   22.7028 O   0  0  0  0  0  0  0  0  0  0  0  0
  2  1  1  0
  3  2  2  0
  4  3  1  0
  5  4  2  0
  5 11  1  0
  6  5  1  0
  7  6  1  0
  7  8  1  6
  9  7  1  0
  9 10  2  0
 11 12  2  0
 12  2  1  0
 13 14  1  0
 14 15  1  0
 15 16  1  0
 17 16  1  1
 17 19  1  0
 17 18  1  0
 18  9  1  0
 19 28  1  0
 20 19  2  0
 22 21  1  0
 22 32  2  0
 23 22  1  0
 24 23  2  0
 24 25  1  0
 25 31  2  0
 26 25  1  0
 27 26  1  6
 27 29  1  0
 28 27  1  0
 29 33  2  0
 29 30  1  0
 31 32  1  0
M  END
$$$$
