YMY.pdb
     RDKit          3D

 33 34  0  0  1  0  0  0  0  0999 V2000
    8.1451  -15.4525   13.0300 O   0  0  0  0  0  0  0  0  0  0  0  0
    8.2352  -15.0208   14.3523 C   0  0  0  0  0  0  0  0  0  0  0  0
    9.3748  -15.2467   15.0974 C   0  0  0  0  0  0  0  0  0  0  0  0
    9.4683  -14.8228   16.3991 C   0  0  0  0  0  0  0  0  0  0  0  0
    8.4126  -14.1453   17.0224 C   0  0  0  0  0  0  0  0  0  0  0  0
    8.5148  -13.6808   18.4393 C   0  0  0  0  0  0  0  0  0  0  0  0
    8.8064  -14.8651   19.2931 C   0  0  2  0  0  0  0  0  0  0  0  0
    7.6786  -15.7718   19.2506 N   0  0  0  0  0  0  0  0  0  0  0  0
    9.1469  -14.5409   20.7012 C   0  0  0  0  0  0  0  0  0  0  0  0
   10.1607  -13.8340   20.9571 O   0  0  0  0  0  0  0  0  0  0  0  0
    7.2838  -13.9321   16.2546 C   0  0  0  0  0  0  0  0  0  0  0  0
    7.1665  -14.3473   14.9483 C   0  0  0  0  0  0  0  0  0  0  0  0
    6.2851  -12.6959   26.7263 C   0  0  0  0  0  0  0  0  0  0  0  0
    7.2596  -12.2193   25.2738 S   0  0  0  0  0  0  0  0  0  0  0  0
    6.7184  -13.2028   23.8296 C   0  0  0  0  0  0  0  0  0  0  0  0
    7.3273  -14.5740   23.9300 C   0  0  0  0  0  0  0  0  0  0  0  0
    8.6319  -14.6747   23.1788 C   0  0  2  0  0  0  0  0  0  0  0  0
    8.3749  -14.9949   21.8020 N   0  0  0  0  0  0  0  0  0  0  0  0
    9.5070  -15.7092   23.8042 C   0  0  0  0  0  0  0  0  0  0  0  0
    9.2695  -16.9030   23.5768 O   0  0  0  0  0  0  0  0  0  0  0  0
   11.9240  -17.6041   32.0262 O   0  0  0  0  0  0  0  0  0  0  0  0
   11.7619  -16.9648   30.7825 C   0  0  0  0  0  0  0  0  0  0  0  0
   10.9238  -15.8816   30.6345 C   0  0  0  0  0  0  0  0  0  0  0  0
   10.7739  -15.2636   29.4082 C   0  0  0  0  0  0  0  0  0  0  0  0
   11.4444  -15.6963   28.2962 C   0  0  0  0  0  0  0  0  0  0  0  0
   11.3148  -15.0631   26.9609 C   0  0  0  0  0  0  0  0  0  0  0  0
   10.8437  -16.0422   25.9073 C   0  0  2  0  0  0  0  0  0  0  0  0
   10.5942  -15.3855   24.6432 N   0  0  0  0  0  0  0  0  0  0  0  0
    9.7126  -16.8656   26.3611 C   0  0  0  0  0  0  0  0  0  0  0  0
    8.4601  -16.2727   26.5810 O   0  0  0  0  0  0  0  0  0  0  0  0
   12.2837  -16.7757   28.4288 C   0  0  0  0  0  0  0  0  0  0  0  0
   12.4277  -17.3853   29.6534 C   0  0  0  0  0  0  0  0  0  0  0  0
    9.7802  -18.0950   26.5742 O   0  0  0  0  0  0  0  0  0  0  0  0
  2  1  1  0
  3  2  2  0
  4  3  1  0
  5  4  2  0
  5 11  1  0
  6  5  1  0
  7  6  1  0
  7  8  1  1
  9  7  1  0
  9 10  2  0
 11 12  2  0
 12  2  1  0
 13 14  1  0
 14 15  1  0
 15 16  1  0
 17 16  1  1
 17 19  1  0
 17 18  1  0
 18  9  1  0
 19 28  1  0
 20 19  2  0
 22 21  1  0
 22 32  2  0
 23 22  1  0
 24 23  2  0
 24 25  1  0
 25 31  2  0
 26 25  1  0
 27 26  1  1
 27 29  1  0
 28 27  1  0
 29 33  2  0
 29 30  1  0
 31 32  1  0
M  END
$$$$
