YMY.pdb
     RDKit          3D

 33 34  0  0  1  0  0  0  0  0999 V2000
    8.8973  -21.5050   15.6281 O   0  0  0  0  0  0  0  0  0  0  0  0
    9.2547  -20.6443   16.6647 C   0  0  0  0  0  0  0  0  0  0  0  0
   10.5285  -20.6621   17.1957 C   0  0  0  0  0  0  0  0  0  0  0  0
   10.8850  -19.8161   18.2156 C   0  0  0  0  0  0  0  0  0  0  0  0
    9.9718  -18.9027   18.7575 C   0  0  0  0  0  0  0  0  0  0  0  0
   10.3602  -17.9791   19.8665 C   0  0  0  0  0  0  0  0  0  0  0  0
    9.3973  -16.8437   19.8798 C   0  0  2  0  0  0  0  0  0  0  0  0
    9.5445  -16.0804   18.6587 N   0  0  0  0  0  0  0  0  0  0  0  0
    9.5164  -15.9485   21.0581 C   0  0  0  0  0  0  0  0  0  0  0  0
   10.5068  -15.1731   21.1622 O   0  0  0  0  0  0  0  0  0  0  0  0
    8.7039  -18.9055   18.2081 C   0  0  0  0  0  0  0  0  0  0  0  0
    8.3231  -19.7435   17.1858 C   0  0  0  0  0  0  0  0  0  0  0  0
    7.2925  -11.5260   26.3956 C   0  0  0  0  0  0  0  0  0  0  0  0
    7.4727  -12.4726   24.8600 S   0  0  0  0  0  0  0  0  0  0  0  0
    7.3024  -14.2574   25.2228 C   0  0  0  0  0  0  0  0  0  0  0  0
    7.2644  -15.0082   23.9204 C   0  0  0  0  0  0  0  0  0  0  0  0
    8.6203  -15.0761   23.2621 C   0  0  2  0  0  0  0  0  0  0  0  0
    8.5529  -15.9177   22.0996 N   0  0  0  0  0  0  0  0  0  0  0  0
    9.6350  -15.5930   24.2266 C   0  0  0  0  0  0  0  0  0  0  0  0
    9.5205  -16.7536   24.6426 O   0  0  0  0  0  0  0  0  0  0  0  0
   10.8467  -17.3010   31.8186 O   0  0  0  0  0  0  0  0  0  0  0  0
   10.9482  -16.5531   30.6302 C   0  0  0  0  0  0  0  0  0  0  0  0
    9.8920  -15.8045   30.1592 C   0  0  0  0  0  0  0  0  0  0  0  0
   10.0051  -15.0753   28.9914 C   0  0  0  0  0  0  0  0  0  0  0  0
   11.1601  -15.0648   28.2571 C   0  0  0  0  0  0  0  0  0  0  0  0
   11.3264  -14.2964   26.9991 C   0  0  0  0  0  0  0  0  0  0  0  0
   11.5520  -15.1977   25.8044 C   0  0  2  0  0  0  0  0  0  0  0  0
   10.7201  -14.8162   24.6845 N   0  0  0  0  0  0  0  0  0  0  0  0
   11.4450  -16.6255   26.1406 C   0  0  0  0  0  0  0  0  0  0  0  0
   10.1998  -17.1703   26.4890 O   0  0  0  0  0  0  0  0  0  0  0  0
   12.2217  -15.8069   28.7146 C   0  0  0  0  0  0  0  0  0  0  0  0
   12.1012  -16.5301   29.8786 C   0  0  0  0  0  0  0  0  0  0  0  0
   12.4088  -17.4208   26.1411 O   0  0  0  0  0  0  0  0  0  0  0  0
  2  1  1  0
  3  2  2  0
  4  3  1  0
  5  4  2  0
  5 11  1  0
  6  5  1  0
  7  6  1  0
  7  8  1  6
  9  7  1  0
  9 10  2  0
 11 12  2  0
 12  2  1  0
 13 14  1  0
 14 15  1  0
 15 16  1  0
 17 16  1  1
 17 19  1  0
 17 18  1  0
 18  9  1  0
 19 28  1  0
 20 19  2  0
 22 21  1  0
 22 32  2  0
 23 22  1  0
 24 23  2  0
 24 25  1  0
 25 31  2  0
 26 25  1  0
 27 26  1  1
 27 29  1  0
 28 27  1  0
 29 33  2  0
 29 30  1  0
 31 32  1  0
M  END
$$$$
