YMY.pdb
     RDKit          3D

 33 34  0  0  1  0  0  0  0  0999 V2000
    4.4554  -22.4103   19.5987 O   0  0  0  0  0  0  0  0  0  0  0  0
    5.3171  -21.5321   20.2538 C   0  0  0  0  0  0  0  0  0  0  0  0
    5.1666  -21.2598   21.5985 C   0  0  0  0  0  0  0  0  0  0  0  0
    6.0130  -20.3965   22.2477 C   0  0  0  0  0  0  0  0  0  0  0  0
    7.0613  -19.7584   21.5727 C   0  0  0  0  0  0  0  0  0  0  0  0
    7.9852  -18.8202   22.2798 C   0  0  0  0  0  0  0  0  0  0  0  0
    7.5587  -17.4288   21.9659 C   0  0  2  0  0  0  0  0  0  0  0  0
    7.8876  -17.1294   20.5884 N   0  0  0  0  0  0  0  0  0  0  0  0
    8.1289  -16.3923   22.8630 C   0  0  0  0  0  0  0  0  0  0  0  0
    9.3763  -16.2026   22.8930 O   0  0  0  0  0  0  0  0  0  0  0  0
    7.1897  -20.0483   20.2277 C   0  0  0  0  0  0  0  0  0  0  0  0
    6.3543  -20.9098   19.5552 C   0  0  0  0  0  0  0  0  0  0  0  0
    6.2706  -10.7332   28.1575 C   0  0  0  0  0  0  0  0  0  0  0  0
    5.7357  -11.8911   26.8692 S   0  0  0  0  0  0  0  0  0  0  0  0
    7.1567  -12.9174   26.3465 C   0  0  0  0  0  0  0  0  0  0  0  0
    6.7022  -13.8392   25.2487 C   0  0  0  0  0  0  0  0  0  0  0  0
    7.8291  -14.6884   24.7145 C   0  0  2  0  0  0  0  0  0  0  0  0
    7.3266  -15.5841   23.7098 N   0  0  0  0  0  0  0  0  0  0  0  0
    8.4694  -15.4515   25.8258 C   0  0  0  0  0  0  0  0  0  0  0  0
    7.8161  -16.3406   26.3880 O   0  0  0  0  0  0  0  0  0  0  0  0
   12.4267  -17.4039   21.3628 O   0  0  0  0  0  0  0  0  0  0  0  0
   12.2948  -17.1171   22.7347 C   0  0  0  0  0  0  0  0  0  0  0  0
   12.6281  -15.8822   23.2465 C   0  0  0  0  0  0  0  0  0  0  0  0
   12.4939  -15.6141   24.5949 C   0  0  0  0  0  0  0  0  0  0  0  0
   12.0292  -16.5545   25.4741 C   0  0  0  0  0  0  0  0  0  0  0  0
   11.8683  -16.3104   26.9285 C   0  0  0  0  0  0  0  0  0  0  0  0
   10.4387  -15.9773   27.2974 C   0  0  2  0  0  0  0  0  0  0  0  0
    9.7878  -15.2041   26.2631 N   0  0  0  0  0  0  0  0  0  0  0  0
   10.3227  -15.3676   28.6308 C   0  0  0  0  0  0  0  0  0  0  0  0
    9.6709  -14.1341   28.7813 O   0  0  0  0  0  0  0  0  0  0  0  0
   11.6932  -17.7906   24.9780 C   0  0  0  0  0  0  0  0  0  0  0  0
   11.8293  -18.0496   23.6339 C   0  0  0  0  0  0  0  0  0  0  0  0
   10.7743  -15.8782   29.6780 O   0  0  0  0  0  0  0  0  0  0  0  0
  2  1  1  0
  3  2  2  0
  4  3  1  0
  5  4  2  0
  5 11  1  0
  6  5  1  0
  7  6  1  0
  7  8  1  6
  9  7  1  0
  9 10  2  0
 11 12  2  0
 12  2  1  0
 13 14  1  0
 14 15  1  0
 15 16  1  0
 17 16  1  1
 17 19  1  0
 17 18  1  0
 18  9  1  0
 19 28  1  0
 20 19  2  0
 22 21  1  0
 22 32  2  0
 23 22  1  0
 24 23  2  0
 24 25  1  0
 25 31  2  0
 26 25  1  0
 27 26  1  6
 27 29  1  0
 28 27  1  0
 29 33  2  0
 29 30  1  0
 31 32  1  0
M  END
$$$$
