YMY.pdb
     RDKit          3D

 33 34  0  0  1  0  0  0  0  0999 V2000
    5.3330  -19.4379   14.7824 O   0  0  0  0  0  0  0  0  0  0  0  0
    6.1496  -18.9035   15.7778 C   0  0  0  0  0  0  0  0  0  0  0  0
    7.0446  -17.8916   15.4952 C   0  0  0  0  0  0  0  0  0  0  0  0
    7.8498  -17.3619   16.4720 C   0  0  0  0  0  0  0  0  0  0  0  0
    7.7956  -17.8266   17.7922 C   0  0  0  0  0  0  0  0  0  0  0  0
    8.6703  -17.2483   18.8573 C   0  0  0  0  0  0  0  0  0  0  0  0
    8.1936  -15.8679   19.1465 C   0  0  2  0  0  0  0  0  0  0  0  0
    8.2860  -15.0702   17.9421 N   0  0  0  0  0  0  0  0  0  0  0  0
    8.9035  -15.1917   20.2614 C   0  0  0  0  0  0  0  0  0  0  0  0
    9.2658  -13.9888   20.1396 O   0  0  0  0  0  0  0  0  0  0  0  0
    6.8914  -18.8397   18.0481 C   0  0  0  0  0  0  0  0  0  0  0  0
    6.0740  -19.3865   17.0862 C   0  0  0  0  0  0  0  0  0  0  0  0
    7.0929  -11.8805   25.8990 C   0  0  0  0  0  0  0  0  0  0  0  0
    7.3684  -12.5560   24.2394 S   0  0  0  0  0  0  0  0  0  0  0  0
    7.1759  -14.3745   24.2838 C   0  0  0  0  0  0  0  0  0  0  0  0
    7.5026  -14.9229   22.9223 C   0  0  0  0  0  0  0  0  0  0  0  0
    8.9586  -15.2965   22.7927 C   0  0  2  0  0  0  0  0  0  0  0  0
    9.2046  -15.8418   21.4864 N   0  0  0  0  0  0  0  0  0  0  0  0
    9.3336  -16.2792   23.8513 C   0  0  0  0  0  0  0  0  0  0  0  0
    8.4670  -17.0571   24.2721 O   0  0  0  0  0  0  0  0  0  0  0  0
   10.7338  -15.4002   32.1334 O   0  0  0  0  0  0  0  0  0  0  0  0
   10.6422  -15.3001   30.7322 C   0  0  0  0  0  0  0  0  0  0  0  0
   10.4671  -14.0846   30.1080 C   0  0  0  0  0  0  0  0  0  0  0  0
   10.3786  -14.0006   28.7320 C   0  0  0  0  0  0  0  0  0  0  0  0
   10.4594  -15.1107   27.9354 C   0  0  0  0  0  0  0  0  0  0  0  0
   10.3705  -15.0673   26.4552 C   0  0  0  0  0  0  0  0  0  0  0  0
   10.9048  -16.3295   25.8133 C   0  0  2  0  0  0  0  0  0  0  0  0
   10.6338  -16.3609   24.3930 N   0  0  0  0  0  0  0  0  0  0  0  0
   10.4695  -17.5499   26.5092 C   0  0  0  0  0  0  0  0  0  0  0  0
    9.1101  -17.8971   26.5275 O   0  0  0  0  0  0  0  0  0  0  0  0
   10.6338  -16.3297   28.5441 C   0  0  0  0  0  0  0  0  0  0  0  0
   10.7213  -16.4049   29.9148 C   0  0  0  0  0  0  0  0  0  0  0  0
   11.2408  -18.3301   27.1072 O   0  0  0  0  0  0  0  0  0  0  0  0
  2  1  1  0
  3  2  2  0
  4  3  1  0
  5  4  2  0
  5 11  1  0
  6  5  1  0
  7  6  1  0
  7  8  1  6
  9  7  1  0
  9 10  2  0
 11 12  2  0
 12  2  1  0
 13 14  1  0
 14 15  1  0
 15 16  1  0
 17 16  1  6
 17 19  1  0
 17 18  1  0
 18  9  1  0
 19 28  1  0
 20 19  2  0
 22 21  1  0
 22 32  2  0
 23 22  1  0
 24 23  2  0
 24 25  1  0
 25 31  2  0
 26 25  1  0
 27 26  1  1
 27 29  1  0
 28 27  1  0
 29 33  2  0
 29 30  1  0
 31 32  1  0
M  END
$$$$
