YMY.pdb
     RDKit          3D

 33 34  0  0  1  0  0  0  0  0999 V2000
    8.0726  -20.5117   14.3273 O   0  0  0  0  0  0  0  0  0  0  0  0
    8.5937  -19.9143   15.4739 C   0  0  0  0  0  0  0  0  0  0  0  0
    7.8512  -19.8371   16.6348 C   0  0  0  0  0  0  0  0  0  0  0  0
    8.3604  -19.2507   17.7661 C   0  0  0  0  0  0  0  0  0  0  0  0
    9.6515  -18.7081   17.7876 C   0  0  0  0  0  0  0  0  0  0  0  0
   10.2077  -18.0718   19.0203 C   0  0  0  0  0  0  0  0  0  0  0  0
    9.3182  -16.9386   19.3960 C   0  0  2  0  0  0  0  0  0  0  0  0
    9.3106  -15.9642   18.3255 N   0  0  0  0  0  0  0  0  0  0  0  0
    9.6666  -16.2815   20.6809 C   0  0  0  0  0  0  0  0  0  0  0  0
   10.8338  -15.8380   20.8651 O   0  0  0  0  0  0  0  0  0  0  0  0
   10.3732  -18.7985   16.6127 C   0  0  0  0  0  0  0  0  0  0  0  0
    9.8847  -19.3814   15.4664 C   0  0  0  0  0  0  0  0  0  0  0  0
    6.4782  -12.8242   25.8273 C   0  0  0  0  0  0  0  0  0  0  0  0
    7.5757  -12.5801   24.4052 S   0  0  0  0  0  0  0  0  0  0  0  0
    7.2994  -13.9172   23.1879 C   0  0  0  0  0  0  0  0  0  0  0  0
    7.8146  -15.2053   23.7680 C   0  0  0  0  0  0  0  0  0  0  0  0
    9.0619  -15.6866   23.0688 C   0  0  2  0  0  0  0  0  0  0  0  0
    8.7348  -16.1221   21.7393 N   0  0  0  0  0  0  0  0  0  0  0  0
    9.6912  -16.7952   23.8447 C   0  0  0  0  0  0  0  0  0  0  0  0
    9.0556  -17.8467   23.9984 O   0  0  0  0  0  0  0  0  0  0  0  0
   11.1381  -15.0587   32.0372 O   0  0  0  0  0  0  0  0  0  0  0  0
   11.0639  -15.0776   30.6315 C   0  0  0  0  0  0  0  0  0  0  0  0
   10.5450  -14.0153   29.9244 C   0  0  0  0  0  0  0  0  0  0  0  0
   10.4780  -14.0469   28.5451 C   0  0  0  0  0  0  0  0  0  0  0  0
   10.9192  -15.1251   27.8265 C   0  0  0  0  0  0  0  0  0  0  0  0
   10.8675  -15.2018   26.3459 C   0  0  0  0  0  0  0  0  0  0  0  0
   11.2155  -16.5825   25.8326 C   0  0  2  0  0  0  0  0  0  0  0  0
   10.9801  -16.6971   24.4103 N   0  0  0  0  0  0  0  0  0  0  0  0
   10.5775  -17.6558   26.6099 C   0  0  0  0  0  0  0  0  0  0  0  0
    9.2020  -17.8961   26.4721 O   0  0  0  0  0  0  0  0  0  0  0  0
   11.4390  -16.1919   28.5184 C   0  0  0  0  0  0  0  0  0  0  0  0
   11.5026  -16.1524   29.8919 C   0  0  0  0  0  0  0  0  0  0  0  0
   11.1841  -18.3974   27.4120 O   0  0  0  0  0  0  0  0  0  0  0  0
  2  1  1  0
  3  2  2  0
  4  3  1  0
  5  4  2  0
  5 11  1  0
  6  5  1  0
  7  6  1  0
  7  8  1  6
  9  7  1  0
  9 10  2  0
 11 12  2  0
 12  2  1  0
 13 14  1  0
 14 15  1  0
 15 16  1  0
 17 16  1  1
 17 19  1  0
 17 18  1  0
 18  9  1  0
 19 28  1  0
 20 19  2  0
 22 21  1  0
 22 32  2  0
 23 22  1  0
 24 23  2  0
 24 25  1  0
 25 31  2  0
 26 25  1  0
 27 26  1  1
 27 29  1  0
 28 27  1  0
 29 33  2  0
 29 30  1  0
 31 32  1  0
M  END
$$$$
