YMY.pdb
     RDKit          3D

 33 34  0  0  1  0  0  0  0  0999 V2000
    6.5320  -23.3539   20.3710 O   0  0  0  0  0  0  0  0  0  0  0  0
    7.0608  -22.1575   20.8527 C   0  0  0  0  0  0  0  0  0  0  0  0
    7.7152  -22.1079   22.0669 C   0  0  0  0  0  0  0  0  0  0  0  0
    8.2380  -20.9325   22.5447 C   0  0  0  0  0  0  0  0  0  0  0  0
    8.1284  -19.7386   21.8205 C   0  0  0  0  0  0  0  0  0  0  0  0
    8.7000  -18.4587   22.3390 C   0  0  0  0  0  0  0  0  0  0  0  0
    8.0916  -17.3374   21.5715 C   0  0  2  0  0  0  0  0  0  0  0  0
    8.3298  -17.5432   20.1586 N   0  0  0  0  0  0  0  0  0  0  0  0
    8.5600  -15.9880   21.9762 C   0  0  0  0  0  0  0  0  0  0  0  0
    9.6523  -15.5405   21.5293 O   0  0  0  0  0  0  0  0  0  0  0  0
    7.4688  -19.8160   20.6087 C   0  0  0  0  0  0  0  0  0  0  0  0
    6.9366  -20.9818   20.1089 C   0  0  0  0  0  0  0  0  0  0  0  0
    4.9325  -12.5862   26.0254 C   0  0  0  0  0  0  0  0  0  0  0  0
    6.5085  -11.7719   26.3995 S   0  0  0  0  0  0  0  0  0  0  0  0
    7.8875  -12.8084   25.7912 C   0  0  0  0  0  0  0  0  0  0  0  0
    7.3451  -13.7790   24.7787 C   0  0  0  0  0  0  0  0  0  0  0  0
    8.4089  -14.2590   23.8226 C   0  0  2  0  0  0  0  0  0  0  0  0
    7.8278  -15.1543   22.8608 N   0  0  0  0  0  0  0  0  0  0  0  0
    9.5075  -14.9352   24.5729 C   0  0  0  0  0  0  0  0  0  0  0  0
    9.4014  -15.0539   25.8008 O   0  0  0  0  0  0  0  0  0  0  0  0
   10.5469  -15.4786   30.9902 O   0  0  0  0  0  0  0  0  0  0  0  0
   10.7562  -15.8616   29.6518 C   0  0  0  0  0  0  0  0  0  0  0  0
   10.7926  -14.9325   28.6352 C   0  0  0  0  0  0  0  0  0  0  0  0
   10.9987  -15.3220   27.3260 C   0  0  0  0  0  0  0  0  0  0  0  0
   11.1735  -16.6357   26.9838 C   0  0  0  0  0  0  0  0  0  0  0  0
   11.3985  -17.0988   25.5925 C   0  0  0  0  0  0  0  0  0  0  0  0
   11.7981  -15.9668   24.6708 C   0  0  2  0  0  0  0  0  0  0  0  0
   10.6621  -15.4460   23.9430 N   0  0  0  0  0  0  0  0  0  0  0  0
   12.9295  -16.3161   23.7984 C   0  0  0  0  0  0  0  0  0  0  0  0
   12.7886  -16.2353   22.4047 O   0  0  0  0  0  0  0  0  0  0  0  0
   11.1395  -17.5733   27.9872 C   0  0  0  0  0  0  0  0  0  0  0  0
   10.9341  -17.1773   29.2884 C   0  0  0  0  0  0  0  0  0  0  0  0
   14.0462  -16.6926   24.2138 O   0  0  0  0  0  0  0  0  0  0  0  0
  2  1  1  0
  3  2  2  0
  4  3  1  0
  5  4  2  0
  5 11  1  0
  6  5  1  0
  7  6  1  0
  7  8  1  6
  9  7  1  0
  9 10  2  0
 11 12  2  0
 12  2  1  0
 13 14  1  0
 14 15  1  0
 15 16  1  0
 17 16  1  1
 17 19  1  0
 17 18  1  0
 18  9  1  0
 19 28  1  0
 20 19  2  0
 22 21  1  0
 22 32  2  0
 23 22  1  0
 24 23  2  0
 24 25  1  0
 25 31  2  0
 26 25  1  0
 27 26  1  6
 27 29  1  0
 28 27  1  0
 29 33  2  0
 29 30  1  0
 31 32  1  0
M  END
$$$$
