YMY.pdb
     RDKit          3D

 33 34  0  0  1  0  0  0  0  0999 V2000
    6.7692  -14.6944   13.4250 O   0  0  0  0  0  0  0  0  0  0  0  0
    7.2584  -14.4226   14.7017 C   0  0  0  0  0  0  0  0  0  0  0  0
    6.6326  -13.5059   15.5220 C   0  0  0  0  0  0  0  0  0  0  0  0
    7.1102  -13.2358   16.7798 C   0  0  0  0  0  0  0  0  0  0  0  0
    8.2498  -13.8783   17.2801 C   0  0  0  0  0  0  0  0  0  0  0  0
    8.7689  -13.5866   18.6509 C   0  0  0  0  0  0  0  0  0  0  0  0
    8.6772  -14.8365   19.4545 C   0  0  2  0  0  0  0  0  0  0  0  0
    7.3333  -15.3661   19.3594 N   0  0  0  0  0  0  0  0  0  0  0  0
    9.0649  -14.6829   20.8794 C   0  0  0  0  0  0  0  0  0  0  0  0
   10.1821  -14.1767   21.1769 O   0  0  0  0  0  0  0  0  0  0  0  0
    8.8570  -14.7910   16.4388 C   0  0  0  0  0  0  0  0  0  0  0  0
    8.3972  -15.0787   15.1746 C   0  0  0  0  0  0  0  0  0  0  0  0
    6.2143  -11.6842   26.3232 C   0  0  0  0  0  0  0  0  0  0  0  0
    7.8467  -12.4115   26.0190 S   0  0  0  0  0  0  0  0  0  0  0  0
    7.6508  -14.1670   25.5438 C   0  0  0  0  0  0  0  0  0  0  0  0
    7.4251  -14.2376   24.0587 C   0  0  0  0  0  0  0  0  0  0  0  0
    8.5464  -14.9518   23.3452 C   0  0  2  0  0  0  0  0  0  0  0  0
    8.2262  -15.0854   21.9510 N   0  0  0  0  0  0  0  0  0  0  0  0
    8.7778  -16.2910   23.9617 C   0  0  0  0  0  0  0  0  0  0  0  0
    7.7984  -17.0072   24.2090 O   0  0  0  0  0  0  0  0  0  0  0  0
   11.4972  -15.7024   31.8540 O   0  0  0  0  0  0  0  0  0  0  0  0
   11.2942  -15.6212   30.4633 C   0  0  0  0  0  0  0  0  0  0  0  0
   10.5196  -14.6275   29.9064 C   0  0  0  0  0  0  0  0  0  0  0  0
   10.3285  -14.5595   28.5400 C   0  0  0  0  0  0  0  0  0  0  0  0
   10.8942  -15.4682   27.6870 C   0  0  0  0  0  0  0  0  0  0  0  0
   10.7169  -15.4331   26.2145 C   0  0  0  0  0  0  0  0  0  0  0  0
   10.5913  -16.8195   25.6207 C   0  0  2  0  0  0  0  0  0  0  0  0
   10.0650  -16.7769   24.2744 N   0  0  0  0  0  0  0  0  0  0  0  0
    9.8600  -17.7488   26.4953 C   0  0  0  0  0  0  0  0  0  0  0  0
    8.5203  -17.4917   26.8240 O   0  0  0  0  0  0  0  0  0  0  0  0
   11.6691  -16.4650   28.2283 C   0  0  0  0  0  0  0  0  0  0  0  0
   11.8548  -16.5255   29.5899 C   0  0  0  0  0  0  0  0  0  0  0  0
   10.3538  -18.7861   26.9868 O   0  0  0  0  0  0  0  0  0  0  0  0
  2  1  1  0
  3  2  2  0
  4  3  1  0
  5  4  2  0
  5 11  1  0
  6  5  1  0
  7  6  1  0
  7  8  1  1
  9  7  1  0
  9 10  2  0
 11 12  2  0
 12  2  1  0
 13 14  1  0
 14 15  1  0
 15 16  1  0
 17 16  1  1
 17 19  1  0
 17 18  1  0
 18  9  1  0
 19 28  1  0
 20 19  2  0
 22 21  1  0
 22 32  2  0
 23 22  1  0
 24 23  2  0
 24 25  1  0
 25 31  2  0
 26 25  1  0
 27 26  1  1
 27 29  1  0
 28 27  1  0
 29 33  2  0
 29 30  1  0
 31 32  1  0
M  END
$$$$
