YMY.pdb
     RDKit          3D

 33 34  0  0  1  0  0  0  0  0999 V2000
  -10.3740  -23.3169   16.8810 O   0  0  0  0  0  0  0  0  0  0  0  0
   -9.7178  -23.5282   18.0925 C   0  0  0  0  0  0  0  0  0  0  0  0
   -9.5315  -22.4955   18.9890 C   0  0  0  0  0  0  0  0  0  0  0  0
   -8.8868  -22.6991   20.1832 C   0  0  0  0  0  0  0  0  0  0  0  0
   -8.3929  -23.9606   20.5389 C   0  0  0  0  0  0  0  0  0  0  0  0
   -7.6931  -24.1836   21.8406 C   0  0  0  0  0  0  0  0  0  0  0  0
   -6.3414  -23.5664   21.7492 C   0  0  2  0  0  0  0  0  0  0  0  0
   -5.5246  -24.3417   20.8396 N   0  0  0  0  0  0  0  0  0  0  0  0
   -5.6460  -23.4101   23.0516 C   0  0  0  0  0  0  0  0  0  0  0  0
   -5.0505  -24.3950   23.5696 O   0  0  0  0  0  0  0  0  0  0  0  0
   -8.5926  -24.9765   19.6238 C   0  0  0  0  0  0  0  0  0  0  0  0
   -9.2356  -24.7972   18.4210 C   0  0  0  0  0  0  0  0  0  0  0  0
   -1.7488  -18.0616   22.9565 C   0  0  0  0  0  0  0  0  0  0  0  0
   -2.9657  -18.4781   24.2340 S   0  0  0  0  0  0  0  0  0  0  0  0
   -3.4525  -20.2328   24.0606 C   0  0  0  0  0  0  0  0  0  0  0  0
   -4.4715  -20.5528   25.1192 C   0  0  0  0  0  0  0  0  0  0  0  0
   -4.9620  -21.9766   25.0261 C   0  0  2  0  0  0  0  0  0  0  0  0
   -5.6149  -22.1826   23.7629 N   0  0  0  0  0  0  0  0  0  0  0  0
   -5.8934  -22.2744   26.1535 C   0  0  0  0  0  0  0  0  0  0  0  0
   -7.0878  -21.9714   26.0317 O   0  0  0  0  0  0  0  0  0  0  0  0
  -10.4560  -27.7802   30.9129 O   0  0  0  0  0  0  0  0  0  0  0  0
   -9.6801  -26.9686   30.0636 C   0  0  0  0  0  0  0  0  0  0  0  0
  -10.0699  -25.6876   29.7396 C   0  0  0  0  0  0  0  0  0  0  0  0
   -9.2991  -24.9020   28.9048 C   0  0  0  0  0  0  0  0  0  0  0  0
   -8.1257  -25.3571   28.3671 C   0  0  0  0  0  0  0  0  0  0  0  0
   -7.2665  -24.5486   27.4677 C   0  0  0  0  0  0  0  0  0  0  0  0
   -6.3661  -23.6039   28.2342 C   0  0  2  0  0  0  0  0  0  0  0  0
   -5.4716  -22.8872   27.3523 N   0  0  0  0  0  0  0  0  0  0  0  0
   -5.6694  -24.2619   29.3499 C   0  0  0  0  0  0  0  0  0  0  0  0
   -4.2978  -24.5406   29.2506 O   0  0  0  0  0  0  0  0  0  0  0  0
   -7.7245  -26.6328   28.6813 C   0  0  0  0  0  0  0  0  0  0  0  0
   -8.4975  -27.4087   29.5136 C   0  0  0  0  0  0  0  0  0  0  0  0
   -6.2208  -24.6049   30.4174 O   0  0  0  0  0  0  0  0  0  0  0  0
  2  1  1  0
  3  2  2  0
  4  3  1  0
  5  4  2  0
  5 11  1  0
  6  5  1  0
  7  6  1  0
  7  8  1  6
  9  7  1  0
  9 10  2  0
 11 12  2  0
 12  2  1  0
 13 14  1  0
 14 15  1  0
 15 16  1  0
 17 16  1  1
 17 19  1  0
 17 18  1  0
 18  9  1  0
 19 28  1  0
 20 19  2  0
 22 21  1  0
 22 32  2  0
 23 22  1  0
 24 23  2  0
 24 25  1  0
 25 31  2  0
 26 25  1  0
 27 26  1  6
 27 29  1  0
 28 27  1  0
 29 33  2  0
 29 30  1  0
 31 32  1  0
M  END
$$$$
