YMY.pdb
     RDKit          3D

 33 34  0  0  1  0  0  0  0  0999 V2000
    7.0201  -21.5356   15.9039 O   0  0  0  0  0  0  0  0  0  0  0  0
    7.5989  -20.8142   16.9468 C   0  0  0  0  0  0  0  0  0  0  0  0
    8.9521  -20.5433   16.9580 C   0  0  0  0  0  0  0  0  0  0  0  0
    9.5260  -19.8328   17.9822 C   0  0  0  0  0  0  0  0  0  0  0  0
    8.7626  -19.3554   19.0551 C   0  0  0  0  0  0  0  0  0  0  0  0
    9.3865  -18.5792   20.1695 C   0  0  0  0  0  0  0  0  0  0  0  0
    9.1778  -17.1307   19.8961 C   0  0  2  0  0  0  0  0  0  0  0  0
    9.9779  -16.7417   18.7542 N   0  0  0  0  0  0  0  0  0  0  0  0
    9.4650  -16.2385   21.0474 C   0  0  0  0  0  0  0  0  0  0  0  0
   10.6597  -15.9662   21.3502 O   0  0  0  0  0  0  0  0  0  0  0  0
    7.4109  -19.6404   19.0194 C   0  0  0  0  0  0  0  0  0  0  0  0
    6.8129  -20.3503   18.0041 C   0  0  0  0  0  0  0  0  0  0  0  0
    6.0301  -11.8313   26.7350 C   0  0  0  0  0  0  0  0  0  0  0  0
    5.8846  -12.7522   25.1802 S   0  0  0  0  0  0  0  0  0  0  0  0
    7.5073  -13.4786   24.7501 C   0  0  0  0  0  0  0  0  0  0  0  0
    7.3683  -14.2229   23.4509 C   0  0  0  0  0  0  0  0  0  0  0  0
    8.6640  -14.8650   23.0205 C   0  0  2  0  0  0  0  0  0  0  0  0
    8.4432  -15.6620   21.8457 N   0  0  0  0  0  0  0  0  0  0  0  0
    9.2158  -15.7014   24.1265 C   0  0  0  0  0  0  0  0  0  0  0  0
    8.7358  -16.8271   24.3148 O   0  0  0  0  0  0  0  0  0  0  0  0
   12.3386  -17.3681   32.2126 O   0  0  0  0  0  0  0  0  0  0  0  0
   12.0768  -16.7580   30.9712 C   0  0  0  0  0  0  0  0  0  0  0  0
   11.3180  -15.6120   30.8789 C   0  0  0  0  0  0  0  0  0  0  0  0
   11.0686  -15.0236   29.6542 C   0  0  0  0  0  0  0  0  0  0  0  0
   11.5591  -15.5484   28.4892 C   0  0  0  0  0  0  0  0  0  0  0  0
   11.3175  -14.9501   27.1534 C   0  0  0  0  0  0  0  0  0  0  0  0
   10.5816  -15.8953   26.2283 C   0  0  2  0  0  0  0  0  0  0  0  0
   10.2619  -15.2648   24.9667 N   0  0  0  0  0  0  0  0  0  0  0  0
    9.4168  -16.5254   26.8682 C   0  0  0  0  0  0  0  0  0  0  0  0
    9.5168  -17.8316   27.3710 O   0  0  0  0  0  0  0  0  0  0  0  0
   12.3174  -16.6912   28.5659 C   0  0  0  0  0  0  0  0  0  0  0  0
   12.5614  -17.2709   29.7893 C   0  0  0  0  0  0  0  0  0  0  0  0
    8.3054  -15.9710   27.0047 O   0  0  0  0  0  0  0  0  0  0  0  0
  2  1  1  0
  3  2  2  0
  4  3  1  0
  5  4  2  0
  5 11  1  0
  6  5  1  0
  7  6  1  0
  7  8  1  6
  9  7  1  0
  9 10  2  0
 11 12  2  0
 12  2  1  0
 13 14  1  0
 14 15  1  0
 15 16  1  0
 17 16  1  1
 17 19  1  0
 17 18  1  0
 18  9  1  0
 19 28  1  0
 20 19  2  0
 22 21  1  0
 22 32  2  0
 23 22  1  0
 24 23  2  0
 24 25  1  0
 25 31  2  0
 26 25  1  0
 27 26  1  1
 27 29  1  0
 28 27  1  0
 29 33  2  0
 29 30  1  0
 31 32  1  0
M  END
$$$$
