YMY.pdb
     RDKit          3D

 33 34  0  0  1  0  0  0  0  0999 V2000
    7.4029  -13.5202   15.4801 O   0  0  0  0  0  0  0  0  0  0  0  0
    7.4821  -13.9680   16.7977 C   0  0  0  0  0  0  0  0  0  0  0  0
    7.9304  -13.1374   17.8046 C   0  0  0  0  0  0  0  0  0  0  0  0
    8.0092  -13.5736   19.1033 C   0  0  0  0  0  0  0  0  0  0  0  0
    7.6387  -14.8770   19.4579 C   0  0  0  0  0  0  0  0  0  0  0  0
    7.7216  -15.3520   20.8726 C   0  0  0  0  0  0  0  0  0  0  0  0
    8.8283  -14.6150   21.5424 C   0  0  2  0  0  0  0  0  0  0  0  0
   10.0706  -14.8924   20.8530 N   0  0  0  0  0  0  0  0  0  0  0  0
    8.9736  -14.9050   22.9912 C   0  0  0  0  0  0  0  0  0  0  0  0
    9.9234  -15.6311   23.3958 O   0  0  0  0  0  0  0  0  0  0  0  0
    7.1936  -15.6877   18.4312 C   0  0  0  0  0  0  0  0  0  0  0  0
    7.1056  -15.2733   17.1224 C   0  0  0  0  0  0  0  0  0  0  0  0
    6.5945  -11.6519   28.3677 C   0  0  0  0  0  0  0  0  0  0  0  0
    6.0866  -11.3090   26.6615 S   0  0  0  0  0  0  0  0  0  0  0  0
    7.0693  -12.3421   25.5157 C   0  0  0  0  0  0  0  0  0  0  0  0
    7.2018  -13.7182   26.1073 C   0  0  0  0  0  0  0  0  0  0  0  0
    8.2356  -14.5502   25.3893 C   0  0  2  0  0  0  0  0  0  0  0  0
    8.0792  -14.3977   23.9692 N   0  0  0  0  0  0  0  0  0  0  0  0
    8.1043  -15.9842   25.7811 C   0  0  0  0  0  0  0  0  0  0  0  0
    6.9791  -16.5009   25.7718 O   0  0  0  0  0  0  0  0  0  0  0  0
    6.6633  -19.2440   21.1023 O   0  0  0  0  0  0  0  0  0  0  0  0
    7.3279  -19.2447   22.3434 C   0  0  0  0  0  0  0  0  0  0  0  0
    6.7263  -19.7363   23.4810 C   0  0  0  0  0  0  0  0  0  0  0  0
    7.3898  -19.7309   24.6925 C   0  0  0  0  0  0  0  0  0  0  0  0
    8.6619  -19.2409   24.8155 C   0  0  0  0  0  0  0  0  0  0  0  0
    9.4121  -19.2162   26.0951 C   0  0  0  0  0  0  0  0  0  0  0  0
    9.0813  -17.9967   26.9282 C   0  0  2  0  0  0  0  0  0  0  0  0
    9.2077  -16.7772   26.1612 N   0  0  0  0  0  0  0  0  0  0  0  0
    9.8224  -17.9572   28.1980 C   0  0  0  0  0  0  0  0  0  0  0  0
    9.7340  -19.0343   29.0929 O   0  0  0  0  0  0  0  0  0  0  0  0
    9.2742  -18.7472   23.6894 C   0  0  0  0  0  0  0  0  0  0  0  0
    8.6069  -18.7565   22.4866 C   0  0  0  0  0  0  0  0  0  0  0  0
   10.5505  -17.0072   28.5567 O   0  0  0  0  0  0  0  0  0  0  0  0
  2  1  1  0
  3  2  2  0
  4  3  1  0
  5  4  2  0
  5 11  1  0
  6  5  1  0
  7  6  1  0
  7  8  1  6
  9  7  1  0
  9 10  2  0
 11 12  2  0
 12  2  1  0
 13 14  1  0
 14 15  1  0
 15 16  1  0
 17 16  1  1
 17 19  1  0
 17 18  1  0
 18  9  1  0
 19 28  1  0
 20 19  2  0
 22 21  1  0
 22 32  2  0
 23 22  1  0
 24 23  2  0
 24 25  1  0
 25 31  2  0
 26 25  1  0
 27 26  1  6
 27 29  1  0
 28 27  1  0
 29 33  2  0
 29 30  1  0
 31 32  1  0
M  END
$$$$
