YMY.pdb
     RDKit          3D

 33 34  0  0  1  0  0  0  0  0999 V2000
    7.1347  -21.7419   16.7059 O   0  0  0  0  0  0  0  0  0  0  0  0
    7.6927  -21.0787   17.7977 C   0  0  0  0  0  0  0  0  0  0  0  0
    9.0610  -21.0159   17.9673 C   0  0  0  0  0  0  0  0  0  0  0  0
    9.6147  -20.3634   19.0401 C   0  0  0  0  0  0  0  0  0  0  0  0
    8.8147  -19.7366   20.0039 C   0  0  0  0  0  0  0  0  0  0  0  0
    9.4171  -19.0234   21.1710 C   0  0  0  0  0  0  0  0  0  0  0  0
    9.1996  -17.5629   20.9815 C   0  0  2  0  0  0  0  0  0  0  0  0
    9.9563  -17.1142   19.8319 N   0  0  0  0  0  0  0  0  0  0  0  0
    9.5312  -16.7316   22.1660 C   0  0  0  0  0  0  0  0  0  0  0  0
   10.7264  -16.6501   22.5634 O   0  0  0  0  0  0  0  0  0  0  0  0
    7.4487  -19.8144   19.8103 C   0  0  0  0  0  0  0  0  0  0  0  0
    6.8703  -20.4623   18.7435 C   0  0  0  0  0  0  0  0  0  0  0  0
    6.8619  -11.1242   27.0912 C   0  0  0  0  0  0  0  0  0  0  0  0
    6.5219  -12.2584   25.7184 S   0  0  0  0  0  0  0  0  0  0  0  0
    7.8839  -13.4718   25.5812 C   0  0  0  0  0  0  0  0  0  0  0  0
    7.6915  -14.2651   24.3183 C   0  0  0  0  0  0  0  0  0  0  0  0
    8.8004  -15.2642   24.0984 C   0  0  2  0  0  0  0  0  0  0  0  0
    8.5521  -16.0066   22.8937 N   0  0  0  0  0  0  0  0  0  0  0  0
    8.9045  -16.1832   25.2697 C   0  0  0  0  0  0  0  0  0  0  0  0
    8.3800  -17.3023   25.1937 O   0  0  0  0  0  0  0  0  0  0  0  0
   14.8629  -21.1177   28.8268 O   0  0  0  0  0  0  0  0  0  0  0  0
   14.0490  -20.1606   28.1918 C   0  0  0  0  0  0  0  0  0  0  0  0
   14.3267  -18.8136   28.2717 C   0  0  0  0  0  0  0  0  0  0  0  0
   13.5195  -17.8850   27.6438 C   0  0  0  0  0  0  0  0  0  0  0  0
   12.4181  -18.2581   26.9220 C   0  0  0  0  0  0  0  0  0  0  0  0
   11.5246  -17.2963   26.2312 C   0  0  0  0  0  0  0  0  0  0  0  0
   10.4728  -16.7260   27.1581 C   0  0  2  0  0  0  0  0  0  0  0  0
    9.5756  -15.8320   26.4600 N   0  0  0  0  0  0  0  0  0  0  0  0
   11.0484  -16.1303   28.3734 C   0  0  0  0  0  0  0  0  0  0  0  0
   11.1314  -16.8879   29.5515 O   0  0  0  0  0  0  0  0  0  0  0  0
   12.1288  -19.5981   26.8338 C   0  0  0  0  0  0  0  0  0  0  0  0
   12.9377  -20.5166   27.4616 C   0  0  0  0  0  0  0  0  0  0  0  0
   11.4848  -14.9615   28.4434 O   0  0  0  0  0  0  0  0  0  0  0  0
  2  1  1  0
  3  2  2  0
  4  3  1  0
  5  4  2  0
  5 11  1  0
  6  5  1  0
  7  6  1  0
  7  8  1  6
  9  7  1  0
  9 10  2  0
 11 12  2  0
 12  2  1  0
 13 14  1  0
 14 15  1  0
 15 16  1  0
 17 16  1  1
 17 19  1  0
 17 18  1  0
 18  9  1  0
 19 28  1  0
 20 19  2  0
 22 21  1  0
 22 32  2  0
 23 22  1  0
 24 23  2  0
 24 25  1  0
 25 31  2  0
 26 25  1  0
 27 26  1  6
 27 29  1  0
 28 27  1  0
 29 33  2  0
 29 30  1  0
 31 32  1  0
M  END
$$$$
