YMY.pdb
     RDKit          3D

 33 34  0  0  1  0  0  0  0  0999 V2000
    7.1607  -14.3462   13.4270 O   0  0  0  0  0  0  0  0  0  0  0  0
    7.8439  -14.2492   14.6382 C   0  0  0  0  0  0  0  0  0  0  0  0
    7.4722  -13.3226   15.5912 C   0  0  0  0  0  0  0  0  0  0  0  0
    8.1413  -13.2241   16.7852 C   0  0  0  0  0  0  0  0  0  0  0  0
    9.2262  -14.0582   17.0836 C   0  0  0  0  0  0  0  0  0  0  0  0
    9.9536  -13.9533   18.3850 C   0  0  0  0  0  0  0  0  0  0  0  0
    9.6493  -15.1726   19.1832 C   0  0  2  0  0  0  0  0  0  0  0  0
    8.3313  -15.6561   18.8299 N   0  0  0  0  0  0  0  0  0  0  0  0
    9.7472  -14.9874   20.6529 C   0  0  0  0  0  0  0  0  0  0  0  0
   10.8357  -14.6108   21.1690 O   0  0  0  0  0  0  0  0  0  0  0  0
    9.5775  -14.9766   16.1127 C   0  0  0  0  0  0  0  0  0  0  0  0
    8.9225  -15.0944   14.9088 C   0  0  0  0  0  0  0  0  0  0  0  0
    6.2835  -12.2135   26.8464 C   0  0  0  0  0  0  0  0  0  0  0  0
    6.0372  -13.2532   25.3818 S   0  0  0  0  0  0  0  0  0  0  0  0
    7.6566  -13.8680   24.7938 C   0  0  0  0  0  0  0  0  0  0  0  0
    7.4387  -14.6564   23.5320 C   0  0  0  0  0  0  0  0  0  0  0  0
    8.7300  -15.1924   22.9648 C   0  0  2  0  0  0  0  0  0  0  0  0
    8.6557  -15.2175   21.5302 N   0  0  0  0  0  0  0  0  0  0  0  0
    8.9991  -16.5589   23.5008 C   0  0  0  0  0  0  0  0  0  0  0  0
    9.8784  -17.2445   22.9624 O   0  0  0  0  0  0  0  0  0  0  0  0
   11.7142  -16.0556   31.5510 O   0  0  0  0  0  0  0  0  0  0  0  0
   11.1538  -15.9819   30.2616 C   0  0  0  0  0  0  0  0  0  0  0  0
   10.3595  -14.9222   29.8822 C   0  0  0  0  0  0  0  0  0  0  0  0
    9.8158  -14.8624   28.6137 C   0  0  0  0  0  0  0  0  0  0  0  0
   10.0393  -15.8442   27.6867 C   0  0  0  0  0  0  0  0  0  0  0  0
    9.4771  -15.8208   26.3140 C   0  0  0  0  0  0  0  0  0  0  0  0
    8.8224  -17.1336   25.9420 C   0  0  2  0  0  0  0  0  0  0  0  0
    8.2950  -17.1033   24.5956 N   0  0  0  0  0  0  0  0  0  0  0  0
    7.8349  -17.5788   26.9369 C   0  0  0  0  0  0  0  0  0  0  0  0
    8.1515  -18.6252   27.8164 O   0  0  0  0  0  0  0  0  0  0  0  0
   10.8294  -16.9072   28.0511 C   0  0  0  0  0  0  0  0  0  0  0  0
   11.3674  -16.9592   29.3160 C   0  0  0  0  0  0  0  0  0  0  0  0
    6.6956  -17.0821   27.0662 O   0  0  0  0  0  0  0  0  0  0  0  0
  2  1  1  0
  3  2  2  0
  4  3  1  0
  5  4  2  0
  5 11  1  0
  6  5  1  0
  7  6  1  0
  7  8  1  1
  9  7  1  0
  9 10  2  0
 11 12  2  0
 12  2  1  0
 13 14  1  0
 14 15  1  0
 15 16  1  0
 17 16  1  1
 17 19  1  0
 17 18  1  0
 18  9  1  0
 19 28  1  0
 20 19  2  0
 22 21  1  0
 22 32  2  0
 23 22  1  0
 24 23  2  0
 24 25  1  0
 25 31  2  0
 26 25  1  0
 27 26  1  1
 27 29  1  0
 28 27  1  0
 29 33  2  0
 29 30  1  0
 31 32  1  0
M  END
$$$$
