YMY.pdb
     RDKit          3D

 33 34  0  0  1  0  0  0  0  0999 V2000
    7.4871  -21.9784   15.9912 O   0  0  0  0  0  0  0  0  0  0  0  0
    8.0975  -21.1366   16.9194 C   0  0  0  0  0  0  0  0  0  0  0  0
    7.7252  -21.1556   18.2483 C   0  0  0  0  0  0  0  0  0  0  0  0
    8.3239  -20.3292   19.1658 C   0  0  0  0  0  0  0  0  0  0  0  0
    9.3347  -19.4351   18.7907 C   0  0  0  0  0  0  0  0  0  0  0  0
    9.9891  -18.5368   19.7899 C   0  0  0  0  0  0  0  0  0  0  0  0
    9.3044  -17.2157   19.7407 C   0  0  2  0  0  0  0  0  0  0  0  0
    9.6278  -16.5581   18.4923 N   0  0  0  0  0  0  0  0  0  0  0  0
    9.6117  -16.3193   20.8836 C   0  0  0  0  0  0  0  0  0  0  0  0
   10.7597  -15.8056   20.9899 O   0  0  0  0  0  0  0  0  0  0  0  0
    9.6883  -19.4362   17.4549 C   0  0  0  0  0  0  0  0  0  0  0  0
    9.1031  -20.2548   16.5169 C   0  0  0  0  0  0  0  0  0  0  0  0
    6.3163  -11.9430   26.6273 C   0  0  0  0  0  0  0  0  0  0  0  0
    6.1257  -13.0361   25.1936 S   0  0  0  0  0  0  0  0  0  0  0  0
    7.7655  -13.6746   24.6941 C   0  0  0  0  0  0  0  0  0  0  0  0
    7.5864  -14.5668   23.4970 C   0  0  0  0  0  0  0  0  0  0  0  0
    8.8973  -15.1261   23.0019 C   0  0  2  0  0  0  0  0  0  0  0  0
    8.6606  -16.0019   21.8879 N   0  0  0  0  0  0  0  0  0  0  0  0
    9.5947  -15.8532   24.1028 C   0  0  0  0  0  0  0  0  0  0  0  0
    9.1805  -16.9736   24.4290 O   0  0  0  0  0  0  0  0  0  0  0  0
   11.5076  -16.4998   32.4833 O   0  0  0  0  0  0  0  0  0  0  0  0
   11.4507  -16.0618   31.1466 C   0  0  0  0  0  0  0  0  0  0  0  0
   12.1881  -16.6742   30.1572 C   0  0  0  0  0  0  0  0  0  0  0  0
   12.1231  -16.2341   28.8494 C   0  0  0  0  0  0  0  0  0  0  0  0
   11.3313  -15.1798   28.4822 C   0  0  0  0  0  0  0  0  0  0  0  0
   11.2299  -14.6745   27.0911 C   0  0  0  0  0  0  0  0  0  0  0  0
   11.1470  -15.7973   26.0797 C   0  0  2  0  0  0  0  0  0  0  0  0
   10.7067  -15.3193   24.7877 N   0  0  0  0  0  0  0  0  0  0  0  0
   10.3650  -16.9442   26.5659 C   0  0  0  0  0  0  0  0  0  0  0  0
   11.0134  -18.1459   26.8889 O   0  0  0  0  0  0  0  0  0  0  0  0
   10.5905  -14.5592   29.4584 C   0  0  0  0  0  0  0  0  0  0  0  0
   10.6605  -15.0037   30.7583 C   0  0  0  0  0  0  0  0  0  0  0  0
    9.1250  -16.9339   26.7199 O   0  0  0  0  0  0  0  0  0  0  0  0
  2  1  1  0
  3  2  2  0
  4  3  1  0
  5  4  2  0
  5 11  1  0
  6  5  1  0
  7  6  1  0
  7  8  1  6
  9  7  1  0
  9 10  2  0
 11 12  2  0
 12  2  1  0
 13 14  1  0
 14 15  1  0
 15 16  1  0
 17 16  1  1
 17 19  1  0
 17 18  1  0
 18  9  1  0
 19 28  1  0
 20 19  2  0
 22 21  1  0
 22 32  2  0
 23 22  1  0
 24 23  2  0
 24 25  1  0
 25 31  2  0
 26 25  1  0
 27 26  1  1
 27 29  1  0
 28 27  1  0
 29 33  2  0
 29 30  1  0
 31 32  1  0
M  END
$$$$
