GDP.pdb
     RDKit          3D

 20 20  0  0  1  0  0  0  0  0999 V2000
   13.8671  -10.4303  -16.7611 N   0  0  0  0  0  0  0  0  0  0  0  0
   15.0978  -10.1407  -17.4343 C   0  0  0  0  0  0  0  0  0  0  0  0
   16.2541  -10.1050  -16.4524 C   0  0  0  0  0  0  0  0  0  0  0  0
   16.0149   -9.6666  -15.3071 O   0  0  0  0  0  0  0  0  0  0  0  0
   17.5249  -10.5533  -16.8468 N   0  0  0  0  0  0  0  0  0  0  0  0
   18.7477  -10.5943  -16.1143 C   0  0  1  0  0  0  0  0  0  0  0  0
   19.6798  -11.7055  -16.3474 C   0  0  0  0  0  0  0  0  0  0  0  0
   18.9301  -13.0200  -16.4070 C   0  0  0  0  0  0  0  0  0  0  0  0
   18.4191  -13.5773  -15.4160 O   0  0  0  0  0  0  0  0  0  0  0  0
   19.2035   -9.2695  -15.7757 C   0  0  0  0  0  0  0  0  0  0  0  0
   19.4618   -8.5109  -16.8115 O   0  0  0  0  0  0  0  0  0  0  0  0
   18.8241  -13.6117  -17.6474 O   0  0  0  0  0  0  0  0  0  0  0  0
   19.4236   -8.6269  -14.5467 N   0  0  0  0  0  0  0  0  0  0  0  0
   18.7342   -9.0202  -13.3023 C   0  0  0  0  0  0  0  0  0  0  0  0
   19.8702   -8.9758  -12.2645 C   0  0  0  0  0  0  0  0  0  0  0  0
   21.0766   -8.4063  -13.0046 C   0  0  0  0  0  0  0  0  0  0  0  0
   20.3338   -7.6146  -14.1097 C   0  0  1  0  0  0  0  0  0  0  0  0
   21.2803   -7.0033  -14.9987 C   0  0  0  0  0  0  0  0  0  0  0  0
   21.5668   -5.6247  -14.6991 O   0  0  0  0  0  0  0  0  0  0  0  0
   21.9043   -7.4229  -15.9767 O   0  0  0  0  0  0  0  0  0  0  0  0
  1  2  1  0
  3  4  2  0
  3  2  1  0
  5  3  1  0
  6  5  1  0
  6  7  1  6
  7  8  1  0
  8  9  2  0
  8 12  1  0
 10  6  1  0
 11 10  2  0
 13 10  1  0
 13 17  1  0
 14 15  1  0
 14 13  1  0
 15 16  1  0
 16 17  1  0
 18 19  1  0
 17 18  1  6
 20 18  2  0
M  END
$$$$
