GDP.pdb
     RDKit          3D

 20 20  0  0  1  0  0  0  0  0999 V2000
   28.3665  -19.5106  -17.5807 N   0  0  0  0  0  0  0  0  0  0  0  0
   27.8313  -20.4572  -16.6484 C   0  0  0  0  0  0  0  0  0  0  0  0
   26.6823  -19.8511  -15.8641 C   0  0  0  0  0  0  0  0  0  0  0  0
   26.2563  -18.7402  -16.2456 O   0  0  0  0  0  0  0  0  0  0  0  0
   26.1447  -20.5364  -14.7629 N   0  0  0  0  0  0  0  0  0  0  0  0
   24.7869  -20.6855  -14.3531 C   0  0  1  0  0  0  0  0  0  0  0  0
   23.7327  -20.7000  -15.3760 C   0  0  0  0  0  0  0  0  0  0  0  0
   22.5378  -19.8923  -14.9144 C   0  0  0  0  0  0  0  0  0  0  0  0
   21.4204  -20.3826  -14.6597 O   0  0  0  0  0  0  0  0  0  0  0  0
   24.6851  -21.4510  -13.1361 C   0  0  0  0  0  0  0  0  0  0  0  0
   24.0892  -22.6083  -13.2796 O   0  0  0  0  0  0  0  0  0  0  0  0
   22.7294  -18.5341  -14.7776 O   0  0  0  0  0  0  0  0  0  0  0  0
   25.1042  -21.2003  -11.8195 N   0  0  0  0  0  0  0  0  0  0  0  0
   26.4856  -20.8069  -11.4796 C   0  0  0  0  0  0  0  0  0  0  0  0
   26.2677  -19.6904  -10.4426 C   0  0  0  0  0  0  0  0  0  0  0  0
   24.7651  -19.6648  -10.1804 C   0  0  0  0  0  0  0  0  0  0  0  0
   24.4254  -21.1270  -10.5633 C   0  0  1  0  0  0  0  0  0  0  0  0
   23.0129  -21.3521  -10.4442 C   0  0  0  0  0  0  0  0  0  0  0  0
   22.5874  -21.7508   -9.1279 O   0  0  0  0  0  0  0  0  0  0  0  0
   22.0803  -21.2727  -11.2479 O   0  0  0  0  0  0  0  0  0  0  0  0
  1  2  1  0
  3  4  2  0
  3  2  1  0
  5  3  1  0
  6  5  1  0
  6  7  1  6
  7  8  1  0
  8  9  2  0
  8 12  1  0
 10  6  1  0
 11 10  2  0
 13 10  1  0
 13 17  1  0
 14 15  1  0
 14 13  1  0
 15 16  1  0
 16 17  1  0
 18 19  1  0
 17 18  1  6
 20 18  2  0
M  END
$$$$
