GDP.pdb
     RDKit          3D

 20 20  0  0  1  0  0  0  0  0999 V2000
   14.8473  -12.2879  -15.2106 N   0  0  0  0  0  0  0  0  0  0  0  0
   15.0886  -10.8923  -14.9966 C   0  0  0  0  0  0  0  0  0  0  0  0
   16.5559  -10.5617  -15.1969 C   0  0  0  0  0  0  0  0  0  0  0  0
   17.3602  -11.0067  -14.3505 O   0  0  0  0  0  0  0  0  0  0  0  0
   16.9579   -9.7872  -16.2968 N   0  0  0  0  0  0  0  0  0  0  0  0
   18.2675   -9.4279  -16.7320 C   0  0  1  0  0  0  0  0  0  0  0  0
   18.5394   -9.3403  -18.1729 C   0  0  0  0  0  0  0  0  0  0  0  0
   17.8657  -10.4802  -18.9077 C   0  0  0  0  0  0  0  0  0  0  0  0
   18.1566  -11.6818  -18.7483 O   0  0  0  0  0  0  0  0  0  0  0  0
   18.9250   -8.5744  -15.7744 C   0  0  0  0  0  0  0  0  0  0  0  0
   18.2659   -7.4786  -15.4924 O   0  0  0  0  0  0  0  0  0  0  0  0
   16.8745  -10.1353  -19.8014 O   0  0  0  0  0  0  0  0  0  0  0  0
   20.1390   -8.6886  -15.0778 N   0  0  0  0  0  0  0  0  0  0  0  0
   20.7909   -9.9857  -14.8115 C   0  0  0  0  0  0  0  0  0  0  0  0
   22.2703   -9.6816  -15.1090 C   0  0  0  0  0  0  0  0  0  0  0  0
   22.3331   -8.1801  -15.3717 C   0  0  0  0  0  0  0  0  0  0  0  0
   21.0814   -7.7397  -14.5723 C   0  0  1  0  0  0  0  0  0  0  0  0
   20.8853   -6.3240  -14.7044 C   0  0  0  0  0  0  0  0  0  0  0  0
   20.3585   -5.9174  -15.9809 O   0  0  0  0  0  0  0  0  0  0  0  0
   21.0782   -5.3757  -13.9393 O   0  0  0  0  0  0  0  0  0  0  0  0
  1  2  1  0
  3  4  2  0
  3  2  1  0
  5  3  1  0
  6  5  1  0
  6  7  1  6
  7  8  1  0
  8  9  2  0
  8 12  1  0
 10  6  1  0
 11 10  2  0
 13 10  1  0
 13 17  1  0
 14 15  1  0
 14 13  1  0
 15 16  1  0
 16 17  1  0
 18 19  1  0
 17 18  1  6
 20 18  2  0
M  END
$$$$
