GDP.pdb
     RDKit          3D

 20 20  0  0  1  0  0  0  0  0999 V2000
   26.6997  -22.9682  -13.4078 N   0  0  0  0  0  0  0  0  0  0  0  0
   25.7675  -22.6635  -14.4518 C   0  0  0  0  0  0  0  0  0  0  0  0
   24.8920  -21.4857  -14.0661 C   0  0  0  0  0  0  0  0  0  0  0  0
   25.4265  -20.5727  -13.4014 O   0  0  0  0  0  0  0  0  0  0  0  0
   23.5435  -21.4553  -14.4563 N   0  0  0  0  0  0  0  0  0  0  0  0
   22.5930  -20.3951  -14.3779 C   0  0  1  0  0  0  0  0  0  0  0  0
   22.4555  -19.4774  -15.5167 C   0  0  0  0  0  0  0  0  0  0  0  0
   21.4372  -18.4002  -15.2068 C   0  0  0  0  0  0  0  0  0  0  0  0
   20.2475  -18.4374  -15.5770 O   0  0  0  0  0  0  0  0  0  0  0  0
   21.4751  -20.7508  -13.5405 C   0  0  0  0  0  0  0  0  0  0  0  0
   20.4575  -21.2562  -14.1917 O   0  0  0  0  0  0  0  0  0  0  0  0
   21.8844  -17.3252  -14.4689 O   0  0  0  0  0  0  0  0  0  0  0  0
   21.2620  -20.6646  -12.1552 N   0  0  0  0  0  0  0  0  0  0  0  0
   22.3462  -20.3843  -11.1937 C   0  0  0  0  0  0  0  0  0  0  0  0
   21.6884  -19.3744  -10.2360 C   0  0  0  0  0  0  0  0  0  0  0  0
   20.2269  -19.2964  -10.6665 C   0  0  0  0  0  0  0  0  0  0  0  0
   20.0936  -20.6892  -11.3316 C   0  0  1  0  0  0  0  0  0  0  0  0
   18.7766  -20.8497  -11.8791 C   0  0  0  0  0  0  0  0  0  0  0  0
   18.5400  -20.0919  -13.0801 O   0  0  0  0  0  0  0  0  0  0  0  0
   17.7967  -21.5112  -11.5267 O   0  0  0  0  0  0  0  0  0  0  0  0
  1  2  1  0
  3  4  2  0
  3  2  1  0
  5  3  1  0
  6  5  1  0
  6  7  1  6
  7  8  1  0
  8  9  2  0
  8 12  1  0
 10  6  1  0
 11 10  2  0
 13 10  1  0
 13 17  1  0
 14 15  1  0
 14 13  1  0
 15 16  1  0
 16 17  1  0
 18 19  1  0
 17 18  1  6
 20 18  2  0
M  END
$$$$
