GDP.pdb
     RDKit          3D

 20 20  0  0  1  0  0  0  0  0999 V2000
   37.4417  -20.8511   11.2258 N   0  0  0  0  0  0  0  0  0  0  0  0
   36.5776  -21.9878   11.1127 C   0  0  0  0  0  0  0  0  0  0  0  0
   35.3178  -21.6334   10.3449 C   0  0  0  0  0  0  0  0  0  0  0  0
   35.1434  -20.4289   10.0623 O   0  0  0  0  0  0  0  0  0  0  0  0
   34.4087  -22.6404    9.9833 N   0  0  0  0  0  0  0  0  0  0  0  0
   33.2121  -22.5576    9.2119 C   0  0  1  0  0  0  0  0  0  0  0  0
   32.8127  -23.7097    8.3927 C   0  0  0  0  0  0  0  0  0  0  0  0
   33.5588  -24.9528    8.8299 C   0  0  0  0  0  0  0  0  0  0  0  0
   34.7601  -25.1702    8.5783 O   0  0  0  0  0  0  0  0  0  0  0  0
   32.2461  -21.6848    9.8304 C   0  0  0  0  0  0  0  0  0  0  0  0
   31.9255  -22.0225   11.0544 O   0  0  0  0  0  0  0  0  0  0  0  0
   32.8374  -25.8822    9.5481 O   0  0  0  0  0  0  0  0  0  0  0  0
   31.5791  -20.5350    9.3775 N   0  0  0  0  0  0  0  0  0  0  0  0
   32.0185  -19.7670    8.1962 C   0  0  0  0  0  0  0  0  0  0  0  0
   30.6889  -19.4688    7.4802 C   0  0  0  0  0  0  0  0  0  0  0  0
   29.5977  -19.9737    8.4193 C   0  0  0  0  0  0  0  0  0  0  0  0
   30.3673  -19.8801    9.7605 C   0  0  1  0  0  0  0  0  0  0  0  0
   29.5458  -20.3612   10.8346 C   0  0  0  0  0  0  0  0  0  0  0  0
   28.9062  -19.3228   11.5995 O   0  0  0  0  0  0  0  0  0  0  0  0
   29.2736  -21.4942   11.2395 O   0  0  0  0  0  0  0  0  0  0  0  0
  1  2  1  0
  3  4  2  0
  3  2  1  0
  5  3  1  0
  6  5  1  0
  6  7  1  1
  7  8  1  0
  8  9  2  0
  8 12  1  0
 10  6  1  0
 11 10  2  0
 13 10  1  0
 13 17  1  0
 14 15  1  0
 14 13  1  0
 15 16  1  0
 16 17  1  0
 18 19  1  0
 17 18  1  1
 20 18  2  0
M  END
$$$$
