GDP.pdb
     RDKit          3D

 20 20  0  0  1  0  0  0  0  0999 V2000
   25.4928  -32.3122  -10.2857 N   0  0  0  0  0  0  0  0  0  0  0  0
   25.1420  -33.4623   -9.5072 C   0  0  0  0  0  0  0  0  0  0  0  0
   25.3227  -33.1866   -8.0261 C   0  0  0  0  0  0  0  0  0  0  0  0
   25.7751  -32.0666   -7.7067 O   0  0  0  0  0  0  0  0  0  0  0  0
   24.9855  -34.1699   -7.0822 N   0  0  0  0  0  0  0  0  0  0  0  0
   25.0259  -34.1214   -5.6576 C   0  0  1  0  0  0  0  0  0  0  0  0
   23.7706  -33.9424   -4.9160 C   0  0  0  0  0  0  0  0  0  0  0  0
   23.9950  -33.0663   -3.7013 C   0  0  0  0  0  0  0  0  0  0  0  0
   23.8296  -31.8309   -3.6918 O   0  0  0  0  0  0  0  0  0  0  0  0
   26.1209  -34.8994   -5.1349 C   0  0  0  0  0  0  0  0  0  0  0  0
   25.8664  -36.1797   -5.0303 O   0  0  0  0  0  0  0  0  0  0  0  0
   24.4080  -33.7040   -2.5511 O   0  0  0  0  0  0  0  0  0  0  0  0
   27.4159  -34.5534   -4.7161 N   0  0  0  0  0  0  0  0  0  0  0  0
   28.0261  -33.2401   -5.0015 C   0  0  0  0  0  0  0  0  0  0  0  0
   28.6990  -32.8882   -3.6625 C   0  0  0  0  0  0  0  0  0  0  0  0
   28.5303  -34.1240   -2.7840 C   0  0  0  0  0  0  0  0  0  0  0  0
   28.3934  -35.1959   -3.8941 C   0  0  1  0  0  0  0  0  0  0  0  0
   28.1690  -36.4866   -3.3078 C   0  0  0  0  0  0  0  0  0  0  0  0
   29.3168  -37.0376   -2.6360 O   0  0  0  0  0  0  0  0  0  0  0  0
   27.1832  -37.2269   -3.2619 O   0  0  0  0  0  0  0  0  0  0  0  0
  1  2  1  0
  3  4  2  0
  3  2  1  0
  5  3  1  0
  6  5  1  0
  6  7  1  1
  7  8  1  0
  8  9  2  0
  8 12  1  0
 10  6  1  0
 11 10  2  0
 13 10  1  0
 13 17  1  0
 14 15  1  0
 14 13  1  0
 15 16  1  0
 16 17  1  0
 18 19  1  0
 17 18  1  1
 20 18  2  0
M  END
$$$$
