GDP.pdb
     RDKit          3D

 20 20  0  0  1  0  0  0  0  0999 V2000
   18.3479  -12.3252  -16.1883 N   0  0  0  0  0  0  0  0  0  0  0  0
   17.9137  -10.9640  -16.2890 C   0  0  0  0  0  0  0  0  0  0  0  0
   19.0085  -10.0141  -15.8401 C   0  0  0  0  0  0  0  0  0  0  0  0
   19.4076  -10.1221  -14.6610 O   0  0  0  0  0  0  0  0  0  0  0  0
   19.5282   -9.0670  -16.7369 N   0  0  0  0  0  0  0  0  0  0  0  0
   20.5515   -8.0923  -16.5456 C   0  0  1  0  0  0  0  0  0  0  0  0
   21.5928   -7.9433  -17.5710 C   0  0  0  0  0  0  0  0  0  0  0  0
   21.8806   -9.2764  -18.2291 C   0  0  0  0  0  0  0  0  0  0  0  0
   22.5791  -10.1719  -17.7152 O   0  0  0  0  0  0  0  0  0  0  0  0
   20.0766   -6.9760  -15.7672 C   0  0  0  0  0  0  0  0  0  0  0  0
   19.0079   -6.3982  -16.2560 O   0  0  0  0  0  0  0  0  0  0  0  0
   21.3220   -9.4817  -19.4725 O   0  0  0  0  0  0  0  0  0  0  0  0
   20.5351   -6.3842  -14.5791 N   0  0  0  0  0  0  0  0  0  0  0  0
   21.4258   -7.0795  -13.6295 C   0  0  0  0  0  0  0  0  0  0  0  0
   22.4394   -5.9816  -13.2596 C   0  0  0  0  0  0  0  0  0  0  0  0
   21.9261   -4.7104  -13.9288 C   0  0  0  0  0  0  0  0  0  0  0  0
   20.4227   -5.0728  -14.0208 C   0  0  1  0  0  0  0  0  0  0  0  0
   19.7019   -4.0213  -14.6802 C   0  0  0  0  0  0  0  0  0  0  0  0
   19.8955   -3.9767  -16.1061 O   0  0  0  0  0  0  0  0  0  0  0  0
   18.9429   -3.1395  -14.2699 O   0  0  0  0  0  0  0  0  0  0  0  0
  1  2  1  0
  3  4  2  0
  3  2  1  0
  5  3  1  0
  6  5  1  0
  6  7  1  6
  7  8  1  0
  8  9  2  0
  8 12  1  0
 10  6  1  0
 11 10  2  0
 13 10  1  0
 13 17  1  0
 14 15  1  0
 14 13  1  0
 15 16  1  0
 16 17  1  0
 18 19  1  0
 17 18  1  6
 20 18  2  0
M  END
$$$$
