GDP.pdb
     RDKit          3D

 20 20  0  0  1  0  0  0  0  0999 V2000
   14.1636  -12.0391  -14.4639 N   0  0  0  0  0  0  0  0  0  0  0  0
   14.8874  -10.8437  -14.7781 C   0  0  0  0  0  0  0  0  0  0  0  0
   16.1969  -11.1725  -15.4707 C   0  0  0  0  0  0  0  0  0  0  0  0
   16.2295  -12.2126  -16.1621 O   0  0  0  0  0  0  0  0  0  0  0  0
   17.3041  -10.3224  -15.3200 N   0  0  0  0  0  0  0  0  0  0  0  0
   18.4761  -10.1969  -16.1227 C   0  0  1  0  0  0  0  0  0  0  0  0
   18.3831  -10.4642  -17.5642 C   0  0  0  0  0  0  0  0  0  0  0  0
   19.6301  -11.1717  -18.0516 C   0  0  0  0  0  0  0  0  0  0  0  0
   19.9028  -12.3608  -17.7958 O   0  0  0  0  0  0  0  0  0  0  0  0
   19.3822   -9.2150  -15.5819 C   0  0  0  0  0  0  0  0  0  0  0  0
   19.0763   -7.9787  -15.8867 O   0  0  0  0  0  0  0  0  0  0  0  0
   20.4974  -10.4279  -18.8228 O   0  0  0  0  0  0  0  0  0  0  0  0
   20.5336   -9.3232  -14.7853 N   0  0  0  0  0  0  0  0  0  0  0  0
   20.8484  -10.5272  -13.9917 C   0  0  0  0  0  0  0  0  0  0  0  0
   22.3561  -10.7072  -14.2446 C   0  0  0  0  0  0  0  0  0  0  0  0
   22.7843   -9.4819  -15.0461 C   0  0  0  0  0  0  0  0  0  0  0  0
   21.6817   -8.4940  -14.5898 C   0  0  1  0  0  0  0  0  0  0  0  0
   21.8384   -7.2358  -15.2624 C   0  0  0  0  0  0  0  0  0  0  0  0
   22.0109   -6.1118  -14.3795 O   0  0  0  0  0  0  0  0  0  0  0  0
   21.8554   -6.9184  -16.4544 O   0  0  0  0  0  0  0  0  0  0  0  0
  1  2  1  0
  3  4  2  0
  3  2  1  0
  5  3  1  0
  6  5  1  0
  6  7  1  6
  7  8  1  0
  8  9  2  0
  8 12  1  0
 10  6  1  0
 11 10  2  0
 13 10  1  0
 13 17  1  0
 14 15  1  0
 14 13  1  0
 15 16  1  0
 16 17  1  0
 18 19  1  0
 17 18  1  6
 20 18  2  0
M  END
$$$$
