GDP.pdb
     RDKit          3D

 20 20  0  0  1  0  0  0  0  0999 V2000
   18.4815  -10.3867  -16.4786 N   0  0  0  0  0  0  0  0  0  0  0  0
   18.3930   -9.0359  -16.9470 C   0  0  0  0  0  0  0  0  0  0  0  0
   18.8697   -8.0640  -15.8837 C   0  0  0  0  0  0  0  0  0  0  0  0
   18.2407   -8.0478  -14.8043 O   0  0  0  0  0  0  0  0  0  0  0  0
   19.9737   -7.2336  -16.1351 N   0  0  0  0  0  0  0  0  0  0  0  0
   20.5954   -6.2612  -15.2976 C   0  0  1  0  0  0  0  0  0  0  0  0
   21.7062   -6.6753  -14.4301 C   0  0  0  0  0  0  0  0  0  0  0  0
   22.0347   -5.5824  -13.4347 C   0  0  0  0  0  0  0  0  0  0  0  0
   21.5719   -5.5296  -12.2785 O   0  0  0  0  0  0  0  0  0  0  0  0
   20.5266   -4.9441  -15.8790 C   0  0  0  0  0  0  0  0  0  0  0  0
   21.6219   -4.5714  -16.4923 O   0  0  0  0  0  0  0  0  0  0  0  0
   22.9011   -4.5999  -13.8638 O   0  0  0  0  0  0  0  0  0  0  0  0
   19.5091   -3.9771  -15.9202 N   0  0  0  0  0  0  0  0  0  0  0  0
   18.0866   -4.3009  -15.6968 C   0  0  0  0  0  0  0  0  0  0  0  0
   17.6207   -3.1456  -14.7926 C   0  0  0  0  0  0  0  0  0  0  0  0
   18.8036   -2.1853  -14.7157 C   0  0  0  0  0  0  0  0  0  0  0  0
   19.5037   -2.5531  -16.0478 C   0  0  1  0  0  0  0  0  0  0  0  0
   20.7135   -1.7948  -16.1944 C   0  0  0  0  0  0  0  0  0  0  0  0
   20.6916   -0.8526  -17.2826 O   0  0  0  0  0  0  0  0  0  0  0  0
   21.7784   -1.7861  -15.5716 O   0  0  0  0  0  0  0  0  0  0  0  0
  1  2  1  0
  3  4  2  0
  3  2  1  0
  5  3  1  0
  6  5  1  0
  6  7  1  6
  7  8  1  0
  8  9  2  0
  8 12  1  0
 10  6  1  0
 11 10  2  0
 13 10  1  0
 13 17  1  0
 14 15  1  0
 14 13  1  0
 15 16  1  0
 16 17  1  0
 18 19  1  0
 17 18  1  1
 20 18  2  0
M  END
$$$$
