GDP.pdb
     RDKit          3D

 20 20  0  0  1  0  0  0  0  0999 V2000
   14.8390   -7.1958   -7.9006 N   0  0  0  0  0  0  0  0  0  0  0  0
   15.7755   -6.4392   -8.6765 C   0  0  0  0  0  0  0  0  0  0  0  0
   16.4539   -7.3184   -9.7105 C   0  0  0  0  0  0  0  0  0  0  0  0
   16.1013   -8.5160   -9.7588 O   0  0  0  0  0  0  0  0  0  0  0  0
   17.4313   -6.7767  -10.5607 N   0  0  0  0  0  0  0  0  0  0  0  0
   17.6369   -6.9721  -11.9583 C   0  0  1  0  0  0  0  0  0  0  0  0
   16.4727   -7.2087  -12.8224 C   0  0  0  0  0  0  0  0  0  0  0  0
   16.9118   -7.7723  -14.1576 C   0  0  0  0  0  0  0  0  0  0  0  0
   17.0010   -7.1001  -15.2035 O   0  0  0  0  0  0  0  0  0  0  0  0
   18.8055   -6.2674  -12.4223 C   0  0  0  0  0  0  0  0  0  0  0  0
   18.5739   -5.0338  -12.7959 O   0  0  0  0  0  0  0  0  0  0  0  0
   17.2248   -9.1145  -14.1855 O   0  0  0  0  0  0  0  0  0  0  0  0
   20.1522   -6.6442  -12.5506 N   0  0  0  0  0  0  0  0  0  0  0  0
   20.6952   -7.8870  -11.9684 C   0  0  0  0  0  0  0  0  0  0  0  0
   21.5922   -8.4201  -13.1002 C   0  0  0  0  0  0  0  0  0  0  0  0
   21.5880   -7.3329  -14.1703 C   0  0  0  0  0  0  0  0  0  0  0  0
   21.2629   -6.1107  -13.2755 C   0  0  1  0  0  0  0  0  0  0  0  0
   21.1526   -4.9268  -14.0795 C   0  0  0  0  0  0  0  0  0  0  0  0
   22.1504   -3.9276  -13.7993 O   0  0  0  0  0  0  0  0  0  0  0  0
   20.3693   -4.5881  -14.9703 O   0  0  0  0  0  0  0  0  0  0  0  0
  1  2  1  0
  3  4  2  0
  3  2  1  0
  5  3  1  0
  6  5  1  0
  6  7  1  6
  7  8  1  0
  8  9  2  0
  8 12  1  0
 10  6  1  0
 11 10  2  0
 13 10  1  0
 13 17  1  0
 14 15  1  0
 14 13  1  0
 15 16  1  0
 16 17  1  0
 18 19  1  0
 17 18  1  6
 20 18  2  0
M  END
$$$$
