GDP.pdb
     RDKit          3D

 20 20  0  0  1  0  0  0  0  0999 V2000
   21.9993  -19.1938  -14.7764 N   0  0  0  0  0  0  0  0  0  0  0  0
   22.3666  -18.8261  -16.1111 C   0  0  0  0  0  0  0  0  0  0  0  0
   23.5990  -17.9410  -16.1070 C   0  0  0  0  0  0  0  0  0  0  0  0
   24.0908  -17.6553  -14.9945 O   0  0  0  0  0  0  0  0  0  0  0  0
   24.1376  -17.4808  -17.3192 N   0  0  0  0  0  0  0  0  0  0  0  0
   25.2498  -16.6206  -17.5572 C   0  0  1  0  0  0  0  0  0  0  0  0
   26.2375  -17.0002  -18.5762 C   0  0  0  0  0  0  0  0  0  0  0  0
   26.6899  -18.4300  -18.3665 C   0  0  0  0  0  0  0  0  0  0  0  0
   26.1016  -19.4239  -18.8355 O   0  0  0  0  0  0  0  0  0  0  0  0
   24.9188  -15.2444  -17.2853 C   0  0  0  0  0  0  0  0  0  0  0  0
   23.8656  -14.8092  -17.9305 O   0  0  0  0  0  0  0  0  0  0  0  0
   27.8248  -18.6106  -17.6053 O   0  0  0  0  0  0  0  0  0  0  0  0
   25.5050  -14.2731  -16.4576 N   0  0  0  0  0  0  0  0  0  0  0  0
   26.2113  -14.6081  -15.2056 C   0  0  0  0  0  0  0  0  0  0  0  0
   27.4534  -13.7012  -15.2719 C   0  0  0  0  0  0  0  0  0  0  0  0
   27.2488  -12.8183  -16.4990 C   0  0  0  0  0  0  0  0  0  0  0  0
   25.7021  -12.8621  -16.5762 C   0  0  1  0  0  0  0  0  0  0  0  0
   25.2445  -12.1202  -17.7165 C   0  0  0  0  0  0  0  0  0  0  0  0
   24.6484  -10.8501  -17.3942 O   0  0  0  0  0  0  0  0  0  0  0  0
   25.2583  -12.3517  -18.9282 O   0  0  0  0  0  0  0  0  0  0  0  0
  1  2  1  0
  3  4  2  0
  3  2  1  0
  5  3  1  0
  6  5  1  0
  6  7  1  6
  7  8  1  0
  8  9  2  0
  8 12  1  0
 10  6  1  0
 11 10  2  0
 13 10  1  0
 13 17  1  0
 14 15  1  0
 14 13  1  0
 15 16  1  0
 16 17  1  0
 18 19  1  0
 17 18  1  6
 20 18  2  0
M  END
$$$$
