GDP.pdb
     RDKit          3D

 20 20  0  0  1  0  0  0  0  0999 V2000
   15.4897  -12.5651  -14.2713 N   0  0  0  0  0  0  0  0  0  0  0  0
   15.5123  -11.7919  -15.4768 C   0  0  0  0  0  0  0  0  0  0  0  0
   16.9289  -11.3715  -15.8215 C   0  0  0  0  0  0  0  0  0  0  0  0
   17.8500  -12.1464  -15.4865 O   0  0  0  0  0  0  0  0  0  0  0  0
   17.1589  -10.1578  -16.4888 N   0  0  0  0  0  0  0  0  0  0  0  0
   18.3737   -9.6095  -16.9960 C   0  0  1  0  0  0  0  0  0  0  0  0
   18.5304   -9.4492  -18.4478 C   0  0  0  0  0  0  0  0  0  0  0  0
   19.8887   -8.8627  -18.7708 C   0  0  0  0  0  0  0  0  0  0  0  0
   20.1961   -7.6694  -18.5826 O   0  0  0  0  0  0  0  0  0  0  0  0
   18.9731   -8.6971  -16.0548 C   0  0  0  0  0  0  0  0  0  0  0  0
   18.3550   -7.5468  -15.9559 O   0  0  0  0  0  0  0  0  0  0  0  0
   20.8203   -9.7268  -19.3053 O   0  0  0  0  0  0  0  0  0  0  0  0
   20.0943   -8.8003  -15.2155 N   0  0  0  0  0  0  0  0  0  0  0  0
   20.7520  -10.0863  -14.9119 C   0  0  0  0  0  0  0  0  0  0  0  0
   22.2456   -9.7274  -15.0115 C   0  0  0  0  0  0  0  0  0  0  0  0
   22.2892   -8.2161  -15.2152 C   0  0  0  0  0  0  0  0  0  0  0  0
   20.9335   -7.8428  -14.5652 C   0  0  1  0  0  0  0  0  0  0  0  0
   20.7070   -6.4298  -14.6746 C   0  0  0  0  0  0  0  0  0  0  0  0
   20.7552   -5.7251  -13.4201 O   0  0  0  0  0  0  0  0  0  0  0  0
   20.4774   -5.6891  -15.6341 O   0  0  0  0  0  0  0  0  0  0  0  0
  1  2  1  0
  3  4  2  0
  3  2  1  0
  5  3  1  0
  6  5  1  0
  6  7  1  6
  7  8  1  0
  8  9  2  0
  8 12  1  0
 10  6  1  0
 11 10  2  0
 13 10  1  0
 13 17  1  0
 14 15  1  0
 14 13  1  0
 15 16  1  0
 16 17  1  0
 18 19  1  0
 17 18  1  6
 20 18  2  0
M  END
$$$$
