EEL.pdb
     RDKit          3D

 27 26  0  0  1  0  0  0  0  0999 V2000
   10.2638  -18.0826   18.1239 N   0  0  0  0  0  0  0  0  0  0  0  0
   10.9603  -17.4321   19.1902 C   0  0  1  0  0  0  0  0  0  0  0  0
   11.7125  -16.2151   18.7317 C   0  0  0  0  0  0  0  0  0  0  0  0
   12.4865  -15.6255   19.9144 C   0  0  0  0  0  0  0  0  0  0  0  0
   13.1567  -14.4072   19.4199 C   0  0  0  0  0  0  0  0  0  0  0  0
   13.7925  -13.6784   20.2219 O   0  0  0  0  0  0  0  0  0  0  0  0
   10.0870  -17.1264   20.3659 C   0  0  0  0  0  0  0  0  0  0  0  0
    9.0646  -16.4438   20.1467 O   0  0  0  0  0  0  0  0  0  0  0  0
   13.0716  -14.0916   18.0807 O   0  0  0  0  0  0  0  0  0  0  0  0
   10.3762  -17.5705   21.6627 N   0  0  0  0  0  0  0  0  0  0  0  0
    9.5868  -17.5432   22.8303 C   0  0  1  0  0  0  0  0  0  0  0  0
    9.7247  -18.7508   23.7603 C   0  0  0  0  0  0  0  0  0  0  0  0
    9.1936  -20.0099   23.1696 C   0  0  0  0  0  0  0  0  0  0  0  0
    9.3320  -21.1065   24.1629 C   0  0  0  0  0  0  0  0  0  0  0  0
    8.3759  -21.8902   24.3372 O   0  0  0  0  0  0  0  0  0  0  0  0
    9.5956  -16.3301   23.6313 C   0  0  0  0  0  0  0  0  0  0  0  0
   10.7205  -15.8434   23.9541 O   0  0  0  0  0  0  0  0  0  0  0  0
   10.4904  -21.2586   24.8794 O   0  0  0  0  0  0  0  0  0  0  0  0
    5.8608  -12.3301   26.7264 C   0  0  0  0  0  0  0  0  0  0  0  0
    7.2250  -12.8947   26.4106 C   0  0  2  0  0  0  0  0  0  0  0  0
    8.1789  -11.7502   26.3161 C   0  0  0  0  0  0  0  0  0  0  0  0
    7.2767  -13.8795   25.3197 C   0  0  0  0  0  0  0  0  0  0  0  0
    8.5118  -14.6996   25.1583 C   0  0  2  0  0  0  0  0  0  0  0  0
    8.4595  -15.6381   24.0872 N   0  0  0  0  0  0  0  0  0  0  0  0
    9.0162  -15.2798   26.4218 C   0  0  0  0  0  0  0  0  0  0  0  0
   10.1028  -14.7634   27.0856 O   0  0  0  0  0  0  0  0  0  0  0  0
    8.4385  -16.2706   26.9042 O   0  0  0  0  0  0  0  0  0  0  0  0
  2  1  1  6
  2  7  1  0
  3  2  1  0
  3  4  1  0
  4  5  1  0
  5  6  2  0
  5  9  1  0
  7  8  2  0
 10 11  1  0
 10  7  1  0
 11 16  1  0
 11 12  1  1
 13 12  1  0
 14 15  2  0
 14 13  1  0
 16 17  2  0
 18 14  1  0
 20 19  1  6
 20 22  1  0
 21 20  1  0
 23 22  1  1
 23 25  1  0
 24 23  1  0
 24 16  1  0
 25 27  2  0
 25 26  1  0
M  END
$$$$
