EEL.pdb
     RDKit          3D

 27 26  0  0  1  0  0  0  0  0999 V2000
   12.1709  -18.4303   20.4347 N   0  0  0  0  0  0  0  0  0  0  0  0
   11.4192  -18.2328   21.6352 C   0  0  1  0  0  0  0  0  0  0  0  0
   12.2569  -18.3839   22.8732 C   0  0  0  0  0  0  0  0  0  0  0  0
   13.5259  -19.1697   22.5305 C   0  0  0  0  0  0  0  0  0  0  0  0
   14.3154  -19.2669   23.7735 C   0  0  0  0  0  0  0  0  0  0  0  0
   15.4274  -19.8514   23.7596 O   0  0  0  0  0  0  0  0  0  0  0  0
   10.6508  -16.9492   21.6464 C   0  0  0  0  0  0  0  0  0  0  0  0
   11.2857  -15.9094   21.3724 O   0  0  0  0  0  0  0  0  0  0  0  0
   13.8145  -18.7110   24.9313 O   0  0  0  0  0  0  0  0  0  0  0  0
    9.2838  -16.8848   21.9459 N   0  0  0  0  0  0  0  0  0  0  0  0
    8.3961  -15.7904   21.9115 C   0  0  1  0  0  0  0  0  0  0  0  0
    7.0093  -16.0710   21.3282 C   0  0  0  0  0  0  0  0  0  0  0  0
    7.0564  -16.7356   19.9969 C   0  0  0  0  0  0  0  0  0  0  0  0
    5.9781  -17.7558   19.9268 C   0  0  0  0  0  0  0  0  0  0  0  0
    5.4756  -18.0309   18.8175 O   0  0  0  0  0  0  0  0  0  0  0  0
    8.2453  -14.9962   23.1199 C   0  0  0  0  0  0  0  0  0  0  0  0
    7.6444  -13.8843   23.0250 O   0  0  0  0  0  0  0  0  0  0  0  0
    5.5385  -18.3875   21.0609 O   0  0  0  0  0  0  0  0  0  0  0  0
    5.5071  -12.4170   26.8260 C   0  0  0  0  0  0  0  0  0  0  0  0
    6.9393  -12.8560   26.6371 C   0  0  2  0  0  0  0  0  0  0  0  0
    7.7684  -11.6292   26.4461 C   0  0  0  0  0  0  0  0  0  0  0  0
    7.1561  -13.9468   25.6750 C   0  0  0  0  0  0  0  0  0  0  0  0
    8.5284  -14.5144   25.5391 C   0  0  2  0  0  0  0  0  0  0  0  0
    8.7095  -15.3503   24.3991 N   0  0  0  0  0  0  0  0  0  0  0  0
    9.0610  -15.1024   26.7874 C   0  0  0  0  0  0  0  0  0  0  0  0
    9.2556  -14.3581   27.9258 O   0  0  0  0  0  0  0  0  0  0  0  0
    9.3438  -16.3139   26.8116 O   0  0  0  0  0  0  0  0  0  0  0  0
  2  1  1  6
  2  7  1  0
  3  2  1  0
  3  4  1  0
  4  5  1  0
  5  6  2  0
  5  9  1  0
  7  8  2  0
 10 11  1  0
 10  7  1  0
 11 16  1  0
 11 12  1  1
 13 12  1  0
 14 15  2  0
 14 13  1  0
 16 17  2  0
 18 14  1  0
 20 19  1  6
 20 22  1  0
 21 20  1  0
 23 22  1  1
 23 25  1  0
 24 23  1  0
 24 16  1  0
 25 27  2  0
 25 26  1  0
M  END
$$$$
