EEL.pdb
     RDKit          3D

 27 26  0  0  1  0  0  0  0  0999 V2000
    9.7870  -13.8872   19.2155 N   0  0  0  0  0  0  0  0  0  0  0  0
    8.5504  -13.7349   19.9175 C   0  0  1  0  0  0  0  0  0  0  0  0
    7.3541  -13.9268   19.0292 C   0  0  0  0  0  0  0  0  0  0  0  0
    7.5785  -13.1778   17.7124 C   0  0  0  0  0  0  0  0  0  0  0  0
    8.1912  -14.1388   16.7749 C   0  0  0  0  0  0  0  0  0  0  0  0
    9.3213  -13.8936   16.2836 O   0  0  0  0  0  0  0  0  0  0  0  0
    8.4615  -14.5819   21.1476 C   0  0  0  0  0  0  0  0  0  0  0  0
    7.4106  -14.4963   21.8165 O   0  0  0  0  0  0  0  0  0  0  0  0
    7.5080  -15.2927   16.4554 O   0  0  0  0  0  0  0  0  0  0  0  0
    9.4915  -15.4396   21.5552 N   0  0  0  0  0  0  0  0  0  0  0  0
    9.5692  -16.3028   22.6669 C   0  0  1  0  0  0  0  0  0  0  0  0
   10.5886  -17.4395   22.5621 C   0  0  0  0  0  0  0  0  0  0  0  0
   10.5050  -18.4083   23.6893 C   0  0  0  0  0  0  0  0  0  0  0  0
   11.5432  -19.4555   23.5055 C   0  0  0  0  0  0  0  0  0  0  0  0
   11.6548  -20.0090   22.3919 O   0  0  0  0  0  0  0  0  0  0  0  0
    9.6662  -15.7055   23.9887 C   0  0  0  0  0  0  0  0  0  0  0  0
   10.7394  -15.1003   24.2864 O   0  0  0  0  0  0  0  0  0  0  0  0
   12.3681  -19.8115   24.5405 O   0  0  0  0  0  0  0  0  0  0  0  0
    7.9802  -11.9537   26.0036 C   0  0  0  0  0  0  0  0  0  0  0  0
    7.1368  -13.2028   25.9140 C   0  0  2  0  0  0  0  0  0  0  0  0
    5.7116  -12.8027   26.1084 C   0  0  0  0  0  0  0  0  0  0  0  0
    7.6052  -14.3530   26.7015 C   0  0  0  0  0  0  0  0  0  0  0  0
    8.8187  -15.0862   26.2389 C   0  0  2  0  0  0  0  0  0  0  0  0
    8.6691  -15.7368   24.9798 N   0  0  0  0  0  0  0  0  0  0  0  0
    9.4308  -15.9470   27.2742 C   0  0  0  0  0  0  0  0  0  0  0  0
    9.7601  -17.2599   27.0381 O   0  0  0  0  0  0  0  0  0  0  0  0
    9.6575  -15.4687   28.4003 O   0  0  0  0  0  0  0  0  0  0  0  0
  2  1  1  6
  2  7  1  0
  3  2  1  0
  3  4  1  0
  4  5  1  0
  5  6  2  0
  5  9  1  0
  7  8  2  0
 10 11  1  0
 10  7  1  0
 11 16  1  0
 11 12  1  6
 13 12  1  0
 14 15  2  0
 14 13  1  0
 16 17  2  0
 18 14  1  0
 20 19  1  1
 20 22  1  0
 21 20  1  0
 23 22  1  1
 23 25  1  0
 24 23  1  0
 24 16  1  0
 25 27  2  0
 25 26  1  0
M  END
$$$$
