EEL.pdb
     RDKit          3D

 27 26  0  0  1  0  0  0  0  0999 V2000
   10.6237  -14.8484   18.2678 N   0  0  0  0  0  0  0  0  0  0  0  0
   10.9327  -15.6868   19.3845 C   0  0  1  0  0  0  0  0  0  0  0  0
   12.2758  -15.3796   19.9837 C   0  0  0  0  0  0  0  0  0  0  0  0
   12.8875  -14.1765   19.2600 C   0  0  0  0  0  0  0  0  0  0  0  0
   14.3509  -14.3662   19.2804 C   0  0  0  0  0  0  0  0  0  0  0  0
   15.0264  -14.1014   18.2547 O   0  0  0  0  0  0  0  0  0  0  0  0
    9.8586  -15.7032   20.4257 C   0  0  0  0  0  0  0  0  0  0  0  0
    9.1226  -14.6967   20.4927 O   0  0  0  0  0  0  0  0  0  0  0  0
   14.9508  -14.8322   20.4307 O   0  0  0  0  0  0  0  0  0  0  0  0
    9.6631  -16.7816   21.2983 N   0  0  0  0  0  0  0  0  0  0  0  0
    8.7505  -16.9370   22.3614 C   0  0  1  0  0  0  0  0  0  0  0  0
    8.4933  -18.3748   22.8183 C   0  0  0  0  0  0  0  0  0  0  0  0
    7.5548  -18.4651   23.9705 C   0  0  0  0  0  0  0  0  0  0  0  0
    7.3502  -19.8957   24.3169 C   0  0  0  0  0  0  0  0  0  0  0  0
    7.9655  -20.7693   23.6712 O   0  0  0  0  0  0  0  0  0  0  0  0
    8.9198  -16.0947   23.5342 C   0  0  0  0  0  0  0  0  0  0  0  0
   10.0830  -15.9963   24.0280 O   0  0  0  0  0  0  0  0  0  0  0  0
    6.4992  -20.2551   25.3295 O   0  0  0  0  0  0  0  0  0  0  0  0
    5.8979  -12.1844   27.4158 C   0  0  0  0  0  0  0  0  0  0  0  0
    7.1672  -12.8165   26.8973 C   0  0  2  0  0  0  0  0  0  0  0  0
    8.2110  -11.7511   26.8329 C   0  0  0  0  0  0  0  0  0  0  0  0
    7.0231  -13.6624   25.7030 C   0  0  0  0  0  0  0  0  0  0  0  0
    8.1412  -14.5805   25.3413 C   0  0  2  0  0  0  0  0  0  0  0  0
    7.9018  -15.3707   24.1798 N   0  0  0  0  0  0  0  0  0  0  0  0
    8.6705  -15.3599   26.4815 C   0  0  0  0  0  0  0  0  0  0  0  0
    9.8039  -14.9879   27.1632 O   0  0  0  0  0  0  0  0  0  0  0  0
    8.0704  -16.3895   26.8394 O   0  0  0  0  0  0  0  0  0  0  0  0
  2  1  1  6
  2  7  1  0
  3  2  1  0
  3  4  1  0
  4  5  1  0
  5  6  2  0
  5  9  1  0
  7  8  2  0
 10 11  1  0
 10  7  1  0
 11 16  1  0
 11 12  1  1
 13 12  1  0
 14 15  2  0
 14 13  1  0
 16 17  2  0
 18 14  1  0
 20 19  1  6
 20 22  1  0
 21 20  1  0
 23 22  1  1
 23 25  1  0
 24 23  1  0
 24 16  1  0
 25 27  2  0
 25 26  1  0
M  END
$$$$
