EEL.pdb
     RDKit          3D

 27 26  0  0  1  0  0  0  0  0999 V2000
    8.7304  -19.2546   20.1351 N   0  0  0  0  0  0  0  0  0  0  0  0
    9.3563  -18.1251   20.7498 C   0  0  1  0  0  0  0  0  0  0  0  0
    9.7232  -17.0573   19.7587 C   0  0  0  0  0  0  0  0  0  0  0  0
   11.2428  -16.8668   19.7622 C   0  0  0  0  0  0  0  0  0  0  0  0
   11.8117  -17.9673   18.9602 C   0  0  0  0  0  0  0  0  0  0  0  0
   11.7849  -17.9007   17.7059 O   0  0  0  0  0  0  0  0  0  0  0  0
    8.5715  -17.5652   21.8938 C   0  0  0  0  0  0  0  0  0  0  0  0
    7.5461  -16.9122   21.6083 O   0  0  0  0  0  0  0  0  0  0  0  0
   12.3647  -19.0520   19.6067 O   0  0  0  0  0  0  0  0  0  0  0  0
    8.9438  -17.7478   23.2319 N   0  0  0  0  0  0  0  0  0  0  0  0
    8.3228  -17.3042   24.4171 C   0  0  1  0  0  0  0  0  0  0  0  0
    7.9703  -18.3908   25.4355 C   0  0  0  0  0  0  0  0  0  0  0  0
    7.8572  -19.7467   24.8313 C   0  0  0  0  0  0  0  0  0  0  0  0
    7.4196  -20.7076   25.8770 C   0  0  0  0  0  0  0  0  0  0  0  0
    6.5280  -21.5373   25.6024 O   0  0  0  0  0  0  0  0  0  0  0  0
    8.9176  -16.1783   25.1186 C   0  0  0  0  0  0  0  0  0  0  0  0
   10.1589  -16.2278   25.3700 O   0  0  0  0  0  0  0  0  0  0  0  0
    7.9836  -20.6865   27.1260 O   0  0  0  0  0  0  0  0  0  0  0  0
    7.9019  -11.8361   24.6851 C   0  0  0  0  0  0  0  0  0  0  0  0
    7.0901  -12.3836   25.8343 C   0  0  2  0  0  0  0  0  0  0  0  0
    6.1188  -11.3277   26.2472 C   0  0  0  0  0  0  0  0  0  0  0  0
    7.8551  -13.0252   26.9140 C   0  0  0  0  0  0  0  0  0  0  0  0
    8.7436  -14.1732   26.5725 C   0  0  2  0  0  0  0  0  0  0  0  0
    8.2366  -15.0260   25.5495 N   0  0  0  0  0  0  0  0  0  0  0  0
    9.2526  -14.9091   27.7502 C   0  0  0  0  0  0  0  0  0  0  0  0
   10.1150  -14.3403   28.6560 O   0  0  0  0  0  0  0  0  0  0  0  0
    8.8888  -16.0853   27.9307 O   0  0  0  0  0  0  0  0  0  0  0  0
  2  1  1  6
  2  7  1  0
  3  2  1  0
  3  4  1  0
  4  5  1  0
  5  6  2  0
  5  9  1  0
  7  8  2  0
 10 11  1  0
 10  7  1  0
 11 16  1  0
 11 12  1  1
 13 12  1  0
 14 15  2  0
 14 13  1  0
 16 17  2  0
 18 14  1  0
 20 19  1  6
 20 22  1  0
 21 20  1  0
 23 22  1  1
 23 25  1  0
 24 23  1  0
 24 16  1  0
 25 27  2  0
 25 26  1  0
M  END
$$$$
