EEL.pdb
     RDKit          3D

 27 26  0  0  1  0  0  0  0  0999 V2000
    9.3920  -16.3687   18.6605 N   0  0  0  0  0  0  0  0  0  0  0  0
    8.0875  -16.3753   19.2467 C   0  0  1  0  0  0  0  0  0  0  0  0
    7.1444  -17.3128   18.5474 C   0  0  0  0  0  0  0  0  0  0  0  0
    7.8769  -17.9917   17.3864 C   0  0  0  0  0  0  0  0  0  0  0  0
    6.9169  -18.9238   16.7640 C   0  0  0  0  0  0  0  0  0  0  0  0
    6.1128  -18.5004   15.8963 O   0  0  0  0  0  0  0  0  0  0  0  0
    8.1049  -16.6154   20.7233 C   0  0  0  0  0  0  0  0  0  0  0  0
    6.9983  -16.6648   21.2997 O   0  0  0  0  0  0  0  0  0  0  0  0
    6.9217  -20.2475   17.1487 O   0  0  0  0  0  0  0  0  0  0  0  0
    9.2899  -16.7807   21.4520 N   0  0  0  0  0  0  0  0  0  0  0  0
    9.4903  -16.9364   22.8386 C   0  0  1  0  0  0  0  0  0  0  0  0
   10.7481  -17.7043   23.2514 C   0  0  0  0  0  0  0  0  0  0  0  0
   10.8412  -19.0544   22.6310 C   0  0  0  0  0  0  0  0  0  0  0  0
   12.1491  -19.6624   22.9891 C   0  0  0  0  0  0  0  0  0  0  0  0
   12.7236  -20.3965   22.1585 O   0  0  0  0  0  0  0  0  0  0  0  0
    9.3600  -15.7601   23.6829 C   0  0  0  0  0  0  0  0  0  0  0  0
   10.3319  -14.9473   23.7179 O   0  0  0  0  0  0  0  0  0  0  0  0
   12.7197  -19.4235   24.2121 O   0  0  0  0  0  0  0  0  0  0  0  0
    5.5833  -11.8202   26.6234 C   0  0  0  0  0  0  0  0  0  0  0  0
    6.9407  -12.4530   26.4320 C   0  0  2  0  0  0  0  0  0  0  0  0
    7.9075  -11.3630   26.1065 C   0  0  0  0  0  0  0  0  0  0  0  0
    6.9802  -13.6409   25.5660 C   0  0  0  0  0  0  0  0  0  0  0  0
    8.2652  -14.3866   25.4379 C   0  0  2  0  0  0  0  0  0  0  0  0
    8.2434  -15.4359   24.4738 N   0  0  0  0  0  0  0  0  0  0  0  0
    8.8553  -14.7921   26.7321 C   0  0  0  0  0  0  0  0  0  0  0  0
    8.9507  -16.1078   27.1164 O   0  0  0  0  0  0  0  0  0  0  0  0
    9.2820  -13.9134   27.5028 O   0  0  0  0  0  0  0  0  0  0  0  0
  2  1  1  6
  2  7  1  0
  3  2  1  0
  3  4  1  0
  4  5  1  0
  5  6  2  0
  5  9  1  0
  7  8  2  0
 10 11  1  0
 10  7  1  0
 11 16  1  0
 11 12  1  6
 13 12  1  0
 14 15  2  0
 14 13  1  0
 16 17  2  0
 18 14  1  0
 20 19  1  6
 20 22  1  0
 21 20  1  0
 23 22  1  1
 23 25  1  0
 24 23  1  0
 24 16  1  0
 25 27  2  0
 25 26  1  0
M  END
$$$$
