EEL.pdb
     RDKit          3D

 27 26  0  0  1  0  0  0  0  0999 V2000
    9.2591  -17.8720   19.8015 N   0  0  0  0  0  0  0  0  0  0  0  0
    8.6314  -17.5543   21.0466 C   0  0  1  0  0  0  0  0  0  0  0  0
    7.4421  -18.4264   21.3334 C   0  0  0  0  0  0  0  0  0  0  0  0
    6.6239  -18.6010   20.0506 C   0  0  0  0  0  0  0  0  0  0  0  0
    5.4995  -19.4977   20.3815 C   0  0  0  0  0  0  0  0  0  0  0  0
    4.4434  -19.0182   20.8647 O   0  0  0  0  0  0  0  0  0  0  0  0
    9.5847  -17.5307   22.1994 C   0  0  0  0  0  0  0  0  0  0  0  0
    9.7879  -18.6145   22.7855 O   0  0  0  0  0  0  0  0  0  0  0  0
    5.6306  -20.8507   20.1522 O   0  0  0  0  0  0  0  0  0  0  0  0
   10.2338  -16.3643   22.6246 N   0  0  0  0  0  0  0  0  0  0  0  0
   11.1922  -16.1761   23.6409 C   0  0  1  0  0  0  0  0  0  0  0  0
   12.4593  -15.4200   23.2348 C   0  0  0  0  0  0  0  0  0  0  0  0
   13.1012  -15.9673   22.0080 C   0  0  0  0  0  0  0  0  0  0  0  0
   14.5741  -15.8046   22.1188 C   0  0  0  0  0  0  0  0  0  0  0  0
   15.0515  -15.3001   23.1564 O   0  0  0  0  0  0  0  0  0  0  0  0
   10.7346  -15.6701   24.9247 C   0  0  0  0  0  0  0  0  0  0  0  0
   11.5969  -15.5175   25.8410 O   0  0  0  0  0  0  0  0  0  0  0  0
   15.4000  -16.2010   21.0994 O   0  0  0  0  0  0  0  0  0  0  0  0
    8.4570  -12.0653   26.3327 C   0  0  0  0  0  0  0  0  0  0  0  0
    7.5012  -13.1815   25.9863 C   0  0  2  0  0  0  0  0  0  0  0  0
    6.1226  -12.6087   25.9673 C   0  0  0  0  0  0  0  0  0  0  0  0
    7.6773  -14.4347   26.7352 C   0  0  0  0  0  0  0  0  0  0  0  0
    8.9646  -15.1742   26.5938 C   0  0  2  0  0  0  0  0  0  0  0  0
    9.4092  -15.3303   25.2489 N   0  0  0  0  0  0  0  0  0  0  0  0
    9.0277  -16.4249   27.3808 C   0  0  0  0  0  0  0  0  0  0  0  0
    9.0359  -17.6654   26.7900 O   0  0  0  0  0  0  0  0  0  0  0  0
    9.0757  -16.3554   28.6222 O   0  0  0  0  0  0  0  0  0  0  0  0
  2  1  1  6
  2  7  1  0
  3  2  1  0
  3  4  1  0
  4  5  1  0
  5  6  2  0
  5  9  1  0
  7  8  2  0
 10 11  1  0
 10  7  1  0
 11 16  1  0
 11 12  1  6
 13 12  1  0
 14 15  2  0
 14 13  1  0
 16 17  2  0
 18 14  1  0
 20 19  1  1
 20 22  1  0
 21 20  1  0
 23 22  1  6
 23 25  1  0
 24 23  1  0
 24 16  1  0
 25 27  2  0
 25 26  1  0
M  END
$$$$
