EEL.pdb
     RDKit          3D

 27 26  0  0  1  0  0  0  0  0999 V2000
    7.0260  -17.5971   18.8414 N   0  0  0  0  0  0  0  0  0  0  0  0
    8.2163  -17.1115   19.4681 C   0  0  1  0  0  0  0  0  0  0  0  0
    8.6621  -15.7878   18.9146 C   0  0  0  0  0  0  0  0  0  0  0  0
    7.8201  -15.4475   17.6814 C   0  0  0  0  0  0  0  0  0  0  0  0
    8.2931  -14.1387   17.1907 C   0  0  0  0  0  0  0  0  0  0  0  0
    9.5236  -13.8846   17.1851 O   0  0  0  0  0  0  0  0  0  0  0  0
    8.1266  -17.0793   20.9611 C   0  0  0  0  0  0  0  0  0  0  0  0
    7.0562  -16.6649   21.4530 O   0  0  0  0  0  0  0  0  0  0  0  0
    7.3708  -13.2160   16.7453 O   0  0  0  0  0  0  0  0  0  0  0  0
    9.1763  -17.4879   21.7941 N   0  0  0  0  0  0  0  0  0  0  0  0
    9.2597  -17.5228   23.2008 C   0  0  1  0  0  0  0  0  0  0  0  0
   10.3713  -18.3983   23.7841 C   0  0  0  0  0  0  0  0  0  0  0  0
   10.4142  -18.3780   25.2721 C   0  0  0  0  0  0  0  0  0  0  0  0
   11.4620  -19.3227   25.7389 C   0  0  0  0  0  0  0  0  0  0  0  0
   11.1155  -20.3784   26.3083 O   0  0  0  0  0  0  0  0  0  0  0  0
    9.2333  -16.2582   23.9172 C   0  0  0  0  0  0  0  0  0  0  0  0
   10.2477  -15.5041   23.8225 O   0  0  0  0  0  0  0  0  0  0  0  0
   12.7903  -19.0429   25.5495 O   0  0  0  0  0  0  0  0  0  0  0  0
    5.5812  -12.1781   26.9395 C   0  0  0  0  0  0  0  0  0  0  0  0
    6.9409  -12.6697   26.5049 C   0  0  2  0  0  0  0  0  0  0  0  0
    7.6753  -11.5108   25.9161 C   0  0  0  0  0  0  0  0  0  0  0  0
    6.9551  -13.9162   25.7247 C   0  0  0  0  0  0  0  0  0  0  0  0
    8.2642  -14.5857   25.4756 C   0  0  2  0  0  0  0  0  0  0  0  0
    8.1753  -15.7877   24.7151 N   0  0  0  0  0  0  0  0  0  0  0  0
    9.1104  -14.7165   26.6816 C   0  0  0  0  0  0  0  0  0  0  0  0
    9.1312  -15.8590   27.4446 O   0  0  0  0  0  0  0  0  0  0  0  0
    9.8307  -13.7602   27.0204 O   0  0  0  0  0  0  0  0  0  0  0  0
  2  1  1  6
  2  7  1  0
  3  2  1  0
  3  4  1  0
  4  5  1  0
  5  6  2  0
  5  9  1  0
  7  8  2  0
 10 11  1  0
 10  7  1  0
 11 16  1  0
 11 12  1  6
 13 12  1  0
 14 15  2  0
 14 13  1  0
 16 17  2  0
 18 14  1  0
 20 19  1  6
 20 22  1  0
 21 20  1  0
 23 22  1  1
 23 25  1  0
 24 23  1  0
 24 16  1  0
 25 27  2  0
 25 26  1  0
M  END
$$$$
