EEL.pdb
     RDKit          3D

 27 26  0  0  1  0  0  0  0  0999 V2000
   10.2114  -13.4462   18.8713 N   0  0  0  0  0  0  0  0  0  0  0  0
    8.8386  -13.6296   19.2277 C   0  0  1  0  0  0  0  0  0  0  0  0
    7.9840  -14.0181   18.0547 C   0  0  0  0  0  0  0  0  0  0  0  0
    8.7701  -13.7896   16.7604 C   0  0  0  0  0  0  0  0  0  0  0  0
    7.9300  -14.2943   15.6571 C   0  0  0  0  0  0  0  0  0  0  0  0
    6.8512  -13.7125   15.3809 O   0  0  0  0  0  0  0  0  0  0  0  0
    8.6473  -14.5653   20.3792 C   0  0  0  0  0  0  0  0  0  0  0  0
    7.4805  -14.7120   20.7990 O   0  0  0  0  0  0  0  0  0  0  0  0
    8.3479  -15.3998   14.9474 O   0  0  0  0  0  0  0  0  0  0  0  0
    9.7070  -15.2580   20.9791 N   0  0  0  0  0  0  0  0  0  0  0  0
    9.7142  -16.1191   22.0952 C   0  0  1  0  0  0  0  0  0  0  0  0
   10.8163  -17.1808   22.1147 C   0  0  0  0  0  0  0  0  0  0  0  0
   10.7385  -18.1283   20.9690 C   0  0  0  0  0  0  0  0  0  0  0  0
   11.8674  -19.0905   21.0593 C   0  0  0  0  0  0  0  0  0  0  0  0
   12.0732  -19.6833   22.1386 O   0  0  0  0  0  0  0  0  0  0  0  0
    9.6130  -15.5230   23.4172 C   0  0  0  0  0  0  0  0  0  0  0  0
   10.5462  -14.7507   23.7902 O   0  0  0  0  0  0  0  0  0  0  0  0
   12.6733  -19.3264   19.9760 O   0  0  0  0  0  0  0  0  0  0  0  0
    5.7687  -12.7348   27.1184 C   0  0  0  0  0  0  0  0  0  0  0  0
    7.1335  -13.3533   26.9331 C   0  0  2  0  0  0  0  0  0  0  0  0
    8.1512  -12.3248   27.3010 C   0  0  0  0  0  0  0  0  0  0  0  0
    7.3513  -14.0624   25.6634 C   0  0  0  0  0  0  0  0  0  0  0  0
    8.4834  -15.0289   25.5724 C   0  0  2  0  0  0  0  0  0  0  0  0
    8.5643  -15.7257   24.3319 N   0  0  0  0  0  0  0  0  0  0  0  0
    8.6137  -15.9132   26.7508 C   0  0  0  0  0  0  0  0  0  0  0  0
    9.4016  -15.5897   27.8290 O   0  0  0  0  0  0  0  0  0  0  0  0
    7.9888  -16.9890   26.7704 O   0  0  0  0  0  0  0  0  0  0  0  0
  2  1  1  6
  2  7  1  0
  3  2  1  0
  3  4  1  0
  4  5  1  0
  5  6  2  0
  5  9  1  0
  7  8  2  0
 10 11  1  0
 10  7  1  0
 11 16  1  0
 11 12  1  1
 13 12  1  0
 14 15  2  0
 14 13  1  0
 16 17  2  0
 18 14  1  0
 20 19  1  6
 20 22  1  0
 21 20  1  0
 23 22  1  1
 23 25  1  0
 24 23  1  0
 24 16  1  0
 25 27  2  0
 25 26  1  0
M  END
$$$$
