EEL.pdb
     RDKit          3D

 27 26  0  0  1  0  0  0  0  0999 V2000
    9.6908  -15.7611   18.2798 N   0  0  0  0  0  0  0  0  0  0  0  0
    9.4694  -14.6902   19.2015 C   0  0  1  0  0  0  0  0  0  0  0  0
    8.6933  -13.5561   18.5942 C   0  0  0  0  0  0  0  0  0  0  0  0
    7.5797  -14.1240   17.7094 C   0  0  0  0  0  0  0  0  0  0  0  0
    8.1742  -14.3682   16.3809 C   0  0  0  0  0  0  0  0  0  0  0  0
    9.3087  -13.9001   16.1120 O   0  0  0  0  0  0  0  0  0  0  0  0
    8.8638  -15.1390   20.4938 C   0  0  0  0  0  0  0  0  0  0  0  0
    7.6247  -15.2918   20.5130 O   0  0  0  0  0  0  0  0  0  0  0  0
    7.4693  -15.1093   15.4567 O   0  0  0  0  0  0  0  0  0  0  0  0
    9.6245  -15.3841   21.6444 N   0  0  0  0  0  0  0  0  0  0  0  0
    9.3086  -16.1223   22.8030 C   0  0  1  0  0  0  0  0  0  0  0  0
    9.9829  -17.4902   22.9300 C   0  0  0  0  0  0  0  0  0  0  0  0
   10.0081  -18.2528   21.6516 C   0  0  0  0  0  0  0  0  0  0  0  0
   10.6476  -19.5732   21.8883 C   0  0  0  0  0  0  0  0  0  0  0  0
   10.0923  -20.6023   21.4507 O   0  0  0  0  0  0  0  0  0  0  0  0
    9.3808  -15.4422   24.0858 C   0  0  0  0  0  0  0  0  0  0  0  0
   10.4953  -14.9462   24.4297 O   0  0  0  0  0  0  0  0  0  0  0  0
   11.8293  -19.6644   22.5766 O   0  0  0  0  0  0  0  0  0  0  0  0
    7.6504  -11.6484   25.4036 C   0  0  0  0  0  0  0  0  0  0  0  0
    6.7036  -12.7770   25.7347 C   0  0  2  0  0  0  0  0  0  0  0  0
    5.3940  -12.1722   26.1196 C   0  0  0  0  0  0  0  0  0  0  0  0
    7.2309  -13.8171   26.6306 C   0  0  0  0  0  0  0  0  0  0  0  0
    8.4537  -14.5625   26.2146 C   0  0  2  0  0  0  0  0  0  0  0  0
    8.3174  -15.2815   24.9917 N   0  0  0  0  0  0  0  0  0  0  0  0
    9.0679  -15.3602   27.2981 C   0  0  0  0  0  0  0  0  0  0  0  0
    9.5682  -14.7852   28.4413 O   0  0  0  0  0  0  0  0  0  0  0  0
    9.1354  -16.5965   27.1739 O   0  0  0  0  0  0  0  0  0  0  0  0
  2  1  1  6
  2  7  1  0
  3  2  1  0
  3  4  1  0
  4  5  1  0
  5  6  2  0
  5  9  1  0
  7  8  2  0
 10 11  1  0
 10  7  1  0
 11 16  1  0
 11 12  1  1
 13 12  1  0
 14 15  2  0
 14 13  1  0
 16 17  2  0
 18 14  1  0
 20 19  1  1
 20 22  1  0
 21 20  1  0
 23 22  1  1
 23 25  1  0
 24 23  1  0
 24 16  1  0
 25 27  2  0
 25 26  1  0
M  END
$$$$
