EEL.pdb
     RDKit          3D

 27 26  0  0  1  0  0  0  0  0999 V2000
    8.4930  -18.0123   18.5069 N   0  0  0  0  0  0  0  0  0  0  0  0
    9.1022  -16.9569   19.2554 C   0  0  1  0  0  0  0  0  0  0  0  0
    8.7190  -15.5947   18.7508 C   0  0  0  0  0  0  0  0  0  0  0  0
    8.7275  -15.6035   17.2193 C   0  0  0  0  0  0  0  0  0  0  0  0
    8.2264  -14.2858   16.7831 C   0  0  0  0  0  0  0  0  0  0  0  0
    7.9860  -14.0837   15.5666 O   0  0  0  0  0  0  0  0  0  0  0  0
    8.8835  -17.0767   20.7305 C   0  0  0  0  0  0  0  0  0  0  0  0
    7.6994  -17.1408   21.1218 O   0  0  0  0  0  0  0  0  0  0  0  0
    8.0305  -13.2976   17.7241 O   0  0  0  0  0  0  0  0  0  0  0  0
    9.9365  -17.1174   21.6537 N   0  0  0  0  0  0  0  0  0  0  0  0
    9.9125  -17.2813   23.0535 C   0  0  1  0  0  0  0  0  0  0  0  0
   11.0552  -18.1057   23.6509 C   0  0  0  0  0  0  0  0  0  0  0  0
   10.9112  -18.3335   25.1150 C   0  0  0  0  0  0  0  0  0  0  0  0
   12.1276  -19.0222   25.6196 C   0  0  0  0  0  0  0  0  0  0  0  0
   12.2436  -19.2259   26.8459 O   0  0  0  0  0  0  0  0  0  0  0  0
    9.7065  -16.0998   23.8751 C   0  0  0  0  0  0  0  0  0  0  0  0
   10.4091  -15.0753   23.6236 O   0  0  0  0  0  0  0  0  0  0  0  0
   13.1100  -19.4291   24.7549 O   0  0  0  0  0  0  0  0  0  0  0  0
    5.5885  -12.6970   26.8213 C   0  0  0  0  0  0  0  0  0  0  0  0
    7.0357  -13.0166   26.5335 C   0  0  2  0  0  0  0  0  0  0  0  0
    7.6905  -11.7633   26.0545 C   0  0  0  0  0  0  0  0  0  0  0  0
    7.2807  -14.2272   25.7355 C   0  0  0  0  0  0  0  0  0  0  0  0
    8.6583  -14.7976   25.7110 C   0  0  2  0  0  0  0  0  0  0  0  0
    8.7899  -15.9859   24.9354 N   0  0  0  0  0  0  0  0  0  0  0  0
    9.2913  -14.8949   27.0443 C   0  0  0  0  0  0  0  0  0  0  0  0
    9.2191  -16.0329   27.8109 O   0  0  0  0  0  0  0  0  0  0  0  0
    9.9125  -13.9136   27.4908 O   0  0  0  0  0  0  0  0  0  0  0  0
  2  1  1  6
  2  7  1  0
  3  2  1  0
  3  4  1  0
  4  5  1  0
  5  6  2  0
  5  9  1  0
  7  8  2  0
 10 11  1  0
 10  7  1  0
 11 16  1  0
 11 12  1  1
 13 12  1  0
 14 15  2  0
 14 13  1  0
 16 17  2  0
 18 14  1  0
 20 19  1  6
 20 22  1  0
 21 20  1  0
 23 22  1  1
 23 25  1  0
 24 23  1  0
 24 16  1  0
 25 27  2  0
 25 26  1  0
M  END
$$$$
