EEL.pdb
     RDKit          3D

 27 26  0  0  1  0  0  0  0  0999 V2000
   10.5919  -14.6031   18.3996 N   0  0  0  0  0  0  0  0  0  0  0  0
    9.2376  -14.3259   18.7661 C   0  0  1  0  0  0  0  0  0  0  0  0
    8.3110  -14.3076   17.5835 C   0  0  0  0  0  0  0  0  0  0  0  0
    9.0760  -14.7608   16.3366 C   0  0  0  0  0  0  0  0  0  0  0  0
    8.1091  -14.7643   15.2217 C   0  0  0  0  0  0  0  0  0  0  0  0
    6.9296  -14.3798   15.4205 O   0  0  0  0  0  0  0  0  0  0  0  0
    8.7246  -15.2195   19.8508 C   0  0  0  0  0  0  0  0  0  0  0  0
    7.9615  -16.1454   19.5050 O   0  0  0  0  0  0  0  0  0  0  0  0
    8.5216  -15.1912   13.9775 O   0  0  0  0  0  0  0  0  0  0  0  0
    9.0662  -15.0507   21.1989 N   0  0  0  0  0  0  0  0  0  0  0  0
    9.1956  -16.0031   22.2301 C   0  0  1  0  0  0  0  0  0  0  0  0
   10.0058  -17.2553   21.8872 C   0  0  0  0  0  0  0  0  0  0  0  0
    9.4405  -18.0255   20.7455 C   0  0  0  0  0  0  0  0  0  0  0  0
   10.3140  -19.1961   20.4716 C   0  0  0  0  0  0  0  0  0  0  0  0
   11.0459  -19.1822   19.4601 O   0  0  0  0  0  0  0  0  0  0  0  0
    9.5929  -15.5327   23.5470 C   0  0  0  0  0  0  0  0  0  0  0  0
   10.7812  -15.1163   23.6921 O   0  0  0  0  0  0  0  0  0  0  0  0
   10.3191  -20.2770   21.3141 O   0  0  0  0  0  0  0  0  0  0  0  0
    6.5074  -12.3702   25.1238 C   0  0  0  0  0  0  0  0  0  0  0  0
    7.2073  -13.1931   26.1786 C   0  0  2  0  0  0  0  0  0  0  0  0
    6.8013  -12.6603   27.5128 C   0  0  0  0  0  0  0  0  0  0  0  0
    8.6469  -13.4118   25.9734 C   0  0  0  0  0  0  0  0  0  0  0  0
    9.1486  -14.8132   25.8815 C   0  0  2  0  0  0  0  0  0  0  0  0
    8.7726  -15.4961   24.6885 N   0  0  0  0  0  0  0  0  0  0  0  0
    8.9287  -15.6108   27.1075 C   0  0  0  0  0  0  0  0  0  0  0  0
    8.2970  -16.8309   27.0872 O   0  0  0  0  0  0  0  0  0  0  0  0
    9.3288  -15.1647   28.1980 O   0  0  0  0  0  0  0  0  0  0  0  0
  2  1  1  6
  2  7  1  0
  3  2  1  0
  3  4  1  0
  4  5  1  0
  5  6  2  0
  5  9  1  0
  7  8  2  0
 10 11  1  0
 10  7  1  0
 11 16  1  0
 11 12  1  6
 13 12  1  0
 14 15  2  0
 14 13  1  0
 16 17  2  0
 18 14  1  0
 20 19  1  6
 20 22  1  0
 21 20  1  0
 23 22  1  1
 23 25  1  0
 24 23  1  0
 24 16  1  0
 25 27  2  0
 25 26  1  0
M  END
$$$$
