EEL.pdb
     RDKit          3D

 27 26  0  0  1  0  0  0  0  0999 V2000
   10.2560  -16.5548   18.8020 N   0  0  0  0  0  0  0  0  0  0  0  0
    8.9196  -16.2414   19.2035 C   0  0  1  0  0  0  0  0  0  0  0  0
    7.8861  -16.9593   18.3827 C   0  0  0  0  0  0  0  0  0  0  0  0
    8.2636  -18.4400   18.2795 C   0  0  0  0  0  0  0  0  0  0  0  0
    7.1496  -19.1162   17.5870 C   0  0  0  0  0  0  0  0  0  0  0  0
    6.1600  -19.5193   18.2479 O   0  0  0  0  0  0  0  0  0  0  0  0
    8.6837  -16.4297   20.6688 C   0  0  0  0  0  0  0  0  0  0  0  0
    7.5429  -16.1555   21.0963 O   0  0  0  0  0  0  0  0  0  0  0  0
    7.2171  -19.2927   16.2215 O   0  0  0  0  0  0  0  0  0  0  0  0
    9.6754  -16.8901   21.5448 N   0  0  0  0  0  0  0  0  0  0  0  0
    9.6219  -17.1313   22.9326 C   0  0  1  0  0  0  0  0  0  0  0  0
   10.6026  -18.1767   23.4688 C   0  0  0  0  0  0  0  0  0  0  0  0
   10.3244  -19.5518   22.9709 C   0  0  0  0  0  0  0  0  0  0  0  0
   11.3580  -20.4775   23.5032 C   0  0  0  0  0  0  0  0  0  0  0  0
   11.5234  -21.5840   22.9490 O   0  0  0  0  0  0  0  0  0  0  0  0
    9.6245  -15.9836   23.8249 C   0  0  0  0  0  0  0  0  0  0  0  0
   10.5384  -15.1187   23.6725 O   0  0  0  0  0  0  0  0  0  0  0  0
   12.1204  -20.1257   24.5865 O   0  0  0  0  0  0  0  0  0  0  0  0
    7.3505  -12.5807   27.6618 C   0  0  0  0  0  0  0  0  0  0  0  0
    7.4072  -12.4134   26.1624 C   0  0  2  0  0  0  0  0  0  0  0  0
    6.3094  -11.4816   25.7681 C   0  0  0  0  0  0  0  0  0  0  0  0
    7.5233  -13.6536   25.3807 C   0  0  0  0  0  0  0  0  0  0  0  0
    8.6994  -14.5388   25.6198 C   0  0  2  0  0  0  0  0  0  0  0  0
    8.6972  -15.7404   24.8536 N   0  0  0  0  0  0  0  0  0  0  0  0
    9.0058  -14.7564   27.0503 C   0  0  0  0  0  0  0  0  0  0  0  0
    8.7660  -15.9541   27.6794 O   0  0  0  0  0  0  0  0  0  0  0  0
    9.4986  -13.8242   27.7108 O   0  0  0  0  0  0  0  0  0  0  0  0
  2  1  1  6
  2  7  1  0
  3  2  1  0
  3  4  1  0
  4  5  1  0
  5  6  2  0
  5  9  1  0
  7  8  2  0
 10 11  1  0
 10  7  1  0
 11 16  1  0
 11 12  1  1
 13 12  1  0
 14 15  2  0
 14 13  1  0
 16 17  2  0
 18 14  1  0
 20 19  1  1
 20 22  1  0
 21 20  1  0
 23 22  1  1
 23 25  1  0
 24 23  1  0
 24 16  1  0
 25 27  2  0
 25 26  1  0
M  END
$$$$
