EEL.pdb
     RDKit          3D

 27 26  0  0  1  0  0  0  0  0999 V2000
    9.9348  -14.3700   18.0403 N   0  0  0  0  0  0  0  0  0  0  0  0
   10.5729  -15.1854   19.0269 C   0  0  1  0  0  0  0  0  0  0  0  0
   11.9308  -14.6707   19.4119 C   0  0  0  0  0  0  0  0  0  0  0  0
   12.9162  -14.9465   18.2724 C   0  0  0  0  0  0  0  0  0  0  0  0
   14.2503  -14.5404   18.7554 C   0  0  0  0  0  0  0  0  0  0  0  0
   14.7599  -13.4677   18.3454 O   0  0  0  0  0  0  0  0  0  0  0  0
    9.7191  -15.4331   20.2302 C   0  0  0  0  0  0  0  0  0  0  0  0
    8.8121  -14.6057   20.4582 O   0  0  0  0  0  0  0  0  0  0  0  0
   14.9141  -15.3503   19.6519 O   0  0  0  0  0  0  0  0  0  0  0  0
    9.9038  -16.5319   21.0794 N   0  0  0  0  0  0  0  0  0  0  0  0
    9.2171  -16.8982   22.2547 C   0  0  1  0  0  0  0  0  0  0  0  0
    9.4487  -18.3285   22.7474 C   0  0  0  0  0  0  0  0  0  0  0  0
    8.7048  -18.6462   23.9972 C   0  0  0  0  0  0  0  0  0  0  0  0
    8.9877  -20.0527   24.3845 C   0  0  0  0  0  0  0  0  0  0  0  0
    8.6411  -20.9739   23.6163 O   0  0  0  0  0  0  0  0  0  0  0  0
    9.2799  -15.9941   23.3913 C   0  0  0  0  0  0  0  0  0  0  0  0
   10.4149  -15.5348   23.7189 O   0  0  0  0  0  0  0  0  0  0  0  0
    9.6192  -20.3389   25.5667 O   0  0  0  0  0  0  0  0  0  0  0  0
    5.8358  -12.1279   26.8251 C   0  0  0  0  0  0  0  0  0  0  0  0
    7.1799  -12.6495   26.3770 C   0  0  2  0  0  0  0  0  0  0  0  0
    8.0648  -11.4721   26.1325 C   0  0  0  0  0  0  0  0  0  0  0  0
    7.1532  -13.6759   25.3243 C   0  0  0  0  0  0  0  0  0  0  0  0
    8.3104  -14.6096   25.2102 C   0  0  2  0  0  0  0  0  0  0  0  0
    8.1865  -15.5765   24.1706 N   0  0  0  0  0  0  0  0  0  0  0  0
    8.7439  -15.1885   26.5004 C   0  0  0  0  0  0  0  0  0  0  0  0
    9.6779  -14.5788   27.3027 O   0  0  0  0  0  0  0  0  0  0  0  0
    8.2470  -16.2655   26.8762 O   0  0  0  0  0  0  0  0  0  0  0  0
  2  1  1  6
  2  7  1  0
  3  2  1  0
  3  4  1  0
  4  5  1  0
  5  6  2  0
  5  9  1  0
  7  8  2  0
 10 11  1  0
 10  7  1  0
 11 16  1  0
 11 12  1  1
 13 12  1  0
 14 15  2  0
 14 13  1  0
 16 17  2  0
 18 14  1  0
 20 19  1  6
 20 22  1  0
 21 20  1  0
 23 22  1  1
 23 25  1  0
 24 23  1  0
 24 16  1  0
 25 27  2  0
 25 26  1  0
M  END
$$$$
