EEL.pdb
     RDKit          3D

 27 26  0  0  1  0  0  0  0  0999 V2000
    9.9792  -16.5921   19.6423 N   0  0  0  0  0  0  0  0  0  0  0  0
   10.7889  -16.8197   20.7990 C   0  0  1  0  0  0  0  0  0  0  0  0
   12.0501  -16.0032   20.7913 C   0  0  0  0  0  0  0  0  0  0  0  0
   11.9812  -14.9797   19.6542 C   0  0  0  0  0  0  0  0  0  0  0  0
   13.2072  -14.1628   19.7417 C   0  0  0  0  0  0  0  0  0  0  0  0
   13.3704  -13.2000   18.9513 O   0  0  0  0  0  0  0  0  0  0  0  0
   10.0403  -16.6603   22.0844 C   0  0  0  0  0  0  0  0  0  0  0  0
    8.9567  -16.0419   22.0331 O   0  0  0  0  0  0  0  0  0  0  0  0
   14.1538  -14.4738   20.6944 O   0  0  0  0  0  0  0  0  0  0  0  0
   10.5070  -17.1694   23.3033 N   0  0  0  0  0  0  0  0  0  0  0  0
    9.9119  -17.1576   24.5811 C   0  0  1  0  0  0  0  0  0  0  0  0
   10.2550  -18.3397   25.4905 C   0  0  0  0  0  0  0  0  0  0  0  0
    9.9477  -19.6607   24.8766 C   0  0  0  0  0  0  0  0  0  0  0  0
   10.3922  -20.7380   25.7987 C   0  0  0  0  0  0  0  0  0  0  0  0
    9.6272  -21.1054   26.7144 O   0  0  0  0  0  0  0  0  0  0  0  0
    9.9871  -15.9307   25.3573 C   0  0  0  0  0  0  0  0  0  0  0  0
   11.1239  -15.3872   25.4946 O   0  0  0  0  0  0  0  0  0  0  0  0
   11.6231  -21.3221   25.6497 O   0  0  0  0  0  0  0  0  0  0  0  0
    7.4649  -12.4231   24.9033 C   0  0  0  0  0  0  0  0  0  0  0  0
    6.9169  -13.1964   26.0786 C   0  0  2  0  0  0  0  0  0  0  0  0
    5.5968  -12.5994   26.4387 C   0  0  0  0  0  0  0  0  0  0  0  0
    7.8531  -13.4284   27.1887 C   0  0  0  0  0  0  0  0  0  0  0  0
    9.0790  -14.2371   26.9295 C   0  0  2  0  0  0  0  0  0  0  0  0
    8.9040  -15.2829   25.9774 N   0  0  0  0  0  0  0  0  0  0  0  0
    9.7810  -14.6728   28.1563 C   0  0  0  0  0  0  0  0  0  0  0  0
   10.0717  -15.9920   28.4075 O   0  0  0  0  0  0  0  0  0  0  0  0
   10.1223  -13.8173   28.9928 O   0  0  0  0  0  0  0  0  0  0  0  0
  2  1  1  6
  2  7  1  0
  3  2  1  0
  3  4  1  0
  4  5  1  0
  5  6  2  0
  5  9  1  0
  7  8  2  0
 10 11  1  0
 10  7  1  0
 11 16  1  0
 11 12  1  1
 13 12  1  0
 14 15  2  0
 14 13  1  0
 16 17  2  0
 18 14  1  0
 20 19  1  6
 20 22  1  0
 21 20  1  0
 23 22  1  1
 23 25  1  0
 24 23  1  0
 24 16  1  0
 25 27  2  0
 25 26  1  0
M  END
$$$$
