EEL.pdb
     RDKit          3D

 27 26  0  0  1  0  0  0  0  0999 V2000
    7.7367  -16.6893   19.2344 N   0  0  0  0  0  0  0  0  0  0  0  0
    8.6104  -17.0444   20.3095 C   0  0  1  0  0  0  0  0  0  0  0  0
    9.9796  -16.4433   20.1643 C   0  0  0  0  0  0  0  0  0  0  0  0
   10.5445  -16.8028   18.7869 C   0  0  0  0  0  0  0  0  0  0  0  0
   11.9183  -16.2661   18.7368 C   0  0  0  0  0  0  0  0  0  0  0  0
   12.3986  -15.6920   19.7459 O   0  0  0  0  0  0  0  0  0  0  0  0
    8.0293  -16.7650   21.6595 C   0  0  0  0  0  0  0  0  0  0  0  0
    7.2500  -15.7933   21.7480 O   0  0  0  0  0  0  0  0  0  0  0  0
   12.6514  -16.4064   17.5778 O   0  0  0  0  0  0  0  0  0  0  0  0
    8.3261  -17.5385   22.7892 N   0  0  0  0  0  0  0  0  0  0  0  0
    7.8775  -17.4142   24.1197 C   0  0  1  0  0  0  0  0  0  0  0  0
    7.7126  -18.7229   24.8958 C   0  0  0  0  0  0  0  0  0  0  0  0
    7.1326  -18.5307   26.2534 C   0  0  0  0  0  0  0  0  0  0  0  0
    7.1418  -19.8313   26.9721 C   0  0  0  0  0  0  0  0  0  0  0  0
    6.6291  -19.8991   28.1085 O   0  0  0  0  0  0  0  0  0  0  0  0
    8.5387  -16.4415   24.9743 C   0  0  0  0  0  0  0  0  0  0  0  0
    9.8061  -16.4329   24.9891 O   0  0  0  0  0  0  0  0  0  0  0  0
    7.7041  -20.9425   26.3997 O   0  0  0  0  0  0  0  0  0  0  0  0
    7.1488  -12.1242   25.1572 C   0  0  0  0  0  0  0  0  0  0  0  0
    6.6984  -12.8920   26.3767 C   0  0  2  0  0  0  0  0  0  0  0  0
    5.7030  -12.0481   27.1019 C   0  0  0  0  0  0  0  0  0  0  0  0
    7.7671  -13.4877   27.1926 C   0  0  0  0  0  0  0  0  0  0  0  0
    8.6140  -14.5555   26.5874 C   0  0  2  0  0  0  0  0  0  0  0  0
    7.8962  -15.4984   25.7959 N   0  0  0  0  0  0  0  0  0  0  0  0
    9.5561  -15.1851   27.5381 C   0  0  0  0  0  0  0  0  0  0  0  0
   10.4942  -14.4599   28.2323 O   0  0  0  0  0  0  0  0  0  0  0  0
    9.5000  -16.4149   27.7186 O   0  0  0  0  0  0  0  0  0  0  0  0
  2  1  1  6
  2  7  1  0
  3  2  1  0
  3  4  1  0
  4  5  1  0
  5  6  2  0
  5  9  1  0
  7  8  2  0
 10 11  1  0
 10  7  1  0
 11 16  1  0
 11 12  1  1
 13 12  1  0
 14 15  2  0
 14 13  1  0
 16 17  2  0
 18 14  1  0
 20 19  1  6
 20 22  1  0
 21 20  1  0
 23 22  1  1
 23 25  1  0
 24 23  1  0
 24 16  1  0
 25 27  2  0
 25 26  1  0
M  END
$$$$
