PRH.pdb
     RDKit          3D

 29 30  0  0  1  0  0  0  0  0999 V2000
    9.2777  -14.1616   19.5721 N   0  0  0  0  0  0  0  0  0  0  0  0
    8.8388  -13.5042   18.3739 C   0  0  0  0  0  0  0  0  0  0  0  0
    7.6176  -12.6670   18.7679 C   0  0  0  0  0  0  0  0  0  0  0  0
    7.1259  -13.4755   19.9762 C   0  0  0  0  0  0  0  0  0  0  0  0
    8.4625  -13.7249   20.6604 C   0  0  1  0  0  0  0  0  0  0  0  0
    8.3445  -14.6923   21.7527 C   0  0  0  0  0  0  0  0  0  0  0  0
    7.3800  -14.6066   22.5476 O   0  0  0  0  0  0  0  0  0  0  0  0
   12.1652  -18.8177   18.5944 N   0  0  0  0  0  0  0  0  0  0  0  0
   11.1623  -19.8245   18.5399 C   0  0  0  0  0  0  0  0  0  0  0  0
   10.8269  -20.3944   17.4299 N   0  0  0  0  0  0  0  0  0  0  0  0
   10.4978  -20.2261   19.7463 N   0  0  0  0  0  0  0  0  0  0  0  0
   10.8601  -19.6109   20.9973 C   0  0  0  0  0  0  0  0  0  0  0  0
    9.8653  -18.4959   21.2885 C   0  0  0  0  0  0  0  0  0  0  0  0
   10.0923  -17.8650   22.6175 C   0  0  0  0  0  0  0  0  0  0  0  0
    9.1566  -16.7500   22.9772 C   0  0  2  0  0  0  0  0  0  0  0  0
    9.2905  -15.7319   21.9454 N   0  0  0  0  0  0  0  0  0  0  0  0
    9.4944  -16.2074   24.3133 C   0  0  0  0  0  0  0  0  0  0  0  0
   10.5248  -15.5080   24.4461 O   0  0  0  0  0  0  0  0  0  0  0  0
   10.0336  -21.0779   17.4539 N   0  0  0  0  0  0  0  0  0  0  0  0
    8.7016  -16.4392   25.4760 C   0  0  1  0  0  0  0  0  0  0  0  0
    9.0770  -15.8119   26.7465 C   0  0  0  0  0  0  0  0  0  0  0  0
    7.8180  -15.3263   27.4318 C   0  0  0  0  0  0  0  0  0  0  0  0
    7.2096  -14.1793   26.7154 C   0  0  0  0  0  0  0  0  0  0  0  0
    7.8738  -13.1560   26.0454 N   0  0  0  0  0  0  0  0  0  0  0  0
    6.9487  -12.3263   25.5394 C   0  0  0  0  0  0  0  0  0  0  0  0
    5.7221  -12.7722   25.8553 N   0  0  0  0  0  0  0  0  0  0  0  0
    5.8998  -13.8919   26.5654 C   0  0  0  0  0  0  0  0  0  0  0  0
    9.8099  -16.7820   27.5880 O   0  0  0  0  0  0  0  0  0  0  0  0
    9.9871  -17.9878   27.2130 O   0  0  0  0  0  0  0  0  0  0  0  0
  1  2  1  0
  3  2  1  0
  4  5  1  0
  4  3  1  0
  5  6  1  1
  5  1  1  0
  6  7  2  0
  9 11  1  0
  9  8  1  0
 10  9  2  0
 12 13  1  0
 12 11  1  0
 13 14  1  0
 15 14  1  6
 16 15  1  0
 16  6  1  0
 17 15  1  0
 18 17  2  0
 19 17  1  0
 20 27  1  0
 20 19  1  0
 20 21  1  6
 22 21  1  0
 23 22  2  0
 24 23  1  0
 25 24  1  0
 25 26  2  0
 26 22  1  0
 27 29  1  0
 28 27  2  0
M  END
$$$$
