PRH.pdb
     RDKit          3D

 29 30  0  0  1  0  0  0  0  0999 V2000
    9.0455  -14.4477   19.0584 N   0  0  0  0  0  0  0  0  0  0  0  0
    8.8281  -13.8035   17.7942 C   0  0  0  0  0  0  0  0  0  0  0  0
    7.8940  -12.6211   18.0714 C   0  0  0  0  0  0  0  0  0  0  0  0
    7.1765  -13.1434   19.3236 C   0  0  0  0  0  0  0  0  0  0  0  0
    8.3771  -13.7005   20.0755 C   0  0  1  0  0  0  0  0  0  0  0  0
    7.9733  -14.4913   21.2393 C   0  0  0  0  0  0  0  0  0  0  0  0
    7.3255  -13.9422   22.1604 O   0  0  0  0  0  0  0  0  0  0  0  0
    7.6160  -23.2310   21.5190 N   0  0  0  0  0  0  0  0  0  0  0  0
    6.7553  -22.2301   20.9900 C   0  0  0  0  0  0  0  0  0  0  0  0
    5.8970  -22.4900   20.0598 N   0  0  0  0  0  0  0  0  0  0  0  0
    6.8343  -20.8903   21.4967 N   0  0  0  0  0  0  0  0  0  0  0  0
    7.7915  -20.5733   22.5253 C   0  0  0  0  0  0  0  0  0  0  0  0
    7.5256  -19.1535   23.0060 C   0  0  0  0  0  0  0  0  0  0  0  0
    8.0086  -18.1276   22.0416 C   0  0  0  0  0  0  0  0  0  0  0  0
    7.8177  -16.7003   22.4595 C   0  0  2  0  0  0  0  0  0  0  0  0
    8.2916  -15.8683   21.3630 N   0  0  0  0  0  0  0  0  0  0  0  0
    8.5700  -16.4254   23.7053 C   0  0  0  0  0  0  0  0  0  0  0  0
    9.8129  -16.2817   23.6497 O   0  0  0  0  0  0  0  0  0  0  0  0
    5.3375  -21.6917   19.6769 N   0  0  0  0  0  0  0  0  0  0  0  0
    7.9509  -16.3131   24.9854 C   0  0  2  0  0  0  0  0  0  0  0  0
    8.7546  -15.9237   26.1478 C   0  0  0  0  0  0  0  0  0  0  0  0
    7.8585  -15.1992   27.1289 C   0  0  0  0  0  0  0  0  0  0  0  0
    7.4912  -13.8471   26.6430 C   0  0  0  0  0  0  0  0  0  0  0  0
    7.9947  -13.1878   25.5254 N   0  0  0  0  0  0  0  0  0  0  0  0
    7.3951  -11.9899   25.4487 C   0  0  0  0  0  0  0  0  0  0  0  0
    6.5304  -11.8527   26.4668 N   0  0  0  0  0  0  0  0  0  0  0  0
    6.6023  -12.9839   27.1771 C   0  0  0  0  0  0  0  0  0  0  0  0
    9.3664  -17.1229   26.7594 O   0  0  0  0  0  0  0  0  0  0  0  0
    8.8730  -18.2853   26.5828 O   0  0  0  0  0  0  0  0  0  0  0  0
  1  2  1  0
  3  2  1  0
  4  5  1  0
  4  3  1  0
  5  6  1  1
  5  1  1  0
  6  7  2  0
  9 11  1  0
  9  8  1  0
 10  9  2  0
 12 13  1  0
 12 11  1  0
 13 14  1  0
 15 14  1  6
 16 15  1  0
 16  6  1  0
 17 15  1  0
 18 17  2  0
 19 17  1  0
 20 27  1  0
 20 19  1  0
 20 21  1  6
 22 21  1  0
 23 22  2  0
 24 23  1  0
 25 24  1  0
 25 26  2  0
 26 22  1  0
 27 29  1  0
 28 27  2  0
M  END
$$$$
