PRH.pdb
     RDKit          3D

 29 30  0  0  1  0  0  0  0  0999 V2000
    8.9246  -14.2150   18.9008 N   0  0  0  0  0  0  0  0  0  0  0  0
    8.4936  -13.4075   17.7950 C   0  0  0  0  0  0  0  0  0  0  0  0
    7.6220  -12.2969   18.3901 C   0  0  0  0  0  0  0  0  0  0  0  0
    7.1299  -13.0038   19.6603 C   0  0  0  0  0  0  0  0  0  0  0  0
    8.4414  -13.6312   20.1114 C   0  0  1  0  0  0  0  0  0  0  0  0
    8.2431  -14.5845   21.2044 C   0  0  0  0  0  0  0  0  0  0  0  0
    7.7291  -14.1909   22.2770 O   0  0  0  0  0  0  0  0  0  0  0  0
   12.0650  -21.9600   19.7045 N   0  0  0  0  0  0  0  0  0  0  0  0
   12.8087  -20.7617   19.8869 C   0  0  0  0  0  0  0  0  0  0  0  0
   14.0739  -20.6982   19.6327 N   0  0  0  0  0  0  0  0  0  0  0  0
   12.1446  -19.5839   20.3666 N   0  0  0  0  0  0  0  0  0  0  0  0
   10.7583  -19.6549   20.7511 C   0  0  0  0  0  0  0  0  0  0  0  0
   10.3271  -18.2808   21.2444 C   0  0  0  0  0  0  0  0  0  0  0  0
    8.8929  -18.2439   21.6410 C   0  0  0  0  0  0  0  0  0  0  0  0
    8.3915  -16.9252   22.1488 C   0  0  2  0  0  0  0  0  0  0  0  0
    8.6147  -15.9491   21.0922 N   0  0  0  0  0  0  0  0  0  0  0  0
    9.1077  -16.5469   23.3887 C   0  0  0  0  0  0  0  0  0  0  0  0
   10.1341  -15.8338   23.3082 O   0  0  0  0  0  0  0  0  0  0  0  0
   14.5535  -19.7781   19.7755 N   0  0  0  0  0  0  0  0  0  0  0  0
    8.6895  -16.9543   24.6900 C   0  0  1  0  0  0  0  0  0  0  0  0
    9.4397  -16.5050   25.8665 C   0  0  0  0  0  0  0  0  0  0  0  0
    8.4585  -15.9573   26.8803 C   0  0  0  0  0  0  0  0  0  0  0  0
    7.7656  -14.7469   26.3764 C   0  0  0  0  0  0  0  0  0  0  0  0
    8.3502  -13.5618   25.9395 N   0  0  0  0  0  0  0  0  0  0  0  0
    7.3658  -12.7284   25.5698 C   0  0  0  0  0  0  0  0  0  0  0  0
    6.1773  -13.3266   25.7503 N   0  0  0  0  0  0  0  0  0  0  0  0
    6.4388  -14.5446   26.2379 C   0  0  0  0  0  0  0  0  0  0  0  0
   10.2201  -17.6305   26.4240 O   0  0  0  0  0  0  0  0  0  0  0  0
   10.1657  -18.7966   25.9111 O   0  0  0  0  0  0  0  0  0  0  0  0
  1  2  1  0
  3  2  1  0
  4  5  1  0
  4  3  1  0
  5  6  1  1
  5  1  1  0
  6  7  2  0
  9 11  1  0
  9  8  1  0
 10  9  2  0
 12 13  1  0
 12 11  1  0
 13 14  1  0
 15 14  1  6
 16 15  1  0
 16  6  1  0
 17 15  1  0
 18 17  2  0
 19 17  1  0
 20 27  1  0
 20 19  1  0
 20 21  1  1
 22 21  1  0
 23 22  2  0
 24 23  1  0
 25 24  1  0
 25 26  2  0
 26 22  1  0
 27 29  1  0
 28 27  2  0
M  END
$$$$
