PRH.pdb
     RDKit          3D

 29 30  0  0  1  0  0  0  0  0999 V2000
    8.7390  -14.9699   19.0425 N   0  0  0  0  0  0  0  0  0  0  0  0
    8.6574  -14.2666   17.7938 C   0  0  0  0  0  0  0  0  0  0  0  0
    8.2917  -12.8197   18.1406 C   0  0  0  0  0  0  0  0  0  0  0  0
    7.5637  -13.0468   19.4726 C   0  0  0  0  0  0  0  0  0  0  0  0
    8.5250  -14.0420   20.1069 C   0  0  1  0  0  0  0  0  0  0  0  0
    7.9705  -14.6367   21.3242 C   0  0  0  0  0  0  0  0  0  0  0  0
    7.7378  -13.9051   22.3143 O   0  0  0  0  0  0  0  0  0  0  0  0
    8.0019  -22.1787   24.6112 N   0  0  0  0  0  0  0  0  0  0  0  0
    6.6354  -22.0155   24.9696 C   0  0  0  0  0  0  0  0  0  0  0  0
    6.1076  -22.6588   25.9581 N   0  0  0  0  0  0  0  0  0  0  0  0
    5.8106  -21.1134   24.2186 N   0  0  0  0  0  0  0  0  0  0  0  0
    6.3689  -20.4064   23.0946 C   0  0  0  0  0  0  0  0  0  0  0  0
    6.4949  -18.9360   23.4683 C   0  0  0  0  0  0  0  0  0  0  0  0
    7.0108  -18.1066   22.3451 C   0  0  0  0  0  0  0  0  0  0  0  0
    7.1380  -16.6390   22.6244 C   0  0  2  0  0  0  0  0  0  0  0  0
    7.6847  -16.0227   21.4242 N   0  0  0  0  0  0  0  0  0  0  0  0
    8.0202  -16.4136   23.7926 C   0  0  0  0  0  0  0  0  0  0  0  0
    9.2378  -16.6921   23.7017 O   0  0  0  0  0  0  0  0  0  0  0  0
    5.0715  -22.5820   26.0910 N   0  0  0  0  0  0  0  0  0  0  0  0
    7.5557  -15.8892   25.0350 C   0  0  2  0  0  0  0  0  0  0  0  0
    8.5072  -15.6594   26.1260 C   0  0  0  0  0  0  0  0  0  0  0  0
    7.8194  -14.8411   27.1975 C   0  0  0  0  0  0  0  0  0  0  0  0
    7.3616  -13.5296   26.6785 C   0  0  0  0  0  0  0  0  0  0  0  0
    7.9359  -12.7814   25.6550 N   0  0  0  0  0  0  0  0  0  0  0  0
    7.2099  -11.6630   25.5047 C   0  0  0  0  0  0  0  0  0  0  0  0
    6.1967  -11.6616   26.3859 N   0  0  0  0  0  0  0  0  0  0  0  0
    6.3047  -12.7964   27.0858 C   0  0  0  0  0  0  0  0  0  0  0  0
    8.9833  -16.9543   26.6581 O   0  0  0  0  0  0  0  0  0  0  0  0
    8.4500  -18.0565   26.3022 O   0  0  0  0  0  0  0  0  0  0  0  0
  1  2  1  0
  3  2  1  0
  4  5  1  0
  4  3  1  0
  5  6  1  1
  5  1  1  0
  6  7  2  0
  9 11  1  0
  9  8  1  0
 10  9  2  0
 12 13  1  0
 12 11  1  0
 13 14  1  0
 15 14  1  6
 16 15  1  0
 16  6  1  0
 17 15  1  0
 18 17  2  0
 19 17  1  0
 20 27  1  0
 20 19  1  0
 20 21  1  6
 22 21  1  0
 23 22  2  0
 24 23  1  0
 25 24  1  0
 25 26  2  0
 26 22  1  0
 27 29  1  0
 28 27  2  0
M  END
$$$$
