PRH.pdb
     RDKit          3D

 29 30  0  0  1  0  0  0  0  0999 V2000
    8.5026  -14.5469   19.0144 N   0  0  0  0  0  0  0  0  0  0  0  0
    8.2940  -13.8386   17.7834 C   0  0  0  0  0  0  0  0  0  0  0  0
    7.9751  -12.3911   18.1714 C   0  0  0  0  0  0  0  0  0  0  0  0
    7.3903  -12.6191   19.5719 C   0  0  0  0  0  0  0  0  0  0  0  0
    8.4073  -13.6219   20.0983 C   0  0  1  0  0  0  0  0  0  0  0  0
    7.9807  -14.2180   21.3654 C   0  0  0  0  0  0  0  0  0  0  0  0
    7.8602  -13.4893   22.3773 O   0  0  0  0  0  0  0  0  0  0  0  0
    7.8841  -22.5390   22.3034 N   0  0  0  0  0  0  0  0  0  0  0  0
    8.7478  -21.9155   21.3613 C   0  0  0  0  0  0  0  0  0  0  0  0
    9.8301  -22.4859   20.9458 N   0  0  0  0  0  0  0  0  0  0  0  0
    8.4172  -20.6159   20.8515 N   0  0  0  0  0  0  0  0  0  0  0  0
    7.3427  -19.8678   21.4518 C   0  0  0  0  0  0  0  0  0  0  0  0
    7.8440  -18.4605   21.7447 C   0  0  0  0  0  0  0  0  0  0  0  0
    6.8075  -17.6118   22.3937 C   0  0  0  0  0  0  0  0  0  0  0  0
    7.2275  -16.2113   22.7262 C   0  0  2  0  0  0  0  0  0  0  0  0
    7.6965  -15.6024   21.4901 N   0  0  0  0  0  0  0  0  0  0  0  0
    8.2927  -16.2257   23.7551 C   0  0  0  0  0  0  0  0  0  0  0  0
    9.3985  -15.6972   23.4973 O   0  0  0  0  0  0  0  0  0  0  0  0
   10.3971  -21.9851   20.2215 N   0  0  0  0  0  0  0  0  0  0  0  0
    8.1295  -16.8159   25.0432 C   0  0  1  0  0  0  0  0  0  0  0  0
    8.7931  -16.2167   26.2048 C   0  0  0  0  0  0  0  0  0  0  0  0
    7.7332  -15.6335   27.1143 C   0  0  0  0  0  0  0  0  0  0  0  0
    7.3240  -14.2755   26.6814 C   0  0  0  0  0  0  0  0  0  0  0  0
    7.8399  -13.5384   25.6194 N   0  0  0  0  0  0  0  0  0  0  0  0
    7.1899  -12.3653   25.5777 C   0  0  0  0  0  0  0  0  0  0  0  0
    6.2813  -12.3182   26.5652 N   0  0  0  0  0  0  0  0  0  0  0  0
    6.3769  -13.4802   27.2208 C   0  0  0  0  0  0  0  0  0  0  0  0
    9.6013  -17.2388   26.9038 O   0  0  0  0  0  0  0  0  0  0  0  0
    9.5587  -18.4672   26.5646 O   0  0  0  0  0  0  0  0  0  0  0  0
  1  2  1  0
  3  2  1  0
  4  5  1  0
  4  3  1  0
  5  6  1  1
  5  1  1  0
  6  7  2  0
  9 11  1  0
  9  8  1  0
 10  9  2  0
 12 13  1  0
 12 11  1  0
 13 14  1  0
 15 14  1  6
 16 15  1  0
 16  6  1  0
 17 15  1  0
 18 17  2  0
 19 17  1  0
 20 27  1  0
 20 19  1  0
 20 21  1  6
 22 21  1  0
 23 22  2  0
 24 23  1  0
 25 24  1  0
 25 26  2  0
 26 22  1  0
 27 29  1  0
 28 27  2  0
M  END
$$$$
