PRH.pdb
     RDKit          3D

 29 30  0  0  1  0  0  0  0  0999 V2000
    9.0358  -14.2512   19.2177 N   0  0  0  0  0  0  0  0  0  0  0  0
    8.7293  -13.4407   18.0732 C   0  0  0  0  0  0  0  0  0  0  0  0
    7.7645  -12.3560   18.5631 C   0  0  0  0  0  0  0  0  0  0  0  0
    7.1327  -13.0877   19.7551 C   0  0  0  0  0  0  0  0  0  0  0  0
    8.3909  -13.6918   20.3626 C   0  0  1  0  0  0  0  0  0  0  0  0
    8.0783  -14.6615   21.4136 C   0  0  0  0  0  0  0  0  0  0  0  0
    7.4181  -14.2931   22.4127 O   0  0  0  0  0  0  0  0  0  0  0  0
   11.0651  -20.7246   24.6140 N   0  0  0  0  0  0  0  0  0  0  0  0
   10.0584  -21.7236   24.5094 C   0  0  0  0  0  0  0  0  0  0  0  0
    9.9054  -22.6356   25.4118 N   0  0  0  0  0  0  0  0  0  0  0  0
    9.1824  -21.7278   23.3733 N   0  0  0  0  0  0  0  0  0  0  0  0
    9.3167  -20.7061   22.3669 C   0  0  0  0  0  0  0  0  0  0  0  0
    8.7703  -19.4024   22.9321 C   0  0  0  0  0  0  0  0  0  0  0  0
    8.8803  -18.2746   21.9668 C   0  0  0  0  0  0  0  0  0  0  0  0
    8.2682  -16.9786   22.4073 C   0  0  2  0  0  0  0  0  0  0  0  0
    8.4992  -16.0144   21.3415 N   0  0  0  0  0  0  0  0  0  0  0  0
    8.8790  -16.5288   23.6794 C   0  0  0  0  0  0  0  0  0  0  0  0
   10.0863  -16.1958   23.6934 O   0  0  0  0  0  0  0  0  0  0  0  0
    9.1842  -23.3751   25.2390 N   0  0  0  0  0  0  0  0  0  0  0  0
    8.1605  -16.4517   24.9090 C   0  0  2  0  0  0  0  0  0  0  0  0
    8.8327  -15.9509   26.1115 C   0  0  0  0  0  0  0  0  0  0  0  0
    7.7902  -15.3447   27.0260 C   0  0  0  0  0  0  0  0  0  0  0  0
    7.2840  -14.0529   26.5024 C   0  0  0  0  0  0  0  0  0  0  0  0
    5.9699  -13.7342   26.1727 N   0  0  0  0  0  0  0  0  0  0  0  0
    5.9502  -12.4647   25.7387 C   0  0  0  0  0  0  0  0  0  0  0  0
    7.1924  -11.9564   25.7758 N   0  0  0  0  0  0  0  0  0  0  0  0
    7.9840  -12.9299   26.2395 C   0  0  0  0  0  0  0  0  0  0  0  0
    9.5587  -17.0539   26.7768 O   0  0  0  0  0  0  0  0  0  0  0  0
    9.5122  -18.2468   26.3290 O   0  0  0  0  0  0  0  0  0  0  0  0
  1  2  1  0
  3  2  1  0
  4  5  1  0
  4  3  1  0
  5  6  1  1
  5  1  1  0
  6  7  2  0
  9 11  1  0
  9  8  1  0
 10  9  2  0
 12 13  1  0
 12 11  1  0
 13 14  1  0
 15 14  1  6
 16 15  1  0
 16  6  1  0
 17 15  1  0
 18 17  2  0
 19 17  1  0
 20 27  1  0
 20 19  1  0
 20 21  1  1
 22 21  1  0
 23 22  2  0
 24 23  1  0
 25 24  1  0
 25 26  2  0
 26 22  1  0
 27 29  1  0
 28 27  2  0
M  END
$$$$
