PRH.pdb
     RDKit          3D

 29 30  0  0  1  0  0  0  0  0999 V2000
    8.7961  -13.5890   19.5130 N   0  0  0  0  0  0  0  0  0  0  0  0
    8.1886  -13.0488   18.3300 C   0  0  0  0  0  0  0  0  0  0  0  0
    6.6882  -12.9531   18.6250 C   0  0  0  0  0  0  0  0  0  0  0  0
    6.5574  -14.0646   19.6752 C   0  0  0  0  0  0  0  0  0  0  0  0
    7.7894  -13.7521   20.5128 C   0  0  1  0  0  0  0  0  0  0  0  0
    8.0703  -14.8088   21.4860 C   0  0  0  0  0  0  0  0  0  0  0  0
    7.1686  -15.1711   22.2768 O   0  0  0  0  0  0  0  0  0  0  0  0
   15.9359  -16.4941   22.1150 N   0  0  0  0  0  0  0  0  0  0  0  0
   15.4763  -15.6671   21.0533 C   0  0  0  0  0  0  0  0  0  0  0  0
   16.2453  -14.8008   20.4810 N   0  0  0  0  0  0  0  0  0  0  0  0
   14.1217  -15.7904   20.5971 N   0  0  0  0  0  0  0  0  0  0  0  0
   13.2617  -16.7874   21.1812 C   0  0  0  0  0  0  0  0  0  0  0  0
   11.9123  -16.1451   21.4717 C   0  0  0  0  0  0  0  0  0  0  0  0
   10.9580  -17.0926   22.1099 C   0  0  0  0  0  0  0  0  0  0  0  0
    9.6334  -16.5133   22.5077 C   0  0  2  0  0  0  0  0  0  0  0  0
    9.3369  -15.4427   21.5671 N   0  0  0  0  0  0  0  0  0  0  0  0
    9.6923  -16.0052   23.8977 C   0  0  0  0  0  0  0  0  0  0  0  0
   10.2886  -14.9286   24.1301 O   0  0  0  0  0  0  0  0  0  0  0  0
   15.8192  -14.1744   19.7578 N   0  0  0  0  0  0  0  0  0  0  0  0
    9.0997  -16.6818   25.0046 C   0  0  1  0  0  0  0  0  0  0  0  0
    9.3282  -16.1853   26.3647 C   0  0  0  0  0  0  0  0  0  0  0  0
    8.0109  -15.6906   26.9219 C   0  0  0  0  0  0  0  0  0  0  0  0
    7.7907  -14.2554   26.6202 C   0  0  0  0  0  0  0  0  0  0  0  0
    6.6126  -13.5319   26.7801 N   0  0  0  0  0  0  0  0  0  0  0  0
    6.8477  -12.2700   26.3894 C   0  0  0  0  0  0  0  0  0  0  0  0
    8.1233  -12.1531   25.9866 N   0  0  0  0  0  0  0  0  0  0  0  0
    8.6768  -13.3620   26.1332 C   0  0  0  0  0  0  0  0  0  0  0  0
    9.8987  -17.2618   27.2028 O   0  0  0  0  0  0  0  0  0  0  0  0
   10.1010  -18.4314   26.7369 O   0  0  0  0  0  0  0  0  0  0  0  0
  1  2  1  0
  3  2  1  0
  4  5  1  0
  4  3  1  0
  5  6  1  1
  5  1  1  0
  6  7  2  0
  9 11  1  0
  9  8  1  0
 10  9  2  0
 12 13  1  0
 12 11  1  0
 13 14  1  0
 15 14  1  6
 16 15  1  0
 16  6  1  0
 17 15  1  0
 18 17  2  0
 19 17  1  0
 20 27  1  0
 20 19  1  0
 20 21  1  1
 22 21  1  0
 23 22  2  0
 24 23  1  0
 25 24  1  0
 25 26  2  0
 26 22  1  0
 27 29  1  0
 28 27  2  0
M  END
$$$$
