PRH.pdb
     RDKit          3D

 29 30  0  0  1  0  0  0  0  0999 V2000
    9.1739  -14.3881   19.3469 N   0  0  0  0  0  0  0  0  0  0  0  0
    8.6885  -13.7562   18.1529 C   0  0  0  0  0  0  0  0  0  0  0  0
    7.6672  -12.7088   18.6080 C   0  0  0  0  0  0  0  0  0  0  0  0
    7.2189  -13.3400   19.9332 C   0  0  0  0  0  0  0  0  0  0  0  0
    8.5796  -13.7503   20.4782 C   0  0  1  0  0  0  0  0  0  0  0  0
    8.4591  -14.6060   21.6597 C   0  0  0  0  0  0  0  0  0  0  0  0
    7.7486  -14.2298   22.6207 O   0  0  0  0  0  0  0  0  0  0  0  0
    9.1697  -19.4452   18.4757 N   0  0  0  0  0  0  0  0  0  0  0  0
   10.5777  -19.3862   18.6662 C   0  0  0  0  0  0  0  0  0  0  0  0
   11.3852  -19.0918   17.7013 N   0  0  0  0  0  0  0  0  0  0  0  0
   11.1276  -19.6596   19.9627 N   0  0  0  0  0  0  0  0  0  0  0  0
   10.2447  -19.9360   21.0667 C   0  0  0  0  0  0  0  0  0  0  0  0
    9.3824  -18.7052   21.3101 C   0  0  0  0  0  0  0  0  0  0  0  0
    9.7413  -18.0006   22.5713 C   0  0  0  0  0  0  0  0  0  0  0  0
    8.9447  -16.7678   22.8777 C   0  0  2  0  0  0  0  0  0  0  0  0
    9.1230  -15.8560   21.7571 N   0  0  0  0  0  0  0  0  0  0  0  0
    9.4098  -16.1581   24.1447 C   0  0  0  0  0  0  0  0  0  0  0  0
   10.5276  -15.5941   24.1773 O   0  0  0  0  0  0  0  0  0  0  0  0
   12.4128  -19.1835   17.8816 N   0  0  0  0  0  0  0  0  0  0  0  0
    8.6463  -16.1764   25.3492 C   0  0  1  0  0  0  0  0  0  0  0  0
    9.2078  -15.5962   26.5726 C   0  0  0  0  0  0  0  0  0  0  0  0
    8.0662  -15.1271   27.4485 C   0  0  0  0  0  0  0  0  0  0  0  0
    7.2582  -14.0769   26.7826 C   0  0  0  0  0  0  0  0  0  0  0  0
    7.6276  -13.2935   25.6932 N   0  0  0  0  0  0  0  0  0  0  0  0
    6.6050  -12.4721   25.4105 C   0  0  0  0  0  0  0  0  0  0  0  0
    5.5976  -12.6943   26.2700 N   0  0  0  0  0  0  0  0  0  0  0  0
    6.0103  -13.6666   27.0908 C   0  0  0  0  0  0  0  0  0  0  0  0
   10.0434  -16.5998   27.2664 O   0  0  0  0  0  0  0  0  0  0  0  0
   10.1533  -17.7920   26.8278 O   0  0  0  0  0  0  0  0  0  0  0  0
  1  2  1  0
  3  2  1  0
  4  5  1  0
  4  3  1  0
  5  6  1  1
  5  1  1  0
  6  7  2  0
  9 11  1  0
  9  8  1  0
 10  9  2  0
 12 13  1  0
 12 11  1  0
 13 14  1  0
 15 14  1  6
 16 15  1  0
 16  6  1  0
 17 15  1  0
 18 17  2  0
 19 17  1  0
 20 27  1  0
 20 19  1  0
 20 21  1  1
 22 21  1  0
 23 22  2  0
 24 23  1  0
 25 24  1  0
 25 26  2  0
 26 22  1  0
 27 29  1  0
 28 27  2  0
M  END
$$$$
