PRH.pdb
     RDKit          3D

 29 30  0  0  1  0  0  0  0  0999 V2000
    9.0130  -14.4882   19.1134 N   0  0  0  0  0  0  0  0  0  0  0  0
    8.6042  -13.8139   17.9138 C   0  0  0  0  0  0  0  0  0  0  0  0
    7.7314  -12.6367   18.3608 C   0  0  0  0  0  0  0  0  0  0  0  0
    7.2155  -13.1872   19.6974 C   0  0  0  0  0  0  0  0  0  0  0  0
    8.5157  -13.7640   20.2394 C   0  0  1  0  0  0  0  0  0  0  0  0
    8.2945  -14.5814   21.4334 C   0  0  0  0  0  0  0  0  0  0  0  0
    7.6848  -14.0887   22.4108 O   0  0  0  0  0  0  0  0  0  0  0  0
    6.3612  -21.1196   20.7542 N   0  0  0  0  0  0  0  0  0  0  0  0
    7.0588  -21.0707   19.5160 C   0  0  0  0  0  0  0  0  0  0  0  0
    6.5124  -21.4528   18.4092 N   0  0  0  0  0  0  0  0  0  0  0  0
    8.4083  -20.5849   19.4837 N   0  0  0  0  0  0  0  0  0  0  0  0
    9.0165  -20.0916   20.6927 C   0  0  0  0  0  0  0  0  0  0  0  0
    8.3463  -18.7760   21.0636 C   0  0  0  0  0  0  0  0  0  0  0  0
    8.9332  -18.1648   22.2874 C   0  0  0  0  0  0  0  0  0  0  0  0
    8.4253  -16.7990   22.6408 C   0  0  2  0  0  0  0  0  0  0  0  0
    8.7491  -15.9222   21.5248 N   0  0  0  0  0  0  0  0  0  0  0  0
    9.0552  -16.3259   23.8950 C   0  0  0  0  0  0  0  0  0  0  0  0
   10.2568  -15.9732   23.8802 O   0  0  0  0  0  0  0  0  0  0  0  0
    7.1040  -21.4415   17.5450 N   0  0  0  0  0  0  0  0  0  0  0  0
    8.3613  -16.2476   25.1386 C   0  0  1  0  0  0  0  0  0  0  0  0
    9.0497  -15.7217   26.3211 C   0  0  0  0  0  0  0  0  0  0  0  0
    8.0223  -15.0776   27.2269 C   0  0  0  0  0  0  0  0  0  0  0  0
    7.3932  -13.8949   26.5909 C   0  0  0  0  0  0  0  0  0  0  0  0
    7.7361  -13.3095   25.3756 N   0  0  0  0  0  0  0  0  0  0  0  0
    6.9177  -12.2652   25.1758 C   0  0  0  0  0  0  0  0  0  0  0  0
    6.0664  -12.1557   26.2084 N   0  0  0  0  0  0  0  0  0  0  0  0
    6.3687  -13.1482   27.0527 C   0  0  0  0  0  0  0  0  0  0  0  0
    9.7682  -16.8145   27.0111 O   0  0  0  0  0  0  0  0  0  0  0  0
    9.6625  -18.0261   26.6283 O   0  0  0  0  0  0  0  0  0  0  0  0
  1  2  1  0
  3  2  1  0
  4  5  1  0
  4  3  1  0
  5  6  1  1
  5  1  1  0
  6  7  2  0
  9 11  1  0
  9  8  1  0
 10  9  2  0
 12 13  1  0
 12 11  1  0
 13 14  1  0
 15 14  1  6
 16 15  1  0
 16  6  1  0
 17 15  1  0
 18 17  2  0
 19 17  1  0
 20 27  1  0
 20 19  1  0
 20 21  1  6
 22 21  1  0
 23 22  2  0
 24 23  1  0
 25 24  1  0
 25 26  2  0
 26 22  1  0
 27 29  1  0
 28 27  2  0
M  END
$$$$
