PRH.pdb
     RDKit          3D

 29 30  0  0  1  0  0  0  0  0999 V2000
    6.7432  -17.5331   21.3867 N   0  0  0  0  0  0  0  0  0  0  0  0
    5.5097  -17.6976   20.6712 C   0  0  0  0  0  0  0  0  0  0  0  0
    5.7911  -18.7160   19.5617 C   0  0  0  0  0  0  0  0  0  0  0  0
    7.2980  -18.4907   19.3768 C   0  0  0  0  0  0  0  0  0  0  0  0
    7.7141  -18.4263   20.8396 C   0  0  1  0  0  0  0  0  0  0  0  0
    9.0998  -17.9803   20.9939 C   0  0  0  0  0  0  0  0  0  0  0  0
   10.0324  -18.7918   20.7906 O   0  0  0  0  0  0  0  0  0  0  0  0
    9.7600  -14.7887   16.8197 N   0  0  0  0  0  0  0  0  0  0  0  0
    8.8115  -13.7785   17.1395 C   0  0  0  0  0  0  0  0  0  0  0  0
    7.7910  -13.5368   16.3846 N   0  0  0  0  0  0  0  0  0  0  0  0
    8.9834  -12.9996   18.3319 N   0  0  0  0  0  0  0  0  0  0  0  0
   10.1098  -13.2548   19.1927 C   0  0  0  0  0  0  0  0  0  0  0  0
    9.9269  -14.6267   19.8269 C   0  0  0  0  0  0  0  0  0  0  0  0
   10.9757  -14.9289   20.8391 C   0  0  0  0  0  0  0  0  0  0  0  0
   10.7924  -16.2045   21.6055 C   0  0  2  0  0  0  0  0  0  0  0  0
    9.4276  -16.6517   21.3682 N   0  0  0  0  0  0  0  0  0  0  0  0
   11.0389  -15.9764   23.0480 C   0  0  0  0  0  0  0  0  0  0  0  0
   12.1543  -15.5418   23.4161 O   0  0  0  0  0  0  0  0  0  0  0  0
    7.1176  -12.7985   16.6983 N   0  0  0  0  0  0  0  0  0  0  0  0
   10.0639  -16.2270   24.0583 C   0  0  1  0  0  0  0  0  0  0  0  0
   10.4119  -16.0250   25.4679 C   0  0  0  0  0  0  0  0  0  0  0  0
    9.4015  -15.0792   26.0803 C   0  0  0  0  0  0  0  0  0  0  0  0
    9.6488  -14.8727   27.5278 C   0  0  0  0  0  0  0  0  0  0  0  0
   10.7913  -14.3428   28.1203 N   0  0  0  0  0  0  0  0  0  0  0  0
   10.5998  -14.3322   29.4482 C   0  0  0  0  0  0  0  0  0  0  0  0
    9.3862  -14.8315   29.7326 N   0  0  0  0  0  0  0  0  0  0  0  0
    8.8268  -15.1523   28.5606 C   0  0  0  0  0  0  0  0  0  0  0  0
   10.4300  -17.3253   26.1717 O   0  0  0  0  0  0  0  0  0  0  0  0
    9.6583  -18.2798   25.8263 O   0  0  0  0  0  0  0  0  0  0  0  0
  1  2  1  0
  3  2  1  0
  4  5  1  0
  4  3  1  0
  5  6  1  6
  5  1  1  0
  6  7  2  0
  9 11  1  0
  9  8  1  0
 10  9  2  0
 12 13  1  0
 12 11  1  0
 13 14  1  0
 15 14  1  6
 16 15  1  0
 16  6  1  0
 17 15  1  0
 18 17  2  0
 19 17  1  0
 20 27  1  0
 20 19  1  0
 20 21  1  1
 22 21  1  0
 23 22  2  0
 24 23  1  0
 25 24  1  0
 25 26  2  0
 26 22  1  0
 27 29  1  0
 28 27  2  0
M  END
$$$$
