PRH.pdb
     RDKit          3D

 29 30  0  0  1  0  0  0  0  0999 V2000
    7.8643  -14.6966   17.7109 N   0  0  0  0  0  0  0  0  0  0  0  0
    7.2154  -13.5784   17.0874 C   0  0  0  0  0  0  0  0  0  0  0  0
    7.6594  -12.3365   17.8672 C   0  0  0  0  0  0  0  0  0  0  0  0
    7.9641  -12.9780   19.2278 C   0  0  0  0  0  0  0  0  0  0  0  0
    8.7159  -14.2124   18.7502 C   0  0  1  0  0  0  0  0  0  0  0  0
    8.9452  -15.1662   19.8367 C   0  0  0  0  0  0  0  0  0  0  0  0
    7.9682  -15.7596   20.3496 O   0  0  0  0  0  0  0  0  0  0  0  0
   14.5433  -15.5634   18.0528 N   0  0  0  0  0  0  0  0  0  0  0  0
   15.3601  -15.0308   19.0878 C   0  0  0  0  0  0  0  0  0  0  0  0
   16.2072  -14.0802   18.8679 N   0  0  0  0  0  0  0  0  0  0  0  0
   15.2484  -15.5569   20.4178 N   0  0  0  0  0  0  0  0  0  0  0  0
   14.2747  -16.5804   20.6991 C   0  0  0  0  0  0  0  0  0  0  0  0
   12.9320  -15.9081   20.9500 C   0  0  0  0  0  0  0  0  0  0  0  0
   11.8659  -16.8840   21.3062 C   0  0  0  0  0  0  0  0  0  0  0  0
   10.4905  -16.3121   21.4773 C   0  0  2  0  0  0  0  0  0  0  0  0
   10.2442  -15.4454   20.3340 N   0  0  0  0  0  0  0  0  0  0  0  0
   10.4025  -15.5594   22.7498 C   0  0  0  0  0  0  0  0  0  0  0  0
   10.8582  -14.3941   22.8033 O   0  0  0  0  0  0  0  0  0  0  0  0
   16.6634  -13.6330   19.6979 N   0  0  0  0  0  0  0  0  0  0  0  0
    9.8194  -16.0934   23.9369 C   0  0  1  0  0  0  0  0  0  0  0  0
    9.4829  -15.1964   25.0463 C   0  0  0  0  0  0  0  0  0  0  0  0
    8.0415  -14.7619   24.8910 C   0  0  0  0  0  0  0  0  0  0  0  0
    7.6393  -13.8033   25.9485 C   0  0  0  0  0  0  0  0  0  0  0  0
    8.4538  -13.2318   26.9218 N   0  0  0  0  0  0  0  0  0  0  0  0
    7.6915  -12.4243   27.6749 C   0  0  0  0  0  0  0  0  0  0  0  0
    6.4257  -12.4531   27.2276 N   0  0  0  0  0  0  0  0  0  0  0  0
    6.4137  -13.2911   26.1850 C   0  0  0  0  0  0  0  0  0  0  0  0
    9.7025  -15.8876   26.3349 O   0  0  0  0  0  0  0  0  0  0  0  0
    9.8090  -17.1566   26.3997 O   0  0  0  0  0  0  0  0  0  0  0  0
  1  2  1  0
  3  2  1  0
  4  5  1  0
  4  3  1  0
  5  6  1  1
  5  1  1  0
  6  7  2  0
  9 11  1  0
  9  8  1  0
 10  9  2  0
 12 13  1  0
 12 11  1  0
 13 14  1  0
 15 14  1  6
 16 15  1  0
 16  6  1  0
 17 15  1  0
 18 17  2  0
 19 17  1  0
 20 27  1  0
 20 19  1  0
 20 21  1  1
 22 21  1  0
 23 22  2  0
 24 23  1  0
 25 24  1  0
 25 26  2  0
 26 22  1  0
 27 29  1  0
 28 27  2  0
M  END
$$$$
