DHD.pdb
     RDKit          3D

 27 27  0  0  1  0  0  0  0  0999 V2000
   14.6911  -10.1560  -13.5504 N   0  0  0  0  0  0  0  0  0  0  0  0
   16.0991  -10.2133  -13.2596 C   0  0  1  0  0  0  0  0  0  0  0  0
   16.8972  -10.8386  -14.3683 C   0  0  0  0  0  0  0  0  0  0  0  0
   16.5788  -12.2871  -14.4604 C   0  0  0  0  0  0  0  0  0  0  0  0
   15.9035  -12.8346  -13.5532 O   0  0  0  0  0  0  0  0  0  0  0  0
   16.5828   -8.9120  -12.8221 C   0  0  0  0  0  0  0  0  0  0  0  0
   16.1497   -7.8832  -13.4034 O   0  0  0  0  0  0  0  0  0  0  0  0
   16.9963  -13.0804  -15.5152 O   0  0  0  0  0  0  0  0  0  0  0  0
   17.5162   -8.6842  -11.7806 N   0  0  0  0  0  0  0  0  0  0  0  0
   17.9578   -7.3872  -11.3404 C   0  0  1  0  0  0  0  0  0  0  0  0
   17.9304   -7.2586   -9.8317 C   0  0  0  0  0  0  0  0  0  0  0  0
   16.4977   -7.0686   -9.4147 C   0  0  0  0  0  0  0  0  0  0  0  0
   15.3779   -7.0549  -10.2097 C   0  0  0  0  0  0  0  0  0  0  0  0
   14.3018   -6.8594   -9.4598 N   0  0  0  0  0  0  0  0  0  0  0  0
   14.7360   -6.7505   -8.2027 C   0  0  0  0  0  0  0  0  0  0  0  0
   16.0600   -6.8736   -8.1500 N   0  0  0  0  0  0  0  0  0  0  0  0
   19.3485   -7.1168  -11.7719 C   0  0  0  0  0  0  0  0  0  0  0  0
   20.1801   -8.0614  -11.6872 O   0  0  0  0  0  0  0  0  0  0  0  0
   19.7836   -5.8780  -12.2676 N   0  0  0  0  0  0  0  0  0  0  0  0
   21.0045   -5.8343  -13.0577 C   0  0  1  0  0  0  0  0  0  0  0  0
   20.8634   -6.7442  -14.2736 C   0  0  0  0  0  0  0  0  0  0  0  0
   22.1126   -6.6529  -15.0557 C   0  0  0  0  0  0  0  0  0  0  0  0
   23.1111   -6.0867  -14.5508 O   0  0  0  0  0  0  0  0  0  0  0  0
   21.2736   -4.4389  -13.4204 C   0  0  0  0  0  0  0  0  0  0  0  0
   20.3895   -3.6795  -13.8857 O   0  0  0  0  0  0  0  0  0  0  0  0
   22.2049   -7.1730  -16.3204 O   0  0  0  0  0  0  0  0  0  0  0  0
   22.5309   -3.9020  -13.2584 O   0  0  0  0  0  0  0  0  0  0  0  0
  2  1  1  6
  2  3  1  0
  3  4  1  0
  4  5  2  0
  6  2  1  0
  7  6  2  0
  8  4  1  0
  9  6  1  0
 10  9  1  0
 11 12  1  0
 10 11  1  1
 12 13  2  0
 13 14  1  0
 15 14  1  0
 16 12  1  0
 16 15  2  0
 17 10  1  0
 17 18  2  0
 19 17  1  0
 20 21  1  6
 20 19  1  0
 22 21  1  0
 22 26  1  0
 23 22  2  0
 24 20  1  0
 25 24  2  0
 27 24  1  0
M  END
$$$$
