DHD.pdb
     RDKit          3D

 27 27  0  0  1  0  0  0  0  0999 V2000
   15.3149  -11.9714   -9.9745 N   0  0  0  0  0  0  0  0  0  0  0  0
   15.1053  -10.6719  -10.5556 C   0  0  1  0  0  0  0  0  0  0  0  0
   13.8336  -10.0234  -10.0872 C   0  0  0  0  0  0  0  0  0  0  0  0
   12.6802  -10.9149  -10.3753 C   0  0  0  0  0  0  0  0  0  0  0  0
   12.6770  -11.6095  -11.4224 O   0  0  0  0  0  0  0  0  0  0  0  0
   16.2969   -9.8491  -10.4081 C   0  0  0  0  0  0  0  0  0  0  0  0
   16.7760   -9.6859   -9.2559 O   0  0  0  0  0  0  0  0  0  0  0  0
   11.5871  -11.0217   -9.5328 O   0  0  0  0  0  0  0  0  0  0  0  0
   16.9873   -9.1977  -11.4603 N   0  0  0  0  0  0  0  0  0  0  0  0
   18.0509   -8.2451  -11.2808 C   0  0  1  0  0  0  0  0  0  0  0  0
   18.9789   -8.1966  -12.4767 C   0  0  0  0  0  0  0  0  0  0  0  0
   20.0572   -7.1912  -12.1785 C   0  0  0  0  0  0  0  0  0  0  0  0
   20.9176   -7.1628  -11.1085 C   0  0  0  0  0  0  0  0  0  0  0  0
   21.7206   -6.1123  -11.2104 N   0  0  0  0  0  0  0  0  0  0  0  0
   21.3719   -5.4820  -12.3337 C   0  0  0  0  0  0  0  0  0  0  0  0
   20.3686   -6.1152  -12.9364 N   0  0  0  0  0  0  0  0  0  0  0  0
   17.5207   -6.8756  -11.0896 C   0  0  0  0  0  0  0  0  0  0  0  0
   16.5214   -6.5349  -11.7797 O   0  0  0  0  0  0  0  0  0  0  0  0
   18.0649   -5.9483  -10.1876 N   0  0  0  0  0  0  0  0  0  0  0  0
   17.4405   -4.6392  -10.0735 C   0  0  1  0  0  0  0  0  0  0  0  0
   17.4858   -4.1722   -8.6223 C   0  0  0  0  0  0  0  0  0  0  0  0
   16.8774   -2.8282   -8.5592 C   0  0  0  0  0  0  0  0  0  0  0  0
   16.4034   -2.3210   -9.6035 O   0  0  0  0  0  0  0  0  0  0  0  0
   18.1223   -3.7177  -10.9884 C   0  0  0  0  0  0  0  0  0  0  0  0
   19.2451   -3.9705  -11.4888 O   0  0  0  0  0  0  0  0  0  0  0  0
   16.8193   -2.1232   -7.3853 O   0  0  0  0  0  0  0  0  0  0  0  0
   17.5420   -2.5194  -11.3385 O   0  0  0  0  0  0  0  0  0  0  0  0
  2  1  1  1
  2  3  1  0
  3  4  1  0
  4  5  2  0
  6  2  1  0
  7  6  2  0
  8  4  1  0
  9  6  1  0
 10  9  1  0
 11 12  1  0
 10 11  1  6
 12 13  2  0
 13 14  1  0
 15 14  1  0
 16 12  1  0
 16 15  2  0
 17 10  1  0
 17 18  2  0
 19 17  1  0
 20 21  1  1
 20 19  1  0
 22 21  1  0
 22 26  1  0
 23 22  2  0
 24 20  1  0
 25 24  2  0
 27 24  1  0
M  END
$$$$
