DHD.pdb
     RDKit          3D

 27 27  0  0  1  0  0  0  0  0999 V2000
   22.7461  -14.2387  -16.8900 N   0  0  0  0  0  0  0  0  0  0  0  0
   22.0055  -13.0491  -17.2169 C   0  0  1  0  0  0  0  0  0  0  0  0
   20.5342  -13.1870  -16.9463 C   0  0  0  0  0  0  0  0  0  0  0  0
   19.9909  -14.3438  -17.7043 C   0  0  0  0  0  0  0  0  0  0  0  0
   20.4596  -14.6211  -18.8367 O   0  0  0  0  0  0  0  0  0  0  0  0
   22.6272  -11.8795  -16.6135 C   0  0  0  0  0  0  0  0  0  0  0  0
   22.9114  -11.9146  -15.3880 O   0  0  0  0  0  0  0  0  0  0  0  0
   18.9746  -15.1479  -17.2176 O   0  0  0  0  0  0  0  0  0  0  0  0
   22.9518  -10.6757  -17.2868 N   0  0  0  0  0  0  0  0  0  0  0  0
   23.5702   -9.5304  -16.6729 C   0  0  1  0  0  0  0  0  0  0  0  0
   24.9620   -9.2771  -17.2137 C   0  0  0  0  0  0  0  0  0  0  0  0
   25.8693  -10.3402  -16.6576 C   0  0  0  0  0  0  0  0  0  0  0  0
   26.6697  -10.2741  -15.5435 C   0  0  0  0  0  0  0  0  0  0  0  0
   27.3158  -11.4221  -15.3907 N   0  0  0  0  0  0  0  0  0  0  0  0
   26.9283  -12.2070  -16.3979 C   0  0  0  0  0  0  0  0  0  0  0  0
   26.0541  -11.5751  -17.1772 N   0  0  0  0  0  0  0  0  0  0  0  0
   22.7826   -8.2995  -16.9136 C   0  0  0  0  0  0  0  0  0  0  0  0
   22.1770   -8.2001  -18.0156 O   0  0  0  0  0  0  0  0  0  0  0  0
   22.6740   -7.2504  -15.9877 N   0  0  0  0  0  0  0  0  0  0  0  0
   21.8911   -6.0793  -16.3511 C   0  0  1  0  0  0  0  0  0  0  0  0
   21.5240   -5.2957  -15.0952 C   0  0  0  0  0  0  0  0  0  0  0  0
   20.7483   -4.1100  -15.5109 C   0  0  0  0  0  0  0  0  0  0  0  0
   21.2994   -2.9835  -15.5012 O   0  0  0  0  0  0  0  0  0  0  0  0
   22.6629   -5.2840  -17.3117 C   0  0  0  0  0  0  0  0  0  0  0  0
   23.9171   -5.2420  -17.3003 O   0  0  0  0  0  0  0  0  0  0  0  0
   19.4403   -4.2131  -15.9070 O   0  0  0  0  0  0  0  0  0  0  0  0
   22.0256   -4.5417  -18.2802 O   0  0  0  0  0  0  0  0  0  0  0  0
  2  1  1  1
  2  3  1  0
  3  4  1  0
  4  5  2  0
  6  2  1  0
  7  6  2  0
  8  4  1  0
  9  6  1  0
 10  9  1  0
 11 12  1  0
 10 11  1  6
 12 13  2  0
 13 14  1  0
 15 14  1  0
 16 12  1  0
 16 15  2  0
 17 10  1  0
 17 18  2  0
 19 17  1  0
 20 21  1  1
 20 19  1  0
 22 21  1  0
 22 26  1  0
 23 22  2  0
 24 20  1  0
 25 24  2  0
 27 24  1  0
M  END
$$$$
