DHD.pdb
     RDKit          3D

 27 27  0  0  1  0  0  0  0  0999 V2000
   21.7115  -11.1992  -18.6332 N   0  0  0  0  0  0  0  0  0  0  0  0
   21.5051  -11.6798  -17.2928 C   0  0  1  0  0  0  0  0  0  0  0  0
   21.9439  -13.1052  -17.1118 C   0  0  0  0  0  0  0  0  0  0  0  0
   21.1420  -13.9928  -17.9934 C   0  0  0  0  0  0  0  0  0  0  0  0
   21.0357  -13.7238  -19.2162 O   0  0  0  0  0  0  0  0  0  0  0  0
   22.0610  -10.7455  -16.3249 C   0  0  0  0  0  0  0  0  0  0  0  0
   21.8948  -10.9793  -15.0995 O   0  0  0  0  0  0  0  0  0  0  0  0
   20.4930  -15.1233  -17.5276 O   0  0  0  0  0  0  0  0  0  0  0  0
   22.7888   -9.5697  -16.6345 N   0  0  0  0  0  0  0  0  0  0  0  0
   23.3641   -8.6781  -15.6624 C   0  0  1  0  0  0  0  0  0  0  0  0
   24.8672   -8.5678  -15.8110 C   0  0  0  0  0  0  0  0  0  0  0  0
   25.1620   -8.2429  -17.2498 C   0  0  0  0  0  0  0  0  0  0  0  0
   24.2691   -8.0357  -18.2724 C   0  0  0  0  0  0  0  0  0  0  0  0
   24.9283   -7.7736  -19.3929 N   0  0  0  0  0  0  0  0  0  0  0  0
   26.2255   -7.8146  -19.0826 C   0  0  0  0  0  0  0  0  0  0  0  0
   26.3920   -8.0965  -17.7927 N   0  0  0  0  0  0  0  0  0  0  0  0
   22.8151   -7.3091  -15.7959 C   0  0  0  0  0  0  0  0  0  0  0  0
   22.3423   -6.9765  -16.9169 O   0  0  0  0  0  0  0  0  0  0  0  0
   22.7914   -6.3737  -14.7498 N   0  0  0  0  0  0  0  0  0  0  0  0
   21.7906   -5.3182  -14.7823 C   0  0  1  0  0  0  0  0  0  0  0  0
   20.3947   -5.9327  -14.7872 C   0  0  0  0  0  0  0  0  0  0  0  0
   19.4153   -4.8345  -14.6632 C   0  0  0  0  0  0  0  0  0  0  0  0
   19.5567   -3.8058  -15.3663 O   0  0  0  0  0  0  0  0  0  0  0  0
   22.0159   -4.4288  -13.6382 C   0  0  0  0  0  0  0  0  0  0  0  0
   21.4951   -3.2900  -13.5552 O   0  0  0  0  0  0  0  0  0  0  0  0
   18.3560   -4.9145  -13.7972 O   0  0  0  0  0  0  0  0  0  0  0  0
   22.8220   -4.8205  -12.5932 O   0  0  0  0  0  0  0  0  0  0  0  0
  2  1  1  6
  2  3  1  0
  3  4  1  0
  4  5  2  0
  6  2  1  0
  7  6  2  0
  8  4  1  0
  9  6  1  0
 10  9  1  0
 11 12  1  0
 10 11  1  6
 12 13  2  0
 13 14  1  0
 15 14  1  0
 16 12  1  0
 16 15  2  0
 17 10  1  0
 17 18  2  0
 19 17  1  0
 20 21  1  1
 20 19  1  0
 22 21  1  0
 22 26  1  0
 23 22  2  0
 24 20  1  0
 25 24  2  0
 27 24  1  0
M  END
$$$$
