DHD.pdb
     RDKit          3D

 27 27  0  0  1  0  0  0  0  0999 V2000
   15.1158  -13.9858  -19.0478 N   0  0  0  0  0  0  0  0  0  0  0  0
   15.8400  -12.7640  -19.2784 C   0  0  1  0  0  0  0  0  0  0  0  0
   14.9988  -11.7034  -19.9301 C   0  0  0  0  0  0  0  0  0  0  0  0
   14.6817  -12.1018  -21.3260 C   0  0  0  0  0  0  0  0  0  0  0  0
   13.4868  -12.3002  -21.6602 O   0  0  0  0  0  0  0  0  0  0  0  0
   16.5215  -12.3384  -18.0647 C   0  0  0  0  0  0  0  0  0  0  0  0
   15.8319  -12.1073  -17.0376 O   0  0  0  0  0  0  0  0  0  0  0  0
   15.6543  -12.2691  -22.2967 O   0  0  0  0  0  0  0  0  0  0  0  0
   17.9193  -12.1542  -17.9226 N   0  0  0  0  0  0  0  0  0  0  0  0
   18.5720  -11.7034  -16.7219 C   0  0  1  0  0  0  0  0  0  0  0  0
   19.8893  -12.4136  -16.4895 C   0  0  0  0  0  0  0  0  0  0  0  0
   19.5805  -13.8266  -16.0762 C   0  0  0  0  0  0  0  0  0  0  0  0
   18.3507  -14.3939  -15.8487 C   0  0  0  0  0  0  0  0  0  0  0  0
   18.5040  -15.6644  -15.5007 N   0  0  0  0  0  0  0  0  0  0  0  0
   19.8176  -15.8989  -15.5078 C   0  0  0  0  0  0  0  0  0  0  0  0
   20.4892  -14.8029  -15.8526 N   0  0  0  0  0  0  0  0  0  0  0  0
   18.8676  -10.2534  -16.7815 C   0  0  0  0  0  0  0  0  0  0  0  0
   19.3203   -9.7940  -17.8655 O   0  0  0  0  0  0  0  0  0  0  0  0
   18.6693   -9.3730  -15.7067 N   0  0  0  0  0  0  0  0  0  0  0  0
   18.9498   -7.9591  -15.9041 C   0  0  1  0  0  0  0  0  0  0  0  0
   17.6402   -7.1847  -16.0109 C   0  0  0  0  0  0  0  0  0  0  0  0
   17.9706   -5.7526  -16.1534 C   0  0  0  0  0  0  0  0  0  0  0  0
   17.8354   -4.9918  -15.1658 O   0  0  0  0  0  0  0  0  0  0  0  0
   19.7961   -7.4947  -14.8000 C   0  0  0  0  0  0  0  0  0  0  0  0
   20.0727   -8.2165  -13.8113 O   0  0  0  0  0  0  0  0  0  0  0  0
   18.4214   -5.2367  -17.3405 O   0  0  0  0  0  0  0  0  0  0  0  0
   20.3287   -6.2253  -14.8104 O   0  0  0  0  0  0  0  0  0  0  0  0
  2  1  1  1
  2  3  1  0
  3  4  1  0
  4  5  2  0
  6  2  1  0
  7  6  2  0
  8  4  1  0
  9  6  1  0
 10  9  1  0
 11 12  1  0
 10 11  1  6
 12 13  2  0
 13 14  1  0
 15 14  1  0
 16 12  1  0
 16 15  2  0
 17 10  1  0
 17 18  2  0
 19 17  1  0
 20 21  1  1
 20 19  1  0
 22 21  1  0
 22 26  1  0
 23 22  2  0
 24 20  1  0
 25 24  2  0
 27 24  1  0
M  END
$$$$
