DHD.pdb
     RDKit          3D

 27 27  0  0  1  0  0  0  0  0999 V2000
   43.5570  -10.3460   -5.7777 N   0  0  0  0  0  0  0  0  0  0  0  0
   42.3988   -9.5878   -5.3848 C   0  0  1  0  0  0  0  0  0  0  0  0
   42.6947   -8.5963   -4.2955 C   0  0  0  0  0  0  0  0  0  0  0  0
   43.0198   -9.3159   -3.0368 C   0  0  0  0  0  0  0  0  0  0  0  0
   42.2166  -10.1687   -2.5824 O   0  0  0  0  0  0  0  0  0  0  0  0
   41.7360   -9.0270   -6.5531 C   0  0  0  0  0  0  0  0  0  0  0  0
   42.4367   -8.4383   -7.4170 O   0  0  0  0  0  0  0  0  0  0  0  0
   44.1853   -9.0908   -2.3247 O   0  0  0  0  0  0  0  0  0  0  0  0
   40.3454   -9.0802   -6.8198 N   0  0  0  0  0  0  0  0  0  0  0  0
   39.7003   -8.4675   -7.9510 C   0  0  1  0  0  0  0  0  0  0  0  0
   38.6499   -9.3697   -8.5643 C   0  0  0  0  0  0  0  0  0  0  0  0
   39.3204  -10.1955   -9.6278 C   0  0  0  0  0  0  0  0  0  0  0  0
   40.6569  -10.2551   -9.9381 C   0  0  0  0  0  0  0  0  0  0  0  0
   40.8440  -11.1035  -10.9401 N   0  0  0  0  0  0  0  0  0  0  0  0
   39.6381  -11.5762  -11.2608 C   0  0  0  0  0  0  0  0  0  0  0  0
   38.7009  -11.0420  -10.4814 N   0  0  0  0  0  0  0  0  0  0  0  0
   39.0188   -7.2101   -7.5664 C   0  0  0  0  0  0  0  0  0  0  0  0
   38.7239   -7.0544   -6.3500 O   0  0  0  0  0  0  0  0  0  0  0  0
   38.6905   -6.1925   -8.4754 N   0  0  0  0  0  0  0  0  0  0  0  0
   38.2077   -4.9228   -7.9543 C   0  0  1  0  0  0  0  0  0  0  0  0
   39.2375   -4.3353   -6.9950 C   0  0  0  0  0  0  0  0  0  0  0  0
   38.7341   -3.0251   -6.5359 C   0  0  0  0  0  0  0  0  0  0  0  0
   37.5363   -2.9201   -6.1798 O   0  0  0  0  0  0  0  0  0  0  0  0
   37.9151   -4.0370   -9.0860 C   0  0  0  0  0  0  0  0  0  0  0  0
   38.2367   -4.3198  -10.2657 O   0  0  0  0  0  0  0  0  0  0  0  0
   39.5464   -1.9221   -6.4905 O   0  0  0  0  0  0  0  0  0  0  0  0
   37.2631   -2.8405   -8.8901 O   0  0  0  0  0  0  0  0  0  0  0  0
  2  1  1  6
  2  3  1  0
  3  4  1  0
  4  5  2  0
  6  2  1  0
  7  6  2  0
  8  4  1  0
  9  6  1  0
 10  9  1  0
 11 12  1  0
 10 11  1  1
 12 13  2  0
 13 14  1  0
 15 14  1  0
 16 12  1  0
 16 15  2  0
 17 10  1  0
 17 18  2  0
 19 17  1  0
 20 21  1  1
 20 19  1  0
 22 21  1  0
 22 26  1  0
 23 22  2  0
 24 20  1  0
 25 24  2  0
 27 24  1  0
M  END
$$$$
