DHD.pdb
     RDKit          3D

 27 27  0  0  1  0  0  0  0  0999 V2000
   16.1891   -9.9812    8.2751 N   0  0  0  0  0  0  0  0  0  0  0  0
   17.4607  -10.5879    8.5673 C   0  0  1  0  0  0  0  0  0  0  0  0
   17.8540  -10.4486   10.0105 C   0  0  0  0  0  0  0  0  0  0  0  0
   18.1319   -9.0219   10.3194 C   0  0  0  0  0  0  0  0  0  0  0  0
   18.5632   -8.2624    9.4161 O   0  0  0  0  0  0  0  0  0  0  0  0
   17.5061  -11.9492    8.0539 C   0  0  0  0  0  0  0  0  0  0  0  0
   16.4399  -12.6171    8.0262 O   0  0  0  0  0  0  0  0  0  0  0  0
   17.9363   -8.4755   11.5761 O   0  0  0  0  0  0  0  0  0  0  0  0
   18.6613  -12.6124    7.5704 N   0  0  0  0  0  0  0  0  0  0  0  0
   18.6873  -13.9625    7.0729 C   0  0  1  0  0  0  0  0  0  0  0  0
   19.1682  -14.0311    5.6385 C   0  0  0  0  0  0  0  0  0  0  0  0
   17.9926  -13.7375    4.7474 C   0  0  0  0  0  0  0  0  0  0  0  0
   16.6782  -13.5661    5.1066 C   0  0  0  0  0  0  0  0  0  0  0  0
   15.9492  -13.3231    4.0258 N   0  0  0  0  0  0  0  0  0  0  0  0
   16.7937  -13.3405    2.9927 C   0  0  0  0  0  0  0  0  0  0  0  0
   18.0347  -13.5890    3.4038 N   0  0  0  0  0  0  0  0  0  0  0  0
   19.5959  -14.8143    7.8744 C   0  0  0  0  0  0  0  0  0  0  0  0
   20.4504  -14.2355    8.5995 O   0  0  0  0  0  0  0  0  0  0  0  0
   19.5537  -16.2171    7.8712 N   0  0  0  0  0  0  0  0  0  0  0  0
   20.4771  -16.9433    8.7295 C   0  0  1  0  0  0  0  0  0  0  0  0
   20.1626  -16.6457   10.1919 C   0  0  0  0  0  0  0  0  0  0  0  0
   21.0760  -17.4527   11.0255 C   0  0  0  0  0  0  0  0  0  0  0  0
   20.7208  -18.5989   11.3897 O   0  0  0  0  0  0  0  0  0  0  0  0
   20.3853  -18.3713    8.4078 C   0  0  0  0  0  0  0  0  0  0  0  0
   19.4923  -18.8391    7.6605 O   0  0  0  0  0  0  0  0  0  0  0  0
   22.3026  -16.9771   11.4099 O   0  0  0  0  0  0  0  0  0  0  0  0
   21.2951  -19.2664    8.9237 O   0  0  0  0  0  0  0  0  0  0  0  0
  2  1  1  1
  2  3  1  0
  3  4  1  0
  4  5  2  0
  6  2  1  0
  7  6  2  0
  8  4  1  0
  9  6  1  0
 10  9  1  0
 11 12  1  0
 10 11  1  6
 12 13  2  0
 13 14  1  0
 15 14  1  0
 16 12  1  0
 16 15  2  0
 17 10  1  0
 17 18  2  0
 19 17  1  0
 20 21  1  1
 20 19  1  0
 22 21  1  0
 22 26  1  0
 23 22  2  0
 24 20  1  0
 25 24  2  0
 27 24  1  0
M  END
$$$$
