DHD.pdb
     RDKit          3D

 27 27  0  0  1  0  0  0  0  0999 V2000
   18.7508  -10.8412  -13.9746 N   0  0  0  0  0  0  0  0  0  0  0  0
   17.6746   -9.9728  -14.3723 C   0  0  1  0  0  0  0  0  0  0  0  0
   16.3223  -10.6013  -14.1895 C   0  0  0  0  0  0  0  0  0  0  0  0
   16.2102  -11.8093  -15.0475 C   0  0  0  0  0  0  0  0  0  0  0  0
   17.1874  -12.5926  -15.1497 O   0  0  0  0  0  0  0  0  0  0  0  0
   17.8234   -8.6619  -13.7575 C   0  0  0  0  0  0  0  0  0  0  0  0
   17.0359   -7.7430  -14.1029 O   0  0  0  0  0  0  0  0  0  0  0  0
   15.0619  -12.1225  -15.7541 O   0  0  0  0  0  0  0  0  0  0  0  0
   18.7917   -8.3100  -12.7847 N   0  0  0  0  0  0  0  0  0  0  0  0
   18.8609   -7.0382  -12.1149 C   0  0  1  0  0  0  0  0  0  0  0  0
   18.7992   -7.1843  -10.6087 C   0  0  0  0  0  0  0  0  0  0  0  0
   17.3550   -7.3554  -10.2245 C   0  0  0  0  0  0  0  0  0  0  0  0
   16.2481   -7.2850  -11.0342 C   0  0  0  0  0  0  0  0  0  0  0  0
   15.1548   -7.4927  -10.3130 N   0  0  0  0  0  0  0  0  0  0  0  0
   15.5656   -7.6926   -9.0592 C   0  0  0  0  0  0  0  0  0  0  0  0
   16.8917   -7.6145   -8.9806 N   0  0  0  0  0  0  0  0  0  0  0  0
   20.1243   -6.3321  -12.4291 C   0  0  0  0  0  0  0  0  0  0  0  0
   21.1971   -6.9902  -12.3457 O   0  0  0  0  0  0  0  0  0  0  0  0
   20.1885   -4.9839  -12.8136 N   0  0  0  0  0  0  0  0  0  0  0  0
   21.3525   -4.5267  -13.5569 C   0  0  1  0  0  0  0  0  0  0  0  0
   21.5364   -5.3851  -14.8041 C   0  0  0  0  0  0  0  0  0  0  0  0
   22.7161   -4.8784  -15.5335 C   0  0  0  0  0  0  0  0  0  0  0  0
   23.7231   -4.5059  -14.8857 O   0  0  0  0  0  0  0  0  0  0  0  0
   21.1765   -3.1041  -13.8672 C   0  0  0  0  0  0  0  0  0  0  0  0
   20.0465   -2.5620  -13.9328 O   0  0  0  0  0  0  0  0  0  0  0  0
   22.7348   -4.8061  -16.9021 O   0  0  0  0  0  0  0  0  0  0  0  0
   22.2669   -2.2969  -14.1008 O   0  0  0  0  0  0  0  0  0  0  0  0
  2  1  1  1
  2  3  1  0
  3  4  1  0
  4  5  2  0
  6  2  1  0
  7  6  2  0
  8  4  1  0
  9  6  1  0
 10  9  1  0
 11 12  1  0
 10 11  1  1
 12 13  2  0
 13 14  1  0
 15 14  1  0
 16 12  1  0
 16 15  2  0
 17 10  1  0
 17 18  2  0
 19 17  1  0
 20 21  1  6
 20 19  1  0
 22 21  1  0
 22 26  1  0
 23 22  2  0
 24 20  1  0
 25 24  2  0
 27 24  1  0
M  END
$$$$
