DHD.pdb
     RDKit          3D

 27 27  0  0  1  0  0  0  0  0999 V2000
   22.7362  -12.1651  -17.4353 N   0  0  0  0  0  0  0  0  0  0  0  0
   21.9098  -10.9899  -17.3536 C   0  0  1  0  0  0  0  0  0  0  0  0
   20.5072  -11.2947  -16.9100 C   0  0  0  0  0  0  0  0  0  0  0  0
   19.8339  -12.1463  -17.9246 C   0  0  0  0  0  0  0  0  0  0  0  0
   19.1054  -13.0999  -17.5519 O   0  0  0  0  0  0  0  0  0  0  0  0
   22.5775   -9.9495  -16.5853 C   0  0  0  0  0  0  0  0  0  0  0  0
   22.7043  -10.1071  -15.3431 O   0  0  0  0  0  0  0  0  0  0  0  0
   19.9706  -11.9392  -19.2864 O   0  0  0  0  0  0  0  0  0  0  0  0
   23.1119   -8.7472  -17.1114 N   0  0  0  0  0  0  0  0  0  0  0  0
   23.7893   -7.7401  -16.3383 C   0  0  1  0  0  0  0  0  0  0  0  0
   25.2504   -7.6186  -16.7178 C   0  0  0  0  0  0  0  0  0  0  0  0
   25.9532   -8.8574  -16.2339 C   0  0  0  0  0  0  0  0  0  0  0  0
   26.3664   -9.9403  -16.9704 C   0  0  0  0  0  0  0  0  0  0  0  0
   26.9471  -10.8262  -16.1725 N   0  0  0  0  0  0  0  0  0  0  0  0
   26.9020  -10.3091  -14.9431 C   0  0  0  0  0  0  0  0  0  0  0  0
   26.3058   -9.1194  -14.9548 N   0  0  0  0  0  0  0  0  0  0  0  0
   23.1785   -6.4058  -16.5388 C   0  0  0  0  0  0  0  0  0  0  0  0
   22.8949   -6.0652  -17.7196 O   0  0  0  0  0  0  0  0  0  0  0  0
   22.8993   -5.5118  -15.4936 N   0  0  0  0  0  0  0  0  0  0  0  0
   22.2583   -4.2455  -15.8133 C   0  0  1  0  0  0  0  0  0  0  0  0
   21.3720   -3.8096  -14.6511 C   0  0  0  0  0  0  0  0  0  0  0  0
   20.1548   -4.6455  -14.6707 C   0  0  0  0  0  0  0  0  0  0  0  0
   20.0066   -5.5318  -13.7960 O   0  0  0  0  0  0  0  0  0  0  0  0
   23.3006   -3.2643  -16.1321 C   0  0  0  0  0  0  0  0  0  0  0  0
   23.0490   -2.1690  -16.6907 O   0  0  0  0  0  0  0  0  0  0  0  0
   19.1841   -4.4742  -15.6230 O   0  0  0  0  0  0  0  0  0  0  0  0
   24.6183   -3.5149  -15.8222 O   0  0  0  0  0  0  0  0  0  0  0  0
  2  1  1  1
  2  3  1  0
  3  4  1  0
  4  5  2  0
  6  2  1  0
  7  6  2  0
  8  4  1  0
  9  6  1  0
 10  9  1  0
 11 12  1  0
 10 11  1  6
 12 13  2  0
 13 14  1  0
 15 14  1  0
 16 12  1  0
 16 15  2  0
 17 10  1  0
 17 18  2  0
 19 17  1  0
 20 21  1  1
 20 19  1  0
 22 21  1  0
 22 26  1  0
 23 22  2  0
 24 20  1  0
 25 24  2  0
 27 24  1  0
M  END
$$$$
