DHD.pdb
     RDKit          3D

 27 27  0  0  1  0  0  0  0  0999 V2000
   26.2192  -12.7531  -20.2552 N   0  0  0  0  0  0  0  0  0  0  0  0
   25.9802  -11.3612  -19.9799 C   0  0  1  0  0  0  0  0  0  0  0  0
   25.2907  -10.6543  -21.1122 C   0  0  0  0  0  0  0  0  0  0  0  0
   26.1414  -10.7078  -22.3293 C   0  0  0  0  0  0  0  0  0  0  0  0
   25.6093  -10.8921  -23.4527 O   0  0  0  0  0  0  0  0  0  0  0  0
   25.3388  -11.2007  -18.6831 C   0  0  0  0  0  0  0  0  0  0  0  0
   24.1369  -11.5525  -18.5592 O   0  0  0  0  0  0  0  0  0  0  0  0
   27.5174  -10.5623  -22.2887 O   0  0  0  0  0  0  0  0  0  0  0  0
   25.9499  -10.6744  -17.5180 N   0  0  0  0  0  0  0  0  0  0  0  0
   25.2892  -10.4932  -16.2525 C   0  0  1  0  0  0  0  0  0  0  0  0
   26.2601  -10.5441  -15.0913 C   0  0  0  0  0  0  0  0  0  0  0  0
   26.7123  -11.9702  -14.9353 C   0  0  0  0  0  0  0  0  0  0  0  0
   26.3639  -13.0584  -15.6972 C   0  0  0  0  0  0  0  0  0  0  0  0
   26.9768  -14.1399  -15.2354 N   0  0  0  0  0  0  0  0  0  0  0  0
   27.7058  -13.7404  -14.1916 C   0  0  0  0  0  0  0  0  0  0  0  0
   27.5623  -12.4327  -13.9905 N   0  0  0  0  0  0  0  0  0  0  0  0
   24.6041   -9.1819  -16.1856 C   0  0  0  0  0  0  0  0  0  0  0  0
   25.0754   -8.2409  -16.8808 O   0  0  0  0  0  0  0  0  0  0  0  0
   23.4678   -8.9357  -15.3996 N   0  0  0  0  0  0  0  0  0  0  0  0
   22.7518   -7.6827  -15.5840 C   0  0  1  0  0  0  0  0  0  0  0  0
   22.3553   -7.5274  -17.0486 C   0  0  0  0  0  0  0  0  0  0  0  0
   21.5384   -6.3033  -17.1699 C   0  0  0  0  0  0  0  0  0  0  0  0
   22.1058   -5.1850  -17.1604 O   0  0  0  0  0  0  0  0  0  0  0  0
   21.5982   -7.6689  -14.6785 C   0  0  0  0  0  0  0  0  0  0  0  0
   21.2187   -8.6883  -14.0527 O   0  0  0  0  0  0  0  0  0  0  0  0
   20.1745   -6.3622  -17.2925 O   0  0  0  0  0  0  0  0  0  0  0  0
   20.8774   -6.5133  -14.4783 O   0  0  0  0  0  0  0  0  0  0  0  0
  2  1  1  6
  2  3  1  0
  3  4  1  0
  4  5  2  0
  6  2  1  0
  7  6  2  0
  8  4  1  0
  9  6  1  0
 10  9  1  0
 11 12  1  0
 10 11  1  1
 12 13  2  0
 13 14  1  0
 15 14  1  0
 16 12  1  0
 16 15  2  0
 17 10  1  0
 17 18  2  0
 19 17  1  0
 20 21  1  6
 20 19  1  0
 22 21  1  0
 22 26  1  0
 23 22  2  0
 24 20  1  0
 25 24  2  0
 27 24  1  0
M  END
$$$$
