DHD.pdb
     RDKit          3D

 27 27  0  0  1  0  0  0  0  0999 V2000
   21.7278  -11.9940  -17.8376 N   0  0  0  0  0  0  0  0  0  0  0  0
   21.7407  -11.4739  -16.4960 C   0  0  1  0  0  0  0  0  0  0  0  0
   23.1310  -11.2674  -15.9655 C   0  0  0  0  0  0  0  0  0  0  0  0
   23.8036  -12.5814  -15.7957 C   0  0  0  0  0  0  0  0  0  0  0  0
   23.1508  -13.6413  -15.9672 O   0  0  0  0  0  0  0  0  0  0  0  0
   20.8716  -10.3110  -16.3916 C   0  0  0  0  0  0  0  0  0  0  0  0
   21.1901   -9.2646  -17.0140 O   0  0  0  0  0  0  0  0  0  0  0  0
   25.1391  -12.7006  -15.4514 O   0  0  0  0  0  0  0  0  0  0  0  0
   19.6727  -10.2396  -15.6395 N   0  0  0  0  0  0  0  0  0  0  0  0
   18.8429   -9.0697  -15.5229 C   0  0  1  0  0  0  0  0  0  0  0  0
   17.5506   -9.3598  -14.7884 C   0  0  0  0  0  0  0  0  0  0  0  0
   16.6905   -8.1286  -14.8722 C   0  0  0  0  0  0  0  0  0  0  0  0
   16.7519   -7.1126  -15.7941 C   0  0  0  0  0  0  0  0  0  0  0  0
   15.8201   -6.2086  -15.5232 N   0  0  0  0  0  0  0  0  0  0  0  0
   15.1754   -6.6481  -14.4406 C   0  0  0  0  0  0  0  0  0  0  0  0
   15.6835   -7.8070  -14.0287 N   0  0  0  0  0  0  0  0  0  0  0  0
   19.5323   -7.9928  -14.7757 C   0  0  0  0  0  0  0  0  0  0  0  0
   20.2569   -8.3308  -13.8002 O   0  0  0  0  0  0  0  0  0  0  0  0
   19.4244   -6.6305  -15.0953 N   0  0  0  0  0  0  0  0  0  0  0  0
   20.1890   -5.6697  -14.3150 C   0  0  1  0  0  0  0  0  0  0  0  0
   21.6680   -5.7783  -14.6712 C   0  0  0  0  0  0  0  0  0  0  0  0
   22.3840   -4.6934  -13.9705 C   0  0  0  0  0  0  0  0  0  0  0  0
   22.0861   -4.4316  -12.7809 O   0  0  0  0  0  0  0  0  0  0  0  0
   19.6421   -4.3312  -14.5607 C   0  0  0  0  0  0  0  0  0  0  0  0
   18.7581   -4.1109  -15.4237 O   0  0  0  0  0  0  0  0  0  0  0  0
   23.3663   -3.9665  -14.5912 O   0  0  0  0  0  0  0  0  0  0  0  0
   20.0877   -3.2478  -13.8375 O   0  0  0  0  0  0  0  0  0  0  0  0
  2  1  1  6
  2  3  1  0
  3  4  1  0
  4  5  2  0
  6  2  1  0
  7  6  2  0
  8  4  1  0
  9  6  1  0
 10  9  1  0
 11 12  1  0
 10 11  1  1
 12 13  2  0
 13 14  1  0
 15 14  1  0
 16 12  1  0
 16 15  2  0
 17 10  1  0
 17 18  2  0
 19 17  1  0
 20 21  1  6
 20 19  1  0
 22 21  1  0
 22 26  1  0
 23 22  2  0
 24 20  1  0
 25 24  2  0
 27 24  1  0
M  END
$$$$
