DHD.pdb
     RDKit          3D

 27 27  0  0  1  0  0  0  0  0999 V2000
   21.6328  -11.1260  -21.2094 N   0  0  0  0  0  0  0  0  0  0  0  0
   22.3629  -10.1786  -20.4095 C   0  0  1  0  0  0  0  0  0  0  0  0
   22.9318   -9.0489  -21.2202 C   0  0  0  0  0  0  0  0  0  0  0  0
   24.1188   -9.5232  -21.9778 C   0  0  0  0  0  0  0  0  0  0  0  0
   24.6074   -8.8025  -22.8838 O   0  0  0  0  0  0  0  0  0  0  0  0
   21.5707   -9.7634  -19.2611 C   0  0  0  0  0  0  0  0  0  0  0  0
   20.4525   -9.2234  -19.4656 O   0  0  0  0  0  0  0  0  0  0  0  0
   24.7264  -10.7425  -21.7320 O   0  0  0  0  0  0  0  0  0  0  0  0
   21.9440   -9.9113  -17.9021 N   0  0  0  0  0  0  0  0  0  0  0  0
   21.1907   -9.4111  -16.7826 C   0  0  1  0  0  0  0  0  0  0  0  0
   21.1731  -10.3888  -15.6263 C   0  0  0  0  0  0  0  0  0  0  0  0
   20.0310  -11.3418  -15.8504 C   0  0  0  0  0  0  0  0  0  0  0  0
   19.0917  -11.3190  -16.8519 C   0  0  0  0  0  0  0  0  0  0  0  0
   18.2519  -12.3338  -16.6981 N   0  0  0  0  0  0  0  0  0  0  0  0
   18.6557  -12.9924  -15.6099 C   0  0  0  0  0  0  0  0  0  0  0  0
   19.7294  -12.4117  -15.0800 N   0  0  0  0  0  0  0  0  0  0  0  0
   21.7644   -8.1457  -16.2698 C   0  0  0  0  0  0  0  0  0  0  0  0
   23.0197   -8.0240  -16.2884 O   0  0  0  0  0  0  0  0  0  0  0  0
   20.9915   -7.0851  -15.7723 N   0  0  0  0  0  0  0  0  0  0  0  0
   21.6628   -5.8487  -15.4014 C   0  0  1  0  0  0  0  0  0  0  0  0
   20.9550   -4.6641  -16.0511 C   0  0  0  0  0  0  0  0  0  0  0  0
   21.6440   -3.4316  -15.6191 C   0  0  0  0  0  0  0  0  0  0  0  0
   21.1985   -2.7936  -14.6357 O   0  0  0  0  0  0  0  0  0  0  0  0
   21.6951   -5.7583  -13.9380 C   0  0  0  0  0  0  0  0  0  0  0  0
   21.0122   -6.5089  -13.1997 O   0  0  0  0  0  0  0  0  0  0  0  0
   22.7591   -2.9697  -16.2686 O   0  0  0  0  0  0  0  0  0  0  0  0
   22.4931   -4.8287  -13.3101 O   0  0  0  0  0  0  0  0  0  0  0  0
  2  1  1  6
  2  3  1  0
  3  4  1  0
  4  5  2  0
  6  2  1  0
  7  6  2  0
  8  4  1  0
  9  6  1  0
 10  9  1  0
 11 12  1  0
 10 11  1  1
 12 13  2  0
 13 14  1  0
 15 14  1  0
 16 12  1  0
 16 15  2  0
 17 10  1  0
 17 18  2  0
 19 17  1  0
 20 21  1  6
 20 19  1  0
 22 21  1  0
 22 26  1  0
 23 22  2  0
 24 20  1  0
 25 24  2  0
 27 24  1  0
M  END
$$$$
