DHD.pdb
     RDKit          3D

 27 27  0  0  1  0  0  0  0  0999 V2000
   17.7238  -13.9398  -16.4856 N   0  0  0  0  0  0  0  0  0  0  0  0
   17.4327  -12.5728  -16.1436 C   0  0  1  0  0  0  0  0  0  0  0  0
   16.9245  -12.4203  -14.7380 C   0  0  0  0  0  0  0  0  0  0  0  0
   15.6733  -13.2039  -14.5691 C   0  0  0  0  0  0  0  0  0  0  0  0
   14.7153  -13.0251  -15.3623 O   0  0  0  0  0  0  0  0  0  0  0  0
   18.5577  -11.7124  -16.4795 C   0  0  0  0  0  0  0  0  0  0  0  0
   19.7225  -12.1770  -16.3733 O   0  0  0  0  0  0  0  0  0  0  0  0
   15.5054  -14.1395  -13.5628 O   0  0  0  0  0  0  0  0  0  0  0  0
   18.4680  -10.3704  -16.9253 N   0  0  0  0  0  0  0  0  0  0  0  0
   19.5929   -9.5372  -17.2592 C   0  0  1  0  0  0  0  0  0  0  0  0
   19.4692   -8.9437  -18.6470 C   0  0  0  0  0  0  0  0  0  0  0  0
   19.6906  -10.0518  -19.6398 C   0  0  0  0  0  0  0  0  0  0  0  0
   20.8815  -10.6068  -20.0395 C   0  0  0  0  0  0  0  0  0  0  0  0
   20.6512  -11.5602  -20.9321 N   0  0  0  0  0  0  0  0  0  0  0  0
   19.3277  -11.6082  -21.0957 C   0  0  0  0  0  0  0  0  0  0  0  0
   18.7254  -10.7058  -20.3251 N   0  0  0  0  0  0  0  0  0  0  0  0
   19.7228   -8.4039  -16.3146 C   0  0  0  0  0  0  0  0  0  0  0  0
   18.6660   -7.9553  -15.7922 O   0  0  0  0  0  0  0  0  0  0  0  0
   20.9482   -7.8116  -15.9722 N   0  0  0  0  0  0  0  0  0  0  0  0
   20.9659   -6.8071  -14.9199 C   0  0  1  0  0  0  0  0  0  0  0  0
   22.3824   -6.6581  -14.3746 C   0  0  0  0  0  0  0  0  0  0  0  0
   22.3740   -5.5634  -13.3835 C   0  0  0  0  0  0  0  0  0  0  0  0
   21.6408   -5.6600  -12.3708 O   0  0  0  0  0  0  0  0  0  0  0  0
   20.4319   -5.5543  -15.4642 C   0  0  0  0  0  0  0  0  0  0  0  0
   20.6903   -5.1587  -16.6269 O   0  0  0  0  0  0  0  0  0  0  0  0
   23.1493   -4.4449  -13.5458 O   0  0  0  0  0  0  0  0  0  0  0  0
   19.6107   -4.7527  -14.7038 O   0  0  0  0  0  0  0  0  0  0  0  0
  2  1  1  1
  2  3  1  0
  3  4  1  0
  4  5  2  0
  6  2  1  0
  7  6  2  0
  8  4  1  0
  9  6  1  0
 10  9  1  0
 11 12  1  0
 10 11  1  6
 12 13  2  0
 13 14  1  0
 15 14  1  0
 16 12  1  0
 16 15  2  0
 17 10  1  0
 17 18  2  0
 19 17  1  0
 20 21  1  6
 20 19  1  0
 22 21  1  0
 22 26  1  0
 23 22  2  0
 24 20  1  0
 25 24  2  0
 27 24  1  0
M  END
$$$$
