HKE.pdb
     RDKit          3D

 29 29  0  0  1  0  0  0  0  0999 V2000
    8.7104  -12.6296   18.8938 N   0  0  0  0  0  0  0  0  0  0  0  0
    8.2590  -13.8609   19.5005 C   0  0  1  0  0  0  0  0  0  0  0  0
    8.9574  -15.0205   18.7943 C   0  0  0  0  0  0  0  0  0  0  0  0
    8.4604  -15.0958   17.3975 C   0  0  0  0  0  0  0  0  0  0  0  0
    9.0916  -14.5301   16.2925 C   0  0  0  0  0  0  0  0  0  0  0  0
    8.3634  -14.7956   15.2019 N   0  0  0  0  0  0  0  0  0  0  0  0
    7.2855  -15.5138   15.5742 C   0  0  0  0  0  0  0  0  0  0  0  0
    7.3600  -15.6896   16.9255 N   0  0  0  0  0  0  0  0  0  0  0  0
    8.6153  -13.9217   20.9447 C   0  0  0  0  0  0  0  0  0  0  0  0
    9.7669  -13.5887   21.3193 O   0  0  0  0  0  0  0  0  0  0  0  0
    7.6290  -14.3600   21.8644 N   0  0  0  0  0  0  0  0  0  0  0  0
    7.9153  -14.3346   23.2687 C   0  0  1  0  0  0  0  0  0  0  0  0
    6.7771  -14.0309   24.1734 C   0  0  0  0  0  0  0  0  0  0  0  0
    6.9790  -13.0333   25.2423 C   0  0  0  0  0  0  0  0  0  0  0  0
    5.7941  -12.8193   26.1357 C   0  0  0  0  0  0  0  0  0  0  0  0
    6.2487  -11.7668   27.1688 C   0  0  0  0  0  0  0  0  0  0  0  0
    5.1207  -11.5186   28.0410 N   0  0  0  0  0  0  0  0  0  0  0  0
    8.4190  -15.7328   23.5918 C   0  0  0  0  0  0  0  0  0  0  0  0
    7.8114  -16.7581   23.2238 O   0  0  0  0  0  0  0  0  0  0  0  0
    9.6163  -15.8498   24.3335 N   0  0  0  0  0  0  0  0  0  0  0  0
   10.0986  -17.1997   24.7753 C   0  0  1  0  0  0  0  0  0  0  0  0
   11.3214  -17.4299   23.9815 C   0  0  0  0  0  0  0  0  0  0  0  0
   12.4456  -16.5174   24.2561 C   0  0  0  0  0  0  0  0  0  0  0  0
   13.6787  -16.7912   23.5289 C   0  0  0  0  0  0  0  0  0  0  0  0
   14.3621  -17.8164   23.8068 O   0  0  0  0  0  0  0  0  0  0  0  0
   10.1226  -17.2689   26.2161 C   0  0  0  0  0  0  0  0  0  0  0  0
   10.4413  -18.4618   26.8981 O   0  0  0  0  0  0  0  0  0  0  0  0
   14.1045  -15.9201   22.5178 O   0  0  0  0  0  0  0  0  0  0  0  0
    9.8673  -16.2943   26.9458 O   0  0  0  0  0  0  0  0  0  0  0  0
  2  1  1  6
  2  3  1  0
  3  4  1  0
  4  8  1  0
  5  4  2  0
  5  6  1  0
  6  7  1  0
  8  7  2  0
  9 10  2  0
  9  2  1  0
 11  9  1  0
 12 13  1  1
 12 11  1  0
 13 14  1  0
 14 15  1  0
 15 16  1  0
 16 17  1  0
 18 12  1  0
 19 18  2  0
 20 18  1  0
 21 20  1  0
 21 22  1  1
 23 24  1  0
 23 22  1  0
 24 25  2  0
 26 27  1  0
 26 21  1  0
 28 24  1  0
 29 26  2  0
M  END
$$$$
