HKE.pdb
     RDKit          3D

 29 29  0  0  1  0  0  0  0  0999 V2000
    8.3099  -18.2063   19.4511 N   0  0  0  0  0  0  0  0  0  0  0  0
    8.5984  -16.7905   19.4518 C   0  0  1  0  0  0  0  0  0  0  0  0
    7.7805  -16.1400   18.3386 C   0  0  0  0  0  0  0  0  0  0  0  0
    8.1679  -16.7529   17.0432 C   0  0  0  0  0  0  0  0  0  0  0  0
    9.4220  -16.6399   16.4482 C   0  0  0  0  0  0  0  0  0  0  0  0
    9.4100  -17.3161   15.2938 N   0  0  0  0  0  0  0  0  0  0  0  0
    8.1871  -17.8588   15.1310 C   0  0  0  0  0  0  0  0  0  0  0  0
    7.4363  -17.5035   16.2139 N   0  0  0  0  0  0  0  0  0  0  0  0
    8.2086  -16.1535   20.7396 C   0  0  0  0  0  0  0  0  0  0  0  0
    7.0068  -15.8567   20.9520 O   0  0  0  0  0  0  0  0  0  0  0  0
    9.2210  -15.8986   21.6993 N   0  0  0  0  0  0  0  0  0  0  0  0
    8.9289  -16.0676   23.0924 C   0  0  1  0  0  0  0  0  0  0  0  0
    8.5262  -17.4298   23.5263 C   0  0  0  0  0  0  0  0  0  0  0  0
    8.1692  -17.6364   24.9435 C   0  0  0  0  0  0  0  0  0  0  0  0
    7.7877  -19.0424   25.2980 C   0  0  0  0  0  0  0  0  0  0  0  0
    7.3840  -18.9910   26.7866 C   0  0  0  0  0  0  0  0  0  0  0  0
    6.8136  -20.2806   27.1129 N   0  0  0  0  0  0  0  0  0  0  0  0
   10.2184  -15.7018   23.8109 C   0  0  0  0  0  0  0  0  0  0  0  0
   10.2882  -15.6332   25.0545 O   0  0  0  0  0  0  0  0  0  0  0  0
   11.3618  -15.4357   23.0241 N   0  0  0  0  0  0  0  0  0  0  0  0
   12.7213  -15.8413   23.5113 C   0  0  1  0  0  0  0  0  0  0  0  0
   12.5138  -17.1750   24.1083 C   0  0  0  0  0  0  0  0  0  0  0  0
   13.7337  -17.8845   24.5329 C   0  0  0  0  0  0  0  0  0  0  0  0
   13.5327  -19.2147   25.0937 C   0  0  0  0  0  0  0  0  0  0  0  0
   13.1541  -19.3452   26.2916 O   0  0  0  0  0  0  0  0  0  0  0  0
   13.7005  -15.6353   22.4721 C   0  0  0  0  0  0  0  0  0  0  0  0
   15.0579  -15.3903   22.7675 O   0  0  0  0  0  0  0  0  0  0  0  0
   13.7545  -20.3498   24.3031 O   0  0  0  0  0  0  0  0  0  0  0  0
   13.4187  -15.6594   21.2607 O   0  0  0  0  0  0  0  0  0  0  0  0
  2  1  1  1
  2  3  1  0
  3  4  1  0
  4  8  1  0
  5  4  2  0
  5  6  1  0
  6  7  1  0
  8  7  2  0
  9 10  2  0
  9  2  1  0
 11  9  1  0
 12 13  1  6
 12 11  1  0
 13 14  1  0
 14 15  1  0
 15 16  1  0
 16 17  1  0
 18 12  1  0
 19 18  2  0
 20 18  1  0
 21 20  1  0
 21 22  1  6
 23 24  1  0
 23 22  1  0
 24 25  2  0
 26 27  1  0
 26 21  1  0
 28 24  1  0
 29 26  2  0
M  END
$$$$
