HKE.pdb
     RDKit          3D

 29 29  0  0  1  0  0  0  0  0999 V2000
    6.5811  -17.1777   25.8695 N   0  0  0  0  0  0  0  0  0  0  0  0
    6.8812  -15.9158   25.2326 C   0  0  1  0  0  0  0  0  0  0  0  0
    7.8507  -15.1511   26.1307 C   0  0  0  0  0  0  0  0  0  0  0  0
    7.1687  -13.9350   26.6405 C   0  0  0  0  0  0  0  0  0  0  0  0
    5.8491  -13.5841   26.3669 C   0  0  0  0  0  0  0  0  0  0  0  0
    5.5755  -12.4316   26.9889 N   0  0  0  0  0  0  0  0  0  0  0  0
    6.6790  -12.0336   27.6525 C   0  0  0  0  0  0  0  0  0  0  0  0
    7.6483  -12.9677   27.4283 N   0  0  0  0  0  0  0  0  0  0  0  0
    7.5378  -16.1125   23.9112 C   0  0  0  0  0  0  0  0  0  0  0  0
    8.0932  -17.2073   23.6456 O   0  0  0  0  0  0  0  0  0  0  0  0
    7.5150  -15.0424   22.9811 N   0  0  0  0  0  0  0  0  0  0  0  0
    8.1214  -15.2155   21.6939 C   0  0  1  0  0  0  0  0  0  0  0  0
    7.7907  -14.1999   20.6617 C   0  0  0  0  0  0  0  0  0  0  0  0
    8.3441  -14.3748   19.3046 C   0  0  0  0  0  0  0  0  0  0  0  0
    7.8862  -13.3582   18.3022 C   0  0  0  0  0  0  0  0  0  0  0  0
    8.5081  -13.8009   16.9610 C   0  0  0  0  0  0  0  0  0  0  0  0
    8.1176  -12.8194   15.9716 N   0  0  0  0  0  0  0  0  0  0  0  0
    9.6186  -15.1579   21.9545 C   0  0  0  0  0  0  0  0  0  0  0  0
   10.0870  -14.8068   23.0560 O   0  0  0  0  0  0  0  0  0  0  0  0
   10.4882  -15.5186   20.9005 N   0  0  0  0  0  0  0  0  0  0  0  0
   11.8937  -15.9495   21.1988 C   0  0  1  0  0  0  0  0  0  0  0  0
   11.7465  -16.9842   22.2409 C   0  0  0  0  0  0  0  0  0  0  0  0
   12.7360  -16.9408   23.3321 C   0  0  0  0  0  0  0  0  0  0  0  0
   12.6132  -17.9833   24.3433 C   0  0  0  0  0  0  0  0  0  0  0  0
   12.8413  -19.1880   24.0402 O   0  0  0  0  0  0  0  0  0  0  0  0
   12.5974  -16.2256   19.9701 C   0  0  0  0  0  0  0  0  0  0  0  0
   13.9805  -15.9837   19.8347 O   0  0  0  0  0  0  0  0  0  0  0  0
   12.2466  -17.6494   25.6536 O   0  0  0  0  0  0  0  0  0  0  0  0
   12.0401  -16.6897   18.9593 O   0  0  0  0  0  0  0  0  0  0  0  0
  2  1  1  1
  2  3  1  0
  3  4  1  0
  4  8  1  0
  5  4  2  0
  5  6  1  0
  6  7  1  0
  8  7  2  0
  9 10  2  0
  9  2  1  0
 11  9  1  0
 12 13  1  6
 12 11  1  0
 13 14  1  0
 14 15  1  0
 15 16  1  0
 16 17  1  0
 18 12  1  0
 19 18  2  0
 20 18  1  0
 21 20  1  0
 21 22  1  1
 23 24  1  0
 23 22  1  0
 24 25  2  0
 26 27  1  0
 26 21  1  0
 28 24  1  0
 29 26  2  0
M  END
$$$$
