HKE.pdb
     RDKit          3D

 29 29  0  0  1  0  0  0  0  0999 V2000
    9.0606  -16.6883   19.5741 N   0  0  0  0  0  0  0  0  0  0  0  0
    8.1897  -16.3806   20.6853 C   0  0  1  0  0  0  0  0  0  0  0  0
    6.9105  -15.7615   20.1269 C   0  0  0  0  0  0  0  0  0  0  0  0
    7.2707  -14.5617   19.3304 C   0  0  0  0  0  0  0  0  0  0  0  0
    8.5659  -14.0852   19.1435 C   0  0  0  0  0  0  0  0  0  0  0  0
    8.5121  -12.9912   18.3752 N   0  0  0  0  0  0  0  0  0  0  0  0
    7.2228  -12.7523   18.0642 C   0  0  0  0  0  0  0  0  0  0  0  0
    6.4733  -13.7258   18.6585 N   0  0  0  0  0  0  0  0  0  0  0  0
    7.8139  -17.6066   21.4415 C   0  0  0  0  0  0  0  0  0  0  0  0
    6.9996  -17.5286   22.3945 O   0  0  0  0  0  0  0  0  0  0  0  0
    8.3956  -18.8411   21.0561 N   0  0  0  0  0  0  0  0  0  0  0  0
    8.1712  -20.0063   21.8602 C   0  0  1  0  0  0  0  0  0  0  0  0
    7.6758  -21.2154   21.1539 C   0  0  0  0  0  0  0  0  0  0  0  0
    7.5334  -22.4669   21.9235 C   0  0  0  0  0  0  0  0  0  0  0  0
    6.9811  -23.6243   21.1467 C   0  0  0  0  0  0  0  0  0  0  0  0
    6.8902  -24.7863   22.1581 C   0  0  0  0  0  0  0  0  0  0  0  0
    6.4488  -25.9516   21.4217 N   0  0  0  0  0  0  0  0  0  0  0  0
    9.5275  -20.3322   22.4661 C   0  0  0  0  0  0  0  0  0  0  0  0
   10.5328  -20.5533   21.7614 O   0  0  0  0  0  0  0  0  0  0  0  0
    9.6286  -20.3804   23.8749 N   0  0  0  0  0  0  0  0  0  0  0  0
   10.9316  -20.7428   24.5236 C   0  0  1  0  0  0  0  0  0  0  0  0
   10.8890  -20.0663   25.8347 C   0  0  0  0  0  0  0  0  0  0  0  0
   12.0264  -20.3351   26.7324 C   0  0  0  0  0  0  0  0  0  0  0  0
   11.9236  -19.7746   28.0738 C   0  0  0  0  0  0  0  0  0  0  0  0
   10.8907  -19.1316   28.4129 O   0  0  0  0  0  0  0  0  0  0  0  0
   11.1533  -22.1650   24.4269 C   0  0  0  0  0  0  0  0  0  0  0  0
   12.4519  -22.7135   24.3773 O   0  0  0  0  0  0  0  0  0  0  0  0
   12.9683  -19.9526   28.9900 O   0  0  0  0  0  0  0  0  0  0  0  0
   10.2267  -22.9938   24.3812 O   0  0  0  0  0  0  0  0  0  0  0  0
  2  1  1  6
  2  3  1  0
  3  4  1  0
  4  8  1  0
  5  4  2  0
  5  6  1  0
  6  7  1  0
  8  7  2  0
  9 10  2  0
  9  2  1  0
 11  9  1  0
 12 13  1  6
 12 11  1  0
 13 14  1  0
 14 15  1  0
 15 16  1  0
 16 17  1  0
 18 12  1  0
 19 18  2  0
 20 18  1  0
 21 20  1  0
 21 22  1  1
 23 24  1  0
 23 22  1  0
 24 25  2  0
 26 27  1  0
 26 21  1  0
 28 24  1  0
 29 26  2  0
M  END
$$$$
