HKE.pdb
     RDKit          3D

 29 29  0  0  1  0  0  0  0  0999 V2000
   14.3727  -14.6871   15.3320 N   0  0  0  0  0  0  0  0  0  0  0  0
   13.3249  -15.3761   16.0499 C   0  0  1  0  0  0  0  0  0  0  0  0
   13.6927  -16.8564   16.1189 C   0  0  0  0  0  0  0  0  0  0  0  0
   13.5453  -17.4471   14.7650 C   0  0  0  0  0  0  0  0  0  0  0  0
   12.3720  -17.4443   14.0147 C   0  0  0  0  0  0  0  0  0  0  0  0
   12.6071  -18.0621   12.8514 N   0  0  0  0  0  0  0  0  0  0  0  0
   13.8945  -18.4603   12.8335 C   0  0  0  0  0  0  0  0  0  0  0  0
   14.4567  -18.0750   14.0158 N   0  0  0  0  0  0  0  0  0  0  0  0
   13.1933  -14.8706   17.4439 C   0  0  0  0  0  0  0  0  0  0  0  0
   14.2221  -14.6632   18.1338 O   0  0  0  0  0  0  0  0  0  0  0  0
   11.8918  -14.6359   17.9557 N   0  0  0  0  0  0  0  0  0  0  0  0
   11.7417  -14.0567   19.2583 C   0  0  1  0  0  0  0  0  0  0  0  0
   10.3866  -13.5630   19.6136 C   0  0  0  0  0  0  0  0  0  0  0  0
    9.2162  -14.3273   19.1397 C   0  0  0  0  0  0  0  0  0  0  0  0
    7.8973  -13.8538   19.6727 C   0  0  0  0  0  0  0  0  0  0  0  0
    6.8337  -14.6752   18.9140 C   0  0  0  0  0  0  0  0  0  0  0  0
    5.5466  -14.3088   19.4654 N   0  0  0  0  0  0  0  0  0  0  0  0
   12.1113  -15.1690   20.2274 C   0  0  0  0  0  0  0  0  0  0  0  0
   11.8994  -16.3709   19.9694 O   0  0  0  0  0  0  0  0  0  0  0  0
   12.7135  -14.8057   21.4532 N   0  0  0  0  0  0  0  0  0  0  0  0
   12.9791  -15.8480   22.4988 C   0  0  1  0  0  0  0  0  0  0  0  0
   14.4227  -15.7254   22.7801 C   0  0  0  0  0  0  0  0  0  0  0  0
   15.3207  -15.9435   21.6321 C   0  0  0  0  0  0  0  0  0  0  0  0
   16.7478  -15.9144   21.9269 C   0  0  0  0  0  0  0  0  0  0  0  0
   17.4154  -16.9866   21.9267 O   0  0  0  0  0  0  0  0  0  0  0  0
   12.0035  -15.7467   23.5567 C   0  0  0  0  0  0  0  0  0  0  0  0
   11.8806  -16.7384   24.5524 O   0  0  0  0  0  0  0  0  0  0  0  0
   17.3813  -14.6965   22.2062 O   0  0  0  0  0  0  0  0  0  0  0  0
   11.2145  -14.7908   23.6619 O   0  0  0  0  0  0  0  0  0  0  0  0
  2  1  1  1
  2  3  1  0
  3  4  1  0
  4  8  1  0
  5  4  2  0
  5  6  1  0
  6  7  1  0
  8  7  2  0
  9 10  2  0
  9  2  1  0
 11  9  1  0
 12 13  1  1
 12 11  1  0
 13 14  1  0
 14 15  1  0
 15 16  1  0
 16 17  1  0
 18 12  1  0
 19 18  2  0
 20 18  1  0
 21 20  1  0
 21 22  1  1
 23 24  1  0
 23 22  1  0
 24 25  2  0
 26 27  1  0
 26 21  1  0
 28 24  1  0
 29 26  2  0
M  END
$$$$
