HKE.pdb
     RDKit          3D

 29 29  0  0  1  0  0  0  0  0999 V2000
   10.1678  -14.9904   13.8073 N   0  0  0  0  0  0  0  0  0  0  0  0
    9.3225  -15.4493   14.8856 C   0  0  1  0  0  0  0  0  0  0  0  0
    9.3848  -16.9745   14.9198 C   0  0  0  0  0  0  0  0  0  0  0  0
   10.8089  -17.3931   14.9036 C   0  0  0  0  0  0  0  0  0  0  0  0
   11.8672  -16.6112   14.4473 C   0  0  0  0  0  0  0  0  0  0  0  0
   13.0018  -17.3075   14.5810 N   0  0  0  0  0  0  0  0  0  0  0  0
   12.7030  -18.5111   15.1087 C   0  0  0  0  0  0  0  0  0  0  0  0
   11.3524  -18.5477   15.3008 N   0  0  0  0  0  0  0  0  0  0  0  0
    9.7929  -14.9412   16.2035 C   0  0  0  0  0  0  0  0  0  0  0  0
   11.0135  -14.7067   16.3839 O   0  0  0  0  0  0  0  0  0  0  0  0
    8.8341  -14.7353   17.2278 N   0  0  0  0  0  0  0  0  0  0  0  0
    9.2443  -14.1435   18.4672 C   0  0  1  0  0  0  0  0  0  0  0  0
    8.1616  -13.7173   19.3903 C   0  0  0  0  0  0  0  0  0  0  0  0
    8.5406  -13.1268   20.6890 C   0  0  0  0  0  0  0  0  0  0  0  0
    7.3870  -12.7382   21.5644 C   0  0  0  0  0  0  0  0  0  0  0  0
    8.0253  -12.1786   22.8532 C   0  0  0  0  0  0  0  0  0  0  0  0
    6.9386  -11.7894   23.7264 N   0  0  0  0  0  0  0  0  0  0  0  0
   10.0657  -15.2182   19.1624 C   0  0  0  0  0  0  0  0  0  0  0  0
    9.7741  -16.4287   19.0864 O   0  0  0  0  0  0  0  0  0  0  0  0
   11.1913  -14.8091   19.9126 N   0  0  0  0  0  0  0  0  0  0  0  0
   12.0493  -15.8302   20.5992 C   0  0  1  0  0  0  0  0  0  0  0  0
   13.4117  -15.2662   20.5363 C   0  0  0  0  0  0  0  0  0  0  0  0
   14.4668  -16.0641   21.1858 C   0  0  0  0  0  0  0  0  0  0  0  0
   15.8255  -15.5556   21.0455 C   0  0  0  0  0  0  0  0  0  0  0  0
   16.6323  -16.1180   20.2529 O   0  0  0  0  0  0  0  0  0  0  0  0
   11.4570  -16.2064   21.8597 C   0  0  0  0  0  0  0  0  0  0  0  0
   11.8608  -17.3657   22.5545 O   0  0  0  0  0  0  0  0  0  0  0  0
   16.2364  -14.4396   21.7860 O   0  0  0  0  0  0  0  0  0  0  0  0
   10.5617  -15.5430   22.4128 O   0  0  0  0  0  0  0  0  0  0  0  0
  2  1  1  6
  2  3  1  0
  3  4  1  0
  4  8  1  0
  5  4  2  0
  5  6  1  0
  6  7  1  0
  8  7  2  0
  9 10  2  0
  9  2  1  0
 11  9  1  0
 12 13  1  1
 12 11  1  0
 13 14  1  0
 14 15  1  0
 15 16  1  0
 16 17  1  0
 18 12  1  0
 19 18  2  0
 20 18  1  0
 21 20  1  0
 21 22  1  1
 23 24  1  0
 23 22  1  0
 24 25  2  0
 26 27  1  0
 26 21  1  0
 28 24  1  0
 29 26  2  0
M  END
$$$$
