HKE.pdb
     RDKit          3D

 29 29  0  0  1  0  0  0  0  0999 V2000
    9.2178  -16.8996   18.2832 N   0  0  0  0  0  0  0  0  0  0  0  0
   10.0225  -15.7020   18.3602 C   0  0  1  0  0  0  0  0  0  0  0  0
    9.1348  -14.5114   18.0057 C   0  0  0  0  0  0  0  0  0  0  0  0
    8.7256  -14.6296   16.5836 C   0  0  0  0  0  0  0  0  0  0  0  0
    7.5600  -15.2460   16.1353 C   0  0  0  0  0  0  0  0  0  0  0  0
    7.5202  -15.1655   14.8004 N   0  0  0  0  0  0  0  0  0  0  0  0
    8.6240  -14.5167   14.3799 C   0  0  0  0  0  0  0  0  0  0  0  0
    9.3538  -14.1944   15.4871 N   0  0  0  0  0  0  0  0  0  0  0  0
   10.5520  -15.4862   19.7347 C   0  0  0  0  0  0  0  0  0  0  0  0
   11.3134  -14.5145   19.9663 O   0  0  0  0  0  0  0  0  0  0  0  0
   10.1744  -16.3977   20.7533 N   0  0  0  0  0  0  0  0  0  0  0  0
   10.7492  -16.2703   22.0602 C   0  0  1  0  0  0  0  0  0  0  0  0
   10.0766  -17.0125   23.1570 C   0  0  0  0  0  0  0  0  0  0  0  0
    8.7885  -16.4991   23.6629 C   0  0  0  0  0  0  0  0  0  0  0  0
    8.1014  -17.3900   24.6540 C   0  0  0  0  0  0  0  0  0  0  0  0
    6.8548  -16.6037   25.1114 C   0  0  0  0  0  0  0  0  0  0  0  0
    6.1594  -17.4369   26.0690 N   0  0  0  0  0  0  0  0  0  0  0  0
   12.1648  -16.8086   21.9206 C   0  0  0  0  0  0  0  0  0  0  0  0
   12.4019  -17.9327   21.4346 O   0  0  0  0  0  0  0  0  0  0  0  0
   13.2300  -15.9914   22.3619 N   0  0  0  0  0  0  0  0  0  0  0  0
   14.6371  -16.5107   22.3358 C   0  0  1  0  0  0  0  0  0  0  0  0
   15.3276  -15.6495   21.3561 C   0  0  0  0  0  0  0  0  0  0  0  0
   16.7672  -15.9085   21.1769 C   0  0  0  0  0  0  0  0  0  0  0  0
   17.4476  -15.0669   20.2006 C   0  0  0  0  0  0  0  0  0  0  0  0
   17.3243  -15.3042   18.9662 O   0  0  0  0  0  0  0  0  0  0  0  0
   15.1358  -16.6547   23.6818 C   0  0  0  0  0  0  0  0  0  0  0  0
   16.2661  -17.4459   23.9755 O   0  0  0  0  0  0  0  0  0  0  0  0
   18.2353  -13.9910   20.6303 O   0  0  0  0  0  0  0  0  0  0  0  0
   14.6102  -16.0983   24.6626 O   0  0  0  0  0  0  0  0  0  0  0  0
  2  1  1  1
  2  3  1  0
  3  4  1  0
  4  8  1  0
  5  4  2  0
  5  6  1  0
  6  7  1  0
  8  7  2  0
  9 10  2  0
  9  2  1  0
 11  9  1  0
 12 13  1  1
 12 11  1  0
 13 14  1  0
 14 15  1  0
 15 16  1  0
 16 17  1  0
 18 12  1  0
 19 18  2  0
 20 18  1  0
 21 20  1  0
 21 22  1  6
 23 24  1  0
 23 22  1  0
 24 25  2  0
 26 27  1  0
 26 21  1  0
 28 24  1  0
 29 26  2  0
M  END
$$$$
