HKE.pdb
     RDKit          3D

 29 29  0  0  1  0  0  0  0  0999 V2000
    7.3565  -13.0401   18.6301 N   0  0  0  0  0  0  0  0  0  0  0  0
    8.1986  -14.1271   19.0739 C   0  0  1  0  0  0  0  0  0  0  0  0
    9.5117  -14.0560   18.2980 C   0  0  0  0  0  0  0  0  0  0  0  0
    9.2258  -14.2730   16.8575 C   0  0  0  0  0  0  0  0  0  0  0  0
    7.9609  -14.4922   16.3175 C   0  0  0  0  0  0  0  0  0  0  0  0
    8.0821  -14.6466   14.9940 N   0  0  0  0  0  0  0  0  0  0  0  0
    9.3853  -14.5330   14.6698 C   0  0  0  0  0  0  0  0  0  0  0  0
   10.0742  -14.3037   15.8253 N   0  0  0  0  0  0  0  0  0  0  0  0
    8.5161  -14.0162   20.5241 C   0  0  0  0  0  0  0  0  0  0  0  0
    8.0010  -13.0977   21.2086 O   0  0  0  0  0  0  0  0  0  0  0  0
    9.4024  -14.9647   21.0946 N   0  0  0  0  0  0  0  0  0  0  0  0
    8.9428  -15.8050   22.1611 C   0  0  1  0  0  0  0  0  0  0  0  0
    7.7791  -16.6788   21.8640 C   0  0  0  0  0  0  0  0  0  0  0  0
    7.2786  -17.5659   22.9323 C   0  0  0  0  0  0  0  0  0  0  0  0
    6.1120  -18.4236   22.5433 C   0  0  0  0  0  0  0  0  0  0  0  0
    5.7287  -19.1938   23.8245 C   0  0  0  0  0  0  0  0  0  0  0  0
    4.6049  -20.0409   23.4860 N   0  0  0  0  0  0  0  0  0  0  0  0
   10.1298  -16.6934   22.5001 C   0  0  0  0  0  0  0  0  0  0  0  0
   10.1315  -17.9177   22.2609 O   0  0  0  0  0  0  0  0  0  0  0  0
   11.2561  -16.0907   23.1046 N   0  0  0  0  0  0  0  0  0  0  0  0
   12.3834  -16.9412   23.6106 C   0  0  1  0  0  0  0  0  0  0  0  0
   13.5999  -16.1785   23.2689 C   0  0  0  0  0  0  0  0  0  0  0  0
   13.7307  -15.7789   21.8565 C   0  0  0  0  0  0  0  0  0  0  0  0
   14.9407  -15.0421   21.5139 C   0  0  0  0  0  0  0  0  0  0  0  0
   16.0103  -15.2513   22.1521 O   0  0  0  0  0  0  0  0  0  0  0  0
   12.1206  -17.3540   24.9677 C   0  0  0  0  0  0  0  0  0  0  0  0
   10.9810  -16.9120   25.6719 O   0  0  0  0  0  0  0  0  0  0  0  0
   14.9196  -14.1045   20.4731 O   0  0  0  0  0  0  0  0  0  0  0  0
   12.8708  -18.1177   25.6013 O   0  0  0  0  0  0  0  0  0  0  0  0
  2  1  1  6
  2  3  1  0
  3  4  1  0
  4  8  1  0
  5  4  2  0
  5  6  1  0
  6  7  1  0
  8  7  2  0
  9 10  2  0
  9  2  1  0
 11  9  1  0
 12 13  1  6
 12 11  1  0
 13 14  1  0
 14 15  1  0
 15 16  1  0
 16 17  1  0
 18 12  1  0
 19 18  2  0
 20 18  1  0
 21 20  1  0
 21 22  1  1
 23 24  1  0
 23 22  1  0
 24 25  2  0
 26 27  1  0
 26 21  1  0
 28 24  1  0
 29 26  2  0
M  END
$$$$
