HKE.pdb
     RDKit          3D

 29 29  0  0  1  0  0  0  0  0999 V2000
    9.8335  -14.0860   19.0393 N   0  0  0  0  0  0  0  0  0  0  0  0
   10.4930  -14.9826   19.9607 C   0  0  1  0  0  0  0  0  0  0  0  0
   11.8378  -14.3668   20.3397 C   0  0  0  0  0  0  0  0  0  0  0  0
   12.8180  -14.6664   19.2658 C   0  0  0  0  0  0  0  0  0  0  0  0
   12.5260  -15.3376   18.0810 C   0  0  0  0  0  0  0  0  0  0  0  0
   13.6455  -15.4281   17.3540 N   0  0  0  0  0  0  0  0  0  0  0  0
   14.6454  -14.8358   18.0364 C   0  0  0  0  0  0  0  0  0  0  0  0
   14.1207  -14.3732   19.2082 N   0  0  0  0  0  0  0  0  0  0  0  0
    9.7026  -15.1624   21.2093 C   0  0  0  0  0  0  0  0  0  0  0  0
    9.3721  -14.1601   21.8901 O   0  0  0  0  0  0  0  0  0  0  0  0
    9.3427  -16.4785   21.5956 N   0  0  0  0  0  0  0  0  0  0  0  0
    8.5549  -16.6747   22.7769 C   0  0  1  0  0  0  0  0  0  0  0  0
    7.3737  -17.5658   22.6474 C   0  0  0  0  0  0  0  0  0  0  0  0
    6.3395  -17.2177   21.6534 C   0  0  0  0  0  0  0  0  0  0  0  0
    5.2823  -18.2618   21.4529 C   0  0  0  0  0  0  0  0  0  0  0  0
    4.2972  -17.6523   20.4333 C   0  0  0  0  0  0  0  0  0  0  0  0
    3.2558  -18.6336   20.2157 N   0  0  0  0  0  0  0  0  0  0  0  0
    9.5089  -17.2941   23.7864 C   0  0  0  0  0  0  0  0  0  0  0  0
   10.4451  -18.0427   23.4414 O   0  0  0  0  0  0  0  0  0  0  0  0
    9.3095  -16.9977   25.1538 N   0  0  0  0  0  0  0  0  0  0  0  0
   10.0886  -17.7323   26.2042 C   0  0  1  0  0  0  0  0  0  0  0  0
   10.3717  -16.7113   27.2317 C   0  0  0  0  0  0  0  0  0  0  0  0
   11.0135  -17.2023   28.4641 C   0  0  0  0  0  0  0  0  0  0  0  0
   11.3335  -16.1887   29.4613 C   0  0  0  0  0  0  0  0  0  0  0  0
   10.9857  -14.9886   29.2770 O   0  0  0  0  0  0  0  0  0  0  0  0
    9.4201  -18.9647   26.5440 C   0  0  0  0  0  0  0  0  0  0  0  0
   10.1228  -20.0747   27.0577 O   0  0  0  0  0  0  0  0  0  0  0  0
   12.0230  -16.5456   30.6275 O   0  0  0  0  0  0  0  0  0  0  0  0
    8.1947  -19.1306   26.4091 O   0  0  0  0  0  0  0  0  0  0  0  0
  2  1  1  6
  2  3  1  0
  3  4  1  0
  4  8  1  0
  5  4  2  0
  5  6  1  0
  6  7  1  0
  8  7  2  0
  9 10  2  0
  9  2  1  0
 11  9  1  0
 12 13  1  6
 12 11  1  0
 13 14  1  0
 14 15  1  0
 15 16  1  0
 16 17  1  0
 18 12  1  0
 19 18  2  0
 20 18  1  0
 21 20  1  0
 21 22  1  1
 23 24  1  0
 23 22  1  0
 24 25  2  0
 26 27  1  0
 26 21  1  0
 28 24  1  0
 29 26  2  0
M  END
$$$$
