HKE.pdb
     RDKit          3D

 29 29  0  0  1  0  0  0  0  0999 V2000
   10.0272  -12.6480   19.8303 N   0  0  0  0  0  0  0  0  0  0  0  0
    9.0336  -13.5399   20.3826 C   0  0  1  0  0  0  0  0  0  0  0  0
    9.0064  -14.8054   19.5287 C   0  0  0  0  0  0  0  0  0  0  0  0
    8.4054  -14.4778   18.2114 C   0  0  0  0  0  0  0  0  0  0  0  0
    8.0687  -13.1964   17.7824 C   0  0  0  0  0  0  0  0  0  0  0  0
    7.5528  -13.2797   16.5508 N   0  0  0  0  0  0  0  0  0  0  0  0
    7.5486  -14.5747   16.1777 C   0  0  0  0  0  0  0  0  0  0  0  0
    8.0754  -15.2974   17.2086 N   0  0  0  0  0  0  0  0  0  0  0  0
    9.3687  -13.9352   21.7782 C   0  0  0  0  0  0  0  0  0  0  0  0
   10.5707  -14.0287   22.1301 O   0  0  0  0  0  0  0  0  0  0  0  0
    8.3050  -14.1971   22.6785 N   0  0  0  0  0  0  0  0  0  0  0  0
    8.6004  -14.4997   24.0481 C   0  0  1  0  0  0  0  0  0  0  0  0
    7.5079  -14.2746   25.0288 C   0  0  0  0  0  0  0  0  0  0  0  0
    7.3021  -12.9077   25.5464 C   0  0  0  0  0  0  0  0  0  0  0  0
    6.1629  -12.7646   26.5107 C   0  0  0  0  0  0  0  0  0  0  0  0
    6.2741  -11.3270   27.0607 C   0  0  0  0  0  0  0  0  0  0  0  0
    5.2077  -11.1617   28.0253 N   0  0  0  0  0  0  0  0  0  0  0  0
    8.9490  -15.9801   24.0566 C   0  0  0  0  0  0  0  0  0  0  0  0
    8.1435  -16.8533   23.6762 O   0  0  0  0  0  0  0  0  0  0  0  0
   10.2325  -16.3551   24.5139 N   0  0  0  0  0  0  0  0  0  0  0  0
   10.5553  -17.8015   24.7465 C   0  0  1  0  0  0  0  0  0  0  0  0
   11.7060  -18.0671   23.8613 C   0  0  0  0  0  0  0  0  0  0  0  0
   12.9018  -17.2388   24.0977 C   0  0  0  0  0  0  0  0  0  0  0  0
   14.0051  -17.4347   23.1657 C   0  0  0  0  0  0  0  0  0  0  0  0
   14.4320  -16.4648   22.4784 O   0  0  0  0  0  0  0  0  0  0  0  0
   10.6276  -18.0703   26.1620 C   0  0  0  0  0  0  0  0  0  0  0  0
   10.4244  -17.0575   27.1226 O   0  0  0  0  0  0  0  0  0  0  0  0
   14.5963  -18.6980   23.0347 O   0  0  0  0  0  0  0  0  0  0  0  0
   10.8708  -19.1986   26.6261 O   0  0  0  0  0  0  0  0  0  0  0  0
  2  1  1  6
  2  3  1  0
  3  4  1  0
  4  8  1  0
  5  4  2  0
  5  6  1  0
  6  7  1  0
  8  7  2  0
  9 10  2  0
  9  2  1  0
 11  9  1  0
 12 13  1  1
 12 11  1  0
 13 14  1  0
 14 15  1  0
 15 16  1  0
 16 17  1  0
 18 12  1  0
 19 18  2  0
 20 18  1  0
 21 20  1  0
 21 22  1  6
 23 24  1  0
 23 22  1  0
 24 25  2  0
 26 27  1  0
 26 21  1  0
 28 24  1  0
 29 26  2  0
M  END
$$$$
