HKE.pdb
     RDKit          3D

 29 29  0  0  1  0  0  0  0  0999 V2000
    9.8014  -16.3682   18.7835 N   0  0  0  0  0  0  0  0  0  0  0  0
    8.7801  -16.5480   19.7897 C   0  0  1  0  0  0  0  0  0  0  0  0
    8.5846  -18.0472   20.0033 C   0  0  0  0  0  0  0  0  0  0  0  0
    7.6991  -18.5689   18.9321 C   0  0  0  0  0  0  0  0  0  0  0  0
    8.1123  -18.9027   17.6447 C   0  0  0  0  0  0  0  0  0  0  0  0
    7.0513  -19.3356   16.9540 N   0  0  0  0  0  0  0  0  0  0  0  0
    5.9716  -19.2896   17.7592 C   0  0  0  0  0  0  0  0  0  0  0  0
    6.3863  -18.8166   18.9703 N   0  0  0  0  0  0  0  0  0  0  0  0
    9.1828  -15.9479   21.0912 C   0  0  0  0  0  0  0  0  0  0  0  0
   10.4005  -15.8092   21.3659 O   0  0  0  0  0  0  0  0  0  0  0  0
    8.1642  -15.5461   21.9922 N   0  0  0  0  0  0  0  0  0  0  0  0
    8.5230  -14.8706   23.2045 C   0  0  1  0  0  0  0  0  0  0  0  0
    7.4240  -14.1905   23.9363 C   0  0  0  0  0  0  0  0  0  0  0  0
    7.7298  -13.5699   25.2402 C   0  0  0  0  0  0  0  0  0  0  0  0
    6.5481  -12.9781   25.9483 C   0  0  0  0  0  0  0  0  0  0  0  0
    7.1076  -12.4147   27.2716 C   0  0  0  0  0  0  0  0  0  0  0  0
    5.9860  -11.8643   28.0023 N   0  0  0  0  0  0  0  0  0  0  0  0
    9.0929  -15.9560   24.1046 C   0  0  0  0  0  0  0  0  0  0  0  0
    8.5852  -17.0932   24.1752 O   0  0  0  0  0  0  0  0  0  0  0  0
   10.2348  -15.6436   24.8765 N   0  0  0  0  0  0  0  0  0  0  0  0
   10.9401  -16.7207   25.6462 C   0  0  1  0  0  0  0  0  0  0  0  0
   12.3651  -16.5408   25.3065 C   0  0  0  0  0  0  0  0  0  0  0  0
   12.9778  -17.6236   24.5167 C   0  0  0  0  0  0  0  0  0  0  0  0
   14.4283  -17.7340   24.6074 C   0  0  0  0  0  0  0  0  0  0  0  0
   15.0333  -18.6478   23.9796 O   0  0  0  0  0  0  0  0  0  0  0  0
   10.4963  -16.7187   27.0188 C   0  0  0  0  0  0  0  0  0  0  0  0
   10.7826  -17.7869   27.8945 O   0  0  0  0  0  0  0  0  0  0  0  0
   15.1533  -16.8237   25.3874 O   0  0  0  0  0  0  0  0  0  0  0  0
    9.8396  -15.7873   27.5176 O   0  0  0  0  0  0  0  0  0  0  0  0
  2  1  1  6
  2  3  1  0
  3  4  1  0
  4  8  1  0
  5  4  2  0
  5  6  1  0
  6  7  1  0
  8  7  2  0
  9 10  2  0
  9  2  1  0
 11  9  1  0
 12 13  1  1
 12 11  1  0
 13 14  1  0
 14 15  1  0
 15 16  1  0
 16 17  1  0
 18 12  1  0
 19 18  2  0
 20 18  1  0
 21 20  1  0
 21 22  1  1
 23 24  1  0
 23 22  1  0
 24 25  2  0
 26 27  1  0
 26 21  1  0
 28 24  1  0
 29 26  2  0
M  END
$$$$
