HKE.pdb
     RDKit          3D

 29 29  0  0  1  0  0  0  0  0999 V2000
    7.4633  -16.4999   19.3282 N   0  0  0  0  0  0  0  0  0  0  0  0
    8.7223  -15.7968   19.2358 C   0  0  1  0  0  0  0  0  0  0  0  0
    8.6228  -14.7970   18.0861 C   0  0  0  0  0  0  0  0  0  0  0  0
    8.2308  -15.5261   16.8538 C   0  0  0  0  0  0  0  0  0  0  0  0
    8.0015  -16.8975   16.7748 C   0  0  0  0  0  0  0  0  0  0  0  0
    7.6693  -17.2034   15.5154 N   0  0  0  0  0  0  0  0  0  0  0  0
    7.6788  -16.0705   14.7854 C   0  0  0  0  0  0  0  0  0  0  0  0
    8.0255  -15.0496   15.6221 N   0  0  0  0  0  0  0  0  0  0  0  0
    9.0167  -15.0362   20.4811 C   0  0  0  0  0  0  0  0  0  0  0  0
   10.1205  -14.4511   20.6104 O   0  0  0  0  0  0  0  0  0  0  0  0
    8.0274  -14.9959   21.4962 N   0  0  0  0  0  0  0  0  0  0  0  0
    8.4138  -14.6986   22.8442 C   0  0  1  0  0  0  0  0  0  0  0  0
    7.3469  -14.1914   23.7445 C   0  0  0  0  0  0  0  0  0  0  0  0
    7.7225  -13.7738   25.1096 C   0  0  0  0  0  0  0  0  0  0  0  0
    6.5852  -13.2782   25.9516 C   0  0  0  0  0  0  0  0  0  0  0  0
    7.2437  -12.6771   27.2112 C   0  0  0  0  0  0  0  0  0  0  0  0
    6.1740  -12.1718   28.0450 N   0  0  0  0  0  0  0  0  0  0  0  0
    8.9230  -16.0168   23.4063 C   0  0  0  0  0  0  0  0  0  0  0  0
    8.9607  -17.0591   22.7221 O   0  0  0  0  0  0  0  0  0  0  0  0
    9.3627  -16.0378   24.7492 N   0  0  0  0  0  0  0  0  0  0  0  0
   10.5814  -16.8254   25.1295 C   0  0  1  0  0  0  0  0  0  0  0  0
   11.5777  -16.4807   24.0966 C   0  0  0  0  0  0  0  0  0  0  0  0
   12.7351  -17.3872   23.9940 C   0  0  0  0  0  0  0  0  0  0  0  0
   13.7294  -17.0370   22.9875 C   0  0  0  0  0  0  0  0  0  0  0  0
   14.8565  -16.5897   23.3411 O   0  0  0  0  0  0  0  0  0  0  0  0
   10.8696  -16.6440   26.5314 C   0  0  0  0  0  0  0  0  0  0  0  0
   11.4516  -17.6666   27.3093 O   0  0  0  0  0  0  0  0  0  0  0  0
   13.4377  -17.2007   21.6271 O   0  0  0  0  0  0  0  0  0  0  0  0
   10.6279  -15.5874   27.1419 O   0  0  0  0  0  0  0  0  0  0  0  0
  2  1  1  1
  2  3  1  0
  3  4  1  0
  4  8  1  0
  5  4  2  0
  5  6  1  0
  6  7  1  0
  8  7  2  0
  9 10  2  0
  9  2  1  0
 11  9  1  0
 12 13  1  1
 12 11  1  0
 13 14  1  0
 14 15  1  0
 15 16  1  0
 16 17  1  0
 18 12  1  0
 19 18  2  0
 20 18  1  0
 21 20  1  0
 21 22  1  6
 23 24  1  0
 23 22  1  0
 24 25  2  0
 26 27  1  0
 26 21  1  0
 28 24  1  0
 29 26  2  0
M  END
$$$$
