IMP.pdb
     RDKit          3D

 24 24  0  0  1  0  0  0  0  0999 V2000
   19.5959  -19.2336  -14.5828 C   0  0  0  0  0  0  0  0  0  0  0  0
   20.1203  -18.6520  -15.8766 C   0  0  0  0  0  0  0  0  0  0  0  0
   20.9174  -17.4234  -15.5948 C   0  0  2  0  0  0  0  0  0  0  0  0
   20.2275  -16.4792  -14.6556 C   0  0  0  0  0  0  0  0  0  0  0  0
   21.4251  -16.7653  -16.8601 C   0  0  2  0  0  0  0  0  0  0  0  0
   22.2489  -17.8163  -17.4990 N   0  0  0  0  0  0  0  0  0  0  0  0
   22.2375  -15.5630  -16.6297 C   0  0  0  0  0  0  0  0  0  0  0  0
   23.3728  -15.6995  -16.0611 O   0  0  0  0  0  0  0  0  0  0  0  0
   25.8745  -14.0908  -21.1513 C   0  0  0  0  0  0  0  0  0  0  0  0
   24.7383  -12.9461  -20.3267 S   0  0  0  0  0  0  0  0  0  0  0  0
   24.3158  -13.5941  -18.6529 C   0  0  0  0  0  0  0  0  0  0  0  0
   23.2993  -12.6962  -18.0958 C   0  0  0  0  0  0  0  0  0  0  0  0
   22.8004  -13.0893  -16.7119 C   0  0  2  0  0  0  0  0  0  0  0  0
   21.8748  -14.2432  -16.9866 N   0  0  0  0  0  0  0  0  0  0  0  0
   22.0469  -12.0320  -16.0469 C   0  0  0  0  0  0  0  0  0  0  0  0
   20.8565  -11.8205  -16.5004 O   0  0  0  0  0  0  0  0  0  0  0  0
   22.4307  -11.2001  -14.9628 N   0  0  0  0  0  0  0  0  0  0  0  0
   23.6604  -11.4103  -14.2577 C   0  0  0  0  0  0  0  0  0  0  0  0
   23.9085  -10.0873  -13.5753 C   0  0  0  0  0  0  0  0  0  0  0  0
   22.4819   -9.6502  -13.1954 C   0  0  0  0  0  0  0  0  0  0  0  0
   21.7165  -10.1100  -14.4392 C   0  0  1  0  0  0  0  0  0  0  0  0
   21.6234   -8.9625  -15.4022 C   0  0  0  0  0  0  0  0  0  0  0  0
   22.3385   -8.9760  -16.4240 O   0  0  0  0  0  0  0  0  0  0  0  0
   20.7685   -7.9326  -15.1505 O   0  0  0  0  0  0  0  0  0  0  0  0
  1  2  1  0
  3  2  1  0
  3  4  1  6
  5  3  1  0
  5  6  1  1
  7  8  2  0
  7  5  1  0
 10  9  1  0
 11 12  1  0
 11 10  1  0
 13 12  1  6
 13 15  1  0
 13 14  1  0
 14  7  1  0
 15 17  1  0
 16 15  2  0
 17 21  1  0
 17 18  1  0
 19 18  1  0
 20 19  1  0
 20 21  1  0
 21 22  1  6
 22 23  2  0
 22 24  1  0
M  END
$$$$
