IMP.pdb
     RDKit          3D

 24 24  0  0  1  0  0  0  0  0999 V2000
   25.8529  -15.2818  -18.7733 C   0  0  0  0  0  0  0  0  0  0  0  0
   25.3096  -15.4970  -17.3784 C   0  0  0  0  0  0  0  0  0  0  0  0
   25.4206  -16.9371  -17.0068 C   0  0  2  0  0  0  0  0  0  0  0  0
   24.0930  -17.6329  -16.9532 C   0  0  0  0  0  0  0  0  0  0  0  0
   26.2719  -17.1480  -15.7730 C   0  0  2  0  0  0  0  0  0  0  0  0
   27.6412  -16.8163  -16.2275 N   0  0  0  0  0  0  0  0  0  0  0  0
   26.2379  -18.5185  -15.2445 C   0  0  0  0  0  0  0  0  0  0  0  0
   26.7896  -19.4449  -15.9287 O   0  0  0  0  0  0  0  0  0  0  0  0
   26.2704  -19.6519   -9.1726 C   0  0  0  0  0  0  0  0  0  0  0  0
   25.3527  -21.1647   -9.5603 S   0  0  0  0  0  0  0  0  0  0  0  0
   25.5061  -21.5358  -11.3600 C   0  0  0  0  0  0  0  0  0  0  0  0
   25.5204  -20.2465  -12.0581 C   0  0  0  0  0  0  0  0  0  0  0  0
   25.7089  -20.3474  -13.5657 C   0  0  2  0  0  0  0  0  0  0  0  0
   25.6416  -18.9163  -14.0250 N   0  0  0  0  0  0  0  0  0  0  0  0
   24.6538  -21.1034  -14.2311 C   0  0  0  0  0  0  0  0  0  0  0  0
   23.4811  -20.5629  -14.2164 O   0  0  0  0  0  0  0  0  0  0  0  0
   24.7288  -22.3516  -14.9027 N   0  0  0  0  0  0  0  0  0  0  0  0
   25.9552  -23.0894  -14.9750 C   0  0  0  0  0  0  0  0  0  0  0  0
   25.5059  -24.4934  -15.2977 C   0  0  0  0  0  0  0  0  0  0  0  0
   24.3157  -24.2402  -16.2410 C   0  0  0  0  0  0  0  0  0  0  0  0
   23.6851  -23.0215  -15.5616 C   0  0  1  0  0  0  0  0  0  0  0  0
   22.6139  -23.4917  -14.6212 C   0  0  0  0  0  0  0  0  0  0  0  0
   21.5211  -23.8642  -15.0931 O   0  0  0  0  0  0  0  0  0  0  0  0
   22.8466  -23.5055  -13.2794 O   0  0  0  0  0  0  0  0  0  0  0  0
  1  2  1  0
  3  2  1  0
  3  4  1  1
  5  3  1  0
  5  6  1  6
  7  8  2  0
  7  5  1  0
 10  9  1  0
 11 12  1  0
 11 10  1  0
 13 12  1  1
 13 15  1  0
 13 14  1  0
 14  7  1  0
 15 17  1  0
 16 15  2  0
 17 21  1  0
 17 18  1  0
 19 18  1  0
 20 19  1  0
 20 21  1  0
 21 22  1  1
 22 23  2  0
 22 24  1  0
M  END
$$$$
