IMP.pdb
     RDKit          3D

 24 24  0  0  1  0  0  0  0  0999 V2000
   19.1753  -22.4691  -14.8869 C   0  0  0  0  0  0  0  0  0  0  0  0
   19.2078  -20.9810  -14.6189 C   0  0  0  0  0  0  0  0  0  0  0  0
   20.6205  -20.5069  -14.5575 C   0  0  2  0  0  0  0  0  0  0  0  0
   21.3480  -20.6608  -15.8601 C   0  0  0  0  0  0  0  0  0  0  0  0
   21.3663  -21.0761  -13.3695 C   0  0  2  0  0  0  0  0  0  0  0  0
   20.5227  -20.7040  -12.2113 N   0  0  0  0  0  0  0  0  0  0  0  0
   22.7222  -20.5378  -13.1949 C   0  0  0  0  0  0  0  0  0  0  0  0
   22.9220  -19.3041  -13.4575 O   0  0  0  0  0  0  0  0  0  0  0  0
   28.1186  -20.9946   -9.0332 C   0  0  0  0  0  0  0  0  0  0  0  0
   26.3607  -21.3805   -8.8286 S   0  0  0  0  0  0  0  0  0  0  0  0
   25.3937  -20.5936  -10.1873 C   0  0  0  0  0  0  0  0  0  0  0  0
   25.8279  -21.2261  -11.4368 C   0  0  0  0  0  0  0  0  0  0  0  0
   25.2089  -20.6302  -12.6939 C   0  0  2  0  0  0  0  0  0  0  0  0
   23.8487  -21.2706  -12.7535 N   0  0  0  0  0  0  0  0  0  0  0  0
   25.9382  -20.9646  -13.9120 C   0  0  0  0  0  0  0  0  0  0  0  0
   25.8432  -22.1912  -14.3045 O   0  0  0  0  0  0  0  0  0  0  0  0
   26.7374  -20.1322  -14.7386 N   0  0  0  0  0  0  0  0  0  0  0  0
   27.0084  -18.7694  -14.3883 C   0  0  0  0  0  0  0  0  0  0  0  0
   28.2302  -18.4292  -15.2061 C   0  0  0  0  0  0  0  0  0  0  0  0
   27.9653  -19.1987  -16.5131 C   0  0  0  0  0  0  0  0  0  0  0  0
   27.3508  -20.4839  -15.9520 C   0  0  1  0  0  0  0  0  0  0  0  0
   28.4377  -21.5042  -15.7772 C   0  0  0  0  0  0  0  0  0  0  0  0
   28.8442  -21.7578  -14.6256 O   0  0  0  0  0  0  0  0  0  0  0  0
   28.9603  -22.1331  -16.8664 O   0  0  0  0  0  0  0  0  0  0  0  0
  1  2  1  0
  3  2  1  0
  3  4  1  6
  5  3  1  0
  5  6  1  1
  7  8  2  0
  7  5  1  0
 10  9  1  0
 11 12  1  0
 11 10  1  0
 13 12  1  1
 13 15  1  0
 13 14  1  0
 14  7  1  0
 15 17  1  0
 16 15  2  0
 17 21  1  0
 17 18  1  0
 19 18  1  0
 20 19  1  0
 20 21  1  0
 21 22  1  1
 22 23  2  0
 22 24  1  0
M  END
$$$$
