IMP.pdb
     RDKit          3D

 24 24  0  0  1  0  0  0  0  0999 V2000
   22.8931  -19.4367  -17.0264 C   0  0  0  0  0  0  0  0  0  0  0  0
   24.3711  -19.3040  -16.7348 C   0  0  0  0  0  0  0  0  0  0  0  0
   24.6843  -19.9143  -15.4106 C   0  0  2  0  0  0  0  0  0  0  0  0
   24.5779  -18.9395  -14.2756 C   0  0  0  0  0  0  0  0  0  0  0  0
   25.9830  -20.6919  -15.4291 C   0  0  2  0  0  0  0  0  0  0  0  0
   25.7095  -21.8146  -16.3544 N   0  0  0  0  0  0  0  0  0  0  0  0
   26.3927  -21.2122  -14.1175 C   0  0  0  0  0  0  0  0  0  0  0  0
   25.6994  -22.1484  -13.5945 O   0  0  0  0  0  0  0  0  0  0  0  0
   32.0928  -23.2750  -11.3987 C   0  0  0  0  0  0  0  0  0  0  0  0
   31.6420  -21.6691  -10.6924 S   0  0  0  0  0  0  0  0  0  0  0  0
   29.8079  -21.5544  -10.5405 C   0  0  0  0  0  0  0  0  0  0  0  0
   29.2855  -21.3187  -11.8901 C   0  0  0  0  0  0  0  0  0  0  0  0
   27.7658  -21.3038  -11.9847 C   0  0  2  0  0  0  0  0  0  0  0  0
   27.5048  -20.7666  -13.3657 N   0  0  0  0  0  0  0  0  0  0  0  0
   27.1344  -20.4201  -11.0109 C   0  0  0  0  0  0  0  0  0  0  0  0
   27.3587  -19.1584  -11.1695 O   0  0  0  0  0  0  0  0  0  0  0  0
   26.2986  -20.7456   -9.9108 N   0  0  0  0  0  0  0  0  0  0  0  0
   25.7879  -22.0717   -9.7264 C   0  0  0  0  0  0  0  0  0  0  0  0
   25.4062  -22.1049   -8.2667 C   0  0  0  0  0  0  0  0  0  0  0  0
   24.8728  -20.6781   -8.0425 C   0  0  0  0  0  0  0  0  0  0  0  0
   25.8648  -19.8804   -8.8933 C   0  0  1  0  0  0  0  0  0  0  0  0
   26.9875  -19.4104   -8.0150 C   0  0  0  0  0  0  0  0  0  0  0  0
   26.8135  -18.3980   -7.3074 O   0  0  0  0  0  0  0  0  0  0  0  0
   28.1688  -20.0880   -8.0020 O   0  0  0  0  0  0  0  0  0  0  0  0
  1  2  1  0
  3  2  1  0
  3  4  1  1
  5  3  1  0
  5  6  1  6
  7  8  2  0
  7  5  1  0
 10  9  1  0
 11 12  1  0
 11 10  1  0
 13 12  1  1
 13 15  1  0
 13 14  1  0
 14  7  1  0
 15 17  1  0
 16 15  2  0
 17 21  1  0
 17 18  1  0
 19 18  1  0
 20 19  1  0
 20 21  1  0
 21 22  1  1
 22 23  2  0
 22 24  1  0
M  END
$$$$
