IMP.pdb
     RDKit          3D

 24 24  0  0  1  0  0  0  0  0999 V2000
   20.6071  -20.2197  -16.1841 C   0  0  0  0  0  0  0  0  0  0  0  0
   21.9842  -19.6364  -15.9595 C   0  0  0  0  0  0  0  0  0  0  0  0
   22.6434  -20.3191  -14.8089 C   0  0  2  0  0  0  0  0  0  0  0  0
   22.4497  -19.5964  -13.5089 C   0  0  0  0  0  0  0  0  0  0  0  0
   24.0853  -20.6752  -15.1017 C   0  0  2  0  0  0  0  0  0  0  0  0
   23.9868  -21.7065  -16.1591 N   0  0  0  0  0  0  0  0  0  0  0  0
   24.8202  -21.2100  -13.9473 C   0  0  0  0  0  0  0  0  0  0  0  0
   24.4745  -22.3490  -13.4846 O   0  0  0  0  0  0  0  0  0  0  0  0
   30.6123  -22.5025  -13.3141 C   0  0  0  0  0  0  0  0  0  0  0  0
   30.5639  -21.5580  -11.7692 S   0  0  0  0  0  0  0  0  0  0  0  0
   28.8263  -21.4593  -11.1601 C   0  0  0  0  0  0  0  0  0  0  0  0
   27.9839  -21.1812  -12.3275 C   0  0  0  0  0  0  0  0  0  0  0  0
   26.4895  -21.1571  -12.0359 C   0  0  2  0  0  0  0  0  0  0  0  0
   25.8964  -20.5710  -13.2882 N   0  0  0  0  0  0  0  0  0  0  0  0
   26.1345  -20.3055  -10.9061 C   0  0  0  0  0  0  0  0  0  0  0  0
   26.3055  -19.0379  -11.0829 O   0  0  0  0  0  0  0  0  0  0  0  0
   25.6190  -20.6680   -9.6342 N   0  0  0  0  0  0  0  0  0  0  0  0
   25.2253  -22.0147   -9.3430 C   0  0  0  0  0  0  0  0  0  0  0  0
   25.2282  -22.0668   -7.8348 C   0  0  0  0  0  0  0  0  0  0  0  0
   24.7124  -20.6640   -7.4648 C   0  0  0  0  0  0  0  0  0  0  0  0
   25.4232  -19.8237   -8.5292 C   0  0  1  0  0  0  0  0  0  0  0  0
   26.7123  -19.3087   -7.9583 C   0  0  0  0  0  0  0  0  0  0  0  0
   27.7815  -19.8492   -8.3051 O   0  0  0  0  0  0  0  0  0  0  0  0
   26.6980  -18.2691   -7.0785 O   0  0  0  0  0  0  0  0  0  0  0  0
  1  2  1  0
  3  2  1  0
  3  4  1  1
  5  3  1  0
  5  6  1  6
  7  8  2  0
  7  5  1  0
 10  9  1  0
 11 12  1  0
 11 10  1  0
 13 12  1  6
 13 15  1  0
 13 14  1  0
 14  7  1  0
 15 17  1  0
 16 15  2  0
 17 21  1  0
 17 18  1  0
 19 18  1  0
 20 19  1  0
 20 21  1  0
 21 22  1  1
 22 23  2  0
 22 24  1  0
M  END
$$$$
