IMP.pdb
     RDKit          3D

 24 24  0  0  1  0  0  0  0  0999 V2000
   19.2724  -21.8078  -14.9374 C   0  0  0  0  0  0  0  0  0  0  0  0
   19.6597  -21.6155  -13.4882 C   0  0  0  0  0  0  0  0  0  0  0  0
   21.0845  -21.1842  -13.3963 C   0  0  2  0  0  0  0  0  0  0  0  0
   22.0081  -22.0314  -14.2202 C   0  0  0  0  0  0  0  0  0  0  0  0
   21.5378  -21.0006  -11.9637 C   0  0  2  0  0  0  0  0  0  0  0  0
   20.5287  -20.0827  -11.3886 N   0  0  0  0  0  0  0  0  0  0  0  0
   22.8800  -20.4191  -11.8261 C   0  0  0  0  0  0  0  0  0  0  0  0
   23.0972  -19.2701  -12.3394 O   0  0  0  0  0  0  0  0  0  0  0  0
   26.8954  -19.4781   -6.8453 C   0  0  0  0  0  0  0  0  0  0  0  0
   27.7583  -20.6688   -7.9031 S   0  0  0  0  0  0  0  0  0  0  0  0
   27.3336  -20.3474   -9.6685 C   0  0  0  0  0  0  0  0  0  0  0  0
   25.9415  -20.7695   -9.8524 C   0  0  0  0  0  0  0  0  0  0  0  0
   25.3391  -20.3884  -11.1979 C   0  0  2  0  0  0  0  0  0  0  0  0
   23.9751  -21.0225  -11.1648 N   0  0  0  0  0  0  0  0  0  0  0  0
   26.0781  -20.9252  -12.3352 C   0  0  0  0  0  0  0  0  0  0  0  0
   26.1920  -22.2109  -12.3745 O   0  0  0  0  0  0  0  0  0  0  0  0
   26.6891  -20.2372  -13.4160 N   0  0  0  0  0  0  0  0  0  0  0  0
   26.6712  -18.8067  -13.4977 C   0  0  0  0  0  0  0  0  0  0  0  0
   27.7975  -18.4917  -14.4513 C   0  0  0  0  0  0  0  0  0  0  0  0
   27.7004  -19.6536  -15.4569 C   0  0  0  0  0  0  0  0  0  0  0  0
   27.3643  -20.8070  -14.5077 C   0  0  1  0  0  0  0  0  0  0  0  0
   28.6387  -21.4915  -14.1072 C   0  0  0  0  0  0  0  0  0  0  0  0
   29.0740  -21.3220  -12.9506 O   0  0  0  0  0  0  0  0  0  0  0  0
   29.2961  -22.2802  -15.0020 O   0  0  0  0  0  0  0  0  0  0  0  0
  1  2  1  0
  3  2  1  0
  3  4  1  1
  5  3  1  0
  5  6  1  1
  7  8  2  0
  7  5  1  0
 10  9  1  0
 11 12  1  0
 11 10  1  0
 13 12  1  1
 13 15  1  0
 13 14  1  0
 14  7  1  0
 15 17  1  0
 16 15  2  0
 17 21  1  0
 17 18  1  0
 19 18  1  0
 20 19  1  0
 20 21  1  0
 21 22  1  1
 22 23  2  0
 22 24  1  0
M  END
$$$$
