IMP.pdb
     RDKit          3D

 24 24  0  0  1  0  0  0  0  0999 V2000
   19.1949  -21.3747  -16.8177 C   0  0  0  0  0  0  0  0  0  0  0  0
   19.6202  -21.5349  -15.3753 C   0  0  0  0  0  0  0  0  0  0  0  0
   20.9900  -20.9767  -15.1847 C   0  0  2  0  0  0  0  0  0  0  0  0
   22.0161  -21.6277  -16.0639 C   0  0  0  0  0  0  0  0  0  0  0  0
   21.3867  -20.9135  -13.7252 C   0  0  2  0  0  0  0  0  0  0  0  0
   20.3981  -19.9860  -13.1302 N   0  0  0  0  0  0  0  0  0  0  0  0
   22.7478  -20.4120  -13.4918 C   0  0  0  0  0  0  0  0  0  0  0  0
   23.0041  -19.1966  -13.7883 O   0  0  0  0  0  0  0  0  0  0  0  0
   27.0372  -20.1831   -8.1747 C   0  0  0  0  0  0  0  0  0  0  0  0
   25.8256  -21.3620   -8.8255 S   0  0  0  0  0  0  0  0  0  0  0  0
   24.9783  -20.6307  -10.2910 C   0  0  0  0  0  0  0  0  0  0  0  0
   25.6820  -21.1271  -11.4778 C   0  0  0  0  0  0  0  0  0  0  0  0
   25.1848  -20.5467  -12.7948 C   0  0  2  0  0  0  0  0  0  0  0  0
   23.8216  -21.1621  -12.9579 N   0  0  0  0  0  0  0  0  0  0  0  0
   26.0081  -20.9212  -13.9392 C   0  0  0  0  0  0  0  0  0  0  0  0
   25.9644  -22.1662  -14.2789 O   0  0  0  0  0  0  0  0  0  0  0  0
   26.8511  -20.1108  -14.7438 N   0  0  0  0  0  0  0  0  0  0  0  0
   27.0838  -18.7320  -14.4306 C   0  0  0  0  0  0  0  0  0  0  0  0
   28.3531  -18.4075  -15.1794 C   0  0  0  0  0  0  0  0  0  0  0  0
   28.1833  -19.2304  -16.4696 C   0  0  0  0  0  0  0  0  0  0  0  0
   27.5468  -20.5009  -15.8997 C   0  0  1  0  0  0  0  0  0  0  0  0
   28.6307  -21.4992  -15.6140 C   0  0  0  0  0  0  0  0  0  0  0  0
   28.9341  -21.7335  -14.4271 O   0  0  0  0  0  0  0  0  0  0  0  0
   29.2620  -22.1293  -16.6432 O   0  0  0  0  0  0  0  0  0  0  0  0
  1  2  1  0
  3  2  1  0
  3  4  1  6
  5  3  1  0
  5  6  1  1
  7  8  2  0
  7  5  1  0
 10  9  1  0
 11 12  1  0
 11 10  1  0
 13 12  1  1
 13 15  1  0
 13 14  1  0
 14  7  1  0
 15 17  1  0
 16 15  2  0
 17 21  1  0
 17 18  1  0
 19 18  1  0
 20 19  1  0
 20 21  1  0
 21 22  1  1
 22 23  2  0
 22 24  1  0
M  END
$$$$
