IMP.pdb
     RDKit          3D

 24 24  0  0  1  0  0  0  0  0999 V2000
   19.1263  -21.8941  -17.2636 C   0  0  0  0  0  0  0  0  0  0  0  0
   19.3558  -21.8325  -15.7701 C   0  0  0  0  0  0  0  0  0  0  0  0
   20.6539  -21.1563  -15.4832 C   0  0  2  0  0  0  0  0  0  0  0  0
   21.7949  -21.7152  -16.2803 C   0  0  0  0  0  0  0  0  0  0  0  0
   20.9348  -21.0583  -13.9989 C   0  0  2  0  0  0  0  0  0  0  0  0
   19.8305  -20.2169  -13.4852 N   0  0  0  0  0  0  0  0  0  0  0  0
   22.2280  -20.4435  -13.6698 C   0  0  0  0  0  0  0  0  0  0  0  0
   22.4136  -19.2197  -13.9837 O   0  0  0  0  0  0  0  0  0  0  0  0
   24.8827  -21.2626   -8.5500 C   0  0  0  0  0  0  0  0  0  0  0  0
   26.4172  -20.5055   -9.1443 S   0  0  0  0  0  0  0  0  0  0  0  0
   26.3098  -20.2408  -10.9660 C   0  0  0  0  0  0  0  0  0  0  0  0
   24.9971  -20.7385  -11.3892 C   0  0  0  0  0  0  0  0  0  0  0  0
   24.6194  -20.3837  -12.8210 C   0  0  2  0  0  0  0  0  0  0  0  0
   23.3070  -21.0910  -13.0239 N   0  0  0  0  0  0  0  0  0  0  0  0
   25.5738  -20.8739  -13.8092 C   0  0  0  0  0  0  0  0  0  0  0  0
   25.6328  -22.1567  -13.9447 O   0  0  0  0  0  0  0  0  0  0  0  0
   26.4486  -20.1422  -14.6542 N   0  0  0  0  0  0  0  0  0  0  0  0
   26.6646  -18.7375  -14.4705 C   0  0  0  0  0  0  0  0  0  0  0  0
   27.9641  -18.4809  -15.1935 C   0  0  0  0  0  0  0  0  0  0  0  0
   27.8515  -19.4293  -16.4012 C   0  0  0  0  0  0  0  0  0  0  0  0
   27.1941  -20.6409  -15.7348 C   0  0  1  0  0  0  0  0  0  0  0  0
   28.2671  -21.5986  -15.3052 C   0  0  0  0  0  0  0  0  0  0  0  0
   28.5582  -21.6711  -14.0946 O   0  0  0  0  0  0  0  0  0  0  0  0
   28.9018  -22.3678  -16.2328 O   0  0  0  0  0  0  0  0  0  0  0  0
  1  2  1  0
  3  2  1  0
  3  4  1  6
  5  3  1  0
  5  6  1  1
  7  8  2  0
  7  5  1  0
 10  9  1  0
 11 12  1  0
 11 10  1  0
 13 12  1  1
 13 15  1  0
 13 14  1  0
 14  7  1  0
 15 17  1  0
 16 15  2  0
 17 21  1  0
 17 18  1  0
 19 18  1  0
 20 19  1  0
 20 21  1  0
 21 22  1  1
 22 23  2  0
 22 24  1  0
M  END
$$$$
