IMP.pdb
     RDKit          3D

 24 24  0  0  1  0  0  0  0  0999 V2000
   27.2657  -15.3957  -17.6924 C   0  0  0  0  0  0  0  0  0  0  0  0
   26.8754  -15.4398  -16.2320 C   0  0  0  0  0  0  0  0  0  0  0  0
   26.3992  -16.8072  -15.8746 C   0  0  2  0  0  0  0  0  0  0  0  0
   25.0225  -16.8119  -15.2794 C   0  0  0  0  0  0  0  0  0  0  0  0
   27.4192  -17.5767  -15.0627 C   0  0  2  0  0  0  0  0  0  0  0  0
   28.4771  -17.9055  -16.0445 N   0  0  0  0  0  0  0  0  0  0  0  0
   26.8996  -18.8091  -14.4545 C   0  0  0  0  0  0  0  0  0  0  0  0
   26.7280  -19.8283  -15.2044 O   0  0  0  0  0  0  0  0  0  0  0  0
   27.1191  -20.0706   -8.2255 C   0  0  0  0  0  0  0  0  0  0  0  0
   25.4909  -20.7950   -8.5501 S   0  0  0  0  0  0  0  0  0  0  0  0
   25.3393  -21.1940  -10.3440 C   0  0  0  0  0  0  0  0  0  0  0  0
   25.9830  -20.0992  -11.0768 C   0  0  0  0  0  0  0  0  0  0  0  0
   26.0099  -20.2817  -12.5883 C   0  0  2  0  0  0  0  0  0  0  0  0
   26.5665  -18.9770  -13.0901 N   0  0  0  0  0  0  0  0  0  0  0  0
   24.6874  -20.4819  -13.1702 C   0  0  0  0  0  0  0  0  0  0  0  0
   23.8852  -19.4723  -13.1018 O   0  0  0  0  0  0  0  0  0  0  0  0
   24.1515  -21.6296  -13.8108 N   0  0  0  0  0  0  0  0  0  0  0  0
   24.9566  -22.7866  -14.0685 C   0  0  0  0  0  0  0  0  0  0  0  0
   23.9429  -23.8857  -14.2728 C   0  0  0  0  0  0  0  0  0  0  0  0
   22.8113  -23.1452  -15.0088 C   0  0  0  0  0  0  0  0  0  0  0  0
   22.8348  -21.8064  -14.2662 C   0  0  1  0  0  0  0  0  0  0  0  0
   21.8365  -21.8562  -13.1465 C   0  0  0  0  0  0  0  0  0  0  0  0
   22.2509  -21.9871  -11.9774 O   0  0  0  0  0  0  0  0  0  0  0  0
   20.5056  -21.7588  -13.4186 O   0  0  0  0  0  0  0  0  0  0  0  0
  1  2  1  0
  3  2  1  0
  3  4  1  1
  5  3  1  0
  5  6  1  6
  7  8  2  0
  7  5  1  0
 10  9  1  0
 11 12  1  0
 11 10  1  0
 13 12  1  1
 13 15  1  0
 13 14  1  0
 14  7  1  0
 15 17  1  0
 16 15  2  0
 17 21  1  0
 17 18  1  0
 19 18  1  0
 20 19  1  0
 20 21  1  0
 21 22  1  1
 22 23  2  0
 22 24  1  0
M  END
$$$$
