IMP.pdb
     RDKit          3D

 24 24  0  0  1  0  0  0  0  0999 V2000
   21.1729  -15.5539  -17.8961 C   0  0  0  0  0  0  0  0  0  0  0  0
   20.8558  -15.6398  -16.4199 C   0  0  0  0  0  0  0  0  0  0  0  0
   22.0641  -16.0819  -15.6658 C   0  0  2  0  0  0  0  0  0  0  0  0
   23.1161  -15.0173  -15.5674 C   0  0  0  0  0  0  0  0  0  0  0  0
   22.5881  -17.4164  -16.1517 C   0  0  2  0  0  0  0  0  0  0  0  0
   21.4248  -18.3223  -16.0191 N   0  0  0  0  0  0  0  0  0  0  0  0
   23.7206  -17.9383  -15.3746 C   0  0  0  0  0  0  0  0  0  0  0  0
   24.8426  -17.3345  -15.4601 O   0  0  0  0  0  0  0  0  0  0  0  0
   24.2437  -20.1751   -9.8201 C   0  0  0  0  0  0  0  0  0  0  0  0
   25.8199  -20.5735  -10.6188 S   0  0  0  0  0  0  0  0  0  0  0  0
   25.5010  -21.4000  -12.2361 C   0  0  0  0  0  0  0  0  0  0  0  0
   24.4445  -20.6321  -12.9025 C   0  0  0  0  0  0  0  0  0  0  0  0
   24.9483  -19.6179  -13.9205 C   0  0  2  0  0  0  0  0  0  0  0  0
   23.6845  -19.0671  -14.5230 N   0  0  0  0  0  0  0  0  0  0  0  0
   25.7523  -20.2142  -14.9816 C   0  0  0  0  0  0  0  0  0  0  0  0
   25.1411  -21.0614  -15.7405 O   0  0  0  0  0  0  0  0  0  0  0  0
   27.1158  -19.9932  -15.3084 N   0  0  0  0  0  0  0  0  0  0  0  0
   27.9091  -19.0342  -14.5983 C   0  0  0  0  0  0  0  0  0  0  0  0
   29.3269  -19.4589  -14.8928 C   0  0  0  0  0  0  0  0  0  0  0  0
   29.2216  -19.9365  -16.3528 C   0  0  0  0  0  0  0  0  0  0  0  0
   27.8593  -20.6341  -16.3128 C   0  0  1  0  0  0  0  0  0  0  0  0
   28.0707  -22.0938  -16.0347 C   0  0  0  0  0  0  0  0  0  0  0  0
   27.7823  -22.5383  -14.9055 O   0  0  0  0  0  0  0  0  0  0  0  0
   28.5692  -22.9053  -17.0082 O   0  0  0  0  0  0  0  0  0  0  0  0
  1  2  1  0
  3  2  1  0
  3  4  1  6
  5  3  1  0
  5  6  1  1
  7  8  2  0
  7  5  1  0
 10  9  1  0
 11 12  1  0
 11 10  1  0
 13 12  1  1
 13 15  1  0
 13 14  1  0
 14  7  1  0
 15 17  1  0
 16 15  2  0
 17 21  1  0
 17 18  1  0
 19 18  1  0
 20 19  1  0
 20 21  1  0
 21 22  1  1
 22 23  2  0
 22 24  1  0
M  END
$$$$
