IMP.pdb
     RDKit          3D

 24 24  0  0  1  0  0  0  0  0999 V2000
   28.7327  -20.6681  -15.5236 C   0  0  0  0  0  0  0  0  0  0  0  0
   27.4301  -21.0347  -14.8484 C   0  0  0  0  0  0  0  0  0  0  0  0
   27.3870  -20.4504  -13.4769 C   0  0  2  0  0  0  0  0  0  0  0  0
   28.6456  -20.6908  -12.6971 C   0  0  0  0  0  0  0  0  0  0  0  0
   26.1244  -20.8270  -12.7314 C   0  0  2  0  0  0  0  0  0  0  0  0
   25.0368  -20.3989  -13.6398 N   0  0  0  0  0  0  0  0  0  0  0  0
   25.9758  -20.1681  -11.4266 C   0  0  0  0  0  0  0  0  0  0  0  0
   25.9605  -18.8916  -11.3915 O   0  0  0  0  0  0  0  0  0  0  0  0
   21.8268  -21.7663   -7.5122 C   0  0  0  0  0  0  0  0  0  0  0  0
   21.6309  -20.2742   -8.5204 S   0  0  0  0  0  0  0  0  0  0  0  0
   23.2376  -19.8558   -9.3227 C   0  0  0  0  0  0  0  0  0  0  0  0
   24.2949  -20.3584   -8.4399 C   0  0  0  0  0  0  0  0  0  0  0  0
   25.7095  -20.0412   -8.9055 C   0  0  2  0  0  0  0  0  0  0  0  0
   25.8439  -20.8267  -10.1818 N   0  0  0  0  0  0  0  0  0  0  0  0
   26.7387  -20.4845   -7.9718 C   0  0  0  0  0  0  0  0  0  0  0  0
   27.0000  -21.7491   -7.9830 O   0  0  0  0  0  0  0  0  0  0  0  0
   27.5050  -19.7234   -7.0507 N   0  0  0  0  0  0  0  0  0  0  0  0
   27.5034  -18.2908   -7.0808 C   0  0  0  0  0  0  0  0  0  0  0  0
   27.9972  -17.9067   -5.7075 C   0  0  0  0  0  0  0  0  0  0  0  0
   29.0426  -19.0012   -5.4252 C   0  0  0  0  0  0  0  0  0  0  0  0
   28.3339  -20.2163   -6.0298 C   0  0  1  0  0  0  0  0  0  0  0  0
   27.5653  -20.9167   -4.9474 C   0  0  0  0  0  0  0  0  0  0  0  0
   26.3189  -20.8797   -4.9752 O   0  0  0  0  0  0  0  0  0  0  0  0
   28.2316  -21.5764   -3.9596 O   0  0  0  0  0  0  0  0  0  0  0  0
  1  2  1  0
  3  2  1  0
  3  4  1  1
  5  3  1  0
  5  6  1  6
  7  8  2  0
  7  5  1  0
 10  9  1  0
 11 12  1  0
 11 10  1  0
 13 12  1  1
 13 15  1  0
 13 14  1  0
 14  7  1  0
 15 17  1  0
 16 15  2  0
 17 21  1  0
 17 18  1  0
 19 18  1  0
 20 19  1  0
 20 21  1  0
 21 22  1  1
 22 23  2  0
 22 24  1  0
M  END
$$$$
