IMP.pdb
     RDKit          3D

 24 24  0  0  1  0  0  0  0  0999 V2000
   18.3833  -16.0096  -19.2597 C   0  0  0  0  0  0  0  0  0  0  0  0
   19.7312  -16.3936  -18.6914 C   0  0  0  0  0  0  0  0  0  0  0  0
   20.2213  -15.3212  -17.7781 C   0  0  2  0  0  0  0  0  0  0  0  0
   20.1526  -13.9533  -18.3895 C   0  0  0  0  0  0  0  0  0  0  0  0
   21.5685  -15.6536  -17.1728 C   0  0  2  0  0  0  0  0  0  0  0  0
   21.3150  -16.8944  -16.4062 N   0  0  0  0  0  0  0  0  0  0  0  0
   22.1015  -14.6142  -16.2815 C   0  0  0  0  0  0  0  0  0  0  0  0
   21.4706  -14.3624  -15.2002 O   0  0  0  0  0  0  0  0  0  0  0  0
   28.3978  -12.4407  -15.4189 C   0  0  0  0  0  0  0  0  0  0  0  0
   27.5716  -14.0434  -15.5913 S   0  0  0  0  0  0  0  0  0  0  0  0
   25.8498  -13.9234  -14.9423 C   0  0  0  0  0  0  0  0  0  0  0  0
   25.2138  -12.7987  -15.6354 C   0  0  0  0  0  0  0  0  0  0  0  0
   23.6939  -12.7799  -15.5452 C   0  0  2  0  0  0  0  0  0  0  0  0
   23.2711  -13.8526  -16.5116 N   0  0  0  0  0  0  0  0  0  0  0  0
   23.1054  -11.5128  -15.9643 C   0  0  0  0  0  0  0  0  0  0  0  0
   23.1364  -11.2715  -17.2325 O   0  0  0  0  0  0  0  0  0  0  0  0
   22.4935  -10.5019  -15.1779 N   0  0  0  0  0  0  0  0  0  0  0  0
   22.2794  -10.6755  -13.7717 C   0  0  0  0  0  0  0  0  0  0  0  0
   22.0969   -9.2661  -13.2641 C   0  0  0  0  0  0  0  0  0  0  0  0
   21.3267   -8.6057  -14.4222 C   0  0  0  0  0  0  0  0  0  0  0  0
   22.0291   -9.2522  -15.6192 C   0  0  1  0  0  0  0  0  0  0  0  0
   23.1388   -8.3499  -16.0747 C   0  0  0  0  0  0  0  0  0  0  0  0
   22.8488   -7.3037  -16.6888 O   0  0  0  0  0  0  0  0  0  0  0  0
   24.4338   -8.6816  -15.8144 O   0  0  0  0  0  0  0  0  0  0  0  0
  1  2  1  0
  3  2  1  0
  3  4  1  6
  5  3  1  0
  5  6  1  1
  7  8  2  0
  7  5  1  0
 10  9  1  0
 11 12  1  0
 11 10  1  0
 13 12  1  6
 13 15  1  0
 13 14  1  0
 14  7  1  0
 15 17  1  0
 16 15  2  0
 17 21  1  0
 17 18  1  0
 19 18  1  0
 20 19  1  0
 20 21  1  0
 21 22  1  1
 22 23  2  0
 22 24  1  0
M  END
$$$$
