DTS.pdb
     RDKit          3D

 22 21  0  0  1  0  0  0  0  0999 V2000
   10.4248  -16.9763   17.5805 N   0  0  0  0  0  0  0  0  0  0  0  0
    9.8668  -17.6968   18.6819 C   0  0  1  0  0  0  0  0  0  0  0  0
   10.5250  -19.0450   18.9078 C   0  0  0  0  0  0  0  0  0  0  0  0
   10.4904  -19.8592   17.6756 C   0  0  0  0  0  0  0  0  0  0  0  0
   11.3899  -20.7120   17.4576 O   0  0  0  0  0  0  0  0  0  0  0  0
    9.8926  -16.8602   19.8890 C   0  0  0  0  0  0  0  0  0  0  0  0
   10.9490  -16.2479   20.1845 O   0  0  0  0  0  0  0  0  0  0  0  0
    9.4812  -19.7073   16.7393 O   0  0  0  0  0  0  0  0  0  0  0  0
    7.5779  -14.0088   20.7267 C   0  0  0  0  0  0  0  0  0  0  0  0
    7.6866  -14.8401   21.9680 C   0  0  1  0  0  0  0  0  0  0  0  0
    6.4675  -15.4946   22.1379 O   0  0  0  0  0  0  0  0  0  0  0  0
    8.8357  -15.8230   21.9072 C   0  0  2  0  0  0  0  0  0  0  0  0
    8.7796  -16.6874   20.7731 N   0  0  0  0  0  0  0  0  0  0  0  0
    8.9507  -16.5803   23.1781 C   0  0  0  0  0  0  0  0  0  0  0  0
    8.3445  -17.6722   23.2626 O   0  0  0  0  0  0  0  0  0  0  0  0
   11.9658  -17.7840   24.7857 O   0  0  0  0  0  0  0  0  0  0  0  0
   10.6757  -18.1538   25.2087 C   0  0  0  0  0  0  0  0  0  0  0  0
    9.9450  -16.8451   25.4813 C   0  0  2  0  0  0  0  0  0  0  0  0
    9.7133  -16.1067   24.2718 N   0  0  0  0  0  0  0  0  0  0  0  0
   10.6374  -16.0573   26.5251 C   0  0  0  0  0  0  0  0  0  0  0  0
   10.8528  -16.6068   27.6344 O   0  0  0  0  0  0  0  0  0  0  0  0
   11.0707  -14.7479   26.3728 O   0  0  0  0  0  0  0  0  0  0  0  0
  2  1  1  6
  2  3  1  0
  3  4  1  0
  4  5  2  0
  4  8  1  0
  6 13  1  0
  6  2  1  0
  7  6  2  0
 10  9  1  6
 10 12  1  0
 11 10  1  0
 12 13  1  6
 12 14  1  0
 14 19  1  0
 14 15  2  0
 17 16  1  0
 18 17  1  6
 19 18  1  0
 20 18  1  0
 20 22  1  0
 21 20  2  0
M  END
$$$$
