DTS.pdb
     RDKit          3D

 22 21  0  0  1  0  0  0  0  0999 V2000
    8.9230  -17.1584   16.4449 N   0  0  0  0  0  0  0  0  0  0  0  0
    8.1296  -17.2363   17.6316 C   0  0  1  0  0  0  0  0  0  0  0  0
    7.8026  -18.6609   18.0382 C   0  0  0  0  0  0  0  0  0  0  0  0
    6.7339  -19.2185   17.1841 C   0  0  0  0  0  0  0  0  0  0  0  0
    6.3239  -18.5730   16.1846 O   0  0  0  0  0  0  0  0  0  0  0  0
    8.7796  -16.4876   18.7155 C   0  0  0  0  0  0  0  0  0  0  0  0
    9.9229  -16.0041   18.5228 O   0  0  0  0  0  0  0  0  0  0  0  0
    6.1616  -20.4499   17.4574 O   0  0  0  0  0  0  0  0  0  0  0  0
    7.8016  -13.3782   20.5252 C   0  0  0  0  0  0  0  0  0  0  0  0
    8.1208  -14.3865   21.5859 C   0  0  1  0  0  0  0  0  0  0  0  0
    6.9138  -14.7804   22.1615 O   0  0  0  0  0  0  0  0  0  0  0  0
    8.8861  -15.5741   21.0436 C   0  0  2  0  0  0  0  0  0  0  0  0
    8.1945  -16.2638   20.0031 N   0  0  0  0  0  0  0  0  0  0  0  0
    9.2918  -16.4867   22.1410 C   0  0  0  0  0  0  0  0  0  0  0  0
    8.6582  -17.5583   22.2721 O   0  0  0  0  0  0  0  0  0  0  0  0
   12.9897  -16.2841   23.7789 O   0  0  0  0  0  0  0  0  0  0  0  0
   12.2461  -17.4739   23.8858 C   0  0  0  0  0  0  0  0  0  0  0  0
   10.8011  -17.0351   24.0865 C   0  0  2  0  0  0  0  0  0  0  0  0
   10.3551  -16.1800   23.0226 N   0  0  0  0  0  0  0  0  0  0  0  0
   10.6057  -16.4482   25.4308 C   0  0  0  0  0  0  0  0  0  0  0  0
   10.1678  -15.2727   25.5042 O   0  0  0  0  0  0  0  0  0  0  0  0
   10.8708  -17.1004   26.6264 O   0  0  0  0  0  0  0  0  0  0  0  0
  2  1  1  6
  2  3  1  0
  3  4  1  0
  4  5  2  0
  4  8  1  0
  6 13  1  0
  6  2  1  0
  7  6  2  0
 10  9  1  6
 10 12  1  0
 11 10  1  0
 12 13  1  6
 12 14  1  0
 14 19  1  0
 14 15  2  0
 17 16  1  0
 18 17  1  6
 19 18  1  0
 20 18  1  0
 20 22  1  0
 21 20  2  0
M  END
$$$$
