DTS.pdb
     RDKit          3D

 22 21  0  0  1  0  0  0  0  0999 V2000
   12.2502  -16.2364   17.9132 N   0  0  0  0  0  0  0  0  0  0  0  0
   12.9625  -15.2581   18.6742 C   0  0  1  0  0  0  0  0  0  0  0  0
   13.7487  -14.2881   17.8122 C   0  0  0  0  0  0  0  0  0  0  0  0
   14.9192  -14.9547   17.2056 C   0  0  0  0  0  0  0  0  0  0  0  0
   15.2466  -16.1128   17.5737 O   0  0  0  0  0  0  0  0  0  0  0  0
   12.0400  -14.5660   19.5840 C   0  0  0  0  0  0  0  0  0  0  0  0
   12.4686  -13.6088   20.2756 O   0  0  0  0  0  0  0  0  0  0  0  0
   15.6781  -14.3311   16.2291 O   0  0  0  0  0  0  0  0  0  0  0  0
    8.5131  -13.0150   18.9204 C   0  0  0  0  0  0  0  0  0  0  0  0
    8.4440  -13.9141   20.1164 C   0  0  1  0  0  0  0  0  0  0  0  0
    7.7681  -15.0701   19.7288 O   0  0  0  0  0  0  0  0  0  0  0  0
    9.8120  -14.2376   20.6769 C   0  0  2  0  0  0  0  0  0  0  0  0
   10.6592  -14.9091   19.7452 N   0  0  0  0  0  0  0  0  0  0  0  0
    9.6966  -14.9785   21.9572 C   0  0  0  0  0  0  0  0  0  0  0  0
   10.3287  -16.0534   22.0675 O   0  0  0  0  0  0  0  0  0  0  0  0
    7.9183  -13.1507   24.9736 O   0  0  0  0  0  0  0  0  0  0  0  0
    7.6623  -14.5241   25.1412 C   0  0  0  0  0  0  0  0  0  0  0  0
    8.6661  -15.2384   24.2450 C   0  0  2  0  0  0  0  0  0  0  0  0
    8.9061  -14.5080   23.0322 N   0  0  0  0  0  0  0  0  0  0  0  0
    8.2652  -16.6438   24.0128 C   0  0  0  0  0  0  0  0  0  0  0  0
    8.0644  -17.3742   25.0153 O   0  0  0  0  0  0  0  0  0  0  0  0
    8.0927  -17.2226   22.7636 O   0  0  0  0  0  0  0  0  0  0  0  0
  2  1  1  6
  2  3  1  0
  3  4  1  0
  4  5  2  0
  4  8  1  0
  6 13  1  0
  6  2  1  0
  7  6  2  0
 10  9  1  6
 10 12  1  0
 11 10  1  0
 12 13  1  6
 12 14  1  0
 14 19  1  0
 14 15  2  0
 17 16  1  0
 18 17  1  6
 19 18  1  0
 20 18  1  0
 20 22  1  0
 21 20  2  0
M  END
$$$$
