DTS.pdb
     RDKit          3D

 22 21  0  0  1  0  0  0  0  0999 V2000
   -8.2399  -22.6754   26.9459 N   0  0  0  0  0  0  0  0  0  0  0  0
   -7.1936  -22.5607   27.9132 C   0  0  1  0  0  0  0  0  0  0  0  0
   -7.6047  -23.0317   29.2957 C   0  0  0  0  0  0  0  0  0  0  0  0
   -8.7453  -22.2410   29.8020 C   0  0  0  0  0  0  0  0  0  0  0  0
   -8.7324  -20.9858   29.7115 O   0  0  0  0  0  0  0  0  0  0  0  0
   -5.9902  -23.2506   27.4297 C   0  0  0  0  0  0  0  0  0  0  0  0
   -6.1035  -24.1100   26.5204 O   0  0  0  0  0  0  0  0  0  0  0  0
   -9.8443  -22.8517   30.3831 O   0  0  0  0  0  0  0  0  0  0  0  0
   -3.2349  -22.3157   25.4028 C   0  0  0  0  0  0  0  0  0  0  0  0
   -2.5872  -22.8731   26.6330 C   0  0  1  0  0  0  0  0  0  0  0  0
   -2.1099  -21.7947   27.3763 O   0  0  0  0  0  0  0  0  0  0  0  0
   -3.5331  -23.7283   27.4478 C   0  0  2  0  0  0  0  0  0  0  0  0
   -4.6696  -23.0116   27.9288 N   0  0  0  0  0  0  0  0  0  0  0  0
   -2.8090  -24.4211   28.5421 C   0  0  0  0  0  0  0  0  0  0  0  0
   -3.2669  -24.3152   29.7024 O   0  0  0  0  0  0  0  0  0  0  0  0
   -1.5492  -27.9482   28.5412 O   0  0  0  0  0  0  0  0  0  0  0  0
   -1.5312  -27.1799   29.7200 C   0  0  0  0  0  0  0  0  0  0  0  0
   -0.8891  -25.8538   29.3327 C   0  0  2  0  0  0  0  0  0  0  0  0
   -1.6390  -25.1818   28.3090 N   0  0  0  0  0  0  0  0  0  0  0  0
    0.5389  -26.0348   28.9895 C   0  0  0  0  0  0  0  0  0  0  0  0
    0.9102  -25.7324   27.8278 O   0  0  0  0  0  0  0  0  0  0  0  0
    1.5077  -26.5169   29.8580 O   0  0  0  0  0  0  0  0  0  0  0  0
  2  1  1  6
  2  3  1  0
  3  4  1  0
  4  5  2  0
  4  8  1  0
  6 13  1  0
  6  2  1  0
  7  6  2  0
 10  9  1  6
 10 12  1  0
 11 10  1  0
 12 13  1  1
 12 14  1  0
 14 19  1  0
 14 15  2  0
 17 16  1  0
 18 17  1  6
 19 18  1  0
 20 18  1  0
 20 22  1  0
 21 20  2  0
M  END
$$$$
