DTS.pdb
     RDKit          3D

 22 21  0  0  1  0  0  0  0  0999 V2000
   11.3139  -17.1755   18.3644 N   0  0  0  0  0  0  0  0  0  0  0  0
   11.1299  -17.6394   19.7040 C   0  0  1  0  0  0  0  0  0  0  0  0
   12.3768  -18.2723   20.2928 C   0  0  0  0  0  0  0  0  0  0  0  0
   12.8364  -19.4016   19.4586 C   0  0  0  0  0  0  0  0  0  0  0  0
   12.0503  -20.3463   19.1873 O   0  0  0  0  0  0  0  0  0  0  0  0
   10.6152  -16.5488   20.5427 C   0  0  0  0  0  0  0  0  0  0  0  0
   11.2023  -15.4383   20.5276 O   0  0  0  0  0  0  0  0  0  0  0  0
   14.1277  -19.4509   18.9601 O   0  0  0  0  0  0  0  0  0  0  0  0
    7.0959  -15.0424   20.5589 C   0  0  0  0  0  0  0  0  0  0  0  0
    7.4771  -15.3457   21.9754 C   0  0  1  0  0  0  0  0  0  0  0  0
    6.7608  -16.4762   22.3656 O   0  0  0  0  0  0  0  0  0  0  0  0
    8.9669  -15.5529   22.1419 C   0  0  2  0  0  0  0  0  0  0  0  0
    9.4697  -16.6599   21.3946 N   0  0  0  0  0  0  0  0  0  0  0  0
    9.3307  -15.6404   23.5778 C   0  0  0  0  0  0  0  0  0  0  0  0
    9.8856  -16.6897   23.9754 O   0  0  0  0  0  0  0  0  0  0  0  0
    7.7349  -12.9408   26.1245 O   0  0  0  0  0  0  0  0  0  0  0  0
    9.0027  -13.3358   26.5900 C   0  0  0  0  0  0  0  0  0  0  0  0
    9.2935  -14.6645   25.9036 C   0  0  2  0  0  0  0  0  0  0  0  0
    9.0707  -14.5881   24.4871 N   0  0  0  0  0  0  0  0  0  0  0  0
    8.5567  -15.7709   26.5536 C   0  0  0  0  0  0  0  0  0  0  0  0
    7.6852  -16.3761   25.8804 O   0  0  0  0  0  0  0  0  0  0  0  0
    8.7550  -16.1955   27.8596 O   0  0  0  0  0  0  0  0  0  0  0  0
  2  1  1  6
  2  3  1  0
  3  4  1  0
  4  5  2  0
  4  8  1  0
  6 13  1  0
  6  2  1  0
  7  6  2  0
 10  9  1  6
 10 12  1  0
 11 10  1  0
 12 13  1  6
 12 14  1  0
 14 19  1  0
 14 15  2  0
 17 16  1  0
 18 17  1  1
 19 18  1  0
 20 18  1  0
 20 22  1  0
 21 20  2  0
M  END
$$$$
