DTS.pdb
     RDKit          3D

 22 21  0  0  1  0  0  0  0  0999 V2000
   14.1100  -14.9310   15.9980 N   0  0  0  0  0  0  0  0  0  0  0  0
   14.3216  -15.1187   17.3993 C   0  0  1  0  0  0  0  0  0  0  0  0
   15.3268  -14.1458   17.9865 C   0  0  0  0  0  0  0  0  0  0  0  0
   16.6413  -14.2872   17.3272 C   0  0  0  0  0  0  0  0  0  0  0  0
   16.7937  -13.9091   16.1365 O   0  0  0  0  0  0  0  0  0  0  0  0
   13.0351  -15.0784   18.1072 C   0  0  0  0  0  0  0  0  0  0  0  0
   11.9962  -14.7780   17.4680 O   0  0  0  0  0  0  0  0  0  0  0  0
   17.7264  -14.8332   17.9925 O   0  0  0  0  0  0  0  0  0  0  0  0
   10.5462  -16.1629   17.9686 C   0  0  0  0  0  0  0  0  0  0  0  0
   10.6470  -16.3972   19.4446 C   0  0  1  0  0  0  0  0  0  0  0  0
   11.0585  -17.7163   19.6288 O   0  0  0  0  0  0  0  0  0  0  0  0
   11.5901  -15.4263   20.1214 C   0  0  2  0  0  0  0  0  0  0  0  0
   12.8740  -15.3615   19.5015 N   0  0  0  0  0  0  0  0  0  0  0  0
   11.6883  -15.7112   21.5743 C   0  0  0  0  0  0  0  0  0  0  0  0
   12.7303  -16.2664   21.9902 O   0  0  0  0  0  0  0  0  0  0  0  0
    9.7017  -15.2724   25.9761 O   0  0  0  0  0  0  0  0  0  0  0  0
    9.5107  -14.9915   24.6106 C   0  0  0  0  0  0  0  0  0  0  0  0
   10.7097  -15.6031   23.8969 C   0  0  2  0  0  0  0  0  0  0  0  0
   10.6539  -15.3768   22.4799 N   0  0  0  0  0  0  0  0  0  0  0  0
   10.8715  -17.0294   24.2564 C   0  0  0  0  0  0  0  0  0  0  0  0
   10.2992  -17.8879   23.5392 O   0  0  0  0  0  0  0  0  0  0  0  0
   11.6121  -17.4962   25.3328 O   0  0  0  0  0  0  0  0  0  0  0  0
  2  1  1  6
  2  3  1  0
  3  4  1  0
  4  5  2  0
  4  8  1  0
  6 13  1  0
  6  2  1  0
  7  6  2  0
 10  9  1  6
 10 12  1  0
 11 10  1  0
 12 13  1  6
 12 14  1  0
 14 19  1  0
 14 15  2  0
 17 16  1  0
 18 17  1  1
 19 18  1  0
 20 18  1  0
 20 22  1  0
 21 20  2  0
M  END
$$$$
