DTS.pdb
     RDKit          3D

 22 21  0  0  1  0  0  0  0  0999 V2000
    7.7379  -17.7013   17.3796 N   0  0  0  0  0  0  0  0  0  0  0  0
    9.0649  -17.1795   17.2773 C   0  0  1  0  0  0  0  0  0  0  0  0
    9.2964  -16.3826   16.0071 C   0  0  0  0  0  0  0  0  0  0  0  0
    9.1714  -17.2464   14.8152 C   0  0  0  0  0  0  0  0  0  0  0  0
    8.0337  -17.5949   14.4053 O   0  0  0  0  0  0  0  0  0  0  0  0
    9.3900  -16.4051   18.4824 C   0  0  0  0  0  0  0  0  0  0  0  0
   10.5196  -15.8629   18.5729 O   0  0  0  0  0  0  0  0  0  0  0  0
   10.2880  -17.6907   14.1266 O   0  0  0  0  0  0  0  0  0  0  0  0
    7.4774  -13.5300   20.0868 C   0  0  0  0  0  0  0  0  0  0  0  0
    7.8432  -14.4761   21.1890 C   0  0  1  0  0  0  0  0  0  0  0  0
    6.6674  -15.0913   21.6158 O   0  0  0  0  0  0  0  0  0  0  0  0
    8.8737  -15.4967   20.7571 C   0  0  2  0  0  0  0  0  0  0  0  0
    8.4963  -16.2188   19.5854 N   0  0  0  0  0  0  0  0  0  0  0  0
    9.2229  -16.4022   21.8796 C   0  0  0  0  0  0  0  0  0  0  0  0
    8.6455  -17.5115   21.9347 O   0  0  0  0  0  0  0  0  0  0  0  0
   12.7936  -16.5661   23.5237 O   0  0  0  0  0  0  0  0  0  0  0  0
   11.8541  -17.5861   23.7622 C   0  0  0  0  0  0  0  0  0  0  0  0
   10.5265  -16.8734   23.9872 C   0  0  2  0  0  0  0  0  0  0  0  0
   10.1727  -16.0480   22.8667 N   0  0  0  0  0  0  0  0  0  0  0  0
   10.5262  -16.1445   25.2750 C   0  0  0  0  0  0  0  0  0  0  0  0
   10.2946  -14.9097   25.2548 O   0  0  0  0  0  0  0  0  0  0  0  0
   10.7638  -16.7235   26.5134 O   0  0  0  0  0  0  0  0  0  0  0  0
  2  1  1  1
  2  3  1  0
  3  4  1  0
  4  5  2  0
  4  8  1  0
  6 13  1  0
  6  2  1  0
  7  6  2  0
 10  9  1  6
 10 12  1  0
 11 10  1  0
 12 13  1  6
 12 14  1  0
 14 19  1  0
 14 15  2  0
 17 16  1  0
 18 17  1  6
 19 18  1  0
 20 18  1  0
 20 22  1  0
 21 20  2  0
M  END
$$$$
