DTS.pdb
     RDKit          3D

 22 21  0  0  1  0  0  0  0  0999 V2000
    8.1990  -15.3961   15.7916 N   0  0  0  0  0  0  0  0  0  0  0  0
    8.9187  -16.2485   16.6855 C   0  0  1  0  0  0  0  0  0  0  0  0
   10.1347  -16.8926   16.0464 C   0  0  0  0  0  0  0  0  0  0  0  0
    9.7310  -17.9533   15.1006 C   0  0  0  0  0  0  0  0  0  0  0  0
   10.5971  -18.5313   14.3939 O   0  0  0  0  0  0  0  0  0  0  0  0
    9.2626  -15.5113   17.9086 C   0  0  0  0  0  0  0  0  0  0  0  0
   10.0372  -14.5255   17.8293 O   0  0  0  0  0  0  0  0  0  0  0  0
    8.4060  -18.3342   14.9674 O   0  0  0  0  0  0  0  0  0  0  0  0
    7.7311  -13.1204   20.0017 C   0  0  0  0  0  0  0  0  0  0  0  0
    8.0957  -14.2295   20.9401 C   0  0  1  0  0  0  0  0  0  0  0  0
    6.9301  -14.9450   21.2106 O   0  0  0  0  0  0  0  0  0  0  0  0
    9.1768  -15.1287   20.3809 C   0  0  2  0  0  0  0  0  0  0  0  0
    8.7705  -15.8402   19.2124 N   0  0  0  0  0  0  0  0  0  0  0  0
    9.7032  -16.0369   21.4296 C   0  0  0  0  0  0  0  0  0  0  0  0
    9.3151  -17.2269   21.4184 O   0  0  0  0  0  0  0  0  0  0  0  0
   13.2835  -15.5894   22.9905 O   0  0  0  0  0  0  0  0  0  0  0  0
   12.4099  -15.8244   24.0682 C   0  0  0  0  0  0  0  0  0  0  0  0
   11.1573  -16.4348   23.4522 C   0  0  2  0  0  0  0  0  0  0  0  0
   10.6137  -15.5979   22.4197 N   0  0  0  0  0  0  0  0  0  0  0  0
   10.1714  -16.7919   24.4964 C   0  0  0  0  0  0  0  0  0  0  0  0
    9.1018  -16.1346   24.5485 O   0  0  0  0  0  0  0  0  0  0  0  0
   10.3378  -17.8046   25.4302 O   0  0  0  0  0  0  0  0  0  0  0  0
  2  1  1  6
  2  3  1  0
  3  4  1  0
  4  5  2  0
  4  8  1  0
  6 13  1  0
  6  2  1  0
  7  6  2  0
 10  9  1  6
 10 12  1  0
 11 10  1  0
 12 13  1  6
 12 14  1  0
 14 19  1  0
 14 15  2  0
 17 16  1  0
 18 17  1  1
 19 18  1  0
 20 18  1  0
 20 22  1  0
 21 20  2  0
M  END
$$$$
