DTS.pdb
     RDKit          3D

 22 21  0  0  1  0  0  0  0  0999 V2000
    8.5893  -15.0438   15.6070 N   0  0  0  0  0  0  0  0  0  0  0  0
    9.0709  -16.0066   16.5475 C   0  0  1  0  0  0  0  0  0  0  0  0
   10.3148  -16.7340   16.0727 C   0  0  0  0  0  0  0  0  0  0  0  0
   10.1467  -17.2106   14.6846 C   0  0  0  0  0  0  0  0  0  0  0  0
    9.0378  -17.0821   14.1034 O   0  0  0  0  0  0  0  0  0  0  0  0
    9.2692  -15.3690   17.8559 C   0  0  0  0  0  0  0  0  0  0  0  0
   10.0748  -14.4099   17.9514 O   0  0  0  0  0  0  0  0  0  0  0  0
   11.1907  -17.8046   13.9949 O   0  0  0  0  0  0  0  0  0  0  0  0
    7.5440  -13.0781   19.8333 C   0  0  0  0  0  0  0  0  0  0  0  0
    7.7535  -14.2265   20.7719 C   0  0  1  0  0  0  0  0  0  0  0  0
    6.5392  -14.9028   20.8786 O   0  0  0  0  0  0  0  0  0  0  0  0
    8.8611  -15.1515   20.3161 C   0  0  2  0  0  0  0  0  0  0  0  0
    8.5985  -15.7685   19.0563 N   0  0  0  0  0  0  0  0  0  0  0  0
    9.1825  -16.1485   21.3669 C   0  0  0  0  0  0  0  0  0  0  0  0
    8.7652  -17.3179   21.2079 O   0  0  0  0  0  0  0  0  0  0  0  0
   10.8469  -14.9112   24.9344 O   0  0  0  0  0  0  0  0  0  0  0  0
   11.2928  -16.1805   24.5221 C   0  0  0  0  0  0  0  0  0  0  0  0
   10.2028  -16.7170   23.6029 C   0  0  2  0  0  0  0  0  0  0  0  0
    9.9334  -15.8147   22.5188 N   0  0  0  0  0  0  0  0  0  0  0  0
    8.9936  -17.0866   24.3716 C   0  0  0  0  0  0  0  0  0  0  0  0
    7.9351  -16.4462   24.1516 O   0  0  0  0  0  0  0  0  0  0  0  0
    8.9374  -18.0937   25.3244 O   0  0  0  0  0  0  0  0  0  0  0  0
  2  1  1  6
  2  3  1  0
  3  4  1  0
  4  5  2  0
  4  8  1  0
  6 13  1  0
  6  2  1  0
  7  6  2  0
 10  9  1  6
 10 12  1  0
 11 10  1  0
 12 13  1  6
 12 14  1  0
 14 19  1  0
 14 15  2  0
 17 16  1  0
 18 17  1  1
 19 18  1  0
 20 18  1  0
 20 22  1  0
 21 20  2  0
M  END
$$$$
