GVM.pdb
     RDKit          3D

 20 19  0  0  1  0  0  0  0  0999 V2000
   11.0740  -18.5995   19.1836 N   0  0  0  0  0  0  0  0  0  0  0  0
    9.7518  -18.2513   19.6351 C   0  0  0  0  0  0  0  0  0  0  0  0
    9.7560  -16.9701   20.3756 C   0  0  0  0  0  0  0  0  0  0  0  0
   10.7995  -16.5450   20.9116 O   0  0  0  0  0  0  0  0  0  0  0  0
    6.3480  -14.0245   20.5143 C   0  0  0  0  0  0  0  0  0  0  0  0
    7.8217  -13.8185   20.5146 C   0  0  1  0  0  0  0  0  0  0  0  0
    8.1163  -12.4801   21.1596 C   0  0  0  0  0  0  0  0  0  0  0  0
    8.6034  -14.8980   21.2057 C   0  0  2  0  0  0  0  0  0  0  0  0
    8.5860  -16.1506   20.5227 N   0  0  0  0  0  0  0  0  0  0  0  0
    8.2205  -15.0186   22.6394 C   0  0  0  0  0  0  0  0  0  0  0  0
    7.2273  -15.7168   22.9504 O   0  0  0  0  0  0  0  0  0  0  0  0
    6.3783  -10.8739   26.0073 C   0  0  0  0  0  0  0  0  0  0  0  0
    5.9440  -12.1883   27.1757 S   0  0  0  0  0  0  0  0  0  0  0  0
    6.9825  -13.6517   26.7695 C   0  0  0  0  0  0  0  0  0  0  0  0
    7.4707  -13.5047   25.3654 C   0  0  0  0  0  0  0  0  0  0  0  0
    8.5125  -14.5154   25.0363 C   0  0  2  0  0  0  0  0  0  0  0  0
    8.9619  -14.3581   23.6382 N   0  0  0  0  0  0  0  0  0  0  0  0
    8.0617  -15.9011   25.2583 C   0  0  0  0  0  0  0  0  0  0  0  0
    7.2888  -16.5258   24.5168 O   0  0  0  0  0  0  0  0  0  0  0  0
    8.5256  -16.5976   26.3900 O   0  0  0  0  0  0  0  0  0  0  0  0
  1  2  1  0
  3  2  1  0
  4  3  2  0
  6  5  1  1
  6  8  1  0
  7  6  1  0
  8  9  1  6
  8 10  1  0
  9  3  1  0
 10 17  1  0
 11 10  2  0
 12 13  1  0
 13 14  1  0
 16 15  1  6
 15 14  1  0
 16 18  1  0
 17 16  1  0
 18 19  2  0
 18 20  1  0
M  END
$$$$
