GVM.pdb
     RDKit          3D

 20 19  0  0  1  0  0  0  0  0999 V2000
   13.4799  -14.7318   19.3250 N   0  0  0  0  0  0  0  0  0  0  0  0
   12.3173  -15.4553   19.7703 C   0  0  0  0  0  0  0  0  0  0  0  0
   11.4116  -14.5878   20.5558 C   0  0  0  0  0  0  0  0  0  0  0  0
   11.8641  -13.6618   21.2591 O   0  0  0  0  0  0  0  0  0  0  0  0
    8.1534  -12.5993   19.6564 C   0  0  0  0  0  0  0  0  0  0  0  0
    7.8963  -13.4892   20.8210 C   0  0  1  0  0  0  0  0  0  0  0  0
    6.9965  -14.6202   20.3678 C   0  0  0  0  0  0  0  0  0  0  0  0
    9.1318  -14.0499   21.4637 C   0  0  2  0  0  0  0  0  0  0  0  0
    9.9849  -14.7511   20.5603 N   0  0  0  0  0  0  0  0  0  0  0  0
    8.8040  -14.8438   22.6798 C   0  0  0  0  0  0  0  0  0  0  0  0
    9.1717  -16.0401   22.7465 O   0  0  0  0  0  0  0  0  0  0  0  0
    5.7774  -11.6287   26.8503 C   0  0  0  0  0  0  0  0  0  0  0  0
    7.2501  -12.1808   27.7490 S   0  0  0  0  0  0  0  0  0  0  0  0
    8.1962  -13.2905   26.6273 C   0  0  0  0  0  0  0  0  0  0  0  0
    7.2448  -14.2753   26.0304 C   0  0  0  0  0  0  0  0  0  0  0  0
    7.8883  -15.0818   24.9577 C   0  0  2  0  0  0  0  0  0  0  0  0
    8.0896  -14.2625   23.7453 N   0  0  0  0  0  0  0  0  0  0  0  0
    7.1263  -16.2957   24.6136 C   0  0  0  0  0  0  0  0  0  0  0  0
    6.2831  -16.3744   23.7079 O   0  0  0  0  0  0  0  0  0  0  0  0
    7.3491  -17.4741   25.3505 O   0  0  0  0  0  0  0  0  0  0  0  0
  1  2  1  0
  3  2  1  0
  4  3  2  0
  6  5  1  6
  6  8  1  0
  7  6  1  0
  8  9  1  6
  8 10  1  0
  9  3  1  0
 10 17  1  0
 11 10  2  0
 12 13  1  0
 13 14  1  0
 16 15  1  1
 15 14  1  0
 16 18  1  0
 17 16  1  0
 18 19  2  0
 18 20  1  0
M  END
$$$$
