GVM.pdb
     RDKit          3D

 20 19  0  0  1  0  0  0  0  0999 V2000
    7.9488  -19.5640   19.3443 N   0  0  0  0  0  0  0  0  0  0  0  0
    7.1484  -18.6366   20.1011 C   0  0  0  0  0  0  0  0  0  0  0  0
    7.9326  -17.4448   20.4941 C   0  0  0  0  0  0  0  0  0  0  0  0
    9.1526  -17.5349   20.7397 O   0  0  0  0  0  0  0  0  0  0  0  0
    6.2402  -13.3226   20.8544 C   0  0  0  0  0  0  0  0  0  0  0  0
    7.6484  -13.7004   20.5570 C   0  0  1  0  0  0  0  0  0  0  0  0
    8.5556  -12.6003   21.0677 C   0  0  0  0  0  0  0  0  0  0  0  0
    8.0763  -15.0194   21.1325 C   0  0  2  0  0  0  0  0  0  0  0  0
    7.3541  -16.1361   20.6159 N   0  0  0  0  0  0  0  0  0  0  0  0
    8.0976  -14.9860   22.6208 C   0  0  0  0  0  0  0  0  0  0  0  0
    7.0917  -15.3805   23.2557 O   0  0  0  0  0  0  0  0  0  0  0  0
    6.4132  -11.1549   26.1574 C   0  0  0  0  0  0  0  0  0  0  0  0
    6.3323  -12.6790   27.1332 S   0  0  0  0  0  0  0  0  0  0  0  0
    7.8110  -13.6864   26.7048 C   0  0  0  0  0  0  0  0  0  0  0  0
    7.9315  -13.7327   25.2166 C   0  0  0  0  0  0  0  0  0  0  0  0
    9.1561  -14.4606   24.7858 C   0  0  2  0  0  0  0  0  0  0  0  0
    9.2320  -14.5177   23.3119 N   0  0  0  0  0  0  0  0  0  0  0  0
    9.2404  -15.8243   25.3389 C   0  0  0  0  0  0  0  0  0  0  0  0
    8.9740  -16.8629   24.7163 O   0  0  0  0  0  0  0  0  0  0  0  0
    9.6521  -15.9959   26.6740 O   0  0  0  0  0  0  0  0  0  0  0  0
  1  2  1  0
  3  2  1  0
  4  3  2  0
  6  5  1  1
  6  8  1  0
  7  6  1  0
  8  9  1  1
  8 10  1  0
  9  3  1  0
 10 17  1  0
 11 10  2  0
 12 13  1  0
 13 14  1  0
 16 15  1  6
 15 14  1  0
 16 18  1  0
 17 16  1  0
 18 19  2  0
 18 20  1  0
M  END
$$$$
