GVM.pdb
     RDKit          3D

 20 19  0  0  1  0  0  0  0  0999 V2000
    6.4349  -19.6519   20.6402 N   0  0  0  0  0  0  0  0  0  0  0  0
    5.9746  -18.3215   20.9427 C   0  0  0  0  0  0  0  0  0  0  0  0
    7.0475  -17.3222   20.7421 C   0  0  0  0  0  0  0  0  0  0  0  0
    8.2296  -17.6802   20.5655 O   0  0  0  0  0  0  0  0  0  0  0  0
    6.4253  -12.9002   21.0206 C   0  0  0  0  0  0  0  0  0  0  0  0
    7.4322  -13.6014   20.1786 C   0  0  1  0  0  0  0  0  0  0  0  0
    8.6427  -12.7025   20.0343 C   0  0  0  0  0  0  0  0  0  0  0  0
    7.8562  -14.9441   20.6995 C   0  0  2  0  0  0  0  0  0  0  0  0
    6.8040  -15.9069   20.7377 N   0  0  0  0  0  0  0  0  0  0  0  0
    8.5755  -14.8253   21.9976 C   0  0  0  0  0  0  0  0  0  0  0  0
    9.7178  -14.3103   22.0189 O   0  0  0  0  0  0  0  0  0  0  0  0
    6.3793  -10.6928   26.8188 C   0  0  0  0  0  0  0  0  0  0  0  0
    6.4414  -12.5032   26.8054 S   0  0  0  0  0  0  0  0  0  0  0  0
    7.6955  -13.0020   25.5551 C   0  0  0  0  0  0  0  0  0  0  0  0
    7.7138  -14.4937   25.4788 C   0  0  0  0  0  0  0  0  0  0  0  0
    8.6802  -14.9808   24.4570 C   0  0  2  0  0  0  0  0  0  0  0  0
    7.9839  -15.2847   23.1904 N   0  0  0  0  0  0  0  0  0  0  0  0
    9.4400  -16.1636   24.9002 C   0  0  0  0  0  0  0  0  0  0  0  0
    9.2069  -17.3309   24.5529 O   0  0  0  0  0  0  0  0  0  0  0  0
   10.5197  -15.9895   25.7862 O   0  0  0  0  0  0  0  0  0  0  0  0
  1  2  1  0
  3  2  1  0
  4  3  2  0
  6  5  1  1
  6  8  1  0
  7  6  1  0
  8  9  1  1
  8 10  1  0
  9  3  1  0
 10 17  1  0
 11 10  2  0
 12 13  1  0
 13 14  1  0
 16 15  1  1
 15 14  1  0
 16 18  1  0
 17 16  1  0
 18 19  2  0
 18 20  1  0
M  END
$$$$
