GVM.pdb
     RDKit          3D

 20 19  0  0  1  0  0  0  0  0999 V2000
   12.2588  -15.1026   18.2647 N   0  0  0  0  0  0  0  0  0  0  0  0
   12.3046  -15.8752   19.4790 C   0  0  0  0  0  0  0  0  0  0  0  0
   11.0483  -15.7417   20.2496 C   0  0  0  0  0  0  0  0  0  0  0  0
   10.4208  -14.6634   20.2672 O   0  0  0  0  0  0  0  0  0  0  0  0
    9.0458  -19.1621   22.2390 C   0  0  0  0  0  0  0  0  0  0  0  0
    8.4023  -17.9750   21.6137 C   0  0  1  0  0  0  0  0  0  0  0  0
    7.0655  -17.7463   22.2880 C   0  0  0  0  0  0  0  0  0  0  0  0
    9.2212  -16.7179   21.6707 C   0  0  2  0  0  0  0  0  0  0  0  0
   10.4819  -16.8199   21.0105 N   0  0  0  0  0  0  0  0  0  0  0  0
    9.3404  -16.2050   23.0634 C   0  0  0  0  0  0  0  0  0  0  0  0
   10.3911  -16.4277   23.7091 O   0  0  0  0  0  0  0  0  0  0  0  0
    6.2768  -11.0662   25.4475 C   0  0  0  0  0  0  0  0  0  0  0  0
    6.3961  -12.0412   26.9695 S   0  0  0  0  0  0  0  0  0  0  0  0
    7.6742  -13.3359   26.6955 C   0  0  0  0  0  0  0  0  0  0  0  0
    7.4756  -13.9092   25.3305 C   0  0  0  0  0  0  0  0  0  0  0  0
    8.5170  -14.9202   25.0012 C   0  0  2  0  0  0  0  0  0  0  0  0
    8.2881  -15.4778   23.6528 N   0  0  0  0  0  0  0  0  0  0  0  0
    8.5875  -16.0161   25.9844 C   0  0  0  0  0  0  0  0  0  0  0  0
    9.3569  -16.0526   26.9561 O   0  0  0  0  0  0  0  0  0  0  0  0
    7.7287  -17.1217   25.8381 O   0  0  0  0  0  0  0  0  0  0  0  0
  1  2  1  0
  3  2  1  0
  4  3  2  0
  6  5  1  1
  6  8  1  0
  7  6  1  0
  8  9  1  1
  8 10  1  0
  9  3  1  0
 10 17  1  0
 11 10  2  0
 12 13  1  0
 13 14  1  0
 16 15  1  1
 15 14  1  0
 16 18  1  0
 17 16  1  0
 18 19  2  0
 18 20  1  0
M  END
$$$$
