GVM.pdb
     RDKit          3D

 20 19  0  0  1  0  0  0  0  0999 V2000
    8.8035  -19.2941   18.6878 N   0  0  0  0  0  0  0  0  0  0  0  0
    7.8372  -18.6028   19.5013 C   0  0  0  0  0  0  0  0  0  0  0  0
    8.3794  -17.3237   20.0111 C   0  0  0  0  0  0  0  0  0  0  0  0
    9.6048  -17.1769   20.1950 O   0  0  0  0  0  0  0  0  0  0  0  0
    6.1114  -13.5285   20.2984 C   0  0  0  0  0  0  0  0  0  0  0  0
    7.5826  -13.7410   20.2299 C   0  0  1  0  0  0  0  0  0  0  0  0
    8.2676  -12.5373   20.8431 C   0  0  0  0  0  0  0  0  0  0  0  0
    8.0646  -14.9952   20.8997 C   0  0  2  0  0  0  0  0  0  0  0  0
    7.5498  -16.1932   20.3207 N   0  0  0  0  0  0  0  0  0  0  0  0
    7.8685  -14.9381   22.3746 C   0  0  0  0  0  0  0  0  0  0  0  0
    6.7724  -15.3030   22.8602 O   0  0  0  0  0  0  0  0  0  0  0  0
    7.5138  -11.1756   26.8877 C   0  0  0  0  0  0  0  0  0  0  0  0
    6.1340  -12.3262   26.6566 S   0  0  0  0  0  0  0  0  0  0  0  0
    6.8516  -13.9918   26.3474 C   0  0  0  0  0  0  0  0  0  0  0  0
    7.1697  -14.1024   24.8921 C   0  0  0  0  0  0  0  0  0  0  0  0
    8.6102  -14.3996   24.6645 C   0  0  2  0  0  0  0  0  0  0  0  0
    8.8991  -14.4803   23.2183 N   0  0  0  0  0  0  0  0  0  0  0  0
    9.0548  -15.6386   25.3278 C   0  0  0  0  0  0  0  0  0  0  0  0
    9.1942  -15.7805   26.5516 O   0  0  0  0  0  0  0  0  0  0  0  0
    9.3521  -16.7665   24.5400 O   0  0  0  0  0  0  0  0  0  0  0  0
  1  2  1  0
  3  2  1  0
  4  3  2  0
  6  5  1  1
  6  8  1  0
  7  6  1  0
  8  9  1  6
  8 10  1  0
  9  3  1  0
 10 17  1  0
 11 10  2  0
 12 13  1  0
 13 14  1  0
 16 15  1  6
 15 14  1  0
 16 18  1  0
 17 16  1  0
 18 19  2  0
 18 20  1  0
M  END
$$$$
