GVM.pdb
     RDKit          3D

 20 19  0  0  1  0  0  0  0  0999 V2000
   13.2341  -17.5619   19.5756 N   0  0  0  0  0  0  0  0  0  0  0  0
   12.3431  -17.9185   20.6490 C   0  0  0  0  0  0  0  0  0  0  0  0
   11.3678  -16.8391   20.9201 C   0  0  0  0  0  0  0  0  0  0  0  0
   11.7416  -15.6544   21.0370 O   0  0  0  0  0  0  0  0  0  0  0  0
    6.6733  -15.2323   21.4311 C   0  0  0  0  0  0  0  0  0  0  0  0
    7.6485  -16.2573   20.9698 C   0  0  1  0  0  0  0  0  0  0  0  0
    7.6598  -16.2577   19.4552 C   0  0  0  0  0  0  0  0  0  0  0  0
    9.0450  -16.0690   21.4878 C   0  0  2  0  0  0  0  0  0  0  0  0
    9.9592  -17.0787   21.0633 N   0  0  0  0  0  0  0  0  0  0  0  0
    9.0587  -15.8628   22.9622 C   0  0  0  0  0  0  0  0  0  0  0  0
    9.6302  -16.7061   23.6922 O   0  0  0  0  0  0  0  0  0  0  0  0
    6.8327  -10.6278   26.3114 C   0  0  0  0  0  0  0  0  0  0  0  0
    6.4280  -12.0162   27.4023 S   0  0  0  0  0  0  0  0  0  0  0  0
    7.5361  -13.4134   26.9497 C   0  0  0  0  0  0  0  0  0  0  0  0
    7.5435  -13.5426   25.4615 C   0  0  0  0  0  0  0  0  0  0  0  0
    8.4701  -14.6148   25.0067 C   0  0  2  0  0  0  0  0  0  0  0  0
    8.4383  -14.7356   23.5350 N   0  0  0  0  0  0  0  0  0  0  0  0
    8.1795  -15.9247   25.6170 C   0  0  0  0  0  0  0  0  0  0  0  0
    7.2459  -16.6718   25.2890 O   0  0  0  0  0  0  0  0  0  0  0  0
    9.0066  -16.3934   26.6551 O   0  0  0  0  0  0  0  0  0  0  0  0
  1  2  1  0
  3  2  1  0
  4  3  2  0
  6  5  1  6
  6  8  1  0
  7  6  1  0
  8  9  1  1
  8 10  1  0
  9  3  1  0
 10 17  1  0
 11 10  2  0
 12 13  1  0
 13 14  1  0
 16 15  1  1
 15 14  1  0
 16 18  1  0
 17 16  1  0
 18 19  2  0
 18 20  1  0
M  END
$$$$
