GVM.pdb
     RDKit          3D

 20 19  0  0  1  0  0  0  0  0999 V2000
    1.8761  -19.1244   22.0441 N   0  0  0  0  0  0  0  0  0  0  0  0
    2.9089  -18.2915   21.4847 C   0  0  0  0  0  0  0  0  0  0  0  0
    4.1518  -18.3648   22.2846 C   0  0  0  0  0  0  0  0  0  0  0  0
    4.1272  -18.7549   23.4696 O   0  0  0  0  0  0  0  0  0  0  0  0
    7.3153  -20.1956   21.2137 C   0  0  0  0  0  0  0  0  0  0  0  0
    7.7288  -18.8815   21.7764 C   0  0  1  0  0  0  0  0  0  0  0  0
    8.2548  -18.0224   20.6453 C   0  0  0  0  0  0  0  0  0  0  0  0
    6.6443  -18.1468   22.5099 C   0  0  2  0  0  0  0  0  0  0  0  0
    5.4385  -18.0001   21.7615 N   0  0  0  0  0  0  0  0  0  0  0  0
    7.1370  -16.8568   23.0665 C   0  0  0  0  0  0  0  0  0  0  0  0
    7.1986  -15.8524   22.3197 O   0  0  0  0  0  0  0  0  0  0  0  0
    5.4896  -11.7878   26.1855 C   0  0  0  0  0  0  0  0  0  0  0  0
    6.6648  -12.5988   27.3001 S   0  0  0  0  0  0  0  0  0  0  0  0
    7.8901  -13.4890   26.2555 C   0  0  0  0  0  0  0  0  0  0  0  0
    7.2584  -14.7501   25.7636 C   0  0  0  0  0  0  0  0  0  0  0  0
    8.1646  -15.5006   24.8522 C   0  0  2  0  0  0  0  0  0  0  0  0
    7.5305  -16.7610   24.4155 N   0  0  0  0  0  0  0  0  0  0  0  0
    9.4778  -15.7905   25.4556 C   0  0  0  0  0  0  0  0  0  0  0  0
    9.8737  -16.9161   25.7928 O   0  0  0  0  0  0  0  0  0  0  0  0
   10.3758  -14.7300   25.6797 O   0  0  0  0  0  0  0  0  0  0  0  0
  1  2  1  0
  3  2  1  0
  4  3  2  0
  6  5  1  6
  6  8  1  0
  7  6  1  0
  8  9  1  6
  8 10  1  0
  9  3  1  0
 10 17  1  0
 11 10  2  0
 12 13  1  0
 13 14  1  0
 16 15  1  1
 15 14  1  0
 16 18  1  0
 17 16  1  0
 18 19  2  0
 18 20  1  0
M  END
$$$$
