GVM.pdb
     RDKit          3D

 20 19  0  0  1  0  0  0  0  0999 V2000
   13.8168  -14.8122   18.7590 N   0  0  0  0  0  0  0  0  0  0  0  0
   12.7028  -15.5532   19.2912 C   0  0  0  0  0  0  0  0  0  0  0  0
   11.7772  -14.6720   20.0372 C   0  0  0  0  0  0  0  0  0  0  0  0
   12.2117  -13.8249   20.8437 O   0  0  0  0  0  0  0  0  0  0  0  0
    7.1979  -14.6647   19.8343 C   0  0  0  0  0  0  0  0  0  0  0  0
    8.1932  -13.5638   19.9419 C   0  0  1  0  0  0  0  0  0  0  0  0
    7.5337  -12.3905   20.6365 C   0  0  0  0  0  0  0  0  0  0  0  0
    9.4584  -13.9334   20.6607 C   0  0  2  0  0  0  0  0  0  0  0  0
   10.3504  -14.7325   19.8853 N   0  0  0  0  0  0  0  0  0  0  0  0
    9.1758  -14.5201   21.9997 C   0  0  0  0  0  0  0  0  0  0  0  0
    9.5409  -15.6942   22.2422 O   0  0  0  0  0  0  0  0  0  0  0  0
    6.0949  -11.4796   26.8172 C   0  0  0  0  0  0  0  0  0  0  0  0
    7.0764  -12.6497   27.7913 S   0  0  0  0  0  0  0  0  0  0  0  0
    7.6430  -13.9770   26.6503 C   0  0  0  0  0  0  0  0  0  0  0  0
    7.8510  -13.3760   25.2987 C   0  0  0  0  0  0  0  0  0  0  0  0
    8.3598  -14.3782   24.3230 C   0  0  2  0  0  0  0  0  0  0  0  0
    8.5065  -13.7691   22.9854 N   0  0  0  0  0  0  0  0  0  0  0  0
    7.5067  -15.5766   24.2301 C   0  0  0  0  0  0  0  0  0  0  0  0
    6.5531  -15.7132   23.4494 O   0  0  0  0  0  0  0  0  0  0  0  0
    7.7677  -16.6686   25.0790 O   0  0  0  0  0  0  0  0  0  0  0  0
  1  2  1  0
  3  2  1  0
  4  3  2  0
  6  5  1  1
  6  8  1  0
  7  6  1  0
  8  9  1  6
  8 10  1  0
  9  3  1  0
 10 17  1  0
 11 10  2  0
 12 13  1  0
 13 14  1  0
 16 15  1  1
 15 14  1  0
 16 18  1  0
 17 16  1  0
 18 19  2  0
 18 20  1  0
M  END
$$$$
