GVM.pdb
     RDKit          3D

 20 19  0  0  1  0  0  0  0  0999 V2000
    6.3569  -19.3844   20.3932 N   0  0  0  0  0  0  0  0  0  0  0  0
    6.0820  -18.2676   21.2595 C   0  0  0  0  0  0  0  0  0  0  0  0
    7.1256  -17.2251   21.1414 C   0  0  0  0  0  0  0  0  0  0  0  0
    8.3361  -17.5258   21.1754 O   0  0  0  0  0  0  0  0  0  0  0  0
    6.2840  -12.8525   20.7507 C   0  0  0  0  0  0  0  0  0  0  0  0
    7.3547  -13.6208   20.0595 C   0  0  1  0  0  0  0  0  0  0  0  0
    8.5218  -12.6896   19.8049 C   0  0  0  0  0  0  0  0  0  0  0  0
    7.8284  -14.8374   20.8007 C   0  0  2  0  0  0  0  0  0  0  0  0
    6.8207  -15.8307   20.9835 N   0  0  0  0  0  0  0  0  0  0  0  0
    8.5140  -14.4722   22.0708 C   0  0  0  0  0  0  0  0  0  0  0  0
    8.9338  -13.3013   22.2243 O   0  0  0  0  0  0  0  0  0  0  0  0
    7.0264  -11.3186   27.9744 C   0  0  0  0  0  0  0  0  0  0  0  0
    6.5889  -12.1764   26.4401 S   0  0  0  0  0  0  0  0  0  0  0  0
    7.7536  -13.5873   26.2465 C   0  0  0  0  0  0  0  0  0  0  0  0
    7.6564  -14.0860   24.8418 C   0  0  0  0  0  0  0  0  0  0  0  0
    8.8271  -14.9285   24.4745 C   0  0  2  0  0  0  0  0  0  0  0  0
    8.6914  -15.4270   23.0908 N   0  0  0  0  0  0  0  0  0  0  0  0
    9.0303  -16.0642   25.3919 C   0  0  0  0  0  0  0  0  0  0  0  0
    9.4986  -15.9797   26.5369 O   0  0  0  0  0  0  0  0  0  0  0  0
    8.6755  -17.3581   24.9665 O   0  0  0  0  0  0  0  0  0  0  0  0
  1  2  1  0
  3  2  1  0
  4  3  2  0
  6  5  1  1
  6  8  1  0
  7  6  1  0
  8  9  1  1
  8 10  1  0
  9  3  1  0
 10 17  1  0
 11 10  2  0
 12 13  1  0
 13 14  1  0
 16 15  1  1
 15 14  1  0
 16 18  1  0
 17 16  1  0
 18 19  2  0
 18 20  1  0
M  END
$$$$
