GVM.pdb
     RDKit          3D

 20 19  0  0  1  0  0  0  0  0999 V2000
   13.3839  -14.4540   18.9606 N   0  0  0  0  0  0  0  0  0  0  0  0
   12.0811  -15.0540   19.0873 C   0  0  0  0  0  0  0  0  0  0  0  0
   11.3022  -14.4245   20.1769 C   0  0  0  0  0  0  0  0  0  0  0  0
   11.8505  -13.6564   20.9931 O   0  0  0  0  0  0  0  0  0  0  0  0
    8.0457  -12.3573   19.6980 C   0  0  0  0  0  0  0  0  0  0  0  0
    7.8514  -13.3605   20.7799 C   0  0  1  0  0  0  0  0  0  0  0  0
    6.9677  -14.4700   20.2487 C   0  0  0  0  0  0  0  0  0  0  0  0
    9.1221  -13.9422   21.3282 C   0  0  2  0  0  0  0  0  0  0  0  0
    9.8963  -14.6512   20.3621 N   0  0  0  0  0  0  0  0  0  0  0  0
    8.8725  -14.7373   22.5620 C   0  0  0  0  0  0  0  0  0  0  0  0
    9.3885  -15.8740   22.6717 O   0  0  0  0  0  0  0  0  0  0  0  0
    7.0724  -11.5775   28.3273 C   0  0  0  0  0  0  0  0  0  0  0  0
    6.1119  -11.9466   26.8364 S   0  0  0  0  0  0  0  0  0  0  0  0
    7.2505  -12.7438   25.6310 C   0  0  0  0  0  0  0  0  0  0  0  0
    7.2569  -14.2142   25.8940 C   0  0  0  0  0  0  0  0  0  0  0  0
    8.0610  -14.9511   24.8814 C   0  0  2  0  0  0  0  0  0  0  0  0
    8.0668  -14.2229   23.5964 N   0  0  0  0  0  0  0  0  0  0  0  0
    7.5911  -16.3315   24.6658 C   0  0  0  0  0  0  0  0  0  0  0  0
    7.6888  -17.2536   25.4889 O   0  0  0  0  0  0  0  0  0  0  0  0
    6.9796  -16.6618   23.4418 O   0  0  0  0  0  0  0  0  0  0  0  0
  1  2  1  0
  3  2  1  0
  4  3  2  0
  6  5  1  6
  6  8  1  0
  7  6  1  0
  8  9  1  6
  8 10  1  0
  9  3  1  0
 10 17  1  0
 11 10  2  0
 12 13  1  0
 13 14  1  0
 16 15  1  1
 15 14  1  0
 16 18  1  0
 17 16  1  0
 18 19  2  0
 18 20  1  0
M  END
$$$$
