TNI.pdb
     RDKit          3D

 24 23  0  0  1  0  0  0  0  0999 V2000
    8.2177  -13.6331   16.8076 C   0  0  0  0  0  0  0  0  0  0  0  0
    8.1274  -14.4790   18.0414 C   0  0  1  0  0  0  0  0  0  0  0  0
    9.2827  -15.2256   18.2145 O   0  0  0  0  0  0  0  0  0  0  0  0
    7.8798  -13.6814   19.3024 C   0  0  2  0  0  0  0  0  0  0  0  0
    8.8960  -12.7071   19.5584 N   0  0  0  0  0  0  0  0  0  0  0  0
    7.6557  -14.5750   20.4790 C   0  0  0  0  0  0  0  0  0  0  0  0
    6.7257  -15.4200   20.4485 O   0  0  0  0  0  0  0  0  0  0  0  0
   10.0783  -18.1112   21.0184 N   0  0  0  0  0  0  0  0  0  0  0  0
    9.5023  -17.6237   22.2170 C   0  0  0  0  0  0  0  0  0  0  0  0
   10.1044  -17.8974   23.2777 O   0  0  0  0  0  0  0  0  0  0  0  0
    8.2763  -16.8532   22.1494 C   0  0  0  0  0  0  0  0  0  0  0  0
    8.2630  -15.4885   22.7142 C   0  0  2  0  0  0  0  0  0  0  0  0
    8.4662  -14.4993   21.6401 N   0  0  0  0  0  0  0  0  0  0  0  0
    9.1264  -15.1881   23.8472 C   0  0  0  0  0  0  0  0  0  0  0  0
   10.1191  -15.9451   24.0789 O   0  0  0  0  0  0  0  0  0  0  0  0
    5.6011  -12.1088   26.0945 C   0  0  0  0  0  0  0  0  0  0  0  0
    6.8362  -12.7925   25.7223 C   0  0  0  0  0  0  0  0  0  0  0  0
    7.6734  -13.5202   26.6881 C   0  0  2  0  0  0  0  0  0  0  0  0
    7.9837  -12.5630   27.8450 C   0  0  0  0  0  0  0  0  0  0  0  0
    8.8261  -14.2369   26.1941 C   0  0  2  0  0  0  0  0  0  0  0  0
    8.9879  -14.1299   24.7327 N   0  0  0  0  0  0  0  0  0  0  0  0
    9.1063  -15.6119   26.5389 C   0  0  0  0  0  0  0  0  0  0  0  0
    8.6722  -16.5456   25.7599 O   0  0  0  0  0  0  0  0  0  0  0  0
    9.8003  -16.1202   27.6136 O   0  0  0  0  0  0  0  0  0  0  0  0
  2  3  1  0
  2  1  1  6
  4  2  1  0
  4  5  1  1
  6  7  2  0
  6  4  1  0
  9  8  1  0
  9 11  1  0
 10  9  2  0
 12 11  1  6
 12 13  1  0
 13  6  1  0
 14 12  1  0
 15 14  2  0
 17 16  1  0
 18 17  1  0
 18 20  1  0
 18 19  1  1
 20 22  1  0
 20 21  1  6
 21 14  1  0
 22 24  1  0
 23 22  2  0
M  END
$$$$
