TNI.pdb
     RDKit          3D

 24 23  0  0  1  0  0  0  0  0999 V2000
    7.2055  -12.6691   17.6533 C   0  0  0  0  0  0  0  0  0  0  0  0
    7.2588  -13.7971   18.6386 C   0  0  1  0  0  0  0  0  0  0  0  0
    7.8684  -14.9110   18.0823 O   0  0  0  0  0  0  0  0  0  0  0  0
    7.9824  -13.4452   19.9193 C   0  0  2  0  0  0  0  0  0  0  0  0
    9.3391  -13.0438   19.7047 N   0  0  0  0  0  0  0  0  0  0  0  0
    7.8795  -14.5454   20.9252 C   0  0  0  0  0  0  0  0  0  0  0  0
    6.7465  -14.9337   21.3067 O   0  0  0  0  0  0  0  0  0  0  0  0
   10.8006  -19.2169   23.3118 N   0  0  0  0  0  0  0  0  0  0  0  0
    9.6044  -18.4665   23.2016 C   0  0  0  0  0  0  0  0  0  0  0  0
    8.6843  -18.7629   23.9940 O   0  0  0  0  0  0  0  0  0  0  0  0
    9.5152  -17.4220   22.2005 C   0  0  0  0  0  0  0  0  0  0  0  0
    8.8590  -16.1484   22.5594 C   0  0  2  0  0  0  0  0  0  0  0  0
    9.0300  -15.1714   21.4685 N   0  0  0  0  0  0  0  0  0  0  0  0
    9.1715  -15.5334   23.8414 C   0  0  0  0  0  0  0  0  0  0  0  0
   10.2921  -14.9544   23.9865 O   0  0  0  0  0  0  0  0  0  0  0  0
    6.0757  -11.9688   25.6200 C   0  0  0  0  0  0  0  0  0  0  0  0
    7.1721  -12.9181   25.4527 C   0  0  0  0  0  0  0  0  0  0  0  0
    7.6573  -13.7837   26.5384 C   0  0  2  0  0  0  0  0  0  0  0  0
    8.0480  -12.8783   27.7125 C   0  0  0  0  0  0  0  0  0  0  0  0
    8.6409  -14.7937   26.2235 C   0  0  2  0  0  0  0  0  0  0  0  0
    8.3556  -15.5018   24.9623 N   0  0  0  0  0  0  0  0  0  0  0  0
    9.0706  -15.7973   27.1702 C   0  0  0  0  0  0  0  0  0  0  0  0
    8.4645  -16.9372   27.1806 O   0  0  0  0  0  0  0  0  0  0  0  0
   10.0752  -15.7405   28.1094 O   0  0  0  0  0  0  0  0  0  0  0  0
  2  3  1  0
  2  1  1  6
  4  2  1  0
  4  5  1  6
  6  7  2  0
  6  4  1  0
  9  8  1  0
  9 11  1  0
 10  9  2  0
 12 11  1  6
 12 13  1  0
 13  6  1  0
 14 12  1  0
 15 14  2  0
 17 16  1  0
 18 17  1  0
 18 20  1  0
 18 19  1  1
 20 22  1  0
 20 21  1  6
 21 14  1  0
 22 24  1  0
 23 22  2  0
M  END
$$$$
