TNI.pdb
     RDKit          3D

 24 23  0  0  1  0  0  0  0  0999 V2000
    9.0449  -15.1058   18.2019 C   0  0  0  0  0  0  0  0  0  0  0  0
    8.6143  -15.0619   19.6367 C   0  0  1  0  0  0  0  0  0  0  0  0
    8.3615  -13.7589   20.0373 O   0  0  0  0  0  0  0  0  0  0  0  0
    7.3867  -15.8974   19.9236 C   0  0  2  0  0  0  0  0  0  0  0  0
    6.2530  -15.5168   19.1376 N   0  0  0  0  0  0  0  0  0  0  0  0
    7.0699  -15.9198   21.3838 C   0  0  0  0  0  0  0  0  0  0  0  0
    6.1813  -15.1554   21.8379 O   0  0  0  0  0  0  0  0  0  0  0  0
    5.6305  -18.7908   22.5622 N   0  0  0  0  0  0  0  0  0  0  0  0
    6.4965  -19.1782   23.6139 C   0  0  0  0  0  0  0  0  0  0  0  0
    6.4484  -20.3773   23.9638 O   0  0  0  0  0  0  0  0  0  0  0  0
    7.3694  -18.1874   24.2118 C   0  0  0  0  0  0  0  0  0  0  0  0
    7.3311  -16.8037   23.6968 C   0  0  2  0  0  0  0  0  0  0  0  0
    7.7461  -16.7837   22.2822 N   0  0  0  0  0  0  0  0  0  0  0  0
    8.0193  -15.7578   24.4396 C   0  0  0  0  0  0  0  0  0  0  0  0
    9.1869  -15.4155   24.0769 O   0  0  0  0  0  0  0  0  0  0  0  0
    5.8812  -11.3313   27.5484 C   0  0  0  0  0  0  0  0  0  0  0  0
    6.2209  -12.5228   26.7761 C   0  0  0  0  0  0  0  0  0  0  0  0
    7.5104  -12.6939   26.0896 C   0  0  2  0  0  0  0  0  0  0  0  0
    7.3228  -12.2479   24.6347 C   0  0  0  0  0  0  0  0  0  0  0  0
    8.2023  -13.9538   26.2327 C   0  0  2  0  0  0  0  0  0  0  0  0
    7.5278  -15.0636   25.5349 N   0  0  0  0  0  0  0  0  0  0  0  0
    8.6359  -14.4741   27.5092 C   0  0  0  0  0  0  0  0  0  0  0  0
    8.2016  -15.6302   27.8855 O   0  0  0  0  0  0  0  0  0  0  0  0
    9.4841  -13.9160   28.4386 O   0  0  0  0  0  0  0  0  0  0  0  0
  2  3  1  0
  2  1  1  6
  4  2  1  0
  4  5  1  6
  6  7  2  0
  6  4  1  0
  9  8  1  0
  9 11  1  0
 10  9  2  0
 12 11  1  1
 12 13  1  0
 13  6  1  0
 14 12  1  0
 15 14  2  0
 17 16  1  0
 18 17  1  0
 18 20  1  0
 18 19  1  6
 20 22  1  0
 20 21  1  1
 21 14  1  0
 22 24  1  0
 23 22  2  0
M  END
$$$$
