TNI.pdb
     RDKit          3D

 24 23  0  0  1  0  0  0  0  0999 V2000
   10.4460  -13.8331   18.2090 C   0  0  0  0  0  0  0  0  0  0  0  0
    9.7976  -14.3196   19.4696 C   0  0  1  0  0  0  0  0  0  0  0  0
   10.1576  -13.5269   20.5484 O   0  0  0  0  0  0  0  0  0  0  0  0
    8.2878  -14.3654   19.3922 C   0  0  2  0  0  0  0  0  0  0  0  0
    7.7116  -13.1342   18.9451 N   0  0  0  0  0  0  0  0  0  0  0  0
    7.6882  -14.8252   20.6813 C   0  0  0  0  0  0  0  0  0  0  0  0
    6.9684  -14.0383   21.3467 O   0  0  0  0  0  0  0  0  0  0  0  0
    5.2999  -18.7227   24.0662 N   0  0  0  0  0  0  0  0  0  0  0  0
    6.6790  -18.5607   23.7869 C   0  0  0  0  0  0  0  0  0  0  0  0
    7.4766  -18.9561   24.6644 O   0  0  0  0  0  0  0  0  0  0  0  0
    7.0797  -17.9600   22.5301 C   0  0  0  0  0  0  0  0  0  0  0  0
    7.3192  -16.5033   22.4834 C   0  0  2  0  0  0  0  0  0  0  0  0
    7.9073  -16.1333   21.1831 N   0  0  0  0  0  0  0  0  0  0  0  0
    8.0602  -15.8776   23.5690 C   0  0  0  0  0  0  0  0  0  0  0  0
    9.3211  -15.7683   23.4671 O   0  0  0  0  0  0  0  0  0  0  0  0
    5.8036  -11.6563   25.9105 C   0  0  0  0  0  0  0  0  0  0  0  0
    6.7288  -12.6829   25.4396 C   0  0  0  0  0  0  0  0  0  0  0  0
    7.5127  -13.5344   26.3472 C   0  0  2  0  0  0  0  0  0  0  0  0
    8.3336  -12.6108   27.2548 C   0  0  0  0  0  0  0  0  0  0  0  0
    8.2707  -14.6258   25.7807 C   0  0  2  0  0  0  0  0  0  0  0  0
    7.5289  -15.3644   24.7427 N   0  0  0  0  0  0  0  0  0  0  0  0
    8.9472  -15.6168   26.5861 C   0  0  0  0  0  0  0  0  0  0  0  0
    8.3110  -16.6944   26.9039 O   0  0  0  0  0  0  0  0  0  0  0  0
   10.2266  -15.6062   27.0939 O   0  0  0  0  0  0  0  0  0  0  0  0
  2  3  1  0
  2  1  1  6
  4  2  1  0
  4  5  1  1
  6  7  2  0
  6  4  1  0
  9  8  1  0
  9 11  1  0
 10  9  2  0
 12 11  1  1
 12 13  1  0
 13  6  1  0
 14 12  1  0
 15 14  2  0
 17 16  1  0
 18 17  1  0
 18 20  1  0
 18 19  1  6
 20 22  1  0
 20 21  1  6
 21 14  1  0
 22 24  1  0
 23 22  2  0
M  END
$$$$
