TNI.pdb
     RDKit          3D

 24 23  0  0  1  0  0  0  0  0999 V2000
    9.3788  -12.6244   18.2815 C   0  0  0  0  0  0  0  0  0  0  0  0
    8.8090  -13.3708   19.4496 C   0  0  1  0  0  0  0  0  0  0  0  0
    7.7464  -12.6776   20.0085 O   0  0  0  0  0  0  0  0  0  0  0  0
    8.3404  -14.7664   19.1028 C   0  0  2  0  0  0  0  0  0  0  0  0
    7.4958  -14.8037   17.9483 N   0  0  0  0  0  0  0  0  0  0  0  0
    7.7074  -15.4382   20.2780 C   0  0  0  0  0  0  0  0  0  0  0  0
    6.6324  -16.0717   20.1261 O   0  0  0  0  0  0  0  0  0  0  0  0
    5.6336  -18.6188   23.4980 N   0  0  0  0  0  0  0  0  0  0  0  0
    7.0229  -18.5150   23.2427 C   0  0  0  0  0  0  0  0  0  0  0  0
    7.7694  -19.2736   23.8983 O   0  0  0  0  0  0  0  0  0  0  0  0
    7.4912  -17.5583   22.2596 C   0  0  0  0  0  0  0  0  0  0  0  0
    7.6571  -16.1475   22.6642 C   0  0  2  0  0  0  0  0  0  0  0  0
    8.2859  -15.3832   21.5715 N   0  0  0  0  0  0  0  0  0  0  0  0
    8.3129  -15.8516   23.9297 C   0  0  0  0  0  0  0  0  0  0  0  0
    9.5810  -15.8853   23.9855 O   0  0  0  0  0  0  0  0  0  0  0  0
    5.7605  -11.8239   26.0489 C   0  0  0  0  0  0  0  0  0  0  0  0
    6.7541  -12.8341   25.6971 C   0  0  0  0  0  0  0  0  0  0  0  0
    7.4265  -13.6804   26.6946 C   0  0  2  0  0  0  0  0  0  0  0  0
    8.0871  -12.7513   27.7199 C   0  0  0  0  0  0  0  0  0  0  0  0
    8.2858  -14.7428   26.2260 C   0  0  2  0  0  0  0  0  0  0  0  0
    7.6908  -15.5209   25.1242 N   0  0  0  0  0  0  0  0  0  0  0  0
    8.9129  -15.6973   27.1113 C   0  0  0  0  0  0  0  0  0  0  0  0
    8.3752  -16.8635   27.2441 O   0  0  0  0  0  0  0  0  0  0  0  0
   10.0517  -15.5663   27.8734 O   0  0  0  0  0  0  0  0  0  0  0  0
  2  3  1  0
  2  1  1  6
  4  2  1  0
  4  5  1  6
  6  7  2  0
  6  4  1  0
  9  8  1  0
  9 11  1  0
 10  9  2  0
 12 11  1  6
 12 13  1  0
 13  6  1  0
 14 12  1  0
 15 14  2  0
 17 16  1  0
 18 17  1  0
 18 20  1  0
 18 19  1  1
 20 22  1  0
 20 21  1  6
 21 14  1  0
 22 24  1  0
 23 22  2  0
M  END
$$$$
