TNI.pdb
     RDKit          3D

 24 23  0  0  1  0  0  0  0  0999 V2000
    8.1334  -12.5970   18.8387 C   0  0  0  0  0  0  0  0  0  0  0  0
    8.3636  -13.4016   20.0819 C   0  0  1  0  0  0  0  0  0  0  0  0
    7.9470  -12.7050   21.2058 O   0  0  0  0  0  0  0  0  0  0  0  0
    7.6698  -14.7455   20.0675 C   0  0  2  0  0  0  0  0  0  0  0  0
    6.2872  -14.6590   19.7089 N   0  0  0  0  0  0  0  0  0  0  0  0
    7.8664  -15.4759   21.3563 C   0  0  0  0  0  0  0  0  0  0  0  0
    6.9083  -15.5792   22.1635 O   0  0  0  0  0  0  0  0  0  0  0  0
   11.9125  -18.8634   24.3227 N   0  0  0  0  0  0  0  0  0  0  0  0
   10.5409  -18.6321   24.0558 C   0  0  0  0  0  0  0  0  0  0  0  0
    9.7257  -19.0885   24.8861 O   0  0  0  0  0  0  0  0  0  0  0  0
   10.1672  -17.8970   22.8637 C   0  0  0  0  0  0  0  0  0  0  0  0
    9.2334  -16.7600   22.9938 C   0  0  2  0  0  0  0  0  0  0  0  0
    9.1108  -16.0615   21.7013 N   0  0  0  0  0  0  0  0  0  0  0  0
    9.4398  -15.8003   24.0688 C   0  0  0  0  0  0  0  0  0  0  0  0
   10.3622  -14.9359   23.9499 O   0  0  0  0  0  0  0  0  0  0  0  0
    6.2021  -12.2336   25.4790 C   0  0  0  0  0  0  0  0  0  0  0  0
    7.3573  -13.1232   25.4030 C   0  0  0  0  0  0  0  0  0  0  0  0
    7.8952  -13.8417   26.5682 C   0  0  2  0  0  0  0  0  0  0  0  0
    8.1743  -12.8050   27.6628 C   0  0  0  0  0  0  0  0  0  0  0  0
    8.9743  -14.7789   26.3585 C   0  0  2  0  0  0  0  0  0  0  0  0
    8.7166  -15.7148   25.2490 N   0  0  0  0  0  0  0  0  0  0  0  0
    9.5598  -15.5578   27.4255 C   0  0  0  0  0  0  0  0  0  0  0  0
    9.2012  -16.7909   27.5596 O   0  0  0  0  0  0  0  0  0  0  0  0
   10.4898  -15.1871   28.3703 O   0  0  0  0  0  0  0  0  0  0  0  0
  2  3  1  0
  2  1  1  6
  4  2  1  0
  4  5  1  1
  6  7  2  0
  6  4  1  0
  9  8  1  0
  9 11  1  0
 10  9  2  0
 12 11  1  6
 12 13  1  0
 13  6  1  0
 14 12  1  0
 15 14  2  0
 17 16  1  0
 18 17  1  0
 18 20  1  0
 18 19  1  1
 20 22  1  0
 20 21  1  6
 21 14  1  0
 22 24  1  0
 23 22  2  0
M  END
$$$$
