TNI.pdb
     RDKit          3D

 24 23  0  0  1  0  0  0  0  0999 V2000
    8.0366  -12.8031   17.9582 C   0  0  0  0  0  0  0  0  0  0  0  0
    7.6240  -13.8568   18.9409 C   0  0  1  0  0  0  0  0  0  0  0  0
    7.6828  -15.1176   18.3676 O   0  0  0  0  0  0  0  0  0  0  0  0
    8.4588  -13.8651   20.2020 C   0  0  2  0  0  0  0  0  0  0  0  0
    9.7969  -14.3239   19.9857 N   0  0  0  0  0  0  0  0  0  0  0  0
    7.7822  -14.6192   21.3004 C   0  0  0  0  0  0  0  0  0  0  0  0
    6.5900  -14.3507   21.5948 O   0  0  0  0  0  0  0  0  0  0  0  0
    6.2418  -18.9105   24.1860 N   0  0  0  0  0  0  0  0  0  0  0  0
    7.6353  -18.7399   23.9988 C   0  0  0  0  0  0  0  0  0  0  0  0
    8.3847  -19.3950   24.7550 O   0  0  0  0  0  0  0  0  0  0  0  0
    8.1044  -17.8373   22.9662 C   0  0  0  0  0  0  0  0  0  0  0  0
    7.6832  -16.4225   23.0145 C   0  0  2  0  0  0  0  0  0  0  0  0
    8.4482  -15.6376   22.0285 N   0  0  0  0  0  0  0  0  0  0  0  0
    7.6641  -15.7381   24.2993 C   0  0  0  0  0  0  0  0  0  0  0  0
    6.5578  -15.6104   24.9092 O   0  0  0  0  0  0  0  0  0  0  0  0
    6.3610  -11.3470   27.0965 C   0  0  0  0  0  0  0  0  0  0  0  0
    7.4504  -12.3187   27.0695 C   0  0  0  0  0  0  0  0  0  0  0  0
    7.5654  -13.3675   26.0448 C   0  0  2  0  0  0  0  0  0  0  0  0
    6.2129  -14.0850   25.9632 C   0  0  0  0  0  0  0  0  0  0  0  0
    8.7005  -14.2592   26.0997 C   0  0  2  0  0  0  0  0  0  0  0  0
    8.7546  -15.1933   24.9605 N   0  0  0  0  0  0  0  0  0  0  0  0
    9.0446  -15.0251   27.2758 C   0  0  0  0  0  0  0  0  0  0  0  0
    9.2866  -14.3939   28.3757 O   0  0  0  0  0  0  0  0  0  0  0  0
    9.1585  -16.3882   27.4294 O   0  0  0  0  0  0  0  0  0  0  0  0
  2  3  1  0
  2  1  1  6
  4  2  1  0
  4  5  1  6
  6  7  2  0
  6  4  1  0
  9  8  1  0
  9 11  1  0
 10  9  2  0
 12 11  1  1
 12 13  1  0
 13  6  1  0
 14 12  1  0
 15 14  2  0
 17 16  1  0
 18 17  1  0
 18 20  1  0
 18 19  1  1
 20 22  1  0
 20 21  1  6
 21 14  1  0
 22 24  1  0
 23 22  2  0
M  END
$$$$
