TNI.pdb
     RDKit          3D

 24 23  0  0  1  0  0  0  0  0999 V2000
    9.0889  -12.5809   19.8799 C   0  0  0  0  0  0  0  0  0  0  0  0
    8.1099  -13.3113   19.0115 C   0  0  1  0  0  0  0  0  0  0  0  0
    8.1307  -12.8147   17.7173 O   0  0  0  0  0  0  0  0  0  0  0  0
    8.3499  -14.8035   18.9554 C   0  0  2  0  0  0  0  0  0  0  0  0
    7.4911  -15.4751   18.0286 N   0  0  0  0  0  0  0  0  0  0  0  0
    8.2901  -15.4182   20.3162 C   0  0  0  0  0  0  0  0  0  0  0  0
    7.1732  -15.6692   20.8354 O   0  0  0  0  0  0  0  0  0  0  0  0
   11.1024  -18.8802   20.4735 N   0  0  0  0  0  0  0  0  0  0  0  0
   10.1027  -18.6537   21.4510 C   0  0  0  0  0  0  0  0  0  0  0  0
    9.1195  -19.4254   21.4334 O   0  0  0  0  0  0  0  0  0  0  0  0
   10.2705  -17.5663   22.3947 C   0  0  0  0  0  0  0  0  0  0  0  0
    9.3320  -16.4272   22.3400 C   0  0  2  0  0  0  0  0  0  0  0  0
    9.4642  -15.7302   21.0476 N   0  0  0  0  0  0  0  0  0  0  0  0
    9.3282  -15.4664   23.4337 C   0  0  0  0  0  0  0  0  0  0  0  0
   10.2577  -14.6036   23.4947 O   0  0  0  0  0  0  0  0  0  0  0  0
    6.3335  -11.3606   26.6215 C   0  0  0  0  0  0  0  0  0  0  0  0
    7.3300  -12.4272   26.5924 C   0  0  0  0  0  0  0  0  0  0  0  0
    7.3583  -13.4713   25.5568 C   0  0  2  0  0  0  0  0  0  0  0  0
    5.9582  -14.0923   25.4873 C   0  0  0  0  0  0  0  0  0  0  0  0
    8.4293  -14.4402   25.5882 C   0  0  2  0  0  0  0  0  0  0  0  0
    8.3905  -15.3783   24.4516 N   0  0  0  0  0  0  0  0  0  0  0  0
    8.7471  -15.2257   26.7587 C   0  0  0  0  0  0  0  0  0  0  0  0
    9.1953  -14.6198   27.8069 O   0  0  0  0  0  0  0  0  0  0  0  0
    8.6412  -16.5839   26.9557 O   0  0  0  0  0  0  0  0  0  0  0  0
  2  3  1  0
  2  1  1  1
  4  2  1  0
  4  5  1  6
  6  7  2  0
  6  4  1  0
  9  8  1  0
  9 11  1  0
 10  9  2  0
 12 11  1  1
 12 13  1  0
 13  6  1  0
 14 12  1  0
 15 14  2  0
 17 16  1  0
 18 17  1  0
 18 20  1  0
 18 19  1  1
 20 22  1  0
 20 21  1  6
 21 14  1  0
 22 24  1  0
 23 22  2  0
M  END
$$$$
