TNI.pdb
     RDKit          3D

 24 23  0  0  1  0  0  0  0  0999 V2000
    7.4102  -12.5299   18.1072 C   0  0  0  0  0  0  0  0  0  0  0  0
    7.3031  -13.5857   19.1654 C   0  0  1  0  0  0  0  0  0  0  0  0
    7.1962  -14.8458   18.5975 O   0  0  0  0  0  0  0  0  0  0  0  0
    8.4681  -13.5928   20.1300 C   0  0  2  0  0  0  0  0  0  0  0  0
    9.7236  -13.8437   19.4911 N   0  0  0  0  0  0  0  0  0  0  0  0
    8.2271  -14.5272   21.2710 C   0  0  0  0  0  0  0  0  0  0  0  0
    7.1866  -14.4037   21.9653 O   0  0  0  0  0  0  0  0  0  0  0  0
    9.8532  -18.7710   20.2820 N   0  0  0  0  0  0  0  0  0  0  0  0
    8.9146  -18.4856   21.3036 C   0  0  0  0  0  0  0  0  0  0  0  0
    7.7393  -18.8608   21.1028 O   0  0  0  0  0  0  0  0  0  0  0  0
    9.3577  -17.7911   22.4963 C   0  0  0  0  0  0  0  0  0  0  0  0
    8.8517  -16.4276   22.7535 C   0  0  2  0  0  0  0  0  0  0  0  0
    9.1435  -15.5584   21.5989 N   0  0  0  0  0  0  0  0  0  0  0  0
    9.2241  -15.7618   23.9934 C   0  0  0  0  0  0  0  0  0  0  0  0
   10.3598  -15.1994   24.0699 O   0  0  0  0  0  0  0  0  0  0  0  0
    6.3238  -12.1034   26.0574 C   0  0  0  0  0  0  0  0  0  0  0  0
    7.3698  -13.0840   25.7818 C   0  0  0  0  0  0  0  0  0  0  0  0
    7.9286  -13.9727   26.8119 C   0  0  2  0  0  0  0  0  0  0  0  0
    8.4524  -13.0894   27.9504 C   0  0  0  0  0  0  0  0  0  0  0  0
    8.8494  -15.0068   26.4002 C   0  0  2  0  0  0  0  0  0  0  0  0
    8.4523  -15.6635   25.1414 N   0  0  0  0  0  0  0  0  0  0  0  0
    9.3038  -16.0550   27.2849 C   0  0  0  0  0  0  0  0  0  0  0  0
    8.7624  -17.2232   27.1890 O   0  0  0  0  0  0  0  0  0  0  0  0
   10.2730  -16.0162   28.2617 O   0  0  0  0  0  0  0  0  0  0  0  0
  2  3  1  0
  2  1  1  6
  4  2  1  0
  4  5  1  6
  6  7  2  0
  6  4  1  0
  9  8  1  0
  9 11  1  0
 10  9  2  0
 12 11  1  6
 12 13  1  0
 13  6  1  0
 14 12  1  0
 15 14  2  0
 17 16  1  0
 18 17  1  0
 18 20  1  0
 18 19  1  1
 20 22  1  0
 20 21  1  6
 21 14  1  0
 22 24  1  0
 23 22  2  0
M  END
$$$$
