TGC.pdb
     RDKit          3D

 18 17  0  0  1  0  0  0  0  0999 V2000
   16.2225  -11.7095  -13.9419 C   0  0  0  0  0  0  0  0  0  0  0  0
   16.2671  -12.6759  -15.0817 C   0  0  1  0  0  0  0  0  0  0  0  0
   14.9796  -13.2020  -15.2719 O   0  0  0  0  0  0  0  0  0  0  0  0
   16.6248  -11.9661  -16.3905 C   0  0  2  0  0  0  0  0  0  0  0  0
   16.4673  -12.9240  -17.4416 N   0  0  0  0  0  0  0  0  0  0  0  0
   17.9986  -11.4053  -16.3412 C   0  0  0  0  0  0  0  0  0  0  0  0
   18.9842  -12.0329  -16.7967 O   0  0  0  0  0  0  0  0  0  0  0  0
   18.2141  -10.1257  -15.7656 N   0  0  0  0  0  0  0  0  0  0  0  0
   19.4864   -9.4947  -15.6543 C   0  0  0  0  0  0  0  0  0  0  0  0
   19.4266   -8.1430  -15.0633 C   0  0  0  0  0  0  0  0  0  0  0  0
   18.3176   -7.5673  -14.9288 O   0  0  0  0  0  0  0  0  0  0  0  0
   20.6092   -7.4823  -14.6433 N   0  0  0  0  0  0  0  0  0  0  0  0
   20.6330   -6.1845  -14.0268 C   0  0  1  0  0  0  0  0  0  0  0  0
   21.9034   -6.0914  -13.1851 C   0  0  0  0  0  0  0  0  0  0  0  0
   22.0363   -7.4382  -12.0035 S   0  0  0  0  0  0  0  0  0  0  0  0
   20.7041   -5.0910  -15.0528 C   0  0  0  0  0  0  0  0  0  0  0  0
   21.3306   -5.2500  -16.1301 O   0  0  0  0  0  0  0  0  0  0  0  0
   20.0718   -3.8905  -14.8111 O   0  0  0  0  0  0  0  0  0  0  0  0
  2  1  1  1
  3  2  1  0
  4  6  1  0
  4  5  1  6
  4  2  1  0
  6  7  2  0
  8  9  1  0
  8  6  1  0
 10 11  2  0
 10  9  1  0
 12 10  1  0
 13 12  1  0
 13 14  1  1
 14 15  1  0
 16 13  1  0
 17 16  2  0
 18 16  1  0
M  END
$$$$
