TGC.pdb
     RDKit          3D

 18 17  0  0  1  0  0  0  0  0999 V2000
   28.2417  -18.7666  -15.4239 C   0  0  0  0  0  0  0  0  0  0  0  0
   26.8750  -19.2192  -15.0213 C   0  0  1  0  0  0  0  0  0  0  0  0
   25.9884  -18.9572  -16.0776 O   0  0  0  0  0  0  0  0  0  0  0  0
   26.8375  -20.7357  -14.8122 C   0  0  2  0  0  0  0  0  0  0  0  0
   27.1743  -21.3385  -16.0653 N   0  0  0  0  0  0  0  0  0  0  0  0
   25.5111  -21.1782  -14.3132 C   0  0  0  0  0  0  0  0  0  0  0  0
   24.6684  -21.7180  -15.0689 O   0  0  0  0  0  0  0  0  0  0  0  0
   25.1770  -20.9901  -12.9464 N   0  0  0  0  0  0  0  0  0  0  0  0
   23.9033  -21.2826  -12.3792 C   0  0  0  0  0  0  0  0  0  0  0  0
   22.7852  -20.5849  -13.0447 C   0  0  0  0  0  0  0  0  0  0  0  0
   22.7951  -19.3315  -13.1356 O   0  0  0  0  0  0  0  0  0  0  0  0
   21.6949  -21.3133  -13.5853 N   0  0  0  0  0  0  0  0  0  0  0  0
   20.4989  -20.7091  -14.1043 C   0  0  1  0  0  0  0  0  0  0  0  0
   20.2414  -21.2992  -15.4887 C   0  0  0  0  0  0  0  0  0  0  0  0
   21.1105  -20.4044  -16.7815 S   0  0  0  0  0  0  0  0  0  0  0  0
   19.3050  -21.0394  -13.2564 C   0  0  0  0  0  0  0  0  0  0  0  0
   19.2350  -22.1240  -12.6263 O   0  0  0  0  0  0  0  0  0  0  0  0
   18.2658  -20.1386  -13.1660 O   0  0  0  0  0  0  0  0  0  0  0  0
  2  1  1  6
  3  2  1  0
  4  6  1  0
  4  5  1  6
  4  2  1  0
  6  7  2  0
  8  9  1  0
  8  6  1  0
 10 11  2  0
 10  9  1  0
 12 10  1  0
 13 12  1  0
 13 14  1  6
 14 15  1  0
 16 13  1  0
 17 16  2  0
 18 16  1  0
M  END
$$$$
