TGC.pdb
     RDKit          3D

 18 17  0  0  1  0  0  0  0  0999 V2000
   19.0591  -11.3613  -19.8756 C   0  0  0  0  0  0  0  0  0  0  0  0
   19.0580  -12.3646  -18.7674 C   0  0  1  0  0  0  0  0  0  0  0  0
   19.7838  -13.4916  -19.1843 O   0  0  0  0  0  0  0  0  0  0  0  0
   19.7946  -11.8261  -17.5376 C   0  0  2  0  0  0  0  0  0  0  0  0
   19.9722  -12.9275  -16.6418 N   0  0  0  0  0  0  0  0  0  0  0  0
   19.0491  -10.7055  -16.9110 C   0  0  0  0  0  0  0  0  0  0  0  0
   18.0003  -10.8981  -16.2510 O   0  0  0  0  0  0  0  0  0  0  0  0
   19.5269   -9.3766  -17.0562 N   0  0  0  0  0  0  0  0  0  0  0  0
   18.9066   -8.2289  -16.4840 C   0  0  0  0  0  0  0  0  0  0  0  0
   19.6073   -7.7101  -15.2925 C   0  0  0  0  0  0  0  0  0  0  0  0
   19.0588   -7.7803  -14.1639 O   0  0  0  0  0  0  0  0  0  0  0  0
   20.8970   -7.1309  -15.4046 N   0  0  0  0  0  0  0  0  0  0  0  0
   21.6915   -6.7071  -14.2847 C   0  0  1  0  0  0  0  0  0  0  0  0
   22.9832   -7.5211  -14.2950 C   0  0  0  0  0  0  0  0  0  0  0  0
   22.7093   -9.2369  -13.8384 S   0  0  0  0  0  0  0  0  0  0  0  0
   22.0811   -5.2624  -14.4038 C   0  0  0  0  0  0  0  0  0  0  0  0
   22.6113   -4.6506  -13.4432 O   0  0  0  0  0  0  0  0  0  0  0  0
   21.8543   -4.5929  -15.5870 O   0  0  0  0  0  0  0  0  0  0  0  0
  2  1  1  6
  3  2  1  0
  4  6  1  0
  4  5  1  1
  4  2  1  0
  6  7  2  0
  8  9  1  0
  8  6  1  0
 10 11  2  0
 10  9  1  0
 12 10  1  0
 13 12  1  0
 13 14  1  6
 14 15  1  0
 16 13  1  0
 17 16  2  0
 18 16  1  0
M  END
$$$$
