TGC.pdb
     RDKit          3D

 18 17  0  0  1  0  0  0  0  0999 V2000
   28.9389  -17.2930  -17.4059 C   0  0  0  0  0  0  0  0  0  0  0  0
   27.6192  -17.6715  -17.9974 C   0  0  1  0  0  0  0  0  0  0  0  0
   27.8453  -18.2789  -19.2426 O   0  0  0  0  0  0  0  0  0  0  0  0
   26.9152  -18.7274  -17.1404 C   0  0  2  0  0  0  0  0  0  0  0  0
   25.7671  -19.1634  -17.8746 N   0  0  0  0  0  0  0  0  0  0  0  0
   26.5572  -18.1863  -15.8050 C   0  0  0  0  0  0  0  0  0  0  0  0
   26.1612  -17.0058  -15.6560 O   0  0  0  0  0  0  0  0  0  0  0  0
   26.6621  -19.0182  -14.6595 N   0  0  0  0  0  0  0  0  0  0  0  0
   26.4615  -18.5764  -13.3201 C   0  0  0  0  0  0  0  0  0  0  0  0
   26.5348  -19.6619  -12.3220 C   0  0  0  0  0  0  0  0  0  0  0  0
   26.7315  -20.8450  -12.6974 O   0  0  0  0  0  0  0  0  0  0  0  0
   26.3854  -19.3864  -10.9388 N   0  0  0  0  0  0  0  0  0  0  0  0
   26.3483  -20.3937   -9.9147 C   0  0  1  0  0  0  0  0  0  0  0  0
   26.8758  -19.7678   -8.6258 C   0  0  0  0  0  0  0  0  0  0  0  0
   26.8389  -20.9184   -7.2466 S   0  0  0  0  0  0  0  0  0  0  0  0
   24.9435  -20.8462   -9.6410 C   0  0  0  0  0  0  0  0  0  0  0  0
   23.9711  -20.0608   -9.7672 O   0  0  0  0  0  0  0  0  0  0  0  0
   24.7136  -22.1459   -9.2440 O   0  0  0  0  0  0  0  0  0  0  0  0
  2  1  1  1
  3  2  1  0
  4  6  1  0
  4  5  1  6
  4  2  1  0
  6  7  2  0
  8  9  1  0
  8  6  1  0
 10 11  2  0
 10  9  1  0
 12 10  1  0
 13 12  1  0
 13 14  1  1
 14 15  1  0
 16 13  1  0
 17 16  2  0
 18 16  1  0
M  END
$$$$
