TGC.pdb
     RDKit          3D

 18 17  0  0  1  0  0  0  0  0999 V2000
   17.3776  -13.8934  -17.5269 C   0  0  0  0  0  0  0  0  0  0  0  0
   18.1683  -12.6468  -17.7629 C   0  0  1  0  0  0  0  0  0  0  0  0
   17.4589  -11.8305  -18.6578 O   0  0  0  0  0  0  0  0  0  0  0  0
   18.3060  -11.8311  -16.4743 C   0  0  2  0  0  0  0  0  0  0  0  0
   16.9813  -11.5083  -16.0408 N   0  0  0  0  0  0  0  0  0  0  0  0
   19.1385  -10.6207  -16.6893 C   0  0  0  0  0  0  0  0  0  0  0  0
   20.3695  -10.6982  -16.9157 O   0  0  0  0  0  0  0  0  0  0  0  0
   18.5356   -9.3364  -16.6395 N   0  0  0  0  0  0  0  0  0  0  0  0
   19.2044   -8.1182  -16.9526 C   0  0  0  0  0  0  0  0  0  0  0  0
   19.4830   -7.2762  -15.7722 C   0  0  0  0  0  0  0  0  0  0  0  0
   18.6181   -7.1603  -14.8679 O   0  0  0  0  0  0  0  0  0  0  0  0
   20.7194   -6.5931  -15.6444 N   0  0  0  0  0  0  0  0  0  0  0  0
   21.0794   -5.7805  -14.5152 C   0  0  1  0  0  0  0  0  0  0  0  0
   22.3997   -6.3106  -13.9614 C   0  0  0  0  0  0  0  0  0  0  0  0
   22.2703   -8.0158  -13.4107 S   0  0  0  0  0  0  0  0  0  0  0  0
   21.3130   -4.3536  -14.9185 C   0  0  0  0  0  0  0  0  0  0  0  0
   21.3816   -4.0227  -16.1285 O   0  0  0  0  0  0  0  0  0  0  0  0
   21.4550   -3.3873  -13.9459 O   0  0  0  0  0  0  0  0  0  0  0  0
  2  1  1  1
  3  2  1  0
  4  6  1  0
  4  5  1  6
  4  2  1  0
  6  7  2  0
  8  9  1  0
  8  6  1  0
 10 11  2  0
 10  9  1  0
 12 10  1  0
 13 12  1  0
 13 14  1  6
 14 15  1  0
 16 13  1  0
 17 16  2  0
 18 16  1  0
M  END
$$$$
