TGC.pdb
     RDKit          3D

 18 17  0  0  1  0  0  0  0  0999 V2000
   22.2421  -17.2917  -17.5454 C   0  0  0  0  0  0  0  0  0  0  0  0
   23.3567  -17.6383  -18.4795 C   0  0  1  0  0  0  0  0  0  0  0  0
   23.6042  -16.5335  -19.3093 O   0  0  0  0  0  0  0  0  0  0  0  0
   24.6595  -17.8843  -17.7134 C   0  0  2  0  0  0  0  0  0  0  0  0
   25.6992  -18.0123  -18.6879 N   0  0  0  0  0  0  0  0  0  0  0  0
   24.5543  -19.0818  -16.8421 C   0  0  0  0  0  0  0  0  0  0  0  0
   24.8179  -20.2320  -17.2667 O   0  0  0  0  0  0  0  0  0  0  0  0
   24.1454  -18.9329  -15.4908 N   0  0  0  0  0  0  0  0  0  0  0  0
   24.0354  -20.0040  -14.5581 C   0  0  0  0  0  0  0  0  0  0  0  0
   24.5723  -19.6816  -13.2211 C   0  0  0  0  0  0  0  0  0  0  0  0
   25.1384  -18.5771  -13.0237 O   0  0  0  0  0  0  0  0  0  0  0  0
   24.4574  -20.6058  -12.1514 N   0  0  0  0  0  0  0  0  0  0  0  0
   24.9433  -20.3644  -10.8208 C   0  0  1  0  0  0  0  0  0  0  0  0
   23.9053  -20.9052   -9.8403 C   0  0  0  0  0  0  0  0  0  0  0  0
   22.2250  -20.5301  -10.3536 S   0  0  0  0  0  0  0  0  0  0  0  0
   26.2221  -21.1061  -10.5607 C   0  0  0  0  0  0  0  0  0  0  0  0
   26.6344  -21.9892  -11.3535 O   0  0  0  0  0  0  0  0  0  0  0  0
   26.9590  -20.8152   -9.4329 O   0  0  0  0  0  0  0  0  0  0  0  0
  2  1  1  1
  3  2  1  0
  4  6  1  0
  4  5  1  6
  4  2  1  0
  6  7  2  0
  8  9  1  0
  8  6  1  0
 10 11  2  0
 10  9  1  0
 12 10  1  0
 13 12  1  0
 13 14  1  1
 14 15  1  0
 16 13  1  0
 17 16  2  0
 18 16  1  0
M  END
$$$$
