TGC.pdb
     RDKit          3D

 18 17  0  0  1  0  0  0  0  0999 V2000
   27.4920  -21.3581  -17.8239 C   0  0  0  0  0  0  0  0  0  0  0  0
   26.4850  -21.3027  -16.7204 C   0  0  1  0  0  0  0  0  0  0  0  0
   26.5547  -22.5003  -15.9914 O   0  0  0  0  0  0  0  0  0  0  0  0
   26.8210  -20.1887  -15.7250 C   0  0  2  0  0  0  0  0  0  0  0  0
   28.1587  -20.4214  -15.2738 N   0  0  0  0  0  0  0  0  0  0  0  0
   25.8470  -20.1551  -14.6050 C   0  0  0  0  0  0  0  0  0  0  0  0
   26.1993  -19.8855  -13.4320 O   0  0  0  0  0  0  0  0  0  0  0  0
   24.4780  -20.4340  -14.8568 N   0  0  0  0  0  0  0  0  0  0  0  0
   23.4355  -20.2919  -13.8965 C   0  0  0  0  0  0  0  0  0  0  0  0
   22.0937  -20.5992  -14.4302 C   0  0  0  0  0  0  0  0  0  0  0  0
   21.9164  -20.6748  -15.6721 O   0  0  0  0  0  0  0  0  0  0  0  0
   20.9968  -20.8112  -13.5565 N   0  0  0  0  0  0  0  0  0  0  0  0
   19.6889  -21.2214  -13.9879 C   0  0  1  0  0  0  0  0  0  0  0  0
   18.9872  -21.8698  -12.7969 C   0  0  0  0  0  0  0  0  0  0  0  0
   19.9604  -23.1954  -12.0736 S   0  0  0  0  0  0  0  0  0  0  0  0
   18.8542  -20.0450  -14.4030 C   0  0  0  0  0  0  0  0  0  0  0  0
   17.7824  -20.2005  -15.0398 O   0  0  0  0  0  0  0  0  0  0  0  0
   19.2686  -18.7705  -14.0811 O   0  0  0  0  0  0  0  0  0  0  0  0
  2  1  1  6
  3  2  1  0
  4  6  1  0
  4  5  1  1
  4  2  1  0
  6  7  2  0
  8  9  1  0
  8  6  1  0
 10 11  2  0
 10  9  1  0
 12 10  1  0
 13 12  1  0
 13 14  1  1
 14 15  1  0
 16 13  1  0
 17 16  2  0
 18 16  1  0
M  END
$$$$
