TGC.pdb
     RDKit          3D

 18 17  0  0  1  0  0  0  0  0999 V2000
   26.0838  -13.7091  -18.7362 C   0  0  0  0  0  0  0  0  0  0  0  0
   24.9827  -12.8208  -18.2532 C   0  0  1  0  0  0  0  0  0  0  0  0
   23.7721  -13.2704  -18.8035 O   0  0  0  0  0  0  0  0  0  0  0  0
   24.8156  -12.9284  -16.7348 C   0  0  2  0  0  0  0  0  0  0  0  0
   24.6949  -14.3202  -16.4256 N   0  0  0  0  0  0  0  0  0  0  0  0
   23.6462  -12.1439  -16.2646 C   0  0  0  0  0  0  0  0  0  0  0  0
   22.5542  -12.6921  -15.9825 O   0  0  0  0  0  0  0  0  0  0  0  0
   23.7556  -10.7352  -16.1268 N   0  0  0  0  0  0  0  0  0  0  0  0
   22.7113   -9.8864  -15.6596 C   0  0  0  0  0  0  0  0  0  0  0  0
   23.0813   -8.4575  -15.6250 C   0  0  0  0  0  0  0  0  0  0  0  0
   24.2417   -8.1034  -15.9528 O   0  0  0  0  0  0  0  0  0  0  0  0
   22.1406   -7.4744  -15.2249 N   0  0  0  0  0  0  0  0  0  0  0  0
   22.4187   -6.0656  -15.1720 C   0  0  1  0  0  0  0  0  0  0  0  0
   21.3907   -5.3543  -16.0486 C   0  0  0  0  0  0  0  0  0  0  0  0
   21.2278   -6.1221  -17.6647 S   0  0  0  0  0  0  0  0  0  0  0  0
   22.2580   -5.5265  -13.7803 C   0  0  0  0  0  0  0  0  0  0  0  0
   21.5927   -6.1484  -12.9149 O   0  0  0  0  0  0  0  0  0  0  0  0
   22.8499   -4.3283  -13.4434 O   0  0  0  0  0  0  0  0  0  0  0  0
  2  1  1  6
  3  2  1  0
  4  6  1  0
  4  5  1  6
  4  2  1  0
  6  7  2  0
  8  9  1  0
  8  6  1  0
 10 11  2  0
 10  9  1  0
 12 10  1  0
 13 12  1  0
 13 14  1  6
 14 15  1  0
 16 13  1  0
 17 16  2  0
 18 16  1  0
M  END
$$$$
