TGC.pdb
     RDKit          3D

 18 17  0  0  1  0  0  0  0  0999 V2000
   20.2840  -12.6588  -18.8790 C   0  0  0  0  0  0  0  0  0  0  0  0
   19.4416  -11.4510  -18.6215 C   0  0  1  0  0  0  0  0  0  0  0  0
   19.2053  -11.3570  -17.2410 O   0  0  0  0  0  0  0  0  0  0  0  0
   20.1866  -10.1692  -19.0050 C   0  0  2  0  0  0  0  0  0  0  0  0
   21.3789  -10.1272  -18.2152 N   0  0  0  0  0  0  0  0  0  0  0  0
   19.3350   -8.9701  -18.8029 C   0  0  0  0  0  0  0  0  0  0  0  0
   18.4888   -8.6104  -19.6556 O   0  0  0  0  0  0  0  0  0  0  0  0
   19.4736   -8.2027  -17.6166 N   0  0  0  0  0  0  0  0  0  0  0  0
   18.7350   -7.0187  -17.3304 C   0  0  0  0  0  0  0  0  0  0  0  0
   19.0806   -6.4052  -16.0327 C   0  0  0  0  0  0  0  0  0  0  0  0
   18.5004   -5.3533  -15.6635 O   0  0  0  0  0  0  0  0  0  0  0  0
   20.0629   -6.9895  -15.1930 N   0  0  0  0  0  0  0  0  0  0  0  0
   20.4894   -6.4304  -13.9398 C   0  0  1  0  0  0  0  0  0  0  0  0
   20.5728   -7.5689  -12.9258 C   0  0  0  0  0  0  0  0  0  0  0  0
   21.1820   -7.0141  -11.3294 S   0  0  0  0  0  0  0  0  0  0  0  0
   21.8627   -5.8334  -14.0445 C   0  0  0  0  0  0  0  0  0  0  0  0
   22.7487   -6.3622  -14.7611 O   0  0  0  0  0  0  0  0  0  0  0  0
   22.1593   -4.6847  -13.3430 O   0  0  0  0  0  0  0  0  0  0  0  0
  2  1  1  1
  3  2  1  0
  4  6  1  0
  4  5  1  1
  4  2  1  0
  6  7  2  0
  8  9  1  0
  8  6  1  0
 10 11  2  0
 10  9  1  0
 12 10  1  0
 13 12  1  0
 13 14  1  1
 14 15  1  0
 16 13  1  0
 17 16  2  0
 18 16  1  0
M  END
$$$$
