TGC.pdb
     RDKit          3D

 18 17  0  0  1  0  0  0  0  0999 V2000
   17.2394  -15.2590  -19.0868 C   0  0  0  0  0  0  0  0  0  0  0  0
   17.9477  -13.9462  -18.9878 C   0  0  1  0  0  0  0  0  0  0  0  0
   17.1244  -12.9517  -19.5390 O   0  0  0  0  0  0  0  0  0  0  0  0
   18.1623  -13.5462  -17.5253 C   0  0  2  0  0  0  0  0  0  0  0  0
   16.8666  -13.4306  -16.9296 N   0  0  0  0  0  0  0  0  0  0  0  0
   18.9445  -12.2887  -17.4199 C   0  0  0  0  0  0  0  0  0  0  0  0
   20.1841  -12.2649  -17.6083 O   0  0  0  0  0  0  0  0  0  0  0  0
   18.2821  -11.0751  -17.0978 N   0  0  0  0  0  0  0  0  0  0  0  0
   18.9236   -9.8070  -16.9995 C   0  0  0  0  0  0  0  0  0  0  0  0
   19.6185   -9.5937  -15.7144 C   0  0  0  0  0  0  0  0  0  0  0  0
   19.0758   -9.9588  -14.6413 O   0  0  0  0  0  0  0  0  0  0  0  0
   20.8963   -8.9795  -15.6743 N   0  0  0  0  0  0  0  0  0  0  0  0
   21.5983   -8.6556  -14.4630 C   0  0  1  0  0  0  0  0  0  0  0  0
   23.0804   -8.9417  -14.6924 C   0  0  0  0  0  0  0  0  0  0  0  0
   23.4084  -10.6944  -14.9118 S   0  0  0  0  0  0  0  0  0  0  0  0
   21.4781   -7.1962  -14.1328 C   0  0  0  0  0  0  0  0  0  0  0  0
   21.7869   -6.7591  -12.9962 O   0  0  0  0  0  0  0  0  0  0  0  0
   21.0212   -6.3181  -15.0918 O   0  0  0  0  0  0  0  0  0  0  0  0
  2  1  1  1
  3  2  1  0
  4  6  1  0
  4  5  1  6
  4  2  1  0
  6  7  2  0
  8  9  1  0
  8  6  1  0
 10 11  2  0
 10  9  1  0
 12 10  1  0
 13 12  1  0
 13 14  1  6
 14 15  1  0
 16 13  1  0
 17 16  2  0
 18 16  1  0
M  END
$$$$
