TGC.pdb
     RDKit          3D

 18 17  0  0  1  0  0  0  0  0999 V2000
   18.1353  -21.8924    4.4188 C   0  0  0  0  0  0  0  0  0  0  0  0
   17.4090  -21.2187    3.2992 C   0  0  1  0  0  0  0  0  0  0  0  0
   16.7746  -22.2013    2.5228 O   0  0  0  0  0  0  0  0  0  0  0  0
   16.2887  -20.3210    3.8321 C   0  0  2  0  0  0  0  0  0  0  0  0
   15.4389  -20.0112    2.7235 N   0  0  0  0  0  0  0  0  0  0  0  0
   16.8367  -19.1023    4.4791 C   0  0  0  0  0  0  0  0  0  0  0  0
   17.1324  -18.0796    3.8164 O   0  0  0  0  0  0  0  0  0  0  0  0
   17.0353  -19.0829    5.8846 N   0  0  0  0  0  0  0  0  0  0  0  0
   17.6405  -18.0095    6.5994 C   0  0  0  0  0  0  0  0  0  0  0  0
   18.9829  -18.3305    7.1236 C   0  0  0  0  0  0  0  0  0  0  0  0
   19.4333  -19.4989    7.0173 O   0  0  0  0  0  0  0  0  0  0  0  0
   19.7747  -17.3335    7.7486 N   0  0  0  0  0  0  0  0  0  0  0  0
   21.0262  -17.5916    8.4059 C   0  0  1  0  0  0  0  0  0  0  0  0
   22.0028  -16.4913    7.9975 C   0  0  0  0  0  0  0  0  0  0  0  0
   23.6859  -16.8505    8.5131 S   0  0  0  0  0  0  0  0  0  0  0  0
   20.8860  -17.5231    9.8989 C   0  0  0  0  0  0  0  0  0  0  0  0
   20.1476  -16.6652   10.4440 O   0  0  0  0  0  0  0  0  0  0  0  0
   21.5785  -18.4161   10.6880 O   0  0  0  0  0  0  0  0  0  0  0  0
  2  1  1  1
  3  2  1  0
  4  6  1  0
  4  5  1  6
  4  2  1  0
  6  7  2  0
  8  9  1  0
  8  6  1  0
 10 11  2  0
 10  9  1  0
 12 10  1  0
 13 12  1  0
 13 14  1  6
 14 15  1  0
 16 13  1  0
 17 16  2  0
 18 16  1  0
M  END
$$$$
