CHP.pdb
     RDKit          3D

 24 25  0  0  1  0  0  0  0  0999 V2000
    6.8664  -14.9578   19.0042 N   0  0  0  0  0  0  0  0  0  0  0  0
    7.7140  -14.4352   20.0233 C   0  0  1  0  0  0  0  0  0  0  0  0
    7.8541  -12.9339   19.9482 C   0  0  0  0  0  0  0  0  0  0  0  0
    8.8539  -12.5266   18.4935 S   0  0  0  0  0  0  0  0  0  0  0  0
    7.3106  -14.9127   21.3464 C   0  0  0  0  0  0  0  0  0  0  0  0
    6.0621  -14.8859   21.6176 O   0  0  0  0  0  0  0  0  0  0  0  0
    8.1680  -15.3955   22.3399 N   0  0  0  0  0  0  0  0  0  0  0  0
    7.7132  -15.8357   23.6661 C   0  0  1  0  0  0  0  0  0  0  0  0
    8.0132  -17.3326   23.7823 C   0  0  0  0  0  0  0  0  0  0  0  0
    7.6949  -17.7622   25.1856 C   0  0  0  0  0  0  0  0  0  0  0  0
    8.5650  -18.2403   26.1466 C   0  0  0  0  0  0  0  0  0  0  0  0
    7.8760  -18.5122   27.2680 N   0  0  0  0  0  0  0  0  0  0  0  0
    6.5962  -18.2184   27.0399 C   0  0  0  0  0  0  0  0  0  0  0  0
    6.4860  -17.7701   25.7961 N   0  0  0  0  0  0  0  0  0  0  0  0
    8.5214  -15.1519   24.6746 C   0  0  0  0  0  0  0  0  0  0  0  0
    9.7960  -15.2338   24.6027 O   0  0  0  0  0  0  0  0  0  0  0  0
    7.9742  -14.3995   25.7265 N   0  0  0  0  0  0  0  0  0  0  0  0
    6.5170  -14.2744   26.0082 C   0  0  0  0  0  0  0  0  0  0  0  0
    6.4302  -12.8776   26.5927 C   0  0  0  0  0  0  0  0  0  0  0  0
    7.6388  -12.8446   27.4665 C   0  0  0  0  0  0  0  0  0  0  0  0
    8.6726  -13.6716   26.7437 C   0  0  1  0  0  0  0  0  0  0  0  0
    9.3373  -14.6096   27.7135 C   0  0  0  0  0  0  0  0  0  0  0  0
    9.0234  -15.8110   27.6824 O   0  0  0  0  0  0  0  0  0  0  0  0
   10.2685  -14.1412   28.6093 O   0  0  0  0  0  0  0  0  0  0  0  0
  2  1  1  6
  3  2  1  0
  4  3  1  0
  5  2  1  0
  5  6  2  0
  7  5  1  0
  8  7  1  0
  9 10  1  0
  8  9  1  6
 10 14  1  0
 11 12  1  0
 11 10  2  0
 12 13  1  0
 13 14  2  0
 15 17  1  0
 15  8  1  0
 16 15  2  0
 17 18  1  0
 19 18  1  0
 20 19  1  0
 20 21  1  0
 21 17  1  0
 21 22  1  1
 22 24  1  0
 23 22  2  0
M  END
$$$$
