CHP.pdb
     RDKit          3D

 24 25  0  0  1  0  0  0  0  0999 V2000
    7.5927  -15.3055   18.6570 N   0  0  0  0  0  0  0  0  0  0  0  0
    8.1288  -14.4464   19.6593 C   0  0  1  0  0  0  0  0  0  0  0  0
    7.9422  -12.9848   19.3313 C   0  0  0  0  0  0  0  0  0  0  0  0
    8.7449  -12.0029   20.6249 S   0  0  0  0  0  0  0  0  0  0  0  0
    7.6354  -14.8083   20.9885 C   0  0  0  0  0  0  0  0  0  0  0  0
    6.3770  -14.9953   21.1097 O   0  0  0  0  0  0  0  0  0  0  0  0
    8.4164  -14.9676   22.1373 N   0  0  0  0  0  0  0  0  0  0  0  0
    7.8851  -15.4304   23.4269 C   0  0  1  0  0  0  0  0  0  0  0  0
    7.9288  -16.9608   23.4203 C   0  0  0  0  0  0  0  0  0  0  0  0
    7.5413  -17.4422   24.7891 C   0  0  0  0  0  0  0  0  0  0  0  0
    6.2948  -17.4011   25.3835 C   0  0  0  0  0  0  0  0  0  0  0  0
    6.3768  -17.9322   26.6154 N   0  0  0  0  0  0  0  0  0  0  0  0
    7.6405  -18.3066   26.8131 C   0  0  0  0  0  0  0  0  0  0  0  0
    8.3379  -18.0146   25.7228 N   0  0  0  0  0  0  0  0  0  0  0  0
    8.7897  -14.9753   24.4816 C   0  0  0  0  0  0  0  0  0  0  0  0
   10.0360  -15.2468   24.3847 O   0  0  0  0  0  0  0  0  0  0  0  0
    8.3660  -14.2466   25.6049 N   0  0  0  0  0  0  0  0  0  0  0  0
    6.9678  -13.7895   25.8385 C   0  0  0  0  0  0  0  0  0  0  0  0
    7.1845  -12.5021   26.6103 C   0  0  0  0  0  0  0  0  0  0  0  0
    8.2923  -12.8896   27.5312 C   0  0  0  0  0  0  0  0  0  0  0  0
    9.1419  -13.8556   26.7439 C   0  0  1  0  0  0  0  0  0  0  0  0
    9.4767  -15.0469   27.5990 C   0  0  0  0  0  0  0  0  0  0  0  0
    8.9419  -16.1353   27.3306 O   0  0  0  0  0  0  0  0  0  0  0  0
   10.3539  -14.9259   28.6501 O   0  0  0  0  0  0  0  0  0  0  0  0
  2  1  1  6
  3  2  1  0
  4  3  1  0
  5  2  1  0
  5  6  2  0
  7  5  1  0
  8  7  1  0
  9 10  1  0
  8  9  1  6
 10 14  1  0
 11 12  1  0
 11 10  2  0
 12 13  1  0
 13 14  2  0
 15 17  1  0
 15  8  1  0
 16 15  2  0
 17 18  1  0
 19 18  1  0
 20 19  1  0
 20 21  1  0
 21 17  1  0
 21 22  1  1
 22 24  1  0
 23 22  2  0
M  END
$$$$
