CHP.pdb
     RDKit          3D

 24 25  0  0  1  0  0  0  0  0999 V2000
    7.8956  -16.3899   19.4188 N   0  0  0  0  0  0  0  0  0  0  0  0
    8.2392  -15.2157   20.1492 C   0  0  1  0  0  0  0  0  0  0  0  0
    7.9226  -13.9483   19.3927 C   0  0  0  0  0  0  0  0  0  0  0  0
    8.4243  -12.5362   20.4105 S   0  0  0  0  0  0  0  0  0  0  0  0
    7.6691  -15.2425   21.4966 C   0  0  0  0  0  0  0  0  0  0  0  0
    6.4148  -15.0214   21.6009 O   0  0  0  0  0  0  0  0  0  0  0  0
    8.3730  -15.4881   22.6796 N   0  0  0  0  0  0  0  0  0  0  0  0
    7.7428  -15.5498   24.0057 C   0  0  1  0  0  0  0  0  0  0  0  0
    7.9199  -16.9760   24.5337 C   0  0  0  0  0  0  0  0  0  0  0  0
    6.9808  -17.8709   23.7771 C   0  0  0  0  0  0  0  0  0  0  0  0
    5.7563  -17.5465   23.2254 C   0  0  0  0  0  0  0  0  0  0  0  0
    5.2366  -18.6364   22.6354 N   0  0  0  0  0  0  0  0  0  0  0  0
    6.1000  -19.6383   22.8002 C   0  0  0  0  0  0  0  0  0  0  0  0
    7.1429  -19.1828   23.4822 N   0  0  0  0  0  0  0  0  0  0  0  0
    8.4806  -14.6609   24.9020 C   0  0  0  0  0  0  0  0  0  0  0  0
    9.7567  -14.6238   24.8207 O   0  0  0  0  0  0  0  0  0  0  0  0
    7.8631  -13.8341   25.8545 N   0  0  0  0  0  0  0  0  0  0  0  0
    6.3949  -13.6012   25.9476 C   0  0  0  0  0  0  0  0  0  0  0  0
    6.3365  -12.1805   26.4752 C   0  0  0  0  0  0  0  0  0  0  0  0
    7.4277  -12.1953   27.4923 C   0  0  0  0  0  0  0  0  0  0  0  0
    8.4811  -13.1164   26.9294 C   0  0  1  0  0  0  0  0  0  0  0  0
    8.9531  -14.0593   28.0020 C   0  0  0  0  0  0  0  0  0  0  0  0
    8.5395  -15.2304   27.9825 O   0  0  0  0  0  0  0  0  0  0  0  0
    9.8210  -13.6281   28.9765 O   0  0  0  0  0  0  0  0  0  0  0  0
  2  1  1  6
  3  2  1  0
  4  3  1  0
  5  2  1  0
  5  6  2  0
  7  5  1  0
  8  7  1  0
  9 10  1  0
  8  9  1  1
 10 14  1  0
 11 12  1  0
 11 10  2  0
 12 13  1  0
 13 14  2  0
 15 17  1  0
 15  8  1  0
 16 15  2  0
 17 18  1  0
 19 18  1  0
 20 19  1  0
 20 21  1  0
 21 17  1  0
 21 22  1  1
 22 24  1  0
 23 22  2  0
M  END
$$$$
