CHP.pdb
     RDKit          3D

 24 25  0  0  1  0  0  0  0  0999 V2000
    7.9825  -15.8552   19.1295 N   0  0  0  0  0  0  0  0  0  0  0  0
    8.7326  -15.2697   20.1900 C   0  0  1  0  0  0  0  0  0  0  0  0
    9.1965  -13.8696   19.8685 C   0  0  0  0  0  0  0  0  0  0  0  0
    7.7561  -12.7712   19.8958 S   0  0  0  0  0  0  0  0  0  0  0  0
    8.0159  -15.3636   21.4623 C   0  0  0  0  0  0  0  0  0  0  0  0
    6.7445  -15.2411   21.4230 O   0  0  0  0  0  0  0  0  0  0  0  0
    8.5968  -15.5751   22.7165 N   0  0  0  0  0  0  0  0  0  0  0  0
    7.8350  -15.6098   23.9726 C   0  0  1  0  0  0  0  0  0  0  0  0
    7.9195  -17.0361   24.5230 C   0  0  0  0  0  0  0  0  0  0  0  0
    6.9460  -17.8868   23.7589 C   0  0  0  0  0  0  0  0  0  0  0  0
    6.7780  -17.9660   22.3898 C   0  0  0  0  0  0  0  0  0  0  0  0
    5.7995  -18.8457   22.1165 N   0  0  0  0  0  0  0  0  0  0  0  0
    5.3466  -19.3228   23.2756 C   0  0  0  0  0  0  0  0  0  0  0  0
    6.0305  -18.7509   24.2583 N   0  0  0  0  0  0  0  0  0  0  0  0
    8.5026  -14.7337   24.9342 C   0  0  0  0  0  0  0  0  0  0  0  0
    9.7808  -14.6835   24.9387 O   0  0  0  0  0  0  0  0  0  0  0  0
    7.8148  -13.9331   25.8605 N   0  0  0  0  0  0  0  0  0  0  0  0
    6.3354  -13.7644   25.8987 C   0  0  0  0  0  0  0  0  0  0  0  0
    6.1956  -12.3467   26.4189 C   0  0  0  0  0  0  0  0  0  0  0  0
    7.2481  -12.3119   27.4755 C   0  0  0  0  0  0  0  0  0  0  0  0
    8.3608  -13.1871   26.9549 C   0  0  1  0  0  0  0  0  0  0  0  0
    8.8336  -14.1065   28.0474 C   0  0  0  0  0  0  0  0  0  0  0  0
    8.4448  -15.2861   28.0359 O   0  0  0  0  0  0  0  0  0  0  0  0
    9.6754  -13.6450   29.0310 O   0  0  0  0  0  0  0  0  0  0  0  0
  2  1  1  6
  3  2  1  0
  4  3  1  0
  5  2  1  0
  5  6  2  0
  7  5  1  0
  8  7  1  0
  9 10  1  0
  8  9  1  1
 10 14  1  0
 11 12  1  0
 11 10  2  0
 12 13  1  0
 13 14  2  0
 15 17  1  0
 15  8  1  0
 16 15  2  0
 17 18  1  0
 19 18  1  0
 20 19  1  0
 20 21  1  0
 21 17  1  0
 21 22  1  1
 22 24  1  0
 23 22  2  0
M  END
$$$$
