CHP.pdb
     RDKit          3D

 24 25  0  0  1  0  0  0  0  0999 V2000
    7.5426  -15.0044   18.7650 N   0  0  0  0  0  0  0  0  0  0  0  0
    8.0405  -14.2511   19.8671 C   0  0  1  0  0  0  0  0  0  0  0  0
    7.7808  -12.7710   19.7230 C   0  0  0  0  0  0  0  0  0  0  0  0
    9.0629  -12.0686   18.6531 S   0  0  0  0  0  0  0  0  0  0  0  0
    7.5715  -14.7991   21.1403 C   0  0  0  0  0  0  0  0  0  0  0  0
    6.3135  -14.9867   21.2635 O   0  0  0  0  0  0  0  0  0  0  0  0
    8.3757  -15.1357   22.2336 N   0  0  0  0  0  0  0  0  0  0  0  0
    7.8481  -15.6370   23.5102 C   0  0  1  0  0  0  0  0  0  0  0  0
    8.2123  -17.1210   23.6078 C   0  0  0  0  0  0  0  0  0  0  0  0
    7.6999  -17.6392   24.9209 C   0  0  0  0  0  0  0  0  0  0  0  0
    8.4320  -18.1223   25.9884 C   0  0  0  0  0  0  0  0  0  0  0  0
    7.5901  -18.4872   26.9704 N   0  0  0  0  0  0  0  0  0  0  0  0
    6.3481  -18.2472   26.5507 C   0  0  0  0  0  0  0  0  0  0  0  0
    6.4116  -17.7405   25.3262 N   0  0  0  0  0  0  0  0  0  0  0  0
    8.5464  -14.9470   24.5937 C   0  0  0  0  0  0  0  0  0  0  0  0
    9.8238  -15.0011   24.6370 O   0  0  0  0  0  0  0  0  0  0  0  0
    7.8898  -14.2176   25.5981 N   0  0  0  0  0  0  0  0  0  0  0  0
    6.4130  -14.1810   25.7887 C   0  0  0  0  0  0  0  0  0  0  0  0
    6.2039  -12.7853   26.3441 C   0  0  0  0  0  0  0  0  0  0  0  0
    7.3519  -12.6656   27.2892 C   0  0  0  0  0  0  0  0  0  0  0  0
    8.4776  -13.4347   26.6440 C   0  0  1  0  0  0  0  0  0  0  0  0
    9.1382  -14.3170   27.6674 C   0  0  0  0  0  0  0  0  0  0  0  0
    8.9171  -15.5385   27.6248 O   0  0  0  0  0  0  0  0  0  0  0  0
    9.9651  -13.7772   28.6234 O   0  0  0  0  0  0  0  0  0  0  0  0
  2  1  1  6
  3  2  1  0
  4  3  1  0
  5  2  1  0
  5  6  2  0
  7  5  1  0
  8  7  1  0
  9 10  1  0
  8  9  1  1
 10 14  1  0
 11 12  1  0
 11 10  2  0
 12 13  1  0
 13 14  2  0
 15 17  1  0
 15  8  1  0
 16 15  2  0
 17 18  1  0
 19 18  1  0
 20 19  1  0
 20 21  1  0
 21 17  1  0
 21 22  1  1
 22 24  1  0
 23 22  2  0
M  END
$$$$
