CHP.pdb
     RDKit          3D

 24 25  0  0  1  0  0  0  0  0999 V2000
   10.8415  -18.3198   21.6432 N   0  0  0  0  0  0  0  0  0  0  0  0
   11.6378  -17.2110   22.0514 C   0  0  1  0  0  0  0  0  0  0  0  0
   12.6288  -16.7878   20.9942 C   0  0  0  0  0  0  0  0  0  0  0  0
   14.0289  -15.9826   21.8146 S   0  0  0  0  0  0  0  0  0  0  0  0
   10.8057  -16.1099   22.5377 C   0  0  0  0  0  0  0  0  0  0  0  0
   11.4003  -15.1606   23.1529 O   0  0  0  0  0  0  0  0  0  0  0  0
    9.4194  -16.0031   22.3900 N   0  0  0  0  0  0  0  0  0  0  0  0
    8.6229  -14.8992   22.9438 C   0  0  1  0  0  0  0  0  0  0  0  0
    7.3076  -14.8433   22.1622 C   0  0  0  0  0  0  0  0  0  0  0  0
    7.6033  -14.2984   20.7943 C   0  0  0  0  0  0  0  0  0  0  0  0
    8.7846  -13.7482   20.3353 C   0  0  0  0  0  0  0  0  0  0  0  0
    8.6299  -13.3816   19.0517 N   0  0  0  0  0  0  0  0  0  0  0  0
    7.3839  -13.6856   18.6896 C   0  0  0  0  0  0  0  0  0  0  0  0
    6.7688  -14.2336   19.7296 N   0  0  0  0  0  0  0  0  0  0  0  0
    8.2905  -15.2282   24.3291 C   0  0  0  0  0  0  0  0  0  0  0  0
    8.5536  -16.4019   24.7644 O   0  0  0  0  0  0  0  0  0  0  0  0
    7.6961  -14.3198   25.2201 N   0  0  0  0  0  0  0  0  0  0  0  0
    7.2755  -12.9365   24.8624 C   0  0  0  0  0  0  0  0  0  0  0  0
    7.4826  -12.1984   26.1710 C   0  0  0  0  0  0  0  0  0  0  0  0
    6.9683  -13.1918   27.1580 C   0  0  0  0  0  0  0  0  0  0  0  0
    7.3298  -14.5404   26.5873 C   0  0  1  0  0  0  0  0  0  0  0  0
    6.1459  -15.4632   26.6829 C   0  0  0  0  0  0  0  0  0  0  0  0
    5.4088  -15.5828   25.6904 O   0  0  0  0  0  0  0  0  0  0  0  0
    5.8925  -16.1538   27.8439 O   0  0  0  0  0  0  0  0  0  0  0  0
  2  1  1  6
  3  2  1  0
  4  3  1  0
  5  2  1  0
  5  6  2  0
  7  5  1  0
  8  7  1  0
  9 10  1  0
  8  9  1  6
 10 14  1  0
 11 12  1  0
 11 10  2  0
 12 13  1  0
 13 14  2  0
 15 17  1  0
 15  8  1  0
 16 15  2  0
 17 18  1  0
 19 18  1  0
 20 19  1  0
 20 21  1  0
 21 17  1  0
 21 22  1  6
 22 24  1  0
 23 22  2  0
M  END
$$$$
