CHP.pdb
     RDKit          3D

 24 25  0  0  1  0  0  0  0  0999 V2000
    8.2329  -15.8268   18.7055 N   0  0  0  0  0  0  0  0  0  0  0  0
    8.7410  -14.9711   19.7252 C   0  0  1  0  0  0  0  0  0  0  0  0
    8.9902  -13.5660   19.2328 C   0  0  0  0  0  0  0  0  0  0  0  0
    9.7682  -12.6228   20.5695 S   0  0  0  0  0  0  0  0  0  0  0  0
    7.9074  -15.0234   20.9267 C   0  0  0  0  0  0  0  0  0  0  0  0
    6.6968  -14.6308   20.8111 O   0  0  0  0  0  0  0  0  0  0  0  0
    8.3161  -15.4642   22.1892 N   0  0  0  0  0  0  0  0  0  0  0  0
    7.4946  -15.3409   23.4014 C   0  0  1  0  0  0  0  0  0  0  0  0
    7.0767  -16.7532   23.8199 C   0  0  0  0  0  0  0  0  0  0  0  0
    6.0126  -17.2230   22.8700 C   0  0  0  0  0  0  0  0  0  0  0  0
    5.4458  -16.5298   21.8178 C   0  0  0  0  0  0  0  0  0  0  0  0
    4.5292  -17.3097   21.2198 N   0  0  0  0  0  0  0  0  0  0  0  0
    4.5031  -18.4749   21.8662 C   0  0  0  0  0  0  0  0  0  0  0  0
    5.3889  -18.4250   22.8527 N   0  0  0  0  0  0  0  0  0  0  0  0
    8.3365  -14.8035   24.4692 C   0  0  0  0  0  0  0  0  0  0  0  0
    9.5787  -15.1085   24.4876 O   0  0  0  0  0  0  0  0  0  0  0  0
    7.8565  -13.9602   25.4843 N   0  0  0  0  0  0  0  0  0  0  0  0
    6.4658  -13.4321   25.5582 C   0  0  0  0  0  0  0  0  0  0  0  0
    6.6766  -12.0887   26.2295 C   0  0  0  0  0  0  0  0  0  0  0  0
    7.6882  -12.4314   27.2710 C   0  0  0  0  0  0  0  0  0  0  0  0
    8.5547  -13.4961   26.6459 C   0  0  1  0  0  0  0  0  0  0  0  0
    8.7661  -14.6160   27.6275 C   0  0  0  0  0  0  0  0  0  0  0  0
    8.1140  -15.6626   27.4786 O   0  0  0  0  0  0  0  0  0  0  0  0
    9.6608  -14.4770   28.6615 O   0  0  0  0  0  0  0  0  0  0  0  0
  2  1  1  6
  3  2  1  0
  4  3  1  0
  5  2  1  0
  5  6  2  0
  7  5  1  0
  8  7  1  0
  9 10  1  0
  8  9  1  1
 10 14  1  0
 11 12  1  0
 11 10  2  0
 12 13  1  0
 13 14  2  0
 15 17  1  0
 15  8  1  0
 16 15  2  0
 17 18  1  0
 19 18  1  0
 20 19  1  0
 20 21  1  0
 21 17  1  0
 21 22  1  1
 22 24  1  0
 23 22  2  0
M  END
$$$$
