CHP.pdb
     RDKit          3D

 24 25  0  0  1  0  0  0  0  0999 V2000
    8.0127  -16.7166   19.5019 N   0  0  0  0  0  0  0  0  0  0  0  0
    8.3225  -15.5364   20.2377 C   0  0  1  0  0  0  0  0  0  0  0  0
    8.0124  -14.2749   19.4687 C   0  0  0  0  0  0  0  0  0  0  0  0
    8.4498  -12.8540   20.5038 S   0  0  0  0  0  0  0  0  0  0  0  0
    7.7160  -15.5659   21.5690 C   0  0  0  0  0  0  0  0  0  0  0  0
    6.4404  -15.5141   21.6273 O   0  0  0  0  0  0  0  0  0  0  0  0
    8.4062  -15.6457   22.7825 N   0  0  0  0  0  0  0  0  0  0  0  0
    7.7468  -15.6703   24.0956 C   0  0  1  0  0  0  0  0  0  0  0  0
    7.9424  -17.0707   24.6827 C   0  0  0  0  0  0  0  0  0  0  0  0
    7.0796  -18.0239   23.9068 C   0  0  0  0  0  0  0  0  0  0  0  0
    5.7085  -17.9869   23.7402 C   0  0  0  0  0  0  0  0  0  0  0  0
    5.3298  -19.0253   22.9757 N   0  0  0  0  0  0  0  0  0  0  0  0
    6.4244  -19.7153   22.6563 C   0  0  0  0  0  0  0  0  0  0  0  0
    7.4710  -19.1184   23.2117 N   0  0  0  0  0  0  0  0  0  0  0  0
    8.4442  -14.7310   24.9727 C   0  0  0  0  0  0  0  0  0  0  0  0
    9.7111  -14.6005   24.8536 O   0  0  0  0  0  0  0  0  0  0  0  0
    7.7967  -13.9530   25.9462 N   0  0  0  0  0  0  0  0  0  0  0  0
    6.3196  -13.8740   26.1208 C   0  0  0  0  0  0  0  0  0  0  0  0
    6.1401  -12.4561   26.6282 C   0  0  0  0  0  0  0  0  0  0  0  0
    7.2822  -12.3334   27.5801 C   0  0  0  0  0  0  0  0  0  0  0  0
    8.3943  -13.1507   26.9716 C   0  0  1  0  0  0  0  0  0  0  0  0
    9.0235  -14.0147   28.0298 C   0  0  0  0  0  0  0  0  0  0  0  0
    8.7476  -15.2257   28.0444 O   0  0  0  0  0  0  0  0  0  0  0  0
    9.8818  -13.4700   28.9548 O   0  0  0  0  0  0  0  0  0  0  0  0
  2  1  1  6
  3  2  1  0
  4  3  1  0
  5  2  1  0
  5  6  2  0
  7  5  1  0
  8  7  1  0
  9 10  1  0
  8  9  1  1
 10 14  1  0
 11 12  1  0
 11 10  2  0
 12 13  1  0
 13 14  2  0
 15 17  1  0
 15  8  1  0
 16 15  2  0
 17 18  1  0
 19 18  1  0
 20 19  1  0
 20 21  1  0
 21 17  1  0
 21 22  1  1
 22 24  1  0
 23 22  2  0
M  END
$$$$
