CHP.pdb
     RDKit          3D

 24 25  0  0  1  0  0  0  0  0999 V2000
    7.8810  -15.4283   18.9802 N   0  0  0  0  0  0  0  0  0  0  0  0
    8.2646  -14.4950   19.9862 C   0  0  1  0  0  0  0  0  0  0  0  0
    7.9837  -13.0658   19.5893 C   0  0  0  0  0  0  0  0  0  0  0  0
    9.4912  -12.3679   18.8666 S   0  0  0  0  0  0  0  0  0  0  0  0
    7.7008  -14.8550   21.2876 C   0  0  0  0  0  0  0  0  0  0  0  0
    6.4303  -14.9742   21.3571 O   0  0  0  0  0  0  0  0  0  0  0  0
    8.4267  -15.0803   22.4612 N   0  0  0  0  0  0  0  0  0  0  0  0
    7.8059  -15.3733   23.7606 C   0  0  1  0  0  0  0  0  0  0  0  0
    7.9185  -16.8822   23.9948 C   0  0  0  0  0  0  0  0  0  0  0  0
    6.9030  -17.5641   23.1235 C   0  0  0  0  0  0  0  0  0  0  0  0
    5.5576  -17.7536   23.3743 C   0  0  0  0  0  0  0  0  0  0  0  0
    5.0054  -18.4112   22.3404 N   0  0  0  0  0  0  0  0  0  0  0  0
    5.9659  -18.6410   21.4455 C   0  0  0  0  0  0  0  0  0  0  0  0
    7.1006  -18.1356   21.9117 N   0  0  0  0  0  0  0  0  0  0  0  0
    8.5935  -14.7131   24.8006 C   0  0  0  0  0  0  0  0  0  0  0  0
    9.8624  -14.8753   24.8095 O   0  0  0  0  0  0  0  0  0  0  0  0
    8.0326  -13.8999   25.7986 N   0  0  0  0  0  0  0  0  0  0  0  0
    6.5937  -13.5223   25.8724 C   0  0  0  0  0  0  0  0  0  0  0  0
    6.6635  -12.1468   26.5074 C   0  0  0  0  0  0  0  0  0  0  0  0
    7.7131  -12.3516   27.5474 C   0  0  0  0  0  0  0  0  0  0  0  0
    8.6848  -13.3331   26.9413 C   0  0  1  0  0  0  0  0  0  0  0  0
    9.0220  -14.3978   27.9489 C   0  0  0  0  0  0  0  0  0  0  0  0
    8.4609  -15.5016   27.8518 O   0  0  0  0  0  0  0  0  0  0  0  0
    9.9301  -14.1476   28.9498 O   0  0  0  0  0  0  0  0  0  0  0  0
  2  1  1  6
  3  2  1  0
  4  3  1  0
  5  2  1  0
  5  6  2  0
  7  5  1  0
  8  7  1  0
  9 10  1  0
  8  9  1  1
 10 14  1  0
 11 12  1  0
 11 10  2  0
 12 13  1  0
 13 14  2  0
 15 17  1  0
 15  8  1  0
 16 15  2  0
 17 18  1  0
 19 18  1  0
 20 19  1  0
 20 21  1  0
 21 17  1  0
 21 22  1  1
 22 24  1  0
 23 22  2  0
M  END
$$$$
