CHP.pdb
     RDKit          3D

 24 25  0  0  1  0  0  0  0  0999 V2000
    7.0015  -15.8638   19.0208 N   0  0  0  0  0  0  0  0  0  0  0  0
    7.6631  -14.9553   19.8965 C   0  0  1  0  0  0  0  0  0  0  0  0
    7.4827  -13.5148   19.4824 C   0  0  0  0  0  0  0  0  0  0  0  0
    8.3271  -12.4636   20.6923 S   0  0  0  0  0  0  0  0  0  0  0  0
    7.3024  -15.2051   21.2925 C   0  0  0  0  0  0  0  0  0  0  0  0
    6.0632  -15.3834   21.5490 O   0  0  0  0  0  0  0  0  0  0  0  0
    8.1911  -15.2664   22.3702 N   0  0  0  0  0  0  0  0  0  0  0  0
    7.8040  -15.6892   23.7233 C   0  0  1  0  0  0  0  0  0  0  0  0
    8.1441  -17.1761   23.8559 C   0  0  0  0  0  0  0  0  0  0  0  0
    7.7286  -17.6268   25.2269 C   0  0  0  0  0  0  0  0  0  0  0  0
    6.4532  -17.6748   25.7561 C   0  0  0  0  0  0  0  0  0  0  0  0
    6.5166  -18.1374   27.0163 N   0  0  0  0  0  0  0  0  0  0  0  0
    7.7966  -18.3820   27.2954 C   0  0  0  0  0  0  0  0  0  0  0  0
    8.5224  -18.0775   26.2273 N   0  0  0  0  0  0  0  0  0  0  0  0
    8.6383  -14.9664   24.6822 C   0  0  0  0  0  0  0  0  0  0  0  0
    9.9106  -15.0562   24.5832 O   0  0  0  0  0  0  0  0  0  0  0  0
    8.1188  -14.1681   25.7141 N   0  0  0  0  0  0  0  0  0  0  0  0
    6.6669  -13.9559   25.9702 C   0  0  0  0  0  0  0  0  0  0  0  0
    6.6511  -12.5477   26.5330 C   0  0  0  0  0  0  0  0  0  0  0  0
    7.8460  -12.5702   27.4259 C   0  0  0  0  0  0  0  0  0  0  0  0
    8.8418  -13.4657   26.7320 C   0  0  1  0  0  0  0  0  0  0  0  0
    9.4368  -14.4251   27.7259 C   0  0  0  0  0  0  0  0  0  0  0  0
    9.0891  -15.6165   27.6775 O   0  0  0  0  0  0  0  0  0  0  0  0
   10.3426  -13.9865   28.6620 O   0  0  0  0  0  0  0  0  0  0  0  0
  2  1  1  6
  3  2  1  0
  4  3  1  0
  5  2  1  0
  5  6  2  0
  7  5  1  0
  8  7  1  0
  9 10  1  0
  8  9  1  6
 10 14  1  0
 11 12  1  0
 11 10  2  0
 12 13  1  0
 13 14  2  0
 15 17  1  0
 15  8  1  0
 16 15  2  0
 17 18  1  0
 19 18  1  0
 20 19  1  0
 20 21  1  0
 21 17  1  0
 21 22  1  1
 22 24  1  0
 23 22  2  0
M  END
$$$$
