CHP.pdb
     RDKit          3D

 24 25  0  0  1  0  0  0  0  0999 V2000
    7.6449  -15.4740   19.0973 N   0  0  0  0  0  0  0  0  0  0  0  0
    8.1045  -14.5767   20.1042 C   0  0  1  0  0  0  0  0  0  0  0  0
    7.8807  -13.1294   19.7379 C   0  0  0  0  0  0  0  0  0  0  0  0
    9.0913  -12.6679   18.4717 S   0  0  0  0  0  0  0  0  0  0  0  0
    7.5651  -14.9307   21.4176 C   0  0  0  0  0  0  0  0  0  0  0  0
    6.2956  -15.0414   21.5134 O   0  0  0  0  0  0  0  0  0  0  0  0
    8.3135  -15.1588   22.5765 N   0  0  0  0  0  0  0  0  0  0  0  0
    7.7186  -15.4800   23.8813 C   0  0  1  0  0  0  0  0  0  0  0  0
    7.8911  -16.9844   24.1081 C   0  0  0  0  0  0  0  0  0  0  0  0
    6.8327  -17.6974   23.3164 C   0  0  0  0  0  0  0  0  0  0  0  0
    6.9670  -18.3344   22.0977 C   0  0  0  0  0  0  0  0  0  0  0  0
    5.7777  -18.8436   21.7338 N   0  0  0  0  0  0  0  0  0  0  0  0
    4.8982  -18.5449   22.6896 C   0  0  0  0  0  0  0  0  0  0  0  0
    5.5268  -17.8600   23.6362 N   0  0  0  0  0  0  0  0  0  0  0  0
    8.4920  -14.7942   24.9154 C   0  0  0  0  0  0  0  0  0  0  0  0
    9.7642  -14.9279   24.9245 O   0  0  0  0  0  0  0  0  0  0  0  0
    7.9136  -13.9858   25.9075 N   0  0  0  0  0  0  0  0  0  0  0  0
    6.4620  -13.6645   25.9968 C   0  0  0  0  0  0  0  0  0  0  0  0
    6.4859  -12.2760   26.6063 C   0  0  0  0  0  0  0  0  0  0  0  0
    7.5581  -12.4199   27.6335 C   0  0  0  0  0  0  0  0  0  0  0  0
    8.5593  -13.3729   27.0298 C   0  0  1  0  0  0  0  0  0  0  0  0
    8.9537  -14.4047   28.0507 C   0  0  0  0  0  0  0  0  0  0  0  0
    8.4828  -15.5492   27.9458 O   0  0  0  0  0  0  0  0  0  0  0  0
    9.8149  -14.0813   29.0719 O   0  0  0  0  0  0  0  0  0  0  0  0
  2  1  1  6
  3  2  1  0
  4  3  1  0
  5  2  1  0
  5  6  2  0
  7  5  1  0
  8  7  1  0
  9 10  1  0
  8  9  1  1
 10 14  1  0
 11 12  1  0
 11 10  2  0
 12 13  1  0
 13 14  2  0
 15 17  1  0
 15  8  1  0
 16 15  2  0
 17 18  1  0
 19 18  1  0
 20 19  1  0
 20 21  1  0
 21 17  1  0
 21 22  1  1
 22 24  1  0
 23 22  2  0
M  END
$$$$
