CHP.pdb
     RDKit          3D

 24 25  0  0  1  0  0  0  0  0999 V2000
    7.9635  -15.7852   19.1326 N   0  0  0  0  0  0  0  0  0  0  0  0
    8.7474  -15.2350   20.1875 C   0  0  1  0  0  0  0  0  0  0  0  0
    9.2783  -13.8603   19.8599 C   0  0  0  0  0  0  0  0  0  0  0  0
    7.8695  -12.7457   19.6259 S   0  0  0  0  0  0  0  0  0  0  0  0
    8.0338  -15.2901   21.4639 C   0  0  0  0  0  0  0  0  0  0  0  0
    6.7776  -15.0569   21.4374 O   0  0  0  0  0  0  0  0  0  0  0  0
    8.6026  -15.5748   22.7091 N   0  0  0  0  0  0  0  0  0  0  0  0
    7.8362  -15.6321   23.9617 C   0  0  1  0  0  0  0  0  0  0  0  0
    7.9457  -17.0600   24.5034 C   0  0  0  0  0  0  0  0  0  0  0  0
    7.0975  -17.9499   23.6409 C   0  0  0  0  0  0  0  0  0  0  0  0
    5.7813  -18.3213   23.8379 C   0  0  0  0  0  0  0  0  0  0  0  0
    5.3971  -19.1292   22.8350 N   0  0  0  0  0  0  0  0  0  0  0  0
    6.4349  -19.2770   22.0119 C   0  0  0  0  0  0  0  0  0  0  0  0
    7.4519  -18.5730   22.4919 N   0  0  0  0  0  0  0  0  0  0  0  0
    8.4828  -14.7496   24.9317 C   0  0  0  0  0  0  0  0  0  0  0  0
    9.7564  -14.6326   24.9058 O   0  0  0  0  0  0  0  0  0  0  0  0
    7.7793  -14.0124   25.8980 N   0  0  0  0  0  0  0  0  0  0  0  0
    6.2957  -13.9869   26.0277 C   0  0  0  0  0  0  0  0  0  0  0  0
    6.0519  -12.5856   26.5541 C   0  0  0  0  0  0  0  0  0  0  0  0
    7.1593  -12.4420   27.5433 C   0  0  0  0  0  0  0  0  0  0  0  0
    8.3171  -13.2095   26.9555 C   0  0  1  0  0  0  0  0  0  0  0  0
    8.9430  -14.0713   28.0176 C   0  0  0  0  0  0  0  0  0  0  0  0
    8.6940  -15.2881   28.0132 O   0  0  0  0  0  0  0  0  0  0  0  0
    9.7693  -13.5182   28.9665 O   0  0  0  0  0  0  0  0  0  0  0  0
  2  1  1  6
  3  2  1  0
  4  3  1  0
  5  2  1  0
  5  6  2  0
  7  5  1  0
  8  7  1  0
  9 10  1  0
  8  9  1  1
 10 14  1  0
 11 12  1  0
 11 10  2  0
 12 13  1  0
 13 14  2  0
 15 17  1  0
 15  8  1  0
 16 15  2  0
 17 18  1  0
 19 18  1  0
 20 19  1  0
 20 21  1  0
 21 17  1  0
 21 22  1  1
 22 24  1  0
 23 22  2  0
M  END
$$$$
