CHP.pdb
     RDKit          3D

 24 25  0  0  1  0  0  0  0  0999 V2000
   10.6239  -16.2392   19.6296 N   0  0  0  0  0  0  0  0  0  0  0  0
   10.4378  -16.8947   20.8809 C   0  0  1  0  0  0  0  0  0  0  0  0
   11.5339  -17.8873   21.1847 C   0  0  0  0  0  0  0  0  0  0  0  0
   12.9866  -16.9731   21.7641 S   0  0  0  0  0  0  0  0  0  0  0  0
   10.2168  -15.9297   21.9585 C   0  0  0  0  0  0  0  0  0  0  0  0
   10.0626  -14.7070   21.6203 O   0  0  0  0  0  0  0  0  0  0  0  0
   10.1590  -16.2250   23.3240 N   0  0  0  0  0  0  0  0  0  0  0  0
    9.3980  -15.4309   24.2985 C   0  0  1  0  0  0  0  0  0  0  0  0
    7.9172  -15.5400   23.9253 C   0  0  0  0  0  0  0  0  0  0  0  0
    7.1492  -14.5797   24.7874 C   0  0  0  0  0  0  0  0  0  0  0  0
    6.3994  -14.8604   25.9134 C   0  0  0  0  0  0  0  0  0  0  0  0
    5.8733  -13.7184   26.3880 N   0  0  0  0  0  0  0  0  0  0  0  0
    6.2711  -12.7263   25.5920 C   0  0  0  0  0  0  0  0  0  0  0  0
    7.0336  -13.2389   24.6349 N   0  0  0  0  0  0  0  0  0  0  0  0
    9.5602  -16.0478   25.6142 C   0  0  0  0  0  0  0  0  0  0  0  0
    9.5224  -17.3232   25.7061 O   0  0  0  0  0  0  0  0  0  0  0  0
    9.7608  -15.3141   26.7947 N   0  0  0  0  0  0  0  0  0  0  0  0
    9.2255  -13.9463   27.0418 C   0  0  0  0  0  0  0  0  0  0  0  0
   10.2910  -13.3515   27.9424 C   0  0  0  0  0  0  0  0  0  0  0  0
   10.5942  -14.5004   28.8443 C   0  0  0  0  0  0  0  0  0  0  0  0
   10.4432  -15.7299   27.9837 C   0  0  1  0  0  0  0  0  0  0  0  0
    9.6466  -16.7695   28.7233 C   0  0  0  0  0  0  0  0  0  0  0  0
    8.5113  -17.0511   28.3054 O   0  0  0  0  0  0  0  0  0  0  0  0
   10.1691  -17.3883   29.8337 O   0  0  0  0  0  0  0  0  0  0  0  0
  2  1  1  6
  3  2  1  0
  4  3  1  0
  5  2  1  0
  5  6  2  0
  7  5  1  0
  8  7  1  0
  9 10  1  0
  8  9  1  6
 10 14  1  0
 11 12  1  0
 11 10  2  0
 12 13  1  0
 13 14  2  0
 15 17  1  0
 15  8  1  0
 16 15  2  0
 17 18  1  0
 19 18  1  0
 20 19  1  0
 20 21  1  0
 21 17  1  0
 21 22  1  1
 22 24  1  0
 23 22  2  0
M  END
$$$$
