CHP.pdb
     RDKit          3D

 24 25  0  0  1  0  0  0  0  0999 V2000
    2.3407  -27.9929   35.7486 N   0  0  0  0  0  0  0  0  0  0  0  0
    1.2845  -27.8950   36.6999 C   0  0  1  0  0  0  0  0  0  0  0  0
    1.7710  -28.0279   38.1228 C   0  0  0  0  0  0  0  0  0  0  0  0
    0.3478  -27.8563   39.2304 S   0  0  0  0  0  0  0  0  0  0  0  0
    0.4763  -26.6962   36.4748 C   0  0  0  0  0  0  0  0  0  0  0  0
    1.0892  -25.5748   36.4718 O   0  0  0  0  0  0  0  0  0  0  0  0
   -0.9055  -26.6673   36.2627 N   0  0  0  0  0  0  0  0  0  0  0  0
   -1.6674  -25.4347   36.0180 C   0  0  1  0  0  0  0  0  0  0  0  0
   -2.2304  -25.5160   34.5965 C   0  0  0  0  0  0  0  0  0  0  0  0
   -1.0751  -25.4874   33.6375 C   0  0  0  0  0  0  0  0  0  0  0  0
   -0.3819  -24.3858   33.1738 C   0  0  0  0  0  0  0  0  0  0  0  0
    0.5797  -24.7945   32.3286 N   0  0  0  0  0  0  0  0  0  0  0  0
    0.5113  -26.1230   32.2471 C   0  0  0  0  0  0  0  0  0  0  0  0
   -0.4770  -26.5389   33.0286 N   0  0  0  0  0  0  0  0  0  0  0  0
   -2.8061  -25.4139   36.9349 C   0  0  0  0  0  0  0  0  0  0  0  0
   -3.3954  -26.5151   37.2114 O   0  0  0  0  0  0  0  0  0  0  0  0
   -3.2936  -24.2434   37.5387 N   0  0  0  0  0  0  0  0  0  0  0  0
   -2.8151  -22.8680   37.2260 C   0  0  0  0  0  0  0  0  0  0  0  0
   -2.9917  -22.1651   38.5582 C   0  0  0  0  0  0  0  0  0  0  0  0
   -4.3086  -22.7035   39.0070 C   0  0  0  0  0  0  0  0  0  0  0  0
   -4.3496  -24.1231   38.4992 C   0  0  1  0  0  0  0  0  0  0  0  0
   -5.6857  -24.3938   37.8636 C   0  0  0  0  0  0  0  0  0  0  0  0
   -5.7583  -24.4049   36.6237 O   0  0  0  0  0  0  0  0  0  0  0  0
   -6.7947  -24.6225   38.6426 O   0  0  0  0  0  0  0  0  0  0  0  0
  2  1  1  6
  3  2  1  0
  4  3  1  0
  5  2  1  0
  5  6  2  0
  7  5  1  0
  8  7  1  0
  9 10  1  0
  8  9  1  6
 10 14  1  0
 11 12  1  0
 11 10  2  0
 12 13  1  0
 13 14  2  0
 15 17  1  0
 15  8  1  0
 16 15  2  0
 17 18  1  0
 19 18  1  0
 20 19  1  0
 20 21  1  0
 21 17  1  0
 21 22  1  6
 22 24  1  0
 23 22  2  0
M  END
$$$$
