DWP.pdb
     RDKit          3D

 30 32  0  0  1  0  0  0  0  0999 V2000
   28.3232  -22.2355  -18.7909 N   0  0  0  0  0  0  0  0  0  0  0  0
   28.7908  -20.8782  -18.6994 C   0  0  1  0  0  0  0  0  0  0  0  0
   28.8386  -20.1686  -20.0261 C   0  0  0  0  0  0  0  0  0  0  0  0
   29.5547  -20.8920  -21.0803 C   0  0  0  0  0  0  0  0  0  0  0  0
   30.7746  -20.7301  -21.2738 O   0  0  0  0  0  0  0  0  0  0  0  0
   28.0673  -20.1005  -17.6626 C   0  0  0  0  0  0  0  0  0  0  0  0
   28.2647  -18.8672  -17.5308 O   0  0  0  0  0  0  0  0  0  0  0  0
   28.8614  -21.7766  -21.8811 O   0  0  0  0  0  0  0  0  0  0  0  0
   27.1276  -20.7064  -16.7749 N   0  0  0  0  0  0  0  0  0  0  0  0
   26.3208  -19.9258  -15.8660 C   0  0  1  0  0  0  0  0  0  0  0  0
   25.1376  -19.3664  -16.5847 C   0  0  0  0  0  0  0  0  0  0  0  0
   24.3995  -18.3009  -15.9068 C   0  0  0  0  0  0  0  0  0  0  0  0
   23.0503  -18.3724  -15.5162 C   0  0  0  0  0  0  0  0  0  0  0  0
   22.6479  -17.2500  -14.9530 N   0  0  0  0  0  0  0  0  0  0  0  0
   23.7093  -16.4202  -14.9571 C   0  0  0  0  0  0  0  0  0  0  0  0
   23.7736  -15.1401  -14.4621 C   0  0  0  0  0  0  0  0  0  0  0  0
   24.9699  -14.4556  -14.5486 C   0  0  0  0  0  0  0  0  0  0  0  0
   26.0656  -15.0606  -15.1227 C   0  0  0  0  0  0  0  0  0  0  0  0
   25.9919  -16.3398  -15.6152 C   0  0  0  0  0  0  0  0  0  0  0  0
   24.8019  -17.0422  -15.5386 C   0  0  0  0  0  0  0  0  0  0  0  0
   25.8897  -20.8564  -14.7568 C   0  0  0  0  0  0  0  0  0  0  0  0
   24.9970  -21.6934  -15.0525 O   0  0  0  0  0  0  0  0  0  0  0  0
   26.4116  -20.8339  -13.4779 N   0  0  0  0  0  0  0  0  0  0  0  0
   27.8203  -20.5062  -13.1753 C   0  0  0  0  0  0  0  0  0  0  0  0
   27.5926  -19.4631  -12.1033 C   0  0  0  0  0  0  0  0  0  0  0  0
   26.3080  -19.8784  -11.4114 C   0  0  0  0  0  0  0  0  0  0  0  0
   25.8860  -21.1487  -12.2135 C   0  0  1  0  0  0  0  0  0  0  0  0
   24.4707  -21.3929  -12.0259 C   0  0  0  0  0  0  0  0  0  0  0  0
   23.6358  -20.9204  -13.0813 O   0  0  0  0  0  0  0  0  0  0  0  0
   23.8827  -21.9386  -11.1067 O   0  0  0  0  0  0  0  0  0  0  0  0
  2  1  1  6
  3  2  1  0
  3  4  1  0
  4  5  2  0
  6  2  1  0
  6  7  2  0
  8  4  1  0
  9  6  1  0
 10  9  1  0
 10 11  1  6
 12 13  2  0
 12 11  1  0
 14 13  1  0
 15 20  2  0
 15 14  1  0
 16 15  1  0
 17 18  1  0
 17 16  2  0
 18 19  2  0
 19 20  1  0
 20 12  1  0
 21 10  1  0
 22 21  2  0
 23 27  1  0
 23 21  1  0
 24 23  1  0
 25 24  1  0
 25 26  1  0
 26 27  1  0
 28 29  1  0
 27 28  1  6
 30 28  2  0
M  END
$$$$
