DWP.pdb
     RDKit          3D

 30 32  0  0  1  0  0  0  0  0999 V2000
   30.4234  -20.6147  -11.8570 N   0  0  0  0  0  0  0  0  0  0  0  0
   29.0448  -20.2410  -12.0280 C   0  0  1  0  0  0  0  0  0  0  0  0
   28.5289  -20.4705  -13.4234 C   0  0  0  0  0  0  0  0  0  0  0  0
   28.5802  -19.2936  -14.2949 C   0  0  0  0  0  0  0  0  0  0  0  0
   29.2983  -18.3112  -14.0281 O   0  0  0  0  0  0  0  0  0  0  0  0
   28.1658  -20.8355  -10.9902 C   0  0  0  0  0  0  0  0  0  0  0  0
   28.4419  -21.9473  -10.4750 O   0  0  0  0  0  0  0  0  0  0  0  0
   27.8138  -19.2706  -15.4423 O   0  0  0  0  0  0  0  0  0  0  0  0
   26.9793  -20.1854  -10.5347 N   0  0  0  0  0  0  0  0  0  0  0  0
   25.8186  -20.9278  -10.1008 C   0  0  1  0  0  0  0  0  0  0  0  0
   25.4697  -20.5564   -8.6973 C   0  0  0  0  0  0  0  0  0  0  0  0
   26.5371  -19.9695   -7.8875 C   0  0  0  0  0  0  0  0  0  0  0  0
   27.1722  -18.7427   -8.1509 C   0  0  0  0  0  0  0  0  0  0  0  0
   28.1161  -18.4851   -7.2669 N   0  0  0  0  0  0  0  0  0  0  0  0
   28.1265  -19.5228   -6.4078 C   0  0  0  0  0  0  0  0  0  0  0  0
   28.9344  -19.6930   -5.3096 C   0  0  0  0  0  0  0  0  0  0  0  0
   28.7765  -20.8290   -4.5404 C   0  0  0  0  0  0  0  0  0  0  0  0
   27.8227  -21.7614   -4.8830 C   0  0  0  0  0  0  0  0  0  0  0  0
   27.0203  -21.5832   -5.9824 C   0  0  0  0  0  0  0  0  0  0  0  0
   27.1636  -20.4518   -6.7665 C   0  0  0  0  0  0  0  0  0  0  0  0
   24.6965  -20.5753  -11.0487 C   0  0  0  0  0  0  0  0  0  0  0  0
   24.1206  -19.4755  -10.8396 O   0  0  0  0  0  0  0  0  0  0  0  0
   24.2873  -21.3746  -12.0986 N   0  0  0  0  0  0  0  0  0  0  0  0
   25.1749  -22.3304  -12.7928 C   0  0  0  0  0  0  0  0  0  0  0  0
   24.2921  -23.5575  -12.7296 C   0  0  0  0  0  0  0  0  0  0  0  0
   22.8714  -23.0275  -12.7747 C   0  0  0  0  0  0  0  0  0  0  0  0
   23.0869  -21.4826  -12.8207 C   0  0  1  0  0  0  0  0  0  0  0  0
   21.8809  -20.8113  -12.3816 C   0  0  0  0  0  0  0  0  0  0  0  0
   20.9089  -20.5962  -13.4029 O   0  0  0  0  0  0  0  0  0  0  0  0
   21.5680  -20.4015  -11.2758 O   0  0  0  0  0  0  0  0  0  0  0  0
  2  1  1  6
  3  2  1  0
  3  4  1  0
  4  5  2  0
  6  2  1  0
  6  7  2  0
  8  4  1  0
  9  6  1  0
 10  9  1  0
 10 11  1  1
 12 13  2  0
 12 11  1  0
 14 13  1  0
 15 20  2  0
 15 14  1  0
 16 15  1  0
 17 18  1  0
 17 16  2  0
 18 19  2  0
 19 20  1  0
 20 12  1  0
 21 10  1  0
 22 21  2  0
 23 27  1  0
 23 21  1  0
 24 23  1  0
 25 24  1  0
 25 26  1  0
 26 27  1  0
 28 29  1  0
 27 28  1  1
 30 28  2  0
M  END
$$$$
