DWP.pdb
     RDKit          3D

 30 32  0  0  1  0  0  0  0  0999 V2000
   29.6633  -22.2701  -18.4507 N   0  0  0  0  0  0  0  0  0  0  0  0
   28.5495  -21.4326  -18.0936 C   0  0  1  0  0  0  0  0  0  0  0  0
   27.5519  -21.2530  -19.2066 C   0  0  0  0  0  0  0  0  0  0  0  0
   28.0334  -20.4521  -20.3352 C   0  0  0  0  0  0  0  0  0  0  0  0
   28.5510  -19.3310  -20.1698 O   0  0  0  0  0  0  0  0  0  0  0  0
   27.9134  -21.8520  -16.8199 C   0  0  0  0  0  0  0  0  0  0  0  0
   27.9224  -23.0565  -16.4639 O   0  0  0  0  0  0  0  0  0  0  0  0
   27.9115  -20.9507  -21.6161 O   0  0  0  0  0  0  0  0  0  0  0  0
   27.2666  -20.9226  -15.9504 N   0  0  0  0  0  0  0  0  0  0  0  0
   26.5954  -21.3444  -14.7428 C   0  0  1  0  0  0  0  0  0  0  0  0
   26.7930  -20.3282  -13.6668 C   0  0  0  0  0  0  0  0  0  0  0  0
   26.2594  -20.6574  -12.3452 C   0  0  0  0  0  0  0  0  0  0  0  0
   26.9635  -21.3341  -11.3332 C   0  0  0  0  0  0  0  0  0  0  0  0
   26.2174  -21.5160  -10.2612 N   0  0  0  0  0  0  0  0  0  0  0  0
   25.0169  -20.9694  -10.5358 C   0  0  0  0  0  0  0  0  0  0  0  0
   23.9181  -20.9050   -9.7134 C   0  0  0  0  0  0  0  0  0  0  0  0
   22.7770  -20.2827  -10.1799 C   0  0  0  0  0  0  0  0  0  0  0  0
   22.7597  -19.7433  -11.4468 C   0  0  0  0  0  0  0  0  0  0  0  0
   23.8622  -19.8130  -12.2617 C   0  0  0  0  0  0  0  0  0  0  0  0
   25.0152  -20.4331  -11.8129 C   0  0  0  0  0  0  0  0  0  0  0  0
   25.1316  -21.4910  -15.0863 C   0  0  0  0  0  0  0  0  0  0  0  0
   24.5392  -20.4392  -15.4434 O   0  0  0  0  0  0  0  0  0  0  0  0
   24.4369  -22.6838  -15.0302 N   0  0  0  0  0  0  0  0  0  0  0  0
   25.0894  -24.0085  -14.9792 C   0  0  0  0  0  0  0  0  0  0  0  0
   24.3465  -24.5896  -13.7962 C   0  0  0  0  0  0  0  0  0  0  0  0
   22.9671  -23.9603  -13.8451 C   0  0  0  0  0  0  0  0  0  0  0  0
   23.0712  -23.0103  -15.0788 C   0  0  1  0  0  0  0  0  0  0  0  0
   22.0489  -21.9881  -14.9914 C   0  0  0  0  0  0  0  0  0  0  0  0
   22.1804  -21.1022  -13.8813 O   0  0  0  0  0  0  0  0  0  0  0  0
   21.0941  -21.7675  -15.7182 O   0  0  0  0  0  0  0  0  0  0  0  0
  2  1  1  6
  3  2  1  0
  3  4  1  0
  4  5  2  0
  6  2  1  0
  6  7  2  0
  8  4  1  0
  9  6  1  0
 10  9  1  0
 10 11  1  1
 12 13  2  0
 12 11  1  0
 14 13  1  0
 15 20  2  0
 15 14  1  0
 16 15  1  0
 17 18  1  0
 17 16  2  0
 18 19  2  0
 19 20  1  0
 20 12  1  0
 21 10  1  0
 22 21  2  0
 23 27  1  0
 23 21  1  0
 24 23  1  0
 25 24  1  0
 25 26  1  0
 26 27  1  0
 28 29  1  0
 27 28  1  1
 30 28  2  0
M  END
$$$$
