DWP.pdb
     RDKit          3D

 30 32  0  0  1  0  0  0  0  0999 V2000
   21.0697  -19.8611  -11.9961 N   0  0  0  0  0  0  0  0  0  0  0  0
   21.8435  -20.3345  -13.1126 C   0  0  1  0  0  0  0  0  0  0  0  0
   21.3441  -19.8380  -14.4431 C   0  0  0  0  0  0  0  0  0  0  0  0
   20.0392  -20.3713  -14.8434 C   0  0  0  0  0  0  0  0  0  0  0  0
   19.3664  -21.0952  -14.0851 O   0  0  0  0  0  0  0  0  0  0  0  0
   23.2984  -20.1060  -12.9284 C   0  0  0  0  0  0  0  0  0  0  0  0
   23.7591  -18.9410  -12.8387 O   0  0  0  0  0  0  0  0  0  0  0  0
   19.5404  -20.0647  -16.0931 O   0  0  0  0  0  0  0  0  0  0  0  0
   24.2333  -21.1820  -12.8482 N   0  0  0  0  0  0  0  0  0  0  0  0
   25.6431  -20.9558  -12.6294 C   0  0  1  0  0  0  0  0  0  0  0  0
   26.1312  -21.8163  -11.5110 C   0  0  0  0  0  0  0  0  0  0  0  0
   26.0709  -21.2440  -10.1662 C   0  0  0  0  0  0  0  0  0  0  0  0
   24.8979  -20.8127   -9.5215 C   0  0  0  0  0  0  0  0  0  0  0  0
   25.1551  -20.3144   -8.3280 N   0  0  0  0  0  0  0  0  0  0  0  0
   26.4885  -20.4045   -8.1572 C   0  0  0  0  0  0  0  0  0  0  0  0
   27.2200  -20.0219   -7.0589 C   0  0  0  0  0  0  0  0  0  0  0  0
   28.5874  -20.2145   -7.0737 C   0  0  0  0  0  0  0  0  0  0  0  0
   29.1878  -20.7803   -8.1762 C   0  0  0  0  0  0  0  0  0  0  0  0
   28.4490  -21.1590   -9.2693 C   0  0  0  0  0  0  0  0  0  0  0  0
   27.0775  -20.9737   -9.2743 C   0  0  0  0  0  0  0  0  0  0  0  0
   26.3452  -21.2988  -13.9222 C   0  0  0  0  0  0  0  0  0  0  0  0
   26.2210  -22.4865  -14.3209 O   0  0  0  0  0  0  0  0  0  0  0  0
   27.0905  -20.4016  -14.6625 N   0  0  0  0  0  0  0  0  0  0  0  0
   27.0343  -18.9376  -14.4707 C   0  0  0  0  0  0  0  0  0  0  0  0
   28.5174  -18.6588  -14.3628 C   0  0  0  0  0  0  0  0  0  0  0  0
   29.1828  -19.7046  -15.2372 C   0  0  0  0  0  0  0  0  0  0  0  0
   27.9689  -20.5402  -15.7503 C   0  0  1  0  0  0  0  0  0  0  0  0
   28.4267  -21.8430  -16.1872 C   0  0  0  0  0  0  0  0  0  0  0  0
   28.5149  -22.0040  -17.6017 O   0  0  0  0  0  0  0  0  0  0  0  0
   28.7478  -22.8225  -15.5347 O   0  0  0  0  0  0  0  0  0  0  0  0
  2  1  1  1
  3  2  1  0
  3  4  1  0
  4  5  2  0
  6  2  1  0
  6  7  2  0
  8  4  1  0
  9  6  1  0
 10  9  1  0
 10 11  1  1
 12 13  2  0
 12 11  1  0
 14 13  1  0
 15 20  2  0
 15 14  1  0
 16 15  1  0
 17 18  1  0
 17 16  2  0
 18 19  2  0
 19 20  1  0
 20 12  1  0
 21 10  1  0
 22 21  2  0
 23 27  1  0
 23 21  1  0
 24 23  1  0
 25 24  1  0
 25 26  1  0
 26 27  1  0
 28 29  1  0
 27 28  1  1
 30 28  2  0
M  END
$$$$
