DWP.pdb
     RDKit          3D

 30 32  0  0  1  0  0  0  0  0999 V2000
   22.5767  -17.2201  -14.0910 N   0  0  0  0  0  0  0  0  0  0  0  0
   22.7645  -18.6441  -14.1713 C   0  0  1  0  0  0  0  0  0  0  0  0
   22.2369  -19.2487  -15.4449 C   0  0  0  0  0  0  0  0  0  0  0  0
   20.8257  -18.9635  -15.7176 C   0  0  0  0  0  0  0  0  0  0  0  0
   19.9304  -19.2417  -14.8973 O   0  0  0  0  0  0  0  0  0  0  0  0
   24.1649  -19.0456  -13.8869 C   0  0  0  0  0  0  0  0  0  0  0  0
   25.1265  -18.3281  -14.2583 O   0  0  0  0  0  0  0  0  0  0  0  0
   20.4768  -18.3711  -16.9141 O   0  0  0  0  0  0  0  0  0  0  0  0
   24.4844  -20.2503  -13.1905 N   0  0  0  0  0  0  0  0  0  0  0  0
   25.8495  -20.6719  -12.9779 C   0  0  1  0  0  0  0  0  0  0  0  0
   25.9056  -21.6919  -11.8889 C   0  0  0  0  0  0  0  0  0  0  0  0
   25.7649  -21.1996  -10.5187 C   0  0  0  0  0  0  0  0  0  0  0  0
   24.5474  -20.8646   -9.8997 C   0  0  0  0  0  0  0  0  0  0  0  0
   24.7330  -20.4217   -8.6715 N   0  0  0  0  0  0  0  0  0  0  0  0
   26.0619  -20.4540   -8.4520 C   0  0  0  0  0  0  0  0  0  0  0  0
   26.7305  -20.0973   -7.3059 C   0  0  0  0  0  0  0  0  0  0  0  0
   28.1057  -20.2198   -7.2758 C   0  0  0  0  0  0  0  0  0  0  0  0
   28.7761  -20.6921   -8.3820 C   0  0  0  0  0  0  0  0  0  0  0  0
   28.0998  -21.0455   -9.5231 C   0  0  0  0  0  0  0  0  0  0  0  0
   26.7216  -20.9294   -9.5735 C   0  0  0  0  0  0  0  0  0  0  0  0
   26.3358  -21.2499  -14.2862 C   0  0  0  0  0  0  0  0  0  0  0  0
   25.7642  -22.3030  -14.6722 O   0  0  0  0  0  0  0  0  0  0  0  0
   27.3426  -20.6958  -15.0530 N   0  0  0  0  0  0  0  0  0  0  0  0
   27.7926  -19.2944  -14.9228 C   0  0  0  0  0  0  0  0  0  0  0  0
   29.2815  -19.5368  -14.8067 C   0  0  0  0  0  0  0  0  0  0  0  0
   29.5461  -20.7844  -15.6281 C   0  0  0  0  0  0  0  0  0  0  0  0
   28.1182  -21.1745  -16.1223 C   0  0  1  0  0  0  0  0  0  0  0  0
   28.1004  -22.5730  -16.4987 C   0  0  0  0  0  0  0  0  0  0  0  0
   28.4965  -23.4761  -15.4683 O   0  0  0  0  0  0  0  0  0  0  0  0
   27.8002  -23.0976  -17.5584 O   0  0  0  0  0  0  0  0  0  0  0  0
  2  1  1  6
  3  2  1  0
  3  4  1  0
  4  5  2  0
  6  2  1  0
  6  7  2  0
  8  4  1  0
  9  6  1  0
 10  9  1  0
 10 11  1  1
 12 13  2  0
 12 11  1  0
 14 13  1  0
 15 20  2  0
 15 14  1  0
 16 15  1  0
 17 18  1  0
 17 16  2  0
 18 19  2  0
 19 20  1  0
 20 12  1  0
 21 10  1  0
 22 21  2  0
 23 27  1  0
 23 21  1  0
 24 23  1  0
 25 24  1  0
 25 26  1  0
 26 27  1  0
 28 29  1  0
 27 28  1  1
 30 28  2  0
M  END
$$$$
