DWP.pdb
     RDKit          3D

 30 32  0  0  1  0  0  0  0  0999 V2000
   26.4414  -24.6659  -15.5415 N   0  0  0  0  0  0  0  0  0  0  0  0
   26.3052  -23.2346  -15.4944 C   0  0  1  0  0  0  0  0  0  0  0  0
   25.7681  -22.6402  -16.7688 C   0  0  0  0  0  0  0  0  0  0  0  0
   26.7935  -22.1530  -17.6953 C   0  0  0  0  0  0  0  0  0  0  0  0
   27.8203  -22.8134  -17.9428 O   0  0  0  0  0  0  0  0  0  0  0  0
   25.5613  -22.7775  -14.2941 C   0  0  0  0  0  0  0  0  0  0  0  0
   24.7097  -23.5199  -13.7453 O   0  0  0  0  0  0  0  0  0  0  0  0
   26.6192  -20.9304  -18.3113 O   0  0  0  0  0  0  0  0  0  0  0  0
   25.7707  -21.4900  -13.7139 N   0  0  0  0  0  0  0  0  0  0  0  0
   24.9962  -21.0235  -12.5874 C   0  0  1  0  0  0  0  0  0  0  0  0
   25.7414  -19.9506  -11.8642 C   0  0  0  0  0  0  0  0  0  0  0  0
   26.9153  -20.3675  -11.0974 C   0  0  0  0  0  0  0  0  0  0  0  0
   28.0287  -21.0451  -11.6255 C   0  0  0  0  0  0  0  0  0  0  0  0
   28.9194  -21.3167  -10.6919 N   0  0  0  0  0  0  0  0  0  0  0  0
   28.4221  -20.8300   -9.5382 C   0  0  0  0  0  0  0  0  0  0  0  0
   29.0040  -20.8657   -8.2941 C   0  0  0  0  0  0  0  0  0  0  0  0
   28.3332  -20.2917   -7.2322 C   0  0  0  0  0  0  0  0  0  0  0  0
   27.1066  -19.6998   -7.4357 C   0  0  0  0  0  0  0  0  0  0  0  0
   26.5326  -19.6693   -8.6823 C   0  0  0  0  0  0  0  0  0  0  0  0
   27.1885  -20.2398   -9.7592 C   0  0  0  0  0  0  0  0  0  0  0  0
   23.6934  -20.4974  -13.1423 C   0  0  0  0  0  0  0  0  0  0  0  0
   23.7794  -19.4981  -13.9031 O   0  0  0  0  0  0  0  0  0  0  0  0
   22.4549  -21.0430  -12.8647 N   0  0  0  0  0  0  0  0  0  0  0  0
   22.2671  -22.3594  -12.2205 C   0  0  0  0  0  0  0  0  0  0  0  0
   21.3013  -21.9505  -11.1301 C   0  0  0  0  0  0  0  0  0  0  0  0
   20.4993  -20.8053  -11.7187 C   0  0  0  0  0  0  0  0  0  0  0  0
   21.1371  -20.6361  -13.1329 C   0  0  1  0  0  0  0  0  0  0  0  0
   20.8467  -19.3111  -13.6406 C   0  0  0  0  0  0  0  0  0  0  0  0
   21.9609  -18.4211  -13.6653 O   0  0  0  0  0  0  0  0  0  0  0  0
   19.7988  -18.8385  -14.0494 O   0  0  0  0  0  0  0  0  0  0  0  0
  2  1  1  6
  3  2  1  0
  3  4  1  0
  4  5  2  0
  6  2  1  0
  6  7  2  0
  8  4  1  0
  9  6  1  0
 10  9  1  0
 10 11  1  6
 12 13  2  0
 12 11  1  0
 14 13  1  0
 15 20  2  0
 15 14  1  0
 16 15  1  0
 17 18  1  0
 17 16  2  0
 18 19  2  0
 19 20  1  0
 20 12  1  0
 21 10  1  0
 22 21  2  0
 23 27  1  0
 23 21  1  0
 24 23  1  0
 25 24  1  0
 25 26  1  0
 26 27  1  0
 28 29  1  0
 27 28  1  1
 30 28  2  0
M  END
$$$$
