DWP.pdb
     RDKit          3D

 30 32  0  0  1  0  0  0  0  0999 V2000
   21.5469  -21.2608  -11.2139 N   0  0  0  0  0  0  0  0  0  0  0  0
   22.0516  -20.9570  -12.5264 C   0  0  1  0  0  0  0  0  0  0  0  0
   21.1446  -20.0604  -13.3260 C   0  0  0  0  0  0  0  0  0  0  0  0
   19.8068  -20.6061  -13.5705 C   0  0  0  0  0  0  0  0  0  0  0  0
   18.7876  -19.8920  -13.5160 O   0  0  0  0  0  0  0  0  0  0  0  0
   23.4524  -20.4676  -12.4931 C   0  0  0  0  0  0  0  0  0  0  0  0
   23.7067  -19.2417  -12.5932 O   0  0  0  0  0  0  0  0  0  0  0  0
   19.6699  -21.9464  -13.8693 O   0  0  0  0  0  0  0  0  0  0  0  0
   24.5641  -21.3520  -12.3510 N   0  0  0  0  0  0  0  0  0  0  0  0
   25.9262  -20.8717  -12.3320 C   0  0  1  0  0  0  0  0  0  0  0  0
   26.6889  -21.5409  -11.2366 C   0  0  0  0  0  0  0  0  0  0  0  0
   26.5252  -20.9919   -9.8907 C   0  0  0  0  0  0  0  0  0  0  0  0
   25.3018  -20.5967   -9.3206 C   0  0  0  0  0  0  0  0  0  0  0  0
   25.4666  -20.1124   -8.1052 N   0  0  0  0  0  0  0  0  0  0  0  0
   26.7871  -20.1762   -7.8458 C   0  0  0  0  0  0  0  0  0  0  0  0
   27.4341  -19.7957   -6.6950 C   0  0  0  0  0  0  0  0  0  0  0  0
   28.8034  -19.9582   -6.6199 C   0  0  0  0  0  0  0  0  0  0  0  0
   29.4895  -20.4930   -7.6875 C   0  0  0  0  0  0  0  0  0  0  0  0
   28.8348  -20.8698   -8.8336 C   0  0  0  0  0  0  0  0  0  0  0  0
   27.4629  -20.7143   -8.9287 C   0  0  0  0  0  0  0  0  0  0  0  0
   26.5215  -21.1960  -13.6820 C   0  0  0  0  0  0  0  0  0  0  0  0
   26.6747  -22.4186  -13.9398 O   0  0  0  0  0  0  0  0  0  0  0  0
   26.8917  -20.2470  -14.6153 N   0  0  0  0  0  0  0  0  0  0  0  0
   26.4834  -18.8287  -14.5455 C   0  0  0  0  0  0  0  0  0  0  0  0
   27.8417  -18.1855  -14.7196 C   0  0  0  0  0  0  0  0  0  0  0  0
   28.6237  -19.1411  -15.6007 C   0  0  0  0  0  0  0  0  0  0  0  0
   27.6093  -20.3061  -15.8218 C   0  0  1  0  0  0  0  0  0  0  0  0
   28.3234  -21.5031  -16.2154 C   0  0  0  0  0  0  0  0  0  0  0  0
   28.2311  -21.8278  -17.6012 O   0  0  0  0  0  0  0  0  0  0  0  0
   28.9901  -22.2758  -15.5470 O   0  0  0  0  0  0  0  0  0  0  0  0
  2  1  1  1
  3  2  1  0
  3  4  1  0
  4  5  2  0
  6  2  1  0
  6  7  2  0
  8  4  1  0
  9  6  1  0
 10  9  1  0
 10 11  1  1
 12 13  2  0
 12 11  1  0
 14 13  1  0
 15 20  2  0
 15 14  1  0
 16 15  1  0
 17 18  1  0
 17 16  2  0
 18 19  2  0
 19 20  1  0
 20 12  1  0
 21 10  1  0
 22 21  2  0
 23 27  1  0
 23 21  1  0
 24 23  1  0
 25 24  1  0
 25 26  1  0
 26 27  1  0
 28 29  1  0
 27 28  1  1
 30 28  2  0
M  END
$$$$
