DWP.pdb
     RDKit          3D

 30 32  0  0  1  0  0  0  0  0999 V2000
   26.9183  -18.0827  -18.9542 N   0  0  0  0  0  0  0  0  0  0  0  0
   26.1067  -17.7929  -17.8024 C   0  0  1  0  0  0  0  0  0  0  0  0
   24.6653  -17.5169  -18.1373 C   0  0  0  0  0  0  0  0  0  0  0  0
   24.4514  -16.3563  -19.0060 C   0  0  0  0  0  0  0  0  0  0  0  0
   23.8044  -16.4421  -20.0670 O   0  0  0  0  0  0  0  0  0  0  0  0
   26.2588  -18.8119  -16.7339 C   0  0  0  0  0  0  0  0  0  0  0  0
   26.3438  -20.0324  -17.0181 O   0  0  0  0  0  0  0  0  0  0  0  0
   24.9798  -15.1348  -18.6410 O   0  0  0  0  0  0  0  0  0  0  0  0
   26.3121  -18.4619  -15.3509 N   0  0  0  0  0  0  0  0  0  0  0  0
   26.4538  -19.4581  -14.3146 C   0  0  1  0  0  0  0  0  0  0  0  0
   27.1887  -18.8823  -13.1493 C   0  0  0  0  0  0  0  0  0  0  0  0
   27.5379  -19.8061  -12.0703 C   0  0  0  0  0  0  0  0  0  0  0  0
   28.4667  -20.8571  -12.1729 C   0  0  0  0  0  0  0  0  0  0  0  0
   28.5531  -21.5402  -11.0483 N   0  0  0  0  0  0  0  0  0  0  0  0
   27.6943  -20.9630  -10.1855 C   0  0  0  0  0  0  0  0  0  0  0  0
   27.4486  -21.3216   -8.8821 C   0  0  0  0  0  0  0  0  0  0  0  0
   26.5347  -20.5862   -8.1535 C   0  0  0  0  0  0  0  0  0  0  0  0
   25.8924  -19.5178   -8.7387 C   0  0  0  0  0  0  0  0  0  0  0  0
   26.1438  -19.1671  -10.0418 C   0  0  0  0  0  0  0  0  0  0  0  0
   27.0557  -19.8921  -10.7890 C   0  0  0  0  0  0  0  0  0  0  0  0
   25.0574  -19.8779  -13.9198 C   0  0  0  0  0  0  0  0  0  0  0  0
   24.3301  -18.9798  -13.4205 O   0  0  0  0  0  0  0  0  0  0  0  0
   24.5578  -21.1564  -14.0764 N   0  0  0  0  0  0  0  0  0  0  0  0
   25.1377  -22.1535  -14.9998 C   0  0  0  0  0  0  0  0  0  0  0  0
   25.2605  -23.3169  -14.0404 C   0  0  0  0  0  0  0  0  0  0  0  0
   24.1128  -23.1485  -13.0628 C   0  0  0  0  0  0  0  0  0  0  0  0
   23.4403  -21.8284  -13.5532 C   0  0  1  0  0  0  0  0  0  0  0  0
   22.6526  -21.2577  -12.4802 C   0  0  0  0  0  0  0  0  0  0  0  0
   21.2920  -21.6840  -12.4432 O   0  0  0  0  0  0  0  0  0  0  0  0
   22.9712  -20.4699  -11.6048 O   0  0  0  0  0  0  0  0  0  0  0  0
  2  1  1  6
  3  2  1  0
  3  4  1  0
  4  5  2  0
  6  2  1  0
  6  7  2  0
  8  4  1  0
  9  6  1  0
 10  9  1  0
 10 11  1  1
 12 13  2  0
 12 11  1  0
 14 13  1  0
 15 20  2  0
 15 14  1  0
 16 15  1  0
 17 18  1  0
 17 16  2  0
 18 19  2  0
 19 20  1  0
 20 12  1  0
 21 10  1  0
 22 21  2  0
 23 27  1  0
 23 21  1  0
 24 23  1  0
 25 24  1  0
 25 26  1  0
 26 27  1  0
 28 29  1  0
 27 28  1  1
 30 28  2  0
M  END
$$$$
