DWP.pdb
     RDKit          3D

 30 32  0  0  1  0  0  0  0  0999 V2000
   29.3747  -19.2775  -14.3782 N   0  0  0  0  0  0  0  0  0  0  0  0
   27.9410  -19.1618  -14.4010 C   0  0  1  0  0  0  0  0  0  0  0  0
   27.3902  -18.7845  -15.7502 C   0  0  0  0  0  0  0  0  0  0  0  0
   27.8377  -17.4818  -16.2501 C   0  0  0  0  0  0  0  0  0  0  0  0
   28.5441  -16.7223  -15.5600 O   0  0  0  0  0  0  0  0  0  0  0  0
   27.2693  -20.3529  -13.8238 C   0  0  0  0  0  0  0  0  0  0  0  0
   27.6815  -21.5108  -14.0824 O   0  0  0  0  0  0  0  0  0  0  0  0
   27.4684  -17.0836  -17.5187 O   0  0  0  0  0  0  0  0  0  0  0  0
   26.1367  -20.2442  -12.9614 N   0  0  0  0  0  0  0  0  0  0  0  0
   25.4172  -21.4061  -12.4937 C   0  0  1  0  0  0  0  0  0  0  0  0
   25.0987  -21.2598  -11.0423 C   0  0  0  0  0  0  0  0  0  0  0  0
   26.1773  -20.7829  -10.1769 C   0  0  0  0  0  0  0  0  0  0  0  0
   26.0641  -19.7375   -9.2431 C   0  0  0  0  0  0  0  0  0  0  0  0
   27.2083  -19.5098   -8.6283 N   0  0  0  0  0  0  0  0  0  0  0  0
   28.0941  -20.3896   -9.1346 C   0  0  0  0  0  0  0  0  0  0  0  0
   29.4157  -20.5397   -8.7903 C   0  0  0  0  0  0  0  0  0  0  0  0
   30.1574  -21.5197   -9.4202 C   0  0  0  0  0  0  0  0  0  0  0  0
   29.5666  -22.3208  -10.3717 C   0  0  0  0  0  0  0  0  0  0  0  0
   28.2456  -22.1632  -10.7098 C   0  0  0  0  0  0  0  0  0  0  0  0
   27.4856  -21.1864  -10.0905 C   0  0  0  0  0  0  0  0  0  0  0  0
   24.1546  -21.4979  -13.3181 C   0  0  0  0  0  0  0  0  0  0  0  0
   23.3338  -20.5535  -13.1798 O   0  0  0  0  0  0  0  0  0  0  0  0
   23.8688  -22.5329  -14.1874 N   0  0  0  0  0  0  0  0  0  0  0  0
   24.9036  -23.3442  -14.8613 C   0  0  0  0  0  0  0  0  0  0  0  0
   24.3817  -24.7218  -14.5168 C   0  0  0  0  0  0  0  0  0  0  0  0
   22.8745  -24.5680  -14.4402 C   0  0  0  0  0  0  0  0  0  0  0  0
   22.6742  -23.0459  -14.7201 C   0  0  1  0  0  0  0  0  0  0  0  0
   21.3831  -22.6257  -14.2158 C   0  0  0  0  0  0  0  0  0  0  0  0
   20.2664  -23.0661  -14.9862 O   0  0  0  0  0  0  0  0  0  0  0  0
   21.1027  -21.9544  -13.2364 O   0  0  0  0  0  0  0  0  0  0  0  0
  2  1  1  6
  3  2  1  0
  3  4  1  0
  4  5  2  0
  6  2  1  0
  6  7  2  0
  8  4  1  0
  9  6  1  0
 10  9  1  0
 10 11  1  1
 12 13  2  0
 12 11  1  0
 14 13  1  0
 15 20  2  0
 15 14  1  0
 16 15  1  0
 17 18  1  0
 17 16  2  0
 18 19  2  0
 19 20  1  0
 20 12  1  0
 21 10  1  0
 22 21  2  0
 23 27  1  0
 23 21  1  0
 24 23  1  0
 25 24  1  0
 25 26  1  0
 26 27  1  0
 28 29  1  0
 27 28  1  1
 30 28  2  0
M  END
$$$$
