DWP.pdb
     RDKit          3D

 30 32  0  0  1  0  0  0  0  0999 V2000
   27.6102  -22.2368  -17.8980 N   0  0  0  0  0  0  0  0  0  0  0  0
   26.5519  -22.8682  -17.1559 C   0  0  1  0  0  0  0  0  0  0  0  0
   26.5220  -24.3655  -17.3082 C   0  0  0  0  0  0  0  0  0  0  0  0
   26.3879  -24.8365  -18.6893 C   0  0  0  0  0  0  0  0  0  0  0  0
   27.0167  -25.8271  -19.1080 O   0  0  0  0  0  0  0  0  0  0  0  0
   26.5247  -22.4389  -15.7354 C   0  0  0  0  0  0  0  0  0  0  0  0
   27.2843  -22.9718  -14.8889 O   0  0  0  0  0  0  0  0  0  0  0  0
   25.5431  -24.1668  -19.5507 O   0  0  0  0  0  0  0  0  0  0  0  0
   25.6452  -21.4168  -15.2663 N   0  0  0  0  0  0  0  0  0  0  0  0
   25.6684  -20.9566  -13.8974 C   0  0  1  0  0  0  0  0  0  0  0  0
   26.2352  -19.5767  -13.8317 C   0  0  0  0  0  0  0  0  0  0  0  0
   27.6864  -19.4680  -13.6842 C   0  0  0  0  0  0  0  0  0  0  0  0
   28.5243  -18.6710  -14.4845 C   0  0  0  0  0  0  0  0  0  0  0  0
   29.7902  -18.7968  -14.1374 N   0  0  0  0  0  0  0  0  0  0  0  0
   29.8186  -19.6688  -13.1108 C   0  0  0  0  0  0  0  0  0  0  0  0
   30.9180  -20.1018  -12.4097 C   0  0  0  0  0  0  0  0  0  0  0  0
   30.7329  -20.9934  -11.3716 C   0  0  0  0  0  0  0  0  0  0  0  0
   29.4641  -21.4285  -11.0600 C   0  0  0  0  0  0  0  0  0  0  0  0
   28.3714  -20.9910  -11.7664 C   0  0  0  0  0  0  0  0  0  0  0  0
   28.5361  -20.0980  -12.8108 C   0  0  0  0  0  0  0  0  0  0  0  0
   24.2402  -20.9788  -13.4058 C   0  0  0  0  0  0  0  0  0  0  0  0
   23.3618  -20.6431  -14.2428 O   0  0  0  0  0  0  0  0  0  0  0  0
   23.8654  -21.3388  -12.1257 N   0  0  0  0  0  0  0  0  0  0  0  0
   24.7346  -22.0963  -11.2017 C   0  0  0  0  0  0  0  0  0  0  0  0
   24.6204  -21.2017   -9.9870 C   0  0  0  0  0  0  0  0  0  0  0  0
   23.2295  -20.6013  -10.0653 C   0  0  0  0  0  0  0  0  0  0  0  0
   22.6740  -21.2039  -11.3933 C   0  0  1  0  0  0  0  0  0  0  0  0
   21.5810  -20.3860  -11.8772 C   0  0  0  0  0  0  0  0  0  0  0  0
   20.2859  -20.8012  -11.4475 O   0  0  0  0  0  0  0  0  0  0  0  0
   21.5957  -19.3992  -12.5944 O   0  0  0  0  0  0  0  0  0  0  0  0
  2  1  1  1
  3  2  1  0
  3  4  1  0
  4  5  2  0
  6  2  1  0
  6  7  2  0
  8  4  1  0
  9  6  1  0
 10  9  1  0
 10 11  1  6
 12 13  2  0
 12 11  1  0
 14 13  1  0
 15 20  2  0
 15 14  1  0
 16 15  1  0
 17 18  1  0
 17 16  2  0
 18 19  2  0
 19 20  1  0
 20 12  1  0
 21 10  1  0
 22 21  2  0
 23 27  1  0
 23 21  1  0
 24 23  1  0
 25 24  1  0
 25 26  1  0
 26 27  1  0
 28 29  1  0
 27 28  1  6
 30 28  2  0
M  END
$$$$
