DWP.pdb
     RDKit          3D

 30 32  0  0  1  0  0  0  0  0999 V2000
   27.8288  -18.2241  -19.2556 N   0  0  0  0  0  0  0  0  0  0  0  0
   26.8020  -17.9208  -18.2948 C   0  0  1  0  0  0  0  0  0  0  0  0
   25.4539  -17.6693  -18.9157 C   0  0  0  0  0  0  0  0  0  0  0  0
   25.3999  -16.5094  -19.8096 C   0  0  0  0  0  0  0  0  0  0  0  0
   26.1117  -15.5042  -19.6228 O   0  0  0  0  0  0  0  0  0  0  0  0
   26.7464  -18.9159  -17.1949 C   0  0  0  0  0  0  0  0  0  0  0  0
   26.7238  -20.1469  -17.4433 O   0  0  0  0  0  0  0  0  0  0  0  0
   24.5385  -16.5288  -20.8876 O   0  0  0  0  0  0  0  0  0  0  0  0
   26.7132  -18.5298  -15.8208 N   0  0  0  0  0  0  0  0  0  0  0  0
   26.6389  -19.5017  -14.7548 C   0  0  1  0  0  0  0  0  0  0  0  0
   27.3829  -19.0062  -13.5588 C   0  0  0  0  0  0  0  0  0  0  0  0
   27.4733  -19.9160  -12.4170 C   0  0  0  0  0  0  0  0  0  0  0  0
   28.2901  -21.0592  -12.3551 C   0  0  0  0  0  0  0  0  0  0  0  0
   28.1409  -21.7011  -11.2129 N   0  0  0  0  0  0  0  0  0  0  0  0
   27.2334  -21.0051  -10.5008 C   0  0  0  0  0  0  0  0  0  0  0  0
   26.7663  -21.2835   -9.2390 C   0  0  0  0  0  0  0  0  0  0  0  0
   25.8407  -20.4300   -8.6717 C   0  0  0  0  0  0  0  0  0  0  0  0
   25.4065  -19.3267   -9.3721 C   0  0  0  0  0  0  0  0  0  0  0  0
   25.8782  -19.0567  -10.6326 C   0  0  0  0  0  0  0  0  0  0  0  0
   26.8056  -19.9003  -11.2187 C   0  0  0  0  0  0  0  0  0  0  0  0
   25.1737  -19.6920  -14.4399 C   0  0  0  0  0  0  0  0  0  0  0  0
   24.5407  -18.6564  -14.1057 O   0  0  0  0  0  0  0  0  0  0  0  0
   24.5182  -20.9065  -14.5005 N   0  0  0  0  0  0  0  0  0  0  0  0
   24.9880  -22.0498  -15.3100 C   0  0  0  0  0  0  0  0  0  0  0  0
   24.9367  -23.1255  -14.2474 C   0  0  0  0  0  0  0  0  0  0  0  0
   23.7964  -22.7245  -13.3309 C   0  0  0  0  0  0  0  0  0  0  0  0
   23.3112  -21.3816  -13.9605 C   0  0  1  0  0  0  0  0  0  0  0  0
   22.5769  -20.6195  -12.9717 C   0  0  0  0  0  0  0  0  0  0  0  0
   21.1721  -20.8648  -12.9478 O   0  0  0  0  0  0  0  0  0  0  0  0
   22.9725  -19.8013  -12.1577 O   0  0  0  0  0  0  0  0  0  0  0  0
  2  1  1  6
  3  2  1  0
  3  4  1  0
  4  5  2  0
  6  2  1  0
  6  7  2  0
  8  4  1  0
  9  6  1  0
 10  9  1  0
 10 11  1  1
 12 13  2  0
 12 11  1  0
 14 13  1  0
 15 20  2  0
 15 14  1  0
 16 15  1  0
 17 18  1  0
 17 16  2  0
 18 19  2  0
 19 20  1  0
 20 12  1  0
 21 10  1  0
 22 21  2  0
 23 27  1  0
 23 21  1  0
 24 23  1  0
 25 24  1  0
 25 26  1  0
 26 27  1  0
 28 29  1  0
 27 28  1  1
 30 28  2  0
M  END
$$$$
