DWP.pdb
     RDKit          3D

 30 32  0  0  1  0  0  0  0  0999 V2000
   28.5826  -19.1342  -18.9401 N   0  0  0  0  0  0  0  0  0  0  0  0
   27.6986  -18.4841  -18.0099 C   0  0  1  0  0  0  0  0  0  0  0  0
   26.5849  -17.7194  -18.6738 C   0  0  0  0  0  0  0  0  0  0  0  0
   26.9916  -16.4465  -19.2749 C   0  0  0  0  0  0  0  0  0  0  0  0
   27.6246  -16.4004  -20.3469 O   0  0  0  0  0  0  0  0  0  0  0  0
   27.2074  -19.4086  -16.9577 C   0  0  0  0  0  0  0  0  0  0  0  0
   26.8094  -20.5629  -17.2521 O   0  0  0  0  0  0  0  0  0  0  0  0
   26.6658  -15.2660  -18.6386 O   0  0  0  0  0  0  0  0  0  0  0  0
   27.1603  -19.0370  -15.5801 N   0  0  0  0  0  0  0  0  0  0  0  0
   26.6904  -19.9441  -14.5588 C   0  0  1  0  0  0  0  0  0  0  0  0
   27.3096  -19.5989  -13.2446 C   0  0  0  0  0  0  0  0  0  0  0  0
   26.9769  -20.4643  -12.1132 C   0  0  0  0  0  0  0  0  0  0  0  0
   26.9201  -21.8688  -12.1573 C   0  0  0  0  0  0  0  0  0  0  0  0
   26.5651  -22.3770  -10.9934 N   0  0  0  0  0  0  0  0  0  0  0  0
   26.3821  -21.3327  -10.1620 C   0  0  0  0  0  0  0  0  0  0  0  0
   26.0188  -21.3702   -8.8375 C   0  0  0  0  0  0  0  0  0  0  0  0
   25.8986  -20.1789   -8.1494 C   0  0  0  0  0  0  0  0  0  0  0  0
   26.1422  -18.9871   -8.7948 C   0  0  0  0  0  0  0  0  0  0  0  0
   26.5042  -18.9593  -10.1187 C   0  0  0  0  0  0  0  0  0  0  0  0
   26.6292  -20.1423  -10.8259 C   0  0  0  0  0  0  0  0  0  0  0  0
   25.1879  -19.7980  -14.5039 C   0  0  0  0  0  0  0  0  0  0  0  0
   24.7531  -18.6440  -14.2503 O   0  0  0  0  0  0  0  0  0  0  0  0
   24.2990  -20.8347  -14.7129 N   0  0  0  0  0  0  0  0  0  0  0  0
   24.6406  -22.0684  -15.4509 C   0  0  0  0  0  0  0  0  0  0  0  0
   24.1555  -23.0862  -14.4422 C   0  0  0  0  0  0  0  0  0  0  0  0
   22.9860  -22.4230  -13.7396 C   0  0  0  0  0  0  0  0  0  0  0  0
   22.9383  -21.0166  -14.4141 C   0  0  1  0  0  0  0  0  0  0  0  0
   22.2252  -20.0917  -13.5574 C   0  0  0  0  0  0  0  0  0  0  0  0
   22.8016  -19.9045  -12.2663 O   0  0  0  0  0  0  0  0  0  0  0  0
   21.2097  -19.4492  -13.7680 O   0  0  0  0  0  0  0  0  0  0  0  0
  2  1  1  6
  3  2  1  0
  3  4  1  0
  4  5  2  0
  6  2  1  0
  6  7  2  0
  8  4  1  0
  9  6  1  0
 10  9  1  0
 10 11  1  1
 12 13  2  0
 12 11  1  0
 14 13  1  0
 15 20  2  0
 15 14  1  0
 16 15  1  0
 17 18  1  0
 17 16  2  0
 18 19  2  0
 19 20  1  0
 20 12  1  0
 21 10  1  0
 22 21  2  0
 23 27  1  0
 23 21  1  0
 24 23  1  0
 25 24  1  0
 25 26  1  0
 26 27  1  0
 28 29  1  0
 27 28  1  1
 30 28  2  0
M  END
$$$$
