DWP.pdb
     RDKit          3D

 30 32  0  0  1  0  0  0  0  0999 V2000
   28.4836  -17.5484  -14.6324 N   0  0  0  0  0  0  0  0  0  0  0  0
   27.7608  -18.7603  -14.9125 C   0  0  1  0  0  0  0  0  0  0  0  0
   28.3049  -19.5259  -16.0888 C   0  0  0  0  0  0  0  0  0  0  0  0
   28.3921  -18.7551  -17.3320 C   0  0  0  0  0  0  0  0  0  0  0  0
   29.4850  -18.3696  -17.7889 O   0  0  0  0  0  0  0  0  0  0  0  0
   27.5945  -19.6098  -13.7068 C   0  0  0  0  0  0  0  0  0  0  0  0
   27.8683  -20.8351  -13.7420 O   0  0  0  0  0  0  0  0  0  0  0  0
   27.2342  -18.4468  -18.0165 O   0  0  0  0  0  0  0  0  0  0  0  0
   27.1195  -19.0858  -12.4667 N   0  0  0  0  0  0  0  0  0  0  0  0
   26.9185  -19.9252  -11.3084 C   0  0  1  0  0  0  0  0  0  0  0  0
   27.5305  -19.2892  -10.1041 C   0  0  0  0  0  0  0  0  0  0  0  0
   28.0740  -20.1910   -9.0886 C   0  0  0  0  0  0  0  0  0  0  0  0
   28.7779  -21.3792   -9.3540 C   0  0  0  0  0  0  0  0  0  0  0  0
   29.1198  -21.9996   -8.2418 N   0  0  0  0  0  0  0  0  0  0  0  0
   28.6562  -21.2446   -7.2268 C   0  0  0  0  0  0  0  0  0  0  0  0
   28.7840  -21.4824   -5.8796 C   0  0  0  0  0  0  0  0  0  0  0  0
   28.2475  -20.5706   -4.9920 C   0  0  0  0  0  0  0  0  0  0  0  0
   27.6012  -19.4510   -5.4665 C   0  0  0  0  0  0  0  0  0  0  0  0
   27.4779  -19.2219   -6.8143 C   0  0  0  0  0  0  0  0  0  0  0  0
   28.0080  -20.1241   -7.7200 C   0  0  0  0  0  0  0  0  0  0  0  0
   25.4257  -20.0821  -11.1377 C   0  0  0  0  0  0  0  0  0  0  0  0
   24.8369  -19.1483  -10.5325 O   0  0  0  0  0  0  0  0  0  0  0  0
   24.7012  -21.1639  -11.5994 N   0  0  0  0  0  0  0  0  0  0  0  0
   25.2025  -22.1090  -12.6186 C   0  0  0  0  0  0  0  0  0  0  0  0
   24.9179  -23.4065  -11.8945 C   0  0  0  0  0  0  0  0  0  0  0  0
   23.6862  -23.1300  -11.0532 C   0  0  0  0  0  0  0  0  0  0  0  0
   23.3967  -21.6274  -11.3590 C   0  0  1  0  0  0  0  0  0  0  0  0
   22.5807  -21.0657  -10.3024 C   0  0  0  0  0  0  0  0  0  0  0  0
   23.2645  -20.8444   -9.0704 O   0  0  0  0  0  0  0  0  0  0  0  0
   21.4013  -20.7535  -10.3021 O   0  0  0  0  0  0  0  0  0  0  0  0
  2  1  1  1
  3  2  1  0
  3  4  1  0
  4  5  2  0
  6  2  1  0
  6  7  2  0
  8  4  1  0
  9  6  1  0
 10  9  1  0
 10 11  1  1
 12 13  2  0
 12 11  1  0
 14 13  1  0
 15 20  2  0
 15 14  1  0
 16 15  1  0
 17 18  1  0
 17 16  2  0
 18 19  2  0
 19 20  1  0
 20 12  1  0
 21 10  1  0
 22 21  2  0
 23 27  1  0
 23 21  1  0
 24 23  1  0
 25 24  1  0
 25 26  1  0
 26 27  1  0
 28 29  1  0
 27 28  1  1
 30 28  2  0
M  END
$$$$
