DWP.pdb
     RDKit          3D

 30 32  0  0  1  0  0  0  0  0999 V2000
   28.2148  -19.5921  -18.1793 N   0  0  0  0  0  0  0  0  0  0  0  0
   28.6359  -20.9390  -17.9003 C   0  0  1  0  0  0  0  0  0  0  0  0
   30.1019  -21.1736  -18.1488 C   0  0  0  0  0  0  0  0  0  0  0  0
   30.6029  -20.6251  -19.4119 C   0  0  0  0  0  0  0  0  0  0  0  0
   31.7510  -20.8752  -19.8256 O   0  0  0  0  0  0  0  0  0  0  0  0
   28.2047  -21.3983  -16.5564 C   0  0  0  0  0  0  0  0  0  0  0  0
   29.0059  -21.9929  -15.7934 O   0  0  0  0  0  0  0  0  0  0  0  0
   29.7829  -19.8096  -20.1648 O   0  0  0  0  0  0  0  0  0  0  0  0
   26.8774  -21.1934  -16.0721 N   0  0  0  0  0  0  0  0  0  0  0  0
   26.5236  -21.4215  -14.6903 C   0  0  1  0  0  0  0  0  0  0  0  0
   27.1107  -20.3522  -13.8293 C   0  0  0  0  0  0  0  0  0  0  0  0
   26.8723  -20.4616  -12.3903 C   0  0  0  0  0  0  0  0  0  0  0  0
   25.6379  -20.2382  -11.7546 C   0  0  0  0  0  0  0  0  0  0  0  0
   25.7323  -20.3812  -10.4471 N   0  0  0  0  0  0  0  0  0  0  0  0
   27.0160  -20.6998  -10.1907 C   0  0  0  0  0  0  0  0  0  0  0  0
   27.5868  -20.9578   -8.9679 C   0  0  0  0  0  0  0  0  0  0  0  0
   28.9276  -21.2851   -8.9183 C   0  0  0  0  0  0  0  0  0  0  0  0
   29.6613  -21.3468  -10.0820 C   0  0  0  0  0  0  0  0  0  0  0  0
   29.0827  -21.0868  -11.2993 C   0  0  0  0  0  0  0  0  0  0  0  0
   27.7406  -20.7563  -11.3700 C   0  0  0  0  0  0  0  0  0  0  0  0
   25.0147  -21.4063  -14.6186 C   0  0  0  0  0  0  0  0  0  0  0  0
   24.4691  -20.2737  -14.6842 O   0  0  0  0  0  0  0  0  0  0  0  0
   24.2323  -22.5377  -14.4901 N   0  0  0  0  0  0  0  0  0  0  0  0
   24.7518  -23.9126  -14.6415 C   0  0  0  0  0  0  0  0  0  0  0  0
   24.1987  -24.5130  -13.3677 C   0  0  0  0  0  0  0  0  0  0  0  0
   22.9029  -23.7685  -13.1075 C   0  0  0  0  0  0  0  0  0  0  0  0
   22.8579  -22.7443  -14.2840 C   0  0  1  0  0  0  0  0  0  0  0  0
   21.9749  -21.6489  -13.9402 C   0  0  0  0  0  0  0  0  0  0  0  0
   22.5929  -20.5844  -13.2197 O   0  0  0  0  0  0  0  0  0  0  0  0
   20.7866  -21.4958  -14.1701 O   0  0  0  0  0  0  0  0  0  0  0  0
  2  1  1  1
  3  2  1  0
  3  4  1  0
  4  5  2  0
  6  2  1  0
  6  7  2  0
  8  4  1  0
  9  6  1  0
 10  9  1  0
 10 11  1  1
 12 13  2  0
 12 11  1  0
 14 13  1  0
 15 20  2  0
 15 14  1  0
 16 15  1  0
 17 18  1  0
 17 16  2  0
 18 19  2  0
 19 20  1  0
 20 12  1  0
 21 10  1  0
 22 21  2  0
 23 27  1  0
 23 21  1  0
 24 23  1  0
 25 24  1  0
 25 26  1  0
 26 27  1  0
 28 29  1  0
 27 28  1  1
 30 28  2  0
M  END
$$$$
