DWP.pdb
     RDKit          3D

 30 32  0  0  1  0  0  0  0  0999 V2000
   28.5438  -19.6618  -18.6063 N   0  0  0  0  0  0  0  0  0  0  0  0
   27.5535  -19.0676  -17.7487 C   0  0  1  0  0  0  0  0  0  0  0  0
   26.2688  -18.7314  -18.4577 C   0  0  0  0  0  0  0  0  0  0  0  0
   26.4121  -17.7809  -19.5637 C   0  0  0  0  0  0  0  0  0  0  0  0
   26.8507  -16.6287  -19.3851 O   0  0  0  0  0  0  0  0  0  0  0  0
   27.3321  -19.8563  -16.5110 C   0  0  0  0  0  0  0  0  0  0  0  0
   27.4045  -21.1101  -16.5270 O   0  0  0  0  0  0  0  0  0  0  0  0
   26.0525  -18.1703  -20.8378 O   0  0  0  0  0  0  0  0  0  0  0  0
   27.0275  -19.2393  -15.2601 N   0  0  0  0  0  0  0  0  0  0  0  0
   26.8221  -20.0110  -14.0564 C   0  0  1  0  0  0  0  0  0  0  0  0
   27.4654  -19.3275  -12.8952 C   0  0  0  0  0  0  0  0  0  0  0  0
   27.8755  -20.1764  -11.7768 C   0  0  0  0  0  0  0  0  0  0  0  0
   28.7997  -21.2333  -11.8588 C   0  0  0  0  0  0  0  0  0  0  0  0
   28.9492  -21.8386  -10.6969 N   0  0  0  0  0  0  0  0  0  0  0  0
   28.1376  -21.2031   -9.8294 C   0  0  0  0  0  0  0  0  0  0  0  0
   27.9647  -21.4722   -8.4932 C   0  0  0  0  0  0  0  0  0  0  0  0
   27.0903  -20.6878   -7.7670 C   0  0  0  0  0  0  0  0  0  0  0  0
   26.4145  -19.6607   -8.3872 C   0  0  0  0  0  0  0  0  0  0  0  0
   26.5931  -19.3995   -9.7229 C   0  0  0  0  0  0  0  0  0  0  0  0
   27.4644  -20.1747  -10.4681 C   0  0  0  0  0  0  0  0  0  0  0  0
   25.3285  -20.1219  -13.8594 C   0  0  0  0  0  0  0  0  0  0  0  0
   24.7283  -19.0545  -13.5671 O   0  0  0  0  0  0  0  0  0  0  0  0
   24.6146  -21.2983  -13.9817 N   0  0  0  0  0  0  0  0  0  0  0  0
   25.0703  -22.4515  -14.7853 C   0  0  0  0  0  0  0  0  0  0  0  0
   24.9004  -23.5405  -13.7489 C   0  0  0  0  0  0  0  0  0  0  0  0
   23.7310  -23.0943  -12.8918 C   0  0  0  0  0  0  0  0  0  0  0  0
   23.3548  -21.7170  -13.5217 C   0  0  1  0  0  0  0  0  0  0  0  0
   22.6049  -20.9332  -12.5619 C   0  0  0  0  0  0  0  0  0  0  0  0
   21.1918  -21.1206  -12.6083 O   0  0  0  0  0  0  0  0  0  0  0  0
   22.9935  -20.1386  -11.7215 O   0  0  0  0  0  0  0  0  0  0  0  0
  2  1  1  6
  3  2  1  0
  3  4  1  0
  4  5  2  0
  6  2  1  0
  6  7  2  0
  8  4  1  0
  9  6  1  0
 10  9  1  0
 10 11  1  1
 12 13  2  0
 12 11  1  0
 14 13  1  0
 15 20  2  0
 15 14  1  0
 16 15  1  0
 17 18  1  0
 17 16  2  0
 18 19  2  0
 19 20  1  0
 20 12  1  0
 21 10  1  0
 22 21  2  0
 23 27  1  0
 23 21  1  0
 24 23  1  0
 25 24  1  0
 25 26  1  0
 26 27  1  0
 28 29  1  0
 27 28  1  1
 30 28  2  0
M  END
$$$$
