DWP.pdb
     RDKit          3D

 30 32  0  0  1  0  0  0  0  0999 V2000
   15.2741  -20.7557    1.1406 N   0  0  0  0  0  0  0  0  0  0  0  0
   15.3485  -21.0145    2.5537 C   0  0  1  0  0  0  0  0  0  0  0  0
   15.0766  -22.4499    2.9165 C   0  0  0  0  0  0  0  0  0  0  0  0
   13.7832  -22.9620    2.4558 C   0  0  0  0  0  0  0  0  0  0  0  0
   12.7427  -22.2817    2.5359 O   0  0  0  0  0  0  0  0  0  0  0  0
   16.6046  -20.5022    3.1560 C   0  0  0  0  0  0  0  0  0  0  0  0
   17.6997  -20.6168    2.5518 O   0  0  0  0  0  0  0  0  0  0  0  0
   13.7135  -24.2311    1.9184 O   0  0  0  0  0  0  0  0  0  0  0  0
   16.6313  -19.8663    4.4340 N   0  0  0  0  0  0  0  0  0  0  0  0
   17.8609  -19.3973    5.0294 C   0  0  1  0  0  0  0  0  0  0  0  0
   17.7065  -17.9793    5.4711 C   0  0  0  0  0  0  0  0  0  0  0  0
   17.7325  -16.9578    4.4244 C   0  0  0  0  0  0  0  0  0  0  0  0
   16.7117  -16.0215    4.1811 C   0  0  0  0  0  0  0  0  0  0  0  0
   16.9994  -15.2454    3.1546 N   0  0  0  0  0  0  0  0  0  0  0  0
   18.2034  -15.6450    2.7010 C   0  0  0  0  0  0  0  0  0  0  0  0
   18.9189  -15.1217    1.6512 C   0  0  0  0  0  0  0  0  0  0  0  0
   20.1521  -15.6668    1.3528 C   0  0  0  0  0  0  0  0  0  0  0  0
   20.6386  -16.7134    2.1039 C   0  0  0  0  0  0  0  0  0  0  0  0
   19.9165  -17.2303    3.1506 C   0  0  0  0  0  0  0  0  0  0  0  0
   18.6781  -16.6984    3.4651 C   0  0  0  0  0  0  0  0  0  0  0  0
   18.1487  -20.3017    6.2047 C   0  0  0  0  0  0  0  0  0  0  0  0
   17.1674  -20.5785    6.9430 O   0  0  0  0  0  0  0  0  0  0  0  0
   19.3946  -20.8223    6.4967 N   0  0  0  0  0  0  0  0  0  0  0  0
   20.4979  -20.9014    5.5169 C   0  0  0  0  0  0  0  0  0  0  0  0
   21.5927  -20.2666    6.3459 C   0  0  0  0  0  0  0  0  0  0  0  0
   21.2675  -20.6336    7.7815 C   0  0  0  0  0  0  0  0  0  0  0  0
   19.9412  -21.4424    7.6328 C   0  0  1  0  0  0  0  0  0  0  0  0
   19.2355  -21.4536    8.8975 C   0  0  0  0  0  0  0  0  0  0  0  0
   19.4860  -22.5962    9.7136 O   0  0  0  0  0  0  0  0  0  0  0  0
   18.4610  -20.6392    9.3724 O   0  0  0  0  0  0  0  0  0  0  0  0
  2  1  1  6
  3  2  1  0
  3  4  1  0
  4  5  2  0
  6  2  1  0
  6  7  2  0
  8  4  1  0
  9  6  1  0
 10  9  1  0
 10 11  1  1
 12 13  2  0
 12 11  1  0
 14 13  1  0
 15 20  2  0
 15 14  1  0
 16 15  1  0
 17 18  1  0
 17 16  2  0
 18 19  2  0
 19 20  1  0
 20 12  1  0
 21 10  1  0
 22 21  2  0
 23 27  1  0
 23 21  1  0
 24 23  1  0
 25 24  1  0
 25 26  1  0
 26 27  1  0
 28 29  1  0
 27 28  1  1
 30 28  2  0
M  END
$$$$
