DWP.pdb
     RDKit          3D

 30 32  0  0  1  0  0  0  0  0999 V2000
   30.0826  -20.2164  -12.2651 N   0  0  0  0  0  0  0  0  0  0  0  0
   28.7065  -19.8552  -12.4778 C   0  0  1  0  0  0  0  0  0  0  0  0
   28.3087  -19.8333  -13.9295 C   0  0  0  0  0  0  0  0  0  0  0  0
   28.6777  -18.6092  -14.6455 C   0  0  0  0  0  0  0  0  0  0  0  0
   28.9228  -17.5464  -14.0437 O   0  0  0  0  0  0  0  0  0  0  0  0
   27.7770  -20.6575  -11.6439 C   0  0  0  0  0  0  0  0  0  0  0  0
   27.9522  -21.8922  -11.4937 O   0  0  0  0  0  0  0  0  0  0  0  0
   28.7565  -18.6319  -16.0230 O   0  0  0  0  0  0  0  0  0  0  0  0
   26.6528  -20.0760  -10.9835 N   0  0  0  0  0  0  0  0  0  0  0  0
   25.6171  -20.8835  -10.3819 C   0  0  1  0  0  0  0  0  0  0  0  0
   25.2520  -20.3318   -9.0433 C   0  0  0  0  0  0  0  0  0  0  0  0
   26.3537  -19.8686   -8.1999 C   0  0  0  0  0  0  0  0  0  0  0  0
   27.0088  -18.6311   -8.3309 C   0  0  0  0  0  0  0  0  0  0  0  0
   27.9818  -18.5013   -7.4504 N   0  0  0  0  0  0  0  0  0  0  0  0
   27.9921  -19.6362   -6.7245 C   0  0  0  0  0  0  0  0  0  0  0  0
   28.8254  -19.9546   -5.6794 C   0  0  0  0  0  0  0  0  0  0  0  0
   28.6629  -21.1729   -5.0498 C   0  0  0  0  0  0  0  0  0  0  0  0
   27.6795  -22.0382   -5.4749 C   0  0  0  0  0  0  0  0  0  0  0  0
   26.8519  -21.7119   -6.5203 C   0  0  0  0  0  0  0  0  0  0  0  0
   26.9993  -20.4960   -7.1648 C   0  0  0  0  0  0  0  0  0  0  0  0
   24.4354  -20.8481  -11.3223 C   0  0  0  0  0  0  0  0  0  0  0  0
   23.6430  -19.8805  -11.1788 O   0  0  0  0  0  0  0  0  0  0  0  0
   24.1923  -21.7942  -12.2992 N   0  0  0  0  0  0  0  0  0  0  0  0
   25.2278  -22.7031  -12.8330 C   0  0  0  0  0  0  0  0  0  0  0  0
   24.4872  -24.0140  -12.6850 C   0  0  0  0  0  0  0  0  0  0  0  0
   23.0222  -23.6654  -12.8680 C   0  0  0  0  0  0  0  0  0  0  0  0
   23.0643  -22.1187  -13.0714 C   0  0  1  0  0  0  0  0  0  0  0  0
   21.7629  -21.5552  -12.7773 C   0  0  0  0  0  0  0  0  0  0  0  0
   21.4542  -21.4523  -11.3886 O   0  0  0  0  0  0  0  0  0  0  0  0
   20.8909  -21.1558  -13.5314 O   0  0  0  0  0  0  0  0  0  0  0  0
  2  1  1  6
  3  2  1  0
  3  4  1  0
  4  5  2  0
  6  2  1  0
  6  7  2  0
  8  4  1  0
  9  6  1  0
 10  9  1  0
 10 11  1  1
 12 13  2  0
 12 11  1  0
 14 13  1  0
 15 20  2  0
 15 14  1  0
 16 15  1  0
 17 18  1  0
 17 16  2  0
 18 19  2  0
 19 20  1  0
 20 12  1  0
 21 10  1  0
 22 21  2  0
 23 27  1  0
 23 21  1  0
 24 23  1  0
 25 24  1  0
 25 26  1  0
 26 27  1  0
 28 29  1  0
 27 28  1  1
 30 28  2  0
M  END
$$$$
