IHA.pdb
     RDKit          3D

 24 24  0  0  1  0  0  0  0  0999 V2000
    7.3129  -11.6997   19.4276 C   0  0  0  0  0  0  0  0  0  0  0  0
    8.0237  -12.8352   18.6772 C   0  0  0  0  0  0  0  0  0  0  0  0
    8.0423  -14.0117   19.6041 C   0  0  2  0  0  0  0  0  0  0  0  0
    8.6970  -13.6217   20.8984 C   0  0  0  0  0  0  0  0  0  0  0  0
    8.6535  -15.2518   19.0151 C   0  0  2  0  0  0  0  0  0  0  0  0
    7.9267  -15.6776   17.8527 N   0  0  0  0  0  0  0  0  0  0  0  0
    8.7379  -16.3808   19.9732 C   0  0  0  0  0  0  0  0  0  0  0  0
    7.7845  -17.1821   20.1437 O   0  0  0  0  0  0  0  0  0  0  0  0
    9.9068  -16.5998   20.7392 N   0  0  0  0  0  0  0  0  0  0  0  0
   10.0951  -17.6086   21.7378 C   0  0  1  0  0  0  0  0  0  0  0  0
   11.4103  -18.3219   21.6992 C   0  0  0  0  0  0  0  0  0  0  0  0
   11.6440  -19.3161   22.7399 C   0  0  0  0  0  0  0  0  0  0  0  0
   12.5176  -19.3460   23.7806 C   0  0  0  0  0  0  0  0  0  0  0  0
   12.3101  -20.5230   24.4245 N   0  0  0  0  0  0  0  0  0  0  0  0
   11.3371  -21.2018   23.8010 C   0  0  0  0  0  0  0  0  0  0  0  0
   10.9164  -20.4788   22.7666 N   0  0  0  0  0  0  0  0  0  0  0  0
    9.9140  -17.0115   23.1239 C   0  0  0  0  0  0  0  0  0  0  0  0
   10.6401  -16.0612   23.5052 O   0  0  0  0  0  0  0  0  0  0  0  0
    7.2917  -16.8260   25.6165 C   0  0  0  0  0  0  0  0  0  0  0  0
    8.7915  -16.9874   25.3779 C   0  0  2  0  0  0  0  0  0  0  0  0
    8.9377  -17.4925   24.0261 N   0  0  0  0  0  0  0  0  0  0  0  0
    9.4029  -17.8569   26.3805 C   0  0  0  0  0  0  0  0  0  0  0  0
    9.4140  -17.5367   27.5916 O   0  0  0  0  0  0  0  0  0  0  0  0
    9.9812  -19.0541   25.9972 O   0  0  0  0  0  0  0  0  0  0  0  0
  2  3  1  0
  2  1  1  0
  3  4  1  1
  3  5  1  0
  5  6  1  6
  7  5  1  0
  7  9  1  0
  8  7  2  0
 10  9  1  0
 11 12  1  0
 10 11  1  1
 12 16  1  0
 13 12  2  0
 13 14  1  0
 14 15  1  0
 16 15  2  0
 17 10  1  0
 18 17  2  0
 20 21  1  0
 20 19  1  1
 21 17  1  0
 22 20  1  0
 23 22  2  0
 24 22  1  0
M  END
$$$$
