IHA.pdb
     RDKit          3D

 24 24  0  0  1  0  0  0  0  0999 V2000
    6.7635  -10.6489   26.9531 C   0  0  0  0  0  0  0  0  0  0  0  0
    7.4972  -11.9886   27.1100 C   0  0  0  0  0  0  0  0  0  0  0  0
    6.7148  -12.9968   26.3257 C   0  0  2  0  0  0  0  0  0  0  0  0
    5.3001  -13.0368   26.8283 C   0  0  0  0  0  0  0  0  0  0  0  0
    7.3368  -14.3643   26.2847 C   0  0  2  0  0  0  0  0  0  0  0  0
    8.7129  -14.3125   26.6899 N   0  0  0  0  0  0  0  0  0  0  0  0
    7.2485  -15.0134   24.9539 C   0  0  0  0  0  0  0  0  0  0  0  0
    6.2160  -15.6242   24.5783 O   0  0  0  0  0  0  0  0  0  0  0  0
    8.3346  -14.9690   24.0488 N   0  0  0  0  0  0  0  0  0  0  0  0
    8.3554  -15.4919   22.7159 C   0  0  1  0  0  0  0  0  0  0  0  0
    8.3305  -14.4737   21.6193 C   0  0  0  0  0  0  0  0  0  0  0  0
    8.2322  -14.9844   20.2570 C   0  0  0  0  0  0  0  0  0  0  0  0
    7.2937  -15.7551   19.6470 C   0  0  0  0  0  0  0  0  0  0  0  0
    7.7165  -15.9390   18.3701 N   0  0  0  0  0  0  0  0  0  0  0  0
    8.8822  -15.3014   18.1948 C   0  0  0  0  0  0  0  0  0  0  0  0
    9.2146  -14.7107   19.3395 N   0  0  0  0  0  0  0  0  0  0  0  0
    9.5761  -16.3766   22.5212 C   0  0  0  0  0  0  0  0  0  0  0  0
   10.7270  -15.9278   22.7438 O   0  0  0  0  0  0  0  0  0  0  0  0
   10.0463  -20.0007   21.7148 C   0  0  0  0  0  0  0  0  0  0  0  0
   10.6107  -18.6037   21.9635 C   0  0  2  0  0  0  0  0  0  0  0  0
    9.4687  -17.7183   22.0888 N   0  0  0  0  0  0  0  0  0  0  0  0
   11.5305  -18.2008   20.9021 C   0  0  0  0  0  0  0  0  0  0  0  0
   12.7535  -18.4623   20.9744 O   0  0  0  0  0  0  0  0  0  0  0  0
   11.0539  -17.5196   19.7959 O   0  0  0  0  0  0  0  0  0  0  0  0
  2  3  1  0
  2  1  1  0
  3  4  1  1
  3  5  1  0
  5  6  1  6
  7  5  1  0
  7  9  1  0
  8  7  2  0
 10  9  1  0
 11 12  1  0
 10 11  1  6
 12 16  1  0
 13 12  2  0
 13 14  1  0
 14 15  1  0
 16 15  2  0
 17 10  1  0
 18 17  2  0
 20 21  1  0
 20 19  1  6
 21 17  1  0
 22 20  1  0
 23 22  2  0
 24 22  1  0
M  END
$$$$
