IHA.pdb
     RDKit          3D

 24 24  0  0  1  0  0  0  0  0999 V2000
    7.9446  -11.8529   20.5069 C   0  0  0  0  0  0  0  0  0  0  0  0
    7.2562  -13.2189   20.6400 C   0  0  0  0  0  0  0  0  0  0  0  0
    8.2971  -14.2518   20.3346 C   0  0  2  0  0  0  0  0  0  0  0  0
    8.8676  -14.0019   18.9679 C   0  0  0  0  0  0  0  0  0  0  0  0
    7.8262  -15.6696   20.4977 C   0  0  2  0  0  0  0  0  0  0  0  0
    6.7536  -15.9598   19.5889 N   0  0  0  0  0  0  0  0  0  0  0  0
    7.3909  -15.9920   21.8785 C   0  0  0  0  0  0  0  0  0  0  0  0
    6.1775  -16.0125   22.2064 O   0  0  0  0  0  0  0  0  0  0  0  0
    8.3352  -16.2912   22.8883 N   0  0  0  0  0  0  0  0  0  0  0  0
    8.0488  -16.6306   24.2496 C   0  0  1  0  0  0  0  0  0  0  0  0
    8.3291  -18.0488   24.6371 C   0  0  0  0  0  0  0  0  0  0  0  0
    7.9970  -18.4291   26.0051 C   0  0  0  0  0  0  0  0  0  0  0  0
    7.0511  -17.9696   26.8659 C   0  0  0  0  0  0  0  0  0  0  0  0
    7.2008  -18.6754   28.0159 N   0  0  0  0  0  0  0  0  0  0  0  0
    8.2096  -19.5458   27.8715 C   0  0  0  0  0  0  0  0  0  0  0  0
    8.7100  -19.4100   26.6464 N   0  0  0  0  0  0  0  0  0  0  0  0
    8.8183  -15.7160   25.1888 C   0  0  0  0  0  0  0  0  0  0  0  0
   10.0637  -15.6005   25.0829 O   0  0  0  0  0  0  0  0  0  0  0  0
    7.8260  -13.1121   27.6552 C   0  0  0  0  0  0  0  0  0  0  0  0
    8.8803  -14.0564   27.0817 C   0  0  2  0  0  0  0  0  0  0  0  0
    8.1753  -14.9701   26.2031 N   0  0  0  0  0  0  0  0  0  0  0  0
    9.6198  -14.7401   28.1403 C   0  0  0  0  0  0  0  0  0  0  0  0
   10.3842  -14.1077   28.9053 O   0  0  0  0  0  0  0  0  0  0  0  0
    9.4810  -16.1064   28.3090 O   0  0  0  0  0  0  0  0  0  0  0  0
  2  3  1  0
  2  1  1  0
  3  4  1  6
  3  5  1  0
  5  6  1  6
  7  5  1  0
  7  9  1  0
  8  7  2  0
 10  9  1  0
 11 12  1  0
 10 11  1  1
 12 16  1  0
 13 12  2  0
 13 14  1  0
 14 15  1  0
 16 15  2  0
 17 10  1  0
 18 17  2  0
 20 21  1  0
 20 19  1  1
 21 17  1  0
 22 20  1  0
 23 22  2  0
 24 22  1  0
M  END
$$$$
