IHA.pdb
     RDKit          3D

 24 24  0  0  1  0  0  0  0  0999 V2000
    6.9053  -11.2062   27.4903 C   0  0  0  0  0  0  0  0  0  0  0  0
    6.0524  -12.2116   26.7033 C   0  0  0  0  0  0  0  0  0  0  0  0
    7.0037  -13.2070   26.1136 C   0  0  2  0  0  0  0  0  0  0  0  0
    8.0228  -12.4919   25.2735 C   0  0  0  0  0  0  0  0  0  0  0  0
    6.3387  -14.3255   25.3616 C   0  0  2  0  0  0  0  0  0  0  0  0
    5.3767  -14.9968   26.1889 N   0  0  0  0  0  0  0  0  0  0  0  0
    7.2938  -15.3240   24.8224 C   0  0  0  0  0  0  0  0  0  0  0  0
    7.7512  -16.2573   25.5295 O   0  0  0  0  0  0  0  0  0  0  0  0
    7.7302  -15.2622   23.4783 N   0  0  0  0  0  0  0  0  0  0  0  0
    8.6312  -16.1683   22.8320 C   0  0  1  0  0  0  0  0  0  0  0  0
    9.0444  -15.7920   21.4437 C   0  0  0  0  0  0  0  0  0  0  0  0
    9.8238  -16.7786   20.7051 C   0  0  0  0  0  0  0  0  0  0  0  0
   10.2859  -18.0085   21.0525 C   0  0  0  0  0  0  0  0  0  0  0  0
   10.9663  -18.4825   19.9776 N   0  0  0  0  0  0  0  0  0  0  0  0
   10.9269  -17.5730   18.9940 C   0  0  0  0  0  0  0  0  0  0  0  0
   10.2315  -16.5222   19.4206 N   0  0  0  0  0  0  0  0  0  0  0  0
    9.8844  -16.3475   23.6734 C   0  0  0  0  0  0  0  0  0  0  0  0
   10.6941  -15.3988   23.8157 O   0  0  0  0  0  0  0  0  0  0  0  0
   10.9331  -18.6342   26.3167 C   0  0  0  0  0  0  0  0  0  0  0  0
   11.3650  -17.7585   25.1425 C   0  0  2  0  0  0  0  0  0  0  0  0
   10.1858  -17.5682   24.3197 N   0  0  0  0  0  0  0  0  0  0  0  0
   12.4802  -18.3552   24.4109 C   0  0  0  0  0  0  0  0  0  0  0  0
   12.3246  -18.8049   23.2520 O   0  0  0  0  0  0  0  0  0  0  0  0
   13.7311  -18.4297   24.9976 O   0  0  0  0  0  0  0  0  0  0  0  0
  2  3  1  0
  2  1  1  0
  3  4  1  6
  3  5  1  0
  5  6  1  1
  7  5  1  0
  7  9  1  0
  8  7  2  0
 10  9  1  0
 11 12  1  0
 10 11  1  6
 12 16  1  0
 13 12  2  0
 13 14  1  0
 14 15  1  0
 16 15  2  0
 17 10  1  0
 18 17  2  0
 20 21  1  0
 20 19  1  1
 21 17  1  0
 22 20  1  0
 23 22  2  0
 24 22  1  0
M  END
$$$$
