IHA.pdb
     RDKit          3D

 24 24  0  0  1  0  0  0  0  0999 V2000
    6.6741  -11.6064   27.8447 C   0  0  0  0  0  0  0  0  0  0  0  0
    5.9245  -12.4260   26.7846 C   0  0  0  0  0  0  0  0  0  0  0  0
    6.9441  -13.3032   26.1253 C   0  0  2  0  0  0  0  0  0  0  0  0
    8.0497  -12.4552   25.5645 C   0  0  0  0  0  0  0  0  0  0  0  0
    6.3782  -14.2423   25.0975 C   0  0  2  0  0  0  0  0  0  0  0  0
    5.3111  -15.0254   25.6531 N   0  0  0  0  0  0  0  0  0  0  0  0
    7.3904  -15.1526   24.5087 C   0  0  0  0  0  0  0  0  0  0  0  0
    7.6276  -16.2877   24.9941 O   0  0  0  0  0  0  0  0  0  0  0  0
    8.1344  -14.7730   23.3671 N   0  0  0  0  0  0  0  0  0  0  0  0
    9.0676  -15.5872   22.6482 C   0  0  1  0  0  0  0  0  0  0  0  0
    9.5513  -15.0254   21.3481 C   0  0  0  0  0  0  0  0  0  0  0  0
    8.5319  -14.5206   20.4359 C   0  0  0  0  0  0  0  0  0  0  0  0
    8.2218  -13.2591   20.0368 C   0  0  0  0  0  0  0  0  0  0  0  0
    7.1710  -13.3716   19.1847 N   0  0  0  0  0  0  0  0  0  0  0  0
    6.8402  -14.6644   19.0600 C   0  0  0  0  0  0  0  0  0  0  0  0
    7.6623  -15.3839   19.8190 N   0  0  0  0  0  0  0  0  0  0  0  0
   10.2761  -15.8895   23.5193 C   0  0  0  0  0  0  0  0  0  0  0  0
   11.1030  -14.9856   23.7930 O   0  0  0  0  0  0  0  0  0  0  0  0
   11.3678  -18.7811   25.5938 C   0  0  0  0  0  0  0  0  0  0  0  0
   11.7028  -17.5128   24.8118 C   0  0  2  0  0  0  0  0  0  0  0  0
   10.5157  -17.1783   24.0484 N   0  0  0  0  0  0  0  0  0  0  0  0
   12.8859  -17.6966   23.9744 C   0  0  0  0  0  0  0  0  0  0  0  0
   12.7842  -17.8178   22.7316 O   0  0  0  0  0  0  0  0  0  0  0  0
   14.1424  -17.7388   24.5525 O   0  0  0  0  0  0  0  0  0  0  0  0
  2  3  1  0
  2  1  1  0
  3  4  1  6
  3  5  1  0
  5  6  1  1
  7  5  1  0
  7  9  1  0
  8  7  2  0
 10  9  1  0
 11 12  1  0
 10 11  1  6
 12 16  1  0
 13 12  2  0
 13 14  1  0
 14 15  1  0
 16 15  2  0
 17 10  1  0
 18 17  2  0
 20 21  1  0
 20 19  1  6
 21 17  1  0
 22 20  1  0
 23 22  2  0
 24 22  1  0
M  END
$$$$
