IHA.pdb
     RDKit          3D

 24 24  0  0  1  0  0  0  0  0999 V2000
    7.3530  -11.9388   19.6854 C   0  0  0  0  0  0  0  0  0  0  0  0
    7.9180  -13.3596   19.5451 C   0  0  0  0  0  0  0  0  0  0  0  0
    7.8834  -13.9686   20.9132 C   0  0  2  0  0  0  0  0  0  0  0  0
    8.6797  -13.1191   21.8619 C   0  0  0  0  0  0  0  0  0  0  0  0
    8.3057  -15.4102   20.9578 C   0  0  2  0  0  0  0  0  0  0  0  0
    7.5019  -16.2061   20.0741 N   0  0  0  0  0  0  0  0  0  0  0  0
    8.2557  -15.9982   22.3186 C   0  0  0  0  0  0  0  0  0  0  0  0
    7.1769  -16.3772   22.8409 O   0  0  0  0  0  0  0  0  0  0  0  0
    9.4326  -16.1555   23.0874 N   0  0  0  0  0  0  0  0  0  0  0  0
    9.5236  -16.7160   24.4020 C   0  0  1  0  0  0  0  0  0  0  0  0
   10.3654  -17.9473   24.5251 C   0  0  0  0  0  0  0  0  0  0  0  0
    9.9212  -19.1185   23.7786 C   0  0  0  0  0  0  0  0  0  0  0  0
    8.6994  -19.7007   23.6549 C   0  0  0  0  0  0  0  0  0  0  0  0
    8.8656  -20.7772   22.8446 N   0  0  0  0  0  0  0  0  0  0  0  0
   10.1520  -20.8593   22.4779 C   0  0  0  0  0  0  0  0  0  0  0  0
   10.8146  -19.8520   23.0400 N   0  0  0  0  0  0  0  0  0  0  0  0
   10.0497  -15.6760   25.3778 C   0  0  0  0  0  0  0  0  0  0  0  0
   11.1702  -15.1415   25.1924 O   0  0  0  0  0  0  0  0  0  0  0  0
    8.7446  -13.4454   27.9353 C   0  0  0  0  0  0  0  0  0  0  0  0
    9.8582  -14.4169   27.5502 C   0  0  2  0  0  0  0  0  0  0  0  0
    9.3124  -15.2739   26.5150 N   0  0  0  0  0  0  0  0  0  0  0  0
   10.3438  -15.1619   28.7095 C   0  0  0  0  0  0  0  0  0  0  0  0
   10.0685  -16.3750   28.8583 O   0  0  0  0  0  0  0  0  0  0  0  0
   11.1201  -14.5277   29.6633 O   0  0  0  0  0  0  0  0  0  0  0  0
  2  3  1  0
  2  1  1  0
  3  4  1  1
  3  5  1  0
  5  6  1  6
  7  5  1  0
  7  9  1  0
  8  7  2  0
 10  9  1  0
 11 12  1  0
 10 11  1  6
 12 16  1  0
 13 12  2  0
 13 14  1  0
 14 15  1  0
 16 15  2  0
 17 10  1  0
 18 17  2  0
 20 21  1  0
 20 19  1  1
 21 17  1  0
 22 20  1  0
 23 22  2  0
 24 22  1  0
M  END
$$$$
