IHA.pdb
     RDKit          3D

 24 24  0  0  1  0  0  0  0  0999 V2000
    6.5419  -11.2625   27.1940 C   0  0  0  0  0  0  0  0  0  0  0  0
    5.7970  -12.4801   26.6282 C   0  0  0  0  0  0  0  0  0  0  0  0
    6.8384  -13.3777   26.0335 C   0  0  2  0  0  0  0  0  0  0  0  0
    7.6947  -12.5925   25.0817 C   0  0  0  0  0  0  0  0  0  0  0  0
    6.2891  -14.6246   25.3994 C   0  0  2  0  0  0  0  0  0  0  0  0
    5.5322  -15.3903   26.3489 N   0  0  0  0  0  0  0  0  0  0  0  0
    7.3332  -15.4917   24.8011 C   0  0  0  0  0  0  0  0  0  0  0  0
    7.9028  -16.3988   25.4591 O   0  0  0  0  0  0  0  0  0  0  0  0
    7.7311  -15.3281   23.4536 N   0  0  0  0  0  0  0  0  0  0  0  0
    8.6029  -16.1883   22.7117 C   0  0  1  0  0  0  0  0  0  0  0  0
    8.7638  -15.8542   21.2617 C   0  0  0  0  0  0  0  0  0  0  0  0
    9.6709  -16.6994   20.4943 C   0  0  0  0  0  0  0  0  0  0  0  0
   10.9182  -16.4737   20.0041 C   0  0  0  0  0  0  0  0  0  0  0  0
   11.2878  -17.6067   19.3539 N   0  0  0  0  0  0  0  0  0  0  0  0
   10.2986  -18.5070   19.4387 C   0  0  0  0  0  0  0  0  0  0  0  0
    9.2995  -17.9698   20.1334 N   0  0  0  0  0  0  0  0  0  0  0  0
    9.9807  -16.2145   23.3534 C   0  0  0  0  0  0  0  0  0  0  0  0
   10.6526  -15.1593   23.4568 O   0  0  0  0  0  0  0  0  0  0  0  0
   11.8108  -18.5460   25.5265 C   0  0  0  0  0  0  0  0  0  0  0  0
   11.8720  -17.4611   24.4534 C   0  0  2  0  0  0  0  0  0  0  0  0
   10.5533  -17.4071   23.8518 N   0  0  0  0  0  0  0  0  0  0  0  0
   12.9309  -17.7272   23.4825 C   0  0  0  0  0  0  0  0  0  0  0  0
   12.6591  -18.0876   22.3138 O   0  0  0  0  0  0  0  0  0  0  0  0
   14.2574  -17.5820   23.8489 O   0  0  0  0  0  0  0  0  0  0  0  0
  2  3  1  0
  2  1  1  0
  3  4  1  6
  3  5  1  0
  5  6  1  1
  7  5  1  0
  7  9  1  0
  8  7  2  0
 10  9  1  0
 11 12  1  0
 10 11  1  6
 12 16  1  0
 13 12  2  0
 13 14  1  0
 14 15  1  0
 16 15  2  0
 17 10  1  0
 18 17  2  0
 20 21  1  0
 20 19  1  1
 21 17  1  0
 22 20  1  0
 23 22  2  0
 24 22  1  0
M  END
$$$$
