IHA.pdb
     RDKit          3D

 24 24  0  0  1  0  0  0  0  0999 V2000
    7.3208  -11.7900   24.4886 C   0  0  0  0  0  0  0  0  0  0  0  0
    7.0047  -13.2146   24.0110 C   0  0  0  0  0  0  0  0  0  0  0  0
    7.8980  -13.4783   22.8379 C   0  0  2  0  0  0  0  0  0  0  0  0
    7.5420  -12.5463   21.7153 C   0  0  0  0  0  0  0  0  0  0  0  0
    7.9235  -14.9132   22.3920 C   0  0  2  0  0  0  0  0  0  0  0  0
    6.6349  -15.3214   21.9086 N   0  0  0  0  0  0  0  0  0  0  0  0
    8.3625  -15.8533   23.4519 C   0  0  0  0  0  0  0  0  0  0  0  0
    7.5412  -16.4776   24.1701 O   0  0  0  0  0  0  0  0  0  0  0  0
    9.7364  -16.0841   23.6968 N   0  0  0  0  0  0  0  0  0  0  0  0
   10.2919  -16.9105   24.7259 C   0  0  1  0  0  0  0  0  0  0  0  0
   11.3650  -17.8576   24.2885 C   0  0  0  0  0  0  0  0  0  0  0  0
   10.9487  -18.9688   23.4411 C   0  0  0  0  0  0  0  0  0  0  0  0
    9.8542  -19.7735   23.4799 C   0  0  0  0  0  0  0  0  0  0  0  0
    9.9856  -20.6527   22.4539 N   0  0  0  0  0  0  0  0  0  0  0  0
   11.1275  -20.4001   21.7994 C   0  0  0  0  0  0  0  0  0  0  0  0
   11.7316  -19.3721   22.3893 N   0  0  0  0  0  0  0  0  0  0  0  0
   10.8432  -16.0466   25.8487 C   0  0  0  0  0  0  0  0  0  0  0  0
   11.9339  -15.4418   25.7068 O   0  0  0  0  0  0  0  0  0  0  0  0
    9.8287  -13.9969   28.4869 C   0  0  0  0  0  0  0  0  0  0  0  0
   10.7341  -15.1967   28.2165 C   0  0  2  0  0  0  0  0  0  0  0  0
   10.1630  -15.8908   27.0781 N   0  0  0  0  0  0  0  0  0  0  0  0
   10.8624  -16.0478   29.3972 C   0  0  0  0  0  0  0  0  0  0  0  0
   11.4136  -15.6257   30.4400 O   0  0  0  0  0  0  0  0  0  0  0  0
   10.3711  -17.3412   29.3738 O   0  0  0  0  0  0  0  0  0  0  0  0
  2  3  1  0
  2  1  1  0
  3  4  1  6
  3  5  1  0
  5  6  1  1
  7  5  1  0
  7  9  1  0
  8  7  2  0
 10  9  1  0
 11 12  1  0
 10 11  1  6
 12 16  1  0
 13 12  2  0
 13 14  1  0
 14 15  1  0
 16 15  2  0
 17 10  1  0
 18 17  2  0
 20 21  1  0
 20 19  1  1
 21 17  1  0
 22 20  1  0
 23 22  2  0
 24 22  1  0
M  END
$$$$
