IHA.pdb
     RDKit          3D

 24 24  0  0  1  0  0  0  0  0999 V2000
    7.7593  -12.1624   19.1427 C   0  0  0  0  0  0  0  0  0  0  0  0
    7.8437  -13.6948   19.1924 C   0  0  0  0  0  0  0  0  0  0  0  0
    7.5351  -14.0925   20.6031 C   0  0  2  0  0  0  0  0  0  0  0  0
    8.5120  -13.4356   21.5358 C   0  0  0  0  0  0  0  0  0  0  0  0
    7.4578  -15.5772   20.8228 C   0  0  2  0  0  0  0  0  0  0  0  0
    6.4512  -16.1663   19.9860 N   0  0  0  0  0  0  0  0  0  0  0  0
    7.1946  -15.9524   22.2335 C   0  0  0  0  0  0  0  0  0  0  0  0
    6.0793  -15.7534   22.7783 O   0  0  0  0  0  0  0  0  0  0  0  0
    8.1996  -16.5540   23.0265 N   0  0  0  0  0  0  0  0  0  0  0  0
    8.1115  -16.8675   24.4209 C   0  0  1  0  0  0  0  0  0  0  0  0
    8.4460  -18.2786   24.7908 C   0  0  0  0  0  0  0  0  0  0  0  0
    8.4151  -18.6054   26.2115 C   0  0  0  0  0  0  0  0  0  0  0  0
    9.3867  -19.0286   27.0623 C   0  0  0  0  0  0  0  0  0  0  0  0
    8.7947  -19.1919   28.2730 N   0  0  0  0  0  0  0  0  0  0  0  0
    7.4951  -18.8794   28.1748 C   0  0  0  0  0  0  0  0  0  0  0  0
    7.2434  -18.5177   26.9196 N   0  0  0  0  0  0  0  0  0  0  0  0
    9.0065  -15.9366   25.2229 C   0  0  0  0  0  0  0  0  0  0  0  0
   10.2166  -15.8012   24.9179 O   0  0  0  0  0  0  0  0  0  0  0  0
    8.5200  -13.2562   27.7102 C   0  0  0  0  0  0  0  0  0  0  0  0
    9.3805  -14.4033   27.1851 C   0  0  2  0  0  0  0  0  0  0  0  0
    8.5226  -15.1973   26.3264 N   0  0  0  0  0  0  0  0  0  0  0  0
    9.9667  -15.1767   28.2773 C   0  0  0  0  0  0  0  0  0  0  0  0
    9.5959  -16.3510   28.5079 O   0  0  0  0  0  0  0  0  0  0  0  0
   10.9469  -14.6133   29.0752 O   0  0  0  0  0  0  0  0  0  0  0  0
  2  3  1  0
  2  1  1  0
  3  4  1  1
  3  5  1  0
  5  6  1  6
  7  5  1  0
  7  9  1  0
  8  7  2  0
 10  9  1  0
 11 12  1  0
 10 11  1  6
 12 16  1  0
 13 12  2  0
 13 14  1  0
 14 15  1  0
 16 15  2  0
 17 10  1  0
 18 17  2  0
 20 21  1  0
 20 19  1  1
 21 17  1  0
 22 20  1  0
 23 22  2  0
 24 22  1  0
M  END
$$$$
