WLQ.pdb
     RDKit          3D

 32 33  0  0  1  0  0  0  0  0999 V2000
   15.9057  -30.2638    0.3943 N   0  0  0  0  0  0  0  0  0  0  0  0
   15.6774  -29.1373    1.2606 C   0  0  1  0  0  0  0  0  0  0  0  0
   14.6390  -29.4896    2.2806 C   0  0  0  0  0  0  0  0  0  0  0  0
   14.0910  -28.2418    2.8648 C   0  0  0  0  0  0  0  0  0  0  0  0
   13.6015  -27.1341    2.1528 C   0  0  0  0  0  0  0  0  0  0  0  0
   13.1511  -26.1992    2.9997 N   0  0  0  0  0  0  0  0  0  0  0  0
   13.3160  -26.6292    4.2690 C   0  0  0  0  0  0  0  0  0  0  0  0
   13.0191  -26.0283    5.4866 C   0  0  0  0  0  0  0  0  0  0  0  0
   13.3012  -26.6827    6.6672 C   0  0  0  0  0  0  0  0  0  0  0  0
   13.8776  -27.9304    6.5822 C   0  0  0  0  0  0  0  0  0  0  0  0
   14.1726  -28.5279    5.3586 C   0  0  0  0  0  0  0  0  0  0  0  0
   13.8932  -27.8822    4.1863 C   0  0  0  0  0  0  0  0  0  0  0  0
   16.9520  -28.6832    1.8914 C   0  0  0  0  0  0  0  0  0  0  0  0
   17.7846  -29.5327    2.2895 O   0  0  0  0  0  0  0  0  0  0  0  0
   21.1280  -24.8174    0.8952 C   0  0  0  0  0  0  0  0  0  0  0  0
   20.7275  -25.9458    1.8162 C   0  0  2  0  0  0  0  0  0  0  0  0
   21.8683  -26.8612    2.0529 C   0  0  0  0  0  0  0  0  0  0  0  0
   19.4063  -26.5365    1.5608 C   0  0  0  0  0  0  0  0  0  0  0  0
   18.4667  -26.7955    2.6633 C   0  0  2  0  0  0  0  0  0  0  0  0
   17.2443  -27.3304    2.0517 N   0  0  0  0  0  0  0  0  0  0  0  0
   18.1486  -25.7077    3.5975 C   0  0  0  0  0  0  0  0  0  0  0  0
   18.9708  -25.1286    4.3417 O   0  0  0  0  0  0  0  0  0  0  0  0
   14.0723  -21.1275    2.8428 N   0  0  0  0  0  0  0  0  0  0  0  0
   15.0485  -21.7553    2.0471 C   0  0  0  0  0  0  0  0  0  0  0  0
   15.1886  -21.4344    0.8550 O   0  0  0  0  0  0  0  0  0  0  0  0
   15.9379  -22.8209    2.6176 C   0  0  0  0  0  0  0  0  0  0  0  0
   15.5468  -23.1407    4.0324 C   0  0  0  0  0  0  0  0  0  0  0  0
   16.4299  -24.1453    4.6481 C   0  0  2  0  0  0  0  0  0  0  0  0
   16.7879  -25.2161    3.7201 N   0  0  0  0  0  0  0  0  0  0  0  0
   15.9578  -24.6556    5.9280 C   0  0  0  0  0  0  0  0  0  0  0  0
   15.7633  -25.8608    6.1578 O   0  0  0  0  0  0  0  0  0  0  0  0
   15.6805  -23.7991    7.0228 O   0  0  0  0  0  0  0  0  0  0  0  0
  2  1  1  1
  2 13  1  0
  3  2  1  0
  4  3  1  0
  5  4  2  0
  6  5  1  0
  7  6  1  0
  7 12  2  0
  8  7  1  0
  9  8  2  0
  9 10  1  0
 10 11  2  0
 11 12  1  0
 12  4  1  0
 13 14  2  0
 13 20  1  0
 16 18  1  0
 16 15  1  6
 16 17  1  0
 19 18  1  6
 19 21  1  0
 20 19  1  0
 21 29  1  0
 22 21  2  0
 24 23  1  0
 25 24  2  0
 26 24  1  0
 27 26  1  0
 28 27  1  6
 28 30  1  0
 29 28  1  0
 30 31  2  0
 30 32  1  0
M  END
$$$$
