WLQ.pdb
     RDKit          3D

 32 33  0  0  1  0  0  0  0  0999 V2000
   25.2636  -20.0864  -16.9300 N   0  0  0  0  0  0  0  0  0  0  0  0
   24.2038  -19.6431  -16.0630 C   0  0  1  0  0  0  0  0  0  0  0  0
   22.9790  -19.3522  -16.8741 C   0  0  0  0  0  0  0  0  0  0  0  0
   23.2186  -18.1418  -17.6963 C   0  0  0  0  0  0  0  0  0  0  0  0
   24.4626  -17.6849  -18.1624 C   0  0  0  0  0  0  0  0  0  0  0  0
   24.3039  -16.5819  -18.9056 N   0  0  0  0  0  0  0  0  0  0  0  0
   22.9922  -16.2671  -18.9641 C   0  0  0  0  0  0  0  0  0  0  0  0
   22.3271  -15.2223  -19.5947 C   0  0  0  0  0  0  0  0  0  0  0  0
   20.9564  -15.1128  -19.4908 C   0  0  0  0  0  0  0  0  0  0  0  0
   20.2953  -16.0665  -18.7492 C   0  0  0  0  0  0  0  0  0  0  0  0
   20.9675  -17.1119  -18.1196 C   0  0  0  0  0  0  0  0  0  0  0  0
   22.3263  -17.2239  -18.2216 C   0  0  0  0  0  0  0  0  0  0  0  0
   23.9400  -20.6454  -14.9883 C   0  0  0  0  0  0  0  0  0  0  0  0
   23.8172  -21.8575  -15.2867 O   0  0  0  0  0  0  0  0  0  0  0  0
   25.7885  -22.4192  -11.7342 C   0  0  0  0  0  0  0  0  0  0  0  0
   25.3463  -21.0607  -11.2435 C   0  0  2  0  0  0  0  0  0  0  0  0
   26.0293  -20.7119   -9.9756 C   0  0  0  0  0  0  0  0  0  0  0  0
   23.9078  -20.7815  -11.3554 C   0  0  0  0  0  0  0  0  0  0  0  0
   23.1767  -21.0615  -12.6014 C   0  0  2  0  0  0  0  0  0  0  0  0
   23.8253  -20.2679  -13.6521 N   0  0  0  0  0  0  0  0  0  0  0  0
   21.7205  -20.8722  -12.6298 C   0  0  0  0  0  0  0  0  0  0  0  0
   21.1167  -19.8423  -12.2557 O   0  0  0  0  0  0  0  0  0  0  0  0
   16.8576  -23.2708  -15.4022 N   0  0  0  0  0  0  0  0  0  0  0  0
   18.1547  -23.5685  -15.8598 C   0  0  0  0  0  0  0  0  0  0  0  0
   18.3471  -24.5340  -16.6177 O   0  0  0  0  0  0  0  0  0  0  0  0
   19.3285  -22.7306  -15.4450 C   0  0  0  0  0  0  0  0  0  0  0  0
   18.8931  -21.6144  -14.5388 C   0  0  0  0  0  0  0  0  0  0  0  0
   19.3971  -21.7747  -13.1646 C   0  0  2  0  0  0  0  0  0  0  0  0
   20.8499  -21.9266  -13.1180 N   0  0  0  0  0  0  0  0  0  0  0  0
   18.7076  -22.7957  -12.3877 C   0  0  0  0  0  0  0  0  0  0  0  0
   19.2589  -23.8242  -11.9618 O   0  0  0  0  0  0  0  0  0  0  0  0
   17.3337  -22.6883  -12.0563 O   0  0  0  0  0  0  0  0  0  0  0  0
  2  1  1  6
  2 13  1  0
  3  2  1  0
  4  3  1  0
  5  4  2  0
  6  5  1  0
  7  6  1  0
  7 12  2  0
  8  7  1  0
  9  8  2  0
  9 10  1  0
 10 11  2  0
 11 12  1  0
 12  4  1  0
 13 14  2  0
 13 20  1  0
 16 18  1  0
 16 15  1  1
 16 17  1  0
 19 18  1  1
 19 21  1  0
 20 19  1  0
 21 29  1  0
 22 21  2  0
 24 23  1  0
 25 24  2  0
 26 24  1  0
 27 26  1  0
 28 27  1  6
 28 30  1  0
 29 28  1  0
 30 31  2  0
 30 32  1  0
M  END
$$$$
