WLQ.pdb
     RDKit          3D

 32 33  0  0  1  0  0  0  0  0999 V2000
   22.0019  -17.8054  -21.9531 N   0  0  0  0  0  0  0  0  0  0  0  0
   21.5226  -17.0463  -20.8282 C   0  0  1  0  0  0  0  0  0  0  0  0
   20.0345  -16.9027  -20.9157 C   0  0  0  0  0  0  0  0  0  0  0  0
   19.7049  -15.8997  -21.9568 C   0  0  0  0  0  0  0  0  0  0  0  0
   19.7007  -16.1118  -23.3455 C   0  0  0  0  0  0  0  0  0  0  0  0
   19.3197  -14.9981  -23.9847 N   0  0  0  0  0  0  0  0  0  0  0  0
   19.0631  -14.0291  -23.0801 C   0  0  0  0  0  0  0  0  0  0  0  0
   18.6522  -12.7110  -23.2398 C   0  0  0  0  0  0  0  0  0  0  0  0
   18.4683  -11.9057  -22.1356 C   0  0  0  0  0  0  0  0  0  0  0  0
   18.7064  -12.4586  -20.8970 C   0  0  0  0  0  0  0  0  0  0  0  0
   19.1179  -13.7807  -20.7431 C   0  0  0  0  0  0  0  0  0  0  0  0
   19.3000  -14.5820  -21.8358 C   0  0  0  0  0  0  0  0  0  0  0  0
   21.9512  -17.6713  -19.5419 C   0  0  0  0  0  0  0  0  0  0  0  0
   22.0321  -18.9200  -19.4553 O   0  0  0  0  0  0  0  0  0  0  0  0
   25.3479  -15.9038  -14.8222 C   0  0  0  0  0  0  0  0  0  0  0  0
   24.3386  -16.9152  -15.3121 C   0  0  2  0  0  0  0  0  0  0  0  0
   24.9016  -18.2850  -15.2649 C   0  0  0  0  0  0  0  0  0  0  0  0
   23.5706  -16.5222  -16.5018 C   0  0  0  0  0  0  0  0  0  0  0  0
   22.5701  -17.4268  -17.0903 C   0  0  2  0  0  0  0  0  0  0  0  0
   22.2660  -16.8991  -18.4257 N   0  0  0  0  0  0  0  0  0  0  0  0
   21.3347  -17.7024  -16.3455 C   0  0  0  0  0  0  0  0  0  0  0  0
   20.4239  -16.8743  -16.1218 O   0  0  0  0  0  0  0  0  0  0  0  0
   18.7684  -22.2958  -18.0695 N   0  0  0  0  0  0  0  0  0  0  0  0
   18.6926  -22.3977  -16.6680 C   0  0  0  0  0  0  0  0  0  0  0  0
   18.8736  -23.4915  -16.1071 O   0  0  0  0  0  0  0  0  0  0  0  0
   18.3934  -21.1937  -15.8237 C   0  0  0  0  0  0  0  0  0  0  0  0
   19.5981  -20.7927  -15.0209 C   0  0  0  0  0  0  0  0  0  0  0  0
   19.8547  -19.3438  -15.0748 C   0  0  2  0  0  0  0  0  0  0  0  0
   21.0858  -19.0222  -15.7939 N   0  0  0  0  0  0  0  0  0  0  0  0
   19.7742  -18.6716  -13.7852 C   0  0  0  0  0  0  0  0  0  0  0  0
   20.7407  -18.1138  -13.2395 O   0  0  0  0  0  0  0  0  0  0  0  0
   18.5665  -18.6048  -13.0462 O   0  0  0  0  0  0  0  0  0  0  0  0
  2  1  1  6
  2 13  1  0
  3  2  1  0
  4  3  1  0
  5  4  2  0
  6  5  1  0
  7  6  1  0
  7 12  2  0
  8  7  1  0
  9  8  2  0
  9 10  1  0
 10 11  2  0
 11 12  1  0
 12  4  1  0
 13 14  2  0
 13 20  1  0
 16 18  1  0
 16 15  1  6
 16 17  1  0
 19 18  1  1
 19 21  1  0
 20 19  1  0
 21 29  1  0
 22 21  2  0
 24 23  1  0
 25 24  2  0
 26 24  1  0
 27 26  1  0
 28 27  1  1
 28 30  1  0
 29 28  1  0
 30 31  2  0
 30 32  1  0
M  END
$$$$
