WLQ.pdb
     RDKit          3D

 32 33  0  0  1  0  0  0  0  0999 V2000
   27.8399  -20.5161  -14.9448 N   0  0  0  0  0  0  0  0  0  0  0  0
   26.6376  -20.2612  -14.1959 C   0  0  1  0  0  0  0  0  0  0  0  0
   25.4538  -20.7778  -14.9540 C   0  0  0  0  0  0  0  0  0  0  0  0
   25.2965  -19.9915  -16.2011 C   0  0  0  0  0  0  0  0  0  0  0  0
   25.8809  -20.2789  -17.4459 C   0  0  0  0  0  0  0  0  0  0  0  0
   25.4947  -19.3789  -18.3596 N   0  0  0  0  0  0  0  0  0  0  0  0
   24.6652  -18.4835  -17.7824 C   0  0  0  0  0  0  0  0  0  0  0  0
   24.0149  -17.3695  -18.2999 C   0  0  0  0  0  0  0  0  0  0  0  0
   23.2165  -16.5947  -17.4851 C   0  0  0  0  0  0  0  0  0  0  0  0
   23.0984  -16.9701  -16.1655 C   0  0  0  0  0  0  0  0  0  0  0  0
   23.7526  -18.0881  -15.6524 C   0  0  0  0  0  0  0  0  0  0  0  0
   24.5439  -18.8589  -16.4578 C   0  0  0  0  0  0  0  0  0  0  0  0
   26.7275  -20.8501  -12.8269 C   0  0  0  0  0  0  0  0  0  0  0  0
   27.0759  -22.0470  -12.6878 O   0  0  0  0  0  0  0  0  0  0  0  0
   27.8852  -19.1197   -7.4191 C   0  0  0  0  0  0  0  0  0  0  0  0
   27.5122  -20.1288   -8.4795 C   0  0  2  0  0  0  0  0  0  0  0  0
   28.7250  -20.7160   -9.0962 C   0  0  0  0  0  0  0  0  0  0  0  0
   26.4033  -19.7425   -9.3629 C   0  0  0  0  0  0  0  0  0  0  0  0
   25.9300  -20.6459  -10.4237 C   0  0  2  0  0  0  0  0  0  0  0  0
   26.4324  -20.1003  -11.6903 N   0  0  0  0  0  0  0  0  0  0  0  0
   24.4947  -20.9428  -10.5175 C   0  0  0  0  0  0  0  0  0  0  0  0
   23.8003  -21.4545   -9.6112 O   0  0  0  0  0  0  0  0  0  0  0  0
   18.9576  -19.0609  -10.8240 N   0  0  0  0  0  0  0  0  0  0  0  0
   19.1503  -19.1846  -12.2125 C   0  0  0  0  0  0  0  0  0  0  0  0
   18.2052  -18.9970  -12.9969 O   0  0  0  0  0  0  0  0  0  0  0  0
   20.4948  -19.5437  -12.7741 C   0  0  0  0  0  0  0  0  0  0  0  0
   21.5000  -19.7298  -11.6734 C   0  0  0  0  0  0  0  0  0  0  0  0
   22.3312  -20.9298  -11.8660 C   0  0  2  0  0  0  0  0  0  0  0  0
   23.7588  -20.6460  -11.7334 N   0  0  0  0  0  0  0  0  0  0  0  0
   22.0257  -21.6841  -13.0739 C   0  0  0  0  0  0  0  0  0  0  0  0
   22.7782  -21.7349  -14.0611 O   0  0  0  0  0  0  0  0  0  0  0  0
   20.8266  -22.4269  -13.2135 O   0  0  0  0  0  0  0  0  0  0  0  0
  2  1  1  6
  2 13  1  0
  3  2  1  0
  4  3  1  0
  5  4  2  0
  6  5  1  0
  7  6  1  0
  7 12  2  0
  8  7  1  0
  9  8  2  0
  9 10  1  0
 10 11  2  0
 11 12  1  0
 12  4  1  0
 13 14  2  0
 13 20  1  0
 16 18  1  0
 16 15  1  6
 16 17  1  0
 19 18  1  1
 19 21  1  0
 20 19  1  0
 21 29  1  0
 22 21  2  0
 24 23  1  0
 25 24  2  0
 26 24  1  0
 27 26  1  0
 28 27  1  6
 28 30  1  0
 29 28  1  0
 30 31  2  0
 30 32  1  0
M  END
$$$$
