WLQ.pdb
     RDKit          3D

 32 33  0  0  1  0  0  0  0  0999 V2000
   28.3491  -20.8723  -11.0902 N   0  0  0  0  0  0  0  0  0  0  0  0
   27.0508  -21.2294  -10.5821 C   0  0  1  0  0  0  0  0  0  0  0  0
   26.7524  -20.4252   -9.3545 C   0  0  0  0  0  0  0  0  0  0  0  0
   27.8535  -20.6055   -8.3779 C   0  0  0  0  0  0  0  0  0  0  0  0
   29.0543  -21.3011   -8.5961 C   0  0  0  0  0  0  0  0  0  0  0  0
   29.8355  -21.2319   -7.5104 N   0  0  0  0  0  0  0  0  0  0  0  0
   29.2098  -20.5122   -6.5546 C   0  0  0  0  0  0  0  0  0  0  0  0
   29.5964  -20.1689   -5.2644 C   0  0  0  0  0  0  0  0  0  0  0  0
   28.7558  -19.4215   -4.4667 C   0  0  0  0  0  0  0  0  0  0  0  0
   27.5438  -19.0414   -4.9987 C   0  0  0  0  0  0  0  0  0  0  0  0
   27.1618  -19.3882   -6.2929 C   0  0  0  0  0  0  0  0  0  0  0  0
   27.9934  -20.1282   -7.0866 C   0  0  0  0  0  0  0  0  0  0  0  0
   26.0027  -21.0603  -11.6319 C   0  0  0  0  0  0  0  0  0  0  0  0
   25.8304  -19.9363  -12.1615 O   0  0  0  0  0  0  0  0  0  0  0  0
   25.5621  -22.4195  -15.8265 C   0  0  0  0  0  0  0  0  0  0  0  0
   25.3577  -23.5268  -14.8197 C   0  0  2  0  0  0  0  0  0  0  0  0
   25.4622  -24.8543  -15.4698 C   0  0  0  0  0  0  0  0  0  0  0  0
   24.2737  -23.3131  -13.8507 C   0  0  0  0  0  0  0  0  0  0  0  0
   24.1761  -22.0584  -13.0880 C   0  0  2  0  0  0  0  0  0  0  0  0
   25.2041  -22.1255  -12.0426 N   0  0  0  0  0  0  0  0  0  0  0  0
   22.8789  -21.6709  -12.5187 C   0  0  0  0  0  0  0  0  0  0  0  0
   22.3246  -22.2192  -11.5403 O   0  0  0  0  0  0  0  0  0  0  0  0
   20.0048  -16.1142  -13.6063 N   0  0  0  0  0  0  0  0  0  0  0  0
   19.0169  -17.0846  -13.8564 C   0  0  0  0  0  0  0  0  0  0  0  0
   17.9512  -16.7676  -14.4109 O   0  0  0  0  0  0  0  0  0  0  0  0
   19.2273  -18.5170  -13.4612 C   0  0  0  0  0  0  0  0  0  0  0  0
   20.5775  -18.7029  -12.8294 C   0  0  0  0  0  0  0  0  0  0  0  0
   20.8617  -20.1121  -12.5108 C   0  0  2  0  0  0  0  0  0  0  0  0
   22.1225  -20.5712  -13.0902 N   0  0  0  0  0  0  0  0  0  0  0  0
   19.7600  -21.0239  -12.7871 C   0  0  0  0  0  0  0  0  0  0  0  0
   19.6484  -21.6663  -13.8445 O   0  0  0  0  0  0  0  0  0  0  0  0
   18.7169  -21.2474  -11.8539 O   0  0  0  0  0  0  0  0  0  0  0  0
  2  1  1  6
  2 13  1  0
  3  2  1  0
  4  3  1  0
  5  4  2  0
  6  5  1  0
  7  6  1  0
  7 12  2  0
  8  7  1  0
  9  8  2  0
  9 10  1  0
 10 11  2  0
 11 12  1  0
 12  4  1  0
 13 14  2  0
 13 20  1  0
 16 18  1  0
 16 15  1  6
 16 17  1  0
 19 18  1  1
 19 21  1  0
 20 19  1  0
 21 29  1  0
 22 21  2  0
 24 23  1  0
 25 24  2  0
 26 24  1  0
 27 26  1  0
 28 27  1  6
 28 30  1  0
 29 28  1  0
 30 31  2  0
 30 32  1  0
M  END
$$$$
