WLQ.pdb
     RDKit          3D

 32 33  0  0  1  0  0  0  0  0999 V2000
   27.0178  -22.8575  -15.6336 N   0  0  0  0  0  0  0  0  0  0  0  0
   25.6856  -22.6057  -15.1506 C   0  0  1  0  0  0  0  0  0  0  0  0
   25.4995  -21.1360  -14.9314 C   0  0  0  0  0  0  0  0  0  0  0  0
   26.2699  -20.7235  -13.7335 C   0  0  0  0  0  0  0  0  0  0  0  0
   27.4406  -19.9470  -13.7234 C   0  0  0  0  0  0  0  0  0  0  0  0
   27.8475  -19.7359  -12.4648 N   0  0  0  0  0  0  0  0  0  0  0  0
   26.9947  -20.3425  -11.6116 C   0  0  0  0  0  0  0  0  0  0  0  0
   26.9882  -20.4230  -10.2241 C   0  0  0  0  0  0  0  0  0  0  0  0
   25.9942  -21.1267   -9.5773 C   0  0  0  0  0  0  0  0  0  0  0  0
   25.0320  -21.7313  -10.3552 C   0  0  0  0  0  0  0  0  0  0  0  0
   25.0437  -21.6469  -11.7458 C   0  0  0  0  0  0  0  0  0  0  0  0
   26.0270  -20.9490  -12.3900 C   0  0  0  0  0  0  0  0  0  0  0  0
   24.6652  -23.1673  -16.0845 C   0  0  0  0  0  0  0  0  0  0  0  0
   24.7231  -22.8903  -17.3065 O   0  0  0  0  0  0  0  0  0  0  0  0
   23.0531  -28.4815  -16.7364 C   0  0  0  0  0  0  0  0  0  0  0  0
   23.0943  -27.0359  -17.1727 C   0  0  2  0  0  0  0  0  0  0  0  0
   24.3433  -26.7465  -17.9158 C   0  0  0  0  0  0  0  0  0  0  0  0
   22.6387  -26.0574  -16.1754 C   0  0  0  0  0  0  0  0  0  0  0  0
   22.6180  -24.6181  -16.4811 C   0  0  2  0  0  0  0  0  0  0  0  0
   23.6416  -23.9972  -15.6320 N   0  0  0  0  0  0  0  0  0  0  0  0
   21.3473  -23.8882  -16.3832 C   0  0  0  0  0  0  0  0  0  0  0  0
   20.3098  -24.1501  -17.0315 O   0  0  0  0  0  0  0  0  0  0  0  0
   19.9403  -19.8191  -11.7176 N   0  0  0  0  0  0  0  0  0  0  0  0
   20.6821  -19.3015  -12.7956 C   0  0  0  0  0  0  0  0  0  0  0  0
   21.2792  -18.2177  -12.6843 O   0  0  0  0  0  0  0  0  0  0  0  0
   20.7684  -20.0435  -14.0972 C   0  0  0  0  0  0  0  0  0  0  0  0
   19.8967  -21.2667  -14.0725 C   0  0  0  0  0  0  0  0  0  0  0  0
   19.9574  -22.0277  -15.3315 C   0  0  2  0  0  0  0  0  0  0  0  0
   21.2144  -22.7580  -15.4814 N   0  0  0  0  0  0  0  0  0  0  0  0
   19.6215  -21.2527  -16.5181 C   0  0  0  0  0  0  0  0  0  0  0  0
   20.4698  -20.7738  -17.2890 O   0  0  0  0  0  0  0  0  0  0  0  0
   18.2792  -20.9832  -16.8852 O   0  0  0  0  0  0  0  0  0  0  0  0
  2  1  1  6
  2 13  1  0
  3  2  1  0
  4  3  1  0
  5  4  2  0
  6  5  1  0
  7  6  1  0
  7 12  2  0
  8  7  1  0
  9  8  2  0
  9 10  1  0
 10 11  2  0
 11 12  1  0
 12  4  1  0
 13 14  2  0
 13 20  1  0
 16 18  1  0
 16 15  1  1
 16 17  1  0
 19 18  1  1
 19 21  1  0
 20 19  1  0
 21 29  1  0
 22 21  2  0
 24 23  1  0
 25 24  2  0
 26 24  1  0
 27 26  1  0
 28 27  1  1
 28 30  1  0
 29 28  1  0
 30 31  2  0
 30 32  1  0
M  END
$$$$
