WLQ.pdb
     RDKit          3D

 32 33  0  0  1  0  0  0  0  0999 V2000
   27.5561  -20.4158  -13.1826 N   0  0  0  0  0  0  0  0  0  0  0  0
   26.3387  -20.3593  -12.4170 C   0  0  1  0  0  0  0  0  0  0  0  0
   25.2488  -21.0768  -13.1517 C   0  0  0  0  0  0  0  0  0  0  0  0
   24.8228  -20.2549  -14.3100 C   0  0  0  0  0  0  0  0  0  0  0  0
   25.5487  -20.0460  -15.4944 C   0  0  0  0  0  0  0  0  0  0  0  0
   24.8475  -19.2801  -16.3405 N   0  0  0  0  0  0  0  0  0  0  0  0
   23.6649  -18.9564  -15.7749 C   0  0  0  0  0  0  0  0  0  0  0  0
   22.6070  -18.1841  -16.2398 C   0  0  0  0  0  0  0  0  0  0  0  0
   21.4931  -17.9908  -15.4501 C   0  0  0  0  0  0  0  0  0  0  0  0
   21.4812  -18.5861  -14.2084 C   0  0  0  0  0  0  0  0  0  0  0  0
   22.5447  -19.3595  -13.7479 C   0  0  0  0  0  0  0  0  0  0  0  0
   23.6499  -19.5540  -14.5288 C   0  0  0  0  0  0  0  0  0  0  0  0
   26.5463  -20.9091  -11.0446 C   0  0  0  0  0  0  0  0  0  0  0  0
   26.9324  -22.0940  -10.9025 O   0  0  0  0  0  0  0  0  0  0  0  0
   28.6694  -21.0112   -7.3527 C   0  0  0  0  0  0  0  0  0  0  0  0
   27.9037  -19.7193   -7.5152 C   0  0  2  0  0  0  0  0  0  0  0  0
   28.4767  -18.6570   -6.6555 C   0  0  0  0  0  0  0  0  0  0  0  0
   26.4411  -19.8499   -7.5735 C   0  0  0  0  0  0  0  0  0  0  0  0
   25.7929  -20.6380   -8.6338 C   0  0  2  0  0  0  0  0  0  0  0  0
   26.3207  -20.1356   -9.9078 N   0  0  0  0  0  0  0  0  0  0  0  0
   24.3265  -20.7113   -8.6702 C   0  0  0  0  0  0  0  0  0  0  0  0
   23.5623  -19.7747   -8.9930 O   0  0  0  0  0  0  0  0  0  0  0  0
   20.2348  -20.6942  -11.0128 N   0  0  0  0  0  0  0  0  0  0  0  0
   19.5008  -21.6878  -10.3388 C   0  0  0  0  0  0  0  0  0  0  0  0
   18.2587  -21.6586  -10.3370 O   0  0  0  0  0  0  0  0  0  0  0  0
   20.1982  -22.7995   -9.6109 C   0  0  0  0  0  0  0  0  0  0  0  0
   21.6857  -22.5896   -9.6165 C   0  0  0  0  0  0  0  0  0  0  0  0
   22.1842  -22.0530   -8.3392 C   0  0  2  0  0  0  0  0  0  0  0  0
   23.6411  -21.9403   -8.3126 N   0  0  0  0  0  0  0  0  0  0  0  0
   21.6585  -22.7261   -7.1593 C   0  0  0  0  0  0  0  0  0  0  0  0
   20.4457  -22.8348   -6.9133 O   0  0  0  0  0  0  0  0  0  0  0  0
   22.5073  -23.3152   -6.1890 O   0  0  0  0  0  0  0  0  0  0  0  0
  2  1  1  6
  2 13  1  0
  3  2  1  0
  4  3  1  0
  5  4  2  0
  6  5  1  0
  7  6  1  0
  7 12  2  0
  8  7  1  0
  9  8  2  0
  9 10  1  0
 10 11  2  0
 11 12  1  0
 12  4  1  0
 13 14  2  0
 13 20  1  0
 16 18  1  0
 16 15  1  1
 16 17  1  0
 19 18  1  1
 19 21  1  0
 20 19  1  0
 21 29  1  0
 22 21  2  0
 24 23  1  0
 25 24  2  0
 26 24  1  0
 27 26  1  0
 28 27  1  6
 28 30  1  0
 29 28  1  0
 30 31  2  0
 30 32  1  0
M  END
$$$$
