WLQ.pdb
     RDKit          3D

 32 33  0  0  1  0  0  0  0  0999 V2000
   28.8931  -20.6232  -17.0981 N   0  0  0  0  0  0  0  0  0  0  0  0
   27.9221  -20.2370  -16.1084 C   0  0  1  0  0  0  0  0  0  0  0  0
   26.5416  -20.4323  -16.6552 C   0  0  0  0  0  0  0  0  0  0  0  0
   26.1237  -19.2004  -17.3667 C   0  0  0  0  0  0  0  0  0  0  0  0
   26.8219  -18.5608  -18.4045 C   0  0  0  0  0  0  0  0  0  0  0  0
   26.1360  -17.4954  -18.8386 N   0  0  0  0  0  0  0  0  0  0  0  0
   24.9907  -17.3829  -18.1324 C   0  0  0  0  0  0  0  0  0  0  0  0
   23.9612  -16.4515  -18.1971 C   0  0  0  0  0  0  0  0  0  0  0  0
   22.8846  -16.5507  -17.3411 C   0  0  0  0  0  0  0  0  0  0  0  0
   22.8803  -17.5927  -16.4408 C   0  0  0  0  0  0  0  0  0  0  0  0
   23.9152  -18.5236  -16.3808 C   0  0  0  0  0  0  0  0  0  0  0  0
   24.9833  -18.4287  -17.2288 C   0  0  0  0  0  0  0  0  0  0  0  0
   28.1323  -20.9869  -14.8347 C   0  0  0  0  0  0  0  0  0  0  0  0
   28.0542  -22.2388  -14.8313 O   0  0  0  0  0  0  0  0  0  0  0  0
   30.4112  -22.6879  -11.5881 C   0  0  0  0  0  0  0  0  0  0  0  0
   30.4983  -21.1808  -11.5329 C   0  0  2  0  0  0  0  0  0  0  0  0
   31.6068  -20.7504  -10.6488 C   0  0  0  0  0  0  0  0  0  0  0  0
   29.2146  -20.4731  -11.4294 C   0  0  0  0  0  0  0  0  0  0  0  0
   28.0821  -20.8273  -12.2999 C   0  0  2  0  0  0  0  0  0  0  0  0
   28.4148  -20.3286  -13.6396 N   0  0  0  0  0  0  0  0  0  0  0  0
   26.7283  -20.4116  -11.9107 C   0  0  0  0  0  0  0  0  0  0  0  0
   26.3123  -19.2319  -11.8852 O   0  0  0  0  0  0  0  0  0  0  0  0
   21.4224  -23.1710  -13.3166 N   0  0  0  0  0  0  0  0  0  0  0  0
   20.9817  -22.2329  -12.3648 C   0  0  0  0  0  0  0  0  0  0  0  0
   19.7680  -22.0836  -12.1452 O   0  0  0  0  0  0  0  0  0  0  0  0
   21.9629  -21.3960  -11.5973 C   0  0  0  0  0  0  0  0  0  0  0  0
   23.3737  -21.7484  -11.9741 C   0  0  0  0  0  0  0  0  0  0  0  0
   24.3703  -21.0286  -11.1637 C   0  0  2  0  0  0  0  0  0  0  0  0
   25.7415  -21.3980  -11.5092 N   0  0  0  0  0  0  0  0  0  0  0  0
   24.1272  -21.0799   -9.7286 C   0  0  0  0  0  0  0  0  0  0  0  0
   24.9320  -21.5579   -8.9119 O   0  0  0  0  0  0  0  0  0  0  0  0
   22.9336  -20.5804   -9.1498 O   0  0  0  0  0  0  0  0  0  0  0  0
  2  1  1  6
  2 13  1  0
  3  2  1  0
  4  3  1  0
  5  4  2  0
  6  5  1  0
  7  6  1  0
  7 12  2  0
  8  7  1  0
  9  8  2  0
  9 10  1  0
 10 11  2  0
 11 12  1  0
 12  4  1  0
 13 14  2  0
 13 20  1  0
 16 18  1  0
 16 15  1  1
 16 17  1  0
 19 18  1  1
 19 21  1  0
 20 19  1  0
 21 29  1  0
 22 21  2  0
 24 23  1  0
 25 24  2  0
 26 24  1  0
 27 26  1  0
 28 27  1  6
 28 30  1  0
 29 28  1  0
 30 31  2  0
 30 32  1  0
M  END
$$$$
