WLQ.pdb
     RDKit          3D

 32 33  0  0  1  0  0  0  0  0999 V2000
   28.2629  -21.3203  -17.0224 N   0  0  0  0  0  0  0  0  0  0  0  0
   27.4361  -20.3771  -16.3167 C   0  0  1  0  0  0  0  0  0  0  0  0
   26.5315  -19.6786  -17.2845 C   0  0  0  0  0  0  0  0  0  0  0  0
   27.0051  -18.2861  -17.4719 C   0  0  0  0  0  0  0  0  0  0  0  0
   27.5487  -17.7427  -18.6478 C   0  0  0  0  0  0  0  0  0  0  0  0
   27.8348  -16.4462  -18.4717 N   0  0  0  0  0  0  0  0  0  0  0  0
   27.5059  -16.0826  -17.2137 C   0  0  0  0  0  0  0  0  0  0  0  0
   27.6164  -14.8651  -16.5524 C   0  0  0  0  0  0  0  0  0  0  0  0
   27.2132  -14.7532  -15.2384 C   0  0  0  0  0  0  0  0  0  0  0  0
   26.7081  -15.8800  -14.6287 C   0  0  0  0  0  0  0  0  0  0  0  0
   26.5995  -17.0977  -15.2969 C   0  0  0  0  0  0  0  0  0  0  0  0
   26.9973  -17.2117  -16.5999 C   0  0  0  0  0  0  0  0  0  0  0  0
   26.6749  -21.0497  -15.2227 C   0  0  0  0  0  0  0  0  0  0  0  0
   26.1824  -22.1868  -15.4175 O   0  0  0  0  0  0  0  0  0  0  0  0
   26.2065  -20.0021   -9.1528 C   0  0  0  0  0  0  0  0  0  0  0  0
   25.6472  -20.7574  -10.3354 C   0  0  2  0  0  0  0  0  0  0  0  0
   25.4773  -22.1929  -10.0097 C   0  0  0  0  0  0  0  0  0  0  0  0
   26.2197  -20.4064  -11.6425 C   0  0  0  0  0  0  0  0  0  0  0  0
   25.6841  -20.9864  -12.8844 C   0  0  2  0  0  0  0  0  0  0  0  0
   26.4949  -20.4438  -13.9810 N   0  0  0  0  0  0  0  0  0  0  0  0
   24.2517  -20.8444  -13.1761 C   0  0  0  0  0  0  0  0  0  0  0  0
   23.6551  -19.7610  -13.3651 O   0  0  0  0  0  0  0  0  0  0  0  0
   20.1864  -25.5680  -14.7334 N   0  0  0  0  0  0  0  0  0  0  0  0
   19.3451  -24.4491  -14.5895 C   0  0  0  0  0  0  0  0  0  0  0  0
   18.1299  -24.5418  -14.8313 O   0  0  0  0  0  0  0  0  0  0  0  0
   19.8939  -23.1257  -14.1429 C   0  0  0  0  0  0  0  0  0  0  0  0
   21.3736  -23.2167  -13.9001 C   0  0  0  0  0  0  0  0  0  0  0  0
   21.9695  -21.9150  -13.5556 C   0  0  2  0  0  0  0  0  0  0  0  0
   23.3982  -22.0156  -13.2647 N   0  0  0  0  0  0  0  0  0  0  0  0
   21.2455  -21.1759  -12.5304 C   0  0  0  0  0  0  0  0  0  0  0  0
   20.2786  -20.4342  -12.7715 O   0  0  0  0  0  0  0  0  0  0  0  0
   21.5985  -21.2500  -11.1596 O   0  0  0  0  0  0  0  0  0  0  0  0
  2  1  1  6
  2 13  1  0
  3  2  1  0
  4  3  1  0
  5  4  2  0
  6  5  1  0
  7  6  1  0
  7 12  2  0
  8  7  1  0
  9  8  2  0
  9 10  1  0
 10 11  2  0
 11 12  1  0
 12  4  1  0
 13 14  2  0
 13 20  1  0
 16 18  1  0
 16 15  1  1
 16 17  1  0
 19 18  1  1
 19 21  1  0
 20 19  1  0
 21 29  1  0
 22 21  2  0
 24 23  1  0
 25 24  2  0
 26 24  1  0
 27 26  1  0
 28 27  1  1
 28 30  1  0
 29 28  1  0
 30 31  2  0
 30 32  1  0
M  END
$$$$
