VRE.pdb
     RDKit          3D

 28 27  0  0  1  0  0  0  0  0999 V2000
   26.1245  -22.1417  -16.4504 C   0  0  0  0  0  0  0  0  0  0  0  0
   26.3526  -23.6130  -16.2187 C   0  0  2  0  0  0  0  0  0  0  0  0
   27.1129  -24.1652  -17.4026 C   0  0  0  0  0  0  0  0  0  0  0  0
   25.0438  -24.3539  -16.1204 C   0  0  2  0  0  0  0  0  0  0  0  0
   24.4591  -24.5039  -17.4210 N   0  0  0  0  0  0  0  0  0  0  0  0
   24.1188  -23.7973  -15.1053 C   0  0  0  0  0  0  0  0  0  0  0  0
   24.4657  -23.7025  -13.9214 O   0  0  0  0  0  0  0  0  0  0  0  0
   18.7735  -18.8582  -12.4327 N   0  0  0  0  0  0  0  0  0  0  0  0
   19.9211  -18.0664  -12.7101 C   0  0  0  0  0  0  0  0  0  0  0  0
   20.3208  -17.1597  -11.8921 N   0  0  0  0  0  0  0  0  0  0  0  0
   20.6703  -18.2612  -13.9225 N   0  0  0  0  0  0  0  0  0  0  0  0
   20.2111  -19.2530  -14.8601 C   0  0  0  0  0  0  0  0  0  0  0  0
   20.5469  -20.6254  -14.2941 C   0  0  0  0  0  0  0  0  0  0  0  0
   21.5612  -21.3396  -15.1234 C   0  0  0  0  0  0  0  0  0  0  0  0
   21.8851  -22.7170  -14.6172 C   0  0  2  0  0  0  0  0  0  0  0  0
   22.8277  -23.3668  -15.4628 N   0  0  0  0  0  0  0  0  0  0  0  0
   20.6288  -23.4919  -14.4448 C   0  0  0  0  0  0  0  0  0  0  0  0
   20.0078  -23.9205  -15.4615 O   0  0  0  0  0  0  0  0  0  0  0  0
   21.1689  -16.5910  -12.0633 N   0  0  0  0  0  0  0  0  0  0  0  0
   20.0687  -23.7880  -13.1809 C   0  0  2  0  0  0  0  0  0  0  0  0
   18.8790  -24.6411  -13.0035 C   0  0  0  0  0  0  0  0  0  0  0  0
   19.1865  -25.7899  -12.1313 C   0  0  0  0  0  0  0  0  0  0  0  0
   19.2288  -25.5873  -10.6741 C   0  0  0  0  0  0  0  0  0  0  0  0
   19.3934  -26.6966   -9.7592 O   0  0  0  0  0  0  0  0  0  0  0  0
   20.4635  -27.2727   -9.4910 C   0  0  0  0  0  0  0  0  0  0  0  0
   17.7501  -23.8371  -12.5840 O   0  0  0  0  0  0  0  0  0  0  0  0
   16.4113  -24.2243  -12.5984 O   0  0  0  0  0  0  0  0  0  0  0  0
   18.2728  -27.2285   -9.0688 O   0  0  0  0  0  0  0  0  0  0  0  0
  2  1  1  6
  3  2  1  0
  4  5  1  6
  4  2  1  0
  6  4  1  0
  7  6  2  0
  9  8  1  0
  9 10  2  0
 11  9  1  0
 12 11  1  0
 13 12  1  0
 14 13  1  0
 15 14  1  6
 15 16  1  0
 16  6  1  0
 17 15  1  0
 17 18  2  0
 19 17  1  0
 20 19  1  0
 20 21  1  6
 22 21  1  0
 23 22  1  0
 24 23  2  0
 25 20  1  0
 26 25  1  0
 27 23  1  0
 28 25  2  0
M  END
$$$$
