VRE.pdb
     RDKit          3D

 28 27  0  0  1  0  0  0  0  0999 V2000
   28.2153  -16.2453  -16.5230 C   0  0  0  0  0  0  0  0  0  0  0  0
   26.8661  -15.9342  -17.1174 C   0  0  2  0  0  0  0  0  0  0  0  0
   26.1954  -14.8952  -16.2483 C   0  0  0  0  0  0  0  0  0  0  0  0
   25.9888  -17.1596  -17.1375 C   0  0  2  0  0  0  0  0  0  0  0  0
   25.5227  -17.4584  -15.8148 N   0  0  0  0  0  0  0  0  0  0  0  0
   26.5965  -18.3161  -17.8369 C   0  0  0  0  0  0  0  0  0  0  0  0
   27.0455  -18.1940  -18.9834 O   0  0  0  0  0  0  0  0  0  0  0  0
   27.8397  -25.8819  -16.7303 N   0  0  0  0  0  0  0  0  0  0  0  0
   29.1809  -25.8660  -17.2015 C   0  0  0  0  0  0  0  0  0  0  0  0
   29.6954  -26.8877  -17.7869 N   0  0  0  0  0  0  0  0  0  0  0  0
   30.0027  -24.6974  -17.0342 N   0  0  0  0  0  0  0  0  0  0  0  0
   29.4348  -23.5483  -16.3778 C   0  0  0  0  0  0  0  0  0  0  0  0
   28.5775  -22.8043  -17.3918 C   0  0  0  0  0  0  0  0  0  0  0  0
   27.9418  -21.5897  -16.8026 C   0  0  0  0  0  0  0  0  0  0  0  0
   27.1596  -20.7811  -17.7990 C   0  0  2  0  0  0  0  0  0  0  0  0
   26.6749  -19.5764  -17.2161 N   0  0  0  0  0  0  0  0  0  0  0  0
   26.0800  -21.6193  -18.3822 C   0  0  0  0  0  0  0  0  0  0  0  0
   25.2041  -22.1345  -17.6270 O   0  0  0  0  0  0  0  0  0  0  0  0
   30.6585  -26.8842  -18.1670 N   0  0  0  0  0  0  0  0  0  0  0  0
   25.9675  -21.8845  -19.7664 C   0  0  1  0  0  0  0  0  0  0  0  0
   24.8450  -22.6369  -20.3569 C   0  0  0  0  0  0  0  0  0  0  0  0
   24.1735  -23.4599  -19.3338 C   0  0  0  0  0  0  0  0  0  0  0  0
   24.2323  -24.9262  -19.4471 C   0  0  0  0  0  0  0  0  0  0  0  0
   23.4434  -25.7848  -18.5898 O   0  0  0  0  0  0  0  0  0  0  0  0
   22.6795  -25.4110  -17.6812 C   0  0  0  0  0  0  0  0  0  0  0  0
   23.9765  -21.7389  -21.0890 O   0  0  0  0  0  0  0  0  0  0  0  0
   22.9357  -22.1088  -21.9390 O   0  0  0  0  0  0  0  0  0  0  0  0
   23.4970  -27.1952  -18.7432 O   0  0  0  0  0  0  0  0  0  0  0  0
  2  1  1  1
  3  2  1  0
  4  5  1  1
  4  2  1  0
  6  4  1  0
  7  6  2  0
  9  8  1  0
  9 10  2  0
 11  9  1  0
 12 11  1  0
 13 12  1  0
 14 13  1  0
 15 14  1  1
 15 16  1  0
 16  6  1  0
 17 15  1  0
 17 18  2  0
 19 17  1  0
 20 19  1  0
 20 21  1  6
 22 21  1  0
 23 22  1  0
 24 23  2  0
 25 20  1  0
 26 25  1  0
 27 23  1  0
 28 25  2  0
M  END
$$$$
