VRE.pdb
     RDKit          3D

 28 27  0  0  1  0  0  0  0  0999 V2000
   14.6620  -13.6379  -16.0555 C   0  0  0  0  0  0  0  0  0  0  0  0
   15.2098  -13.1258  -17.3625 C   0  0  2  0  0  0  0  0  0  0  0  0
   15.0444  -14.2110  -18.4015 C   0  0  0  0  0  0  0  0  0  0  0  0
   16.6797  -12.8131  -17.2470 C   0  0  2  0  0  0  0  0  0  0  0  0
   17.4283  -14.0174  -17.0343 N   0  0  0  0  0  0  0  0  0  0  0  0
   16.9852  -11.7353  -16.2770 C   0  0  0  0  0  0  0  0  0  0  0  0
   16.1899  -11.4600  -15.3700 O   0  0  0  0  0  0  0  0  0  0  0  0
   21.7474   -5.8665  -15.6791 N   0  0  0  0  0  0  0  0  0  0  0  0
   22.1444   -6.0491  -14.3264 C   0  0  0  0  0  0  0  0  0  0  0  0
   22.3052   -5.0484  -13.5365 N   0  0  0  0  0  0  0  0  0  0  0  0
   22.3779   -7.3683  -13.8027 N   0  0  0  0  0  0  0  0  0  0  0  0
   22.0317   -8.5017  -14.6208 C   0  0  0  0  0  0  0  0  0  0  0  0
   20.5136   -8.5774  -14.7002 C   0  0  0  0  0  0  0  0  0  0  0  0
   20.0541   -9.7043  -15.5636 C   0  0  0  0  0  0  0  0  0  0  0  0
   18.5638   -9.8979  -15.5515 C   0  0  2  0  0  0  0  0  0  0  0  0
   18.1822  -11.0009  -16.3660 N   0  0  0  0  0  0  0  0  0  0  0  0
   17.8941   -8.6295  -15.9406 C   0  0  0  0  0  0  0  0  0  0  0  0
   17.9206   -8.2469  -17.1472 O   0  0  0  0  0  0  0  0  0  0  0  0
   22.4513   -5.1620  -12.5178 N   0  0  0  0  0  0  0  0  0  0  0  0
   17.2106   -7.8010  -15.0213 C   0  0  2  0  0  0  0  0  0  0  0  0
   16.5443   -6.5432  -15.4069 C   0  0  0  0  0  0  0  0  0  0  0  0
   15.0975   -6.6132  -15.1294 C   0  0  0  0  0  0  0  0  0  0  0  0
   14.2634   -5.4289  -15.3903 C   0  0  0  0  0  0  0  0  0  0  0  0
   12.8360   -5.4398  -15.1518 O   0  0  0  0  0  0  0  0  0  0  0  0
   12.1803   -6.3827  -14.6723 C   0  0  0  0  0  0  0  0  0  0  0  0
   17.2295   -5.4157  -14.8104 O   0  0  0  0  0  0  0  0  0  0  0  0
   17.3404   -4.1368  -15.3532 O   0  0  0  0  0  0  0  0  0  0  0  0
   12.0474   -4.3034  -15.4713 O   0  0  0  0  0  0  0  0  0  0  0  0
  2  1  1  1
  3  2  1  0
  4  5  1  1
  4  2  1  0
  6  4  1  0
  7  6  2  0
  9  8  1  0
  9 10  2  0
 11  9  1  0
 12 11  1  0
 13 12  1  0
 14 13  1  0
 15 14  1  6
 15 16  1  0
 16  6  1  0
 17 15  1  0
 17 18  2  0
 19 17  1  0
 20 19  1  0
 20 21  1  1
 22 21  1  0
 23 22  1  0
 24 23  2  0
 25 20  1  0
 26 25  1  0
 27 23  1  0
 28 25  2  0
M  END
$$$$
