VRE.pdb
     RDKit          3D

 28 27  0  0  1  0  0  0  0  0999 V2000
   21.4797  -28.7012  -15.2085 C   0  0  0  0  0  0  0  0  0  0  0  0
   21.2845  -27.2148  -15.3607 C   0  0  2  0  0  0  0  0  0  0  0  0
   22.6072  -26.6035  -15.7622 C   0  0  0  0  0  0  0  0  0  0  0  0
   20.8601  -26.5892  -14.0568 C   0  0  2  0  0  0  0  0  0  0  0  0
   21.9930  -26.4237  -13.1934 N   0  0  0  0  0  0  0  0  0  0  0  0
   19.7096  -27.2688  -13.4163 C   0  0  0  0  0  0  0  0  0  0  0  0
   18.6717  -27.4864  -14.0539 O   0  0  0  0  0  0  0  0  0  0  0  0
   22.6384  -32.0484  -10.7850 N   0  0  0  0  0  0  0  0  0  0  0  0
   22.6273  -31.0590   -9.7643 C   0  0  0  0  0  0  0  0  0  0  0  0
   23.7037  -30.4538   -9.4088 N   0  0  0  0  0  0  0  0  0  0  0  0
   21.4020  -30.7067   -9.0983 N   0  0  0  0  0  0  0  0  0  0  0  0
   20.1824  -31.3419   -9.5259 C   0  0  0  0  0  0  0  0  0  0  0  0
   19.5899  -30.5094  -10.6540 C   0  0  0  0  0  0  0  0  0  0  0  0
   19.2508  -29.1258  -10.2097 C   0  0  0  0  0  0  0  0  0  0  0  0
   18.7138  -28.2581  -11.3129 C   0  0  2  0  0  0  0  0  0  0  0  0
   19.7698  -27.6794  -12.0718 N   0  0  0  0  0  0  0  0  0  0  0  0
   17.7860  -27.2465  -10.7434 C   0  0  0  0  0  0  0  0  0  0  0  0
   18.2186  -26.3861   -9.9215 O   0  0  0  0  0  0  0  0  0  0  0  0
   23.7245  -29.7631   -8.6378 N   0  0  0  0  0  0  0  0  0  0  0  0
   16.4123  -27.1839  -11.0717 C   0  0  1  0  0  0  0  0  0  0  0  0
   15.5024  -26.1478  -10.5489 C   0  0  0  0  0  0  0  0  0  0  0  0
   14.9077  -25.3710  -11.6525 C   0  0  0  0  0  0  0  0  0  0  0  0
   13.9258  -24.3210  -11.3370 C   0  0  0  0  0  0  0  0  0  0  0  0
   13.3193  -23.5142  -12.3741 O   0  0  0  0  0  0  0  0  0  0  0  0
   13.6720  -23.4676  -13.5668 C   0  0  0  0  0  0  0  0  0  0  0  0
   14.5502  -26.7402   -9.6328 O   0  0  0  0  0  0  0  0  0  0  0  0
   13.9143  -26.0954   -8.5734 O   0  0  0  0  0  0  0  0  0  0  0  0
   12.2152  -22.6735  -12.0745 O   0  0  0  0  0  0  0  0  0  0  0  0
  2  1  1  1
  3  2  1  0
  4  5  1  1
  4  2  1  0
  6  4  1  0
  7  6  2  0
  9  8  1  0
  9 10  2  0
 11  9  1  0
 12 11  1  0
 13 12  1  0
 14 13  1  0
 15 14  1  1
 15 16  1  0
 16  6  1  0
 17 15  1  0
 17 18  2  0
 19 17  1  0
 20 19  1  0
 20 21  1  1
 22 21  1  0
 23 22  1  0
 24 23  2  0
 25 20  1  0
 26 25  1  0
 27 23  1  0
 28 25  2  0
M  END
$$$$
