VRE.pdb
     RDKit          3D

 28 27  0  0  1  0  0  0  0  0999 V2000
   13.2180   -8.4514   -8.6643 C   0  0  0  0  0  0  0  0  0  0  0  0
   13.8870   -7.1230   -8.4232 C   0  0  2  0  0  0  0  0  0  0  0  0
   13.3211   -6.1239   -9.4061 C   0  0  0  0  0  0  0  0  0  0  0  0
   15.3729   -7.2156   -8.6582 C   0  0  2  0  0  0  0  0  0  0  0  0
   16.0202   -6.0116   -8.2253 N   0  0  0  0  0  0  0  0  0  0  0  0
   15.7338   -7.6318  -10.0339 C   0  0  0  0  0  0  0  0  0  0  0  0
   15.4433   -8.7613  -10.4471 O   0  0  0  0  0  0  0  0  0  0  0  0
   11.3617   -6.3338  -16.0406 N   0  0  0  0  0  0  0  0  0  0  0  0
   11.4457   -7.5903  -15.3809 C   0  0  0  0  0  0  0  0  0  0  0  0
   10.5103   -8.4648  -15.4877 N   0  0  0  0  0  0  0  0  0  0  0  0
   12.5885   -7.9179  -14.5710 N   0  0  0  0  0  0  0  0  0  0  0  0
   13.6319   -6.9356  -14.4287 C   0  0  0  0  0  0  0  0  0  0  0  0
   14.6546   -7.4768  -13.4398 C   0  0  0  0  0  0  0  0  0  0  0  0
   15.7767   -6.5191  -13.2152 C   0  0  0  0  0  0  0  0  0  0  0  0
   16.8054   -7.0211  -12.2414 C   0  0  2  0  0  0  0  0  0  0  0  0
   16.4149   -6.7554  -10.8987 N   0  0  0  0  0  0  0  0  0  0  0  0
   18.1343   -6.4505  -12.5834 C   0  0  0  0  0  0  0  0  0  0  0  0
   18.4281   -5.2740  -12.2192 O   0  0  0  0  0  0  0  0  0  0  0  0
   10.5666   -9.3967  -15.0400 N   0  0  0  0  0  0  0  0  0  0  0  0
   19.1178   -7.1597  -13.3104 C   0  0  2  0  0  0  0  0  0  0  0  0
   20.4682   -6.6287  -13.5739 C   0  0  0  0  0  0  0  0  0  0  0  0
   21.4412   -7.7275  -13.7193 C   0  0  0  0  0  0  0  0  0  0  0  0
   21.5504   -8.4161  -15.0155 C   0  0  0  0  0  0  0  0  0  0  0  0
   22.5160   -9.4718  -15.2339 O   0  0  0  0  0  0  0  0  0  0  0  0
   23.3734   -9.8606  -14.4199 C   0  0  0  0  0  0  0  0  0  0  0  0
   20.4270   -5.6952  -14.6801 O   0  0  0  0  0  0  0  0  0  0  0  0
   21.3928   -4.7387  -14.9882 O   0  0  0  0  0  0  0  0  0  0  0  0
   22.5454  -10.1719  -16.4686 O   0  0  0  0  0  0  0  0  0  0  0  0
  2  1  1  6
  3  2  1  0
  4  5  1  6
  4  2  1  0
  6  4  1  0
  7  6  2  0
  9  8  1  0
  9 10  2  0
 11  9  1  0
 12 11  1  0
 13 12  1  0
 14 13  1  0
 15 14  1  6
 15 16  1  0
 16  6  1  0
 17 15  1  0
 17 18  2  0
 19 17  1  0
 20 19  1  0
 20 21  1  1
 22 21  1  0
 23 22  1  0
 24 23  2  0
 25 20  1  0
 26 25  1  0
 27 23  1  0
 28 25  2  0
M  END
$$$$
