VRE.pdb
     RDKit          3D

 28 27  0  0  1  0  0  0  0  0999 V2000
   24.7367  -13.3343  -17.9949 C   0  0  0  0  0  0  0  0  0  0  0  0
   25.8265  -12.4019  -17.5331 C   0  0  2  0  0  0  0  0  0  0  0  0
   27.0352  -13.2325  -17.1675 C   0  0  0  0  0  0  0  0  0  0  0  0
   25.3998  -11.6372  -16.3064 C   0  0  2  0  0  0  0  0  0  0  0  0
   25.3115  -12.5178  -15.1781 N   0  0  0  0  0  0  0  0  0  0  0  0
   24.1930  -10.8027  -16.5143 C   0  0  0  0  0  0  0  0  0  0  0  0
   24.1902   -9.8985  -17.3589 O   0  0  0  0  0  0  0  0  0  0  0  0
   15.7078  -12.3918  -14.0417 N   0  0  0  0  0  0  0  0  0  0  0  0
   15.7087  -11.2607  -14.9028 C   0  0  0  0  0  0  0  0  0  0  0  0
   14.6139  -10.7732  -15.3665 N   0  0  0  0  0  0  0  0  0  0  0  0
   16.9440  -10.6278  -15.2801 N   0  0  0  0  0  0  0  0  0  0  0  0
   18.1770  -11.3302  -15.0345 C   0  0  0  0  0  0  0  0  0  0  0  0
   19.3186  -10.4742  -15.5643 C   0  0  0  0  0  0  0  0  0  0  0  0
   20.6402  -11.1515  -15.4176 C   0  0  0  0  0  0  0  0  0  0  0  0
   21.7982  -10.3076  -15.8707 C   0  0  2  0  0  0  0  0  0  0  0  0
   23.0268  -11.0171  -15.7567 N   0  0  0  0  0  0  0  0  0  0  0  0
   21.7987   -9.0220  -15.1252 C   0  0  0  0  0  0  0  0  0  0  0  0
   22.2218   -8.9849  -13.9325 O   0  0  0  0  0  0  0  0  0  0  0  0
   14.5964   -9.9843  -16.0367 N   0  0  0  0  0  0  0  0  0  0  0  0
   21.3434   -7.8043  -15.6809 C   0  0  2  0  0  0  0  0  0  0  0  0
   21.4221   -6.5131  -14.9730 C   0  0  0  0  0  0  0  0  0  0  0  0
   22.1316   -5.5121  -15.7914 C   0  0  0  0  0  0  0  0  0  0  0  0
   22.3117   -4.1525  -15.2571 C   0  0  0  0  0  0  0  0  0  0  0  0
   23.0079   -3.1294  -16.0074 O   0  0  0  0  0  0  0  0  0  0  0  0
   22.7640   -1.9092  -15.9835 C   0  0  0  0  0  0  0  0  0  0  0  0
   20.1056   -6.1142  -14.5209 O   0  0  0  0  0  0  0  0  0  0  0  0
   19.8138   -5.3972  -13.3618 O   0  0  0  0  0  0  0  0  0  0  0  0
   24.0791   -3.4782  -16.8713 O   0  0  0  0  0  0  0  0  0  0  0  0
  2  1  1  1
  3  2  1  0
  4  5  1  1
  4  2  1  0
  6  4  1  0
  7  6  2  0
  9  8  1  0
  9 10  2  0
 11  9  1  0
 12 11  1  0
 13 12  1  0
 14 13  1  0
 15 14  1  1
 15 16  1  0
 16  6  1  0
 17 15  1  0
 17 18  2  0
 19 17  1  0
 20 19  1  0
 20 21  1  6
 22 21  1  0
 23 22  1  0
 24 23  2  0
 25 20  1  0
 26 25  1  0
 27 23  1  0
 28 25  2  0
M  END
$$$$
