VRE.pdb
     RDKit          3D

 28 27  0  0  1  0  0  0  0  0999 V2000
   27.4012  -20.2405  -11.2590 C   0  0  0  0  0  0  0  0  0  0  0  0
   26.0960  -20.0988  -10.5194 C   0  0  2  0  0  0  0  0  0  0  0  0
   26.2951  -20.6050   -9.1092 C   0  0  0  0  0  0  0  0  0  0  0  0
   25.0167  -20.9304  -11.1636 C   0  0  2  0  0  0  0  0  0  0  0  0
   25.1993  -22.3160  -10.8427 N   0  0  0  0  0  0  0  0  0  0  0  0
   24.8447  -20.6656  -12.6114 C   0  0  0  0  0  0  0  0  0  0  0  0
   24.5547  -19.5323  -13.0145 O   0  0  0  0  0  0  0  0  0  0  0  0
   30.0431  -22.1103  -18.4421 N   0  0  0  0  0  0  0  0  0  0  0  0
   28.7955  -22.7914  -18.4243 C   0  0  0  0  0  0  0  0  0  0  0  0
   28.3587  -23.4127  -19.4608 N   0  0  0  0  0  0  0  0  0  0  0  0
   27.9837  -22.8031  -17.2369 N   0  0  0  0  0  0  0  0  0  0  0  0
   28.4731  -22.1237  -16.0653 C   0  0  0  0  0  0  0  0  0  0  0  0
   27.2865  -21.4701  -15.3715 C   0  0  0  0  0  0  0  0  0  0  0  0
   25.9991  -22.1434  -15.7120 C   0  0  0  0  0  0  0  0  0  0  0  0
   24.8185  -21.5890  -14.9654 C   0  0  2  0  0  0  0  0  0  0  0  0
   25.0047  -21.6942  -13.5582 N   0  0  0  0  0  0  0  0  0  0  0  0
   23.5751  -22.2518  -15.4378 C   0  0  0  0  0  0  0  0  0  0  0  0
   23.4248  -23.4986  -15.2763 O   0  0  0  0  0  0  0  0  0  0  0  0
   27.4784  -23.9577  -19.4526 N   0  0  0  0  0  0  0  0  0  0  0  0
   22.5208  -21.5572  -16.0739 C   0  0  1  0  0  0  0  0  0  0  0  0
   21.1673  -22.1184  -16.2405 C   0  0  0  0  0  0  0  0  0  0  0  0
   20.2310  -21.5179  -15.2720 C   0  0  0  0  0  0  0  0  0  0  0  0
   18.8198  -21.9355  -15.2917 C   0  0  0  0  0  0  0  0  0  0  0  0
   17.8256  -21.2856  -14.4649 O   0  0  0  0  0  0  0  0  0  0  0  0
   16.5986  -21.4922  -14.4952 C   0  0  0  0  0  0  0  0  0  0  0  0
   20.7591  -22.0261  -17.6267 O   0  0  0  0  0  0  0  0  0  0  0  0
   19.8396  -22.8510  -18.2722 O   0  0  0  0  0  0  0  0  0  0  0  0
   18.2145  -20.3110  -13.5088 O   0  0  0  0  0  0  0  0  0  0  0  0
  2  1  1  6
  3  2  1  0
  4  5  1  6
  4  2  1  0
  6  4  1  0
  7  6  2  0
  9  8  1  0
  9 10  2  0
 11  9  1  0
 12 11  1  0
 13 12  1  0
 14 13  1  0
 15 14  1  6
 15 16  1  0
 16  6  1  0
 17 15  1  0
 17 18  2  0
 19 17  1  0
 20 19  1  0
 20 21  1  6
 22 21  1  0
 23 22  1  0
 24 23  2  0
 25 20  1  0
 26 25  1  0
 27 23  1  0
 28 25  2  0
M  END
$$$$
