VRE.pdb
     RDKit          3D

 28 27  0  0  1  0  0  0  0  0999 V2000
   15.5097  -15.2343  -15.8193 C   0  0  0  0  0  0  0  0  0  0  0  0
   16.8442  -15.1618  -16.5153 C   0  0  2  0  0  0  0  0  0  0  0  0
   17.5812  -16.4564  -16.2594 C   0  0  0  0  0  0  0  0  0  0  0  0
   17.6800  -14.0347  -15.9652 C   0  0  2  0  0  0  0  0  0  0  0  0
   18.1860  -14.3787  -14.6683 N   0  0  0  0  0  0  0  0  0  0  0  0
   17.0093  -12.7144  -16.0186 C   0  0  0  0  0  0  0  0  0  0  0  0
   16.8365  -12.1389  -17.1003 O   0  0  0  0  0  0  0  0  0  0  0  0
    9.9362  -12.1906  -12.0104 N   0  0  0  0  0  0  0  0  0  0  0  0
   10.1643  -12.8608  -13.2432 C   0  0  0  0  0  0  0  0  0  0  0  0
    9.2782  -13.6380  -13.7550 N   0  0  0  0  0  0  0  0  0  0  0  0
   11.4019  -12.6850  -13.9550 N   0  0  0  0  0  0  0  0  0  0  0  0
   12.4128  -11.8401  -13.3737 C   0  0  0  0  0  0  0  0  0  0  0  0
   13.5640  -11.7358  -14.3640 C   0  0  0  0  0  0  0  0  0  0  0  0
   14.6984  -10.9332  -13.8204 C   0  0  0  0  0  0  0  0  0  0  0  0
   15.8697  -10.8421  -14.7576 C   0  0  2  0  0  0  0  0  0  0  0  0
   16.5568  -12.0856  -14.8440 N   0  0  0  0  0  0  0  0  0  0  0  0
   16.7511   -9.7191  -14.3446 C   0  0  0  0  0  0  0  0  0  0  0  0
   17.6617   -9.9148  -13.4870 O   0  0  0  0  0  0  0  0  0  0  0  0
    9.4368  -14.1579  -14.6362 N   0  0  0  0  0  0  0  0  0  0  0  0
   16.6323   -8.4098  -14.8646 C   0  0  1  0  0  0  0  0  0  0  0  0
   17.5841   -7.3270  -14.5539 C   0  0  0  0  0  0  0  0  0  0  0  0
   18.9731   -7.7800  -14.7556 C   0  0  0  0  0  0  0  0  0  0  0  0
   20.0713   -6.8192  -14.5631 C   0  0  0  0  0  0  0  0  0  0  0  0
   21.4332   -7.1408  -14.9324 O   0  0  0  0  0  0  0  0  0  0  0  0
   21.8285   -8.2223  -15.4047 C   0  0  0  0  0  0  0  0  0  0  0  0
   17.2201   -6.1248  -15.2742 O   0  0  0  0  0  0  0  0  0  0  0  0
   17.4560   -4.8140  -14.8633 O   0  0  0  0  0  0  0  0  0  0  0  0
   22.4662   -6.1810  -14.7674 O   0  0  0  0  0  0  0  0  0  0  0  0
  2  1  1  1
  3  2  1  0
  4  5  1  1
  4  2  1  0
  6  4  1  0
  7  6  2  0
  9  8  1  0
  9 10  2  0
 11  9  1  0
 12 11  1  0
 13 12  1  0
 14 13  1  0
 15 14  1  1
 15 16  1  0
 16  6  1  0
 17 15  1  0
 17 18  2  0
 19 17  1  0
 20 19  1  0
 20 21  1  1
 22 21  1  0
 23 22  1  0
 24 23  2  0
 25 20  1  0
 26 25  1  0
 27 23  1  0
 28 25  2  0
M  END
$$$$
