VRE.pdb
     RDKit          3D

 28 27  0  0  1  0  0  0  0  0999 V2000
   28.2213  -18.1141  -15.1990 C   0  0  0  0  0  0  0  0  0  0  0  0
   27.9065  -17.9324  -16.6614 C   0  0  2  0  0  0  0  0  0  0  0  0
   28.4121  -16.5734  -17.0879 C   0  0  0  0  0  0  0  0  0  0  0  0
   26.4194  -17.9718  -16.9030 C   0  0  2  0  0  0  0  0  0  0  0  0
   25.8238  -16.7190  -16.5396 N   0  0  0  0  0  0  0  0  0  0  0  0
   25.7499  -19.1518  -16.3070 C   0  0  0  0  0  0  0  0  0  0  0  0
   26.1109  -20.2975  -16.6034 O   0  0  0  0  0  0  0  0  0  0  0  0
   26.8251  -20.8304   -9.2385 N   0  0  0  0  0  0  0  0  0  0  0  0
   25.4346  -20.7623   -9.5262 C   0  0  0  0  0  0  0  0  0  0  0  0
   24.5732  -20.5146   -8.6054 N   0  0  0  0  0  0  0  0  0  0  0  0
   24.9522  -20.9701  -10.8653 N   0  0  0  0  0  0  0  0  0  0  0  0
   25.9071  -21.2810  -11.8973 C   0  0  0  0  0  0  0  0  0  0  0  0
   25.6484  -20.3493  -13.0727 C   0  0  0  0  0  0  0  0  0  0  0  0
   24.1923  -20.2158  -13.3707 C   0  0  0  0  0  0  0  0  0  0  0  0
   23.8951  -20.0356  -14.8328 C   0  0  2  0  0  0  0  0  0  0  0  0
   24.6899  -18.9970  -15.3946 N   0  0  0  0  0  0  0  0  0  0  0  0
   22.4372  -19.8175  -15.0209 C   0  0  0  0  0  0  0  0  0  0  0  0
   21.8726  -18.8242  -14.4753 O   0  0  0  0  0  0  0  0  0  0  0  0
   23.5537  -20.5054   -8.7857 N   0  0  0  0  0  0  0  0  0  0  0  0
   21.6192  -20.6742  -15.7926 C   0  0  2  0  0  0  0  0  0  0  0  0
   20.1536  -20.7433  -15.6437 C   0  0  0  0  0  0  0  0  0  0  0  0
   19.6645  -22.1057  -15.9261 C   0  0  0  0  0  0  0  0  0  0  0  0
   18.2287  -22.3928  -15.7770 C   0  0  0  0  0  0  0  0  0  0  0  0
   17.5288  -23.2583  -16.7020 O   0  0  0  0  0  0  0  0  0  0  0  0
   18.0404  -23.8908  -17.6439 C   0  0  0  0  0  0  0  0  0  0  0  0
   19.7596  -20.2039  -14.3590 O   0  0  0  0  0  0  0  0  0  0  0  0
   18.7512  -19.2690  -14.1314 O   0  0  0  0  0  0  0  0  0  0  0  0
   16.1272  -23.4500  -16.5834 O   0  0  0  0  0  0  0  0  0  0  0  0
  2  1  1  1
  3  2  1  0
  4  5  1  1
  4  2  1  0
  6  4  1  0
  7  6  2  0
  9  8  1  0
  9 10  2  0
 11  9  1  0
 12 11  1  0
 13 12  1  0
 14 13  1  0
 15 14  1  1
 15 16  1  0
 16  6  1  0
 17 15  1  0
 17 18  2  0
 19 17  1  0
 20 19  1  0
 20 21  1  6
 22 21  1  0
 23 22  1  0
 24 23  2  0
 25 20  1  0
 26 25  1  0
 27 23  1  0
 28 25  2  0
M  END
$$$$
