VRE.pdb
     RDKit          3D

 28 27  0  0  1  0  0  0  0  0999 V2000
   25.0258  -14.3517  -17.7284 C   0  0  0  0  0  0  0  0  0  0  0  0
   26.2370  -13.4748  -17.5417 C   0  0  2  0  0  0  0  0  0  0  0  0
   27.3678  -14.3351  -17.0262 C   0  0  0  0  0  0  0  0  0  0  0  0
   25.9716  -12.3966  -16.5226 C   0  0  2  0  0  0  0  0  0  0  0  0
   25.9329  -12.9583  -15.2039 N   0  0  0  0  0  0  0  0  0  0  0  0
   24.8043  -11.5435  -16.8479 C   0  0  0  0  0  0  0  0  0  0  0  0
   24.7600  -10.9160  -17.9133 O   0  0  0  0  0  0  0  0  0  0  0  0
   16.2869  -12.3975  -14.6243 N   0  0  0  0  0  0  0  0  0  0  0  0
   16.3913  -11.1268  -15.2530 C   0  0  0  0  0  0  0  0  0  0  0  0
   15.3516  -10.4073  -15.4822 N   0  0  0  0  0  0  0  0  0  0  0  0
   17.6730  -10.6095  -15.6517 N   0  0  0  0  0  0  0  0  0  0  0  0
   18.8341  -11.4423  -15.4727 C   0  0  0  0  0  0  0  0  0  0  0  0
   20.0496  -10.6631  -15.9543 C   0  0  0  0  0  0  0  0  0  0  0  0
   21.3210  -11.4074  -15.7173 C   0  0  0  0  0  0  0  0  0  0  0  0
   22.5464  -10.6489  -16.1436 C   0  0  2  0  0  0  0  0  0  0  0  0
   23.7236  -11.4262  -15.9544 N   0  0  0  0  0  0  0  0  0  0  0  0
   22.5935   -9.3423  -15.4372 C   0  0  0  0  0  0  0  0  0  0  0  0
   22.9344   -9.2961  -14.2188 O   0  0  0  0  0  0  0  0  0  0  0  0
   15.4063   -9.4824  -15.9442 N   0  0  0  0  0  0  0  0  0  0  0  0
   22.2723   -8.1138  -16.0588 C   0  0  2  0  0  0  0  0  0  0  0  0
   22.4368   -6.8058  -15.3979 C   0  0  0  0  0  0  0  0  0  0  0  0
   22.2533   -5.7067  -16.3640 C   0  0  0  0  0  0  0  0  0  0  0  0
   22.3081   -4.3172  -15.8818 C   0  0  0  0  0  0  0  0  0  0  0  0
   22.0538   -3.1983  -16.7638 O   0  0  0  0  0  0  0  0  0  0  0  0
   21.8713   -3.2611  -17.9933 C   0  0  0  0  0  0  0  0  0  0  0  0
   21.5958   -6.7353  -14.2213 O   0  0  0  0  0  0  0  0  0  0  0  0
   21.9443   -6.1821  -12.9904 O   0  0  0  0  0  0  0  0  0  0  0  0
   21.9936   -1.8774  -16.2469 O   0  0  0  0  0  0  0  0  0  0  0  0
  2  1  1  1
  3  2  1  0
  4  5  1  1
  4  2  1  0
  6  4  1  0
  7  6  2  0
  9  8  1  0
  9 10  2  0
 11  9  1  0
 12 11  1  0
 13 12  1  0
 14 13  1  0
 15 14  1  1
 15 16  1  0
 16  6  1  0
 17 15  1  0
 17 18  2  0
 19 17  1  0
 20 19  1  0
 20 21  1  6
 22 21  1  0
 23 22  1  0
 24 23  2  0
 25 20  1  0
 26 25  1  0
 27 23  1  0
 28 25  2  0
M  END
$$$$
