VRE.pdb
     RDKit          3D

 28 27  0  0  1  0  0  0  0  0999 V2000
   20.6721  -26.2037  -12.2225 C   0  0  0  0  0  0  0  0  0  0  0  0
   20.9147  -27.6024  -11.7171 C   0  0  2  0  0  0  0  0  0  0  0  0
   21.0609  -28.5172  -12.9113 C   0  0  0  0  0  0  0  0  0  0  0  0
   19.7479  -28.0908  -10.8976 C   0  0  2  0  0  0  0  0  0  0  0  0
   18.6119  -28.3244  -11.7409 N   0  0  0  0  0  0  0  0  0  0  0  0
   19.4559  -27.2474   -9.7147 C   0  0  0  0  0  0  0  0  0  0  0  0
   20.3429  -26.9870   -8.8922 O   0  0  0  0  0  0  0  0  0  0  0  0
   17.5174  -20.6136   -9.9558 N   0  0  0  0  0  0  0  0  0  0  0  0
   16.7618  -21.3413  -10.9153 C   0  0  0  0  0  0  0  0  0  0  0  0
   16.9135  -21.1423  -12.1756 N   0  0  0  0  0  0  0  0  0  0  0  0
   15.8009  -22.3267  -10.4972 N   0  0  0  0  0  0  0  0  0  0  0  0
   15.7423  -22.6780   -9.1018 C   0  0  0  0  0  0  0  0  0  0  0  0
   16.9493  -23.5498   -8.7860 C   0  0  0  0  0  0  0  0  0  0  0  0
   16.6151  -25.0035   -8.8261 C   0  0  0  0  0  0  0  0  0  0  0  0
   17.7581  -25.8913   -8.4213 C   0  0  2  0  0  0  0  0  0  0  0  0
   18.1667  -26.7266   -9.4989 N   0  0  0  0  0  0  0  0  0  0  0  0
   17.3865  -26.6561   -7.2025 C   0  0  0  0  0  0  0  0  0  0  0  0
   16.7795  -27.7618   -7.3124 O   0  0  0  0  0  0  0  0  0  0  0  0
   16.3562  -21.6447  -12.8890 N   0  0  0  0  0  0  0  0  0  0  0  0
   17.6769  -26.2131   -5.8917 C   0  0  2  0  0  0  0  0  0  0  0  0
   17.3504  -26.9932   -4.6836 C   0  0  0  0  0  0  0  0  0  0  0  0
   18.2198  -26.6008   -3.5587 C   0  0  0  0  0  0  0  0  0  0  0  0
   18.0799  -27.3009   -2.2717 C   0  0  0  0  0  0  0  0  0  0  0  0
   18.9282  -26.9868   -1.1420 O   0  0  0  0  0  0  0  0  0  0  0  0
   19.8174  -26.1165   -1.1127 C   0  0  0  0  0  0  0  0  0  0  0  0
   15.9294  -26.9205   -4.4150 O   0  0  0  0  0  0  0  0  0  0  0  0
   15.1407  -27.9311   -3.8682 O   0  0  0  0  0  0  0  0  0  0  0  0
   18.7888  -27.6982    0.0787 O   0  0  0  0  0  0  0  0  0  0  0  0
  2  1  1  6
  3  2  1  0
  4  5  1  6
  4  2  1  0
  6  4  1  0
  7  6  2  0
  9  8  1  0
  9 10  2  0
 11  9  1  0
 12 11  1  0
 13 12  1  0
 14 13  1  0
 15 14  1  6
 15 16  1  0
 16  6  1  0
 17 15  1  0
 17 18  2  0
 19 17  1  0
 20 19  1  0
 20 21  1  6
 22 21  1  0
 23 22  1  0
 24 23  2  0
 25 20  1  0
 26 25  1  0
 27 23  1  0
 28 25  2  0
M  END
$$$$
