VRE.pdb
     RDKit          3D

 28 27  0  0  1  0  0  0  0  0999 V2000
   27.7814  -23.4430  -18.5359 C   0  0  0  0  0  0  0  0  0  0  0  0
   28.3255  -22.9427  -17.2228 C   0  0  2  0  0  0  0  0  0  0  0  0
   28.0609  -23.9947  -16.1704 C   0  0  0  0  0  0  0  0  0  0  0  0
   27.6302  -21.6748  -16.7977 C   0  0  2  0  0  0  0  0  0  0  0  0
   28.5925  -20.6947  -16.3861 N   0  0  0  0  0  0  0  0  0  0  0  0
   26.5379  -21.8932  -15.8203 C   0  0  0  0  0  0  0  0  0  0  0  0
   25.5499  -22.5744  -16.1215 O   0  0  0  0  0  0  0  0  0  0  0  0
   22.9811  -21.2410   -8.4957 N   0  0  0  0  0  0  0  0  0  0  0  0
   22.5829  -20.1228   -9.2781 C   0  0  0  0  0  0  0  0  0  0  0  0
   21.4927  -19.4891   -9.0314 N   0  0  0  0  0  0  0  0  0  0  0  0
   23.3961  -19.6683  -10.3741 N   0  0  0  0  0  0  0  0  0  0  0  0
   23.7431  -20.6101  -11.4068 C   0  0  0  0  0  0  0  0  0  0  0  0
   25.1263  -21.1624  -11.0932 C   0  0  0  0  0  0  0  0  0  0  0  0
   26.0899  -20.9230  -12.2071 C   0  0  0  0  0  0  0  0  0  0  0  0
   25.5660  -21.3426  -13.5517 C   0  0  2  0  0  0  0  0  0  0  0  0
   26.5980  -21.3310  -14.5318 N   0  0  0  0  0  0  0  0  0  0  0  0
   24.4049  -20.4918  -13.9209 C   0  0  0  0  0  0  0  0  0  0  0  0
   24.5522  -19.2397  -14.0367 O   0  0  0  0  0  0  0  0  0  0  0  0
   21.1589  -18.7063   -9.6212 N   0  0  0  0  0  0  0  0  0  0  0  0
   23.1103  -21.0085  -14.1572 C   0  0  1  0  0  0  0  0  0  0  0  0
   21.9686  -20.1713  -14.5701 C   0  0  0  0  0  0  0  0  0  0  0  0
   22.0449  -19.8587  -16.0094 C   0  0  0  0  0  0  0  0  0  0  0  0
   20.9668  -19.0684  -16.6254 C   0  0  0  0  0  0  0  0  0  0  0  0
   20.9212  -18.8312  -18.0523 O   0  0  0  0  0  0  0  0  0  0  0  0
   21.7251  -19.2712  -18.8944 C   0  0  0  0  0  0  0  0  0  0  0  0
   20.7267  -20.7785  -14.1391 O   0  0  0  0  0  0  0  0  0  0  0  0
   19.5295  -20.1132  -13.8811 O   0  0  0  0  0  0  0  0  0  0  0  0
   19.8913  -18.0312  -18.6134 O   0  0  0  0  0  0  0  0  0  0  0  0
  2  1  1  6
  3  2  1  0
  4  5  1  1
  4  2  1  0
  6  4  1  0
  7  6  2  0
  9  8  1  0
  9 10  2  0
 11  9  1  0
 12 11  1  0
 13 12  1  0
 14 13  1  0
 15 14  1  1
 15 16  1  0
 16  6  1  0
 17 15  1  0
 17 18  2  0
 19 17  1  0
 20 19  1  0
 20 21  1  6
 22 21  1  0
 23 22  1  0
 24 23  2  0
 25 20  1  0
 26 25  1  0
 27 23  1  0
 28 25  2  0
M  END
$$$$
