VRE.pdb
     RDKit          3D

 28 27  0  0  1  0  0  0  0  0999 V2000
   28.4233  -22.9519  -16.4535 C   0  0  0  0  0  0  0  0  0  0  0  0
   28.0542  -21.9052  -17.4728 C   0  0  2  0  0  0  0  0  0  0  0  0
   29.3305  -21.3398  -18.0524 C   0  0  0  0  0  0  0  0  0  0  0  0
   27.2927  -20.7727  -16.8331 C   0  0  2  0  0  0  0  0  0  0  0  0
   28.1653  -19.9932  -16.0043 N   0  0  0  0  0  0  0  0  0  0  0  0
   26.0446  -21.2002  -16.1581 C   0  0  0  0  0  0  0  0  0  0  0  0
   25.1662  -21.8070  -16.7835 O   0  0  0  0  0  0  0  0  0  0  0  0
   24.5792  -20.3247   -7.9363 N   0  0  0  0  0  0  0  0  0  0  0  0
   23.8264  -20.9414   -8.9725 C   0  0  0  0  0  0  0  0  0  0  0  0
   22.5766  -21.2017   -8.8261 N   0  0  0  0  0  0  0  0  0  0  0  0
   24.4484  -21.2923  -10.2211 N   0  0  0  0  0  0  0  0  0  0  0  0
   25.6051  -20.5461  -10.6442 C   0  0  0  0  0  0  0  0  0  0  0  0
   26.0469  -21.0905  -11.9951 C   0  0  0  0  0  0  0  0  0  0  0  0
   24.9300  -21.7660  -12.7183 C   0  0  0  0  0  0  0  0  0  0  0  0
   24.6329  -21.1588  -14.0605 C   0  0  2  0  0  0  0  0  0  0  0  0
   25.8294  -20.9250  -14.7951 N   0  0  0  0  0  0  0  0  0  0  0  0
   23.8126  -19.9326  -13.8813 C   0  0  0  0  0  0  0  0  0  0  0  0
   24.3727  -18.7974  -13.8560 O   0  0  0  0  0  0  0  0  0  0  0  0
   22.0198  -21.6830   -9.5543 N   0  0  0  0  0  0  0  0  0  0  0  0
   22.4068  -19.9561  -13.7332 C   0  0  1  0  0  0  0  0  0  0  0  0
   21.5031  -19.0347  -14.4467 C   0  0  0  0  0  0  0  0  0  0  0  0
   21.9002  -18.9061  -15.8612 C   0  0  0  0  0  0  0  0  0  0  0  0
   21.0724  -18.0884  -16.7625 C   0  0  0  0  0  0  0  0  0  0  0  0
   21.6652  -17.1763  -17.7171 O   0  0  0  0  0  0  0  0  0  0  0  0
   22.3707  -17.4927  -18.6923 C   0  0  0  0  0  0  0  0  0  0  0  0
   20.1254  -19.4236  -14.2292 O   0  0  0  0  0  0  0  0  0  0  0  0
   19.0382  -18.5631  -14.0872 O   0  0  0  0  0  0  0  0  0  0  0  0
   21.4652  -15.7766  -17.5904 O   0  0  0  0  0  0  0  0  0  0  0  0
  2  1  1  1
  3  2  1  0
  4  5  1  1
  4  2  1  0
  6  4  1  0
  7  6  2  0
  9  8  1  0
  9 10  2  0
 11  9  1  0
 12 11  1  0
 13 12  1  0
 14 13  1  0
 15 14  1  1
 15 16  1  0
 16  6  1  0
 17 15  1  0
 17 18  2  0
 19 17  1  0
 20 19  1  0
 20 21  1  6
 22 21  1  0
 23 22  1  0
 24 23  2  0
 25 20  1  0
 26 25  1  0
 27 23  1  0
 28 25  2  0
M  END
$$$$
