VRE.pdb
     RDKit          3D

 28 27  0  0  1  0  0  0  0  0999 V2000
   26.1530  -19.2855  -19.1102 C   0  0  0  0  0  0  0  0  0  0  0  0
   25.0566  -18.2832  -19.3628 C   0  0  2  0  0  0  0  0  0  0  0  0
   25.6826  -17.0334  -19.9379 C   0  0  0  0  0  0  0  0  0  0  0  0
   24.3622  -17.9068  -18.0792 C   0  0  2  0  0  0  0  0  0  0  0  0
   25.2014  -17.0499  -17.2934 N   0  0  0  0  0  0  0  0  0  0  0  0
   23.8194  -19.0664  -17.3331 C   0  0  0  0  0  0  0  0  0  0  0  0
   23.0498  -19.8646  -17.8822 O   0  0  0  0  0  0  0  0  0  0  0  0
   27.4214  -21.3237  -10.2709 N   0  0  0  0  0  0  0  0  0  0  0  0
   26.1010  -20.8288  -10.0902 C   0  0  0  0  0  0  0  0  0  0  0  0
   25.7136  -20.3559   -8.9600 N   0  0  0  0  0  0  0  0  0  0  0  0
   25.1575  -20.8444  -11.1759 N   0  0  0  0  0  0  0  0  0  0  0  0
   25.0959  -22.0141  -12.0137 C   0  0  0  0  0  0  0  0  0  0  0  0
   24.1190  -21.7300  -13.1457 C   0  0  0  0  0  0  0  0  0  0  0  0
   24.5519  -20.5715  -13.9806 C   0  0  0  0  0  0  0  0  0  0  0  0
   23.6186  -20.2738  -15.1203 C   0  0  2  0  0  0  0  0  0  0  0  0
   24.1641  -19.2848  -15.9864 N   0  0  0  0  0  0  0  0  0  0  0  0
   22.2823  -19.9039  -14.5855 C   0  0  0  0  0  0  0  0  0  0  0  0
   22.1210  -18.7892  -14.0073 O   0  0  0  0  0  0  0  0  0  0  0  0
   24.7609  -19.9783   -8.8124 N   0  0  0  0  0  0  0  0  0  0  0  0
   21.1489  -20.7432  -14.6850 C   0  0  1  0  0  0  0  0  0  0  0  0
   19.7791  -20.2919  -14.3770 C   0  0  0  0  0  0  0  0  0  0  0  0
   19.1748  -19.6247  -15.5452 C   0  0  0  0  0  0  0  0  0  0  0  0
   17.8003  -19.1092  -15.4398 C   0  0  0  0  0  0  0  0  0  0  0  0
   17.1421  -18.4712  -16.5597 O   0  0  0  0  0  0  0  0  0  0  0  0
   17.6420  -18.2587  -17.6795 C   0  0  0  0  0  0  0  0  0  0  0  0
   19.0073  -21.3877  -13.8290 O   0  0  0  0  0  0  0  0  0  0  0  0
   17.9916  -21.2873  -12.8798 O   0  0  0  0  0  0  0  0  0  0  0  0
   15.8013  -18.0201  -16.4409 O   0  0  0  0  0  0  0  0  0  0  0  0
  2  1  1  1
  3  2  1  0
  4  5  1  1
  4  2  1  0
  6  4  1  0
  7  6  2  0
  9  8  1  0
  9 10  2  0
 11  9  1  0
 12 11  1  0
 13 12  1  0
 14 13  1  0
 15 14  1  1
 15 16  1  0
 16  6  1  0
 17 15  1  0
 17 18  2  0
 19 17  1  0
 20 19  1  0
 20 21  1  1
 22 21  1  0
 23 22  1  0
 24 23  2  0
 25 20  1  0
 26 25  1  0
 27 23  1  0
 28 25  2  0
M  END
$$$$
