VRE.pdb
     RDKit          3D

 28 27  0  0  1  0  0  0  0  0999 V2000
   23.1098  -13.4188  -20.0533 C   0  0  0  0  0  0  0  0  0  0  0  0
   22.8578  -14.9044  -20.0679 C   0  0  2  0  0  0  0  0  0  0  0  0
   21.6982  -15.1775  -20.9981 C   0  0  0  0  0  0  0  0  0  0  0  0
   22.4803  -15.4019  -18.6962 C   0  0  2  0  0  0  0  0  0  0  0  0
   23.1882  -14.6667  -17.6890 N   0  0  0  0  0  0  0  0  0  0  0  0
   22.5786  -16.8731  -18.5481 C   0  0  0  0  0  0  0  0  0  0  0  0
   21.9097  -17.6249  -19.2681 O   0  0  0  0  0  0  0  0  0  0  0  0
   25.5563  -23.4819  -15.1122 N   0  0  0  0  0  0  0  0  0  0  0  0
   26.5050  -23.2939  -16.1542 C   0  0  0  0  0  0  0  0  0  0  0  0
   26.9581  -24.2870  -16.8323 N   0  0  0  0  0  0  0  0  0  0  0  0
   26.9858  -21.9777  -16.4790 N   0  0  0  0  0  0  0  0  0  0  0  0
   26.4542  -20.8548  -15.7508 C   0  0  0  0  0  0  0  0  0  0  0  0
   25.0576  -20.5682  -16.2837 C   0  0  0  0  0  0  0  0  0  0  0  0
   24.8753  -19.1280  -16.6289 C   0  0  0  0  0  0  0  0  0  0  0  0
   23.5538  -18.8318  -17.2804 C   0  0  2  0  0  0  0  0  0  0  0  0
   23.4307  -17.4473  -17.5867 N   0  0  0  0  0  0  0  0  0  0  0  0
   22.4513  -19.3369  -16.4215 C   0  0  0  0  0  0  0  0  0  0  0  0
   22.1787  -18.7481  -15.3342 O   0  0  0  0  0  0  0  0  0  0  0  0
   27.7227  -24.1860  -17.5230 N   0  0  0  0  0  0  0  0  0  0  0  0
   21.6664  -20.4653  -16.7524 C   0  0  1  0  0  0  0  0  0  0  0  0
   20.4984  -20.8975  -15.9627 C   0  0  0  0  0  0  0  0  0  0  0  0
   19.4926  -19.8215  -15.8878 C   0  0  0  0  0  0  0  0  0  0  0  0
   18.1608  -20.1273  -15.3408 C   0  0  0  0  0  0  0  0  0  0  0  0
   17.5356  -19.2786  -14.3492 O   0  0  0  0  0  0  0  0  0  0  0  0
   18.0413  -18.2700  -13.8240 C   0  0  0  0  0  0  0  0  0  0  0  0
   20.0051  -22.1649  -16.4597 O   0  0  0  0  0  0  0  0  0  0  0  0
   19.1633  -23.0451  -15.7821 O   0  0  0  0  0  0  0  0  0  0  0  0
   16.2243  -19.5638  -13.8859 O   0  0  0  0  0  0  0  0  0  0  0  0
  2  1  1  1
  3  2  1  0
  4  5  1  1
  4  2  1  0
  6  4  1  0
  7  6  2  0
  9  8  1  0
  9 10  2  0
 11  9  1  0
 12 11  1  0
 13 12  1  0
 14 13  1  0
 15 14  1  1
 15 16  1  0
 16  6  1  0
 17 15  1  0
 17 18  2  0
 19 17  1  0
 20 19  1  0
 20 21  1  6
 22 21  1  0
 23 22  1  0
 24 23  2  0
 25 20  1  0
 26 25  1  0
 27 23  1  0
 28 25  2  0
M  END
$$$$
