VRE.pdb
     RDKit          3D

 28 27  0  0  1  0  0  0  0  0999 V2000
   29.7573  -23.3202  -17.0068 C   0  0  0  0  0  0  0  0  0  0  0  0
   29.0825  -22.7199  -18.2130 C   0  0  2  0  0  0  0  0  0  0  0  0
   30.1521  -22.1623  -19.1238 C   0  0  0  0  0  0  0  0  0  0  0  0
   28.1735  -21.5855  -17.8150 C   0  0  2  0  0  0  0  0  0  0  0  0
   28.9219  -20.3684  -17.6940 N   0  0  0  0  0  0  0  0  0  0  0  0
   27.3225  -21.8879  -16.6401 C   0  0  0  0  0  0  0  0  0  0  0  0
   26.5166  -22.8263  -16.6708 O   0  0  0  0  0  0  0  0  0  0  0  0
   22.9618  -20.4357  -11.0918 N   0  0  0  0  0  0  0  0  0  0  0  0
   23.7661  -20.6210   -9.9344 C   0  0  0  0  0  0  0  0  0  0  0  0
   23.2422  -20.8963   -8.7938 N   0  0  0  0  0  0  0  0  0  0  0  0
   25.1978  -20.5047  -10.0105 N   0  0  0  0  0  0  0  0  0  0  0  0
   25.7847  -20.0644  -11.2496 C   0  0  0  0  0  0  0  0  0  0  0  0
   26.6039  -21.2153  -11.8162 C   0  0  0  0  0  0  0  0  0  0  0  0
   27.3142  -20.8316  -13.0712 C   0  0  0  0  0  0  0  0  0  0  0  0
   26.5726  -21.2175  -14.3200 C   0  0  2  0  0  0  0  0  0  0  0  0
   27.4096  -21.1161  -15.4668 N   0  0  0  0  0  0  0  0  0  0  0  0
   25.3323  -20.4066  -14.4328 C   0  0  0  0  0  0  0  0  0  0  0  0
   25.4027  -19.1425  -14.4270 O   0  0  0  0  0  0  0  0  0  0  0  0
   23.8100  -21.0257   -7.9377 N   0  0  0  0  0  0  0  0  0  0  0  0
   24.0432  -20.9753  -14.5492 C   0  0  2  0  0  0  0  0  0  0  0  0
   22.8357  -20.1855  -14.8539 C   0  0  0  0  0  0  0  0  0  0  0  0
   21.9771  -20.8972  -15.8191 C   0  0  0  0  0  0  0  0  0  0  0  0
   20.7159  -20.2713  -16.2479 C   0  0  0  0  0  0  0  0  0  0  0  0
   19.8302  -20.9200  -17.1910 O   0  0  0  0  0  0  0  0  0  0  0  0
   18.7425  -20.4748  -17.6003 C   0  0  0  0  0  0  0  0  0  0  0  0
   22.1796  -19.7883  -13.6257 O   0  0  0  0  0  0  0  0  0  0  0  0
   21.4093  -18.6425  -13.4355 O   0  0  0  0  0  0  0  0  0  0  0  0
   20.1702  -22.1839  -17.7407 O   0  0  0  0  0  0  0  0  0  0  0  0
  2  1  1  1
  3  2  1  0
  4  5  1  1
  4  2  1  0
  6  4  1  0
  7  6  2  0
  9  8  1  0
  9 10  2  0
 11  9  1  0
 12 11  1  0
 13 12  1  0
 14 13  1  0
 15 14  1  1
 15 16  1  0
 16  6  1  0
 17 15  1  0
 17 18  2  0
 19 17  1  0
 20 19  1  0
 20 21  1  6
 22 21  1  0
 23 22  1  0
 24 23  2  0
 25 20  1  0
 26 25  1  0
 27 23  1  0
 28 25  2  0
M  END
$$$$
