TLD.pdb
     RDKit          3D

 24 23  0  0  1  0  0  0  0  0999 V2000
    6.7801  -17.7998   22.3688 C   0  0  0  0  0  0  0  0  0  0  0  0
    7.4547  -17.2444   21.1568 C   0  0  1  0  0  0  0  0  0  0  0  0
    7.1843  -17.9031   19.9791 O   0  0  0  0  0  0  0  0  0  0  0  0
    7.2789  -15.7293   21.0324 C   0  0  2  0  0  0  0  0  0  0  0  0
    7.7020  -15.2767   19.7454 N   0  0  0  0  0  0  0  0  0  0  0  0
    7.9432  -14.9958   22.1146 C   0  0  0  0  0  0  0  0  0  0  0  0
    9.1137  -14.5953   21.9358 O   0  0  0  0  0  0  0  0  0  0  0  0
    6.1113  -12.3212   27.4587 C   0  0  0  0  0  0  0  0  0  0  0  0
    7.1847  -12.5874   26.4298 C   0  0  2  0  0  0  0  0  0  0  0  0
    7.6186  -11.2229   25.9010 C   0  0  0  0  0  0  0  0  0  0  0  0
    6.7271  -13.3998   25.2730 C   0  0  0  0  0  0  0  0  0  0  0  0
    7.8395  -13.8533   24.3760 C   0  0  2  0  0  0  0  0  0  0  0  0
    7.3043  -14.7364   23.3315 N   0  0  0  0  0  0  0  0  0  0  0  0
    8.8665  -14.6332   25.1215 C   0  0  0  0  0  0  0  0  0  0  0  0
    9.4747  -14.1093   26.0831 O   0  0  0  0  0  0  0  0  0  0  0  0
    9.1843  -15.9619   24.7792 N   0  0  0  0  0  0  0  0  0  0  0  0
   10.1229  -16.7017   25.6087 C   0  0  1  0  0  0  0  0  0  0  0  0
    9.5539  -18.0398   25.9999 C   0  0  0  0  0  0  0  0  0  0  0  0
    9.8488  -18.3206   27.4167 C   0  0  0  0  0  0  0  0  0  0  0  0
   10.6060  -17.4514   27.9898 O   0  0  0  0  0  0  0  0  0  0  0  0
   11.3346  -16.8603   24.7569 C   0  0  0  0  0  0  0  0  0  0  0  0
   12.6019  -16.6776   25.2560 O   0  0  0  0  0  0  0  0  0  0  0  0
    9.4181  -19.3772   28.1646 O   0  0  0  0  0  0  0  0  0  0  0  0
   11.2648  -17.1705   23.5341 O   0  0  0  0  0  0  0  0  0  0  0  0
  2  4  1  0
  2  1  1  1
  3  2  1  0
  4  5  1  6
  6  4  1  0
  6  7  2  0
  9  8  1  1
  9 11  1  0
  9 10  1  0
 12 11  1  1
 12 13  1  0
 13  6  1  0
 14 12  1  0
 15 14  2  0
 16 14  1  0
 17 16  1  0
 17 21  1  0
 17 18  1  6
 19 20  2  0
 19 18  1  0
 21 22  1  0
 23 19  1  0
 24 21  2  0
M  END
$$$$
