TLD.pdb
     RDKit          3D

 24 23  0  0  1  0  0  0  0  0999 V2000
    6.8212  -17.1733   20.4085 C   0  0  0  0  0  0  0  0  0  0  0  0
    7.4304  -16.7811   21.7153 C   0  0  1  0  0  0  0  0  0  0  0  0
    8.1940  -17.7513   22.3231 O   0  0  0  0  0  0  0  0  0  0  0  0
    8.1487  -15.4317   21.6438 C   0  0  2  0  0  0  0  0  0  0  0  0
    9.1305  -15.4377   20.6064 N   0  0  0  0  0  0  0  0  0  0  0  0
    8.7197  -15.0301   22.9335 C   0  0  0  0  0  0  0  0  0  0  0  0
    9.9604  -14.9124   23.0282 O   0  0  0  0  0  0  0  0  0  0  0  0
    7.8783  -11.3274   25.8023 C   0  0  0  0  0  0  0  0  0  0  0  0
    6.8578  -12.4318   25.6583 C   0  0  2  0  0  0  0  0  0  0  0  0
    5.6479  -12.0073   26.4864 C   0  0  0  0  0  0  0  0  0  0  0  0
    7.3168  -13.7507   26.1655 C   0  0  0  0  0  0  0  0  0  0  0  0
    8.4281  -14.3540   25.3599 C   0  0  2  0  0  0  0  0  0  0  0  0
    7.9161  -14.7784   24.0504 N   0  0  0  0  0  0  0  0  0  0  0  0
    8.9938  -15.5640   26.0194 C   0  0  0  0  0  0  0  0  0  0  0  0
    9.4777  -15.4807   27.1718 O   0  0  0  0  0  0  0  0  0  0  0  0
    9.0044  -16.8206   25.3837 N   0  0  0  0  0  0  0  0  0  0  0  0
    9.6579  -17.9415   26.0417 C   0  0  1  0  0  0  0  0  0  0  0  0
    8.8344  -19.1953   25.9098 C   0  0  0  0  0  0  0  0  0  0  0  0
    8.3670  -19.6357   27.2367 C   0  0  0  0  0  0  0  0  0  0  0  0
    8.9108  -19.0211   28.2286 O   0  0  0  0  0  0  0  0  0  0  0  0
   10.9650  -18.0799   25.3407 C   0  0  0  0  0  0  0  0  0  0  0  0
   11.3087  -17.2764   24.2802 O   0  0  0  0  0  0  0  0  0  0  0  0
    7.4457  -20.6018   27.5179 O   0  0  0  0  0  0  0  0  0  0  0  0
   11.8262  -18.9395   25.6809 O   0  0  0  0  0  0  0  0  0  0  0  0
  2  4  1  0
  2  1  1  6
  3  2  1  0
  4  5  1  6
  6  4  1  0
  6  7  2  0
  9  8  1  1
  9 11  1  0
  9 10  1  0
 12 11  1  1
 12 13  1  0
 13  6  1  0
 14 12  1  0
 15 14  2  0
 16 14  1  0
 17 16  1  0
 17 21  1  0
 17 18  1  6
 19 20  2  0
 19 18  1  0
 21 22  1  0
 23 19  1  0
 24 21  2  0
M  END
$$$$
