TLD.pdb
     RDKit          3D

 24 23  0  0  1  0  0  0  0  0999 V2000
    6.2172  -16.6923   20.2516 C   0  0  0  0  0  0  0  0  0  0  0  0
    6.9471  -16.3683   21.5144 C   0  0  1  0  0  0  0  0  0  0  0  0
    7.7686  -17.3642   21.9911 O   0  0  0  0  0  0  0  0  0  0  0  0
    7.6508  -15.0108   21.4512 C   0  0  2  0  0  0  0  0  0  0  0  0
    8.5314  -14.9514   20.3281 N   0  0  0  0  0  0  0  0  0  0  0  0
    8.3382  -14.6754   22.7023 C   0  0  0  0  0  0  0  0  0  0  0  0
    9.5848  -14.5851   22.6948 O   0  0  0  0  0  0  0  0  0  0  0  0
    7.6232  -11.0621   25.6163 C   0  0  0  0  0  0  0  0  0  0  0  0
    6.6305  -12.2001   25.6492 C   0  0  2  0  0  0  0  0  0  0  0  0
    5.5600  -11.8051   26.6631 C   0  0  0  0  0  0  0  0  0  0  0  0
    7.2105  -13.4979   26.0814 C   0  0  0  0  0  0  0  0  0  0  0  0
    8.2612  -14.0287   25.1530 C   0  0  2  0  0  0  0  0  0  0  0  0
    7.6385  -14.4566   23.8936 N   0  0  0  0  0  0  0  0  0  0  0  0
    8.9518  -15.2188   25.7238 C   0  0  0  0  0  0  0  0  0  0  0  0
    9.5009  -15.1452   26.8472 O   0  0  0  0  0  0  0  0  0  0  0  0
    9.0106  -16.4456   25.0347 N   0  0  0  0  0  0  0  0  0  0  0  0
    9.7254  -17.5614   25.6351 C   0  0  1  0  0  0  0  0  0  0  0  0
    9.3617  -18.8572   24.9599 C   0  0  0  0  0  0  0  0  0  0  0  0
   10.1781  -19.9578   25.5035 C   0  0  0  0  0  0  0  0  0  0  0  0
   11.3047  -20.1357   24.9067 O   0  0  0  0  0  0  0  0  0  0  0  0
   11.1657  -17.2368   25.4365 C   0  0  0  0  0  0  0  0  0  0  0  0
   12.1412  -17.7208   26.2746 O   0  0  0  0  0  0  0  0  0  0  0  0
    9.8734  -20.7875   26.5428 O   0  0  0  0  0  0  0  0  0  0  0  0
   11.5683  -16.5020   24.4907 O   0  0  0  0  0  0  0  0  0  0  0  0
  2  4  1  0
  2  1  1  6
  3  2  1  0
  4  5  1  6
  6  4  1  0
  6  7  2  0
  9  8  1  1
  9 11  1  0
  9 10  1  0
 12 11  1  1
 12 13  1  0
 13  6  1  0
 14 12  1  0
 15 14  2  0
 16 14  1  0
 17 16  1  0
 17 21  1  0
 17 18  1  6
 19 20  2  0
 19 18  1  0
 21 22  1  0
 23 19  1  0
 24 21  2  0
M  END
$$$$
