TLD.pdb
     RDKit          3D

 24 23  0  0  1  0  0  0  0  0999 V2000
    7.8380  -20.4104   17.4800 C   0  0  0  0  0  0  0  0  0  0  0  0
    8.5519  -19.4275   18.3500 C   0  0  1  0  0  0  0  0  0  0  0  0
    9.6747  -19.9093   18.9833 O   0  0  0  0  0  0  0  0  0  0  0  0
    8.8076  -18.0961   17.6401 C   0  0  2  0  0  0  0  0  0  0  0  0
    9.5892  -18.2955   16.4612 N   0  0  0  0  0  0  0  0  0  0  0  0
    9.4037  -17.0919   18.5269 C   0  0  0  0  0  0  0  0  0  0  0  0
   10.6150  -16.8158   18.3901 O   0  0  0  0  0  0  0  0  0  0  0  0
    8.6019  -12.6109   19.7072 C   0  0  0  0  0  0  0  0  0  0  0  0
    7.6144  -13.6815   20.1077 C   0  0  2  0  0  0  0  0  0  0  0  0
    6.4416  -12.9581   20.7642 C   0  0  0  0  0  0  0  0  0  0  0  0
    8.1490  -14.6636   21.0860 C   0  0  0  0  0  0  0  0  0  0  0  0
    9.2256  -15.5459   20.5290 C   0  0  2  0  0  0  0  0  0  0  0  0
    8.6558  -16.4416   19.5140 N   0  0  0  0  0  0  0  0  0  0  0  0
    9.8310  -16.4092   21.5812 C   0  0  0  0  0  0  0  0  0  0  0  0
    9.3190  -17.5201   21.8509 O   0  0  0  0  0  0  0  0  0  0  0  0
   10.9787  -16.0155   22.2963 N   0  0  0  0  0  0  0  0  0  0  0  0
   11.6826  -17.0003   23.1032 C   0  0  1  0  0  0  0  0  0  0  0  0
   13.1346  -17.0759   22.7114 C   0  0  0  0  0  0  0  0  0  0  0  0
   13.8702  -17.9338   23.6579 C   0  0  0  0  0  0  0  0  0  0  0  0
   13.2570  -19.0161   23.9894 O   0  0  0  0  0  0  0  0  0  0  0  0
   11.5276  -16.5195   24.5046 C   0  0  0  0  0  0  0  0  0  0  0  0
   10.6614  -15.5041   24.8321 O   0  0  0  0  0  0  0  0  0  0  0  0
   15.0982  -17.7074   24.2075 O   0  0  0  0  0  0  0  0  0  0  0  0
   12.1807  -17.0163   25.4653 O   0  0  0  0  0  0  0  0  0  0  0  0
  2  4  1  0
  2  1  1  6
  3  2  1  0
  4  5  1  6
  6  4  1  0
  6  7  2  0
  9  8  1  1
  9 11  1  0
  9 10  1  0
 12 11  1  1
 12 13  1  0
 13  6  1  0
 14 12  1  0
 15 14  2  0
 16 14  1  0
 17 16  1  0
 17 21  1  0
 17 18  1  6
 19 20  2  0
 19 18  1  0
 21 22  1  0
 23 19  1  0
 24 21  2  0
M  END
$$$$
