TLD.pdb
     RDKit          3D

 24 23  0  0  1  0  0  0  0  0999 V2000
    6.9162  -16.5921   21.4863 C   0  0  0  0  0  0  0  0  0  0  0  0
    7.6665  -15.6195   20.6356 C   0  0  1  0  0  0  0  0  0  0  0  0
    7.4777  -15.7565   19.2793 O   0  0  0  0  0  0  0  0  0  0  0  0
    7.4914  -14.1741   21.1068 C   0  0  2  0  0  0  0  0  0  0  0  0
    7.8712  -13.2590   20.0778 N   0  0  0  0  0  0  0  0  0  0  0  0
    8.1952  -13.9040   22.3646 C   0  0  0  0  0  0  0  0  0  0  0  0
    9.3597  -13.4526   22.3140 O   0  0  0  0  0  0  0  0  0  0  0  0
    7.4061  -11.0128   25.7187 C   0  0  0  0  0  0  0  0  0  0  0  0
    6.4965  -12.2174   25.6625 C   0  0  2  0  0  0  0  0  0  0  0  0
    5.4553  -12.0192   26.7609 C   0  0  0  0  0  0  0  0  0  0  0  0
    7.1854  -13.5092   25.9156 C   0  0  0  0  0  0  0  0  0  0  0  0
    8.2359  -13.8426   24.8992 C   0  0  2  0  0  0  0  0  0  0  0  0
    7.6000  -14.1377   23.6086 N   0  0  0  0  0  0  0  0  0  0  0  0
    9.0152  -15.0513   25.2872 C   0  0  0  0  0  0  0  0  0  0  0  0
    9.4744  -15.1544   26.4481 O   0  0  0  0  0  0  0  0  0  0  0  0
    9.2587  -16.1014   24.3808 N   0  0  0  0  0  0  0  0  0  0  0  0
   10.0603  -17.2366   24.8111 C   0  0  1  0  0  0  0  0  0  0  0  0
    9.5010  -18.5249   24.2681 C   0  0  0  0  0  0  0  0  0  0  0  0
   10.0356  -19.6690   25.0285 C   0  0  0  0  0  0  0  0  0  0  0  0
   11.3053  -19.6287   25.2371 O   0  0  0  0  0  0  0  0  0  0  0  0
   11.4194  -16.9670   24.2639 C   0  0  0  0  0  0  0  0  0  0  0  0
   12.5482  -17.5210   24.8184 O   0  0  0  0  0  0  0  0  0  0  0  0
    9.3463  -20.7392   25.5195 O   0  0  0  0  0  0  0  0  0  0  0  0
   11.6088  -16.2179   23.2643 O   0  0  0  0  0  0  0  0  0  0  0  0
  2  4  1  0
  2  1  1  1
  3  2  1  0
  4  5  1  6
  6  4  1  0
  6  7  2  0
  9  8  1  1
  9 11  1  0
  9 10  1  0
 12 11  1  1
 12 13  1  0
 13  6  1  0
 14 12  1  0
 15 14  2  0
 16 14  1  0
 17 16  1  0
 17 21  1  0
 17 18  1  6
 19 20  2  0
 19 18  1  0
 21 22  1  0
 23 19  1  0
 24 21  2  0
M  END
$$$$
