TLD.pdb
     RDKit          3D

 24 23  0  0  1  0  0  0  0  0999 V2000
    6.6706  -17.2061   19.2862 C   0  0  0  0  0  0  0  0  0  0  0  0
    7.3433  -16.8405   20.5693 C   0  0  1  0  0  0  0  0  0  0  0  0
    8.2286  -17.7747   21.0565 O   0  0  0  0  0  0  0  0  0  0  0  0
    7.9403  -15.4317   20.5356 C   0  0  2  0  0  0  0  0  0  0  0  0
    8.9363  -15.3307   19.5168 N   0  0  0  0  0  0  0  0  0  0  0  0
    8.4513  -15.0067   21.8427 C   0  0  0  0  0  0  0  0  0  0  0  0
    9.6822  -15.0647   22.0520 O   0  0  0  0  0  0  0  0  0  0  0  0
    6.0779  -12.4402   27.0462 C   0  0  0  0  0  0  0  0  0  0  0  0
    7.2369  -13.0537   26.2964 C   0  0  2  0  0  0  0  0  0  0  0  0
    8.3478  -12.0069   26.2945 C   0  0  0  0  0  0  0  0  0  0  0  0
    6.9312  -13.3959   24.8833 C   0  0  0  0  0  0  0  0  0  0  0  0
    8.0562  -14.0862   24.1722 C   0  0  2  0  0  0  0  0  0  0  0  0
    7.6017  -14.5423   22.8522 N   0  0  0  0  0  0  0  0  0  0  0  0
    8.5204  -15.2919   24.9135 C   0  0  0  0  0  0  0  0  0  0  0  0
    7.7503  -16.2679   25.0668 O   0  0  0  0  0  0  0  0  0  0  0  0
    9.8166  -15.3767   25.4578 N   0  0  0  0  0  0  0  0  0  0  0  0
   10.2646  -16.6385   26.0265 C   0  0  1  0  0  0  0  0  0  0  0  0
   11.7072  -16.8997   25.6828 C   0  0  0  0  0  0  0  0  0  0  0  0
   11.8356  -18.1927   24.9866 C   0  0  0  0  0  0  0  0  0  0  0  0
   11.0545  -18.3367   23.9735 O   0  0  0  0  0  0  0  0  0  0  0  0
   10.0825  -16.4752   27.4960 C   0  0  0  0  0  0  0  0  0  0  0  0
    9.9179  -17.5538   28.3314 O   0  0  0  0  0  0  0  0  0  0  0  0
   12.6702  -19.2268   25.2954 O   0  0  0  0  0  0  0  0  0  0  0  0
   10.0698  -15.3413   28.0531 O   0  0  0  0  0  0  0  0  0  0  0  0
  2  4  1  0
  2  1  1  6
  3  2  1  0
  4  5  1  6
  6  4  1  0
  6  7  2  0
  9  8  1  6
  9 11  1  0
  9 10  1  0
 12 11  1  1
 12 13  1  0
 13  6  1  0
 14 12  1  0
 15 14  2  0
 16 14  1  0
 17 16  1  0
 17 21  1  0
 17 18  1  1
 19 20  2  0
 19 18  1  0
 21 22  1  0
 23 19  1  0
 24 21  2  0
M  END
$$$$
