TLD.pdb
     RDKit          3D

 24 23  0  0  1  0  0  0  0  0999 V2000
    7.1926  -17.8081   19.7046 C   0  0  0  0  0  0  0  0  0  0  0  0
    7.7819  -17.2768   20.9706 C   0  0  1  0  0  0  0  0  0  0  0  0
    8.7145  -18.0906   21.5723 O   0  0  0  0  0  0  0  0  0  0  0  0
    8.2713  -15.8339   20.8273 C   0  0  2  0  0  0  0  0  0  0  0  0
    9.3026  -15.7469   19.8428 N   0  0  0  0  0  0  0  0  0  0  0  0
    8.6880  -15.2522   22.1073 C   0  0  0  0  0  0  0  0  0  0  0  0
    9.9049  -15.2425   22.3926 O   0  0  0  0  0  0  0  0  0  0  0  0
    5.9137  -12.4869   26.9915 C   0  0  0  0  0  0  0  0  0  0  0  0
    7.1467  -13.0803   26.3517 C   0  0  2  0  0  0  0  0  0  0  0  0
    8.2260  -12.0033   26.4220 C   0  0  0  0  0  0  0  0  0  0  0  0
    6.9686  -13.4543   24.9249 C   0  0  0  0  0  0  0  0  0  0  0  0
    8.0966  -14.2707   24.3693 C   0  0  2  0  0  0  0  0  0  0  0  0
    7.7644  -14.7130   23.0088 N   0  0  0  0  0  0  0  0  0  0  0  0
    8.3408  -15.4974   25.1785 C   0  0  0  0  0  0  0  0  0  0  0  0
    7.4850  -16.4117   25.2036 O   0  0  0  0  0  0  0  0  0  0  0  0
    9.5197  -15.6701   25.9294 N   0  0  0  0  0  0  0  0  0  0  0  0
   10.0032  -17.0175   26.1883 C   0  0  1  0  0  0  0  0  0  0  0  0
   11.2466  -17.3042   25.3887 C   0  0  0  0  0  0  0  0  0  0  0  0
   11.8421  -18.5820   25.8197 C   0  0  0  0  0  0  0  0  0  0  0  0
   12.4164  -18.5451   26.9713 O   0  0  0  0  0  0  0  0  0  0  0  0
   10.2863  -17.0418   27.6506 C   0  0  0  0  0  0  0  0  0  0  0  0
   10.1828  -18.1948   28.3911 O   0  0  0  0  0  0  0  0  0  0  0  0
   11.8514  -19.7675   25.1445 O   0  0  0  0  0  0  0  0  0  0  0  0
   10.6358  -16.0084   28.2882 O   0  0  0  0  0  0  0  0  0  0  0  0
  2  4  1  0
  2  1  1  6
  3  2  1  0
  4  5  1  6
  6  4  1  0
  6  7  2  0
  9  8  1  6
  9 11  1  0
  9 10  1  0
 12 11  1  1
 12 13  1  0
 13  6  1  0
 14 12  1  0
 15 14  2  0
 16 14  1  0
 17 16  1  0
 17 21  1  0
 17 18  1  6
 19 20  2  0
 19 18  1  0
 21 22  1  0
 23 19  1  0
 24 21  2  0
M  END
$$$$
