TLD.pdb
     RDKit          3D

 24 23  0  0  1  0  0  0  0  0999 V2000
    6.4088  -16.1330   19.6526 C   0  0  0  0  0  0  0  0  0  0  0  0
    7.0169  -16.1016   21.0171 C   0  0  1  0  0  0  0  0  0  0  0  0
    7.6427  -17.2629   21.4091 O   0  0  0  0  0  0  0  0  0  0  0  0
    7.8891  -14.8640   21.2400 C   0  0  2  0  0  0  0  0  0  0  0  0
    8.9216  -14.7911   20.2556 N   0  0  0  0  0  0  0  0  0  0  0  0
    8.4276  -14.7940   22.6022 C   0  0  0  0  0  0  0  0  0  0  0  0
    9.6504  -14.9879   22.7732 O   0  0  0  0  0  0  0  0  0  0  0  0
    7.8416  -11.4741   25.9729 C   0  0  0  0  0  0  0  0  0  0  0  0
    6.7035  -12.4235   25.6811 C   0  0  2  0  0  0  0  0  0  0  0  0
    5.5547  -12.0089   26.5966 C   0  0  0  0  0  0  0  0  0  0  0  0
    7.0167  -13.8488   25.9602 C   0  0  0  0  0  0  0  0  0  0  0  0
    8.0978  -14.4116   25.0871 C   0  0  2  0  0  0  0  0  0  0  0  0
    7.6126  -14.5184   23.7050 N   0  0  0  0  0  0  0  0  0  0  0  0
    8.4962  -15.7814   25.5158 C   0  0  0  0  0  0  0  0  0  0  0  0
    7.6411  -16.5610   25.9956 O   0  0  0  0  0  0  0  0  0  0  0  0
    9.8225  -16.2407   25.3990 N   0  0  0  0  0  0  0  0  0  0  0  0
   10.1378  -17.6033   25.7994 C   0  0  1  0  0  0  0  0  0  0  0  0
   10.0153  -18.5472   24.6326 C   0  0  0  0  0  0  0  0  0  0  0  0
   10.4453  -19.9004   25.0290 C   0  0  0  0  0  0  0  0  0  0  0  0
    9.8965  -20.3440   26.1057 O   0  0  0  0  0  0  0  0  0  0  0  0
   11.5422  -17.5358   26.2918 C   0  0  0  0  0  0  0  0  0  0  0  0
   12.1461  -18.6031   26.9120 O   0  0  0  0  0  0  0  0  0  0  0  0
   11.3413  -20.7101   24.3942 O   0  0  0  0  0  0  0  0  0  0  0  0
   12.2526  -16.4985   26.1670 O   0  0  0  0  0  0  0  0  0  0  0  0
  2  4  1  0
  2  1  1  6
  3  2  1  0
  4  5  1  6
  6  4  1  0
  6  7  2  0
  9  8  1  1
  9 11  1  0
  9 10  1  0
 12 11  1  1
 12 13  1  0
 13  6  1  0
 14 12  1  0
 15 14  2  0
 16 14  1  0
 17 16  1  0
 17 21  1  0
 17 18  1  6
 19 20  2  0
 19 18  1  0
 21 22  1  0
 23 19  1  0
 24 21  2  0
M  END
$$$$
