TLD.pdb
     RDKit          3D

 24 23  0  0  1  0  0  0  0  0999 V2000
    7.0923  -17.7254   19.9682 C   0  0  0  0  0  0  0  0  0  0  0  0
    7.6026  -17.2502   21.2897 C   0  0  1  0  0  0  0  0  0  0  0  0
    8.3502  -18.1651   21.9952 O   0  0  0  0  0  0  0  0  0  0  0  0
    8.2872  -15.8848   21.1953 C   0  0  2  0  0  0  0  0  0  0  0  0
    9.3978  -15.9387   20.2987 N   0  0  0  0  0  0  0  0  0  0  0  0
    8.6708  -15.3566   22.5084 C   0  0  0  0  0  0  0  0  0  0  0  0
    9.8810  -15.3501   22.8208 O   0  0  0  0  0  0  0  0  0  0  0  0
    5.7698  -12.4479   27.2440 C   0  0  0  0  0  0  0  0  0  0  0  0
    7.0355  -12.9462   26.5871 C   0  0  2  0  0  0  0  0  0  0  0  0
    7.9289  -11.7234   26.3965 C   0  0  0  0  0  0  0  0  0  0  0  0
    6.8224  -13.5669   25.2541 C   0  0  0  0  0  0  0  0  0  0  0  0
    8.0542  -14.1984   24.6782 C   0  0  2  0  0  0  0  0  0  0  0  0
    7.7231  -14.8646   23.4119 N   0  0  0  0  0  0  0  0  0  0  0  0
    8.6159  -15.2391   25.5840 C   0  0  0  0  0  0  0  0  0  0  0  0
    9.1158  -14.9084   26.6840 O   0  0  0  0  0  0  0  0  0  0  0  0
    8.6050  -16.6055   25.2433 N   0  0  0  0  0  0  0  0  0  0  0  0
    9.1006  -17.5789   26.2042 C   0  0  1  0  0  0  0  0  0  0  0  0
    8.6232  -18.9646   25.8590 C   0  0  0  0  0  0  0  0  0  0  0  0
    8.0834  -19.6278   27.0599 C   0  0  0  0  0  0  0  0  0  0  0  0
    7.5625  -18.8297   27.9253 O   0  0  0  0  0  0  0  0  0  0  0  0
   10.5840  -17.4812   26.1084 C   0  0  0  0  0  0  0  0  0  0  0  0
   11.3694  -17.2546   27.2130 O   0  0  0  0  0  0  0  0  0  0  0  0
    8.0798  -20.9619   27.3452 O   0  0  0  0  0  0  0  0  0  0  0  0
   11.1993  -17.6011   25.0115 O   0  0  0  0  0  0  0  0  0  0  0  0
  2  4  1  0
  2  1  1  6
  3  2  1  0
  4  5  1  6
  6  4  1  0
  6  7  2  0
  9  8  1  6
  9 11  1  0
  9 10  1  0
 12 11  1  1
 12 13  1  0
 13  6  1  0
 14 12  1  0
 15 14  2  0
 16 14  1  0
 17 16  1  0
 17 21  1  0
 17 18  1  6
 19 20  2  0
 19 18  1  0
 21 22  1  0
 23 19  1  0
 24 21  2  0
M  END
$$$$
