TLD.pdb
     RDKit          3D

 24 23  0  0  1  0  0  0  0  0999 V2000
    8.3693  -13.8101   20.2642 C   0  0  0  0  0  0  0  0  0  0  0  0
    7.3980  -14.7912   20.8354 C   0  0  1  0  0  0  0  0  0  0  0  0
    6.5758  -15.4065   19.9192 O   0  0  0  0  0  0  0  0  0  0  0  0
    8.0650  -15.7893   21.7846 C   0  0  2  0  0  0  0  0  0  0  0  0
    7.1379  -16.7986   22.1874 N   0  0  0  0  0  0  0  0  0  0  0  0
    8.6941  -15.1350   22.9363 C   0  0  0  0  0  0  0  0  0  0  0  0
    9.8020  -14.5786   22.7773 O   0  0  0  0  0  0  0  0  0  0  0  0
    7.7178  -11.6184   25.8675 C   0  0  0  0  0  0  0  0  0  0  0  0
    6.8543  -12.8567   25.9211 C   0  0  2  0  0  0  0  0  0  0  0  0
    5.7739  -12.5804   26.9633 C   0  0  0  0  0  0  0  0  0  0  0  0
    7.5814  -14.0850   26.3334 C   0  0  0  0  0  0  0  0  0  0  0  0
    8.6733  -14.4865   25.3877 C   0  0  2  0  0  0  0  0  0  0  0  0
    8.0896  -15.1191   24.1976 N   0  0  0  0  0  0  0  0  0  0  0  0
    9.5965  -15.4816   26.0012 C   0  0  0  0  0  0  0  0  0  0  0  0
   10.0564  -15.2844   27.1496 O   0  0  0  0  0  0  0  0  0  0  0  0
    9.9779  -16.6570   25.3257 N   0  0  0  0  0  0  0  0  0  0  0  0
   10.7668  -17.6550   26.0315 C   0  0  1  0  0  0  0  0  0  0  0  0
    9.8772  -18.6876   26.6715 C   0  0  0  0  0  0  0  0  0  0  0  0
   10.6113  -19.4003   27.7328 C   0  0  0  0  0  0  0  0  0  0  0  0
   11.8307  -19.0190   27.8908 O   0  0  0  0  0  0  0  0  0  0  0  0
   11.6298  -18.2646   24.9813 C   0  0  0  0  0  0  0  0  0  0  0  0
   12.8115  -18.8951   25.2886 O   0  0  0  0  0  0  0  0  0  0  0  0
   10.1488  -20.3964   28.5422 O   0  0  0  0  0  0  0  0  0  0  0  0
   11.3244  -18.2362   23.7556 O   0  0  0  0  0  0  0  0  0  0  0  0
  2  4  1  0
  2  1  1  6
  3  2  1  0
  4  5  1  1
  6  4  1  0
  6  7  2  0
  9  8  1  1
  9 11  1  0
  9 10  1  0
 12 11  1  1
 12 13  1  0
 13  6  1  0
 14 12  1  0
 15 14  2  0
 16 14  1  0
 17 16  1  0
 17 21  1  0
 17 18  1  6
 19 20  2  0
 19 18  1  0
 21 22  1  0
 23 19  1  0
 24 21  2  0
M  END
$$$$
