TLD.pdb
     RDKit          3D

 24 23  0  0  1  0  0  0  0  0999 V2000
    9.4470  -19.0095   18.0048 C   0  0  0  0  0  0  0  0  0  0  0  0
   10.5252  -18.5694   17.0686 C   0  0  1  0  0  0  0  0  0  0  0  0
   10.6236  -19.2937   15.9026 O   0  0  0  0  0  0  0  0  0  0  0  0
   10.5020  -17.0598   16.8185 C   0  0  2  0  0  0  0  0  0  0  0  0
   11.5052  -16.6905   15.8711 N   0  0  0  0  0  0  0  0  0  0  0  0
   10.6092  -16.2832   18.0578 C   0  0  0  0  0  0  0  0  0  0  0  0
   11.7418  -16.1010   18.5540 O   0  0  0  0  0  0  0  0  0  0  0  0
    9.3141  -12.0481   19.8055 C   0  0  0  0  0  0  0  0  0  0  0  0
    8.2769  -13.0661   19.3936 C   0  0  2  0  0  0  0  0  0  0  0  0
    6.9201  -12.3879   19.5640 C   0  0  0  0  0  0  0  0  0  0  0  0
    8.2766  -14.2999   20.2214 C   0  0  0  0  0  0  0  0  0  0  0  0
    9.4959  -15.1521   20.0354 C   0  0  2  0  0  0  0  0  0  0  0  0
    9.4842  -15.7466   18.6925 N   0  0  0  0  0  0  0  0  0  0  0  0
    9.5361  -16.2781   21.0098 C   0  0  0  0  0  0  0  0  0  0  0  0
    9.0615  -17.3943   20.6969 O   0  0  0  0  0  0  0  0  0  0  0  0
   10.0984  -16.1314   22.2927 N   0  0  0  0  0  0  0  0  0  0  0  0
   11.0903  -17.0944   22.7454 C   0  0  1  0  0  0  0  0  0  0  0  0
   12.2808  -17.1121   21.8236 C   0  0  0  0  0  0  0  0  0  0  0  0
   13.3338  -17.9850   22.3734 C   0  0  0  0  0  0  0  0  0  0  0  0
   12.8989  -19.0332   22.9811 O   0  0  0  0  0  0  0  0  0  0  0  0
   11.4719  -16.6298   24.1084 C   0  0  0  0  0  0  0  0  0  0  0  0
   11.5125  -15.2957   24.4357 O   0  0  0  0  0  0  0  0  0  0  0  0
   14.6845  -17.8034   22.3107 O   0  0  0  0  0  0  0  0  0  0  0  0
   11.7776  -17.4327   25.0348 O   0  0  0  0  0  0  0  0  0  0  0  0
  2  4  1  0
  2  1  1  6
  3  2  1  0
  4  5  1  6
  6  4  1  0
  6  7  2  0
  9  8  1  1
  9 11  1  0
  9 10  1  0
 12 11  1  1
 12 13  1  0
 13  6  1  0
 14 12  1  0
 15 14  2  0
 16 14  1  0
 17 16  1  0
 17 21  1  0
 17 18  1  6
 19 20  2  0
 19 18  1  0
 21 22  1  0
 23 19  1  0
 24 21  2  0
M  END
$$$$
