TLD.pdb
     RDKit          3D

 24 23  0  0  1  0  0  0  0  0999 V2000
    7.3674  -18.0790   22.4508 C   0  0  0  0  0  0  0  0  0  0  0  0
    8.1588  -17.5571   21.2959 C   0  0  1  0  0  0  0  0  0  0  0  0
    7.9316  -18.1878   20.0941 O   0  0  0  0  0  0  0  0  0  0  0  0
    8.0864  -16.0329   21.1787 C   0  0  2  0  0  0  0  0  0  0  0  0
    8.7741  -15.5841   20.0099 N   0  0  0  0  0  0  0  0  0  0  0  0
    8.5632  -15.3532   22.3874 C   0  0  0  0  0  0  0  0  0  0  0  0
    9.7912  -15.1631   22.5224 O   0  0  0  0  0  0  0  0  0  0  0  0
    5.9919  -12.4640   27.3037 C   0  0  0  0  0  0  0  0  0  0  0  0
    7.2174  -12.9642   26.5761 C   0  0  2  0  0  0  0  0  0  0  0  0
    8.1250  -11.7522   26.3828 C   0  0  0  0  0  0  0  0  0  0  0  0
    6.9338  -13.5392   25.2358 C   0  0  0  0  0  0  0  0  0  0  0  0
    8.1039  -14.2487   24.6233 C   0  0  2  0  0  0  0  0  0  0  0  0
    7.6845  -14.9166   23.3843 N   0  0  0  0  0  0  0  0  0  0  0  0
    8.6435  -15.3039   25.5257 C   0  0  0  0  0  0  0  0  0  0  0  0
    7.9243  -16.2758   25.8531 O   0  0  0  0  0  0  0  0  0  0  0  0
    9.9562  -15.2483   26.0329 N   0  0  0  0  0  0  0  0  0  0  0  0
   10.4456  -16.3459   26.8527 C   0  0  1  0  0  0  0  0  0  0  0  0
   11.8480  -16.7264   26.4580 C   0  0  0  0  0  0  0  0  0  0  0  0
   11.8193  -17.6144   25.2816 C   0  0  0  0  0  0  0  0  0  0  0  0
   10.6474  -18.0363   24.9561 O   0  0  0  0  0  0  0  0  0  0  0  0
   10.4020  -15.8231   28.2470 C   0  0  0  0  0  0  0  0  0  0  0  0
   10.1828  -14.4938   28.5175 O   0  0  0  0  0  0  0  0  0  0  0  0
   12.8752  -18.0278   24.5230 O   0  0  0  0  0  0  0  0  0  0  0  0
   10.5632  -16.5696   29.2536 O   0  0  0  0  0  0  0  0  0  0  0  0
  2  4  1  0
  2  1  1  1
  3  2  1  0
  4  5  1  6
  6  4  1  0
  6  7  2  0
  9  8  1  6
  9 11  1  0
  9 10  1  0
 12 11  1  1
 12 13  1  0
 13  6  1  0
 14 12  1  0
 15 14  2  0
 16 14  1  0
 17 16  1  0
 17 21  1  0
 17 18  1  6
 19 20  2  0
 19 18  1  0
 21 22  1  0
 23 19  1  0
 24 21  2  0
M  END
$$$$
