TLD.pdb
     RDKit          3D

 24 23  0  0  1  0  0  0  0  0999 V2000
    6.4144  -16.8005   19.8104 C   0  0  0  0  0  0  0  0  0  0  0  0
    7.2422  -16.6791   21.0483 C   0  0  1  0  0  0  0  0  0  0  0  0
    8.1959  -17.6569   21.2165 O   0  0  0  0  0  0  0  0  0  0  0  0
    7.8103  -15.2705   21.2359 C   0  0  2  0  0  0  0  0  0  0  0  0
    8.6938  -14.9365   20.1644 N   0  0  0  0  0  0  0  0  0  0  0  0
    8.4471  -15.0912   22.5446 C   0  0  0  0  0  0  0  0  0  0  0  0
    9.6947  -15.1242   22.6128 O   0  0  0  0  0  0  0  0  0  0  0  0
    7.9381  -11.7391   26.0833 C   0  0  0  0  0  0  0  0  0  0  0  0
    6.8272  -12.7160   25.7784 C   0  0  2  0  0  0  0  0  0  0  0  0
    5.6986  -12.3998   26.7562 C   0  0  0  0  0  0  0  0  0  0  0  0
    7.2052  -14.1408   25.9643 C   0  0  0  0  0  0  0  0  0  0  0  0
    8.2791  -14.6077   25.0281 C   0  0  2  0  0  0  0  0  0  0  0  0
    7.6984  -14.8862   23.7082 N   0  0  0  0  0  0  0  0  0  0  0  0
    8.9124  -15.8705   25.5006 C   0  0  0  0  0  0  0  0  0  0  0  0
    8.2342  -16.9210   25.5762 O   0  0  0  0  0  0  0  0  0  0  0  0
   10.2697  -15.9280   25.8716 N   0  0  0  0  0  0  0  0  0  0  0  0
   10.8304  -17.1961   26.3117 C   0  0  1  0  0  0  0  0  0  0  0  0
   12.3168  -17.2369   26.0740 C   0  0  0  0  0  0  0  0  0  0  0  0
   12.5974  -17.2596   24.6269 C   0  0  0  0  0  0  0  0  0  0  0  0
   11.7769  -17.9675   23.9321 O   0  0  0  0  0  0  0  0  0  0  0  0
   10.5161  -17.2624   27.7664 C   0  0  0  0  0  0  0  0  0  0  0  0
   10.7316  -18.4014   28.5045 O   0  0  0  0  0  0  0  0  0  0  0  0
   13.6091  -16.6288   23.9637 O   0  0  0  0  0  0  0  0  0  0  0  0
   10.0365  -16.2797   28.3992 O   0  0  0  0  0  0  0  0  0  0  0  0
  2  4  1  0
  2  1  1  6
  3  2  1  0
  4  5  1  6
  6  4  1  0
  6  7  2  0
  9  8  1  1
  9 11  1  0
  9 10  1  0
 12 11  1  1
 12 13  1  0
 13  6  1  0
 14 12  1  0
 15 14  2  0
 16 14  1  0
 17 16  1  0
 17 21  1  0
 17 18  1  1
 19 20  2  0
 19 18  1  0
 21 22  1  0
 23 19  1  0
 24 21  2  0
M  END
$$$$
