TLD.pdb
     RDKit          3D

 24 23  0  0  1  0  0  0  0  0999 V2000
    8.5094  -13.0851   19.9478 C   0  0  0  0  0  0  0  0  0  0  0  0
    7.4237  -14.0436   20.3154 C   0  0  1  0  0  0  0  0  0  0  0  0
    6.6783  -14.5205   19.2614 O   0  0  0  0  0  0  0  0  0  0  0  0
    7.9182  -15.1625   21.2348 C   0  0  2  0  0  0  0  0  0  0  0  0
    6.8614  -16.0775   21.5286 N   0  0  0  0  0  0  0  0  0  0  0  0
    8.5507  -14.6494   22.4543 C   0  0  0  0  0  0  0  0  0  0  0  0
    9.6598  -14.0809   22.3597 O   0  0  0  0  0  0  0  0  0  0  0  0
    7.3236  -11.3331   25.2817 C   0  0  0  0  0  0  0  0  0  0  0  0
    6.5781  -12.6467   25.3035 C   0  0  2  0  0  0  0  0  0  0  0  0
    5.3717  -12.4391   26.2153 C   0  0  0  0  0  0  0  0  0  0  0  0
    7.3680  -13.7828   25.8446 C   0  0  0  0  0  0  0  0  0  0  0  0
    8.4919  -14.2162   24.9520 C   0  0  2  0  0  0  0  0  0  0  0  0
    7.9481  -14.7802   23.7097 N   0  0  0  0  0  0  0  0  0  0  0  0
    9.3218  -15.2785   25.5859 C   0  0  0  0  0  0  0  0  0  0  0  0
    9.6322  -15.1919   26.7964 O   0  0  0  0  0  0  0  0  0  0  0  0
    9.7780  -16.3967   24.8614 N   0  0  0  0  0  0  0  0  0  0  0  0
   10.6383  -17.3658   25.5226 C   0  0  1  0  0  0  0  0  0  0  0  0
    9.8636  -18.6000   25.9021 C   0  0  0  0  0  0  0  0  0  0  0  0
   10.0721  -18.9099   27.3281 C   0  0  0  0  0  0  0  0  0  0  0  0
   11.1550  -18.4271   27.8295 O   0  0  0  0  0  0  0  0  0  0  0  0
   11.6930  -17.6800   24.5186 C   0  0  0  0  0  0  0  0  0  0  0  0
   12.7431  -18.5182   24.8069 O   0  0  0  0  0  0  0  0  0  0  0  0
    9.2621  -19.6371   28.1506 O   0  0  0  0  0  0  0  0  0  0  0  0
   11.6805  -17.1958   23.3517 O   0  0  0  0  0  0  0  0  0  0  0  0
  2  4  1  0
  2  1  1  6
  3  2  1  0
  4  5  1  1
  6  4  1  0
  6  7  2  0
  9  8  1  1
  9 11  1  0
  9 10  1  0
 12 11  1  1
 12 13  1  0
 13  6  1  0
 14 12  1  0
 15 14  2  0
 16 14  1  0
 17 16  1  0
 17 21  1  0
 17 18  1  6
 19 20  2  0
 19 18  1  0
 21 22  1  0
 23 19  1  0
 24 21  2  0
M  END
$$$$
