TLD.pdb
     RDKit          3D

 24 23  0  0  1  0  0  0  0  0999 V2000
    6.0897  -16.1951   19.5899 C   0  0  0  0  0  0  0  0  0  0  0  0
    6.8849  -16.0839   20.8500 C   0  0  1  0  0  0  0  0  0  0  0  0
    7.8547  -17.0453   21.0205 O   0  0  0  0  0  0  0  0  0  0  0  0
    7.4185  -14.6683   21.0816 C   0  0  2  0  0  0  0  0  0  0  0  0
    8.2613  -14.2644   20.0014 N   0  0  0  0  0  0  0  0  0  0  0  0
    8.0872  -14.5252   22.3788 C   0  0  0  0  0  0  0  0  0  0  0  0
    9.3365  -14.4998   22.4087 O   0  0  0  0  0  0  0  0  0  0  0  0
    7.8961  -11.5392   26.0701 C   0  0  0  0  0  0  0  0  0  0  0  0
    6.7116  -12.4264   25.7673 C   0  0  2  0  0  0  0  0  0  0  0  0
    5.6301  -12.0567   26.7789 C   0  0  0  0  0  0  0  0  0  0  0  0
    6.9905  -13.8789   25.9090 C   0  0  0  0  0  0  0  0  0  0  0  0
    7.9762  -14.4048   24.9092 C   0  0  2  0  0  0  0  0  0  0  0  0
    7.3668  -14.4177   23.5729 N   0  0  0  0  0  0  0  0  0  0  0  0
    8.3806  -15.8050   25.2170 C   0  0  0  0  0  0  0  0  0  0  0  0
    7.5363  -16.7284   25.1565 O   0  0  0  0  0  0  0  0  0  0  0  0
    9.7009  -16.1349   25.5795 N   0  0  0  0  0  0  0  0  0  0  0  0
   10.0476  -17.5308   25.7978 C   0  0  1  0  0  0  0  0  0  0  0  0
   11.0889  -17.9858   24.8099 C   0  0  0  0  0  0  0  0  0  0  0  0
   12.1660  -16.9841   24.7124 C   0  0  0  0  0  0  0  0  0  0  0  0
   12.7079  -16.6676   25.8365 O   0  0  0  0  0  0  0  0  0  0  0  0
   10.5721  -17.5752   27.1914 C   0  0  0  0  0  0  0  0  0  0  0  0
   10.5459  -16.4735   28.0124 O   0  0  0  0  0  0  0  0  0  0  0  0
   12.6355  -16.3711   23.5877 O   0  0  0  0  0  0  0  0  0  0  0  0
   11.0675  -18.6234   27.6935 O   0  0  0  0  0  0  0  0  0  0  0  0
  2  4  1  0
  2  1  1  6
  3  2  1  0
  4  5  1  6
  6  4  1  0
  6  7  2  0
  9  8  1  1
  9 11  1  0
  9 10  1  0
 12 11  1  1
 12 13  1  0
 13  6  1  0
 14 12  1  0
 15 14  2  0
 16 14  1  0
 17 16  1  0
 17 21  1  0
 17 18  1  6
 19 20  2  0
 19 18  1  0
 21 22  1  0
 23 19  1  0
 24 21  2  0
M  END
$$$$
