ECT.pdb
     RDKit          3D

 23 22  0  0  1  0  0  0  0  0999 V2000
   24.6291   -8.6314  -19.4964 N   0  0  0  0  0  0  0  0  0  0  0  0
   23.2779   -8.9598  -19.8314 C   0  0  1  0  0  0  0  0  0  0  0  0
   23.2649  -10.3828  -20.3881 C   0  0  0  0  0  0  0  0  0  0  0  0
   24.1241  -10.5031  -21.5973 C   0  0  0  0  0  0  0  0  0  0  0  0
   24.0475  -11.8806  -22.1225 C   0  0  0  0  0  0  0  0  0  0  0  0
   23.1950  -12.1722  -22.9959 O   0  0  0  0  0  0  0  0  0  0  0  0
   22.3959   -8.9814  -18.6147 C   0  0  0  0  0  0  0  0  0  0  0  0
   21.1928   -9.3233  -18.7568 O   0  0  0  0  0  0  0  0  0  0  0  0
   24.8942  -12.8905  -21.6856 O   0  0  0  0  0  0  0  0  0  0  0  0
   22.8769   -8.6317  -17.3271 N   0  0  0  0  0  0  0  0  0  0  0  0
   21.9322   -8.7104  -16.1988 C   0  0  1  0  0  0  0  0  0  0  0  0
   22.7649   -8.9692  -14.9546 C   0  0  0  0  0  0  0  0  0  0  0  0
   23.6256  -10.5474  -14.9879 S   0  0  0  0  0  0  0  0  0  0  0  0
   21.2256   -7.4124  -16.0562 C   0  0  0  0  0  0  0  0  0  0  0  0
   21.9356   -6.3964  -15.8557 O   0  0  0  0  0  0  0  0  0  0  0  0
   19.4245   -5.4292  -18.3822 C   0  0  0  0  0  0  0  0  0  0  0  0
   18.4250   -5.5817  -17.2519 C   0  0  1  0  0  0  0  0  0  0  0  0
   17.4384   -6.4468  -17.6633 O   0  0  0  0  0  0  0  0  0  0  0  0
   19.1788   -6.0167  -16.0395 C   0  0  2  0  0  0  0  0  0  0  0  0
   19.8245   -7.2892  -16.1395 N   0  0  0  0  0  0  0  0  0  0  0  0
   18.4322   -5.8254  -14.7648 C   0  0  0  0  0  0  0  0  0  0  0  0
   18.2694   -6.7991  -14.0089 O   0  0  0  0  0  0  0  0  0  0  0  0
   17.9120   -4.5989  -14.3899 O   0  0  0  0  0  0  0  0  0  0  0  0
  2  1  1  1
  2  7  1  0
  3  2  1  0
  4  3  1  0
  5  6  2  0
  5  4  1  0
  7  8  2  0
  9  5  1  0
 10  7  1  0
 10 11  1  0
 11 14  1  0
 11 12  1  1
 13 12  1  0
 14 20  1  0
 15 14  2  0
 17 18  1  0
 17 16  1  6
 19 17  1  0
 19 20  1  6
 21 23  1  0
 21 19  1  0
 22 21  2  0
M  END
$$$$
