ECT.pdb
     RDKit          3D

 23 22  0  0  1  0  0  0  0  0999 V2000
   20.0606  -12.7866  -17.7789 N   0  0  0  0  0  0  0  0  0  0  0  0
   20.5174  -11.4400  -17.9331 C   0  0  1  0  0  0  0  0  0  0  0  0
   19.5620  -10.7267  -18.8888 C   0  0  0  0  0  0  0  0  0  0  0  0
   19.6082  -11.3229  -20.2517 C   0  0  0  0  0  0  0  0  0  0  0  0
   18.7224  -10.5612  -21.1542 C   0  0  0  0  0  0  0  0  0  0  0  0
   19.1399   -9.5143  -21.7059 O   0  0  0  0  0  0  0  0  0  0  0  0
   20.4518  -10.6818  -16.6371 C   0  0  0  0  0  0  0  0  0  0  0  0
   19.8744  -11.2232  -15.6584 O   0  0  0  0  0  0  0  0  0  0  0  0
   17.4205  -10.9588  -21.4274 O   0  0  0  0  0  0  0  0  0  0  0  0
   21.0164   -9.3891  -16.4893 N   0  0  0  0  0  0  0  0  0  0  0  0
   21.0147   -8.7914  -15.1422 C   0  0  1  0  0  0  0  0  0  0  0  0
   21.9115   -9.6642  -14.2806 C   0  0  0  0  0  0  0  0  0  0  0  0
   22.3428   -8.9090  -12.7069 S   0  0  0  0  0  0  0  0  0  0  0  0
   21.5814   -7.4208  -15.2105 C   0  0  0  0  0  0  0  0  0  0  0  0
   22.7171   -7.2994  -15.7322 O   0  0  0  0  0  0  0  0  0  0  0  0
   20.1772   -4.4573  -16.8621 C   0  0  0  0  0  0  0  0  0  0  0  0
   20.5468   -3.9582  -15.4786 C   0  0  1  0  0  0  0  0  0  0  0  0
   19.3851   -3.7168  -14.7833 O   0  0  0  0  0  0  0  0  0  0  0  0
   21.4516   -4.9716  -14.8609 C   0  0  2  0  0  0  0  0  0  0  0  0
   20.9028   -6.2855  -14.7249 N   0  0  0  0  0  0  0  0  0  0  0  0
   22.1520   -4.4885  -13.6382 C   0  0  0  0  0  0  0  0  0  0  0  0
   22.0313   -5.1304  -12.5802 O   0  0  0  0  0  0  0  0  0  0  0  0
   22.9355   -3.3475  -13.6374 O   0  0  0  0  0  0  0  0  0  0  0  0
  2  1  1  1
  2  7  1  0
  3  2  1  0
  4  3  1  0
  5  6  2  0
  5  4  1  0
  7  8  2  0
  9  5  1  0
 10  7  1  0
 10 11  1  0
 11 14  1  0
 11 12  1  1
 13 12  1  0
 14 20  1  0
 15 14  2  0
 17 18  1  0
 17 16  1  6
 19 17  1  0
 19 20  1  1
 21 23  1  0
 21 19  1  0
 22 21  2  0
M  END
$$$$
