ECT.pdb
     RDKit          3D

 23 22  0  0  1  0  0  0  0  0999 V2000
   18.1108  -10.2805  -13.9467 N   0  0  0  0  0  0  0  0  0  0  0  0
   16.7010  -10.0982  -14.1050 C   0  0  1  0  0  0  0  0  0  0  0  0
   16.0228  -11.4449  -13.8574 C   0  0  0  0  0  0  0  0  0  0  0  0
   16.4922  -12.4772  -14.8212 C   0  0  0  0  0  0  0  0  0  0  0  0
   15.7798  -13.7459  -14.5718 C   0  0  0  0  0  0  0  0  0  0  0  0
   14.7181  -14.0009  -15.1903 O   0  0  0  0  0  0  0  0  0  0  0  0
   16.1456   -9.1571  -13.0731 C   0  0  0  0  0  0  0  0  0  0  0  0
   14.9040   -8.9500  -13.0623 O   0  0  0  0  0  0  0  0  0  0  0  0
   16.2407  -14.6911  -13.6653 O   0  0  0  0  0  0  0  0  0  0  0  0
   16.9725   -8.5048  -12.1233 N   0  0  0  0  0  0  0  0  0  0  0  0
   16.3197   -7.6266  -11.1361 C   0  0  1  0  0  0  0  0  0  0  0  0
   17.0598   -7.8251   -9.8242 C   0  0  0  0  0  0  0  0  0  0  0  0
   16.6063   -6.6283   -8.5613 S   0  0  0  0  0  0  0  0  0  0  0  0
   16.4560   -6.2127  -11.5683 C   0  0  0  0  0  0  0  0  0  0  0  0
   17.6138   -5.8087  -11.8384 O   0  0  0  0  0  0  0  0  0  0  0  0
   15.2290   -4.1286  -14.4652 C   0  0  0  0  0  0  0  0  0  0  0  0
   14.6804   -3.5035  -13.1971 C   0  0  1  0  0  0  0  0  0  0  0  0
   13.3484   -3.8306  -13.0970 O   0  0  0  0  0  0  0  0  0  0  0  0
   15.5301   -3.9683  -12.0616 C   0  0  2  0  0  0  0  0  0  0  0  0
   15.3581   -5.3372  -11.6838 N   0  0  0  0  0  0  0  0  0  0  0  0
   15.5572   -3.0295  -10.9055 C   0  0  0  0  0  0  0  0  0  0  0  0
   15.9732   -1.8707  -11.0787 O   0  0  0  0  0  0  0  0  0  0  0  0
   15.1338   -3.4014   -9.6413 O   0  0  0  0  0  0  0  0  0  0  0  0
  2  1  1  1
  2  7  1  0
  3  2  1  0
  4  3  1  0
  5  6  2  0
  5  4  1  0
  7  8  2  0
  9  5  1  0
 10  7  1  0
 10 11  1  0
 11 14  1  0
 11 12  1  1
 13 12  1  0
 14 20  1  0
 15 14  2  0
 17 18  1  0
 17 16  1  6
 19 17  1  0
 19 20  1  1
 21 23  1  0
 21 19  1  0
 22 21  2  0
M  END
$$$$
