ECT.pdb
     RDKit          3D

 23 22  0  0  1  0  0  0  0  0999 V2000
   19.1832  -13.3420  -17.4195 N   0  0  0  0  0  0  0  0  0  0  0  0
   18.8923  -11.9434  -17.3497 C   0  0  1  0  0  0  0  0  0  0  0  0
   17.4132  -11.7884  -16.9987 C   0  0  0  0  0  0  0  0  0  0  0  0
   16.5378  -12.2445  -18.1125 C   0  0  0  0  0  0  0  0  0  0  0  0
   16.1582  -13.6547  -17.8964 C   0  0  0  0  0  0  0  0  0  0  0  0
   15.3967  -13.9606  -16.9470 O   0  0  0  0  0  0  0  0  0  0  0  0
   19.6550  -11.2743  -16.2409 C   0  0  0  0  0  0  0  0  0  0  0  0
   19.8626  -11.9248  -15.1835 O   0  0  0  0  0  0  0  0  0  0  0  0
   16.6141  -14.6804  -18.7135 O   0  0  0  0  0  0  0  0  0  0  0  0
   20.1411   -9.9467  -16.3531 N   0  0  0  0  0  0  0  0  0  0  0  0
   21.0706   -9.4681  -15.3144 C   0  0  1  0  0  0  0  0  0  0  0  0
   22.3254  -10.3167  -15.4324 C   0  0  0  0  0  0  0  0  0  0  0  0
   23.6987   -9.6996  -14.4496 S   0  0  0  0  0  0  0  0  0  0  0  0
   21.4120   -8.0469  -15.5756 C   0  0  0  0  0  0  0  0  0  0  0  0
   21.9962   -7.7910  -16.6571 O   0  0  0  0  0  0  0  0  0  0  0  0
   19.5828   -5.3930  -16.5011 C   0  0  0  0  0  0  0  0  0  0  0  0
   20.2948   -4.7632  -15.3195 C   0  0  1  0  0  0  0  0  0  0  0  0
   19.3754   -4.5714  -14.3150 O   0  0  0  0  0  0  0  0  0  0  0  0
   21.4431   -5.6469  -14.9621 C   0  0  2  0  0  0  0  0  0  0  0  0
   21.1071   -7.0073  -14.6748 N   0  0  0  0  0  0  0  0  0  0  0  0
   22.3835   -5.0441  -13.9766 C   0  0  0  0  0  0  0  0  0  0  0  0
   22.8773   -3.9288  -14.2179 O   0  0  0  0  0  0  0  0  0  0  0  0
   22.7280   -5.6823  -12.7978 O   0  0  0  0  0  0  0  0  0  0  0  0
  2  1  1  1
  2  7  1  0
  3  2  1  0
  4  3  1  0
  5  6  2  0
  5  4  1  0
  7  8  2  0
  9  5  1  0
 10  7  1  0
 10 11  1  0
 11 14  1  0
 11 12  1  6
 13 12  1  0
 14 20  1  0
 15 14  2  0
 17 18  1  0
 17 16  1  6
 19 17  1  0
 19 20  1  1
 21 23  1  0
 21 19  1  0
 22 21  2  0
M  END
$$$$
