ECT.pdb
     RDKit          3D

 23 22  0  0  1  0  0  0  0  0999 V2000
   13.2729   -8.8388   -9.1227 N   0  0  0  0  0  0  0  0  0  0  0  0
   14.6148   -9.1207   -9.5296 C   0  0  1  0  0  0  0  0  0  0  0  0
   14.5534  -10.0779  -10.7191 C   0  0  0  0  0  0  0  0  0  0  0  0
   14.2563  -11.4698  -10.2841 C   0  0  0  0  0  0  0  0  0  0  0  0
   14.3011  -12.3722  -11.4515 C   0  0  0  0  0  0  0  0  0  0  0  0
   15.3134  -13.0856  -11.6541 O   0  0  0  0  0  0  0  0  0  0  0  0
   15.3136   -7.8858  -10.0254 C   0  0  0  0  0  0  0  0  0  0  0  0
   14.6710   -7.0925  -10.7617 O   0  0  0  0  0  0  0  0  0  0  0  0
   13.2516  -12.4709  -12.3551 O   0  0  0  0  0  0  0  0  0  0  0  0
   16.6603   -7.5942   -9.6897 N   0  0  0  0  0  0  0  0  0  0  0  0
   17.2463   -6.3533  -10.2270 C   0  0  1  0  0  0  0  0  0  0  0  0
   17.4267   -5.4137   -9.0467 C   0  0  0  0  0  0  0  0  0  0  0  0
   15.8729   -4.8222   -8.3621 S   0  0  0  0  0  0  0  0  0  0  0  0
   18.5723   -6.6528  -10.8240 C   0  0  0  0  0  0  0  0  0  0  0  0
   19.3104   -7.4539  -10.1994 O   0  0  0  0  0  0  0  0  0  0  0  0
   21.7760   -7.5834  -14.0788 C   0  0  0  0  0  0  0  0  0  0  0  0
   20.3261   -7.2733  -13.7604 C   0  0  1  0  0  0  0  0  0  0  0  0
   19.6564   -8.4636  -13.5993 O   0  0  0  0  0  0  0  0  0  0  0  0
   20.3087   -6.3745  -12.5691 C   0  0  2  0  0  0  0  0  0  0  0  0
   19.0136   -6.0845  -12.0354 N   0  0  0  0  0  0  0  0  0  0  0  0
   21.1792   -5.1737  -12.7073 C   0  0  0  0  0  0  0  0  0  0  0  0
   20.6563   -4.0760  -12.9669 O   0  0  0  0  0  0  0  0  0  0  0  0
   22.5536   -5.2358  -12.5560 O   0  0  0  0  0  0  0  0  0  0  0  0
  2  1  1  6
  2  7  1  0
  3  2  1  0
  4  3  1  0
  5  6  2  0
  5  4  1  0
  7  8  2  0
  9  5  1  0
 10  7  1  0
 10 11  1  0
 11 14  1  0
 11 12  1  1
 13 12  1  0
 14 20  1  0
 15 14  2  0
 17 18  1  0
 17 16  1  1
 19 17  1  0
 19 20  1  6
 21 23  1  0
 21 19  1  0
 22 21  2  0
M  END
$$$$
