ECT.pdb
     RDKit          3D

 23 22  0  0  1  0  0  0  0  0999 V2000
   20.8677  -11.7011  -16.0994 N   0  0  0  0  0  0  0  0  0  0  0  0
   19.9631  -10.6358  -16.4036 C   0  0  1  0  0  0  0  0  0  0  0  0
   18.5410  -11.1507  -16.1855 C   0  0  0  0  0  0  0  0  0  0  0  0
   18.1947  -12.2236  -17.1571 C   0  0  0  0  0  0  0  0  0  0  0  0
   16.7846  -12.6199  -16.9732 C   0  0  0  0  0  0  0  0  0  0  0  0
   16.4989  -13.8100  -16.6959 O   0  0  0  0  0  0  0  0  0  0  0  0
   20.1350   -9.4779  -15.4609 C   0  0  0  0  0  0  0  0  0  0  0  0
   19.9464   -9.6766  -14.2323 O   0  0  0  0  0  0  0  0  0  0  0  0
   15.7371  -11.7169  -17.0946 O   0  0  0  0  0  0  0  0  0  0  0  0
   20.4997   -8.1840  -15.9130 N   0  0  0  0  0  0  0  0  0  0  0  0
   20.7497   -7.1484  -14.8947 C   0  0  1  0  0  0  0  0  0  0  0  0
   21.9969   -7.5762  -14.1397 C   0  0  0  0  0  0  0  0  0  0  0  0
   22.7008   -6.2685  -13.1263 S   0  0  0  0  0  0  0  0  0  0  0  0
   21.0030   -5.8485  -15.5658 C   0  0  0  0  0  0  0  0  0  0  0  0
   21.8865   -5.8306  -16.4578 O   0  0  0  0  0  0  0  0  0  0  0  0
   18.5327   -3.7941  -17.3792 C   0  0  0  0  0  0  0  0  0  0  0  0
   19.2437   -2.8055  -16.4754 C   0  0  1  0  0  0  0  0  0  0  0  0
   18.3670   -2.4145  -15.4907 O   0  0  0  0  0  0  0  0  0  0  0  0
   20.4913   -3.4608  -15.9841 C   0  0  2  0  0  0  0  0  0  0  0  0
   20.3012   -4.6699  -15.2437 N   0  0  0  0  0  0  0  0  0  0  0  0
   21.4573   -2.5199  -15.3514 C   0  0  0  0  0  0  0  0  0  0  0  0
   21.9150   -2.7902  -14.2274 O   0  0  0  0  0  0  0  0  0  0  0  0
   21.8659   -1.3521  -15.9719 O   0  0  0  0  0  0  0  0  0  0  0  0
  2  1  1  1
  2  7  1  0
  3  2  1  0
  4  3  1  0
  5  6  2  0
  5  4  1  0
  7  8  2  0
  9  5  1  0
 10  7  1  0
 10 11  1  0
 11 14  1  0
 11 12  1  6
 13 12  1  0
 14 20  1  0
 15 14  2  0
 17 18  1  0
 17 16  1  6
 19 17  1  0
 19 20  1  1
 21 23  1  0
 21 19  1  0
 22 21  2  0
M  END
$$$$
