ECT.pdb
     RDKit          3D

 23 22  0  0  1  0  0  0  0  0999 V2000
   23.3687   -8.4067  -18.8696 N   0  0  0  0  0  0  0  0  0  0  0  0
   22.0034   -8.2269  -19.2560 C   0  0  1  0  0  0  0  0  0  0  0  0
   21.3379   -9.6022  -19.2827 C   0  0  0  0  0  0  0  0  0  0  0  0
   21.8438  -10.4740  -18.1877 C   0  0  0  0  0  0  0  0  0  0  0  0
   21.2627  -11.8243  -18.3231 C   0  0  0  0  0  0  0  0  0  0  0  0
   21.4436  -12.6781  -17.4214 O   0  0  0  0  0  0  0  0  0  0  0  0
   21.2438   -7.4172  -18.2430 C   0  0  0  0  0  0  0  0  0  0  0  0
   20.0289   -7.1733  -18.4647 O   0  0  0  0  0  0  0  0  0  0  0  0
   20.5081  -12.2013  -19.4258 O   0  0  0  0  0  0  0  0  0  0  0  0
   21.8515   -6.9271  -17.0589 N   0  0  0  0  0  0  0  0  0  0  0  0
   20.9910   -6.2318  -16.0853 C   0  0  1  0  0  0  0  0  0  0  0  0
   21.0157   -7.0640  -14.8143 C   0  0  0  0  0  0  0  0  0  0  0  0
   22.6750   -7.3638  -14.1903 S   0  0  0  0  0  0  0  0  0  0  0  0
   21.5532   -4.8869  -15.8032 C   0  0  0  0  0  0  0  0  0  0  0  0
   22.7989   -4.7594  -15.8954 O   0  0  0  0  0  0  0  0  0  0  0  0
   21.2730   -1.8133  -17.5074 C   0  0  0  0  0  0  0  0  0  0  0  0
   20.9061   -1.4001  -16.0952 C   0  0  1  0  0  0  0  0  0  0  0  0
   19.5627   -1.1074  -16.0674 O   0  0  0  0  0  0  0  0  0  0  0  0
   21.3302   -2.4996  -15.1795 C   0  0  2  0  0  0  0  0  0  0  0  0
   20.7549   -3.7813  -15.4484 N   0  0  0  0  0  0  0  0  0  0  0  0
   21.3065   -2.1260  -13.7377 C   0  0  0  0  0  0  0  0  0  0  0  0
   20.6544   -2.8261  -12.9436 O   0  0  0  0  0  0  0  0  0  0  0  0
   21.9868   -1.0245  -13.2483 O   0  0  0  0  0  0  0  0  0  0  0  0
  2  1  1  1
  2  7  1  0
  3  2  1  0
  4  3  1  0
  5  6  2  0
  5  4  1  0
  7  8  2  0
  9  5  1  0
 10  7  1  0
 10 11  1  0
 11 14  1  0
 11 12  1  1
 13 12  1  0
 14 20  1  0
 15 14  2  0
 17 18  1  0
 17 16  1  6
 19 17  1  0
 19 20  1  1
 21 23  1  0
 21 19  1  0
 22 21  2  0
M  END
$$$$
