ECT.pdb
     RDKit          3D

 23 22  0  0  1  0  0  0  0  0999 V2000
   26.5943  -33.2644   -8.0082 N   0  0  0  0  0  0  0  0  0  0  0  0
   26.8615  -33.4778   -6.6194 C   0  0  1  0  0  0  0  0  0  0  0  0
   25.7933  -34.4260   -6.0762 C   0  0  0  0  0  0  0  0  0  0  0  0
   24.5765  -33.6862   -5.6438 C   0  0  0  0  0  0  0  0  0  0  0  0
   24.6390  -33.4403   -4.1895 C   0  0  0  0  0  0  0  0  0  0  0  0
   24.8104  -34.3991   -3.3983 O   0  0  0  0  0  0  0  0  0  0  0  0
   28.1783  -34.1711   -6.4096 C   0  0  0  0  0  0  0  0  0  0  0  0
   28.8564  -34.4820   -7.4235 O   0  0  0  0  0  0  0  0  0  0  0  0
   24.5149  -32.1692   -3.6449 O   0  0  0  0  0  0  0  0  0  0  0  0
   28.6712  -34.4800   -5.1160 N   0  0  0  0  0  0  0  0  0  0  0  0
   30.0096  -35.0896   -5.0211 C   0  0  1  0  0  0  0  0  0  0  0  0
   30.9838  -34.0899   -5.6211 C   0  0  0  0  0  0  0  0  0  0  0  0
   32.7028  -34.5982   -5.4828 S   0  0  0  0  0  0  0  0  0  0  0  0
   30.3499  -35.3112   -3.5930 C   0  0  0  0  0  0  0  0  0  0  0  0
   30.1177  -34.3667   -2.7989 O   0  0  0  0  0  0  0  0  0  0  0  0
   32.3645  -38.8075   -1.9458 C   0  0  0  0  0  0  0  0  0  0  0  0
   31.1524  -38.1692   -1.2954 C   0  0  1  0  0  0  0  0  0  0  0  0
   31.2358  -38.3712    0.0624 O   0  0  0  0  0  0  0  0  0  0  0  0
   31.1153  -36.7383   -1.7181 C   0  0  2  0  0  0  0  0  0  0  0  0
   30.9063  -36.5143   -3.1153 N   0  0  0  0  0  0  0  0  0  0  0  0
   32.2093  -35.9101   -1.1385 C   0  0  0  0  0  0  0  0  0  0  0  0
   33.1969  -35.6365   -1.8426 O   0  0  0  0  0  0  0  0  0  0  0  0
   32.1658  -35.4319    0.1596 O   0  0  0  0  0  0  0  0  0  0  0  0
  2  1  1  6
  2  7  1  0
  3  2  1  0
  4  3  1  0
  5  6  2  0
  5  4  1  0
  7  8  2  0
  9  5  1  0
 10  7  1  0
 10 11  1  0
 11 14  1  0
 11 12  1  1
 13 12  1  0
 14 20  1  0
 15 14  2  0
 17 18  1  0
 17 16  1  6
 19 17  1  0
 19 20  1  6
 21 23  1  0
 21 19  1  0
 22 21  2  0
M  END
$$$$
