ECT.pdb
     RDKit          3D

 23 22  0  0  1  0  0  0  0  0999 V2000
   23.4177  -10.4989  -18.9502 N   0  0  0  0  0  0  0  0  0  0  0  0
   22.0665  -10.9263  -18.7570 C   0  0  1  0  0  0  0  0  0  0  0  0
   22.0951  -12.3906  -18.3210 C   0  0  0  0  0  0  0  0  0  0  0  0
   22.0639  -13.3088  -19.4918 C   0  0  0  0  0  0  0  0  0  0  0  0
   22.1011  -14.7082  -19.0231 C   0  0  0  0  0  0  0  0  0  0  0  0
   21.1416  -15.1736  -18.3616 O   0  0  0  0  0  0  0  0  0  0  0  0
   21.4023  -10.1727  -17.6391 C   0  0  0  0  0  0  0  0  0  0  0  0
   20.1880  -10.4050  -17.4028 O   0  0  0  0  0  0  0  0  0  0  0  0
   23.1717  -15.5519  -19.2867 O   0  0  0  0  0  0  0  0  0  0  0  0
   22.0985   -9.2192  -16.8532 N   0  0  0  0  0  0  0  0  0  0  0  0
   21.4119   -8.6774  -15.6671 C   0  0  1  0  0  0  0  0  0  0  0  0
   22.4431   -8.6346  -14.5521 C   0  0  0  0  0  0  0  0  0  0  0  0
   21.9937   -9.6336  -13.1264 S   0  0  0  0  0  0  0  0  0  0  0  0
   20.9430   -7.2986  -15.9562 C   0  0  0  0  0  0  0  0  0  0  0  0
   21.7871   -6.4969  -16.4269 O   0  0  0  0  0  0  0  0  0  0  0  0
   17.3160   -6.3284  -17.4289 C   0  0  0  0  0  0  0  0  0  0  0  0
   18.5404   -5.4337  -17.4219 C   0  0  1  0  0  0  0  0  0  0  0  0
   18.1453   -4.1603  -17.7588 O   0  0  0  0  0  0  0  0  0  0  0  0
   19.1828   -5.5597  -16.0807 C   0  0  2  0  0  0  0  0  0  0  0  0
   19.6186   -6.8756  -15.7279 N   0  0  0  0  0  0  0  0  0  0  0  0
   18.4435   -4.8640  -14.9906 C   0  0  0  0  0  0  0  0  0  0  0  0
   18.0648   -5.5198  -14.0044 O   0  0  0  0  0  0  0  0  0  0  0  0
   18.1626   -3.5095  -15.0356 O   0  0  0  0  0  0  0  0  0  0  0  0
  2  1  1  1
  2  7  1  0
  3  2  1  0
  4  3  1  0
  5  6  2  0
  5  4  1  0
  7  8  2  0
  9  5  1  0
 10  7  1  0
 10 11  1  0
 11 14  1  0
 11 12  1  1
 13 12  1  0
 14 20  1  0
 15 14  2  0
 17 18  1  0
 17 16  1  1
 19 17  1  0
 19 20  1  1
 21 23  1  0
 21 19  1  0
 22 21  2  0
M  END
$$$$
