ECT.pdb
     RDKit          3D

 23 22  0  0  1  0  0  0  0  0999 V2000
   20.5895  -12.8928  -17.2580 N   0  0  0  0  0  0  0  0  0  0  0  0
   19.8335  -11.6987  -17.0386 C   0  0  1  0  0  0  0  0  0  0  0  0
   18.4699  -12.1024  -16.4795 C   0  0  0  0  0  0  0  0  0  0  0  0
   17.4765  -12.3165  -17.5668 C   0  0  0  0  0  0  0  0  0  0  0  0
   16.8724  -11.0238  -17.9453 C   0  0  0  0  0  0  0  0  0  0  0  0
   17.1154  -10.5236  -19.0703 O   0  0  0  0  0  0  0  0  0  0  0  0
   20.4693  -10.8255  -15.9935 C   0  0  0  0  0  0  0  0  0  0  0  0
   20.3779  -11.1760  -14.7880 O   0  0  0  0  0  0  0  0  0  0  0  0
   16.0287  -10.3208  -17.0959 O   0  0  0  0  0  0  0  0  0  0  0  0
   21.1609   -9.6326  -16.3252 N   0  0  0  0  0  0  0  0  0  0  0  0
   21.8316   -8.9041  -15.2337 C   0  0  1  0  0  0  0  0  0  0  0  0
   23.2902   -9.3283  -15.2628 C   0  0  0  0  0  0  0  0  0  0  0  0
   23.6720  -10.6494  -14.1045 S   0  0  0  0  0  0  0  0  0  0  0  0
   21.7391   -7.4439  -15.4861 C   0  0  0  0  0  0  0  0  0  0  0  0
   22.0068   -7.0485  -16.6473 O   0  0  0  0  0  0  0  0  0  0  0  0
   19.0490   -5.3449  -15.8324 C   0  0  0  0  0  0  0  0  0  0  0  0
   19.8304   -4.6004  -14.7671 C   0  0  1  0  0  0  0  0  0  0  0  0
   19.1718   -4.7467  -13.5687 O   0  0  0  0  0  0  0  0  0  0  0  0
   21.2281   -5.1232  -14.7855 C   0  0  2  0  0  0  0  0  0  0  0  0
   21.3684   -6.5162  -14.4925 N   0  0  0  0  0  0  0  0  0  0  0  0
   22.2038   -4.2605  -14.0625 C   0  0  0  0  0  0  0  0  0  0  0  0
   22.9075   -4.7632  -13.1692 O   0  0  0  0  0  0  0  0  0  0  0  0
   22.3564   -2.9154  -14.3506 O   0  0  0  0  0  0  0  0  0  0  0  0
  2  1  1  1
  2  7  1  0
  3  2  1  0
  4  3  1  0
  5  6  2  0
  5  4  1  0
  7  8  2  0
  9  5  1  0
 10  7  1  0
 10 11  1  0
 11 14  1  0
 11 12  1  6
 13 12  1  0
 14 20  1  0
 15 14  2  0
 17 18  1  0
 17 16  1  6
 19 17  1  0
 19 20  1  1
 21 23  1  0
 21 19  1  0
 22 21  2  0
M  END
$$$$
