ECT.pdb
     RDKit          3D

 23 22  0  0  1  0  0  0  0  0999 V2000
   20.5387  -11.9097  -16.4169 N   0  0  0  0  0  0  0  0  0  0  0  0
   19.2417  -11.3427  -16.6222 C   0  0  1  0  0  0  0  0  0  0  0  0
   18.2054  -12.3475  -16.1208 C   0  0  0  0  0  0  0  0  0  0  0  0
   18.1539  -13.5562  -16.9877 C   0  0  0  0  0  0  0  0  0  0  0  0
   17.1512  -14.5014  -16.4580 C   0  0  0  0  0  0  0  0  0  0  0  0
   16.9455  -15.5913  -17.0450 O   0  0  0  0  0  0  0  0  0  0  0  0
   19.0456  -10.0989  -15.8017 C   0  0  0  0  0  0  0  0  0  0  0  0
   17.9423   -9.4985  -15.8839 O   0  0  0  0  0  0  0  0  0  0  0  0
   16.4096  -14.2347  -15.3150 O   0  0  0  0  0  0  0  0  0  0  0  0
   20.0574   -9.5903  -14.9478 N   0  0  0  0  0  0  0  0  0  0  0  0
   19.7993   -8.3080  -14.2688 C   0  0  1  0  0  0  0  0  0  0  0  0
   19.7187   -8.6140  -12.7828 C   0  0  0  0  0  0  0  0  0  0  0  0
   18.1847   -9.4194  -12.3026 S   0  0  0  0  0  0  0  0  0  0  0  0
   20.9319   -7.3812  -14.5192 C   0  0  0  0  0  0  0  0  0  0  0  0
   22.0677   -7.8961  -14.6651 O   0  0  0  0  0  0  0  0  0  0  0  0
   21.4138   -5.0472  -17.2881 C   0  0  0  0  0  0  0  0  0  0  0  0
   21.6667   -4.1978  -16.0576 C   0  0  1  0  0  0  0  0  0  0  0  0
   20.6152   -3.3230  -15.9146 O   0  0  0  0  0  0  0  0  0  0  0  0
   21.8766   -5.1238  -14.9062 C   0  0  2  0  0  0  0  0  0  0  0  0
   20.7752   -5.9831  -14.5984 N   0  0  0  0  0  0  0  0  0  0  0  0
   22.4761   -4.4708  -13.7091 C   0  0  0  0  0  0  0  0  0  0  0  0
   21.8802   -4.5433  -12.6203 O   0  0  0  0  0  0  0  0  0  0  0  0
   23.6769   -3.7847  -13.7650 O   0  0  0  0  0  0  0  0  0  0  0  0
  2  1  1  1
  2  7  1  0
  3  2  1  0
  4  3  1  0
  5  6  2  0
  5  4  1  0
  7  8  2  0
  9  5  1  0
 10  7  1  0
 10 11  1  0
 11 14  1  0
 11 12  1  1
 13 12  1  0
 14 20  1  0
 15 14  2  0
 17 18  1  0
 17 16  1  6
 19 17  1  0
 19 20  1  1
 21 23  1  0
 21 19  1  0
 22 21  2  0
M  END
$$$$
