ECT.pdb
     RDKit          3D

 23 22  0  0  1  0  0  0  0  0999 V2000
   18.4837  -10.7611  -18.1062 N   0  0  0  0  0  0  0  0  0  0  0  0
   17.7199  -10.0849  -17.1037 C   0  0  1  0  0  0  0  0  0  0  0  0
   16.8032  -11.1117  -16.4398 C   0  0  0  0  0  0  0  0  0  0  0  0
   17.4225  -12.4649  -16.4226 C   0  0  0  0  0  0  0  0  0  0  0  0
   16.5269  -13.4089  -15.7255 C   0  0  0  0  0  0  0  0  0  0  0  0
   15.4444  -13.0025  -15.2381 O   0  0  0  0  0  0  0  0  0  0  0  0
   18.5979   -9.5434  -16.0106 C   0  0  0  0  0  0  0  0  0  0  0  0
   18.0505   -8.9442  -15.0484 O   0  0  0  0  0  0  0  0  0  0  0  0
   16.8333  -14.7554  -15.5819 O   0  0  0  0  0  0  0  0  0  0  0  0
   20.0085   -9.6881  -16.0340 N   0  0  0  0  0  0  0  0  0  0  0  0
   20.7732   -9.1244  -14.9074 C   0  0  1  0  0  0  0  0  0  0  0  0
   22.0763   -9.9024  -14.8365 C   0  0  0  0  0  0  0  0  0  0  0  0
   23.2929   -9.1577  -13.7421 S   0  0  0  0  0  0  0  0  0  0  0  0
   21.0684   -7.6947  -15.1784 C   0  0  0  0  0  0  0  0  0  0  0  0
   21.4629   -7.4039  -16.3345 O   0  0  0  0  0  0  0  0  0  0  0  0
   20.9426   -2.9851  -14.8327 C   0  0  0  0  0  0  0  0  0  0  0  0
   20.2833   -4.3184  -14.5366 C   0  0  1  0  0  0  0  0  0  0  0  0
   19.3347   -4.5539  -15.5040 O   0  0  0  0  0  0  0  0  0  0  0  0
   21.3628   -5.3453  -14.4497 C   0  0  2  0  0  0  0  0  0  0  0  0
   20.9210   -6.6841  -14.2078 N   0  0  0  0  0  0  0  0  0  0  0  0
   22.5172   -4.9359  -13.6019 C   0  0  0  0  0  0  0  0  0  0  0  0
   23.2038   -3.9589  -13.9484 O   0  0  0  0  0  0  0  0  0  0  0  0
   22.8538   -5.6055  -12.4383 O   0  0  0  0  0  0  0  0  0  0  0  0
  2  1  1  6
  2  7  1  0
  3  2  1  0
  4  3  1  0
  5  6  2  0
  5  4  1  0
  7  8  2  0
  9  5  1  0
 10  7  1  0
 10 11  1  0
 11 14  1  0
 11 12  1  6
 13 12  1  0
 14 20  1  0
 15 14  2  0
 17 18  1  0
 17 16  1  6
 19 17  1  0
 19 20  1  1
 21 23  1  0
 21 19  1  0
 22 21  2  0
M  END
$$$$
