ECT.pdb
     RDKit          3D

 23 22  0  0  1  0  0  0  0  0999 V2000
   17.4489  -12.1674  -16.9528 N   0  0  0  0  0  0  0  0  0  0  0  0
   18.0662  -10.9479  -17.3739 C   0  0  1  0  0  0  0  0  0  0  0  0
   17.1833  -10.3231  -18.4533 C   0  0  0  0  0  0  0  0  0  0  0  0
   17.4565  -10.9149  -19.7912 C   0  0  0  0  0  0  0  0  0  0  0  0
   18.2611   -9.9722  -20.5932 C   0  0  0  0  0  0  0  0  0  0  0  0
   19.5118   -9.9704  -20.4903 O   0  0  0  0  0  0  0  0  0  0  0  0
   18.1291   -9.9450  -16.2563 C   0  0  0  0  0  0  0  0  0  0  0  0
   17.2024   -9.9431  -15.4045 O   0  0  0  0  0  0  0  0  0  0  0  0
   17.6855   -9.0683  -21.4759 O   0  0  0  0  0  0  0  0  0  0  0  0
   19.1914   -9.0129  -16.1372 N   0  0  0  0  0  0  0  0  0  0  0  0
   19.3253   -8.2870  -14.8616 C   0  0  1  0  0  0  0  0  0  0  0  0
   19.6863   -9.3228  -13.8103 C   0  0  0  0  0  0  0  0  0  0  0  0
   20.1694   -8.6022  -12.2355 S   0  0  0  0  0  0  0  0  0  0  0  0
   20.4246   -7.2952  -14.9722 C   0  0  0  0  0  0  0  0  0  0  0  0
   21.5615   -7.7360  -15.2716 O   0  0  0  0  0  0  0  0  0  0  0  0
   20.4215   -4.0590  -17.0222 C   0  0  0  0  0  0  0  0  0  0  0  0
   20.9171   -3.7047  -15.6335 C   0  0  1  0  0  0  0  0  0  0  0  0
   19.9370   -2.9784  -14.9987 O   0  0  0  0  0  0  0  0  0  0  0  0
   21.2987   -4.9771  -14.9531 C   0  0  2  0  0  0  0  0  0  0  0  0
   20.2360   -5.9150  -14.7604 N   0  0  0  0  0  0  0  0  0  0  0  0
   22.1492   -4.7833  -13.7457 C   0  0  0  0  0  0  0  0  0  0  0  0
   23.2103   -4.1439  -13.8514 O   0  0  0  0  0  0  0  0  0  0  0  0
   21.7995   -5.2902  -12.5062 O   0  0  0  0  0  0  0  0  0  0  0  0
  2  1  1  1
  2  7  1  0
  3  2  1  0
  4  3  1  0
  5  6  2  0
  5  4  1  0
  7  8  2  0
  9  5  1  0
 10  7  1  0
 10 11  1  0
 11 14  1  0
 11 12  1  1
 13 12  1  0
 14 20  1  0
 15 14  2  0
 17 18  1  0
 17 16  1  6
 19 17  1  0
 19 20  1  1
 21 23  1  0
 21 19  1  0
 22 21  2  0
M  END
$$$$
