ECT.pdb
     RDKit          3D

 23 22  0  0  1  0  0  0  0  0999 V2000
   13.4902   -9.2044   -9.3823 N   0  0  0  0  0  0  0  0  0  0  0  0
   14.8597   -9.3304   -9.7749 C   0  0  1  0  0  0  0  0  0  0  0  0
   14.9293  -10.3426  -10.9175 C   0  0  0  0  0  0  0  0  0  0  0  0
   14.5788  -11.7128  -10.4542 C   0  0  0  0  0  0  0  0  0  0  0  0
   14.7271  -12.6652  -11.5724 C   0  0  0  0  0  0  0  0  0  0  0  0
   13.7415  -12.9356  -12.3006 O   0  0  0  0  0  0  0  0  0  0  0  0
   15.3974   -8.0408  -10.3286 C   0  0  0  0  0  0  0  0  0  0  0  0
   14.5790   -7.1294  -10.6183 O   0  0  0  0  0  0  0  0  0  0  0  0
   15.9333  -13.2885  -11.8624 O   0  0  0  0  0  0  0  0  0  0  0  0
   16.7848   -7.8261  -10.5305 N   0  0  0  0  0  0  0  0  0  0  0  0
   17.2000   -6.5396  -11.1171 C   0  0  1  0  0  0  0  0  0  0  0  0
   16.8060   -5.4624  -10.1206 C   0  0  0  0  0  0  0  0  0  0  0  0
   17.0095   -5.9674   -8.4071 S   0  0  0  0  0  0  0  0  0  0  0  0
   18.6743   -6.5311  -11.2929 C   0  0  0  0  0  0  0  0  0  0  0  0
   19.3665   -6.9090  -10.3159 O   0  0  0  0  0  0  0  0  0  0  0  0
   20.9270   -8.5741  -13.1062 C   0  0  0  0  0  0  0  0  0  0  0  0
   21.2041   -7.1882  -13.6561 C   0  0  1  0  0  0  0  0  0  0  0  0
   20.6142   -7.0905  -14.8946 O   0  0  0  0  0  0  0  0  0  0  0  0
   20.7211   -6.1988  -12.6486 C   0  0  2  0  0  0  0  0  0  0  0  0
   19.3015   -6.1266  -12.4879 N   0  0  0  0  0  0  0  0  0  0  0  0
   21.3783   -4.8660  -12.7497 C   0  0  0  0  0  0  0  0  0  0  0  0
   22.6188   -4.7993  -12.6970 O   0  0  0  0  0  0  0  0  0  0  0  0
   20.6559   -3.6952  -12.9014 O   0  0  0  0  0  0  0  0  0  0  0  0
  2  1  1  6
  2  7  1  0
  3  2  1  0
  4  3  1  0
  5  6  2  0
  5  4  1  0
  7  8  2  0
  9  5  1  0
 10  7  1  0
 10 11  1  0
 11 14  1  0
 11 12  1  1
 13 12  1  0
 14 20  1  0
 15 14  2  0
 17 18  1  0
 17 16  1  1
 19 17  1  0
 19 20  1  6
 21 23  1  0
 21 19  1  0
 22 21  2  0
M  END
$$$$
