CSC.pdb
     RDKit          3D

 19 18  0  0  1  0  0  0  0  0999 V2000
   14.3739  -10.5808  -11.2270 N   0  0  0  0  0  0  0  0  0  0  0  0
   14.5870   -9.1712  -11.2235 C   0  0  1  0  0  0  0  0  0  0  0  0
   15.1496   -8.8051   -9.8426 C   0  0  0  0  0  0  0  0  0  0  0  0
   13.7939   -8.8381   -8.6159 S   0  0  0  0  0  0  0  0  0  0  0  0
   15.5518   -8.6945  -12.2173 C   0  0  0  0  0  0  0  0  0  0  0  0
   16.4690   -9.4810  -12.5709 O   0  0  0  0  0  0  0  0  0  0  0  0
   15.8264   -4.7931  -13.6421 O   0  0  0  0  0  0  0  0  0  0  0  0
   16.0385   -5.7967  -14.6092 C   0  0  0  0  0  0  0  0  0  0  0  0
   16.4790   -7.0406  -13.8433 C   0  0  2  0  0  0  0  0  0  0  0  0
   15.5374   -7.4067  -12.8199 N   0  0  0  0  0  0  0  0  0  0  0  0
   17.8581   -6.8872  -13.3232 C   0  0  0  0  0  0  0  0  0  0  0  0
   18.0489   -6.4941  -12.1435 O   0  0  0  0  0  0  0  0  0  0  0  0
   19.0197   -7.1654  -14.0985 N   0  0  0  0  0  0  0  0  0  0  0  0
   20.3700   -6.9973  -13.5556 C   0  0  1  0  0  0  0  0  0  0  0  0
   21.1760   -8.2115  -14.0294 C   0  0  0  0  0  0  0  0  0  0  0  0
   22.8925   -8.0700  -13.4334 S   0  0  0  0  0  0  0  0  0  0  0  0
   20.9818   -5.7403  -13.9887 C   0  0  0  0  0  0  0  0  0  0  0  0
   21.8207   -5.1312  -13.2825 O   0  0  0  0  0  0  0  0  0  0  0  0
   20.6330   -5.1942  -15.2151 O   0  0  0  0  0  0  0  0  0  0  0  0
  2  5  1  0
  2  1  1  1
  3  2  1  0
  4  3  1  0
  5  6  2  0
  7  8  1  0
  9  8  1  1
 10  9  1  0
 10  5  1  0
 11 12  2  0
 11  9  1  0
 13 11  1  0
 14 17  1  0
 14 13  1  0
 14 15  1  6
 16 15  1  0
 17 19  1  0
 18 17  2  0
M  END
$$$$
