CSC.pdb
     RDKit          3D

 19 18  0  0  1  0  0  0  0  0999 V2000
   17.5518  -11.5726  -17.3029 N   0  0  0  0  0  0  0  0  0  0  0  0
   18.1404  -11.4794  -16.0077 C   0  0  1  0  0  0  0  0  0  0  0  0
   19.5582  -12.0586  -16.1156 C   0  0  0  0  0  0  0  0  0  0  0  0
   19.4609  -13.8846  -16.1118 S   0  0  0  0  0  0  0  0  0  0  0  0
   18.2750  -10.1149  -15.4922 C   0  0  0  0  0  0  0  0  0  0  0  0
   18.6757   -9.2233  -16.2856 O   0  0  0  0  0  0  0  0  0  0  0  0
   18.3182   -8.9036  -11.4571 O   0  0  0  0  0  0  0  0  0  0  0  0
   17.5594   -8.1114  -12.3426 C   0  0  0  0  0  0  0  0  0  0  0  0
   18.1430   -8.3471  -13.7325 C   0  0  2  0  0  0  0  0  0  0  0  0
   17.9882   -9.7117  -14.1591 N   0  0  0  0  0  0  0  0  0  0  0  0
   19.5472   -7.8798  -13.8086 C   0  0  0  0  0  0  0  0  0  0  0  0
   20.4894   -8.7126  -13.8483 O   0  0  0  0  0  0  0  0  0  0  0  0
   19.9106   -6.5034  -13.8409 N   0  0  0  0  0  0  0  0  0  0  0  0
   21.3067   -6.0751  -13.9578 C   0  0  1  0  0  0  0  0  0  0  0  0
   21.7601   -6.4734  -15.3664 C   0  0  0  0  0  0  0  0  0  0  0  0
   23.4329   -5.8181  -15.6731 S   0  0  0  0  0  0  0  0  0  0  0  0
   21.4598   -4.6379  -13.7272 C   0  0  0  0  0  0  0  0  0  0  0  0
   22.4375   -4.1658  -13.0989 O   0  0  0  0  0  0  0  0  0  0  0  0
   20.5024   -3.7593  -14.2124 O   0  0  0  0  0  0  0  0  0  0  0  0
  2  5  1  0
  2  1  1  6
  3  2  1  0
  4  3  1  0
  5  6  2  0
  7  8  1  0
  9  8  1  1
 10  9  1  0
 10  5  1  0
 11 12  2  0
 11  9  1  0
 13 11  1  0
 14 17  1  0
 14 13  1  0
 14 15  1  6
 16 15  1  0
 17 19  1  0
 18 17  2  0
M  END
$$$$
