CSC.pdb
     RDKit          3D

 19 18  0  0  1  0  0  0  0  0999 V2000
   28.8137  -27.5119  -16.4041 N   0  0  0  0  0  0  0  0  0  0  0  0
   28.6842  -26.3302  -17.1912 C   0  0  1  0  0  0  0  0  0  0  0  0
   28.0431  -26.7454  -18.5230 C   0  0  0  0  0  0  0  0  0  0  0  0
   29.1149  -27.9782  -19.3448 S   0  0  0  0  0  0  0  0  0  0  0  0
   27.8256  -25.2964  -16.6083 C   0  0  0  0  0  0  0  0  0  0  0  0
   27.0375  -25.6368  -15.6874 O   0  0  0  0  0  0  0  0  0  0  0  0
   28.5807  -21.2749  -16.1543 O   0  0  0  0  0  0  0  0  0  0  0  0
   27.3218  -21.5346  -16.7331 C   0  0  0  0  0  0  0  0  0  0  0  0
   26.9628  -22.9667  -16.3483 C   0  0  2  0  0  0  0  0  0  0  0  0
   27.8091  -23.9296  -17.0001 N   0  0  0  0  0  0  0  0  0  0  0  0
   25.5212  -23.2328  -16.5650 C   0  0  0  0  0  0  0  0  0  0  0  0
   25.1133  -23.6302  -17.6868 O   0  0  0  0  0  0  0  0  0  0  0  0
   24.5355  -23.0619  -15.5517 N   0  0  0  0  0  0  0  0  0  0  0  0
   23.1118  -23.2886  -15.8122 C   0  0  1  0  0  0  0  0  0  0  0  0
   22.4207  -23.2863  -14.4444 C   0  0  0  0  0  0  0  0  0  0  0  0
   20.6642  -23.7257  -14.6517 S   0  0  0  0  0  0  0  0  0  0  0  0
   22.5495  -22.2729  -16.7033 C   0  0  0  0  0  0  0  0  0  0  0  0
   22.8744  -21.0640  -16.6223 O   0  0  0  0  0  0  0  0  0  0  0  0
   21.6282  -22.6437  -17.6716 O   0  0  0  0  0  0  0  0  0  0  0  0
  2  5  1  0
  2  1  1  1
  3  2  1  0
  4  3  1  0
  5  6  2  0
  7  8  1  0
  9  8  1  6
 10  9  1  0
 10  5  1  0
 11 12  2  0
 11  9  1  0
 13 11  1  0
 14 17  1  0
 14 13  1  0
 14 15  1  1
 16 15  1  0
 17 19  1  0
 18 17  2  0
M  END
$$$$
