CSC.pdb
     RDKit          3D

 19 18  0  0  1  0  0  0  0  0999 V2000
   33.8799  -31.2787  -17.9543 N   0  0  0  0  0  0  0  0  0  0  0  0
   32.7136  -31.3375  -17.1364 C   0  0  1  0  0  0  0  0  0  0  0  0
   31.8582  -30.1111  -17.4846 C   0  0  0  0  0  0  0  0  0  0  0  0
   32.7124  -28.6015  -16.9055 S   0  0  0  0  0  0  0  0  0  0  0  0
   31.8736  -32.5183  -17.3506 C   0  0  0  0  0  0  0  0  0  0  0  0
   31.7086  -32.9159  -18.5337 O   0  0  0  0  0  0  0  0  0  0  0  0
   31.5502  -35.6671  -14.8909 O   0  0  0  0  0  0  0  0  0  0  0  0
   30.2695  -35.3065  -15.3568 C   0  0  0  0  0  0  0  0  0  0  0  0
   30.4929  -34.4631  -16.6084 C   0  0  2  0  0  0  0  0  0  0  0  0
   31.2244  -33.2579  -16.3243 N   0  0  0  0  0  0  0  0  0  0  0  0
   29.2154  -34.2040  -17.3132 C   0  0  0  0  0  0  0  0  0  0  0  0
   28.5083  -33.2128  -16.9964 O   0  0  0  0  0  0  0  0  0  0  0  0
   28.7203  -35.0322  -18.3604 N   0  0  0  0  0  0  0  0  0  0  0  0
   27.4835  -34.7142  -19.0783 C   0  0  1  0  0  0  0  0  0  0  0  0
   27.8996  -34.3506  -20.5076 C   0  0  0  0  0  0  0  0  0  0  0  0
   28.6937  -32.7102  -20.5093 S   0  0  0  0  0  0  0  0  0  0  0  0
   26.5365  -35.8300  -19.0586 C   0  0  0  0  0  0  0  0  0  0  0  0
   26.8440  -36.9549  -18.5968 O   0  0  0  0  0  0  0  0  0  0  0  0
   25.2565  -35.6524  -19.5626 O   0  0  0  0  0  0  0  0  0  0  0  0
  2  5  1  0
  2  1  1  6
  3  2  1  0
  4  3  1  0
  5  6  2  0
  7  8  1  0
  9  8  1  1
 10  9  1  0
 10  5  1  0
 11 12  2  0
 11  9  1  0
 13 11  1  0
 14 17  1  0
 14 13  1  0
 14 15  1  6
 16 15  1  0
 17 19  1  0
 18 17  2  0
M  END
$$$$
