CSC.pdb
     RDKit          3D

 19 18  0  0  1  0  0  0  0  0999 V2000
   16.9966  -21.9532  -14.4389 N   0  0  0  0  0  0  0  0  0  0  0  0
   17.8316  -22.1036  -13.2931 C   0  0  1  0  0  0  0  0  0  0  0  0
   18.1024  -23.6059  -13.1285 C   0  0  0  0  0  0  0  0  0  0  0  0
   16.5187  -24.4708  -12.8323 S   0  0  0  0  0  0  0  0  0  0  0  0
   19.1353  -21.4435  -13.3937 C   0  0  0  0  0  0  0  0  0  0  0  0
   19.6228  -21.2762  -14.5424 O   0  0  0  0  0  0  0  0  0  0  0  0
   21.5786  -20.2549  -10.1773 O   0  0  0  0  0  0  0  0  0  0  0  0
   21.4573  -19.3686  -11.2669 C   0  0  0  0  0  0  0  0  0  0  0  0
   21.1177  -20.2288  -12.4805 C   0  0  2  0  0  0  0  0  0  0  0  0
   19.9014  -20.9726  -12.2922 N   0  0  0  0  0  0  0  0  0  0  0  0
   22.2617  -21.0901  -12.8618 C   0  0  0  0  0  0  0  0  0  0  0  0
   22.2892  -22.2975  -12.5093 O   0  0  0  0  0  0  0  0  0  0  0  0
   23.3684  -20.6236  -13.6268 N   0  0  0  0  0  0  0  0  0  0  0  0
   24.1997  -21.5340  -14.4183 C   0  0  1  0  0  0  0  0  0  0  0  0
   23.9485  -22.9384  -13.8589 C   0  0  0  0  0  0  0  0  0  0  0  0
   25.2366  -24.0739  -14.4698 S   0  0  0  0  0  0  0  0  0  0  0  0
   23.8887  -21.4577  -15.8464 C   0  0  0  0  0  0  0  0  0  0  0  0
   24.7435  -21.1077  -16.6951 O   0  0  0  0  0  0  0  0  0  0  0  0
   22.6142  -21.7793  -16.2892 O   0  0  0  0  0  0  0  0  0  0  0  0
  2  5  1  0
  2  1  1  6
  3  2  1  0
  4  3  1  0
  5  6  2  0
  7  8  1  0
  9  8  1  1
 10  9  1  0
 10  5  1  0
 11 12  2  0
 11  9  1  0
 13 11  1  0
 14 17  1  0
 14 13  1  0
 14 15  1  1
 16 15  1  0
 17 19  1  0
 18 17  2  0
M  END
$$$$
