CSC.pdb
     RDKit          3D

 19 18  0  0  1  0  0  0  0  0999 V2000
   19.2242  -12.6879  -15.8855 N   0  0  0  0  0  0  0  0  0  0  0  0
   19.2362  -11.6206  -16.8307 C   0  0  1  0  0  0  0  0  0  0  0  0
   17.9043  -11.6798  -17.5923 C   0  0  0  0  0  0  0  0  0  0  0  0
   17.9001  -13.1517  -18.6773 S   0  0  0  0  0  0  0  0  0  0  0  0
   19.3324  -10.2823  -16.2430 C   0  0  0  0  0  0  0  0  0  0  0  0
   18.6886  -10.0569  -15.1848 O   0  0  0  0  0  0  0  0  0  0  0  0
   21.5019   -7.1299  -17.8748 O   0  0  0  0  0  0  0  0  0  0  0  0
   21.4455   -7.1746  -16.4669 C   0  0  0  0  0  0  0  0  0  0  0  0
   20.1687   -7.9321  -16.1150 C   0  0  2  0  0  0  0  0  0  0  0  0
   20.0990   -9.2086  -16.7735 N   0  0  0  0  0  0  0  0  0  0  0  0
   18.9685   -7.0974  -16.3569 C   0  0  0  0  0  0  0  0  0  0  0  0
   18.3114   -7.2284  -17.4217 O   0  0  0  0  0  0  0  0  0  0  0  0
   18.4953   -6.1245  -15.4310 N   0  0  0  0  0  0  0  0  0  0  0  0
   17.4057   -5.2043  -15.7658 C   0  0  1  0  0  0  0  0  0  0  0  0
   16.3314   -5.4039  -14.6914 C   0  0  0  0  0  0  0  0  0  0  0  0
   15.0323   -4.1413  -14.8908 S   0  0  0  0  0  0  0  0  0  0  0  0
   17.8608   -3.8144  -15.8231 C   0  0  0  0  0  0  0  0  0  0  0  0
   18.7797   -3.3848  -15.0853 O   0  0  0  0  0  0  0  0  0  0  0  0
   17.2670   -2.9343  -16.7157 O   0  0  0  0  0  0  0  0  0  0  0  0
  2  5  1  0
  2  1  1  1
  3  2  1  0
  4  3  1  0
  5  6  2  0
  7  8  1  0
  9  8  1  6
 10  9  1  0
 10  5  1  0
 11 12  2  0
 11  9  1  0
 13 11  1  0
 14 17  1  0
 14 13  1  0
 14 15  1  1
 16 15  1  0
 17 19  1  0
 18 17  2  0
M  END
$$$$
