CSC.pdb
     RDKit          3D

 19 18  0  0  1  0  0  0  0  0999 V2000
   17.0701  -11.6317  -11.3415 N   0  0  0  0  0  0  0  0  0  0  0  0
   16.1029  -10.5843  -11.3372 C   0  0  1  0  0  0  0  0  0  0  0  0
   14.8328  -11.1480  -10.6842 C   0  0  0  0  0  0  0  0  0  0  0  0
   14.0956  -12.4016  -11.7928 S   0  0  0  0  0  0  0  0  0  0  0  0
   16.4872   -9.3980  -10.5686 C   0  0  0  0  0  0  0  0  0  0  0  0
   17.0689   -9.5745   -9.4661 O   0  0  0  0  0  0  0  0  0  0  0  0
   17.4230   -6.0099  -12.3013 O   0  0  0  0  0  0  0  0  0  0  0  0
   17.9219   -6.2459  -11.0040 C   0  0  0  0  0  0  0  0  0  0  0  0
   16.8020   -6.9424  -10.2368 C   0  0  2  0  0  0  0  0  0  0  0  0
   16.2555   -8.0533  -10.9685 N   0  0  0  0  0  0  0  0  0  0  0  0
   15.7653   -5.9740   -9.8084 C   0  0  0  0  0  0  0  0  0  0  0  0
   14.8790   -5.5973  -10.6180 O   0  0  0  0  0  0  0  0  0  0  0  0
   15.7058   -5.4244   -8.4962 N   0  0  0  0  0  0  0  0  0  0  0  0
   14.6922   -4.4370   -8.1169 C   0  0  1  0  0  0  0  0  0  0  0  0
   14.3923   -4.6794   -6.6338 C   0  0  0  0  0  0  0  0  0  0  0  0
   13.6439   -6.3284   -6.4281 S   0  0  0  0  0  0  0  0  0  0  0  0
   15.1449   -3.0665   -8.3595 C   0  0  0  0  0  0  0  0  0  0  0  0
   16.3349   -2.8019   -8.6552 O   0  0  0  0  0  0  0  0  0  0  0  0
   14.2416   -2.0183   -8.2632 O   0  0  0  0  0  0  0  0  0  0  0  0
  2  5  1  0
  2  1  1  1
  3  2  1  0
  4  3  1  0
  5  6  2  0
  7  8  1  0
  9  8  1  6
 10  9  1  0
 10  5  1  0
 11 12  2  0
 11  9  1  0
 13 11  1  0
 14 17  1  0
 14 13  1  0
 14 15  1  1
 16 15  1  0
 17 19  1  0
 18 17  2  0
M  END
$$$$
