CSC.pdb
     RDKit          3D

 19 18  0  0  1  0  0  0  0  0999 V2000
   21.7274  -13.5255  -19.4841 N   0  0  0  0  0  0  0  0  0  0  0  0
   22.2793  -12.2170  -19.6100 C   0  0  1  0  0  0  0  0  0  0  0  0
   21.5906  -11.5523  -20.8104 C   0  0  0  0  0  0  0  0  0  0  0  0
   22.2663  -12.2597  -22.3554 S   0  0  0  0  0  0  0  0  0  0  0  0
   22.0581  -11.3445  -18.4543 C   0  0  0  0  0  0  0  0  0  0  0  0
   20.8940  -11.2820  -17.9789 O   0  0  0  0  0  0  0  0  0  0  0  0
   24.8289   -8.6293  -16.8184 O   0  0  0  0  0  0  0  0  0  0  0  0
   24.0195   -9.3428  -15.9110 C   0  0  0  0  0  0  0  0  0  0  0  0
   22.7605   -9.7339  -16.6790 C   0  0  2  0  0  0  0  0  0  0  0  0
   23.0577  -10.5564  -17.8206 N   0  0  0  0  0  0  0  0  0  0  0  0
   21.9553   -8.5400  -17.0282 C   0  0  0  0  0  0  0  0  0  0  0  0
   22.1967   -7.9016  -18.0851 O   0  0  0  0  0  0  0  0  0  0  0  0
   20.8907   -8.0527  -16.2178 N   0  0  0  0  0  0  0  0  0  0  0  0
   20.1455   -6.8407  -16.5672 C   0  0  1  0  0  0  0  0  0  0  0  0
   18.6618   -7.2209  -16.5163 C   0  0  0  0  0  0  0  0  0  0  0  0
   18.3154   -8.4834  -17.7842 S   0  0  0  0  0  0  0  0  0  0  0  0
   20.4501   -5.7308  -15.6631 C   0  0  0  0  0  0  0  0  0  0  0  0
   19.9514   -4.5904  -15.8188 O   0  0  0  0  0  0  0  0  0  0  0  0
   21.3149   -5.9315  -14.5974 O   0  0  0  0  0  0  0  0  0  0  0  0
  2  5  1  0
  2  1  1  1
  3  2  1  0
  4  3  1  0
  5  6  2  0
  7  8  1  0
  9  8  1  6
 10  9  1  0
 10  5  1  0
 11 12  2  0
 11  9  1  0
 13 11  1  0
 14 17  1  0
 14 13  1  0
 14 15  1  1
 16 15  1  0
 17 19  1  0
 18 17  2  0
M  END
$$$$
