CSC.pdb
     RDKit          3D

 19 18  0  0  1  0  0  0  0  0999 V2000
   17.9275  -12.1227  -15.0109 N   0  0  0  0  0  0  0  0  0  0  0  0
   18.0779  -11.1312  -16.0243 C   0  0  1  0  0  0  0  0  0  0  0  0
   16.8526  -11.2385  -16.9433 C   0  0  0  0  0  0  0  0  0  0  0  0
   16.5232  -13.0019  -17.2983 S   0  0  0  0  0  0  0  0  0  0  0  0
   18.1219   -9.7525  -15.5313 C   0  0  0  0  0  0  0  0  0  0  0  0
   18.3222   -8.8344  -16.3692 O   0  0  0  0  0  0  0  0  0  0  0  0
   17.9030   -8.6508  -11.5084 O   0  0  0  0  0  0  0  0  0  0  0  0
   17.4041   -7.7137  -12.4360 C   0  0  0  0  0  0  0  0  0  0  0  0
   18.1180   -7.9971  -13.7543 C   0  0  2  0  0  0  0  0  0  0  0  0
   17.9557   -9.3630  -14.1739 N   0  0  0  0  0  0  0  0  0  0  0  0
   19.5395   -7.5830  -13.6918 C   0  0  0  0  0  0  0  0  0  0  0  0
   20.4116   -8.3797  -13.2588 O   0  0  0  0  0  0  0  0  0  0  0  0
   19.9968   -6.2990  -14.1039 N   0  0  0  0  0  0  0  0  0  0  0  0
   21.4039   -5.9068  -13.9915 C   0  0  1  0  0  0  0  0  0  0  0  0
   22.0574   -6.2693  -15.3293 C   0  0  0  0  0  0  0  0  0  0  0  0
   23.7737   -5.6565  -15.3516 S   0  0  0  0  0  0  0  0  0  0  0  0
   21.5529   -4.4834  -13.6855 C   0  0  0  0  0  0  0  0  0  0  0  0
   20.6471   -3.6517  -13.9333 O   0  0  0  0  0  0  0  0  0  0  0  0
   22.7259   -4.0258  -13.1037 O   0  0  0  0  0  0  0  0  0  0  0  0
  2  5  1  0
  2  1  1  1
  3  2  1  0
  4  3  1  0
  5  6  2  0
  7  8  1  0
  9  8  1  1
 10  9  1  0
 10  5  1  0
 11 12  2  0
 11  9  1  0
 13 11  1  0
 14 17  1  0
 14 13  1  0
 14 15  1  6
 16 15  1  0
 17 19  1  0
 18 17  2  0
M  END
$$$$
