CSC.pdb
     RDKit          3D

 19 18  0  0  1  0  0  0  0  0999 V2000
   19.7913  -13.4772  -16.5071 N   0  0  0  0  0  0  0  0  0  0  0  0
   18.8709  -12.3993  -16.3538 C   0  0  1  0  0  0  0  0  0  0  0  0
   18.4037  -12.4118  -14.8913 C   0  0  0  0  0  0  0  0  0  0  0  0
   17.4210  -13.9242  -14.5897 S   0  0  0  0  0  0  0  0  0  0  0  0
   19.4337  -11.0715  -16.6104 C   0  0  0  0  0  0  0  0  0  0  0  0
   20.6277  -10.8629  -16.2701 O   0  0  0  0  0  0  0  0  0  0  0  0
   17.3105   -7.7589  -18.0281 O   0  0  0  0  0  0  0  0  0  0  0  0
   18.6236   -7.9080  -18.5189 C   0  0  0  0  0  0  0  0  0  0  0  0
   19.3774   -8.7295  -17.4774 C   0  0  2  0  0  0  0  0  0  0  0  0
   18.7369   -9.9905  -17.2171 N   0  0  0  0  0  0  0  0  0  0  0  0
   19.6129   -7.9423  -16.2442 C   0  0  0  0  0  0  0  0  0  0  0  0
   18.8371   -8.0605  -15.2609 O   0  0  0  0  0  0  0  0  0  0  0  0
   20.6966   -7.0306  -16.0958 N   0  0  0  0  0  0  0  0  0  0  0  0
   20.8777   -6.2368  -14.8779 C   0  0  1  0  0  0  0  0  0  0  0  0
   22.3907   -6.1109  -14.6701 C   0  0  0  0  0  0  0  0  0  0  0  0
   22.7170   -5.1534  -13.1541 S   0  0  0  0  0  0  0  0  0  0  0  0
   20.2352   -4.9256  -14.9782 C   0  0  0  0  0  0  0  0  0  0  0  0
   20.2013   -4.2824  -16.0546 O   0  0  0  0  0  0  0  0  0  0  0  0
   19.6417   -4.3648  -13.8570 O   0  0  0  0  0  0  0  0  0  0  0  0
  2  5  1  0
  2  1  1  1
  3  2  1  0
  4  3  1  0
  5  6  2  0
  7  8  1  0
  9  8  1  6
 10  9  1  0
 10  5  1  0
 11 12  2  0
 11  9  1  0
 13 11  1  0
 14 17  1  0
 14 13  1  0
 14 15  1  6
 16 15  1  0
 17 19  1  0
 18 17  2  0
M  END
$$$$
