MKC.pdb
     RDKit          3D

 24 23  0  0  1  0  0  0  0  0999 V2000
    5.5959  -11.8866   27.5447 C   0  0  0  0  0  0  0  0  0  0  0  0
    7.1671  -12.7248   27.7579 S   0  0  0  0  0  0  0  0  0  0  0  0
    7.0878  -14.3537   26.9750 C   0  0  0  0  0  0  0  0  0  0  0  0
    6.0670  -14.3778   25.8500 C   0  0  0  0  0  0  0  0  0  0  0  0
    6.1697  -15.7299   25.1825 C   0  0  2  0  0  0  0  0  0  0  0  0
    6.5572  -16.6993   26.1855 N   0  0  0  0  0  0  0  0  0  0  0  0
    7.1385  -15.7547   24.0882 C   0  0  0  0  0  0  0  0  0  0  0  0
    8.1450  -16.5013   24.1631 O   0  0  0  0  0  0  0  0  0  0  0  0
    7.0271  -14.9715   22.9018 N   0  0  0  0  0  0  0  0  0  0  0  0
    8.0165  -15.0673   21.8315 C   0  0  1  0  0  0  0  0  0  0  0  0
    7.7890  -13.8837   20.9383 C   0  0  0  0  0  0  0  0  0  0  0  0
    8.7020  -13.8338   19.7421 C   0  0  0  0  0  0  0  0  0  0  0  0
    7.9485  -13.7783   18.4440 C   0  0  0  0  0  0  0  0  0  0  0  0
    8.8709  -13.8638   17.2466 C   0  0  0  0  0  0  0  0  0  0  0  0
    8.1547  -14.0010   16.0120 N   0  0  0  0  0  0  0  0  0  0  0  0
    9.3909  -15.1175   22.3795 C   0  0  0  0  0  0  0  0  0  0  0  0
    9.7832  -14.2520   23.1994 O   0  0  0  0  0  0  0  0  0  0  0  0
   10.3176  -16.1308   22.0105 N   0  0  0  0  0  0  0  0  0  0  0  0
   11.7071  -16.0807   22.4230 C   0  0  1  0  0  0  0  0  0  0  0  0
   12.0721  -17.2502   23.3103 C   0  0  0  0  0  0  0  0  0  0  0  0
   10.9863  -17.2710   24.7379 S   0  0  0  0  0  0  0  0  0  0  0  0
   12.5736  -16.1776   21.2083 C   0  0  0  0  0  0  0  0  0  0  0  0
   12.0754  -16.4163   20.0730 O   0  0  0  0  0  0  0  0  0  0  0  0
   13.9398  -16.0093   21.2926 O   0  0  0  0  0  0  0  0  0  0  0  0
  1  2  1  0
  2  3  1  0
  4  3  1  0
  5  4  1  0
  5  6  1  1
  7  8  2  0
  7  5  1  0
  9  7  1  0
 10  9  1  0
 10 11  1  6
 12 13  1  0
 12 11  1  0
 13 14  1  0
 14 15  1  0
 16 17  2  0
 16 10  1  0
 18 16  1  0
 19 18  1  0
 19 20  1  1
 20 21  1  0
 22 19  1  0
 23 22  2  0
 24 22  1  0
M  END
$$$$
