MKC.pdb
     RDKit          3D

 24 23  0  0  1  0  0  0  0  0999 V2000
    7.1633  -11.3420   26.9675 C   0  0  0  0  0  0  0  0  0  0  0  0
    5.5946  -12.1780   27.2062 S   0  0  0  0  0  0  0  0  0  0  0  0
    5.8617  -13.9671   27.1938 C   0  0  0  0  0  0  0  0  0  0  0  0
    6.9574  -14.3562   26.2160 C   0  0  0  0  0  0  0  0  0  0  0  0
    6.3772  -15.3969   25.2861 C   0  0  2  0  0  0  0  0  0  0  0  0
    6.2122  -16.6264   26.0325 N   0  0  0  0  0  0  0  0  0  0  0  0
    7.2179  -15.6514   24.1177 C   0  0  0  0  0  0  0  0  0  0  0  0
    8.1448  -16.4951   24.1881 O   0  0  0  0  0  0  0  0  0  0  0  0
    7.0633  -14.9949   22.8613 N   0  0  0  0  0  0  0  0  0  0  0  0
    8.0349  -15.1731   21.7853 C   0  0  1  0  0  0  0  0  0  0  0  0
    7.7098  -14.1406   20.7466 C   0  0  0  0  0  0  0  0  0  0  0  0
    8.6349  -14.1532   19.5589 C   0  0  0  0  0  0  0  0  0  0  0  0
    7.9651  -13.6772   18.3016 C   0  0  0  0  0  0  0  0  0  0  0  0
    8.8958  -13.7234   17.1085 C   0  0  0  0  0  0  0  0  0  0  0  0
    8.2472  -13.3288   15.8921 N   0  0  0  0  0  0  0  0  0  0  0  0
    9.4205  -15.0591   22.2945 C   0  0  0  0  0  0  0  0  0  0  0  0
    9.7635  -14.0772   22.9970 O   0  0  0  0  0  0  0  0  0  0  0  0
   10.4129  -16.0388   22.0175 N   0  0  0  0  0  0  0  0  0  0  0  0
   11.7738  -15.9039   22.5007 C   0  0  1  0  0  0  0  0  0  0  0  0
   11.9078  -16.3603   23.9366 C   0  0  0  0  0  0  0  0  0  0  0  0
   10.9389  -17.8507   24.1765 S   0  0  0  0  0  0  0  0  0  0  0  0
   12.6636  -16.7868   21.6857 C   0  0  0  0  0  0  0  0  0  0  0  0
   13.9158  -16.7719   21.8458 O   0  0  0  0  0  0  0  0  0  0  0  0
   12.1431  -17.6417   20.7368 O   0  0  0  0  0  0  0  0  0  0  0  0
  1  2  1  0
  2  3  1  0
  4  3  1  0
  5  4  1  0
  5  6  1  1
  7  8  2  0
  7  5  1  0
  9  7  1  0
 10  9  1  0
 10 11  1  6
 12 13  1  0
 12 11  1  0
 13 14  1  0
 14 15  1  0
 16 17  2  0
 16 10  1  0
 18 16  1  0
 19 18  1  0
 19 20  1  1
 20 21  1  0
 22 19  1  0
 23 22  2  0
 24 22  1  0
M  END
$$$$
