MKC.pdb
     RDKit          3D

 24 23  0  0  1  0  0  0  0  0999 V2000
    6.3564  -10.9572   26.6758 C   0  0  0  0  0  0  0  0  0  0  0  0
    6.7613  -12.2844   27.8121 S   0  0  0  0  0  0  0  0  0  0  0  0
    6.2999  -13.8688   27.0710 C   0  0  0  0  0  0  0  0  0  0  0  0
    7.2504  -14.2528   25.9497 C   0  0  0  0  0  0  0  0  0  0  0  0
    6.6479  -15.4444   25.2418 C   0  0  2  0  0  0  0  0  0  0  0  0
    6.6659  -16.5676   26.1551 N   0  0  0  0  0  0  0  0  0  0  0  0
    7.3641  -15.8052   24.0196 C   0  0  0  0  0  0  0  0  0  0  0  0
    8.0992  -16.8228   24.0049 O   0  0  0  0  0  0  0  0  0  0  0  0
    7.2914  -15.0678   22.8013 N   0  0  0  0  0  0  0  0  0  0  0  0
    8.2187  -15.3224   21.7017 C   0  0  1  0  0  0  0  0  0  0  0  0
    7.7606  -14.4689   20.5562 C   0  0  0  0  0  0  0  0  0  0  0  0
    8.6075  -14.5982   19.3181 C   0  0  0  0  0  0  0  0  0  0  0  0
    8.0900  -13.7705   18.1767 C   0  0  0  0  0  0  0  0  0  0  0  0
    8.9132  -13.9563   16.9199 C   0  0  0  0  0  0  0  0  0  0  0  0
    8.3764  -13.2364   15.8020 N   0  0  0  0  0  0  0  0  0  0  0  0
    9.6147  -15.0400   22.1060 C   0  0  0  0  0  0  0  0  0  0  0  0
    9.8644  -14.1632   22.9686 O   0  0  0  0  0  0  0  0  0  0  0  0
   10.7213  -15.7359   21.5468 N   0  0  0  0  0  0  0  0  0  0  0  0
   11.9343  -15.9749   22.3052 C   0  0  1  0  0  0  0  0  0  0  0  0
   11.6730  -16.8236   23.5298 C   0  0  0  0  0  0  0  0  0  0  0  0
   13.2077  -17.0517   24.4299 S   0  0  0  0  0  0  0  0  0  0  0  0
   12.8934  -16.7398   21.4505 C   0  0  0  0  0  0  0  0  0  0  0  0
   12.4791  -17.5439   20.5697 O   0  0  0  0  0  0  0  0  0  0  0  0
   14.2563  -16.5895   21.5992 O   0  0  0  0  0  0  0  0  0  0  0  0
  1  2  1  0
  2  3  1  0
  4  3  1  0
  5  4  1  0
  5  6  1  1
  7  8  2  0
  7  5  1  0
  9  7  1  0
 10  9  1  0
 10 11  1  6
 12 13  1  0
 12 11  1  0
 13 14  1  0
 14 15  1  0
 16 17  2  0
 16 10  1  0
 18 16  1  0
 19 18  1  0
 19 20  1  1
 20 21  1  0
 22 19  1  0
 23 22  2  0
 24 22  1  0
M  END
$$$$
