MKC.pdb
     RDKit          3D

 24 23  0  0  1  0  0  0  0  0999 V2000
    5.9225  -11.2559   25.4635 C   0  0  0  0  0  0  0  0  0  0  0  0
    6.7583  -12.2829   26.6733 S   0  0  0  0  0  0  0  0  0  0  0  0
    6.6589  -14.0146   26.1595 C   0  0  0  0  0  0  0  0  0  0  0  0
    6.6094  -14.1408   24.6463 C   0  0  0  0  0  0  0  0  0  0  0  0
    6.5393  -15.6156   24.3232 C   0  0  2  0  0  0  0  0  0  0  0  0
    5.5144  -16.2108   25.1545 N   0  0  0  0  0  0  0  0  0  0  0  0
    7.8057  -16.3104   24.5472 C   0  0  0  0  0  0  0  0  0  0  0  0
    7.9822  -16.9588   25.6077 O   0  0  0  0  0  0  0  0  0  0  0  0
    8.8936  -16.3101   23.6254 N   0  0  0  0  0  0  0  0  0  0  0  0
   10.1436  -17.0042   23.9238 C   0  0  1  0  0  0  0  0  0  0  0  0
   10.9388  -17.0092   22.6517 C   0  0  0  0  0  0  0  0  0  0  0  0
   10.5658  -18.1142   21.6996 C   0  0  0  0  0  0  0  0  0  0  0  0
   11.2464  -17.9814   20.3673 C   0  0  0  0  0  0  0  0  0  0  0  0
   10.8865  -19.1136   19.4291 C   0  0  0  0  0  0  0  0  0  0  0  0
    9.5630  -18.9814   18.8932 N   0  0  0  0  0  0  0  0  0  0  0  0
   10.8589  -16.3547   25.0457 C   0  0  0  0  0  0  0  0  0  0  0  0
   10.9123  -15.1036   25.1295 O   0  0  0  0  0  0  0  0  0  0  0  0
   11.5088  -17.1031   26.0650 N   0  0  0  0  0  0  0  0  0  0  0  0
   11.8234  -16.5211   27.3557 C   0  0  1  0  0  0  0  0  0  0  0  0
   10.5843  -16.0151   28.0607 C   0  0  0  0  0  0  0  0  0  0  0  0
   11.0638  -15.1840   29.5762 S   0  0  0  0  0  0  0  0  0  0  0  0
   12.4117  -17.5809   28.2310 C   0  0  0  0  0  0  0  0  0  0  0  0
   12.0879  -18.7931   28.0898 O   0  0  0  0  0  0  0  0  0  0  0  0
   13.3236  -17.2658   29.2165 O   0  0  0  0  0  0  0  0  0  0  0  0
  1  2  1  0
  2  3  1  0
  4  3  1  0
  5  4  1  0
  5  6  1  1
  7  8  2  0
  7  5  1  0
  9  7  1  0
 10  9  1  0
 10 11  1  6
 12 13  1  0
 12 11  1  0
 13 14  1  0
 14 15  1  0
 16 17  2  0
 16 10  1  0
 18 16  1  0
 19 18  1  0
 19 20  1  1
 20 21  1  0
 22 19  1  0
 23 22  2  0
 24 22  1  0
M  END
$$$$
