MKC.pdb
     RDKit          3D

 24 23  0  0  1  0  0  0  0  0999 V2000
    7.5456  -11.4003   26.5023 C   0  0  0  0  0  0  0  0  0  0  0  0
    6.4419  -12.2910   27.6001 S   0  0  0  0  0  0  0  0  0  0  0  0
    5.7649  -13.7269   26.7328 C   0  0  0  0  0  0  0  0  0  0  0  0
    6.8700  -14.6216   26.1975 C   0  0  0  0  0  0  0  0  0  0  0  0
    6.2399  -15.5558   25.1902 C   0  0  2  0  0  0  0  0  0  0  0  0
    6.0114  -16.8299   25.8386 N   0  0  0  0  0  0  0  0  0  0  0  0
    7.0689  -15.7603   24.0039 C   0  0  0  0  0  0  0  0  0  0  0  0
    7.8157  -16.7668   23.9308 O   0  0  0  0  0  0  0  0  0  0  0  0
    7.0977  -14.8770   22.8848 N   0  0  0  0  0  0  0  0  0  0  0  0
    8.0300  -15.0807   21.7789 C   0  0  1  0  0  0  0  0  0  0  0  0
    7.8229  -13.9336   20.8345 C   0  0  0  0  0  0  0  0  0  0  0  0
    8.7196  -13.9650   19.6255 C   0  0  0  0  0  0  0  0  0  0  0  0
    7.9488  -14.0012   18.3369 C   0  0  0  0  0  0  0  0  0  0  0  0
    8.8606  -14.0108   17.1285 C   0  0  0  0  0  0  0  0  0  0  0  0
    8.1436  -13.8314   15.8997 N   0  0  0  0  0  0  0  0  0  0  0  0
    9.4240  -15.1773   22.2682 C   0  0  0  0  0  0  0  0  0  0  0  0
    9.8960  -14.2972   23.0284 O   0  0  0  0  0  0  0  0  0  0  0  0
   10.2812  -16.2527   21.9073 N   0  0  0  0  0  0  0  0  0  0  0  0
   11.6677  -16.2981   22.3307 C   0  0  1  0  0  0  0  0  0  0  0  0
   11.9633  -17.5319   23.1543 C   0  0  0  0  0  0  0  0  0  0  0  0
   10.9998  -17.4785   24.6664 S   0  0  0  0  0  0  0  0  0  0  0  0
   12.5390  -16.3735   21.1180 C   0  0  0  0  0  0  0  0  0  0  0  0
   12.0374  -16.4342   19.9610 O   0  0  0  0  0  0  0  0  0  0  0  0
   13.9138  -16.3791   21.2278 O   0  0  0  0  0  0  0  0  0  0  0  0
  1  2  1  0
  2  3  1  0
  4  3  1  0
  5  4  1  0
  5  6  1  1
  7  8  2  0
  7  5  1  0
  9  7  1  0
 10  9  1  0
 10 11  1  6
 12 13  1  0
 12 11  1  0
 13 14  1  0
 14 15  1  0
 16 17  2  0
 16 10  1  0
 18 16  1  0
 19 18  1  0
 19 20  1  1
 20 21  1  0
 22 19  1  0
 23 22  2  0
 24 22  1  0
M  END
$$$$
