MKC.pdb
     RDKit          3D

 24 23  0  0  1  0  0  0  0  0999 V2000
    7.6145  -11.0738   26.0457 C   0  0  0  0  0  0  0  0  0  0  0  0
    6.0108  -11.6734   26.5798 S   0  0  0  0  0  0  0  0  0  0  0  0
    5.7041  -13.2979   25.8453 C   0  0  0  0  0  0  0  0  0  0  0  0
    6.9938  -14.0844   25.6834 C   0  0  0  0  0  0  0  0  0  0  0  0
    6.6575  -15.3400   24.9122 C   0  0  2  0  0  0  0  0  0  0  0  0
    5.7257  -16.1176   25.7015 N   0  0  0  0  0  0  0  0  0  0  0  0
    7.8316  -16.1564   24.6096 C   0  0  0  0  0  0  0  0  0  0  0  0
    8.2201  -17.0199   25.4339 O   0  0  0  0  0  0  0  0  0  0  0  0
    8.5968  -16.0460   23.4114 N   0  0  0  0  0  0  0  0  0  0  0  0
    9.7374  -16.9213   23.1540 C   0  0  1  0  0  0  0  0  0  0  0  0
   10.2573  -16.5503   21.7965 C   0  0  0  0  0  0  0  0  0  0  0  0
   11.3744  -17.4322   21.3056 C   0  0  0  0  0  0  0  0  0  0  0  0
   11.7723  -17.1244   19.8904 C   0  0  0  0  0  0  0  0  0  0  0  0
   12.7972  -18.1049   19.3614 C   0  0  0  0  0  0  0  0  0  0  0  0
   13.3565  -17.6900   18.1079 N   0  0  0  0  0  0  0  0  0  0  0  0
   10.7602  -16.7898   24.2163 C   0  0  0  0  0  0  0  0  0  0  0  0
   11.1479  -15.6569   24.5922 O   0  0  0  0  0  0  0  0  0  0  0  0
   11.3431  -17.9204   24.8515 N   0  0  0  0  0  0  0  0  0  0  0  0
   12.2176  -17.7833   26.0004 C   0  0  1  0  0  0  0  0  0  0  0  0
   11.4604  -17.9225   27.3025 C   0  0  0  0  0  0  0  0  0  0  0  0
   12.6219  -17.8878   28.6689 S   0  0  0  0  0  0  0  0  0  0  0  0
   13.2266  -18.8863   25.9715 C   0  0  0  0  0  0  0  0  0  0  0  0
   12.9264  -20.0293   25.5272 O   0  0  0  0  0  0  0  0  0  0  0  0
   14.5126  -18.6875   26.4285 O   0  0  0  0  0  0  0  0  0  0  0  0
  1  2  1  0
  2  3  1  0
  4  3  1  0
  5  4  1  0
  5  6  1  1
  7  8  2  0
  7  5  1  0
  9  7  1  0
 10  9  1  0
 10 11  1  6
 12 13  1  0
 12 11  1  0
 13 14  1  0
 14 15  1  0
 16 17  2  0
 16 10  1  0
 18 16  1  0
 19 18  1  0
 19 20  1  1
 20 21  1  0
 22 19  1  0
 23 22  2  0
 24 22  1  0
M  END
$$$$
