MKC.pdb
     RDKit          3D

 24 23  0  0  1  0  0  0  0  0999 V2000
    6.4138  -11.0957   25.8447 C   0  0  0  0  0  0  0  0  0  0  0  0
    5.3127  -12.3532   25.1942 S   0  0  0  0  0  0  0  0  0  0  0  0
    6.2773  -13.5752   24.2729 C   0  0  0  0  0  0  0  0  0  0  0  0
    7.6141  -13.0051   23.8300 C   0  0  0  0  0  0  0  0  0  0  0  0
    8.4224  -14.1499   23.2638 C   0  0  2  0  0  0  0  0  0  0  0  0
    7.6852  -14.7166   22.1542 N   0  0  0  0  0  0  0  0  0  0  0  0
    8.6956  -15.1972   24.2463 C   0  0  0  0  0  0  0  0  0  0  0  0
    9.2774  -14.9081   25.3206 O   0  0  0  0  0  0  0  0  0  0  0  0
    8.3417  -16.5679   24.0754 N   0  0  0  0  0  0  0  0  0  0  0  0
    8.6421  -17.5645   25.1001 C   0  0  1  0  0  0  0  0  0  0  0  0
    8.7347  -18.8840   24.3925 C   0  0  0  0  0  0  0  0  0  0  0  0
    8.9790  -20.0546   25.3072 C   0  0  0  0  0  0  0  0  0  0  0  0
    7.7228  -20.8188   25.6134 C   0  0  0  0  0  0  0  0  0  0  0  0
    7.9974  -22.0579   26.4386 C   0  0  0  0  0  0  0  0  0  0  0  0
    6.7968  -22.7581   26.7919 N   0  0  0  0  0  0  0  0  0  0  0  0
    9.8808  -17.2179   25.8333 C   0  0  0  0  0  0  0  0  0  0  0  0
   10.9617  -17.0521   25.2175 O   0  0  0  0  0  0  0  0  0  0  0  0
    9.9061  -17.0587   27.2460 N   0  0  0  0  0  0  0  0  0  0  0  0
   11.1417  -16.8094   27.9635 C   0  0  1  0  0  0  0  0  0  0  0  0
   10.9517  -15.8023   29.0761 C   0  0  0  0  0  0  0  0  0  0  0  0
   10.1283  -14.3484   28.4237 S   0  0  0  0  0  0  0  0  0  0  0  0
   11.5885  -18.0819   28.6090 C   0  0  0  0  0  0  0  0  0  0  0  0
   10.9190  -19.1446   28.4810 O   0  0  0  0  0  0  0  0  0  0  0  0
   12.7431  -18.1316   29.3618 O   0  0  0  0  0  0  0  0  0  0  0  0
  1  2  1  0
  2  3  1  0
  4  3  1  0
  5  4  1  0
  5  6  1  6
  7  8  2  0
  7  5  1  0
  9  7  1  0
 10  9  1  0
 10 11  1  6
 12 13  1  0
 12 11  1  0
 13 14  1  0
 14 15  1  0
 16 17  2  0
 16 10  1  0
 18 16  1  0
 19 18  1  0
 19 20  1  1
 20 21  1  0
 22 19  1  0
 23 22  2  0
 24 22  1  0
M  END
$$$$
