MKC.pdb
     RDKit          3D

 24 23  0  0  1  0  0  0  0  0999 V2000
    6.3715  -11.9752   27.3634 C   0  0  0  0  0  0  0  0  0  0  0  0
    7.7948  -13.0087   27.7135 S   0  0  0  0  0  0  0  0  0  0  0  0
    7.6779  -14.5351   26.7497 C   0  0  0  0  0  0  0  0  0  0  0  0
    6.3007  -14.6928   26.1279 C   0  0  0  0  0  0  0  0  0  0  0  0
    6.3139  -15.9783   25.3332 C   0  0  2  0  0  0  0  0  0  0  0  0
    6.7160  -17.0511   26.2182 N   0  0  0  0  0  0  0  0  0  0  0  0
    7.2208  -15.9326   24.1877 C   0  0  0  0  0  0  0  0  0  0  0  0
    8.1654  -16.7557   24.1069 O   0  0  0  0  0  0  0  0  0  0  0  0
    7.1141  -14.9953   23.1184 N   0  0  0  0  0  0  0  0  0  0  0  0
    8.0564  -15.0042   22.0023 C   0  0  1  0  0  0  0  0  0  0  0  0
    7.7694  -13.7718   21.1966 C   0  0  0  0  0  0  0  0  0  0  0  0
    8.6420  -13.6178   19.9795 C   0  0  0  0  0  0  0  0  0  0  0  0
    7.8961  -13.8682   18.7001 C   0  0  0  0  0  0  0  0  0  0  0  0
    8.7902  -13.7385   17.4854 C   0  0  0  0  0  0  0  0  0  0  0  0
    8.1323  -14.1384   16.2756 N   0  0  0  0  0  0  0  0  0  0  0  0
    9.4546  -15.0614   22.4861 C   0  0  0  0  0  0  0  0  0  0  0  0
    9.8503  -14.2829   23.3875 O   0  0  0  0  0  0  0  0  0  0  0  0
   10.4007  -15.9845   21.9625 N   0  0  0  0  0  0  0  0  0  0  0  0
   11.8028  -15.9308   22.3299 C   0  0  1  0  0  0  0  0  0  0  0  0
   12.2631  -17.2175   22.9785 C   0  0  0  0  0  0  0  0  0  0  0  0
   11.4507  -17.4029   24.5668 S   0  0  0  0  0  0  0  0  0  0  0  0
   12.6193  -15.7604   21.0890 C   0  0  0  0  0  0  0  0  0  0  0  0
   12.0792  -15.7851   19.9481 O   0  0  0  0  0  0  0  0  0  0  0  0
   13.9839  -15.5716   21.1546 O   0  0  0  0  0  0  0  0  0  0  0  0
  1  2  1  0
  2  3  1  0
  4  3  1  0
  5  4  1  0
  5  6  1  1
  7  8  2  0
  7  5  1  0
  9  7  1  0
 10  9  1  0
 10 11  1  1
 12 13  1  0
 12 11  1  0
 13 14  1  0
 14 15  1  0
 16 17  2  0
 16 10  1  0
 18 16  1  0
 19 18  1  0
 19 20  1  6
 20 21  1  0
 22 19  1  0
 23 22  2  0
 24 22  1  0
M  END
$$$$
