MKC.pdb
     RDKit          3D

 24 23  0  0  1  0  0  0  0  0999 V2000
    7.5779  -11.6504   26.9033 C   0  0  0  0  0  0  0  0  0  0  0  0
    6.0935  -12.5264   26.4078 S   0  0  0  0  0  0  0  0  0  0  0  0
    6.1227  -14.1958   27.1042 C   0  0  0  0  0  0  0  0  0  0  0  0
    7.1983  -15.0483   26.4526 C   0  0  0  0  0  0  0  0  0  0  0  0
    6.5847  -15.6794   25.2240 C   0  0  2  0  0  0  0  0  0  0  0  0
    5.9588  -16.9230   25.6211 N   0  0  0  0  0  0  0  0  0  0  0  0
    7.5620  -15.9464   24.1702 C   0  0  0  0  0  0  0  0  0  0  0  0
    8.1789  -17.0396   24.1542 O   0  0  0  0  0  0  0  0  0  0  0  0
    7.8810  -15.0323   23.1233 N   0  0  0  0  0  0  0  0  0  0  0  0
    9.0310  -15.2484   22.2491 C   0  0  1  0  0  0  0  0  0  0  0  0
    9.0122  -14.1359   21.2428 C   0  0  0  0  0  0  0  0  0  0  0  0
    8.2293  -14.4501   19.9958 C   0  0  0  0  0  0  0  0  0  0  0  0
    8.3101  -13.3533   18.9729 C   0  0  0  0  0  0  0  0  0  0  0  0
    7.4944  -13.6668   17.7368 C   0  0  0  0  0  0  0  0  0  0  0  0
    7.5450  -12.6134   16.7652 N   0  0  0  0  0  0  0  0  0  0  0  0
   10.2897  -15.2980   23.0271 C   0  0  0  0  0  0  0  0  0  0  0  0
   10.4523  -14.5555   24.0257 O   0  0  0  0  0  0  0  0  0  0  0  0
   11.3570  -16.1736   22.6870 N   0  0  0  0  0  0  0  0  0  0  0  0
   12.4598  -16.4209   23.5960 C   0  0  1  0  0  0  0  0  0  0  0  0
   12.0587  -17.3396   24.7288 C   0  0  0  0  0  0  0  0  0  0  0  0
   13.5072  -17.7369   25.7094 S   0  0  0  0  0  0  0  0  0  0  0  0
   13.5533  -17.1145   22.8485 C   0  0  0  0  0  0  0  0  0  0  0  0
   13.3566  -17.5749   21.6895 O   0  0  0  0  0  0  0  0  0  0  0  0
   14.8066  -17.2712   23.4024 O   0  0  0  0  0  0  0  0  0  0  0  0
  1  2  1  0
  2  3  1  0
  4  3  1  0
  5  4  1  0
  5  6  1  1
  7  8  2  0
  7  5  1  0
  9  7  1  0
 10  9  1  0
 10 11  1  6
 12 13  1  0
 12 11  1  0
 13 14  1  0
 14 15  1  0
 16 17  2  0
 16 10  1  0
 18 16  1  0
 19 18  1  0
 19 20  1  1
 20 21  1  0
 22 19  1  0
 23 22  2  0
 24 22  1  0
M  END
$$$$
