MKC.pdb
     RDKit          3D

 24 23  0  0  1  0  0  0  0  0999 V2000
    6.3571  -11.8315   26.6027 C   0  0  0  0  0  0  0  0  0  0  0  0
    7.2736  -13.0218   27.5825 S   0  0  0  0  0  0  0  0  0  0  0  0
    7.2427  -14.6297   26.7540 C   0  0  0  0  0  0  0  0  0  0  0  0
    6.2877  -14.6250   25.5724 C   0  0  0  0  0  0  0  0  0  0  0  0
    6.3554  -15.9951   24.9379 C   0  0  2  0  0  0  0  0  0  0  0  0
    6.4034  -16.9805   25.9974 N   0  0  0  0  0  0  0  0  0  0  0  0
    7.5179  -16.1652   24.0682 C   0  0  0  0  0  0  0  0  0  0  0  0
    8.3088  -17.1203   24.2639 O   0  0  0  0  0  0  0  0  0  0  0  0
    7.8357  -15.3027   22.9780 N   0  0  0  0  0  0  0  0  0  0  0  0
    9.0310  -15.5131   22.1652 C   0  0  1  0  0  0  0  0  0  0  0  0
    9.0506  -14.4100   21.1486 C   0  0  0  0  0  0  0  0  0  0  0  0
    8.0610  -14.5907   20.0285 C   0  0  0  0  0  0  0  0  0  0  0  0
    8.1563  -13.5055   18.9945 C   0  0  0  0  0  0  0  0  0  0  0  0
    7.1576  -13.6985   17.8733 C   0  0  0  0  0  0  0  0  0  0  0  0
    7.2114  -12.6432   16.9040 N   0  0  0  0  0  0  0  0  0  0  0  0
   10.2491  -15.5406   23.0063 C   0  0  0  0  0  0  0  0  0  0  0  0
   10.4700  -14.6286   23.8397 O   0  0  0  0  0  0  0  0  0  0  0  0
   11.2114  -16.5831   22.9129 N   0  0  0  0  0  0  0  0  0  0  0  0
   12.1521  -16.8511   23.9838 C   0  0  1  0  0  0  0  0  0  0  0  0
   11.4566  -17.3525   25.2300 C   0  0  0  0  0  0  0  0  0  0  0  0
   12.6874  -17.7809   26.4625 S   0  0  0  0  0  0  0  0  0  0  0  0
   13.0829  -17.9364   23.5464 C   0  0  0  0  0  0  0  0  0  0  0  0
   14.1659  -18.1490   24.1595 O   0  0  0  0  0  0  0  0  0  0  0  0
   12.7859  -18.7356   22.4623 O   0  0  0  0  0  0  0  0  0  0  0  0
  1  2  1  0
  2  3  1  0
  4  3  1  0
  5  4  1  0
  5  6  1  1
  7  8  2  0
  7  5  1  0
  9  7  1  0
 10  9  1  0
 10 11  1  6
 12 13  1  0
 12 11  1  0
 13 14  1  0
 14 15  1  0
 16 17  2  0
 16 10  1  0
 18 16  1  0
 19 18  1  0
 19 20  1  1
 20 21  1  0
 22 19  1  0
 23 22  2  0
 24 22  1  0
M  END
$$$$
