MKC.pdb
     RDKit          3D

 24 23  0  0  1  0  0  0  0  0999 V2000
    7.7890  -11.6994   20.0745 C   0  0  0  0  0  0  0  0  0  0  0  0
    7.7806  -12.8104   18.6666 S   0  0  0  0  0  0  0  0  0  0  0  0
    7.9299  -14.5165   19.2493 C   0  0  0  0  0  0  0  0  0  0  0  0
    6.8641  -14.8440   20.2813 C   0  0  0  0  0  0  0  0  0  0  0  0
    7.0767  -16.2797   20.7028 C   0  0  2  0  0  0  0  0  0  0  0  0
    6.1362  -17.1066   19.9764 N   0  0  0  0  0  0  0  0  0  0  0  0
    6.8928  -16.4870   22.1380 C   0  0  0  0  0  0  0  0  0  0  0  0
    5.7343  -16.5112   22.6213 O   0  0  0  0  0  0  0  0  0  0  0  0
    7.9613  -16.6703   23.0644 N   0  0  0  0  0  0  0  0  0  0  0  0
    7.7344  -16.6216   24.5065 C   0  0  1  0  0  0  0  0  0  0  0  0
    8.0691  -17.9857   25.0335 C   0  0  0  0  0  0  0  0  0  0  0  0
    7.8608  -18.1382   26.5168 C   0  0  0  0  0  0  0  0  0  0  0  0
    8.2745  -19.4912   27.0208 C   0  0  0  0  0  0  0  0  0  0  0  0
    7.9332  -19.6824   28.4833 C   0  0  0  0  0  0  0  0  0  0  0  0
    8.3777  -20.9486   28.9886 N   0  0  0  0  0  0  0  0  0  0  0  0
    8.5382  -15.5495   25.1363 C   0  0  0  0  0  0  0  0  0  0  0  0
    9.6901  -15.7886   25.5734 O   0  0  0  0  0  0  0  0  0  0  0  0
    8.0532  -14.2201   25.2743 N   0  0  0  0  0  0  0  0  0  0  0  0
    8.0971  -13.5201   26.5438 C   0  0  1  0  0  0  0  0  0  0  0  0
    6.7219  -13.3867   27.1595 C   0  0  0  0  0  0  0  0  0  0  0  0
    6.0010  -11.8209   26.6634 S   0  0  0  0  0  0  0  0  0  0  0  0
    8.9212  -14.3164   27.5042 C   0  0  0  0  0  0  0  0  0  0  0  0
    9.6859  -13.7462   28.3314 O   0  0  0  0  0  0  0  0  0  0  0  0
    8.8700  -15.6946   27.5145 O   0  0  0  0  0  0  0  0  0  0  0  0
  1  2  1  0
  2  3  1  0
  4  3  1  0
  5  4  1  0
  5  6  1  6
  7  8  2  0
  7  5  1  0
  9  7  1  0
 10  9  1  0
 10 11  1  1
 12 13  1  0
 12 11  1  0
 13 14  1  0
 14 15  1  0
 16 17  2  0
 16 10  1  0
 18 16  1  0
 19 18  1  0
 19 20  1  1
 20 21  1  0
 22 19  1  0
 23 22  2  0
 24 22  1  0
M  END
$$$$
