MKC.pdb
     RDKit          3D

 24 23  0  0  1  0  0  0  0  0999 V2000
    7.0351  -11.0820   25.8445 C   0  0  0  0  0  0  0  0  0  0  0  0
    6.0533  -11.9338   27.0803 S   0  0  0  0  0  0  0  0  0  0  0  0
    5.6761  -13.6044   26.4979 C   0  0  0  0  0  0  0  0  0  0  0  0
    6.8977  -14.2644   25.8813 C   0  0  0  0  0  0  0  0  0  0  0  0
    6.4401  -15.5688   25.2702 C   0  0  2  0  0  0  0  0  0  0  0  0
    5.9814  -16.4308   26.3391 N   0  0  0  0  0  0  0  0  0  0  0  0
    7.4942  -16.2495   24.5205 C   0  0  0  0  0  0  0  0  0  0  0  0
    8.1743  -17.1470   25.0756 O   0  0  0  0  0  0  0  0  0  0  0  0
    7.8226  -15.9652   23.1623 N   0  0  0  0  0  0  0  0  0  0  0  0
    8.9071  -16.6659   22.4793 C   0  0  1  0  0  0  0  0  0  0  0  0
    8.7943  -16.3065   21.0272 C   0  0  0  0  0  0  0  0  0  0  0  0
    9.7874  -17.0115   20.1421 C   0  0  0  0  0  0  0  0  0  0  0  0
    9.6347  -16.6405   18.6947 C   0  0  0  0  0  0  0  0  0  0  0  0
   10.5604  -17.4389   17.8018 C   0  0  0  0  0  0  0  0  0  0  0  0
   10.5400  -16.9816   16.4429 N   0  0  0  0  0  0  0  0  0  0  0  0
   10.2213  -16.3075   23.0592 C   0  0  0  0  0  0  0  0  0  0  0  0
   10.5003  -15.1113   23.3171 O   0  0  0  0  0  0  0  0  0  0  0  0
   11.2143  -17.2835   23.3473 N   0  0  0  0  0  0  0  0  0  0  0  0
   12.4683  -16.9307   23.9850 C   0  0  1  0  0  0  0  0  0  0  0  0
   12.6342  -17.6233   25.3195 C   0  0  0  0  0  0  0  0  0  0  0  0
   11.2844  -17.1516   26.4025 S   0  0  0  0  0  0  0  0  0  0  0  0
   13.5956  -17.3938   23.1188 C   0  0  0  0  0  0  0  0  0  0  0  0
   13.3739  -18.0023   22.0350 O   0  0  0  0  0  0  0  0  0  0  0  0
   14.9083  -17.1701   23.4780 O   0  0  0  0  0  0  0  0  0  0  0  0
  1  2  1  0
  2  3  1  0
  4  3  1  0
  5  4  1  0
  5  6  1  1
  7  8  2  0
  7  5  1  0
  9  7  1  0
 10  9  1  0
 10 11  1  6
 12 13  1  0
 12 11  1  0
 13 14  1  0
 14 15  1  0
 16 17  2  0
 16 10  1  0
 18 16  1  0
 19 18  1  0
 19 20  1  1
 20 21  1  0
 22 19  1  0
 23 22  2  0
 24 22  1  0
M  END
$$$$
