MKC.pdb
     RDKit          3D

 24 23  0  0  1  0  0  0  0  0999 V2000
    7.4354  -11.5242   26.4244 C   0  0  0  0  0  0  0  0  0  0  0  0
    5.9289  -12.3714   26.9033 S   0  0  0  0  0  0  0  0  0  0  0  0
    6.3220  -14.0748   27.3687 C   0  0  0  0  0  0  0  0  0  0  0  0
    7.2878  -14.7090   26.3822 C   0  0  0  0  0  0  0  0  0  0  0  0
    6.4572  -15.4072   25.3300 C   0  0  2  0  0  0  0  0  0  0  0  0
    5.9194  -16.6191   25.9114 N   0  0  0  0  0  0  0  0  0  0  0  0
    7.2213  -15.7455   24.1307 C   0  0  0  0  0  0  0  0  0  0  0  0
    7.9508  -16.7672   24.1236 O   0  0  0  0  0  0  0  0  0  0  0  0
    7.2030  -14.9811   22.9271 N   0  0  0  0  0  0  0  0  0  0  0  0
    8.1116  -15.2792   21.8229 C   0  0  1  0  0  0  0  0  0  0  0  0
    7.7742  -14.3138   20.7253 C   0  0  0  0  0  0  0  0  0  0  0  0
    8.5327  -14.5499   19.4463 C   0  0  0  0  0  0  0  0  0  0  0  0
    8.0045  -13.7311   18.3034 C   0  0  0  0  0  0  0  0  0  0  0  0
    8.6746  -14.0844   16.9927 C   0  0  0  0  0  0  0  0  0  0  0  0
    8.1572  -13.3263   15.8910 N   0  0  0  0  0  0  0  0  0  0  0  0
    9.5244  -15.1858   22.2556 C   0  0  0  0  0  0  0  0  0  0  0  0
    9.8502  -14.4469   23.2163 O   0  0  0  0  0  0  0  0  0  0  0  0
   10.5631  -15.9158   21.6153 N   0  0  0  0  0  0  0  0  0  0  0  0
   11.8173  -16.2038   22.2843 C   0  0  1  0  0  0  0  0  0  0  0  0
   11.6424  -17.2174   23.3934 C   0  0  0  0  0  0  0  0  0  0  0  0
   11.6492  -16.3710   24.9748 S   0  0  0  0  0  0  0  0  0  0  0  0
   12.7621  -16.8087   21.2960 C   0  0  0  0  0  0  0  0  0  0  0  0
   12.3339  -17.3871   20.2586 O   0  0  0  0  0  0  0  0  0  0  0  0
   14.1267  -16.7527   21.4885 O   0  0  0  0  0  0  0  0  0  0  0  0
  1  2  1  0
  2  3  1  0
  4  3  1  0
  5  4  1  0
  5  6  1  1
  7  8  2  0
  7  5  1  0
  9  7  1  0
 10  9  1  0
 10 11  1  6
 12 13  1  0
 12 11  1  0
 13 14  1  0
 14 15  1  0
 16 17  2  0
 16 10  1  0
 18 16  1  0
 19 18  1  0
 19 20  1  1
 20 21  1  0
 22 19  1  0
 23 22  2  0
 24 22  1  0
M  END
$$$$
