NSI.pdb
     RDKit          3D

 23 22  0  0  1  0  0  0  0  0999 V2000
   16.8252  -15.3068  -18.9794 N   0  0  0  0  0  0  0  0  0  0  0  0
   18.0459  -15.4023  -18.2478 C   0  0  0  0  0  0  0  0  0  0  0  0
   18.2175  -16.4505  -17.5722 O   0  0  0  0  0  0  0  0  0  0  0  0
   19.0201  -14.2960  -18.3186 C   0  0  0  0  0  0  0  0  0  0  0  0
   18.5327  -13.2224  -19.2459 C   0  0  2  0  0  0  0  0  0  0  0  0
   18.9347  -13.5512  -20.5975 N   0  0  0  0  0  0  0  0  0  0  0  0
   19.1004  -11.9070  -18.8696 C   0  0  0  0  0  0  0  0  0  0  0  0
   20.3048  -11.6461  -19.0960 O   0  0  0  0  0  0  0  0  0  0  0  0
   18.1982   -7.3373  -17.6579 O   0  0  0  0  0  0  0  0  0  0  0  0
   17.6950   -8.5958  -17.9577 C   0  0  0  0  0  0  0  0  0  0  0  0
   18.8416   -9.5860  -17.9492 C   0  0  2  0  0  0  0  0  0  0  0  0
   18.3026  -10.9106  -18.2459 N   0  0  0  0  0  0  0  0  0  0  0  0
   19.4533   -9.5644  -16.5985 C   0  0  0  0  0  0  0  0  0  0  0  0
   18.9159  -10.2695  -15.6827 O   0  0  0  0  0  0  0  0  0  0  0  0
   23.9423  -11.3189  -15.1626 C   0  0  0  0  0  0  0  0  0  0  0  0
   22.5410  -10.8010  -15.3256 C   0  0  0  0  0  0  0  0  0  0  0  0
   22.4732   -9.3909  -14.7739 C   0  0  2  0  0  0  0  0  0  0  0  0
   22.8673   -9.4181  -13.3096 C   0  0  0  0  0  0  0  0  0  0  0  0
   21.0751   -8.8241  -14.8822 C   0  0  2  0  0  0  0  0  0  0  0  0
   20.5923   -8.8227  -16.2359 N   0  0  0  0  0  0  0  0  0  0  0  0
   21.1008   -7.4511  -14.3161 C   0  0  0  0  0  0  0  0  0  0  0  0
   20.8486   -7.1928  -12.9944 O   0  0  0  0  0  0  0  0  0  0  0  0
   21.3639   -6.4896  -15.0781 O   0  0  0  0  0  0  0  0  0  0  0  0
  1  2  1  0
  2  4  1  0
  3  2  2  0
  4  5  1  0
  5  7  1  0
  5  6  1  6
  7 12  1  0
  7  8  2  0
 10  9  1  0
 11 10  1  1
 11 13  1  0
 12 11  1  0
 13 14  2  0
 13 20  1  0
 16 17  1  0
 16 15  1  0
 17 19  1  0
 17 18  1  1
 19 21  1  0
 19 20  1  6
 21 22  1  0
 23 21  2  0
M  END
$$$$
