NSI.pdb
     RDKit          3D

 23 22  0  0  1  0  0  0  0  0999 V2000
   16.5923  -16.3229  -16.0917 N   0  0  0  0  0  0  0  0  0  0  0  0
   16.7527  -15.1221  -16.8445 C   0  0  0  0  0  0  0  0  0  0  0  0
   15.7327  -14.6922  -17.4439 O   0  0  0  0  0  0  0  0  0  0  0  0
   18.0723  -14.4622  -16.8812 C   0  0  0  0  0  0  0  0  0  0  0  0
   18.3443  -13.9022  -18.2460 C   0  0  2  0  0  0  0  0  0  0  0  0
   19.0397  -14.8993  -19.0326 N   0  0  0  0  0  0  0  0  0  0  0  0
   19.1754  -12.6795  -18.1549 C   0  0  0  0  0  0  0  0  0  0  0  0
   20.3506  -12.7400  -17.7246 O   0  0  0  0  0  0  0  0  0  0  0  0
   18.8054   -9.3396  -20.6487 O   0  0  0  0  0  0  0  0  0  0  0  0
   18.7697   -9.1170  -19.2790 C   0  0  0  0  0  0  0  0  0  0  0  0
   19.5292  -10.2329  -18.5911 C   0  0  2  0  0  0  0  0  0  0  0  0
   18.6687  -11.4122  -18.5495 N   0  0  0  0  0  0  0  0  0  0  0  0
   19.8591   -9.7814  -17.2177 C   0  0  0  0  0  0  0  0  0  0  0  0
   19.0042   -9.9861  -16.2948 O   0  0  0  0  0  0  0  0  0  0  0  0
   23.7934  -11.3734  -14.4093 C   0  0  0  0  0  0  0  0  0  0  0  0
   22.5210  -10.8378  -15.0031 C   0  0  0  0  0  0  0  0  0  0  0  0
   22.5298   -9.3258  -14.8963 C   0  0  2  0  0  0  0  0  0  0  0  0
   22.6104   -8.9385  -13.4321 C   0  0  0  0  0  0  0  0  0  0  0  0
   21.2707   -8.7254  -15.4809 C   0  0  2  0  0  0  0  0  0  0  0  0
   21.0519   -9.1382  -16.8401 N   0  0  0  0  0  0  0  0  0  0  0  0
   21.3858   -7.2482  -15.3765 C   0  0  0  0  0  0  0  0  0  0  0  0
   21.6078   -6.4464  -16.4652 O   0  0  0  0  0  0  0  0  0  0  0  0
   21.2755   -6.7131  -14.2470 O   0  0  0  0  0  0  0  0  0  0  0  0
  1  2  1  0
  2  4  1  0
  3  2  2  0
  4  5  1  0
  5  7  1  0
  5  6  1  6
  7 12  1  0
  7  8  2  0
 10  9  1  0
 11 10  1  1
 11 13  1  0
 12 11  1  0
 13 14  2  0
 13 20  1  0
 16 17  1  0
 16 15  1  0
 17 19  1  0
 17 18  1  1
 19 21  1  0
 19 20  1  6
 21 22  1  0
 23 21  2  0
M  END
$$$$
