NSI.pdb
     RDKit          3D

 23 22  0  0  1  0  0  0  0  0999 V2000
   19.3160  -13.7437  -15.6947 N   0  0  0  0  0  0  0  0  0  0  0  0
   18.1732  -13.0141  -16.1377 C   0  0  0  0  0  0  0  0  0  0  0  0
   17.1863  -13.6929  -16.5245 O   0  0  0  0  0  0  0  0  0  0  0  0
   18.2057  -11.5387  -16.1204 C   0  0  0  0  0  0  0  0  0  0  0  0
   17.0887  -10.9964  -15.2787 C   0  0  2  0  0  0  0  0  0  0  0  0
   15.8551  -11.0664  -16.0338 N   0  0  0  0  0  0  0  0  0  0  0  0
   17.3540   -9.5895  -14.8987 C   0  0  0  0  0  0  0  0  0  0  0  0
   17.5765   -8.7245  -15.7774 O   0  0  0  0  0  0  0  0  0  0  0  0
   17.8176   -8.5560  -10.9339 O   0  0  0  0  0  0  0  0  0  0  0  0
   17.2131   -7.5937  -11.7312 C   0  0  0  0  0  0  0  0  0  0  0  0
   17.6639   -7.8034  -13.1623 C   0  0  2  0  0  0  0  0  0  0  0  0
   17.3641   -9.1827  -13.5375 N   0  0  0  0  0  0  0  0  0  0  0  0
   19.1245   -7.5543  -13.2219 C   0  0  0  0  0  0  0  0  0  0  0  0
   19.9098   -8.4818  -12.8375 O   0  0  0  0  0  0  0  0  0  0  0  0
   23.5494   -6.9073  -16.6970 C   0  0  0  0  0  0  0  0  0  0  0  0
   23.1319   -6.4733  -15.3201 C   0  0  0  0  0  0  0  0  0  0  0  0
   21.6296   -6.6289  -15.1926 C   0  0  2  0  0  0  0  0  0  0  0  0
   20.9549   -5.7050  -16.1883 C   0  0  0  0  0  0  0  0  0  0  0  0
   21.1544   -6.2639  -13.8038 C   0  0  2  0  0  0  0  0  0  0  0  0
   19.7267   -6.3659  -13.6735 N   0  0  0  0  0  0  0  0  0  0  0  0
   21.6265   -4.8858  -13.5141 C   0  0  0  0  0  0  0  0  0  0  0  0
   22.8844   -4.6210  -13.0396 O   0  0  0  0  0  0  0  0  0  0  0  0
   20.8429   -3.9259  -13.7115 O   0  0  0  0  0  0  0  0  0  0  0  0
  1  2  1  0
  2  4  1  0
  3  2  2  0
  4  5  1  0
  5  7  1  0
  5  6  1  6
  7 12  1  0
  7  8  2  0
 10  9  1  0
 11 10  1  1
 11 13  1  0
 12 11  1  0
 13 14  2  0
 13 20  1  0
 16 17  1  0
 16 15  1  0
 17 19  1  0
 17 18  1  6
 19 21  1  0
 19 20  1  6
 21 22  1  0
 23 21  2  0
M  END
$$$$
