NSI.pdb
     RDKit          3D

 23 22  0  0  1  0  0  0  0  0999 V2000
   16.4643  -16.9671  -15.1867 N   0  0  0  0  0  0  0  0  0  0  0  0
   17.7512  -16.6180  -14.6803 C   0  0  0  0  0  0  0  0  0  0  0  0
   18.1422  -17.2396  -13.6579 O   0  0  0  0  0  0  0  0  0  0  0  0
   18.5382  -15.5729  -15.3634 C   0  0  0  0  0  0  0  0  0  0  0  0
   17.7752  -15.0146  -16.5280 C   0  0  2  0  0  0  0  0  0  0  0  0
   18.0630  -15.8103  -17.7030 N   0  0  0  0  0  0  0  0  0  0  0  0
   18.1601  -13.6067  -16.7804 C   0  0  0  0  0  0  0  0  0  0  0  0
   19.2667  -13.3335  -17.3008 O   0  0  0  0  0  0  0  0  0  0  0  0
   15.8872  -10.5838  -15.2763 O   0  0  0  0  0  0  0  0  0  0  0  0
   16.4323  -10.2827  -16.5170 C   0  0  0  0  0  0  0  0  0  0  0  0
   17.6586  -11.1477  -16.7254 C   0  0  2  0  0  0  0  0  0  0  0  0
   17.2930  -12.5331  -16.4428 N   0  0  0  0  0  0  0  0  0  0  0  0
   18.7084  -10.6851  -15.7858 C   0  0  0  0  0  0  0  0  0  0  0  0
   18.7369  -11.1931  -14.6171 O   0  0  0  0  0  0  0  0  0  0  0  0
   23.8181  -10.2586  -17.0803 C   0  0  0  0  0  0  0  0  0  0  0  0
   22.4373  -10.4495  -16.5185 C   0  0  0  0  0  0  0  0  0  0  0  0
   22.0602   -9.2187  -15.7183 C   0  0  2  0  0  0  0  0  0  0  0  0
   23.0674   -9.0339  -14.5996 C   0  0  0  0  0  0  0  0  0  0  0  0
   20.6851   -9.3611  -15.1047 C   0  0  2  0  0  0  0  0  0  0  0  0
   19.6903   -9.7209  -16.0776 N   0  0  0  0  0  0  0  0  0  0  0  0
   20.3523   -8.0741  -14.4420 C   0  0  0  0  0  0  0  0  0  0  0  0
   19.4161   -7.2072  -14.9413 O   0  0  0  0  0  0  0  0  0  0  0  0
   20.9521   -7.7684  -13.3831 O   0  0  0  0  0  0  0  0  0  0  0  0
  1  2  1  0
  2  4  1  0
  3  2  2  0
  4  5  1  0
  5  7  1  0
  5  6  1  6
  7 12  1  0
  7  8  2  0
 10  9  1  0
 11 10  1  1
 11 13  1  0
 12 11  1  0
 13 14  2  0
 13 20  1  0
 16 17  1  0
 16 15  1  0
 17 19  1  0
 17 18  1  1
 19 21  1  0
 19 20  1  6
 21 22  1  0
 23 21  2  0
M  END
$$$$
