NSI.pdb
     RDKit          3D

 23 22  0  0  1  0  0  0  0  0999 V2000
   14.6221  -15.2116  -16.1866 N   0  0  0  0  0  0  0  0  0  0  0  0
   15.6385  -14.9011  -15.2353 C   0  0  0  0  0  0  0  0  0  0  0  0
   15.5193  -15.4186  -14.0940 O   0  0  0  0  0  0  0  0  0  0  0  0
   16.7492  -14.0120  -15.6276 C   0  0  0  0  0  0  0  0  0  0  0  0
   16.4945  -13.4150  -16.9800 C   0  0  2  0  0  0  0  0  0  0  0  0
   16.6332  -14.4495  -17.9836 N   0  0  0  0  0  0  0  0  0  0  0  0
   17.4565  -12.3242  -17.2611 C   0  0  0  0  0  0  0  0  0  0  0  0
   18.6060  -12.5841  -17.6864 O   0  0  0  0  0  0  0  0  0  0  0  0
   18.1614   -7.5935  -17.8713 O   0  0  0  0  0  0  0  0  0  0  0  0
   17.2671   -8.6359  -17.6694 C   0  0  0  0  0  0  0  0  0  0  0  0
   18.0548   -9.8877  -17.3410 C   0  0  2  0  0  0  0  0  0  0  0  0
   17.1068  -10.9622  -17.0586 N   0  0  0  0  0  0  0  0  0  0  0  0
   18.8880   -9.6027  -16.1478 C   0  0  0  0  0  0  0  0  0  0  0  0
   18.3660   -9.7643  -14.9963 O   0  0  0  0  0  0  0  0  0  0  0  0
   23.4908  -11.7078  -15.0688 C   0  0  0  0  0  0  0  0  0  0  0  0
   22.1315  -11.0708  -15.1400 C   0  0  0  0  0  0  0  0  0  0  0  0
   22.2771   -9.5798  -14.9088 C   0  0  2  0  0  0  0  0  0  0  0  0
   22.8814   -9.3535  -13.5363 C   0  0  0  0  0  0  0  0  0  0  0  0
   20.9368   -8.8810  -14.9622 C   0  0  2  0  0  0  0  0  0  0  0  0
   20.2243   -9.1639  -16.1778 N   0  0  0  0  0  0  0  0  0  0  0  0
   21.1819   -7.4245  -14.8056 C   0  0  0  0  0  0  0  0  0  0  0  0
   21.3503   -6.8317  -13.5819 O   0  0  0  0  0  0  0  0  0  0  0  0
   21.2370   -6.7084  -15.8345 O   0  0  0  0  0  0  0  0  0  0  0  0
  1  2  1  0
  2  4  1  0
  3  2  2  0
  4  5  1  0
  5  7  1  0
  5  6  1  6
  7 12  1  0
  7  8  2  0
 10  9  1  0
 11 10  1  1
 11 13  1  0
 12 11  1  0
 13 14  2  0
 13 20  1  0
 16 17  1  0
 16 15  1  0
 17 19  1  0
 17 18  1  1
 19 21  1  0
 19 20  1  6
 21 22  1  0
 23 21  2  0
M  END
$$$$
