NSI.pdb
     RDKit          3D

 23 22  0  0  1  0  0  0  0  0999 V2000
   22.3571  -14.7366  -21.6870 N   0  0  0  0  0  0  0  0  0  0  0  0
   21.2585  -13.8864  -21.3637 C   0  0  0  0  0  0  0  0  0  0  0  0
   20.4580  -13.6199  -22.2979 O   0  0  0  0  0  0  0  0  0  0  0  0
   21.1200  -13.3759  -19.9859 C   0  0  0  0  0  0  0  0  0  0  0  0
   22.2305  -13.8904  -19.1186 C   0  0  2  0  0  0  0  0  0  0  0  0
   21.9609  -15.2725  -18.7813 N   0  0  0  0  0  0  0  0  0  0  0  0
   22.3375  -13.0922  -17.8754 C   0  0  0  0  0  0  0  0  0  0  0  0
   21.4210  -13.1192  -17.0215 O   0  0  0  0  0  0  0  0  0  0  0  0
   25.6586  -12.3626  -15.6297 O   0  0  0  0  0  0  0  0  0  0  0  0
   25.0573  -11.2202  -16.1399 C   0  0  0  0  0  0  0  0  0  0  0  0
   23.5904  -11.5148  -16.3775 C   0  0  2  0  0  0  0  0  0  0  0  0
   23.4734  -12.2791  -17.6166 N   0  0  0  0  0  0  0  0  0  0  0  0
   22.8781  -10.2196  -16.4966 C   0  0  0  0  0  0  0  0  0  0  0  0
   22.9848   -9.5719  -17.5892 O   0  0  0  0  0  0  0  0  0  0  0  0
   17.7870   -9.5459  -14.9217 C   0  0  0  0  0  0  0  0  0  0  0  0
   19.2534   -9.3180  -14.6848 C   0  0  0  0  0  0  0  0  0  0  0  0
   19.8607   -8.7041  -15.9305 C   0  0  2  0  0  0  0  0  0  0  0  0
   19.6903   -9.6712  -17.0864 C   0  0  0  0  0  0  0  0  0  0  0  0
   21.3376   -8.4339  -15.7471 C   0  0  2  0  0  0  0  0  0  0  0  0
   22.0828   -9.6363  -15.4935 N   0  0  0  0  0  0  0  0  0  0  0  0
   21.4825   -7.4629  -14.6325 C   0  0  0  0  0  0  0  0  0  0  0  0
   21.0512   -6.1655  -14.7231 O   0  0  0  0  0  0  0  0  0  0  0  0
   22.0212   -7.8454  -13.5658 O   0  0  0  0  0  0  0  0  0  0  0  0
  1  2  1  0
  2  4  1  0
  3  2  2  0
  4  5  1  0
  5  7  1  0
  5  6  1  1
  7 12  1  0
  7  8  2  0
 10  9  1  0
 11 10  1  6
 11 13  1  0
 12 11  1  0
 13 14  2  0
 13 20  1  0
 16 17  1  0
 16 15  1  0
 17 19  1  0
 17 18  1  6
 19 21  1  0
 19 20  1  1
 21 22  1  0
 23 21  2  0
M  END
$$$$
