NSI.pdb
     RDKit          3D

 23 22  0  0  1  0  0  0  0  0999 V2000
   36.6052  -31.6543  -15.9028 N   0  0  0  0  0  0  0  0  0  0  0  0
   35.4353  -31.8125  -16.7033 C   0  0  0  0  0  0  0  0  0  0  0  0
   35.5661  -32.4700  -17.7688 O   0  0  0  0  0  0  0  0  0  0  0  0
   34.1642  -31.2128  -16.2531 C   0  0  0  0  0  0  0  0  0  0  0  0
   33.0609  -31.5276  -17.2194 C   0  0  2  0  0  0  0  0  0  0  0  0
   33.2370  -30.7242  -18.4111 N   0  0  0  0  0  0  0  0  0  0  0  0
   31.7388  -31.2346  -16.6191 C   0  0  0  0  0  0  0  0  0  0  0  0
   31.3784  -31.8068  -15.5643 O   0  0  0  0  0  0  0  0  0  0  0  0
   29.4084  -28.8220  -18.6556 O   0  0  0  0  0  0  0  0  0  0  0  0
   28.9377  -28.8389  -17.3498 C   0  0  0  0  0  0  0  0  0  0  0  0
   29.5319  -30.0385  -16.6405 C   0  0  2  0  0  0  0  0  0  0  0  0
   30.8474  -30.3037  -17.2169 N   0  0  0  0  0  0  0  0  0  0  0  0
   28.6266  -31.1925  -16.8589 C   0  0  0  0  0  0  0  0  0  0  0  0
   28.7540  -31.8626  -17.9356 O   0  0  0  0  0  0  0  0  0  0  0  0
   25.7611  -35.8087  -14.2324 C   0  0  0  0  0  0  0  0  0  0  0  0
   25.8101  -34.8936  -15.4234 C   0  0  0  0  0  0  0  0  0  0  0  0
   26.6787  -33.6980  -15.0864 C   0  0  2  0  0  0  0  0  0  0  0  0
   26.0438  -32.9394  -13.9368 C   0  0  0  0  0  0  0  0  0  0  0  0
   26.8056  -32.7598  -16.2660 C   0  0  2  0  0  0  0  0  0  0  0  0
   27.6256  -31.6181  -15.9668 N   0  0  0  0  0  0  0  0  0  0  0  0
   25.4347  -32.3510  -16.6655 C   0  0  0  0  0  0  0  0  0  0  0  0
   24.8975  -31.1375  -16.3243 O   0  0  0  0  0  0  0  0  0  0  0  0
   24.7409  -33.1479  -17.3422 O   0  0  0  0  0  0  0  0  0  0  0  0
  1  2  1  0
  2  4  1  0
  3  2  2  0
  4  5  1  0
  5  7  1  0
  5  6  1  6
  7 12  1  0
  7  8  2  0
 10  9  1  0
 11 10  1  6
 11 13  1  0
 12 11  1  0
 13 14  2  0
 13 20  1  0
 16 17  1  0
 16 15  1  0
 17 19  1  0
 17 18  1  1
 19 21  1  0
 19 20  1  1
 21 22  1  0
 23 21  2  0
M  END
$$$$
