NSI.pdb
     RDKit          3D

 23 22  0  0  1  0  0  0  0  0999 V2000
   14.1846  -13.4505  -14.9753 N   0  0  0  0  0  0  0  0  0  0  0  0
   15.1624  -13.0738  -14.0076 C   0  0  0  0  0  0  0  0  0  0  0  0
   14.8699  -13.2806  -12.8008 O   0  0  0  0  0  0  0  0  0  0  0  0
   16.4342  -12.4763  -14.4589 C   0  0  0  0  0  0  0  0  0  0  0  0
   16.4476  -12.3297  -15.9517 C   0  0  2  0  0  0  0  0  0  0  0  0
   16.7875  -13.6057  -16.5459 N   0  0  0  0  0  0  0  0  0  0  0  0
   17.4397  -11.3122  -16.3697 C   0  0  0  0  0  0  0  0  0  0  0  0
   18.6619  -11.5872  -16.3915 O   0  0  0  0  0  0  0  0  0  0  0  0
   16.1993   -7.5278  -17.0630 O   0  0  0  0  0  0  0  0  0  0  0  0
   17.2479   -7.8924  -17.8963 C   0  0  0  0  0  0  0  0  0  0  0  0
   18.0080   -9.0284  -17.2429 C   0  0  2  0  0  0  0  0  0  0  0  0
   17.0379  -10.0051  -16.7550 N   0  0  0  0  0  0  0  0  0  0  0  0
   18.7905   -8.4655  -16.1161 C   0  0  0  0  0  0  0  0  0  0  0  0
   18.2850   -8.5164  -14.9471 O   0  0  0  0  0  0  0  0  0  0  0  0
   23.3476  -10.0072  -14.4272 C   0  0  0  0  0  0  0  0  0  0  0  0
   21.9762   -9.4500  -14.6868 C   0  0  0  0  0  0  0  0  0  0  0  0
   22.0808   -7.9461  -14.8444 C   0  0  2  0  0  0  0  0  0  0  0  0
   22.6668   -7.3599  -13.5742 C   0  0  0  0  0  0  0  0  0  0  0  0
   20.7232   -7.3213  -15.0772 C   0  0  2  0  0  0  0  0  0  0  0  0
   20.0612   -7.8724  -16.2276 N   0  0  0  0  0  0  0  0  0  0  0  0
   20.9202   -5.8558  -15.2173 C   0  0  0  0  0  0  0  0  0  0  0  0
   21.0629   -5.0237  -14.1381 O   0  0  0  0  0  0  0  0  0  0  0  0
   20.9574   -5.3598  -16.3693 O   0  0  0  0  0  0  0  0  0  0  0  0
  1  2  1  0
  2  4  1  0
  3  2  2  0
  4  5  1  0
  5  7  1  0
  5  6  1  6
  7 12  1  0
  7  8  2  0
 10  9  1  0
 11 10  1  1
 11 13  1  0
 12 11  1  0
 13 14  2  0
 13 20  1  0
 16 17  1  0
 16 15  1  0
 17 19  1  0
 17 18  1  1
 19 21  1  0
 19 20  1  6
 21 22  1  0
 23 21  2  0
M  END
$$$$
