NSI.pdb
     RDKit          3D

 23 22  0  0  1  0  0  0  0  0999 V2000
   29.6266  -22.4421  -17.6093 N   0  0  0  0  0  0  0  0  0  0  0  0
   29.1361  -22.8505  -16.3336 C   0  0  0  0  0  0  0  0  0  0  0  0
   29.7259  -23.8188  -15.7868 O   0  0  0  0  0  0  0  0  0  0  0  0
   27.9919  -22.1353  -15.7357 C   0  0  0  0  0  0  0  0  0  0  0  0
   27.5513  -21.0094  -16.6236 C   0  0  2  0  0  0  0  0  0  0  0  0
   28.6558  -20.0896  -16.7988 N   0  0  0  0  0  0  0  0  0  0  0  0
   26.4018  -20.2905  -16.0272 C   0  0  0  0  0  0  0  0  0  0  0  0
   25.6003  -20.8882  -15.2721 O   0  0  0  0  0  0  0  0  0  0  0  0
   26.1042  -16.2952  -16.5949 O   0  0  0  0  0  0  0  0  0  0  0  0
   25.4821  -16.7648  -15.4462 C   0  0  0  0  0  0  0  0  0  0  0  0
   25.0563  -18.1994  -15.6829 C   0  0  2  0  0  0  0  0  0  0  0  0
   26.1758  -18.9130  -16.2917 N   0  0  0  0  0  0  0  0  0  0  0  0
   23.8900  -18.1841  -16.5986 C   0  0  0  0  0  0  0  0  0  0  0  0
   24.1096  -18.1191  -17.8525 O   0  0  0  0  0  0  0  0  0  0  0  0
   19.4901  -21.3376  -16.2531 C   0  0  0  0  0  0  0  0  0  0  0  0
   20.1492  -20.0054  -16.0309 C   0  0  0  0  0  0  0  0  0  0  0  0
   20.8227  -19.5721  -17.3178 C   0  0  2  0  0  0  0  0  0  0  0  0
   21.8905  -20.5872  -17.6780 C   0  0  0  0  0  0  0  0  0  0  0  0
   21.4815  -18.2191  -17.1657 C   0  0  2  0  0  0  0  0  0  0  0  0
   22.5429  -18.2370  -16.1969 N   0  0  0  0  0  0  0  0  0  0  0  0
   20.4254  -17.2436  -16.7925 C   0  0  0  0  0  0  0  0  0  0  0  0
   20.3700  -16.6520  -15.5579 O   0  0  0  0  0  0  0  0  0  0  0  0
   19.5492  -16.9494  -17.6412 O   0  0  0  0  0  0  0  0  0  0  0  0
  1  2  1  0
  2  4  1  0
  3  2  2  0
  4  5  1  0
  5  7  1  0
  5  6  1  1
  7 12  1  0
  7  8  2  0
 10  9  1  0
 11 10  1  6
 11 13  1  0
 12 11  1  0
 13 14  2  0
 13 20  1  0
 16 17  1  0
 16 15  1  0
 17 19  1  0
 17 18  1  1
 19 21  1  0
 19 20  1  1
 21 22  1  0
 23 21  2  0
M  END
$$$$
