NSI.pdb
     RDKit          3D

 23 22  0  0  1  0  0  0  0  0999 V2000
   19.0726  -13.5308  -16.6486 N   0  0  0  0  0  0  0  0  0  0  0  0
   19.5439  -12.6124  -17.6329 C   0  0  0  0  0  0  0  0  0  0  0  0
   20.2365  -13.0939  -18.5672 O   0  0  0  0  0  0  0  0  0  0  0  0
   19.2040  -11.1816  -17.5089 C   0  0  0  0  0  0  0  0  0  0  0  0
   18.3597  -10.9435  -16.2920 C   0  0  2  0  0  0  0  0  0  0  0  0
   17.0111  -11.3975  -16.5601 N   0  0  0  0  0  0  0  0  0  0  0  0
   18.3347   -9.5038  -15.9447 C   0  0  0  0  0  0  0  0  0  0  0  0
   18.1706   -8.6377  -16.8351 O   0  0  0  0  0  0  0  0  0  0  0  0
   18.6631   -8.4138  -12.0429 O   0  0  0  0  0  0  0  0  0  0  0  0
   17.9864   -7.5014  -12.8408 C   0  0  0  0  0  0  0  0  0  0  0  0
   18.4853   -7.6453  -14.2641 C   0  0  2  0  0  0  0  0  0  0  0  0
   18.4946   -9.0660  -14.6027 N   0  0  0  0  0  0  0  0  0  0  0  0
   19.8579   -7.0874  -14.3252 C   0  0  0  0  0  0  0  0  0  0  0  0
   20.8364   -7.8675  -14.0832 O   0  0  0  0  0  0  0  0  0  0  0  0
   21.5118   -3.3344  -17.8978 C   0  0  0  0  0  0  0  0  0  0  0  0
   21.4157   -4.5495  -17.0187 C   0  0  0  0  0  0  0  0  0  0  0  0
   21.7623   -4.1537  -15.5972 C   0  0  2  0  0  0  0  0  0  0  0  0
   23.2250   -3.7563  -15.5420 C   0  0  0  0  0  0  0  0  0  0  0  0
   21.5423   -5.3015  -14.6371 C   0  0  2  0  0  0  0  0  0  0  0  0
   20.1777   -5.7524  -14.6326 N   0  0  0  0  0  0  0  0  0  0  0  0
   21.9660   -4.8473  -13.2878 C   0  0  0  0  0  0  0  0  0  0  0  0
   23.1947   -5.1465  -12.7604 O   0  0  0  0  0  0  0  0  0  0  0  0
   21.1674   -4.1627  -12.6038 O   0  0  0  0  0  0  0  0  0  0  0  0
  1  2  1  0
  2  4  1  0
  3  2  2  0
  4  5  1  0
  5  7  1  0
  5  6  1  6
  7 12  1  0
  7  8  2  0
 10  9  1  0
 11 10  1  1
 11 13  1  0
 12 11  1  0
 13 14  2  0
 13 20  1  0
 16 17  1  0
 16 15  1  0
 17 19  1  0
 17 18  1  6
 19 21  1  0
 19 20  1  1
 21 22  1  0
 23 21  2  0
M  END
$$$$
