NSI.pdb
     RDKit          3D

 23 22  0  0  1  0  0  0  0  0999 V2000
   15.0969  -15.2713  -15.0247 N   0  0  0  0  0  0  0  0  0  0  0  0
   15.3579  -15.3396  -16.4254 C   0  0  0  0  0  0  0  0  0  0  0  0
   15.1362  -16.4442  -16.9868 O   0  0  0  0  0  0  0  0  0  0  0  0
   15.8617  -14.1426  -17.1264 C   0  0  0  0  0  0  0  0  0  0  0  0
   15.9292  -12.9724  -16.1904 C   0  0  2  0  0  0  0  0  0  0  0  0
   14.6674  -12.2633  -16.2335 N   0  0  0  0  0  0  0  0  0  0  0  0
   17.0240  -12.0531  -16.5784 C   0  0  0  0  0  0  0  0  0  0  0  0
   18.1974  -12.4761  -16.6972 O   0  0  0  0  0  0  0  0  0  0  0  0
   16.2884   -8.0707  -16.7658 O   0  0  0  0  0  0  0  0  0  0  0  0
   17.2397   -8.4747  -17.6925 C   0  0  0  0  0  0  0  0  0  0  0  0
   17.8577   -9.7718  -17.2120 C   0  0  2  0  0  0  0  0  0  0  0  0
   16.7779  -10.6758  -16.8252 N   0  0  0  0  0  0  0  0  0  0  0  0
   18.7194   -9.4622  -16.0455 C   0  0  0  0  0  0  0  0  0  0  0  0
   18.2057   -9.5349  -14.8812 O   0  0  0  0  0  0  0  0  0  0  0  0
   23.4163  -11.5062  -14.9636 C   0  0  0  0  0  0  0  0  0  0  0  0
   22.0391  -10.9053  -14.9943 C   0  0  0  0  0  0  0  0  0  0  0  0
   22.1593   -9.3997  -14.8669 C   0  0  2  0  0  0  0  0  0  0  0  0
   22.7955   -9.0702  -13.5301 C   0  0  0  0  0  0  0  0  0  0  0  0
   20.8035   -8.7321  -14.9285 C   0  0  2  0  0  0  0  0  0  0  0  0
   20.0744   -9.0906  -16.1141 N   0  0  0  0  0  0  0  0  0  0  0  0
   21.0202   -7.2648  -14.8502 C   0  0  0  0  0  0  0  0  0  0  0  0
   21.1186   -6.5958  -13.6585 O   0  0  0  0  0  0  0  0  0  0  0  0
   21.1169   -6.6117  -15.9172 O   0  0  0  0  0  0  0  0  0  0  0  0
  1  2  1  0
  2  4  1  0
  3  2  2  0
  4  5  1  0
  5  7  1  0
  5  6  1  6
  7 12  1  0
  7  8  2  0
 10  9  1  0
 11 10  1  1
 11 13  1  0
 12 11  1  0
 13 14  2  0
 13 20  1  0
 16 17  1  0
 16 15  1  0
 17 19  1  0
 17 18  1  1
 19 21  1  0
 19 20  1  6
 21 22  1  0
 23 21  2  0
M  END
$$$$
