NSI.pdb
     RDKit          3D

 23 22  0  0  1  0  0  0  0  0999 V2000
   21.2108  -19.7529  -13.3978 N   0  0  0  0  0  0  0  0  0  0  0  0
   20.6730  -20.4211  -12.2582 C   0  0  0  0  0  0  0  0  0  0  0  0
   19.4579  -20.7445  -12.3158 O   0  0  0  0  0  0  0  0  0  0  0  0
   21.5463  -20.6920  -11.0997 C   0  0  0  0  0  0  0  0  0  0  0  0
   22.9229  -20.1456  -11.3375 C   0  0  2  0  0  0  0  0  0  0  0  0
   23.2920  -20.3869  -12.7167 N   0  0  0  0  0  0  0  0  0  0  0  0
   23.9074  -20.7974  -10.4431 C   0  0  0  0  0  0  0  0  0  0  0  0
   23.5628  -21.2103   -9.3115 O   0  0  0  0  0  0  0  0  0  0  0  0
   27.9764  -20.5766  -11.2229 O   0  0  0  0  0  0  0  0  0  0  0  0
   27.5275  -21.7794  -10.6951 C   0  0  0  0  0  0  0  0  0  0  0  0
   26.2541  -21.5171   -9.9173 C   0  0  2  0  0  0  0  0  0  0  0  0
   25.2607  -20.9723  -10.8389 N   0  0  0  0  0  0  0  0  0  0  0  0
   26.5654  -20.5365   -8.8494 C   0  0  0  0  0  0  0  0  0  0  0  0
   26.1604  -19.3370   -8.9966 O   0  0  0  0  0  0  0  0  0  0  0  0
   27.9500  -21.6445   -3.4098 C   0  0  0  0  0  0  0  0  0  0  0  0
   27.2249  -21.0580   -4.5883 C   0  0  0  0  0  0  0  0  0  0  0  0
   28.2246  -20.3306   -5.4653 C   0  0  2  0  0  0  0  0  0  0  0  0
   28.8063  -19.1676   -4.6847 C   0  0  0  0  0  0  0  0  0  0  0  0
   27.5677  -19.7869   -6.7145 C   0  0  2  0  0  0  0  0  0  0  0  0
   27.2786  -20.8204   -7.6705 N   0  0  0  0  0  0  0  0  0  0  0  0
   28.4727  -18.7581   -7.2878 C   0  0  0  0  0  0  0  0  0  0  0  0
   28.3713  -17.4283   -6.9735 O   0  0  0  0  0  0  0  0  0  0  0  0
   29.3654  -19.1207   -8.0915 O   0  0  0  0  0  0  0  0  0  0  0  0
  1  2  1  0
  2  4  1  0
  3  2  2  0
  4  5  1  0
  5  7  1  0
  5  6  1  6
  7 12  1  0
  7  8  2  0
 10  9  1  0
 11 10  1  6
 11 13  1  0
 12 11  1  0
 13 14  2  0
 13 20  1  0
 16 17  1  0
 16 15  1  0
 17 19  1  0
 17 18  1  1
 19 21  1  0
 19 20  1  6
 21 22  1  0
 23 21  2  0
M  END
$$$$
