CCF.pdb
     RDKit          3D

 24 24  0  0  1  0  0  0  0  0999 V2000
    7.9862  -14.9947   17.2968 N   0  0  0  0  0  0  0  0  0  0  0  0
    8.1808  -14.4161   18.6139 C   0  0  1  0  0  0  0  0  0  0  0  0
    7.6309  -13.0211   18.6638 C   0  0  0  0  0  0  0  0  0  0  0  0
    8.9470  -11.8625   18.1963 S   0  0  0  0  0  0  0  0  0  0  0  0
    7.6749  -15.2973   19.6764 C   0  0  0  0  0  0  0  0  0  0  0  0
    6.5836  -15.8921   19.4785 O   0  0  0  0  0  0  0  0  0  0  0  0
    8.3454  -15.5189   20.9170 N   0  0  0  0  0  0  0  0  0  0  0  0
    7.8654  -16.3920   21.9373 C   0  0  1  0  0  0  0  0  0  0  0  0
    7.5408  -17.7791   21.4236 C   0  0  0  0  0  0  0  0  0  0  0  0
    7.3559  -18.9860   22.7414 S   0  0  0  0  0  0  0  0  0  0  0  0
    8.8164  -16.4786   23.0985 C   0  0  0  0  0  0  0  0  0  0  0  0
    9.9790  -16.9356   22.9529 O   0  0  0  0  0  0  0  0  0  0  0  0
    8.3782  -16.0332   24.3712 N   0  0  0  0  0  0  0  0  0  0  0  0
    9.3728  -15.8847   25.4342 C   0  0  1  0  0  0  0  0  0  0  0  0
    9.6125  -14.4362   25.7128 C   0  0  0  0  0  0  0  0  0  0  0  0
    8.3546  -13.7564   26.0523 C   0  0  0  0  0  0  0  0  0  0  0  0
    8.1651  -13.3004   27.3399 C   0  0  0  0  0  0  0  0  0  0  0  0
    7.0092  -12.6246   27.7146 C   0  0  0  0  0  0  0  0  0  0  0  0
    6.0151  -12.3924   26.7979 C   0  0  0  0  0  0  0  0  0  0  0  0
    6.1958  -12.8444   25.5089 C   0  0  0  0  0  0  0  0  0  0  0  0
    7.3435  -13.5130   25.1448 C   0  0  0  0  0  0  0  0  0  0  0  0
    8.9204  -16.5709   26.6548 C   0  0  0  0  0  0  0  0  0  0  0  0
    9.6662  -16.5593   27.6702 O   0  0  0  0  0  0  0  0  0  0  0  0
    7.7212  -17.2090   26.7074 O   0  0  0  0  0  0  0  0  0  0  0  0
  2  1  1  6
  2  5  1  0
  3  2  1  0
  4  3  1  0
  5  6  2  0
  7  8  1  0
  7  5  1  0
  8 11  1  0
  9 10  1  0
  8  9  1  6
 11 12  2  0
 11 13  1  0
 13 14  1  0
 14 22  1  0
 14 15  1  1
 16 15  1  0
 16 17  2  0
 18 17  1  0
 19 18  2  0
 20 21  2  0
 20 19  1  0
 21 16  1  0
 22 23  2  0
 22 24  1  0
M  END
$$$$
