CCF.pdb
     RDKit          3D

 24 24  0  0  1  0  0  0  0  0999 V2000
    7.6119  -15.2203   17.1740 N   0  0  0  0  0  0  0  0  0  0  0  0
    8.4255  -15.4300   18.3578 C   0  0  1  0  0  0  0  0  0  0  0  0
    9.4020  -14.3045   18.5330 C   0  0  0  0  0  0  0  0  0  0  0  0
    8.5196  -12.7333   18.3190 S   0  0  0  0  0  0  0  0  0  0  0  0
    7.6010  -15.6975   19.5453 C   0  0  0  0  0  0  0  0  0  0  0  0
    6.3505  -15.6250   19.4227 O   0  0  0  0  0  0  0  0  0  0  0  0
    8.1320  -16.0338   20.8270 N   0  0  0  0  0  0  0  0  0  0  0  0
    7.3309  -16.3642   21.9596 C   0  0  1  0  0  0  0  0  0  0  0  0
    6.4115  -17.5414   21.7099 C   0  0  0  0  0  0  0  0  0  0  0  0
    6.1720  -18.5618   23.1690 S   0  0  0  0  0  0  0  0  0  0  0  0
    8.1638  -16.6082   23.1873 C   0  0  0  0  0  0  0  0  0  0  0  0
    9.1136  -17.4324   23.1742 O   0  0  0  0  0  0  0  0  0  0  0  0
    7.8588  -15.8882   24.3700 N   0  0  0  0  0  0  0  0  0  0  0  0
    8.8433  -15.8843   25.4526 C   0  0  1  0  0  0  0  0  0  0  0  0
    9.2948  -14.4869   25.7294 C   0  0  0  0  0  0  0  0  0  0  0  0
    8.1432  -13.6056   25.9680 C   0  0  0  0  0  0  0  0  0  0  0  0
    7.8591  -13.2077   27.2575 C   0  0  0  0  0  0  0  0  0  0  0  0
    6.8013  -12.3519   27.5433 C   0  0  0  0  0  0  0  0  0  0  0  0
    6.0034  -11.8762   26.5335 C   0  0  0  0  0  0  0  0  0  0  0  0
    6.2799  -12.2684   25.2419 C   0  0  0  0  0  0  0  0  0  0  0  0
    7.3295  -13.1163   24.9662 C   0  0  0  0  0  0  0  0  0  0  0  0
    8.2679  -16.4844   26.6667 C   0  0  0  0  0  0  0  0  0  0  0  0
    7.0621  -16.8494   26.6513 O   0  0  0  0  0  0  0  0  0  0  0  0
    9.0082  -16.6537   27.7943 O   0  0  0  0  0  0  0  0  0  0  0  0
  2  1  1  6
  2  5  1  0
  3  2  1  0
  4  3  1  0
  5  6  2  0
  7  8  1  0
  7  5  1  0
  8 11  1  0
  9 10  1  0
  8  9  1  6
 11 12  2  0
 11 13  1  0
 13 14  1  0
 14 22  1  0
 14 15  1  1
 16 15  1  0
 16 17  2  0
 18 17  1  0
 19 18  2  0
 20 21  2  0
 20 19  1  0
 21 16  1  0
 22 23  2  0
 22 24  1  0
M  END
$$$$
