CCF.pdb
     RDKit          3D

 24 24  0  0  1  0  0  0  0  0999 V2000
    7.8103  -14.3287   17.4048 N   0  0  0  0  0  0  0  0  0  0  0  0
    8.8632  -14.3308   18.4043 C   0  0  1  0  0  0  0  0  0  0  0  0
    9.1528  -12.9337   18.8684 C   0  0  0  0  0  0  0  0  0  0  0  0
    7.7185  -12.3227   19.7970 S   0  0  0  0  0  0  0  0  0  0  0  0
    8.5789  -15.2765   19.4933 C   0  0  0  0  0  0  0  0  0  0  0  0
    7.7508  -16.1981   19.2720 O   0  0  0  0  0  0  0  0  0  0  0  0
    9.1840  -15.2130   20.7846 N   0  0  0  0  0  0  0  0  0  0  0  0
    9.0363  -16.2193   21.7842 C   0  0  1  0  0  0  0  0  0  0  0  0
    9.4751  -17.5898   21.3124 C   0  0  0  0  0  0  0  0  0  0  0  0
   11.1856  -17.6248   20.7645 S   0  0  0  0  0  0  0  0  0  0  0  0
    9.7478  -15.8572   23.0582 C   0  0  0  0  0  0  0  0  0  0  0  0
   10.5031  -14.8533   23.1172 O   0  0  0  0  0  0  0  0  0  0  0  0
    9.5523  -16.6723   24.2017 N   0  0  0  0  0  0  0  0  0  0  0  0
    8.9632  -16.0633   25.3948 C   0  0  1  0  0  0  0  0  0  0  0  0
    7.6145  -15.5061   25.0728 C   0  0  0  0  0  0  0  0  0  0  0  0
    7.4161  -14.2087   25.7341 C   0  0  0  0  0  0  0  0  0  0  0  0
    8.4179  -13.7051   26.5369 C   0  0  0  0  0  0  0  0  0  0  0  0
    8.3011  -12.4706   27.1658 C   0  0  0  0  0  0  0  0  0  0  0  0
    7.1690  -11.7134   26.9997 C   0  0  0  0  0  0  0  0  0  0  0  0
    6.1628  -12.2087   26.1992 C   0  0  0  0  0  0  0  0  0  0  0  0
    6.2854  -13.4323   25.5793 C   0  0  0  0  0  0  0  0  0  0  0  0
    8.8601  -17.0564   26.4757 C   0  0  0  0  0  0  0  0  0  0  0  0
    8.8474  -16.6553   27.6700 O   0  0  0  0  0  0  0  0  0  0  0  0
    8.7759  -18.3872   26.2114 O   0  0  0  0  0  0  0  0  0  0  0  0
  2  1  1  6
  2  5  1  0
  3  2  1  0
  4  3  1  0
  5  6  2  0
  7  8  1  0
  7  5  1  0
  8 11  1  0
  9 10  1  0
  8  9  1  6
 11 12  2  0
 11 13  1  0
 13 14  1  0
 14 22  1  0
 14 15  1  6
 16 15  1  0
 16 17  2  0
 18 17  1  0
 19 18  2  0
 20 21  2  0
 20 19  1  0
 21 16  1  0
 22 23  2  0
 22 24  1  0
M  END
$$$$
