CCF.pdb
     RDKit          3D

 24 24  0  0  1  0  0  0  0  0999 V2000
    6.2460  -18.0179   18.2841 N   0  0  0  0  0  0  0  0  0  0  0  0
    7.3574  -17.7450   19.1772 C   0  0  1  0  0  0  0  0  0  0  0  0
    8.3280  -16.7968   18.5370 C   0  0  0  0  0  0  0  0  0  0  0  0
    7.7500  -15.0996   18.8167 S   0  0  0  0  0  0  0  0  0  0  0  0
    6.8965  -17.3221   20.5076 C   0  0  0  0  0  0  0  0  0  0  0  0
    5.8895  -16.5697   20.5704 O   0  0  0  0  0  0  0  0  0  0  0  0
    7.5207  -17.7125   21.7305 N   0  0  0  0  0  0  0  0  0  0  0  0
    7.1110  -17.2523   23.0166 C   0  0  1  0  0  0  0  0  0  0  0  0
    6.1387  -18.1920   23.6985 C   0  0  0  0  0  0  0  0  0  0  0  0
    6.9504  -19.5969   24.4699 S   0  0  0  0  0  0  0  0  0  0  0  0
    8.2834  -16.9768   23.9166 C   0  0  0  0  0  0  0  0  0  0  0  0
    9.3696  -17.5948   23.7754 O   0  0  0  0  0  0  0  0  0  0  0  0
    8.1440  -16.0011   24.9358 N   0  0  0  0  0  0  0  0  0  0  0  0
    9.3150  -15.6784   25.7518 C   0  0  1  0  0  0  0  0  0  0  0  0
    9.5926  -14.2112   25.6920 C   0  0  0  0  0  0  0  0  0  0  0  0
    8.3884  -13.4396   26.0303 C   0  0  0  0  0  0  0  0  0  0  0  0
    8.3024  -12.8399   27.2692 C   0  0  0  0  0  0  0  0  0  0  0  0
    7.2021  -12.0735   27.6367 C   0  0  0  0  0  0  0  0  0  0  0  0
    6.1606  -11.8933   26.7618 C   0  0  0  0  0  0  0  0  0  0  0  0
    6.2380  -12.4888   25.5217 C   0  0  0  0  0  0  0  0  0  0  0  0
    7.3310  -13.2466   25.1645 C   0  0  0  0  0  0  0  0  0  0  0  0
    9.0974  -16.1002   27.1446 C   0  0  0  0  0  0  0  0  0  0  0  0
    7.9664  -16.5467   27.4745 O   0  0  0  0  0  0  0  0  0  0  0  0
   10.0869  -16.0204   28.0733 O   0  0  0  0  0  0  0  0  0  0  0  0
  2  1  1  6
  2  5  1  0
  3  2  1  0
  4  3  1  0
  5  6  2  0
  7  8  1  0
  7  5  1  0
  8 11  1  0
  9 10  1  0
  8  9  1  1
 11 12  2  0
 11 13  1  0
 13 14  1  0
 14 22  1  0
 14 15  1  1
 16 15  1  0
 16 17  2  0
 18 17  1  0
 19 18  2  0
 20 21  2  0
 20 19  1  0
 21 16  1  0
 22 23  2  0
 22 24  1  0
M  END
$$$$
