CCF.pdb
     RDKit          3D

 24 24  0  0  1  0  0  0  0  0999 V2000
    8.1580  -14.5387   17.5802 N   0  0  0  0  0  0  0  0  0  0  0  0
    8.5412  -14.1482   18.9248 C   0  0  1  0  0  0  0  0  0  0  0  0
    8.2073  -12.7063   19.1708 C   0  0  0  0  0  0  0  0  0  0  0  0
    8.6744  -12.2856   20.8730 S   0  0  0  0  0  0  0  0  0  0  0  0
    7.9994  -15.0688   19.9349 C   0  0  0  0  0  0  0  0  0  0  0  0
    7.0238  -15.7937   19.6082 O   0  0  0  0  0  0  0  0  0  0  0  0
    8.5119  -15.1902   21.2617 N   0  0  0  0  0  0  0  0  0  0  0  0
    8.1527  -16.2361   22.1621 C   0  0  1  0  0  0  0  0  0  0  0  0
    8.4733  -17.6149   21.6242 C   0  0  0  0  0  0  0  0  0  0  0  0
   10.2268  -17.8531   21.3144 S   0  0  0  0  0  0  0  0  0  0  0  0
    8.7749  -16.0510   23.5181 C   0  0  0  0  0  0  0  0  0  0  0  0
    9.9487  -15.6161   23.6400 O   0  0  0  0  0  0  0  0  0  0  0  0
    8.0111  -16.3773   24.6672 N   0  0  0  0  0  0  0  0  0  0  0  0
    8.6048  -16.1432   25.9839 C   0  0  1  0  0  0  0  0  0  0  0  0
    7.5734  -15.6069   26.9230 C   0  0  0  0  0  0  0  0  0  0  0  0
    7.3079  -14.1876   26.6490 C   0  0  0  0  0  0  0  0  0  0  0  0
    6.0514  -13.8103   26.2242 C   0  0  0  0  0  0  0  0  0  0  0  0
    5.7310  -12.4802   25.9768 C   0  0  0  0  0  0  0  0  0  0  0  0
    6.6720  -11.4973   26.1522 C   0  0  0  0  0  0  0  0  0  0  0  0
    7.9303  -11.8650   26.5765 C   0  0  0  0  0  0  0  0  0  0  0  0
    8.2405  -13.1846   26.8197 C   0  0  0  0  0  0  0  0  0  0  0  0
    9.1776  -17.3908   26.5138 C   0  0  0  0  0  0  0  0  0  0  0  0
    9.7828  -17.3604   27.6183 O   0  0  0  0  0  0  0  0  0  0  0  0
    9.0638  -18.5662   25.8404 O   0  0  0  0  0  0  0  0  0  0  0  0
  2  1  1  6
  2  5  1  0
  3  2  1  0
  4  3  1  0
  5  6  2  0
  7  8  1  0
  7  5  1  0
  8 11  1  0
  9 10  1  0
  8  9  1  6
 11 12  2  0
 11 13  1  0
 13 14  1  0
 14 22  1  0
 14 15  1  1
 16 15  1  0
 16 17  2  0
 18 17  1  0
 19 18  2  0
 20 21  2  0
 20 19  1  0
 21 16  1  0
 22 23  2  0
 22 24  1  0
M  END
$$$$
