CCF.pdb
     RDKit          3D

 24 24  0  0  1  0  0  0  0  0999 V2000
    7.8519  -14.7746   17.5999 N   0  0  0  0  0  0  0  0  0  0  0  0
    8.3804  -14.3037   18.8673 C   0  0  1  0  0  0  0  0  0  0  0  0
    8.3330  -12.8056   18.9347 C   0  0  0  0  0  0  0  0  0  0  0  0
    9.1237  -12.2698   20.4776 S   0  0  0  0  0  0  0  0  0  0  0  0
    7.7401  -14.9748   20.0079 C   0  0  0  0  0  0  0  0  0  0  0  0
    6.5537  -15.3709   19.8680 O   0  0  0  0  0  0  0  0  0  0  0  0
    8.3814  -15.2040   21.2624 N   0  0  0  0  0  0  0  0  0  0  0  0
    7.9738  -16.2031   22.1949 C   0  0  1  0  0  0  0  0  0  0  0  0
    8.0883  -17.6086   21.6427 C   0  0  0  0  0  0  0  0  0  0  0  0
    7.6740  -18.8699   22.8531 S   0  0  0  0  0  0  0  0  0  0  0  0
    8.7173  -16.0956   23.4972 C   0  0  0  0  0  0  0  0  0  0  0  0
    9.9745  -16.0855   23.5282 O   0  0  0  0  0  0  0  0  0  0  0  0
    7.9723  -16.0050   24.7001 N   0  0  0  0  0  0  0  0  0  0  0  0
    8.7035  -15.8627   25.9596 C   0  0  1  0  0  0  0  0  0  0  0  0
    7.7937  -15.3410   27.0241 C   0  0  0  0  0  0  0  0  0  0  0  0
    7.2735  -14.0155   26.6604 C   0  0  0  0  0  0  0  0  0  0  0  0
    5.9195  -13.8612   26.4496 C   0  0  0  0  0  0  0  0  0  0  0  0
    5.3640  -12.6269   26.1317 C   0  0  0  0  0  0  0  0  0  0  0  0
    6.1624  -11.5169   26.0188 C   0  0  0  0  0  0  0  0  0  0  0  0
    7.5166  -11.6616   26.2278 C   0  0  0  0  0  0  0  0  0  0  0  0
    8.0599  -12.8873   26.5424 C   0  0  0  0  0  0  0  0  0  0  0  0
    9.2750  -17.1564   26.3660 C   0  0  0  0  0  0  0  0  0  0  0  0
    8.9485  -18.1923   25.7274 O   0  0  0  0  0  0  0  0  0  0  0  0
   10.1439  -17.2530   27.4069 O   0  0  0  0  0  0  0  0  0  0  0  0
  2  1  1  6
  2  5  1  0
  3  2  1  0
  4  3  1  0
  5  6  2  0
  7  8  1  0
  7  5  1  0
  8 11  1  0
  9 10  1  0
  8  9  1  6
 11 12  2  0
 11 13  1  0
 13 14  1  0
 14 22  1  0
 14 15  1  1
 16 15  1  0
 16 17  2  0
 18 17  1  0
 19 18  2  0
 20 21  2  0
 20 19  1  0
 21 16  1  0
 22 23  2  0
 22 24  1  0
M  END
$$$$
