CCF.pdb
     RDKit          3D

 24 24  0  0  1  0  0  0  0  0999 V2000
    8.1054  -14.1628   16.9700 N   0  0  0  0  0  0  0  0  0  0  0  0
    8.9504  -14.0973   18.1487 C   0  0  1  0  0  0  0  0  0  0  0  0
    8.9853  -12.7007   18.6958 C   0  0  0  0  0  0  0  0  0  0  0  0
   10.0358  -12.6843   20.1754 S   0  0  0  0  0  0  0  0  0  0  0  0
    8.5836  -15.1195   19.1396 C   0  0  0  0  0  0  0  0  0  0  0  0
    7.3681  -15.2340   19.4454 O   0  0  0  0  0  0  0  0  0  0  0  0
    9.5209  -15.9886   19.7751 N   0  0  0  0  0  0  0  0  0  0  0  0
    9.2014  -16.8374   20.8756 C   0  0  1  0  0  0  0  0  0  0  0  0
   10.1062  -18.0481   20.9702 C   0  0  0  0  0  0  0  0  0  0  0  0
    9.8948  -18.9592   22.5041 S   0  0  0  0  0  0  0  0  0  0  0  0
    9.1963  -16.0907   22.1805 C   0  0  0  0  0  0  0  0  0  0  0  0
   10.2072  -15.4492   22.5654 O   0  0  0  0  0  0  0  0  0  0  0  0
    8.0238  -16.1215   22.9771 N   0  0  0  0  0  0  0  0  0  0  0  0
    8.0226  -15.3792   24.2381 C   0  0  1  0  0  0  0  0  0  0  0  0
    7.1724  -14.1566   24.1121 C   0  0  0  0  0  0  0  0  0  0  0  0
    7.1087  -13.4332   25.3898 C   0  0  0  0  0  0  0  0  0  0  0  0
    5.9455  -13.4793   26.1292 C   0  0  0  0  0  0  0  0  0  0  0  0
    5.8337  -12.8398   27.3587 C   0  0  0  0  0  0  0  0  0  0  0  0
    6.8944  -12.1373   27.8725 C   0  0  0  0  0  0  0  0  0  0  0  0
    8.0606  -12.0858   27.1406 C   0  0  0  0  0  0  0  0  0  0  0  0
    8.1642  -12.7218   25.9235 C   0  0  0  0  0  0  0  0  0  0  0  0
    7.5303  -16.2325   25.3312 C   0  0  0  0  0  0  0  0  0  0  0  0
    8.1521  -16.2352   26.4269 O   0  0  0  0  0  0  0  0  0  0  0  0
    6.4243  -17.0089   25.1826 O   0  0  0  0  0  0  0  0  0  0  0  0
  2  1  1  6
  2  5  1  0
  3  2  1  0
  4  3  1  0
  5  6  2  0
  7  8  1  0
  7  5  1  0
  8 11  1  0
  9 10  1  0
  8  9  1  1
 11 12  2  0
 11 13  1  0
 13 14  1  0
 14 22  1  0
 14 15  1  6
 16 15  1  0
 16 17  2  0
 18 17  1  0
 19 18  2  0
 20 21  2  0
 20 19  1  0
 21 16  1  0
 22 23  2  0
 22 24  1  0
M  END
$$$$
