CCF.pdb
     RDKit          3D

 24 24  0  0  1  0  0  0  0  0999 V2000
    7.7004  -14.6704   17.2524 N   0  0  0  0  0  0  0  0  0  0  0  0
    8.3767  -14.2494   18.4660 C   0  0  1  0  0  0  0  0  0  0  0  0
    8.1551  -12.7862   18.7130 C   0  0  0  0  0  0  0  0  0  0  0  0
    9.0069  -12.3219   20.2465 S   0  0  0  0  0  0  0  0  0  0  0  0
    8.0316  -15.1083   19.6081 C   0  0  0  0  0  0  0  0  0  0  0  0
    6.8132  -15.3346   19.8280 O   0  0  0  0  0  0  0  0  0  0  0  0
    8.9931  -15.7001   20.4816 N   0  0  0  0  0  0  0  0  0  0  0  0
    8.6557  -16.4950   21.6165 C   0  0  1  0  0  0  0  0  0  0  0  0
    8.7604  -17.9819   21.3488 C   0  0  0  0  0  0  0  0  0  0  0  0
    8.5776  -18.9735   22.8356 S   0  0  0  0  0  0  0  0  0  0  0  0
    9.4711  -16.1272   22.8249 C   0  0  0  0  0  0  0  0  0  0  0  0
   10.6955  -15.8581   22.7246 O   0  0  0  0  0  0  0  0  0  0  0  0
    8.8325  -16.0881   24.0902 N   0  0  0  0  0  0  0  0  0  0  0  0
    9.6212  -15.6784   25.2526 C   0  0  1  0  0  0  0  0  0  0  0  0
    9.6972  -14.1875   25.3204 C   0  0  0  0  0  0  0  0  0  0  0  0
    8.3959  -13.6165   25.6950 C   0  0  0  0  0  0  0  0  0  0  0  0
    7.4934  -13.2966   24.7025 C   0  0  0  0  0  0  0  0  0  0  0  0
    6.2359  -12.7807   24.9951 C   0  0  0  0  0  0  0  0  0  0  0  0
    5.8581  -12.5749   26.2980 C   0  0  0  0  0  0  0  0  0  0  0  0
    6.7534  -12.8918   27.2962 C   0  0  0  0  0  0  0  0  0  0  0  0
    7.9973  -13.4025   26.9990 C   0  0  0  0  0  0  0  0  0  0  0  0
    9.0265  -16.2156   26.4868 C   0  0  0  0  0  0  0  0  0  0  0  0
    9.5854  -15.9675   27.5884 O   0  0  0  0  0  0  0  0  0  0  0  0
    7.8930  -16.9656   26.4606 O   0  0  0  0  0  0  0  0  0  0  0  0
  2  1  1  6
  2  5  1  0
  3  2  1  0
  4  3  1  0
  5  6  2  0
  7  8  1  0
  7  5  1  0
  8 11  1  0
  9 10  1  0
  8  9  1  6
 11 12  2  0
 11 13  1  0
 13 14  1  0
 14 22  1  0
 14 15  1  1
 16 15  1  0
 16 17  2  0
 18 17  1  0
 19 18  2  0
 20 21  2  0
 20 19  1  0
 21 16  1  0
 22 23  2  0
 22 24  1  0
M  END
$$$$
