CCF.pdb
     RDKit          3D

 24 24  0  0  1  0  0  0  0  0999 V2000
    7.6945  -14.8160   17.5290 N   0  0  0  0  0  0  0  0  0  0  0  0
    8.3079  -14.5613   18.8199 C   0  0  1  0  0  0  0  0  0  0  0  0
    8.3469  -13.0886   19.1040 C   0  0  0  0  0  0  0  0  0  0  0  0
    8.7004  -12.2091   17.5566 S   0  0  0  0  0  0  0  0  0  0  0  0
    7.6861  -15.3603   19.8858 C   0  0  0  0  0  0  0  0  0  0  0  0
    6.6265  -15.9826   19.6137 O   0  0  0  0  0  0  0  0  0  0  0  0
    8.2104  -15.4729   21.2088 N   0  0  0  0  0  0  0  0  0  0  0  0
    7.6361  -16.2901   22.2266 C   0  0  1  0  0  0  0  0  0  0  0  0
    7.2028  -17.6495   21.7187 C   0  0  0  0  0  0  0  0  0  0  0  0
    6.8345  -18.8049   23.0441 S   0  0  0  0  0  0  0  0  0  0  0  0
    8.5524  -16.4461   23.4083 C   0  0  0  0  0  0  0  0  0  0  0  0
    9.6761  -16.9985   23.2901 O   0  0  0  0  0  0  0  0  0  0  0  0
    8.1262  -15.9565   24.6688 N   0  0  0  0  0  0  0  0  0  0  0  0
    9.0928  -15.9347   25.7671 C   0  0  1  0  0  0  0  0  0  0  0  0
    9.5415  -14.5331   26.0269 C   0  0  0  0  0  0  0  0  0  0  0  0
    8.3874  -13.6476   26.2364 C   0  0  0  0  0  0  0  0  0  0  0  0
    7.6856  -13.1902   25.1409 C   0  0  0  0  0  0  0  0  0  0  0  0
    6.5682  -12.3740   25.2760 C   0  0  0  0  0  0  0  0  0  0  0  0
    6.1314  -11.9989   26.5214 C   0  0  0  0  0  0  0  0  0  0  0  0
    6.8265  -12.4512   27.6217 C   0  0  0  0  0  0  0  0  0  0  0  0
    7.9324  -13.2596   27.4804 C   0  0  0  0  0  0  0  0  0  0  0  0
    8.4969  -16.5130   26.9819 C   0  0  0  0  0  0  0  0  0  0  0  0
    7.2792  -16.8358   26.9668 O   0  0  0  0  0  0  0  0  0  0  0  0
    9.2309  -16.7066   28.1097 O   0  0  0  0  0  0  0  0  0  0  0  0
  2  1  1  6
  2  5  1  0
  3  2  1  0
  4  3  1  0
  5  6  2  0
  7  8  1  0
  7  5  1  0
  8 11  1  0
  9 10  1  0
  8  9  1  6
 11 12  2  0
 11 13  1  0
 13 14  1  0
 14 22  1  0
 14 15  1  1
 16 15  1  0
 16 17  2  0
 18 17  1  0
 19 18  2  0
 20 21  2  0
 20 19  1  0
 21 16  1  0
 22 23  2  0
 22 24  1  0
M  END
$$$$
