CCF.pdb
     RDKit          3D

 24 24  0  0  1  0  0  0  0  0999 V2000
    8.4921  -13.4217   17.6025 N   0  0  0  0  0  0  0  0  0  0  0  0
    9.0932  -14.4066   18.4835 C   0  0  1  0  0  0  0  0  0  0  0  0
   10.5172  -14.0440   18.7864 C   0  0  0  0  0  0  0  0  0  0  0  0
   10.5276  -12.5624   19.8341 S   0  0  0  0  0  0  0  0  0  0  0  0
    8.2692  -14.6447   19.6775 C   0  0  0  0  0  0  0  0  0  0  0  0
    7.0550  -14.3167   19.6303 O   0  0  0  0  0  0  0  0  0  0  0  0
    8.7619  -15.2244   20.8854 N   0  0  0  0  0  0  0  0  0  0  0  0
    7.9357  -15.5897   21.9889 C   0  0  1  0  0  0  0  0  0  0  0  0
    6.8239  -16.5434   21.6045 C   0  0  0  0  0  0  0  0  0  0  0  0
    7.4347  -18.0858   20.9150 S   0  0  0  0  0  0  0  0  0  0  0  0
    8.7355  -16.1579   23.1281 C   0  0  0  0  0  0  0  0  0  0  0  0
    9.9204  -16.5445   22.9603 O   0  0  0  0  0  0  0  0  0  0  0  0
    8.1275  -16.2518   24.4056 N   0  0  0  0  0  0  0  0  0  0  0  0
    8.9927  -16.2697   25.5856 C   0  0  1  0  0  0  0  0  0  0  0  0
    9.4987  -14.8928   25.8708 C   0  0  0  0  0  0  0  0  0  0  0  0
    8.3817  -13.9560   26.0568 C   0  0  0  0  0  0  0  0  0  0  0  0
    7.8931  -13.2699   24.9649 C   0  0  0  0  0  0  0  0  0  0  0  0
    6.8199  -12.3924   25.0719 C   0  0  0  0  0  0  0  0  0  0  0  0
    6.2130  -12.1857   26.2849 C   0  0  0  0  0  0  0  0  0  0  0  0
    6.6945  -12.8671   27.3815 C   0  0  0  0  0  0  0  0  0  0  0  0
    7.7578  -13.7348   27.2680 C   0  0  0  0  0  0  0  0  0  0  0  0
    8.2584  -16.7943   26.7478 C   0  0  0  0  0  0  0  0  0  0  0  0
    7.0170  -16.9842   26.6470 O   0  0  0  0  0  0  0  0  0  0  0  0
    8.8902  -17.0784   27.9175 O   0  0  0  0  0  0  0  0  0  0  0  0
  2  1  1  1
  2  5  1  0
  3  2  1  0
  4  3  1  0
  5  6  2  0
  7  8  1  0
  7  5  1  0
  8 11  1  0
  9 10  1  0
  8  9  1  6
 11 12  2  0
 11 13  1  0
 13 14  1  0
 14 22  1  0
 14 15  1  1
 16 15  1  0
 16 17  2  0
 18 17  1  0
 19 18  2  0
 20 21  2  0
 20 19  1  0
 21 16  1  0
 22 23  2  0
 22 24  1  0
M  END
$$$$
