CCF.pdb
     RDKit          3D

 24 24  0  0  1  0  0  0  0  0999 V2000
    8.7621  -17.5005   17.8663 N   0  0  0  0  0  0  0  0  0  0  0  0
    9.3308  -17.6993   19.1871 C   0  0  1  0  0  0  0  0  0  0  0  0
   10.7883  -17.3432   19.1929 C   0  0  0  0  0  0  0  0  0  0  0  0
   11.4561  -17.6623   20.8497 S   0  0  0  0  0  0  0  0  0  0  0  0
    8.5445  -17.0197   20.2269 C   0  0  0  0  0  0  0  0  0  0  0  0
    7.4822  -16.4415   19.8786 O   0  0  0  0  0  0  0  0  0  0  0  0
    8.9122  -16.9759   21.6055 N   0  0  0  0  0  0  0  0  0  0  0  0
    7.9860  -16.7758   22.6713 C   0  0  1  0  0  0  0  0  0  0  0  0
    6.9094  -17.8395   22.7261 C   0  0  0  0  0  0  0  0  0  0  0  0
    6.6977  -18.5343   24.3692 S   0  0  0  0  0  0  0  0  0  0  0  0
    8.6744  -16.6659   24.0033 C   0  0  0  0  0  0  0  0  0  0  0  0
    9.3957  -17.5988   24.4403 O   0  0  0  0  0  0  0  0  0  0  0  0
    8.4961  -15.4837   24.7655 N   0  0  0  0  0  0  0  0  0  0  0  0
    9.0858  -15.4258   26.1034 C   0  0  1  0  0  0  0  0  0  0  0  0
    8.0410  -15.0631   27.1085 C   0  0  0  0  0  0  0  0  0  0  0  0
    7.3813  -13.8022   26.7415 C   0  0  0  0  0  0  0  0  0  0  0  0
    8.1546  -12.6859   26.5015 C   0  0  0  0  0  0  0  0  0  0  0  0
    7.5911  -11.4726   26.1227 C   0  0  0  0  0  0  0  0  0  0  0  0
    6.2318  -11.3562   25.9767 C   0  0  0  0  0  0  0  0  0  0  0  0
    5.4513  -12.4665   26.2144 C   0  0  0  0  0  0  0  0  0  0  0  0
    6.0163  -13.6651   26.5893 C   0  0  0  0  0  0  0  0  0  0  0  0
    9.6972  -16.7193   26.4473 C   0  0  0  0  0  0  0  0  0  0  0  0
   10.3613  -16.8130   27.5138 O   0  0  0  0  0  0  0  0  0  0  0  0
    9.5571  -17.8067   25.6435 O   0  0  0  0  0  0  0  0  0  0  0  0
  2  1  1  6
  2  5  1  0
  3  2  1  0
  4  3  1  0
  5  6  2  0
  7  8  1  0
  7  5  1  0
  8 11  1  0
  9 10  1  0
  8  9  1  1
 11 12  2  0
 11 13  1  0
 13 14  1  0
 14 22  1  0
 14 15  1  1
 16 15  1  0
 16 17  2  0
 18 17  1  0
 19 18  2  0
 20 21  2  0
 20 19  1  0
 21 16  1  0
 22 23  2  0
 22 24  1  0
M  END
$$$$
