CCF.pdb
     RDKit          3D

 24 24  0  0  1  0  0  0  0  0999 V2000
    7.9407  -15.2992   17.1981 N   0  0  0  0  0  0  0  0  0  0  0  0
    8.7271  -15.1590   18.4103 C   0  0  1  0  0  0  0  0  0  0  0  0
    9.3846  -13.8113   18.4597 C   0  0  0  0  0  0  0  0  0  0  0  0
    8.1120  -12.5570   18.7759 S   0  0  0  0  0  0  0  0  0  0  0  0
    7.9427  -15.4867   19.6097 C   0  0  0  0  0  0  0  0  0  0  0  0
    6.6965  -15.6096   19.4831 O   0  0  0  0  0  0  0  0  0  0  0  0
    8.5078  -15.6735   20.9072 N   0  0  0  0  0  0  0  0  0  0  0  0
    7.7692  -16.1252   22.0404 C   0  0  1  0  0  0  0  0  0  0  0  0
    7.0025  -17.4039   21.7748 C   0  0  0  0  0  0  0  0  0  0  0  0
    6.3153  -18.1288   23.2680 S   0  0  0  0  0  0  0  0  0  0  0  0
    8.6418  -16.2866   23.2541 C   0  0  0  0  0  0  0  0  0  0  0  0
    9.6380  -17.0541   23.2402 O   0  0  0  0  0  0  0  0  0  0  0  0
    8.3210  -15.5537   24.4247 N   0  0  0  0  0  0  0  0  0  0  0  0
    9.2880  -15.5430   25.5229 C   0  0  1  0  0  0  0  0  0  0  0  0
    9.5375  -14.1397   25.9721 C   0  0  0  0  0  0  0  0  0  0  0  0
    8.2694  -13.4332   26.2006 C   0  0  0  0  0  0  0  0  0  0  0  0
    7.5992  -12.8928   25.1232 C   0  0  0  0  0  0  0  0  0  0  0  0
    6.3815  -12.2384   25.2717 C   0  0  0  0  0  0  0  0  0  0  0  0
    5.8097  -12.1132   26.5127 C   0  0  0  0  0  0  0  0  0  0  0  0
    6.4722  -12.6502   27.5950 C   0  0  0  0  0  0  0  0  0  0  0  0
    7.6781  -13.2971   27.4403 C   0  0  0  0  0  0  0  0  0  0  0  0
    8.7943  -16.3575   26.6445 C   0  0  0  0  0  0  0  0  0  0  0  0
    9.5061  -16.4623   27.6788 O   0  0  0  0  0  0  0  0  0  0  0  0
    7.5930  -16.9912   26.5868 O   0  0  0  0  0  0  0  0  0  0  0  0
  2  1  1  6
  2  5  1  0
  3  2  1  0
  4  3  1  0
  5  6  2  0
  7  8  1  0
  7  5  1  0
  8 11  1  0
  9 10  1  0
  8  9  1  6
 11 12  2  0
 11 13  1  0
 13 14  1  0
 14 22  1  0
 14 15  1  1
 16 15  1  0
 16 17  2  0
 18 17  1  0
 19 18  2  0
 20 21  2  0
 20 19  1  0
 21 16  1  0
 22 23  2  0
 22 24  1  0
M  END
$$$$
