CCF.pdb
     RDKit          3D

 24 24  0  0  1  0  0  0  0  0999 V2000
    7.2011  -16.6845   18.5237 N   0  0  0  0  0  0  0  0  0  0  0  0
    7.6654  -15.7172   19.5015 C   0  0  1  0  0  0  0  0  0  0  0  0
    7.4424  -14.3184   19.0068 C   0  0  0  0  0  0  0  0  0  0  0  0
    8.2124  -13.1615   20.1737 S   0  0  0  0  0  0  0  0  0  0  0  0
    7.1032  -15.9773   20.8348 C   0  0  0  0  0  0  0  0  0  0  0  0
    5.8889  -16.2995   20.9095 O   0  0  0  0  0  0  0  0  0  0  0  0
    7.8500  -15.8866   22.0480 N   0  0  0  0  0  0  0  0  0  0  0  0
    7.4336  -16.4616   23.2848 C   0  0  1  0  0  0  0  0  0  0  0  0
    7.0736  -17.9276   23.1635 C   0  0  0  0  0  0  0  0  0  0  0  0
    6.5693  -18.6543   24.7271 S   0  0  0  0  0  0  0  0  0  0  0  0
    8.4563  -16.2670   24.3696 C   0  0  0  0  0  0  0  0  0  0  0  0
    9.6698  -16.5324   24.1730 O   0  0  0  0  0  0  0  0  0  0  0  0
    8.0274  -15.7755   25.6284 N   0  0  0  0  0  0  0  0  0  0  0  0
    9.0448  -15.4433   26.6263 C   0  0  1  0  0  0  0  0  0  0  0  0
    8.4607  -14.5565   27.6778 C   0  0  0  0  0  0  0  0  0  0  0  0
    7.7199  -13.4437   27.0674 C   0  0  0  0  0  0  0  0  0  0  0  0
    6.5591  -13.0020   27.6670 C   0  0  0  0  0  0  0  0  0  0  0  0
    5.8301  -11.9352   27.1536 C   0  0  0  0  0  0  0  0  0  0  0  0
    6.2552  -11.2874   26.0213 C   0  0  0  0  0  0  0  0  0  0  0  0
    7.4140  -11.7218   25.4156 C   0  0  0  0  0  0  0  0  0  0  0  0
    8.1311  -12.7792   25.9297 C   0  0  0  0  0  0  0  0  0  0  0  0
    9.5818  -16.6708   27.2347 C   0  0  0  0  0  0  0  0  0  0  0  0
    9.0341  -17.7727   26.9641 O   0  0  0  0  0  0  0  0  0  0  0  0
   10.6508  -16.6382   28.0739 O   0  0  0  0  0  0  0  0  0  0  0  0
  2  1  1  6
  2  5  1  0
  3  2  1  0
  4  3  1  0
  5  6  2  0
  7  8  1  0
  7  5  1  0
  8 11  1  0
  9 10  1  0
  8  9  1  6
 11 12  2  0
 11 13  1  0
 13 14  1  0
 14 22  1  0
 14 15  1  1
 16 15  1  0
 16 17  2  0
 18 17  1  0
 19 18  2  0
 20 21  2  0
 20 19  1  0
 21 16  1  0
 22 23  2  0
 22 24  1  0
M  END
$$$$
