CCF.pdb
     RDKit          3D

 24 24  0  0  1  0  0  0  0  0999 V2000
    7.8325  -15.1134   17.4636 N   0  0  0  0  0  0  0  0  0  0  0  0
    8.2007  -14.5426   18.7465 C   0  0  1  0  0  0  0  0  0  0  0  0
    7.6137  -13.1706   18.9015 C   0  0  0  0  0  0  0  0  0  0  0  0
    8.8151  -11.9543   18.2933 S   0  0  0  0  0  0  0  0  0  0  0  0
    7.8923  -15.4547   19.8575 C   0  0  0  0  0  0  0  0  0  0  0  0
    6.8426  -16.1447   19.7790 O   0  0  0  0  0  0  0  0  0  0  0  0
    8.7098  -15.6049   21.0180 N   0  0  0  0  0  0  0  0  0  0  0  0
    8.4042  -16.4824   22.0998 C   0  0  1  0  0  0  0  0  0  0  0  0
    8.4035  -17.9417   21.6950 C   0  0  0  0  0  0  0  0  0  0  0  0
    9.6108  -18.3121   20.4172 S   0  0  0  0  0  0  0  0  0  0  0  0
    9.3195  -16.2704   23.2735 C   0  0  0  0  0  0  0  0  0  0  0  0
   10.5194  -15.9317   23.1082 O   0  0  0  0  0  0  0  0  0  0  0  0
    8.8044  -16.4601   24.5807 N   0  0  0  0  0  0  0  0  0  0  0  0
    9.6223  -16.0342   25.7169 C   0  0  1  0  0  0  0  0  0  0  0  0
    9.8246  -14.5542   25.6762 C   0  0  0  0  0  0  0  0  0  0  0  0
    8.5761  -13.8492   25.9986 C   0  0  0  0  0  0  0  0  0  0  0  0
    8.5063  -13.1045   27.1572 C   0  0  0  0  0  0  0  0  0  0  0  0
    7.3632  -12.3922   27.5019 C   0  0  0  0  0  0  0  0  0  0  0  0
    6.2612  -12.4140   26.6848 C   0  0  0  0  0  0  0  0  0  0  0  0
    6.3219  -13.1554   25.5250 C   0  0  0  0  0  0  0  0  0  0  0  0
    7.4576  -13.8585   25.1898 C   0  0  0  0  0  0  0  0  0  0  0  0
    8.9812  -16.4269   26.9818 C   0  0  0  0  0  0  0  0  0  0  0  0
    9.5591  -16.1514   28.0670 O   0  0  0  0  0  0  0  0  0  0  0  0
    7.7855  -17.0734   27.0010 O   0  0  0  0  0  0  0  0  0  0  0  0
  2  1  1  6
  2  5  1  0
  3  2  1  0
  4  3  1  0
  5  6  2  0
  7  8  1  0
  7  5  1  0
  8 11  1  0
  9 10  1  0
  8  9  1  6
 11 12  2  0
 11 13  1  0
 13 14  1  0
 14 22  1  0
 14 15  1  1
 16 15  1  0
 16 17  2  0
 18 17  1  0
 19 18  2  0
 20 21  2  0
 20 19  1  0
 21 16  1  0
 22 23  2  0
 22 24  1  0
M  END
$$$$
