CCF.pdb
     RDKit          3D

 24 24  0  0  1  0  0  0  0  0999 V2000
    7.3111  -15.6599   18.1306 N   0  0  0  0  0  0  0  0  0  0  0  0
    7.8426  -14.9602   19.2862 C   0  0  1  0  0  0  0  0  0  0  0  0
    7.7264  -13.4756   19.1034 C   0  0  0  0  0  0  0  0  0  0  0  0
    8.5284  -12.6543   20.5088 S   0  0  0  0  0  0  0  0  0  0  0  0
    7.2576  -15.4565   20.5403 C   0  0  0  0  0  0  0  0  0  0  0  0
    6.1252  -16.0030   20.4863 O   0  0  0  0  0  0  0  0  0  0  0  0
    7.8951  -15.3563   21.8136 N   0  0  0  0  0  0  0  0  0  0  0  0
    7.7380  -16.3115   22.8608 C   0  0  1  0  0  0  0  0  0  0  0  0
    7.9334  -17.7386   22.3932 C   0  0  0  0  0  0  0  0  0  0  0  0
    7.7715  -18.9368   23.7219 S   0  0  0  0  0  0  0  0  0  0  0  0
    8.6387  -16.0207   24.0289 C   0  0  0  0  0  0  0  0  0  0  0  0
    9.8882  -15.9814   23.8913 O   0  0  0  0  0  0  0  0  0  0  0  0
    8.0522  -15.7895   25.2989 N   0  0  0  0  0  0  0  0  0  0  0  0
    8.9329  -15.4567   26.4191 C   0  0  1  0  0  0  0  0  0  0  0  0
    8.1474  -14.8104   27.5139 C   0  0  0  0  0  0  0  0  0  0  0  0
    7.4577  -13.6100   27.0208 C   0  0  0  0  0  0  0  0  0  0  0  0
    8.2070  -12.5315   26.5999 C   0  0  0  0  0  0  0  0  0  0  0  0
    7.6134  -11.3795   26.0964 C   0  0  0  0  0  0  0  0  0  0  0  0
    6.2474  -11.2877   26.0052 C   0  0  0  0  0  0  0  0  0  0  0  0
    5.4907  -12.3606   26.4233 C   0  0  0  0  0  0  0  0  0  0  0  0
    6.0856  -13.4986   26.9210 C   0  0  0  0  0  0  0  0  0  0  0  0
    9.6023  -16.6683   26.9184 C   0  0  0  0  0  0  0  0  0  0  0  0
   10.4359  -16.5589   27.8567 O   0  0  0  0  0  0  0  0  0  0  0  0
    9.3378  -17.8935   26.3921 O   0  0  0  0  0  0  0  0  0  0  0  0
  2  1  1  6
  2  5  1  0
  3  2  1  0
  4  3  1  0
  5  6  2  0
  7  8  1  0
  7  5  1  0
  8 11  1  0
  9 10  1  0
  8  9  1  6
 11 12  2  0
 11 13  1  0
 13 14  1  0
 14 22  1  0
 14 15  1  1
 16 15  1  0
 16 17  2  0
 18 17  1  0
 19 18  2  0
 20 21  2  0
 20 19  1  0
 21 16  1  0
 22 23  2  0
 22 24  1  0
M  END
$$$$
