CCF.pdb
     RDKit          3D

 24 24  0  0  1  0  0  0  0  0999 V2000
    7.4162  -14.6844   17.7499 N   0  0  0  0  0  0  0  0  0  0  0  0
    8.3240  -14.9151   18.8591 C   0  0  1  0  0  0  0  0  0  0  0  0
    9.2224  -13.7304   19.0605 C   0  0  0  0  0  0  0  0  0  0  0  0
    9.0097  -12.5970   17.6595 S   0  0  0  0  0  0  0  0  0  0  0  0
    7.6071  -15.3357   20.0717 C   0  0  0  0  0  0  0  0  0  0  0  0
    6.6000  -14.6673   20.4222 O   0  0  0  0  0  0  0  0  0  0  0  0
    7.9834  -16.4545   20.8743 N   0  0  0  0  0  0  0  0  0  0  0  0
    7.4262  -16.7392   22.1558 C   0  0  1  0  0  0  0  0  0  0  0  0
    6.7253  -18.0805   22.2107 C   0  0  0  0  0  0  0  0  0  0  0  0
    6.2911  -18.5732   23.8829 S   0  0  0  0  0  0  0  0  0  0  0  0
    8.4527  -16.6455   23.2503 C   0  0  0  0  0  0  0  0  0  0  0  0
    9.5716  -17.2093   23.1411 O   0  0  0  0  0  0  0  0  0  0  0  0
    8.1368  -15.9051   24.4174 N   0  0  0  0  0  0  0  0  0  0  0  0
    9.1741  -15.7408   25.4363 C   0  0  1  0  0  0  0  0  0  0  0  0
    9.4502  -14.2887   25.6568 C   0  0  0  0  0  0  0  0  0  0  0  0
    8.2226  -13.5781   26.0412 C   0  0  0  0  0  0  0  0  0  0  0  0
    8.0880  -13.1246   27.3366 C   0  0  0  0  0  0  0  0  0  0  0  0
    6.9634  -12.4209   27.7528 C   0  0  0  0  0  0  0  0  0  0  0  0
    5.9461  -12.1573   26.8707 C   0  0  0  0  0  0  0  0  0  0  0  0
    6.0720  -12.6066   25.5742 C   0  0  0  0  0  0  0  0  0  0  0  0
    7.1889  -13.3030   25.1690 C   0  0  0  0  0  0  0  0  0  0  0  0
    8.7569  -16.3777   26.6956 C   0  0  0  0  0  0  0  0  0  0  0  0
    7.5996  -16.8695   26.7733 O   0  0  0  0  0  0  0  0  0  0  0  0
    9.5915  -16.4472   27.7664 O   0  0  0  0  0  0  0  0  0  0  0  0
  2  1  1  6
  2  5  1  0
  3  2  1  0
  4  3  1  0
  5  6  2  0
  7  8  1  0
  7  5  1  0
  8 11  1  0
  9 10  1  0
  8  9  1  6
 11 12  2  0
 11 13  1  0
 13 14  1  0
 14 22  1  0
 14 15  1  1
 16 15  1  0
 16 17  2  0
 18 17  1  0
 19 18  2  0
 20 21  2  0
 20 19  1  0
 21 16  1  0
 22 23  2  0
 22 24  1  0
M  END
$$$$
