MVR.pdb
     RDKit          3D

 27 26  0  0  1  0  0  0  0  0999 V2000
    6.4007  -12.1052   26.3897 C   0  0  0  0  0  0  0  0  0  0  0  0
    7.1549  -12.6478   27.9443 S   0  0  0  0  0  0  0  0  0  0  0  0
    7.3663  -14.4761   27.9495 C   0  0  0  0  0  0  0  0  0  0  0  0
    6.4407  -15.0002   26.9068 C   0  0  0  0  0  0  0  0  0  0  0  0
    7.0301  -16.0402   25.9845 C   0  0  2  0  0  0  0  0  0  0  0  0
    8.4868  -15.9990   26.2868 N   0  0  0  0  0  0  0  0  0  0  0  0
    6.8534  -15.6947   24.5680 C   0  0  0  0  0  0  0  0  0  0  0  0
    5.7058  -15.6841   24.0047 O   0  0  0  0  0  0  0  0  0  0  0  0
    9.5208  -13.4537   22.3798 C   0  0  0  0  0  0  0  0  0  0  0  0
    8.1112  -13.7360   21.9650 C   0  0  1  0  0  0  0  0  0  0  0  0
    7.9635  -13.4542   20.4998 C   0  0  0  0  0  0  0  0  0  0  0  0
    7.7847  -15.1823   22.3068 C   0  0  2  0  0  0  0  0  0  0  0  0
    7.9499  -15.3548   23.7676 N   0  0  0  0  0  0  0  0  0  0  0  0
    8.6849  -16.1401   21.6063 C   0  0  0  0  0  0  0  0  0  0  0  0
    9.3313  -16.9562   22.3387 O   0  0  0  0  0  0  0  0  0  0  0  0
    9.4689  -15.0104   15.3916 N   0  0  0  0  0  0  0  0  0  0  0  0
    8.1833  -14.6647   15.8843 C   0  0  0  0  0  0  0  0  0  0  0  0
    7.7660  -13.4409   16.0062 N   0  0  0  0  0  0  0  0  0  0  0  0
    7.2926  -15.6978   16.2702 N   0  0  0  0  0  0  0  0  0  0  0  0
    7.6560  -17.0863   16.3156 C   0  0  0  0  0  0  0  0  0  0  0  0
    8.0093  -17.4520   17.7532 C   0  0  0  0  0  0  0  0  0  0  0  0
    9.4557  -17.2233   18.0693 C   0  0  0  0  0  0  0  0  0  0  0  0
    9.8008  -17.0516   19.4976 C   0  0  2  0  0  0  0  0  0  0  0  0
    8.8655  -16.2065   20.2134 N   0  0  0  0  0  0  0  0  0  0  0  0
   11.2227  -16.7287   19.7842 C   0  0  0  0  0  0  0  0  0  0  0  0
   11.6240  -15.5616   20.4397 O   0  0  0  0  0  0  0  0  0  0  0  0
   12.1629  -17.4916   19.4518 O   0  0  0  0  0  0  0  0  0  0  0  0
  2  1  1  0
  3  2  1  0
  4  5  1  0
  4  3  1  0
  5  6  1  1
  7 13  1  0
  7  5  1  0
  8  7  2  0
 10  9  1  6
 10 12  1  0
 11 10  1  0
 12 13  1  1
 14 15  2  0
 14 12  1  0
 16 17  1  0
 17 19  1  0
 18 17  2  0
 19 20  1  0
 20 21  1  0
 21 22  1  0
 23 22  1  6
 23 24  1  0
 24 14  1  0
 25 23  1  0
 26 25  1  0
 27 25  2  0
M  END
$$$$
