MVR.pdb
     RDKit          3D

 27 26  0  0  1  0  0  0  0  0999 V2000
    5.9965  -11.9385   26.2418 C   0  0  0  0  0  0  0  0  0  0  0  0
    6.4903  -13.2970   27.3331 S   0  0  0  0  0  0  0  0  0  0  0  0
    6.2665  -14.9142   26.4835 C   0  0  0  0  0  0  0  0  0  0  0  0
    6.2971  -14.6199   25.0238 C   0  0  0  0  0  0  0  0  0  0  0  0
    5.9992  -15.7938   24.1223 C   0  0  2  0  0  0  0  0  0  0  0  0
    6.1844  -16.9769   25.0062 N   0  0  0  0  0  0  0  0  0  0  0  0
    6.9569  -15.9042   23.0143 C   0  0  0  0  0  0  0  0  0  0  0  0
    7.6106  -16.9775   22.7798 O   0  0  0  0  0  0  0  0  0  0  0  0
    7.8838  -12.5704   20.6465 C   0  0  0  0  0  0  0  0  0  0  0  0
    7.6729  -13.8873   19.9680 C   0  0  1  0  0  0  0  0  0  0  0  0
    8.5098  -13.9404   18.7252 C   0  0  0  0  0  0  0  0  0  0  0  0
    8.0257  -14.9991   20.9451 C   0  0  2  0  0  0  0  0  0  0  0  0
    7.1927  -14.8242   22.1561 N   0  0  0  0  0  0  0  0  0  0  0  0
    9.4609  -14.9617   21.3413 C   0  0  0  0  0  0  0  0  0  0  0  0
   10.0504  -13.8376   21.2465 O   0  0  0  0  0  0  0  0  0  0  0  0
   10.1472  -16.9885   28.4354 N   0  0  0  0  0  0  0  0  0  0  0  0
   10.9784  -15.8790   28.7405 C   0  0  0  0  0  0  0  0  0  0  0  0
   11.6361  -15.7589   29.8539 N   0  0  0  0  0  0  0  0  0  0  0  0
   11.1097  -14.8348   27.7908 N   0  0  0  0  0  0  0  0  0  0  0  0
   10.3309  -14.7509   26.5872 C   0  0  0  0  0  0  0  0  0  0  0  0
   11.0570  -15.5096   25.4816 C   0  0  0  0  0  0  0  0  0  0  0  0
   10.3045  -15.5046   24.1863 C   0  0  0  0  0  0  0  0  0  0  0  0
   10.9768  -16.1350   23.0291 C   0  0  2  0  0  0  0  0  0  0  0  0
   10.1982  -16.0643   21.8084 N   0  0  0  0  0  0  0  0  0  0  0  0
   11.5624  -17.4784   23.2755 C   0  0  0  0  0  0  0  0  0  0  0  0
   10.9825  -18.6617   22.8104 O   0  0  0  0  0  0  0  0  0  0  0  0
   12.6258  -17.6367   23.9240 O   0  0  0  0  0  0  0  0  0  0  0  0
  2  1  1  0
  3  2  1  0
  4  5  1  0
  4  3  1  0
  5  6  1  1
  7 13  1  0
  7  5  1  0
  8  7  2  0
 10  9  1  1
 10 12  1  0
 11 10  1  0
 12 13  1  1
 14 15  2  0
 14 12  1  0
 16 17  1  0
 17 19  1  0
 18 17  2  0
 19 20  1  0
 20 21  1  0
 21 22  1  0
 23 22  1  1
 23 24  1  0
 24 14  1  0
 25 23  1  0
 26 25  1  0
 27 25  2  0
M  END
$$$$
