MVR.pdb
     RDKit          3D

 27 26  0  0  1  0  0  0  0  0999 V2000
    9.9237  -19.5772   28.9546 C   0  0  0  0  0  0  0  0  0  0  0  0
    8.1265  -19.3929   28.8281 S   0  0  0  0  0  0  0  0  0  0  0  0
    7.6331  -19.1154   27.0768 C   0  0  0  0  0  0  0  0  0  0  0  0
    6.1678  -18.8494   27.0994 C   0  0  0  0  0  0  0  0  0  0  0  0
    5.5405  -18.5767   25.7534 C   0  0  2  0  0  0  0  0  0  0  0  0
    5.6186  -19.8874   25.0526 N   0  0  0  0  0  0  0  0  0  0  0  0
    6.3057  -17.5992   24.9685 C   0  0  0  0  0  0  0  0  0  0  0  0
    6.9596  -17.9258   23.9196 O   0  0  0  0  0  0  0  0  0  0  0  0
    7.4019  -13.8861   26.5500 C   0  0  0  0  0  0  0  0  0  0  0  0
    6.9059  -13.8965   25.1383 C   0  0  1  0  0  0  0  0  0  0  0  0
    7.6121  -12.8267   24.3606 C   0  0  0  0  0  0  0  0  0  0  0  0
    7.1394  -15.2810   24.5517 C   0  0  2  0  0  0  0  0  0  0  0  0
    6.3471  -16.2508   25.3408 N   0  0  0  0  0  0  0  0  0  0  0  0
    8.5740  -15.6775   24.6061 C   0  0  0  0  0  0  0  0  0  0  0  0
    9.0290  -16.0200   25.7444 O   0  0  0  0  0  0  0  0  0  0  0  0
    9.5951  -19.7827   20.5105 N   0  0  0  0  0  0  0  0  0  0  0  0
   10.1178  -19.4832   19.2252 C   0  0  0  0  0  0  0  0  0  0  0  0
    9.9049  -20.2163   18.1746 N   0  0  0  0  0  0  0  0  0  0  0  0
   10.9190  -18.3255   19.0598 N   0  0  0  0  0  0  0  0  0  0  0  0
   11.6678  -17.7171   20.1235 C   0  0  0  0  0  0  0  0  0  0  0  0
   10.6998  -16.9815   21.0438 C   0  0  0  0  0  0  0  0  0  0  0  0
   11.3988  -16.2117   22.1222 C   0  0  0  0  0  0  0  0  0  0  0  0
   10.7863  -16.2550   23.4681 C   0  0  2  0  0  0  0  0  0  0  0  0
    9.4468  -15.7021   23.5038 N   0  0  0  0  0  0  0  0  0  0  0  0
   11.6465  -15.7837   24.5845 C   0  0  0  0  0  0  0  0  0  0  0  0
   11.6645  -14.4588   25.0284 O   0  0  0  0  0  0  0  0  0  0  0  0
   12.4194  -16.5540   25.2056 O   0  0  0  0  0  0  0  0  0  0  0  0
  2  1  1  0
  3  2  1  0
  4  5  1  0
  4  3  1  0
  5  6  1  6
  7 13  1  0
  7  5  1  0
  8  7  2  0
 10  9  1  1
 10 12  1  0
 11 10  1  0
 12 13  1  1
 14 15  2  0
 14 12  1  0
 16 17  1  0
 17 19  1  0
 18 17  2  0
 19 20  1  0
 20 21  1  0
 21 22  1  0
 23 22  1  6
 23 24  1  0
 24 14  1  0
 25 23  1  0
 26 25  1  0
 27 25  2  0
M  END
$$$$
