MVR.pdb
     RDKit          3D

 27 26  0  0  1  0  0  0  0  0999 V2000
    4.2921  -19.0694   23.7551 C   0  0  0  0  0  0  0  0  0  0  0  0
    3.3629  -19.8665   22.4204 S   0  0  0  0  0  0  0  0  0  0  0  0
    3.5921  -18.9466   20.8429 C   0  0  0  0  0  0  0  0  0  0  0  0
    4.9646  -18.3710   20.8980 C   0  0  0  0  0  0  0  0  0  0  0  0
    5.2983  -17.3916   19.7984 C   0  0  2  0  0  0  0  0  0  0  0  0
    5.2913  -18.2253   18.5655 N   0  0  0  0  0  0  0  0  0  0  0  0
    6.6428  -16.8199   19.9487 C   0  0  0  0  0  0  0  0  0  0  0  0
    7.6827  -17.3803   19.4602 O   0  0  0  0  0  0  0  0  0  0  0  0
    7.2910  -12.9035   20.0990 C   0  0  0  0  0  0  0  0  0  0  0  0
    8.0745  -13.5956   21.1695 C   0  0  1  0  0  0  0  0  0  0  0  0
    7.3860  -13.4012   22.4871 C   0  0  0  0  0  0  0  0  0  0  0  0
    8.2050  -15.0665   20.8020 C   0  0  2  0  0  0  0  0  0  0  0  0
    6.8415  -15.6192   20.6398 N   0  0  0  0  0  0  0  0  0  0  0  0
    8.9159  -15.8454   21.8537 C   0  0  0  0  0  0  0  0  0  0  0  0
    8.2056  -16.2948   22.8096 O   0  0  0  0  0  0  0  0  0  0  0  0
   12.4907  -18.2631   17.9154 N   0  0  0  0  0  0  0  0  0  0  0  0
   12.8974  -19.5448   18.3700 C   0  0  0  0  0  0  0  0  0  0  0  0
   12.9418  -20.5961   17.6087 N   0  0  0  0  0  0  0  0  0  0  0  0
   13.2787  -19.7061   19.7258 N   0  0  0  0  0  0  0  0  0  0  0  0
   12.3424  -19.7939   20.8110 C   0  0  0  0  0  0  0  0  0  0  0  0
   11.6754  -18.4347   20.9919 C   0  0  0  0  0  0  0  0  0  0  0  0
   12.0319  -17.7841   22.2934 C   0  0  0  0  0  0  0  0  0  0  0  0
   11.0282  -16.8616   22.8678 C   0  0  2  0  0  0  0  0  0  0  0  0
   10.2955  -16.1173   21.8625 N   0  0  0  0  0  0  0  0  0  0  0  0
   11.4981  -16.0179   23.9972 C   0  0  0  0  0  0  0  0  0  0  0  0
   11.9187  -16.5449   25.2212 O   0  0  0  0  0  0  0  0  0  0  0  0
   11.5471  -14.7654   23.9225 O   0  0  0  0  0  0  0  0  0  0  0  0
  2  1  1  0
  3  2  1  0
  4  5  1  0
  4  3  1  0
  5  6  1  6
  7 13  1  0
  7  5  1  0
  8  7  2  0
 10  9  1  6
 10 12  1  0
 11 10  1  0
 12 13  1  1
 14 15  2  0
 14 12  1  0
 16 17  1  0
 17 19  1  0
 18 17  2  0
 19 20  1  0
 20 21  1  0
 21 22  1  0
 23 22  1  6
 23 24  1  0
 24 14  1  0
 25 23  1  0
 26 25  1  0
 27 25  2  0
M  END
$$$$
