MVR.pdb
     RDKit          3D

 27 26  0  0  1  0  0  0  0  0999 V2000
    8.0006  -11.5089   19.5635 C   0  0  0  0  0  0  0  0  0  0  0  0
    7.1468  -12.8646   18.7188 S   0  0  0  0  0  0  0  0  0  0  0  0
    7.3542  -14.4346   19.6565 C   0  0  0  0  0  0  0  0  0  0  0  0
    7.8858  -14.0484   20.9932 C   0  0  0  0  0  0  0  0  0  0  0  0
    8.3453  -15.1953   21.8609 C   0  0  2  0  0  0  0  0  0  0  0  0
    7.1395  -16.0603   21.9749 N   0  0  0  0  0  0  0  0  0  0  0  0
    8.7167  -14.7586   23.2131 C   0  0  0  0  0  0  0  0  0  0  0  0
    9.8067  -14.1362   23.4556 O   0  0  0  0  0  0  0  0  0  0  0  0
    7.3804  -13.1292   27.5042 C   0  0  0  0  0  0  0  0  0  0  0  0
    7.0089  -13.7590   26.1988 C   0  0  1  0  0  0  0  0  0  0  0  0
    6.5151  -12.6970   25.2627 C   0  0  0  0  0  0  0  0  0  0  0  0
    8.2253  -14.4888   25.6480 C   0  0  2  0  0  0  0  0  0  0  0  0
    7.8779  -15.0067   24.3056 N   0  0  0  0  0  0  0  0  0  0  0  0
    8.6314  -15.6318   26.5123 C   0  0  0  0  0  0  0  0  0  0  0  0
    7.7991  -15.9979   27.4031 O   0  0  0  0  0  0  0  0  0  0  0  0
   13.8160  -19.3199   23.2399 N   0  0  0  0  0  0  0  0  0  0  0  0
   12.6730  -19.1027   22.4267 C   0  0  0  0  0  0  0  0  0  0  0  0
   12.7183  -19.0195   21.1314 N   0  0  0  0  0  0  0  0  0  0  0  0
   11.4042  -18.9658   23.0440 N   0  0  0  0  0  0  0  0  0  0  0  0
   11.1710  -19.1918   24.4428 C   0  0  0  0  0  0  0  0  0  0  0  0
   11.7132  -18.0018   25.2270 C   0  0  0  0  0  0  0  0  0  0  0  0
   11.4796  -18.1259   26.7015 C   0  0  0  0  0  0  0  0  0  0  0  0
   10.2938  -17.4273   27.2439 C   0  0  2  0  0  0  0  0  0  0  0  0
    9.8503  -16.3257   26.4125 N   0  0  0  0  0  0  0  0  0  0  0  0
   10.3497  -17.0870   28.6894 C   0  0  0  0  0  0  0  0  0  0  0  0
   10.2815  -18.0463   29.7033 O   0  0  0  0  0  0  0  0  0  0  0  0
   10.4624  -15.9041   29.0951 O   0  0  0  0  0  0  0  0  0  0  0  0
  2  1  1  0
  3  2  1  0
  4  5  1  0
  4  3  1  0
  5  6  1  1
  7 13  1  0
  7  5  1  0
  8  7  2  0
 10  9  1  1
 10 12  1  0
 11 10  1  0
 12 13  1  6
 14 15  2  0
 14 12  1  0
 16 17  1  0
 17 19  1  0
 18 17  2  0
 19 20  1  0
 20 21  1  0
 21 22  1  0
 23 22  1  6
 23 24  1  0
 24 14  1  0
 25 23  1  0
 26 25  1  0
 27 25  2  0
M  END
$$$$
