MVR.pdb
     RDKit          3D

 27 26  0  0  1  0  0  0  0  0999 V2000
    5.9165  -11.8632   26.9664 C   0  0  0  0  0  0  0  0  0  0  0  0
    5.0025  -12.0280   25.4115 S   0  0  0  0  0  0  0  0  0  0  0  0
    6.0718  -12.7819   24.1171 C   0  0  0  0  0  0  0  0  0  0  0  0
    6.8968  -13.8090   24.8120 C   0  0  0  0  0  0  0  0  0  0  0  0
    8.1855  -14.1793   24.1178 C   0  0  2  0  0  0  0  0  0  0  0  0
    7.7360  -14.8292   22.8566 N   0  0  0  0  0  0  0  0  0  0  0  0
    8.9669  -15.1630   24.8786 C   0  0  0  0  0  0  0  0  0  0  0  0
    9.0290  -16.3948   24.5422 O   0  0  0  0  0  0  0  0  0  0  0  0
   10.4948  -14.1432   28.5634 C   0  0  0  0  0  0  0  0  0  0  0  0
   11.3854  -15.0172   27.7377 C   0  0  1  0  0  0  0  0  0  0  0  0
   12.1425  -15.9429   28.6420 C   0  0  0  0  0  0  0  0  0  0  0  0
   10.5284  -15.7716   26.7318 C   0  0  2  0  0  0  0  0  0  0  0  0
    9.6884  -14.7848   26.0166 N   0  0  0  0  0  0  0  0  0  0  0  0
    9.6400  -16.7694   27.3901 C   0  0  0  0  0  0  0  0  0  0  0  0
    8.6843  -16.3075   28.0925 O   0  0  0  0  0  0  0  0  0  0  0  0
    6.4855  -21.9447   22.7571 N   0  0  0  0  0  0  0  0  0  0  0  0
    7.4794  -20.9317   22.7874 C   0  0  0  0  0  0  0  0  0  0  0  0
    8.2789  -20.6800   21.7954 N   0  0  0  0  0  0  0  0  0  0  0  0
    7.6229  -20.1419   23.9559 N   0  0  0  0  0  0  0  0  0  0  0  0
    6.7800  -20.2697   25.1114 C   0  0  0  0  0  0  0  0  0  0  0  0
    7.3010  -19.3392   26.2013 C   0  0  0  0  0  0  0  0  0  0  0  0
    8.2076  -20.0341   27.1705 C   0  0  0  0  0  0  0  0  0  0  0  0
    9.0426  -19.1683   28.0316 C   0  0  2  0  0  0  0  0  0  0  0  0
    9.7797  -18.1650   27.2890 N   0  0  0  0  0  0  0  0  0  0  0  0
    9.8681  -19.8715   29.0477 C   0  0  0  0  0  0  0  0  0  0  0  0
    9.3216  -20.6657   30.0594 O   0  0  0  0  0  0  0  0  0  0  0  0
   11.1213  -19.7954   29.0618 O   0  0  0  0  0  0  0  0  0  0  0  0
  2  1  1  0
  3  2  1  0
  4  5  1  0
  4  3  1  0
  5  6  1  6
  7 13  1  0
  7  5  1  0
  8  7  2  0
 10  9  1  1
 10 12  1  0
 11 10  1  0
 12 13  1  1
 14 15  2  0
 14 12  1  0
 16 17  1  0
 17 19  1  0
 18 17  2  0
 19 20  1  0
 20 21  1  0
 21 22  1  0
 23 22  1  6
 23 24  1  0
 24 14  1  0
 25 23  1  0
 26 25  1  0
 27 25  2  0
M  END
$$$$
