MVR.pdb
     RDKit          3D

 27 26  0  0  1  0  0  0  0  0999 V2000
    4.6648  -19.1752   22.6957 C   0  0  0  0  0  0  0  0  0  0  0  0
    5.6869  -19.0019   21.2106 S   0  0  0  0  0  0  0  0  0  0  0  0
    5.9025  -17.2242   20.7858 C   0  0  0  0  0  0  0  0  0  0  0  0
    6.4813  -16.5790   21.9971 C   0  0  0  0  0  0  0  0  0  0  0  0
    6.6006  -15.0753   21.9326 C   0  0  2  0  0  0  0  0  0  0  0  0
    7.3566  -14.8322   20.6738 N   0  0  0  0  0  0  0  0  0  0  0  0
    7.3893  -14.5295   23.0449 C   0  0  0  0  0  0  0  0  0  0  0  0
    8.6676  -14.5255   23.0396 O   0  0  0  0  0  0  0  0  0  0  0  0
    7.4590  -12.1792   27.3758 C   0  0  0  0  0  0  0  0  0  0  0  0
    6.6929  -12.5865   26.1568 C   0  0  1  0  0  0  0  0  0  0  0  0
    6.2739  -11.3583   25.4056 C   0  0  0  0  0  0  0  0  0  0  0  0
    7.5697  -13.5023   25.3155 C   0  0  2  0  0  0  0  0  0  0  0  0
    6.7635  -13.9805   24.1699 N   0  0  0  0  0  0  0  0  0  0  0  0
    8.0513  -14.6811   26.0879 C   0  0  0  0  0  0  0  0  0  0  0  0
    7.2261  -15.6377   26.2434 O   0  0  0  0  0  0  0  0  0  0  0  0
   14.8444  -19.8279   24.5049 N   0  0  0  0  0  0  0  0  0  0  0  0
   14.0683  -20.4520   25.5164 C   0  0  0  0  0  0  0  0  0  0  0  0
   14.2707  -21.6661   25.9304 N   0  0  0  0  0  0  0  0  0  0  0  0
   13.0098  -19.7265   26.1187 N   0  0  0  0  0  0  0  0  0  0  0  0
   12.6548  -18.3844   25.7517 C   0  0  0  0  0  0  0  0  0  0  0  0
   11.6105  -17.8688   26.7359 C   0  0  0  0  0  0  0  0  0  0  0  0
   10.9367  -16.6176   26.2617 C   0  0  0  0  0  0  0  0  0  0  0  0
    9.9364  -16.0197   27.1730 C   0  0  2  0  0  0  0  0  0  0  0  0
    9.3353  -14.8102   26.6464 N   0  0  0  0  0  0  0  0  0  0  0  0
   10.3491  -15.8994   28.5955 C   0  0  0  0  0  0  0  0  0  0  0  0
   10.6843  -16.9995   29.3894 O   0  0  0  0  0  0  0  0  0  0  0  0
   10.4230  -14.7906   29.1800 O   0  0  0  0  0  0  0  0  0  0  0  0
  2  1  1  0
  3  2  1  0
  4  5  1  0
  4  3  1  0
  5  6  1  6
  7 13  1  0
  7  5  1  0
  8  7  2  0
 10  9  1  1
 10 12  1  0
 11 10  1  0
 12 13  1  6
 14 15  2  0
 14 12  1  0
 16 17  1  0
 17 19  1  0
 18 17  2  0
 19 20  1  0
 20 21  1  0
 21 22  1  0
 23 22  1  6
 23 24  1  0
 24 14  1  0
 25 23  1  0
 26 25  1  0
 27 25  2  0
M  END
$$$$
