MVR.pdb
     RDKit          3D

 27 26  0  0  1  0  0  0  0  0999 V2000
    7.8970  -11.5274   26.1422 C   0  0  0  0  0  0  0  0  0  0  0  0
    6.7147  -12.0370   27.4160 S   0  0  0  0  0  0  0  0  0  0  0  0
    6.2982  -13.8197   27.2264 C   0  0  0  0  0  0  0  0  0  0  0  0
    7.0565  -14.2950   26.0358 C   0  0  0  0  0  0  0  0  0  0  0  0
    6.2709  -15.1471   25.0682 C   0  0  2  0  0  0  0  0  0  0  0  0
    6.0090  -16.3993   25.8289 N   0  0  0  0  0  0  0  0  0  0  0  0
    7.0502  -15.4993   23.8742 C   0  0  0  0  0  0  0  0  0  0  0  0
    7.8079  -16.5280   23.8309 O   0  0  0  0  0  0  0  0  0  0  0  0
    8.0075  -12.7094   21.0118 C   0  0  0  0  0  0  0  0  0  0  0  0
    7.5460  -14.0205   20.4578 C   0  0  1  0  0  0  0  0  0  0  0  0
    8.2966  -14.3119   19.1930 C   0  0  0  0  0  0  0  0  0  0  0  0
    7.7602  -15.0960   21.5128 C   0  0  2  0  0  0  0  0  0  0  0  0
    6.9906  -14.7132   22.7178 N   0  0  0  0  0  0  0  0  0  0  0  0
    9.1953  -15.2367   21.8855 C   0  0  0  0  0  0  0  0  0  0  0  0
    9.7061  -14.2857   22.5598 O   0  0  0  0  0  0  0  0  0  0  0  0
    8.6852  -19.2187   25.8087 N   0  0  0  0  0  0  0  0  0  0  0  0
    8.7108  -20.0973   24.6941 C   0  0  0  0  0  0  0  0  0  0  0  0
    7.6699  -20.7457   24.2667 N   0  0  0  0  0  0  0  0  0  0  0  0
    9.9300  -20.2909   23.9973 N   0  0  0  0  0  0  0  0  0  0  0  0
   11.1225  -19.5331   24.2539 C   0  0  0  0  0  0  0  0  0  0  0  0
   10.9083  -18.1048   23.7650 C   0  0  0  0  0  0  0  0  0  0  0  0
   11.7108  -17.7860   22.5408 C   0  0  0  0  0  0  0  0  0  0  0  0
   11.4155  -16.4991   21.8737 C   0  0  2  0  0  0  0  0  0  0  0  0
   10.0121  -16.3317   21.5517 N   0  0  0  0  0  0  0  0  0  0  0  0
   12.3229  -16.1272   20.7571 C   0  0  0  0  0  0  0  0  0  0  0  0
   13.6847  -15.8679   20.9332 O   0  0  0  0  0  0  0  0  0  0  0  0
   11.9191  -16.0211   19.5729 O   0  0  0  0  0  0  0  0  0  0  0  0
  2  1  1  0
  3  2  1  0
  4  5  1  0
  4  3  1  0
  5  6  1  1
  7 13  1  0
  7  5  1  0
  8  7  2  0
 10  9  1  1
 10 12  1  0
 11 10  1  0
 12 13  1  1
 14 15  2  0
 14 12  1  0
 16 17  1  0
 17 19  1  0
 18 17  2  0
 19 20  1  0
 20 21  1  0
 21 22  1  0
 23 22  1  6
 23 24  1  0
 24 14  1  0
 25 23  1  0
 26 25  1  0
 27 25  2  0
M  END
$$$$
