MVR.pdb
     RDKit          3D

 27 26  0  0  1  0  0  0  0  0999 V2000
    6.7177  -11.1128   26.6772 C   0  0  0  0  0  0  0  0  0  0  0  0
    6.2376  -12.4958   27.7435 S   0  0  0  0  0  0  0  0  0  0  0  0
    5.4290  -13.8184   26.7514 C   0  0  0  0  0  0  0  0  0  0  0  0
    6.4594  -14.2993   25.7894 C   0  0  0  0  0  0  0  0  0  0  0  0
    5.9802  -15.3234   24.7889 C   0  0  2  0  0  0  0  0  0  0  0  0
    5.7325  -16.5374   25.6135 N   0  0  0  0  0  0  0  0  0  0  0  0
    7.0083  -15.6559   23.7941 C   0  0  0  0  0  0  0  0  0  0  0  0
    7.7407  -16.6992   23.8901 O   0  0  0  0  0  0  0  0  0  0  0  0
    6.5938  -14.4959   19.9450 C   0  0  0  0  0  0  0  0  0  0  0  0
    7.9960  -14.3219   20.4372 C   0  0  1  0  0  0  0  0  0  0  0  0
    8.2255  -12.8779   20.7692 C   0  0  0  0  0  0  0  0  0  0  0  0
    8.2037  -15.2276   21.6423 C   0  0  2  0  0  0  0  0  0  0  0  0
    7.2278  -14.8336   22.6831 N   0  0  0  0  0  0  0  0  0  0  0  0
    9.5780  -15.1064   22.2035 C   0  0  0  0  0  0  0  0  0  0  0  0
    9.7341  -14.2789   23.1579 O   0  0  0  0  0  0  0  0  0  0  0  0
   12.4844  -16.4777   28.3201 N   0  0  0  0  0  0  0  0  0  0  0  0
   11.3139  -15.7922   27.9017 C   0  0  0  0  0  0  0  0  0  0  0  0
   11.1454  -14.5114   28.0350 N   0  0  0  0  0  0  0  0  0  0  0  0
   10.2603  -16.5289   27.3043 N   0  0  0  0  0  0  0  0  0  0  0  0
   10.4202  -17.3335   26.1257 C   0  0  0  0  0  0  0  0  0  0  0  0
   10.9918  -16.4617   25.0129 C   0  0  0  0  0  0  0  0  0  0  0  0
   11.1701  -17.2088   23.7267 C   0  0  0  0  0  0  0  0  0  0  0  0
   11.7208  -16.4418   22.5878 C   0  0  2  0  0  0  0  0  0  0  0  0
   10.6973  -15.8334   21.7610 N   0  0  0  0  0  0  0  0  0  0  0  0
   12.7820  -17.1241   21.8025 C   0  0  0  0  0  0  0  0  0  0  0  0
   12.6722  -17.3833   20.4337 O   0  0  0  0  0  0  0  0  0  0  0  0
   13.8549  -17.5150   22.3245 O   0  0  0  0  0  0  0  0  0  0  0  0
  2  1  1  0
  3  2  1  0
  4  5  1  0
  4  3  1  0
  5  6  1  1
  7 13  1  0
  7  5  1  0
  8  7  2  0
 10  9  1  1
 10 12  1  0
 11 10  1  0
 12 13  1  1
 14 15  2  0
 14 12  1  0
 16 17  1  0
 17 19  1  0
 18 17  2  0
 19 20  1  0
 20 21  1  0
 21 22  1  0
 23 22  1  1
 23 24  1  0
 24 14  1  0
 25 23  1  0
 26 25  1  0
 27 25  2  0
M  END
$$$$
