MVR.pdb
     RDKit          3D

 27 26  0  0  1  0  0  0  0  0999 V2000
    8.0715  -11.4833   19.2442 C   0  0  0  0  0  0  0  0  0  0  0  0
    7.0987  -12.7628   18.4094 S   0  0  0  0  0  0  0  0  0  0  0  0
    7.0958  -14.3135   19.4007 C   0  0  0  0  0  0  0  0  0  0  0  0
    7.7080  -13.9642   20.7128 C   0  0  0  0  0  0  0  0  0  0  0  0
    7.8760  -15.1166   21.6737 C   0  0  2  0  0  0  0  0  0  0  0  0
    6.4981  -15.6591   21.8228 N   0  0  0  0  0  0  0  0  0  0  0  0
    8.3334  -14.6770   22.9983 C   0  0  0  0  0  0  0  0  0  0  0  0
    9.5148  -14.2324   23.2011 O   0  0  0  0  0  0  0  0  0  0  0  0
    7.1896  -13.1209   27.4771 C   0  0  0  0  0  0  0  0  0  0  0  0
    6.7317  -13.6774   26.1658 C   0  0  1  0  0  0  0  0  0  0  0  0
    6.0387  -12.5988   25.3884 C   0  0  0  0  0  0  0  0  0  0  0  0
    7.9396  -14.2324   25.4253 C   0  0  2  0  0  0  0  0  0  0  0  0
    7.4805  -14.7244   24.1069 N   0  0  0  0  0  0  0  0  0  0  0  0
    8.5785  -15.3587   26.1612 C   0  0  0  0  0  0  0  0  0  0  0  0
    7.8088  -16.2924   26.5561 O   0  0  0  0  0  0  0  0  0  0  0  0
   14.8024  -14.5382   23.4006 N   0  0  0  0  0  0  0  0  0  0  0  0
   13.9938  -15.2892   22.5078 C   0  0  0  0  0  0  0  0  0  0  0  0
   13.7568  -14.9336   21.2814 N   0  0  0  0  0  0  0  0  0  0  0  0
   13.4034  -16.4955   22.9616 N   0  0  0  0  0  0  0  0  0  0  0  0
   13.3827  -16.9027   24.3386 C   0  0  0  0  0  0  0  0  0  0  0  0
   12.0308  -16.5305   24.9377 C   0  0  0  0  0  0  0  0  0  0  0  0
   11.9048  -16.9327   26.3753 C   0  0  0  0  0  0  0  0  0  0  0  0
   10.6326  -16.5904   27.0482 C   0  0  2  0  0  0  0  0  0  0  0  0
    9.9522  -15.4623   26.4433 N   0  0  0  0  0  0  0  0  0  0  0  0
   10.6856  -16.5180   28.5315 C   0  0  0  0  0  0  0  0  0  0  0  0
   10.9922  -17.6162   29.3396 O   0  0  0  0  0  0  0  0  0  0  0  0
   10.4555  -15.4550   29.1589 O   0  0  0  0  0  0  0  0  0  0  0  0
  2  1  1  0
  3  2  1  0
  4  5  1  0
  4  3  1  0
  5  6  1  1
  7 13  1  0
  7  5  1  0
  8  7  2  0
 10  9  1  1
 10 12  1  0
 11 10  1  0
 12 13  1  6
 14 15  2  0
 14 12  1  0
 16 17  1  0
 17 19  1  0
 18 17  2  0
 19 20  1  0
 20 21  1  0
 21 22  1  0
 23 22  1  6
 23 24  1  0
 24 14  1  0
 25 23  1  0
 26 25  1  0
 27 25  2  0
M  END
$$$$
