MVR.pdb
     RDKit          3D

 27 26  0  0  1  0  0  0  0  0999 V2000
    4.4334  -18.2479   22.2444 C   0  0  0  0  0  0  0  0  0  0  0  0
    4.9948  -18.0387   20.5352 S   0  0  0  0  0  0  0  0  0  0  0  0
    5.6055  -16.3232   20.2674 C   0  0  0  0  0  0  0  0  0  0  0  0
    6.3758  -15.9651   21.4909 C   0  0  0  0  0  0  0  0  0  0  0  0
    6.9053  -14.5517   21.5294 C   0  0  2  0  0  0  0  0  0  0  0  0
    7.8088  -14.4781   20.3490 N   0  0  0  0  0  0  0  0  0  0  0  0
    7.7093  -14.2891   22.7300 C   0  0  0  0  0  0  0  0  0  0  0  0
    8.9316  -14.6508   22.8271 O   0  0  0  0  0  0  0  0  0  0  0  0
    5.9847  -12.4735   26.1783 C   0  0  0  0  0  0  0  0  0  0  0  0
    7.4317  -12.2899   25.8446 C   0  0  1  0  0  0  0  0  0  0  0  0
    8.2022  -12.0523   27.1087 C   0  0  0  0  0  0  0  0  0  0  0  0
    7.9187  -13.5240   25.0994 C   0  0  2  0  0  0  0  0  0  0  0  0
    7.1626  -13.6192   23.8305 N   0  0  0  0  0  0  0  0  0  0  0  0
    7.7011  -14.7726   25.8817 C   0  0  0  0  0  0  0  0  0  0  0  0
    6.6153  -15.4004   25.6647 O   0  0  0  0  0  0  0  0  0  0  0  0
   13.1316  -18.5774   21.4743 N   0  0  0  0  0  0  0  0  0  0  0  0
   13.0509  -19.4910   22.5576 C   0  0  0  0  0  0  0  0  0  0  0  0
   13.6356  -20.6506   22.5644 N   0  0  0  0  0  0  0  0  0  0  0  0
   12.2946  -19.1365   23.7031 N   0  0  0  0  0  0  0  0  0  0  0  0
   11.5610  -17.9079   23.8236 C   0  0  0  0  0  0  0  0  0  0  0  0
   10.9035  -17.8644   25.1987 C   0  0  0  0  0  0  0  0  0  0  0  0
   10.0779  -16.6317   25.4063 C   0  0  0  0  0  0  0  0  0  0  0  0
    9.3752  -16.5177   26.7031 C   0  0  2  0  0  0  0  0  0  0  0  0
    8.5991  -15.2997   26.8267 N   0  0  0  0  0  0  0  0  0  0  0  0
   10.1904  -16.8199   27.9083 C   0  0  0  0  0  0  0  0  0  0  0  0
   11.0047  -15.8740   28.5367 O   0  0  0  0  0  0  0  0  0  0  0  0
   10.1994  -17.9558   28.4432 O   0  0  0  0  0  0  0  0  0  0  0  0
  2  1  1  0
  3  2  1  0
  4  5  1  0
  4  3  1  0
  5  6  1  6
  7 13  1  0
  7  5  1  0
  8  7  2  0
 10  9  1  1
 10 12  1  0
 11 10  1  0
 12 13  1  6
 14 15  2  0
 14 12  1  0
 16 17  1  0
 17 19  1  0
 18 17  2  0
 19 20  1  0
 20 21  1  0
 21 22  1  0
 23 22  1  6
 23 24  1  0
 24 14  1  0
 25 23  1  0
 26 25  1  0
 27 25  2  0
M  END
$$$$
