MVR.pdb
     RDKit          3D

 27 26  0  0  1  0  0  0  0  0999 V2000
    7.4690  -19.9886   16.7548 C   0  0  0  0  0  0  0  0  0  0  0  0
    8.0020  -19.7311   15.0431 S   0  0  0  0  0  0  0  0  0  0  0  0
    8.3798  -17.9537   14.7508 C   0  0  0  0  0  0  0  0  0  0  0  0
    8.5675  -17.3461   16.0977 C   0  0  0  0  0  0  0  0  0  0  0  0
    8.8224  -15.8580   16.1045 C   0  0  2  0  0  0  0  0  0  0  0  0
    9.8041  -15.6603   15.0034 N   0  0  0  0  0  0  0  0  0  0  0  0
    9.4480  -15.4043   17.3534 C   0  0  0  0  0  0  0  0  0  0  0  0
   10.7118  -15.4494   17.5410 O   0  0  0  0  0  0  0  0  0  0  0  0
    8.0413  -12.2855   19.2628 C   0  0  0  0  0  0  0  0  0  0  0  0
    8.3622  -13.3573   20.2563 C   0  0  1  0  0  0  0  0  0  0  0  0
    7.0898  -14.0160   20.6980 C   0  0  0  0  0  0  0  0  0  0  0  0
    9.3254  -14.3438   19.6125 C   0  0  2  0  0  0  0  0  0  0  0  0
    8.6746  -14.8934   18.4020 N   0  0  0  0  0  0  0  0  0  0  0  0
    9.6674  -15.4695   20.5258 C   0  0  0  0  0  0  0  0  0  0  0  0
    8.9035  -16.4870   20.4889 O   0  0  0  0  0  0  0  0  0  0  0  0
   14.7790  -14.5687   18.8512 N   0  0  0  0  0  0  0  0  0  0  0  0
   15.3265  -14.5983   20.1605 C   0  0  0  0  0  0  0  0  0  0  0  0
   16.0712  -13.6532   20.6492 N   0  0  0  0  0  0  0  0  0  0  0  0
   15.0575  -15.7124   20.9948 N   0  0  0  0  0  0  0  0  0  0  0  0
   14.4967  -16.9459   20.5194 C   0  0  0  0  0  0  0  0  0  0  0  0
   12.9762  -16.8428   20.5701 C   0  0  0  0  0  0  0  0  0  0  0  0
   12.4154  -17.2174   21.9078 C   0  0  0  0  0  0  0  0  0  0  0  0
   11.1436  -16.5690   22.2962 C   0  0  2  0  0  0  0  0  0  0  0  0
   10.7603  -15.4875   21.4104 N   0  0  0  0  0  0  0  0  0  0  0  0
   11.0069  -16.2261   23.7357 C   0  0  0  0  0  0  0  0  0  0  0  0
   10.6409  -14.9551   24.1869 O   0  0  0  0  0  0  0  0  0  0  0  0
   11.2139  -17.0650   24.6467 O   0  0  0  0  0  0  0  0  0  0  0  0
  2  1  1  0
  3  2  1  0
  4  5  1  0
  4  3  1  0
  5  6  1  6
  7 13  1  0
  7  5  1  0
  8  7  2  0
 10  9  1  6
 10 12  1  0
 11 10  1  0
 12 13  1  6
 14 15  2  0
 14 12  1  0
 16 17  1  0
 17 19  1  0
 18 17  2  0
 19 20  1  0
 20 21  1  0
 21 22  1  0
 23 22  1  1
 23 24  1  0
 24 14  1  0
 25 23  1  0
 26 25  1  0
 27 25  2  0
M  END
$$$$
