MVR.pdb
     RDKit          3D

 27 26  0  0  1  0  0  0  0  0999 V2000
    6.9648  -12.5629   28.1900 C   0  0  0  0  0  0  0  0  0  0  0  0
    5.9468  -11.6143   27.0306 S   0  0  0  0  0  0  0  0  0  0  0  0
    6.3596  -12.0694   25.2957 C   0  0  0  0  0  0  0  0  0  0  0  0
    6.0774  -13.5268   25.1744 C   0  0  0  0  0  0  0  0  0  0  0  0
    7.2693  -14.3888   24.8338 C   0  0  2  0  0  0  0  0  0  0  0  0
    8.4249  -13.4576   24.9452 N   0  0  0  0  0  0  0  0  0  0  0  0
    7.2223  -14.8863   23.4528 C   0  0  0  0  0  0  0  0  0  0  0  0
    6.4318  -15.8232   23.0899 O   0  0  0  0  0  0  0  0  0  0  0  0
    6.4070  -13.3629   20.2945 C   0  0  0  0  0  0  0  0  0  0  0  0
    7.8108  -13.8430   20.0998 C   0  0  1  0  0  0  0  0  0  0  0  0
    8.7520  -12.6853   20.2482 C   0  0  0  0  0  0  0  0  0  0  0  0
    8.0922  -14.9444   21.1112 C   0  0  2  0  0  0  0  0  0  0  0  0
    8.0505  -14.3440   22.4635 N   0  0  0  0  0  0  0  0  0  0  0  0
    9.4295  -15.5664   20.9041 C   0  0  0  0  0  0  0  0  0  0  0  0
   10.4195  -14.7724   20.8054 O   0  0  0  0  0  0  0  0  0  0  0  0
   11.2326  -20.2420   27.7880 N   0  0  0  0  0  0  0  0  0  0  0  0
   11.9308  -19.9192   26.5950 C   0  0  0  0  0  0  0  0  0  0  0  0
   12.4190  -20.8094   25.7852 N   0  0  0  0  0  0  0  0  0  0  0  0
   12.1160  -18.5561   26.2524 N   0  0  0  0  0  0  0  0  0  0  0  0
   11.1881  -17.8021   25.4570 C   0  0  0  0  0  0  0  0  0  0  0  0
   11.3827  -18.1777   23.9920 C   0  0  0  0  0  0  0  0  0  0  0  0
   10.5061  -17.3860   23.0706 C   0  0  0  0  0  0  0  0  0  0  0  0
   10.5798  -17.7271   21.6330 C   0  0  2  0  0  0  0  0  0  0  0  0
    9.6714  -16.9487   20.8143 N   0  0  0  0  0  0  0  0  0  0  0  0
   10.5637  -19.1779   21.3118 C   0  0  0  0  0  0  0  0  0  0  0  0
   11.7149  -19.9023   20.9910 O   0  0  0  0  0  0  0  0  0  0  0  0
    9.5040  -19.8514   21.3080 O   0  0  0  0  0  0  0  0  0  0  0  0
  2  1  1  0
  3  2  1  0
  4  5  1  0
  4  3  1  0
  5  6  1  6
  7 13  1  0
  7  5  1  0
  8  7  2  0
 10  9  1  1
 10 12  1  0
 11 10  1  0
 12 13  1  1
 14 15  2  0
 14 12  1  0
 16 17  1  0
 17 19  1  0
 18 17  2  0
 19 20  1  0
 20 21  1  0
 21 22  1  0
 23 22  1  1
 23 24  1  0
 24 14  1  0
 25 23  1  0
 26 25  1  0
 27 25  2  0
M  END
$$$$
