MVR.pdb
     RDKit          3D

 27 26  0  0  1  0  0  0  0  0999 V2000
    2.4454  -18.0865   21.9831 C   0  0  0  0  0  0  0  0  0  0  0  0
    2.9076  -19.5706   21.0537 S   0  0  0  0  0  0  0  0  0  0  0  0
    4.0070  -19.1277   19.6457 C   0  0  0  0  0  0  0  0  0  0  0  0
    5.0906  -18.2825   20.2199 C   0  0  0  0  0  0  0  0  0  0  0  0
    5.8362  -17.4253   19.2253 C   0  0  2  0  0  0  0  0  0  0  0  0
    6.3169  -18.3986   18.2071 N   0  0  0  0  0  0  0  0  0  0  0  0
    7.0120  -16.7757   19.8189 C   0  0  0  0  0  0  0  0  0  0  0  0
    8.1213  -17.3891   19.9848 O   0  0  0  0  0  0  0  0  0  0  0  0
    7.6278  -12.8764   19.4347 C   0  0  0  0  0  0  0  0  0  0  0  0
    7.9402  -13.2989   20.8357 C   0  0  1  0  0  0  0  0  0  0  0  0
    6.8223  -12.8726   21.7394 C   0  0  0  0  0  0  0  0  0  0  0  0
    8.1492  -14.8060   20.8535 C   0  0  2  0  0  0  0  0  0  0  0  0
    6.9655  -15.4384   20.2291 N   0  0  0  0  0  0  0  0  0  0  0  0
    8.3003  -15.3341   22.2378 C   0  0  0  0  0  0  0  0  0  0  0  0
    7.2378  -15.4277   22.9325 O   0  0  0  0  0  0  0  0  0  0  0  0
    6.4449  -21.7586   26.2084 N   0  0  0  0  0  0  0  0  0  0  0  0
    7.7359  -21.6460   26.7875 C   0  0  0  0  0  0  0  0  0  0  0  0
    8.1309  -22.3507   27.8044 N   0  0  0  0  0  0  0  0  0  0  0  0
    8.6580  -20.7186   26.2405 N   0  0  0  0  0  0  0  0  0  0  0  0
    8.3399  -19.8184   25.1679 C   0  0  0  0  0  0  0  0  0  0  0  0
    9.5472  -18.9245   24.9061 C   0  0  0  0  0  0  0  0  0  0  0  0
    9.3323  -17.9829   23.7609 C   0  0  0  0  0  0  0  0  0  0  0  0
    9.6845  -16.5654   23.9959 C   0  0  2  0  0  0  0  0  0  0  0  0
    9.5161  -15.7330   22.8211 N   0  0  0  0  0  0  0  0  0  0  0  0
   10.9688  -16.3280   24.7049 C   0  0  0  0  0  0  0  0  0  0  0  0
   11.2159  -16.7713   26.0070 O   0  0  0  0  0  0  0  0  0  0  0  0
   11.9224  -15.7076   24.1737 O   0  0  0  0  0  0  0  0  0  0  0  0
  2  1  1  0
  3  2  1  0
  4  5  1  0
  4  3  1  0
  5  6  1  6
  7 13  1  0
  7  5  1  0
  8  7  2  0
 10  9  1  6
 10 12  1  0
 11 10  1  0
 12 13  1  1
 14 15  2  0
 14 12  1  0
 16 17  1  0
 17 19  1  0
 18 17  2  0
 19 20  1  0
 20 21  1  0
 21 22  1  0
 23 22  1  6
 23 24  1  0
 24 14  1  0
 25 23  1  0
 26 25  1  0
 27 25  2  0
M  END
$$$$
