PAF.pdb
     RDKit          3D

 24 25  0  0  1  0  0  0  0  0999 V2000
    9.1539  -14.1251   19.6741 N   0  0  0  0  0  0  0  0  0  0  0  0
    8.4952  -13.9620   18.4088 C   0  0  0  0  0  0  0  0  0  0  0  0
    7.5017  -12.8188   18.6519 C   0  0  0  0  0  0  0  0  0  0  0  0
    7.0107  -13.1662   20.0423 C   0  0  0  0  0  0  0  0  0  0  0  0
    8.2981  -13.6269   20.7030 C   0  0  1  0  0  0  0  0  0  0  0  0
    8.0708  -14.6475   21.7263 C   0  0  0  0  0  0  0  0  0  0  0  0
    7.1289  -14.5831   22.5780 O   0  0  0  0  0  0  0  0  0  0  0  0
    9.4837  -18.0642   22.2657 C   0  0  0  0  0  0  0  0  0  0  0  0
    8.8060  -16.8130   22.7778 C   0  0  2  0  0  0  0  0  0  0  0  0
    8.9305  -15.7740   21.7918 N   0  0  0  0  0  0  0  0  0  0  0  0
    9.3548  -16.3827   24.0974 C   0  0  0  0  0  0  0  0  0  0  0  0
   10.5445  -15.9836   24.1548 O   0  0  0  0  0  0  0  0  0  0  0  0
    8.5776  -16.4102   25.2845 N   0  0  0  0  0  0  0  0  0  0  0  0
    9.0797  -16.1807   26.6123 C   0  0  1  0  0  0  0  0  0  0  0  0
    8.1308  -15.4154   27.5195 C   0  0  0  0  0  0  0  0  0  0  0  0
    7.6826  -14.1233   26.9011 C   0  0  0  0  0  0  0  0  0  0  0  0
    8.4922  -13.0303   26.7293 C   0  0  0  0  0  0  0  0  0  0  0  0
    7.9515  -11.8760   26.1508 C   0  0  0  0  0  0  0  0  0  0  0  0
    6.6378  -11.7892   25.7448 C   0  0  0  0  0  0  0  0  0  0  0  0
    5.8305  -12.8912   25.9201 C   0  0  0  0  0  0  0  0  0  0  0  0
    6.3487  -14.0272   26.4857 C   0  0  0  0  0  0  0  0  0  0  0  0
    9.6753  -17.3627   27.2555 C   0  0  0  0  0  0  0  0  0  0  0  0
   10.3519  -17.2834   28.3088 O   0  0  0  0  0  0  0  0  0  0  0  0
    9.5009  -18.6234   26.7028 O   0  0  0  0  0  0  0  0  0  0  0  0
  1  5  1  0
  2  1  1  0
  2  3  1  0
  3  4  1  0
  5  4  1  0
  5  6  1  1
  6  7  2  0
  9  8  1  6
 10  9  1  0
 10  6  1  0
 11 12  2  0
 11  9  1  0
 13 11  1  0
 14 13  1  0
 14 22  1  0
 14 15  1  1
 16 21  1  0
 16 15  1  0
 17 16  2  0
 18 19  2  0
 18 17  1  0
 19 20  1  0
 20 21  2  0
 22 24  1  0
 23 22  2  0
M  END
$$$$
