PAF.pdb
     RDKit          3D

 24 25  0  0  1  0  0  0  0  0999 V2000
    8.8567  -14.6654   19.1544 N   0  0  0  0  0  0  0  0  0  0  0  0
    8.0342  -14.2819   18.0417 C   0  0  0  0  0  0  0  0  0  0  0  0
    7.7799  -12.7859   18.2660 C   0  0  0  0  0  0  0  0  0  0  0  0
    7.5767  -12.7588   19.7669 C   0  0  0  0  0  0  0  0  0  0  0  0
    8.6344  -13.7474   20.2255 C   0  0  1  0  0  0  0  0  0  0  0  0
    8.2486  -14.4584   21.4445 C   0  0  0  0  0  0  0  0  0  0  0  0
    7.8203  -13.8714   22.4879 O   0  0  0  0  0  0  0  0  0  0  0  0
    8.0063  -18.1301   22.2392 C   0  0  0  0  0  0  0  0  0  0  0  0
    7.9111  -16.6659   22.6057 C   0  0  2  0  0  0  0  0  0  0  0  0
    8.3485  -15.8727   21.4891 N   0  0  0  0  0  0  0  0  0  0  0  0
    8.6891  -16.3489   23.8393 C   0  0  0  0  0  0  0  0  0  0  0  0
    9.9043  -16.0517   23.7264 O   0  0  0  0  0  0  0  0  0  0  0  0
    8.1010  -16.3727   25.1307 N   0  0  0  0  0  0  0  0  0  0  0  0
    8.7881  -16.0919   26.3623 C   0  0  1  0  0  0  0  0  0  0  0  0
    7.9706  -15.3047   27.3727 C   0  0  0  0  0  0  0  0  0  0  0  0
    7.3351  -14.0918   26.7580 C   0  0  0  0  0  0  0  0  0  0  0  0
    6.0276  -14.0309   26.3499 C   0  0  0  0  0  0  0  0  0  0  0  0
    5.5554  -12.8440   25.7774 C   0  0  0  0  0  0  0  0  0  0  0  0
    6.3485  -11.7306   25.6056 C   0  0  0  0  0  0  0  0  0  0  0  0
    7.6607  -11.7988   26.0183 C   0  0  0  0  0  0  0  0  0  0  0  0
    8.1346  -12.9559   26.5802 C   0  0  0  0  0  0  0  0  0  0  0  0
    9.4887  -17.2448   26.9502 C   0  0  0  0  0  0  0  0  0  0  0  0
   10.3269  -17.1196   27.8749 O   0  0  0  0  0  0  0  0  0  0  0  0
    9.2359  -18.5283   26.4878 O   0  0  0  0  0  0  0  0  0  0  0  0
  1  5  1  0
  2  1  1  0
  2  3  1  0
  3  4  1  0
  5  4  1  0
  5  6  1  1
  6  7  2  0
  9  8  1  6
 10  9  1  0
 10  6  1  0
 11 12  2  0
 11  9  1  0
 13 11  1  0
 14 13  1  0
 14 22  1  0
 14 15  1  1
 16 21  1  0
 16 15  1  0
 17 16  2  0
 18 19  2  0
 18 17  1  0
 19 20  1  0
 20 21  2  0
 22 24  1  0
 23 22  2  0
M  END
$$$$
