PAF.pdb
     RDKit          3D

 24 25  0  0  1  0  0  0  0  0999 V2000
    7.6129  -16.2906   20.6160 N   0  0  0  0  0  0  0  0  0  0  0  0
    6.2504  -15.9875   20.9523 C   0  0  0  0  0  0  0  0  0  0  0  0
    6.3039  -14.5366   21.4472 C   0  0  0  0  0  0  0  0  0  0  0  0
    7.5910  -14.5610   22.2458 C   0  0  0  0  0  0  0  0  0  0  0  0
    8.4712  -15.4250   21.3599 C   0  0  1  0  0  0  0  0  0  0  0  0
    9.4502  -16.1987   22.1236 C   0  0  0  0  0  0  0  0  0  0  0  0
    9.3024  -17.4309   22.4002 O   0  0  0  0  0  0  0  0  0  0  0  0
   12.9674  -15.4581   23.1415 C   0  0  0  0  0  0  0  0  0  0  0  0
   11.6910  -16.2594   23.2685 C   0  0  2  0  0  0  0  0  0  0  0  0
   10.6308  -15.5650   22.5894 N   0  0  0  0  0  0  0  0  0  0  0  0
   11.3422  -16.5288   24.6945 C   0  0  0  0  0  0  0  0  0  0  0  0
   12.1615  -17.1606   25.4069 O   0  0  0  0  0  0  0  0  0  0  0  0
   10.1188  -16.0952   25.2682 N   0  0  0  0  0  0  0  0  0  0  0  0
    9.6939  -16.3576   26.6167 C   0  0  1  0  0  0  0  0  0  0  0  0
    9.3702  -15.1135   27.4269 C   0  0  0  0  0  0  0  0  0  0  0  0
    8.4550  -14.1830   26.6857 C   0  0  0  0  0  0  0  0  0  0  0  0
    8.8784  -13.0848   25.9825 C   0  0  0  0  0  0  0  0  0  0  0  0
    7.9236  -12.2853   25.3432 C   0  0  0  0  0  0  0  0  0  0  0  0
    6.5731  -12.5539   25.3890 C   0  0  0  0  0  0  0  0  0  0  0  0
    6.1551  -13.6590   26.0968 C   0  0  0  0  0  0  0  0  0  0  0  0
    7.0808  -14.4494   26.7272 C   0  0  0  0  0  0  0  0  0  0  0  0
    8.6810  -17.4173   26.7453 C   0  0  0  0  0  0  0  0  0  0  0  0
    8.2920  -17.8412   27.8600 O   0  0  0  0  0  0  0  0  0  0  0  0
    8.1171  -17.9884   25.6135 O   0  0  0  0  0  0  0  0  0  0  0  0
  1  5  1  0
  2  1  1  0
  2  3  1  0
  3  4  1  0
  5  4  1  0
  5  6  1  1
  6  7  2  0
  9  8  1  1
 10  9  1  0
 10  6  1  0
 11 12  2  0
 11  9  1  0
 13 11  1  0
 14 13  1  0
 14 22  1  0
 14 15  1  6
 16 21  1  0
 16 15  1  0
 17 16  2  0
 18 19  2  0
 18 17  1  0
 19 20  1  0
 20 21  2  0
 22 24  1  0
 23 22  2  0
M  END
$$$$
