PAF.pdb
     RDKit          3D

 24 25  0  0  1  0  0  0  0  0999 V2000
    9.4942  -14.6540   18.0416 N   0  0  0  0  0  0  0  0  0  0  0  0
    8.8702  -14.5131   16.7562 C   0  0  0  0  0  0  0  0  0  0  0  0
    7.9785  -13.2745   16.9099 C   0  0  0  0  0  0  0  0  0  0  0  0
    7.4394  -13.4902   18.3091 C   0  0  0  0  0  0  0  0  0  0  0  0
    8.6717  -14.0196   19.0215 C   0  0  1  0  0  0  0  0  0  0  0  0
    8.3408  -14.9505   20.1005 C   0  0  0  0  0  0  0  0  0  0  0  0
    7.4848  -14.6935   21.0049 O   0  0  0  0  0  0  0  0  0  0  0  0
    9.8095  -18.2734   21.0818 C   0  0  0  0  0  0  0  0  0  0  0  0
    8.8135  -17.1460   21.2370 C   0  0  2  0  0  0  0  0  0  0  0  0
    8.9939  -16.2082   20.1622 N   0  0  0  0  0  0  0  0  0  0  0  0
    8.9286  -16.4805   22.5680 C   0  0  0  0  0  0  0  0  0  0  0  0
   10.0059  -15.9066   22.8643 O   0  0  0  0  0  0  0  0  0  0  0  0
    7.8631  -16.4760   23.5054 N   0  0  0  0  0  0  0  0  0  0  0  0
    7.7675  -15.6123   24.6512 C   0  0  1  0  0  0  0  0  0  0  0  0
    7.0965  -14.2768   24.3773 C   0  0  0  0  0  0  0  0  0  0  0  0
    7.0591  -13.4060   25.5993 C   0  0  0  0  0  0  0  0  0  0  0  0
    8.1591  -12.7937   26.1423 C   0  0  0  0  0  0  0  0  0  0  0  0
    7.9966  -12.0156   27.2945 C   0  0  0  0  0  0  0  0  0  0  0  0
    6.7764  -11.8369   27.9089 C   0  0  0  0  0  0  0  0  0  0  0  0
    5.6758  -12.4546   27.3577 C   0  0  0  0  0  0  0  0  0  0  0  0
    5.8226  -13.2193   26.2295 C   0  0  0  0  0  0  0  0  0  0  0  0
    7.2819  -16.2690   25.8753 C   0  0  0  0  0  0  0  0  0  0  0  0
    6.2329  -16.9564   25.8963 O   0  0  0  0  0  0  0  0  0  0  0  0
    7.9858  -16.1428   27.0643 O   0  0  0  0  0  0  0  0  0  0  0  0
  1  5  1  0
  2  1  1  0
  2  3  1  0
  3  4  1  0
  5  4  1  0
  5  6  1  1
  6  7  2  0
  9  8  1  1
 10  9  1  0
 10  6  1  0
 11 12  2  0
 11  9  1  0
 13 11  1  0
 14 13  1  0
 14 22  1  0
 14 15  1  6
 16 21  1  0
 16 15  1  0
 17 16  2  0
 18 19  2  0
 18 17  1  0
 19 20  1  0
 20 21  2  0
 22 24  1  0
 23 22  2  0
M  END
$$$$
