PAF.pdb
     RDKit          3D

 24 25  0  0  1  0  0  0  0  0999 V2000
    9.2796  -14.3097   19.1379 N   0  0  0  0  0  0  0  0  0  0  0  0
    8.7286  -14.0103   17.8463 C   0  0  0  0  0  0  0  0  0  0  0  0
    7.9987  -12.6772   18.0537 C   0  0  0  0  0  0  0  0  0  0  0  0
    7.3831  -12.9051   19.4190 C   0  0  0  0  0  0  0  0  0  0  0  0
    8.5086  -13.6338   20.1320 C   0  0  1  0  0  0  0  0  0  0  0  0
    8.0195  -14.5772   21.1374 C   0  0  0  0  0  0  0  0  0  0  0  0
    7.1723  -14.2649   22.0326 O   0  0  0  0  0  0  0  0  0  0  0  0
    8.6307  -18.2474   21.6864 C   0  0  0  0  0  0  0  0  0  0  0  0
    8.1516  -16.8847   22.1343 C   0  0  2  0  0  0  0  0  0  0  0  0
    8.4993  -15.9122   21.1340 N   0  0  0  0  0  0  0  0  0  0  0  0
    8.7005  -16.5132   23.4717 C   0  0  0  0  0  0  0  0  0  0  0  0
    9.8370  -15.9815   23.5307 O   0  0  0  0  0  0  0  0  0  0  0  0
    7.9813  -16.7412   24.6737 N   0  0  0  0  0  0  0  0  0  0  0  0
    8.4170  -16.3562   25.9888 C   0  0  1  0  0  0  0  0  0  0  0  0
    7.3470  -15.6860   26.8343 C   0  0  0  0  0  0  0  0  0  0  0  0
    7.2254  -14.2215   26.5288 C   0  0  0  0  0  0  0  0  0  0  0  0
    8.2677  -13.3329   26.5906 C   0  0  0  0  0  0  0  0  0  0  0  0
    8.0235  -11.9867   26.2949 C   0  0  0  0  0  0  0  0  0  0  0  0
    6.7784  -11.5134   25.9428 C   0  0  0  0  0  0  0  0  0  0  0  0
    5.7361  -12.4118   25.8823 C   0  0  0  0  0  0  0  0  0  0  0  0
    5.9631  -13.7327   26.1700 C   0  0  0  0  0  0  0  0  0  0  0  0
    9.1687  -17.3930   26.7138 C   0  0  0  0  0  0  0  0  0  0  0  0
    9.8156  -17.1445   27.7593 O   0  0  0  0  0  0  0  0  0  0  0  0
    9.1826  -18.7008   26.2507 O   0  0  0  0  0  0  0  0  0  0  0  0
  1  5  1  0
  2  1  1  0
  2  3  1  0
  3  4  1  0
  5  4  1  0
  5  6  1  1
  6  7  2  0
  9  8  1  6
 10  9  1  0
 10  6  1  0
 11 12  2  0
 11  9  1  0
 13 11  1  0
 14 13  1  0
 14 22  1  0
 14 15  1  1
 16 21  1  0
 16 15  1  0
 17 16  2  0
 18 19  2  0
 18 17  1  0
 19 20  1  0
 20 21  2  0
 22 24  1  0
 23 22  2  0
M  END
$$$$
