PAF.pdb
     RDKit          3D

 24 25  0  0  1  0  0  0  0  0999 V2000
    6.3189  -18.4974   21.6231 N   0  0  0  0  0  0  0  0  0  0  0  0
    5.1362  -18.6104   20.8168 C   0  0  0  0  0  0  0  0  0  0  0  0
    5.6057  -19.3776   19.5743 C   0  0  0  0  0  0  0  0  0  0  0  0
    6.9611  -18.7401   19.3478 C   0  0  0  0  0  0  0  0  0  0  0  0
    7.4627  -18.5992   20.7743 C   0  0  1  0  0  0  0  0  0  0  0  0
    8.3417  -17.4430   20.9496 C   0  0  0  0  0  0  0  0  0  0  0  0
    9.4581  -17.3193   20.3537 O   0  0  0  0  0  0  0  0  0  0  0  0
    7.9545  -13.9930   21.7473 C   0  0  0  0  0  0  0  0  0  0  0  0
    8.7564  -15.2318   22.0783 C   0  0  2  0  0  0  0  0  0  0  0  0
    7.9512  -16.3951   21.8223 N   0  0  0  0  0  0  0  0  0  0  0  0
    9.2567  -15.2121   23.4844 C   0  0  0  0  0  0  0  0  0  0  0  0
   10.2603  -14.5079   23.7577 O   0  0  0  0  0  0  0  0  0  0  0  0
    8.6364  -15.9613   24.5178 N   0  0  0  0  0  0  0  0  0  0  0  0
    9.0573  -15.9880   25.8926 C   0  0  1  0  0  0  0  0  0  0  0  0
    7.9808  -15.5874   26.8873 C   0  0  0  0  0  0  0  0  0  0  0  0
    7.4120  -14.2320   26.5837 C   0  0  0  0  0  0  0  0  0  0  0  0
    8.0097  -13.0496   26.9366 C   0  0  0  0  0  0  0  0  0  0  0  0
    7.3715  -11.8479   26.6077 C   0  0  0  0  0  0  0  0  0  0  0  0
    6.1658  -11.8004   25.9428 C   0  0  0  0  0  0  0  0  0  0  0  0
    5.5714  -12.9920   25.5911 C   0  0  0  0  0  0  0  0  0  0  0  0
    6.1868  -14.1752   25.9079 C   0  0  0  0  0  0  0  0  0  0  0  0
    9.7923  -17.2009   26.2854 C   0  0  0  0  0  0  0  0  0  0  0  0
   10.2371  -17.3688   27.4461 O   0  0  0  0  0  0  0  0  0  0  0  0
   10.0178  -18.2127   25.3632 O   0  0  0  0  0  0  0  0  0  0  0  0
  1  5  1  0
  2  1  1  0
  2  3  1  0
  3  4  1  0
  5  4  1  0
  5  6  1  6
  6  7  2  0
  9  8  1  1
 10  9  1  0
 10  6  1  0
 11 12  2  0
 11  9  1  0
 13 11  1  0
 14 13  1  0
 14 22  1  0
 14 15  1  1
 16 21  1  0
 16 15  1  0
 17 16  2  0
 18 19  2  0
 18 17  1  0
 19 20  1  0
 20 21  2  0
 22 24  1  0
 23 22  2  0
M  END
$$$$
