PAF.pdb
     RDKit          3D

 24 25  0  0  1  0  0  0  0  0999 V2000
    7.5898  -18.5563   21.0694 N   0  0  0  0  0  0  0  0  0  0  0  0
    6.7451  -19.0565   20.0216 C   0  0  0  0  0  0  0  0  0  0  0  0
    7.7268  -19.4616   18.9146 C   0  0  0  0  0  0  0  0  0  0  0  0
    8.7219  -18.3221   18.9929 C   0  0  0  0  0  0  0  0  0  0  0  0
    8.8226  -18.1212   20.4948 C   0  0  1  0  0  0  0  0  0  0  0  0
    9.1012  -16.7319   20.8588 C   0  0  0  0  0  0  0  0  0  0  0  0
   10.2273  -16.1734   20.6672 O   0  0  0  0  0  0  0  0  0  0  0  0
    6.9413  -13.8455   21.6903 C   0  0  0  0  0  0  0  0  0  0  0  0
    8.2567  -14.5756   21.8451 C   0  0  2  0  0  0  0  0  0  0  0  0
    8.0806  -15.9486   21.4564 N   0  0  0  0  0  0  0  0  0  0  0  0
    8.7949  -14.4653   23.2329 C   0  0  0  0  0  0  0  0  0  0  0  0
    8.8905  -13.3264   23.7541 O   0  0  0  0  0  0  0  0  0  0  0  0
    9.2002  -15.6025   23.9789 N   0  0  0  0  0  0  0  0  0  0  0  0
    9.1197  -15.7305   25.4089 C   0  0  1  0  0  0  0  0  0  0  0  0
    7.7055  -15.7017   25.9639 C   0  0  0  0  0  0  0  0  0  0  0  0
    7.2026  -14.2994   26.1472 C   0  0  0  0  0  0  0  0  0  0  0  0
    6.0048  -13.8414   25.6622 C   0  0  0  0  0  0  0  0  0  0  0  0
    5.6534  -12.5054   25.8879 C   0  0  0  0  0  0  0  0  0  0  0  0
    6.4600  -11.6275   26.5784 C   0  0  0  0  0  0  0  0  0  0  0  0
    7.6616  -12.0946   27.0632 C   0  0  0  0  0  0  0  0  0  0  0  0
    8.0166  -13.4010   26.8482 C   0  0  0  0  0  0  0  0  0  0  0  0
    9.9469  -16.8076   25.9757 C   0  0  0  0  0  0  0  0  0  0  0  0
   10.0114  -17.0249   27.2094 O   0  0  0  0  0  0  0  0  0  0  0  0
   10.6934  -17.6292   25.1434 O   0  0  0  0  0  0  0  0  0  0  0  0
  1  5  1  0
  2  1  1  0
  2  3  1  0
  3  4  1  0
  5  4  1  0
  5  6  1  6
  6  7  2  0
  9  8  1  1
 10  9  1  0
 10  6  1  0
 11 12  2  0
 11  9  1  0
 13 11  1  0
 14 13  1  0
 14 22  1  0
 14 15  1  6
 16 21  1  0
 16 15  1  0
 17 16  2  0
 18 19  2  0
 18 17  1  0
 19 20  1  0
 20 21  2  0
 22 24  1  0
 23 22  2  0
M  END
$$$$
