PAF.pdb
     RDKit          3D

 24 25  0  0  1  0  0  0  0  0999 V2000
    9.0668  -14.3335   19.1887 N   0  0  0  0  0  0  0  0  0  0  0  0
    8.2284  -14.0713   18.0529 C   0  0  0  0  0  0  0  0  0  0  0  0
    7.6076  -12.7021   18.3577 C   0  0  0  0  0  0  0  0  0  0  0  0
    7.3343  -12.8432   19.8411 C   0  0  0  0  0  0  0  0  0  0  0  0
    8.5782  -13.5830   20.3010 C   0  0  1  0  0  0  0  0  0  0  0  0
    8.3207  -14.4597   21.4436 C   0  0  0  0  0  0  0  0  0  0  0  0
    7.6683  -14.0921   22.4712 O   0  0  0  0  0  0  0  0  0  0  0  0
    9.0420  -18.1089   22.0158 C   0  0  0  0  0  0  0  0  0  0  0  0
    8.5265  -16.7561   22.4533 C   0  0  2  0  0  0  0  0  0  0  0  0
    8.8130  -15.7900   21.4277 N   0  0  0  0  0  0  0  0  0  0  0  0
    9.0966  -16.3418   23.7690 C   0  0  0  0  0  0  0  0  0  0  0  0
   10.2116  -15.7636   23.7881 O   0  0  0  0  0  0  0  0  0  0  0  0
    8.4209  -16.5798   24.9941 N   0  0  0  0  0  0  0  0  0  0  0  0
    8.9292  -16.2574   26.3000 C   0  0  1  0  0  0  0  0  0  0  0  0
    7.9126  -15.6160   27.2294 C   0  0  0  0  0  0  0  0  0  0  0  0
    7.4970  -14.2545   26.7534 C   0  0  0  0  0  0  0  0  0  0  0  0
    8.2695  -13.1282   26.8729 C   0  0  0  0  0  0  0  0  0  0  0  0
    7.7635  -11.9113   26.4011 C   0  0  0  0  0  0  0  0  0  0  0  0
    6.5199  -11.7949   25.8198 C   0  0  0  0  0  0  0  0  0  0  0  0
    5.7495  -12.9305   25.7026 C   0  0  0  0  0  0  0  0  0  0  0  0
    6.2343  -14.1279   26.1612 C   0  0  0  0  0  0  0  0  0  0  0  0
    9.7063  -17.3320   26.9380 C   0  0  0  0  0  0  0  0  0  0  0  0
   10.3449  -17.1560   28.0032 O   0  0  0  0  0  0  0  0  0  0  0  0
    9.7547  -18.5954   26.3666 O   0  0  0  0  0  0  0  0  0  0  0  0
  1  5  1  0
  2  1  1  0
  2  3  1  0
  3  4  1  0
  5  4  1  0
  5  6  1  1
  6  7  2  0
  9  8  1  6
 10  9  1  0
 10  6  1  0
 11 12  2  0
 11  9  1  0
 13 11  1  0
 14 13  1  0
 14 22  1  0
 14 15  1  1
 16 21  1  0
 16 15  1  0
 17 16  2  0
 18 19  2  0
 18 17  1  0
 19 20  1  0
 20 21  2  0
 22 24  1  0
 23 22  2  0
M  END
$$$$
