PAF.pdb
     RDKit          3D

 24 25  0  0  1  0  0  0  0  0999 V2000
    8.7337  -15.0303   18.7324 N   0  0  0  0  0  0  0  0  0  0  0  0
    7.8915  -14.7398   17.6064 C   0  0  0  0  0  0  0  0  0  0  0  0
    7.7163  -13.2167   17.6568 C   0  0  0  0  0  0  0  0  0  0  0  0
    7.5677  -13.0017   19.1490 C   0  0  0  0  0  0  0  0  0  0  0  0
    8.5929  -13.9818   19.6916 C   0  0  1  0  0  0  0  0  0  0  0  0
    8.2172  -14.5227   20.9980 C   0  0  0  0  0  0  0  0  0  0  0  0
    7.9952  -13.7944   22.0163 O   0  0  0  0  0  0  0  0  0  0  0  0
    7.5564  -18.0343   22.1851 C   0  0  0  0  0  0  0  0  0  0  0  0
    7.7630  -16.5537   22.4137 C   0  0  2  0  0  0  0  0  0  0  0  0
    8.0878  -15.9258   21.1617 N   0  0  0  0  0  0  0  0  0  0  0  0
    8.8092  -16.2900   23.4450 C   0  0  0  0  0  0  0  0  0  0  0  0
    9.9444  -15.9061   23.0682 O   0  0  0  0  0  0  0  0  0  0  0  0
    8.5625  -16.4588   24.8323 N   0  0  0  0  0  0  0  0  0  0  0  0
    9.4168  -15.9935   25.8912 C   0  0  1  0  0  0  0  0  0  0  0  0
    9.7600  -14.5151   25.8181 C   0  0  0  0  0  0  0  0  0  0  0  0
    8.5629  -13.6473   26.0765 C   0  0  0  0  0  0  0  0  0  0  0  0
    8.1303  -13.2843   27.3258 C   0  0  0  0  0  0  0  0  0  0  0  0
    6.9898  -12.4803   27.4364 C   0  0  0  0  0  0  0  0  0  0  0  0
    6.2805  -12.0358   26.3421 C   0  0  0  0  0  0  0  0  0  0  0  0
    6.7211  -12.4039   25.0902 C   0  0  0  0  0  0  0  0  0  0  0  0
    7.8368  -13.1912   24.9693 C   0  0  0  0  0  0  0  0  0  0  0  0
    9.0197  -16.4342   27.2379 C   0  0  0  0  0  0  0  0  0  0  0  0
    7.9489  -17.0511   27.4530 O   0  0  0  0  0  0  0  0  0  0  0  0
    9.8361  -16.1740   28.3292 O   0  0  0  0  0  0  0  0  0  0  0  0
  1  5  1  0
  2  1  1  0
  2  3  1  0
  3  4  1  0
  5  4  1  0
  5  6  1  1
  6  7  2  0
  9  8  1  6
 10  9  1  0
 10  6  1  0
 11 12  2  0
 11  9  1  0
 13 11  1  0
 14 13  1  0
 14 22  1  0
 14 15  1  1
 16 21  1  0
 16 15  1  0
 17 16  2  0
 18 19  2  0
 18 17  1  0
 19 20  1  0
 20 21  2  0
 22 24  1  0
 23 22  2  0
M  END
$$$$
