PAF.pdb
     RDKit          3D

 24 25  0  0  1  0  0  0  0  0999 V2000
    8.6224  -15.0405   19.3188 N   0  0  0  0  0  0  0  0  0  0  0  0
    8.2099  -14.5650   18.0283 C   0  0  0  0  0  0  0  0  0  0  0  0
    8.1133  -13.0444   18.2061 C   0  0  0  0  0  0  0  0  0  0  0  0
    7.4997  -12.9632   19.5888 C   0  0  0  0  0  0  0  0  0  0  0  0
    8.2361  -14.0820   20.3044 C   0  0  1  0  0  0  0  0  0  0  0  0
    7.4263  -14.7108   21.3480 C   0  0  0  0  0  0  0  0  0  0  0  0
    6.8720  -14.0584   22.2882 O   0  0  0  0  0  0  0  0  0  0  0  0
    6.1985  -18.2400   21.7686 C   0  0  0  0  0  0  0  0  0  0  0  0
    6.3574  -16.8100   22.2347 C   0  0  2  0  0  0  0  0  0  0  0  0
    7.2353  -16.1163   21.3317 N   0  0  0  0  0  0  0  0  0  0  0  0
    6.8499  -16.7344   23.6416 C   0  0  0  0  0  0  0  0  0  0  0  0
    6.0122  -16.5949   24.5673 O   0  0  0  0  0  0  0  0  0  0  0  0
    8.2294  -16.8147   23.9649 N   0  0  0  0  0  0  0  0  0  0  0  0
    8.8900  -16.0472   24.9857 C   0  0  1  0  0  0  0  0  0  0  0  0
    8.1113  -15.9276   26.2850 C   0  0  0  0  0  0  0  0  0  0  0  0
    8.8425  -15.1031   27.3041 C   0  0  0  0  0  0  0  0  0  0  0  0
    8.8330  -13.7324   27.3360 C   0  0  0  0  0  0  0  0  0  0  0  0
    9.5676  -13.0768   28.3309 C   0  0  0  0  0  0  0  0  0  0  0  0
   10.3018  -13.7498   29.2829 C   0  0  0  0  0  0  0  0  0  0  0  0
   10.3064  -15.1266   29.2450 C   0  0  0  0  0  0  0  0  0  0  0  0
    9.5909  -15.7797   28.2752 C   0  0  0  0  0  0  0  0  0  0  0  0
   10.3086  -16.3841   25.1848 C   0  0  0  0  0  0  0  0  0  0  0  0
   10.6744  -17.4677   25.7000 O   0  0  0  0  0  0  0  0  0  0  0  0
   11.3007  -15.4938   24.7999 O   0  0  0  0  0  0  0  0  0  0  0  0
  1  5  1  0
  2  1  1  0
  2  3  1  0
  3  4  1  0
  5  4  1  0
  5  6  1  1
  6  7  2  0
  9  8  1  6
 10  9  1  0
 10  6  1  0
 11 12  2  0
 11  9  1  0
 13 11  1  0
 14 13  1  0
 14 22  1  0
 14 15  1  1
 16 21  1  0
 16 15  1  0
 17 16  2  0
 18 19  2  0
 18 17  1  0
 19 20  1  0
 20 21  2  0
 22 24  1  0
 23 22  2  0
M  END
$$$$
