PAF.pdb
     RDKit          3D

 24 25  0  0  1  0  0  0  0  0999 V2000
    9.2446  -14.2047   19.2728 N   0  0  0  0  0  0  0  0  0  0  0  0
    8.7147  -13.8511   17.9861 C   0  0  0  0  0  0  0  0  0  0  0  0
    8.0968  -12.4646   18.2071 C   0  0  0  0  0  0  0  0  0  0  0  0
    7.4701  -12.6525   19.5734 C   0  0  0  0  0  0  0  0  0  0  0  0
    8.5353  -13.4762   20.2756 C   0  0  1  0  0  0  0  0  0  0  0  0
    7.9749  -14.3847   21.2760 C   0  0  0  0  0  0  0  0  0  0  0  0
    7.1441  -14.0157   22.1650 O   0  0  0  0  0  0  0  0  0  0  0  0
    8.2374  -18.0941   21.7869 C   0  0  0  0  0  0  0  0  0  0  0  0
    7.9542  -16.6927   22.2801 C   0  0  2  0  0  0  0  0  0  0  0  0
    8.3622  -15.7493   21.2747 N   0  0  0  0  0  0  0  0  0  0  0  0
    8.6177  -16.4180   23.5885 C   0  0  0  0  0  0  0  0  0  0  0  0
    9.7855  -15.9552   23.5873 O   0  0  0  0  0  0  0  0  0  0  0  0
    7.9729  -16.6624   24.8289 N   0  0  0  0  0  0  0  0  0  0  0  0
    8.5475  -16.4247   26.1255 C   0  0  1  0  0  0  0  0  0  0  0  0
    7.5970  -15.7914   27.1276 C   0  0  0  0  0  0  0  0  0  0  0  0
    7.2450  -14.3810   26.7540 C   0  0  0  0  0  0  0  0  0  0  0  0
    6.0090  -13.9877   26.3097 C   0  0  0  0  0  0  0  0  0  0  0  0
    5.8088  -12.6424   25.9791 C   0  0  0  0  0  0  0  0  0  0  0  0
    6.8017  -11.6926   26.0810 C   0  0  0  0  0  0  0  0  0  0  0  0
    8.0407  -12.0947   26.5284 C   0  0  0  0  0  0  0  0  0  0  0  0
    8.2488  -13.4097   26.8550 C   0  0  0  0  0  0  0  0  0  0  0  0
    9.3062  -17.5585   26.6772 C   0  0  0  0  0  0  0  0  0  0  0  0
    9.2054  -18.7206   26.2160 O   0  0  0  0  0  0  0  0  0  0  0  0
   10.1717  -17.3689   27.7450 O   0  0  0  0  0  0  0  0  0  0  0  0
  1  5  1  0
  2  1  1  0
  2  3  1  0
  3  4  1  0
  5  4  1  0
  5  6  1  1
  6  7  2  0
  9  8  1  6
 10  9  1  0
 10  6  1  0
 11 12  2  0
 11  9  1  0
 13 11  1  0
 14 13  1  0
 14 22  1  0
 14 15  1  1
 16 21  1  0
 16 15  1  0
 17 16  2  0
 18 19  2  0
 18 17  1  0
 19 20  1  0
 20 21  2  0
 22 24  1  0
 23 22  2  0
M  END
$$$$
