PAF.pdb
     RDKit          3D

 24 25  0  0  1  0  0  0  0  0999 V2000
    8.9405  -14.4139   19.1443 N   0  0  0  0  0  0  0  0  0  0  0  0
    8.1788  -14.0959   17.9695 C   0  0  0  0  0  0  0  0  0  0  0  0
    7.7067  -12.6565   18.2112 C   0  0  0  0  0  0  0  0  0  0  0  0
    7.3659  -12.7182   19.6860 C   0  0  0  0  0  0  0  0  0  0  0  0
    8.5005  -13.5778   20.2151 C   0  0  1  0  0  0  0  0  0  0  0  0
    8.1042  -14.3827   21.3707 C   0  0  0  0  0  0  0  0  0  0  0  0
    7.5229  -13.8973   22.3920 O   0  0  0  0  0  0  0  0  0  0  0  0
    8.2882  -18.0777   22.0618 C   0  0  0  0  0  0  0  0  0  0  0  0
    8.0514  -16.6429   22.4772 C   0  0  2  0  0  0  0  0  0  0  0  0
    8.3709  -15.7760   21.3755 N   0  0  0  0  0  0  0  0  0  0  0  0
    8.8278  -16.2818   23.6997 C   0  0  0  0  0  0  0  0  0  0  0  0
   10.0007  -15.8529   23.5647 O   0  0  0  0  0  0  0  0  0  0  0  0
    8.2842  -16.4073   25.0046 N   0  0  0  0  0  0  0  0  0  0  0  0
    9.0033  -16.1839   26.2297 C   0  0  1  0  0  0  0  0  0  0  0  0
    8.2177  -15.4329   27.2916 C   0  0  0  0  0  0  0  0  0  0  0  0
    7.7530  -14.0919   26.8030 C   0  0  0  0  0  0  0  0  0  0  0  0
    8.5820  -13.0214   26.5874 C   0  0  0  0  0  0  0  0  0  0  0  0
    8.0247  -11.8168   26.1428 C   0  0  0  0  0  0  0  0  0  0  0  0
    6.6758  -11.6586   25.9111 C   0  0  0  0  0  0  0  0  0  0  0  0
    5.8490  -12.7383   26.1293 C   0  0  0  0  0  0  0  0  0  0  0  0
    6.3833  -13.9232   26.5650 C   0  0  0  0  0  0  0  0  0  0  0  0
    9.7072  -17.3660   26.7519 C   0  0  0  0  0  0  0  0  0  0  0  0
    9.5019  -18.5201   26.3055 O   0  0  0  0  0  0  0  0  0  0  0  0
   10.6366  -17.2332   27.7736 O   0  0  0  0  0  0  0  0  0  0  0  0
  1  5  1  0
  2  1  1  0
  2  3  1  0
  3  4  1  0
  5  4  1  0
  5  6  1  1
  6  7  2  0
  9  8  1  6
 10  9  1  0
 10  6  1  0
 11 12  2  0
 11  9  1  0
 13 11  1  0
 14 13  1  0
 14 22  1  0
 14 15  1  1
 16 21  1  0
 16 15  1  0
 17 16  2  0
 18 19  2  0
 18 17  1  0
 19 20  1  0
 20 21  2  0
 22 24  1  0
 23 22  2  0
M  END
$$$$
