PAF.pdb
     RDKit          3D

 24 25  0  0  1  0  0  0  0  0999 V2000
    9.1486  -14.5154   19.2926 N   0  0  0  0  0  0  0  0  0  0  0  0
    8.4013  -14.2971   18.0861 C   0  0  0  0  0  0  0  0  0  0  0  0
    7.8413  -12.8782   18.2476 C   0  0  0  0  0  0  0  0  0  0  0  0
    7.4655  -12.8915   19.7151 C   0  0  0  0  0  0  0  0  0  0  0  0
    8.6330  -13.6579   20.3115 C   0  0  1  0  0  0  0  0  0  0  0  0
    8.2528  -14.4304   21.4944 C   0  0  0  0  0  0  0  0  0  0  0  0
    7.6018  -13.9378   22.4691 O   0  0  0  0  0  0  0  0  0  0  0  0
    8.5969  -18.0774   22.3446 C   0  0  0  0  0  0  0  0  0  0  0  0
    8.2847  -16.6405   22.6985 C   0  0  2  0  0  0  0  0  0  0  0  0
    8.6172  -15.7986   21.5814 N   0  0  0  0  0  0  0  0  0  0  0  0
    8.9916  -16.2065   23.9394 C   0  0  0  0  0  0  0  0  0  0  0  0
   10.1516  -15.7351   23.8393 O   0  0  0  0  0  0  0  0  0  0  0  0
    8.3962  -16.3093   25.2235 N   0  0  0  0  0  0  0  0  0  0  0  0
    9.0445  -15.9947   26.4679 C   0  0  1  0  0  0  0  0  0  0  0  0
    8.1664  -15.2581   27.4654 C   0  0  0  0  0  0  0  0  0  0  0  0
    7.5040  -14.0589   26.8522 C   0  0  0  0  0  0  0  0  0  0  0  0
    6.2198  -14.0502   26.3719 C   0  0  0  0  0  0  0  0  0  0  0  0
    5.7192  -12.8703   25.8093 C   0  0  0  0  0  0  0  0  0  0  0  0
    6.4617  -11.7135   25.7167 C   0  0  0  0  0  0  0  0  0  0  0  0
    7.7508  -11.7294   26.2016 C   0  0  0  0  0  0  0  0  0  0  0  0
    8.2521  -12.8791   26.7546 C   0  0  0  0  0  0  0  0  0  0  0  0
    9.7981  -17.1085   27.0654 C   0  0  0  0  0  0  0  0  0  0  0  0
   10.5498  -16.9536   28.0576 O   0  0  0  0  0  0  0  0  0  0  0  0
    9.6956  -18.3871   26.5364 O   0  0  0  0  0  0  0  0  0  0  0  0
  1  5  1  0
  2  1  1  0
  2  3  1  0
  3  4  1  0
  5  4  1  0
  5  6  1  1
  6  7  2  0
  9  8  1  6
 10  9  1  0
 10  6  1  0
 11 12  2  0
 11  9  1  0
 13 11  1  0
 14 13  1  0
 14 22  1  0
 14 15  1  1
 16 21  1  0
 16 15  1  0
 17 16  2  0
 18 19  2  0
 18 17  1  0
 19 20  1  0
 20 21  2  0
 22 24  1  0
 23 22  2  0
M  END
$$$$
