PAF.pdb
     RDKit          3D

 24 25  0  0  1  0  0  0  0  0999 V2000
    7.7405  -18.3260   19.1827 N   0  0  0  0  0  0  0  0  0  0  0  0
    7.5528  -19.6486   19.7089 C   0  0  0  0  0  0  0  0  0  0  0  0
    6.2996  -19.5256   20.5848 C   0  0  0  0  0  0  0  0  0  0  0  0
    6.5398  -18.1752   21.2281 C   0  0  0  0  0  0  0  0  0  0  0  0
    7.1141  -17.3908   20.0615 C   0  0  1  0  0  0  0  0  0  0  0  0
    8.0653  -16.3644   20.4881 C   0  0  0  0  0  0  0  0  0  0  0  0
    9.3250  -16.5370   20.4851 O   0  0  0  0  0  0  0  0  0  0  0  0
    7.6960  -12.7375   21.3208 C   0  0  0  0  0  0  0  0  0  0  0  0
    8.4339  -14.0541   21.4165 C   0  0  2  0  0  0  0  0  0  0  0  0
    7.5826  -15.1062   20.9311 N   0  0  0  0  0  0  0  0  0  0  0  0
    8.9045  -14.3291   22.8060 C   0  0  0  0  0  0  0  0  0  0  0  0
    9.8001  -13.5968   23.2956 O   0  0  0  0  0  0  0  0  0  0  0  0
    8.3738  -15.3877   23.5881 N   0  0  0  0  0  0  0  0  0  0  0  0
    8.7520  -15.6918   24.9417 C   0  0  1  0  0  0  0  0  0  0  0  0
    7.6065  -15.6488   25.9391 C   0  0  0  0  0  0  0  0  0  0  0  0
    7.1002  -14.2521   26.1531 C   0  0  0  0  0  0  0  0  0  0  0  0
    5.8569  -13.8172   25.7728 C   0  0  0  0  0  0  0  0  0  0  0  0
    5.5062  -12.4840   26.0161 C   0  0  0  0  0  0  0  0  0  0  0  0
    6.3576  -11.5867   26.6230 C   0  0  0  0  0  0  0  0  0  0  0  0
    7.6048  -12.0308   27.0026 C   0  0  0  0  0  0  0  0  0  0  0  0
    7.9596  -13.3342   26.7694 C   0  0  0  0  0  0  0  0  0  0  0  0
    9.6078  -16.8801   25.0871 C   0  0  0  0  0  0  0  0  0  0  0  0
    9.9066  -17.6141   24.1148 O   0  0  0  0  0  0  0  0  0  0  0  0
   10.1181  -17.2280   26.3295 O   0  0  0  0  0  0  0  0  0  0  0  0
  1  5  1  0
  2  1  1  0
  2  3  1  0
  3  4  1  0
  5  4  1  0
  5  6  1  1
  6  7  2  0
  9  8  1  1
 10  9  1  0
 10  6  1  0
 11 12  2  0
 11  9  1  0
 13 11  1  0
 14 13  1  0
 14 22  1  0
 14 15  1  1
 16 21  1  0
 16 15  1  0
 17 16  2  0
 18 19  2  0
 18 17  1  0
 19 20  1  0
 20 21  2  0
 22 24  1  0
 23 22  2  0
M  END
$$$$
