PAF.pdb
     RDKit          3D

 24 25  0  0  1  0  0  0  0  0999 V2000
    7.1488  -14.9565   20.9086 N   0  0  0  0  0  0  0  0  0  0  0  0
    6.5681  -13.6538   20.7431 C   0  0  0  0  0  0  0  0  0  0  0  0
    7.0467  -13.2073   19.3558 C   0  0  0  0  0  0  0  0  0  0  0  0
    8.4742  -13.7142   19.3762 C   0  0  0  0  0  0  0  0  0  0  0  0
    8.3016  -15.0532   20.0715 C   0  0  1  0  0  0  0  0  0  0  0  0
    9.4776  -15.4366   20.8528 C   0  0  0  0  0  0  0  0  0  0  0  0
   10.6428  -15.5390   20.3541 O   0  0  0  0  0  0  0  0  0  0  0  0
   11.3894  -14.7840   23.0726 C   0  0  0  0  0  0  0  0  0  0  0  0
   10.4468  -15.9660   23.1146 C   0  0  2  0  0  0  0  0  0  0  0  0
    9.3365  -15.7129   22.2370 N   0  0  0  0  0  0  0  0  0  0  0  0
    9.9888  -16.2639   24.5035 C   0  0  0  0  0  0  0  0  0  0  0  0
   10.8511  -16.4029   25.4063 O   0  0  0  0  0  0  0  0  0  0  0  0
    8.6150  -16.3944   24.8346 N   0  0  0  0  0  0  0  0  0  0  0  0
    8.1042  -16.8404   26.1027 C   0  0  1  0  0  0  0  0  0  0  0  0
    6.8358  -16.1350   26.5526 C   0  0  0  0  0  0  0  0  0  0  0  0
    6.9794  -14.6415   26.5126 C   0  0  0  0  0  0  0  0  0  0  0  0
    6.4957  -13.8482   25.5044 C   0  0  0  0  0  0  0  0  0  0  0  0
    6.7058  -12.4661   25.5752 C   0  0  0  0  0  0  0  0  0  0  0  0
    7.3790  -11.8655   26.6165 C   0  0  0  0  0  0  0  0  0  0  0  0
    7.8618  -12.6685   27.6260 C   0  0  0  0  0  0  0  0  0  0  0  0
    7.6623  -14.0234   27.5675 C   0  0  0  0  0  0  0  0  0  0  0  0
    8.0458  -18.3024   26.2603 C   0  0  0  0  0  0  0  0  0  0  0  0
    7.8345  -18.8492   27.3693 O   0  0  0  0  0  0  0  0  0  0  0  0
    8.2267  -19.1329   25.1637 O   0  0  0  0  0  0  0  0  0  0  0  0
  1  5  1  0
  2  1  1  0
  2  3  1  0
  3  4  1  0
  5  4  1  0
  5  6  1  1
  6  7  2  0
  9  8  1  1
 10  9  1  0
 10  6  1  0
 11 12  2  0
 11  9  1  0
 13 11  1  0
 14 13  1  0
 14 22  1  0
 14 15  1  6
 16 21  1  0
 16 15  1  0
 17 16  2  0
 18 19  2  0
 18 17  1  0
 19 20  1  0
 20 21  2  0
 22 24  1  0
 23 22  2  0
M  END
$$$$
