PAF.pdb
     RDKit          3D

 24 25  0  0  1  0  0  0  0  0999 V2000
    8.8065  -14.8242   18.4319 N   0  0  0  0  0  0  0  0  0  0  0  0
    7.8549  -14.5696   17.3873 C   0  0  0  0  0  0  0  0  0  0  0  0
    7.4918  -13.0903   17.5681 C   0  0  0  0  0  0  0  0  0  0  0  0
    7.4256  -13.0014   19.0789 C   0  0  0  0  0  0  0  0  0  0  0  0
    8.6036  -13.8730   19.4775 C   0  0  1  0  0  0  0  0  0  0  0  0
    8.3952  -14.5486   20.7583 C   0  0  0  0  0  0  0  0  0  0  0  0
    8.2003  -13.9274   21.8505 O   0  0  0  0  0  0  0  0  0  0  0  0
    8.1530  -18.1953   21.6713 C   0  0  0  0  0  0  0  0  0  0  0  0
    8.1459  -16.7204   22.0058 C   0  0  2  0  0  0  0  0  0  0  0  0
    8.4068  -15.9661   20.8099 N   0  0  0  0  0  0  0  0  0  0  0  0
    9.1227  -16.3894   23.0847 C   0  0  0  0  0  0  0  0  0  0  0  0
   10.2736  -16.0052   22.7594 O   0  0  0  0  0  0  0  0  0  0  0  0
    8.7931  -16.4947   24.4610 N   0  0  0  0  0  0  0  0  0  0  0  0
    9.5907  -15.9936   25.5475 C   0  0  1  0  0  0  0  0  0  0  0  0
    9.8425  -14.4957   25.5036 C   0  0  0  0  0  0  0  0  0  0  0  0
    8.5975  -13.7083   25.7917 C   0  0  0  0  0  0  0  0  0  0  0  0
    7.6183  -13.4506   24.8674 C   0  0  0  0  0  0  0  0  0  0  0  0
    6.5086  -12.6910   25.2558 C   0  0  0  0  0  0  0  0  0  0  0  0
    6.3560  -12.1894   26.5299 C   0  0  0  0  0  0  0  0  0  0  0  0
    7.3433  -12.4526   27.4534 C   0  0  0  0  0  0  0  0  0  0  0  0
    8.4349  -13.1953   27.0846 C   0  0  0  0  0  0  0  0  0  0  0  0
    9.1893  -16.4788   26.8776 C   0  0  0  0  0  0  0  0  0  0  0  0
    9.8867  -16.2823   27.9015 O   0  0  0  0  0  0  0  0  0  0  0  0
    8.0038  -17.1816   27.0384 O   0  0  0  0  0  0  0  0  0  0  0  0
  1  5  1  0
  2  1  1  0
  2  3  1  0
  3  4  1  0
  5  4  1  0
  5  6  1  1
  6  7  2  0
  9  8  1  6
 10  9  1  0
 10  6  1  0
 11 12  2  0
 11  9  1  0
 13 11  1  0
 14 13  1  0
 14 22  1  0
 14 15  1  1
 16 21  1  0
 16 15  1  0
 17 16  2  0
 18 19  2  0
 18 17  1  0
 19 20  1  0
 20 21  2  0
 22 24  1  0
 23 22  2  0
M  END
$$$$
