TGR.pdb
     RDKit          3D

 23 22  0  0  1  0  0  0  0  0999 V2000
   28.1078  -17.9521  -19.2395 C   0  0  0  0  0  0  0  0  0  0  0  0
   27.6015  -19.2287  -18.5910 C   0  0  1  0  0  0  0  0  0  0  0  0
   28.4728  -20.2446  -18.9253 O   0  0  0  0  0  0  0  0  0  0  0  0
   27.4800  -19.0130  -17.0958 C   0  0  2  0  0  0  0  0  0  0  0  0
   28.7648  -18.7811  -16.5023 N   0  0  0  0  0  0  0  0  0  0  0  0
   26.7093  -20.0691  -16.4216 C   0  0  0  0  0  0  0  0  0  0  0  0
   25.4802  -20.2755  -16.7160 O   0  0  0  0  0  0  0  0  0  0  0  0
   27.3136  -20.8858  -15.4256 N   0  0  0  0  0  0  0  0  0  0  0  0
   26.6056  -21.9453  -14.7498 C   0  0  0  0  0  0  0  0  0  0  0  0
   25.4222  -21.4140  -14.0561 C   0  0  0  0  0  0  0  0  0  0  0  0
   25.5807  -20.5932  -13.0934 O   0  0  0  0  0  0  0  0  0  0  0  0
   18.0693  -21.1640  -16.0656 N   0  0  0  0  0  0  0  0  0  0  0  0
   18.6380  -19.8647  -16.2670 C   0  0  0  0  0  0  0  0  0  0  0  0
   18.1236  -19.0920  -17.1566 N   0  0  0  0  0  0  0  0  0  0  0  0
   19.7480  -19.4111  -15.5126 N   0  0  0  0  0  0  0  0  0  0  0  0
   20.0613  -19.9140  -14.1964 C   0  0  0  0  0  0  0  0  0  0  0  0
   21.3352  -19.1946  -13.7523 C   0  0  0  0  0  0  0  0  0  0  0  0
   22.5203  -19.8699  -14.3817 C   0  0  0  0  0  0  0  0  0  0  0  0
   22.9457  -21.1161  -13.6915 C   0  0  2  0  0  0  0  0  0  0  0  0
   24.0897  -21.7319  -14.3659 N   0  0  0  0  0  0  0  0  0  0  0  0
   21.8690  -22.1026  -13.6540 C   0  0  0  0  0  0  0  0  0  0  0  0
   21.7794  -22.9781  -14.5408 O   0  0  0  0  0  0  0  0  0  0  0  0
   20.9346  -22.0937  -12.6451 O   0  0  0  0  0  0  0  0  0  0  0  0
  2  1  1  6
  2  4  1  0
  3  2  1  0
  4  5  1  1
  6  4  1  0
  6  8  1  0
  7  6  2  0
  9  8  1  0
  9 10  1  0
 10 20  1  0
 10 11  2  0
 13 12  1  0
 13 14  2  0
 15 13  1  0
 16 17  1  0
 16 15  1  0
 18 17  1  0
 19 18  1  6
 20 19  1  0
 21 23  1  0
 21 19  1  0
 22 21  2  0
M  END
$$$$
