TGR.pdb
     RDKit          3D

 23 22  0  0  1  0  0  0  0  0999 V2000
   28.3082  -19.8204  -16.0938 C   0  0  0  0  0  0  0  0  0  0  0  0
   27.9639  -20.0120  -14.6271 C   0  0  1  0  0  0  0  0  0  0  0  0
   28.3708  -18.8820  -13.9483 O   0  0  0  0  0  0  0  0  0  0  0  0
   26.4791  -20.2860  -14.4961 C   0  0  2  0  0  0  0  0  0  0  0  0
   25.7060  -19.1773  -14.9756 N   0  0  0  0  0  0  0  0  0  0  0  0
   26.0907  -20.7266  -13.1474 C   0  0  0  0  0  0  0  0  0  0  0  0
   26.5387  -21.8226  -12.6597 O   0  0  0  0  0  0  0  0  0  0  0  0
   25.2071  -19.9432  -12.3538 N   0  0  0  0  0  0  0  0  0  0  0  0
   24.7964  -20.3328  -11.0272 C   0  0  0  0  0  0  0  0  0  0  0  0
   23.4226  -20.8584  -11.0462 C   0  0  0  0  0  0  0  0  0  0  0  0
   22.9138  -21.2321  -12.1539 O   0  0  0  0  0  0  0  0  0  0  0  0
   16.9915  -24.7759   -7.3548 N   0  0  0  0  0  0  0  0  0  0  0  0
   18.3247  -24.8562   -6.8368 C   0  0  0  0  0  0  0  0  0  0  0  0
   18.7525  -25.9847   -6.3933 N   0  0  0  0  0  0  0  0  0  0  0  0
   19.1807  -23.7280   -6.8021 N   0  0  0  0  0  0  0  0  0  0  0  0
   18.7611  -22.4107   -7.2170 C   0  0  0  0  0  0  0  0  0  0  0  0
   19.2362  -22.2419   -8.6605 C   0  0  0  0  0  0  0  0  0  0  0  0
   20.6544  -21.7468   -8.6515 C   0  0  0  0  0  0  0  0  0  0  0  0
   21.2158  -21.4903  -10.0041 C   0  0  2  0  0  0  0  0  0  0  0  0
   22.5914  -20.9964   -9.9225 N   0  0  0  0  0  0  0  0  0  0  0  0
   20.4300  -20.4968  -10.7315 C   0  0  0  0  0  0  0  0  0  0  0  0
   20.6518  -19.2767  -10.5790 O   0  0  0  0  0  0  0  0  0  0  0  0
   19.4341  -20.8783  -11.5997 O   0  0  0  0  0  0  0  0  0  0  0  0
  2  1  1  6
  2  4  1  0
  3  2  1  0
  4  5  1  1
  6  4  1  0
  6  8  1  0
  7  6  2  0
  9  8  1  0
  9 10  1  0
 10 20  1  0
 10 11  2  0
 13 12  1  0
 13 14  2  0
 15 13  1  0
 16 17  1  0
 16 15  1  0
 18 17  1  0
 19 18  1  1
 20 19  1  0
 21 23  1  0
 21 19  1  0
 22 21  2  0
M  END
$$$$
