TGR.pdb
     RDKit          3D

 23 22  0  0  1  0  0  0  0  0999 V2000
   28.7685  -14.4151  -17.8022 C   0  0  0  0  0  0  0  0  0  0  0  0
   28.2512  -13.3944  -16.8036 C   0  0  1  0  0  0  0  0  0  0  0  0
   29.3335  -12.6797  -16.3336 O   0  0  0  0  0  0  0  0  0  0  0  0
   27.2071  -12.5255  -17.4757 C   0  0  2  0  0  0  0  0  0  0  0  0
   27.7675  -11.8118  -18.5862 N   0  0  0  0  0  0  0  0  0  0  0  0
   26.4837  -11.6593  -16.5322 C   0  0  0  0  0  0  0  0  0  0  0  0
   25.7455  -12.1603  -15.6136 O   0  0  0  0  0  0  0  0  0  0  0  0
   26.5883  -10.2431  -16.6200 N   0  0  0  0  0  0  0  0  0  0  0  0
   26.0145   -9.3557  -15.6384 C   0  0  0  0  0  0  0  0  0  0  0  0
   24.6212   -9.0351  -15.9850 C   0  0  0  0  0  0  0  0  0  0  0  0
   24.2181   -9.2209  -17.1802 O   0  0  0  0  0  0  0  0  0  0  0  0
   17.2121  -12.8093  -15.0047 N   0  0  0  0  0  0  0  0  0  0  0  0
   16.9588  -11.5856  -15.7053 C   0  0  0  0  0  0  0  0  0  0  0  0
   15.8108  -11.4114  -16.2574 N   0  0  0  0  0  0  0  0  0  0  0  0
   17.9375  -10.5660  -15.8035 N   0  0  0  0  0  0  0  0  0  0  0  0
   19.2799  -10.7143  -15.2944 C   0  0  0  0  0  0  0  0  0  0  0  0
   19.9937   -9.3904  -15.5695 C   0  0  0  0  0  0  0  0  0  0  0  0
   21.4390   -9.5273  -15.1835 C   0  0  0  0  0  0  0  0  0  0  0  0
   22.2597   -8.3206  -15.4679 C   0  0  2  0  0  0  0  0  0  0  0  0
   23.6593   -8.5309  -15.0944 N   0  0  0  0  0  0  0  0  0  0  0  0
   21.7741   -7.1561  -14.7318 C   0  0  0  0  0  0  0  0  0  0  0  0
   22.4430   -6.6750  -13.7925 O   0  0  0  0  0  0  0  0  0  0  0  0
   20.5768   -6.5620  -15.0551 O   0  0  0  0  0  0  0  0  0  0  0  0
  2  1  1  6
  2  4  1  0
  3  2  1  0
  4  5  1  6
  6  4  1  0
  6  8  1  0
  7  6  2  0
  9  8  1  0
  9 10  1  0
 10 20  1  0
 10 11  2  0
 13 12  1  0
 13 14  2  0
 15 13  1  0
 16 17  1  0
 16 15  1  0
 18 17  1  0
 19 18  1  1
 20 19  1  0
 21 23  1  0
 21 19  1  0
 22 21  2  0
M  END
$$$$
