TGR.pdb
     RDKit          3D

 23 22  0  0  1  0  0  0  0  0999 V2000
   27.7579  -22.2495  -10.3856 C   0  0  0  0  0  0  0  0  0  0  0  0
   27.5489  -21.4823  -11.6795 C   0  0  1  0  0  0  0  0  0  0  0  0
   27.1763  -22.3886  -12.6506 O   0  0  0  0  0  0  0  0  0  0  0  0
   26.5199  -20.3932  -11.4517 C   0  0  2  0  0  0  0  0  0  0  0  0
   25.2234  -20.9530  -11.2020 N   0  0  0  0  0  0  0  0  0  0  0  0
   26.5187  -19.3707  -12.5092 C   0  0  0  0  0  0  0  0  0  0  0  0
   27.5639  -18.6702  -12.7473 O   0  0  0  0  0  0  0  0  0  0  0  0
   25.3539  -19.1370  -13.2921 N   0  0  0  0  0  0  0  0  0  0  0  0
   25.3266  -18.2036  -14.3914 C   0  0  0  0  0  0  0  0  0  0  0  0
   23.9601  -18.0679  -14.9189 C   0  0  0  0  0  0  0  0  0  0  0  0
   23.1039  -18.9799  -14.6728 O   0  0  0  0  0  0  0  0  0  0  0  0
   26.1200  -12.3733  -16.6065 N   0  0  0  0  0  0  0  0  0  0  0  0
   26.1056  -13.1730  -17.7950 C   0  0  0  0  0  0  0  0  0  0  0  0
   27.0942  -13.0891  -18.6128 N   0  0  0  0  0  0  0  0  0  0  0  0
   25.0341  -14.0515  -18.0901 N   0  0  0  0  0  0  0  0  0  0  0  0
   24.0072  -14.3870  -17.1329 C   0  0  0  0  0  0  0  0  0  0  0  0
   22.9998  -15.2677  -17.8726 C   0  0  0  0  0  0  0  0  0  0  0  0
   21.8910  -15.6373  -16.9289 C   0  0  0  0  0  0  0  0  0  0  0  0
   22.1194  -16.9088  -16.1930 C   0  0  2  0  0  0  0  0  0  0  0  0
   23.4916  -16.9915  -15.6900 N   0  0  0  0  0  0  0  0  0  0  0  0
   21.8890  -18.0714  -17.0469 C   0  0  0  0  0  0  0  0  0  0  0  0
   20.7329  -18.5130  -17.2192 O   0  0  0  0  0  0  0  0  0  0  0  0
   22.9330  -18.7029  -17.6810 O   0  0  0  0  0  0  0  0  0  0  0  0
  2  1  1  1
  2  4  1  0
  3  2  1  0
  4  5  1  6
  6  4  1  0
  6  8  1  0
  7  6  2  0
  9  8  1  0
  9 10  1  0
 10 20  1  0
 10 11  2  0
 13 12  1  0
 13 14  2  0
 15 13  1  0
 16 17  1  0
 16 15  1  0
 18 17  1  0
 19 18  1  6
 20 19  1  0
 21 23  1  0
 21 19  1  0
 22 21  2  0
M  END
$$$$
