TGR.pdb
     RDKit          3D

 23 22  0  0  1  0  0  0  0  0999 V2000
   21.8893  -19.6708  -12.9936 C   0  0  0  0  0  0  0  0  0  0  0  0
   21.2372  -19.8676  -14.3510 C   0  0  1  0  0  0  0  0  0  0  0  0
   22.2318  -19.8233  -15.3060 O   0  0  0  0  0  0  0  0  0  0  0  0
   20.4680  -21.1734  -14.3490 C   0  0  2  0  0  0  0  0  0  0  0  0
   19.8938  -21.4356  -15.6368 N   0  0  0  0  0  0  0  0  0  0  0  0
   19.4968  -21.2689  -13.2483 C   0  0  0  0  0  0  0  0  0  0  0  0
   18.5405  -20.4241  -13.1404 O   0  0  0  0  0  0  0  0  0  0  0  0
   19.5991  -22.3039  -12.2774 N   0  0  0  0  0  0  0  0  0  0  0  0
   18.7801  -22.3446  -11.0908 C   0  0  0  0  0  0  0  0  0  0  0  0
   18.9125  -23.6457  -10.4172 C   0  0  0  0  0  0  0  0  0  0  0  0
   19.6287  -24.5544  -10.9528 O   0  0  0  0  0  0  0  0  0  0  0  0
   15.4020  -26.3680   -2.9258 N   0  0  0  0  0  0  0  0  0  0  0  0
   16.8100  -26.1141   -2.9978 C   0  0  0  0  0  0  0  0  0  0  0  0
   17.4245  -25.7146   -1.9414 N   0  0  0  0  0  0  0  0  0  0  0  0
   17.5397  -26.2928   -4.1988 N   0  0  0  0  0  0  0  0  0  0  0  0
   16.9320  -26.7463   -5.4270 C   0  0  0  0  0  0  0  0  0  0  0  0
   18.0130  -26.6496   -6.5039 C   0  0  0  0  0  0  0  0  0  0  0  0
   17.8848  -25.3273   -7.2051 C   0  0  0  0  0  0  0  0  0  0  0  0
   18.4806  -25.3026   -8.5671 C   0  0  2  0  0  0  0  0  0  0  0  0
   18.3086  -23.9928   -9.1976 N   0  0  0  0  0  0  0  0  0  0  0  0
   17.8654  -26.2995   -9.4397 C   0  0  0  0  0  0  0  0  0  0  0  0
   16.8178  -26.0340  -10.0667 O   0  0  0  0  0  0  0  0  0  0  0  0
   18.4232  -27.5469   -9.5941 O   0  0  0  0  0  0  0  0  0  0  0  0
  2  1  1  1
  2  4  1  0
  3  2  1  0
  4  5  1  6
  6  4  1  0
  6  8  1  0
  7  6  2  0
  9  8  1  0
  9 10  1  0
 10 20  1  0
 10 11  2  0
 13 12  1  0
 13 14  2  0
 15 13  1  0
 16 17  1  0
 16 15  1  0
 18 17  1  0
 19 18  1  1
 20 19  1  0
 21 23  1  0
 21 19  1  0
 22 21  2  0
M  END
$$$$
