TGR.pdb
     RDKit          3D

 23 22  0  0  1  0  0  0  0  0999 V2000
   26.5694  -24.6397  -17.5193 C   0  0  0  0  0  0  0  0  0  0  0  0
   25.5541  -23.5969  -17.0853 C   0  0  1  0  0  0  0  0  0  0  0  0
   24.3207  -23.9847  -17.5664 O   0  0  0  0  0  0  0  0  0  0  0  0
   25.5922  -23.4631  -15.5762 C   0  0  2  0  0  0  0  0  0  0  0  0
   25.4007  -24.7345  -14.9409 N   0  0  0  0  0  0  0  0  0  0  0  0
   24.6924  -22.4166  -15.0671 C   0  0  0  0  0  0  0  0  0  0  0  0
   24.6981  -21.2410  -15.5748 O   0  0  0  0  0  0  0  0  0  0  0  0
   23.7945  -22.6881  -13.9975 N   0  0  0  0  0  0  0  0  0  0  0  0
   22.8137  -21.7343  -13.5405 C   0  0  0  0  0  0  0  0  0  0  0  0
   21.4958  -22.3740  -13.4062 C   0  0  0  0  0  0  0  0  0  0  0  0
   21.3468  -23.5803  -13.7908 O   0  0  0  0  0  0  0  0  0  0  0  0
   18.2529  -25.1267   -6.5041 N   0  0  0  0  0  0  0  0  0  0  0  0
   18.2849  -25.9076   -7.7047 C   0  0  0  0  0  0  0  0  0  0  0  0
   18.4265  -27.1823   -7.6136 N   0  0  0  0  0  0  0  0  0  0  0  0
   18.1637  -25.3130   -8.9848 N   0  0  0  0  0  0  0  0  0  0  0  0
   17.9469  -23.8990   -9.1766 C   0  0  0  0  0  0  0  0  0  0  0  0
   17.9033  -23.6708  -10.6878 C   0  0  0  0  0  0  0  0  0  0  0  0
   19.0780  -22.8235  -11.0862 C   0  0  0  0  0  0  0  0  0  0  0  0
   19.1329  -22.5069  -12.5379 C   0  0  2  0  0  0  0  0  0  0  0  0
   20.3487  -21.7637  -12.8730 N   0  0  0  0  0  0  0  0  0  0  0  0
   17.9897  -21.6986  -12.9542 C   0  0  0  0  0  0  0  0  0  0  0  0
   18.0511  -20.4510  -12.9269 O   0  0  0  0  0  0  0  0  0  0  0  0
   16.8251  -22.2881  -13.3870 O   0  0  0  0  0  0  0  0  0  0  0  0
  2  1  1  1
  2  4  1  0
  3  2  1  0
  4  5  1  1
  6  4  1  0
  6  8  1  0
  7  6  2  0
  9  8  1  0
  9 10  1  0
 10 20  1  0
 10 11  2  0
 13 12  1  0
 13 14  2  0
 15 13  1  0
 16 17  1  0
 16 15  1  0
 18 17  1  0
 19 18  1  1
 20 19  1  0
 21 23  1  0
 21 19  1  0
 22 21  2  0
M  END
$$$$
