TGR.pdb
     RDKit          3D

 23 22  0  0  1  0  0  0  0  0999 V2000
   26.5985  -18.5881  -18.0895 C   0  0  0  0  0  0  0  0  0  0  0  0
   26.6293  -19.2712  -16.7334 C   0  0  1  0  0  0  0  0  0  0  0  0
   25.4807  -20.0264  -16.6165 O   0  0  0  0  0  0  0  0  0  0  0  0
   27.8985  -20.0914  -16.6181 C   0  0  2  0  0  0  0  0  0  0  0  0
   28.0873  -20.9149  -17.7770 N   0  0  0  0  0  0  0  0  0  0  0  0
   27.9906  -20.8366  -15.3532 C   0  0  0  0  0  0  0  0  0  0  0  0
   28.4632  -22.0265  -15.3243 O   0  0  0  0  0  0  0  0  0  0  0  0
   27.5557  -20.2507  -14.1318 N   0  0  0  0  0  0  0  0  0  0  0  0
   27.8437  -20.8294  -12.8424 C   0  0  0  0  0  0  0  0  0  0  0  0
   27.1289  -20.1046  -11.7805 C   0  0  0  0  0  0  0  0  0  0  0  0
   27.2113  -18.8333  -11.7298 O   0  0  0  0  0  0  0  0  0  0  0  0
   19.7893  -21.4616  -14.8315 N   0  0  0  0  0  0  0  0  0  0  0  0
   19.5025  -20.7766  -13.6065 C   0  0  0  0  0  0  0  0  0  0  0  0
   18.3091  -20.3449  -13.4001 N   0  0  0  0  0  0  0  0  0  0  0  0
   20.4969  -20.5648  -12.6199 N   0  0  0  0  0  0  0  0  0  0  0  0
   21.8749  -20.9559  -12.7970 C   0  0  0  0  0  0  0  0  0  0  0  0
   22.6326  -20.4284  -11.5783 C   0  0  0  0  0  0  0  0  0  0  0  0
   24.0888  -20.7657  -11.7269 C   0  0  0  0  0  0  0  0  0  0  0  0
   24.9290  -20.3479  -10.5736 C   0  0  2  0  0  0  0  0  0  0  0  0
   26.3341  -20.6986  -10.7864 N   0  0  0  0  0  0  0  0  0  0  0  0
   24.4948  -20.9873   -9.3342 C   0  0  0  0  0  0  0  0  0  0  0  0
   25.0380  -22.0410   -8.9396 O   0  0  0  0  0  0  0  0  0  0  0  0
   23.4848  -20.4462   -8.5737 O   0  0  0  0  0  0  0  0  0  0  0  0
  2  1  1  6
  2  4  1  0
  3  2  1  0
  4  5  1  6
  6  4  1  0
  6  8  1  0
  7  6  2  0
  9  8  1  0
  9 10  1  0
 10 20  1  0
 10 11  2  0
 13 12  1  0
 13 14  2  0
 15 13  1  0
 16 17  1  0
 16 15  1  0
 18 17  1  0
 19 18  1  6
 20 19  1  0
 21 23  1  0
 21 19  1  0
 22 21  2  0
M  END
$$$$
