TGR.pdb
     RDKit          3D

 23 22  0  0  1  0  0  0  0  0999 V2000
   18.2459  -12.6114  -16.1300 C   0  0  0  0  0  0  0  0  0  0  0  0
   19.6009  -13.0124  -16.6863 C   0  0  1  0  0  0  0  0  0  0  0  0
   19.3840  -13.8653  -17.7486 O   0  0  0  0  0  0  0  0  0  0  0  0
   20.3708  -11.7643  -17.0692 C   0  0  2  0  0  0  0  0  0  0  0  0
   21.5331  -12.0924  -17.8425 N   0  0  0  0  0  0  0  0  0  0  0  0
   20.6625  -10.8918  -15.9213 C   0  0  0  0  0  0  0  0  0  0  0  0
   21.7169  -11.0648  -15.2155 O   0  0  0  0  0  0  0  0  0  0  0  0
   19.7777   -9.8347  -15.5694 N   0  0  0  0  0  0  0  0  0  0  0  0
   19.9601   -9.0241  -14.3904 C   0  0  0  0  0  0  0  0  0  0  0  0
   18.8705   -8.0437  -14.2649 C   0  0  0  0  0  0  0  0  0  0  0  0
   18.0330   -7.9178  -15.2180 O   0  0  0  0  0  0  0  0  0  0  0  0
   14.4781   -7.3731   -7.0366 N   0  0  0  0  0  0  0  0  0  0  0  0
   14.0838   -8.1962   -8.1408 C   0  0  0  0  0  0  0  0  0  0  0  0
   13.1137   -9.0252   -7.9831 N   0  0  0  0  0  0  0  0  0  0  0  0
   14.7325   -8.1190   -9.3979 N   0  0  0  0  0  0  0  0  0  0  0  0
   15.6486   -7.0590   -9.7450 C   0  0  0  0  0  0  0  0  0  0  0  0
   16.0762   -7.3152  -11.1904 C   0  0  0  0  0  0  0  0  0  0  0  0
   17.0404   -6.2425  -11.6103 C   0  0  0  0  0  0  0  0  0  0  0  0
   17.4809   -6.3435  -13.0267 C   0  0  2  0  0  0  0  0  0  0  0  0
   18.6548   -7.2082  -13.1568 N   0  0  0  0  0  0  0  0  0  0  0  0
   17.8306   -5.0351  -13.5742 C   0  0  0  0  0  0  0  0  0  0  0  0
   19.0165   -4.6418  -13.5697 O   0  0  0  0  0  0  0  0  0  0  0  0
   16.8685   -4.2102  -14.1079 O   0  0  0  0  0  0  0  0  0  0  0  0
  2  1  1  6
  2  4  1  0
  3  2  1  0
  4  5  1  1
  6  4  1  0
  6  8  1  0
  7  6  2  0
  9  8  1  0
  9 10  1  0
 10 20  1  0
 10 11  2  0
 13 12  1  0
 13 14  2  0
 15 13  1  0
 16 17  1  0
 16 15  1  0
 18 17  1  0
 19 18  1  1
 20 19  1  0
 21 23  1  0
 21 19  1  0
 22 21  2  0
M  END
$$$$
