TGR.pdb
     RDKit          3D

 23 22  0  0  1  0  0  0  0  0999 V2000
   18.4274  -19.2479  -16.9439 C   0  0  0  0  0  0  0  0  0  0  0  0
   19.3687  -20.1326  -16.1453 C   0  0  1  0  0  0  0  0  0  0  0  0
   20.5829  -20.1539  -16.7999 O   0  0  0  0  0  0  0  0  0  0  0  0
   19.4632  -19.6062  -14.7272 C   0  0  2  0  0  0  0  0  0  0  0  0
   19.8680  -18.2305  -14.7138 N   0  0  0  0  0  0  0  0  0  0  0  0
   20.2758  -20.4608  -13.8479 C   0  0  0  0  0  0  0  0  0  0  0  0
   19.9547  -21.6828  -13.6392 O   0  0  0  0  0  0  0  0  0  0  0  0
   21.4386  -19.9474  -13.2086 N   0  0  0  0  0  0  0  0  0  0  0  0
   22.2449  -20.7331  -12.3070 C   0  0  0  0  0  0  0  0  0  0  0  0
   23.6735  -20.4477  -12.5109 C   0  0  0  0  0  0  0  0  0  0  0  0
   24.0133  -19.4642  -13.2477 O   0  0  0  0  0  0  0  0  0  0  0  0
   31.1352  -21.5734   -7.9071 N   0  0  0  0  0  0  0  0  0  0  0  0
   31.5392  -21.7587   -9.2689 C   0  0  0  0  0  0  0  0  0  0  0  0
   32.7764  -21.9997   -9.5231 N   0  0  0  0  0  0  0  0  0  0  0  0
   30.6132  -21.6846  -10.3385 N   0  0  0  0  0  0  0  0  0  0  0  0
   29.2236  -22.0496  -10.2008 C   0  0  0  0  0  0  0  0  0  0  0  0
   28.4418  -21.1315  -11.1409 C   0  0  0  0  0  0  0  0  0  0  0  0
   26.9858  -21.4957  -11.0776 C   0  0  0  0  0  0  0  0  0  0  0  0
   26.1312  -20.7479  -12.0372 C   0  0  2  0  0  0  0  0  0  0  0  0
   24.7345  -21.1769  -11.9494 N   0  0  0  0  0  0  0  0  0  0  0  0
   26.5711  -20.9479  -13.4157 C   0  0  0  0  0  0  0  0  0  0  0  0
   26.2777  -21.9957  -14.0297 O   0  0  0  0  0  0  0  0  0  0  0  0
   27.3121  -19.9912  -14.0689 O   0  0  0  0  0  0  0  0  0  0  0  0
  2  1  1  6
  2  4  1  0
  3  2  1  0
  4  5  1  6
  6  4  1  0
  6  8  1  0
  7  6  2  0
  9  8  1  0
  9 10  1  0
 10 20  1  0
 10 11  2  0
 13 12  1  0
 13 14  2  0
 15 13  1  0
 16 17  1  0
 16 15  1  0
 18 17  1  0
 19 18  1  1
 20 19  1  0
 21 23  1  0
 21 19  1  0
 22 21  2  0
M  END
$$$$
