TGR.pdb
     RDKit          3D

 23 22  0  0  1  0  0  0  0  0999 V2000
   19.2063  -19.4566  -19.7360 C   0  0  0  0  0  0  0  0  0  0  0  0
   20.0279  -18.6327  -18.7599 C   0  0  1  0  0  0  0  0  0  0  0  0
   19.2587  -18.4238  -17.6340 O   0  0  0  0  0  0  0  0  0  0  0  0
   21.3281  -19.3554  -18.4701 C   0  0  2  0  0  0  0  0  0  0  0  0
   21.0829  -20.6684  -17.9479 N   0  0  0  0  0  0  0  0  0  0  0  0
   22.2559  -18.5652  -17.6463 C   0  0  0  0  0  0  0  0  0  0  0  0
   22.6688  -17.4181  -18.0381 O   0  0  0  0  0  0  0  0  0  0  0  0
   22.7158  -19.0591  -16.3937 N   0  0  0  0  0  0  0  0  0  0  0  0
   23.5625  -18.2902  -15.5149 C   0  0  0  0  0  0  0  0  0  0  0  0
   24.8445  -18.9793  -15.3008 C   0  0  0  0  0  0  0  0  0  0  0  0
   25.5168  -19.3720  -16.3104 O   0  0  0  0  0  0  0  0  0  0  0  0
   26.5066  -20.5249   -7.1495 N   0  0  0  0  0  0  0  0  0  0  0  0
   25.3438  -20.9249   -7.8844 C   0  0  0  0  0  0  0  0  0  0  0  0
   24.2801  -21.2469   -7.2379 N   0  0  0  0  0  0  0  0  0  0  0  0
   25.3362  -20.9733   -9.3002 N   0  0  0  0  0  0  0  0  0  0  0  0
   26.4232  -20.4753  -10.1089 C   0  0  0  0  0  0  0  0  0  0  0  0
   25.9890  -20.6436  -11.5652 C   0  0  0  0  0  0  0  0  0  0  0  0
   27.0625  -20.0928  -12.4600 C   0  0  0  0  0  0  0  0  0  0  0  0
   26.6695  -19.9970  -13.8907 C   0  0  2  0  0  0  0  0  0  0  0  0
   25.4198  -19.2514  -14.0488 N   0  0  0  0  0  0  0  0  0  0  0  0
   26.4762  -21.3180  -14.4834 C   0  0  0  0  0  0  0  0  0  0  0  0
   25.3506  -21.8601  -14.4719 O   0  0  0  0  0  0  0  0  0  0  0  0
   27.5223  -21.9923  -15.0683 O   0  0  0  0  0  0  0  0  0  0  0  0
  2  1  1  6
  2  4  1  0
  3  2  1  0
  4  5  1  1
  6  4  1  0
  6  8  1  0
  7  6  2  0
  9  8  1  0
  9 10  1  0
 10 20  1  0
 10 11  2  0
 13 12  1  0
 13 14  2  0
 15 13  1  0
 16 17  1  0
 16 15  1  0
 18 17  1  0
 19 18  1  1
 20 19  1  0
 21 23  1  0
 21 19  1  0
 22 21  2  0
M  END
$$$$
