TGR.pdb
     RDKit          3D

 23 22  0  0  1  0  0  0  0  0999 V2000
   26.2798  -16.0280  -22.1419 C   0  0  0  0  0  0  0  0  0  0  0  0
   25.8934  -15.8867  -20.6800 C   0  0  1  0  0  0  0  0  0  0  0  0
   25.0007  -16.8952  -20.3814 O   0  0  0  0  0  0  0  0  0  0  0  0
   27.1463  -15.9257  -19.8281 C   0  0  2  0  0  0  0  0  0  0  0  0
   27.9383  -17.0829  -20.1286 N   0  0  0  0  0  0  0  0  0  0  0  0
   26.8723  -15.7647  -18.3918 C   0  0  0  0  0  0  0  0  0  0  0  0
   26.2208  -14.7519  -17.9565 O   0  0  0  0  0  0  0  0  0  0  0  0
   27.3261  -16.7327  -17.4530 N   0  0  0  0  0  0  0  0  0  0  0  0
   27.0399  -16.6455  -16.0420 C   0  0  0  0  0  0  0  0  0  0  0  0
   27.4763  -17.8686  -15.3508 C   0  0  0  0  0  0  0  0  0  0  0  0
   28.6440  -18.3284  -15.5758 O   0  0  0  0  0  0  0  0  0  0  0  0
   22.4285  -19.9982  -10.3277 N   0  0  0  0  0  0  0  0  0  0  0  0
   23.6927  -20.4754   -9.8520 C   0  0  0  0  0  0  0  0  0  0  0  0
   23.7906  -20.8653   -8.6307 N   0  0  0  0  0  0  0  0  0  0  0  0
   24.8331  -20.5296  -10.6908 N   0  0  0  0  0  0  0  0  0  0  0  0
   25.7089  -21.6753  -10.7525 C   0  0  0  0  0  0  0  0  0  0  0  0
   26.7365  -21.3738  -11.8437 C   0  0  0  0  0  0  0  0  0  0  0  0
   26.2982  -20.1529  -12.6013 C   0  0  0  0  0  0  0  0  0  0  0  0
   27.2280  -19.7472  -13.6882 C   0  0  2  0  0  0  0  0  0  0  0  0
   26.7053  -18.6005  -14.4329 N   0  0  0  0  0  0  0  0  0  0  0  0
   27.4458  -20.8330  -14.6408 C   0  0  0  0  0  0  0  0  0  0  0  0
   26.5856  -21.0994  -15.5069 O   0  0  0  0  0  0  0  0  0  0  0  0
   28.5983  -21.5824  -14.6096 O   0  0  0  0  0  0  0  0  0  0  0  0
  2  1  1  6
  2  4  1  0
  3  2  1  0
  4  5  1  1
  6  4  1  0
  6  8  1  0
  7  6  2  0
  9  8  1  0
  9 10  1  0
 10 20  1  0
 10 11  2  0
 13 12  1  0
 13 14  2  0
 15 13  1  0
 16 17  1  0
 16 15  1  0
 18 17  1  0
 19 18  1  1
 20 19  1  0
 21 23  1  0
 21 19  1  0
 22 21  2  0
M  END
$$$$
