EHM.pdb
     RDKit          3D

 28 28  0  0  1  0  0  0  0  0999 V2000
    6.5980  -19.6786   21.2712 N   0  0  0  0  0  0  0  0  0  0  0  0
    6.4926  -18.5963   22.1907 C   0  0  1  0  0  0  0  0  0  0  0  0
    6.3778  -19.0094   23.6098 C   0  0  0  0  0  0  0  0  0  0  0  0
    7.5799  -19.7132   24.1754 C   0  0  0  0  0  0  0  0  0  0  0  0
    7.3776  -20.1113   25.5703 C   0  0  0  0  0  0  0  0  0  0  0  0
    6.5320  -20.9775   25.8865 O   0  0  0  0  0  0  0  0  0  0  0  0
    7.6523  -17.6440   22.0755 C   0  0  0  0  0  0  0  0  0  0  0  0
    8.7933  -18.1028   21.8308 O   0  0  0  0  0  0  0  0  0  0  0  0
    8.1401  -19.5192   26.5886 O   0  0  0  0  0  0  0  0  0  0  0  0
    7.4818  -16.2516   22.2370 N   0  0  0  0  0  0  0  0  0  0  0  0
    8.5975  -15.2832   22.0851 C   0  0  1  0  0  0  0  0  0  0  0  0
    8.0981  -14.0634   21.4015 C   0  0  0  0  0  0  0  0  0  0  0  0
    8.0734  -14.1208   19.9401 C   0  0  0  0  0  0  0  0  0  0  0  0
    8.5453  -15.1355   19.1358 C   0  0  0  0  0  0  0  0  0  0  0  0
    8.3915  -14.8176   17.8514 N   0  0  0  0  0  0  0  0  0  0  0  0
    7.8209  -13.5986   17.8094 C   0  0  0  0  0  0  0  0  0  0  0  0
    7.6299  -13.1799   19.0705 N   0  0  0  0  0  0  0  0  0  0  0  0
    9.2298  -15.1365   23.3899 C   0  0  0  0  0  0  0  0  0  0  0  0
   10.1131  -14.2157   23.5565 O   0  0  0  0  0  0  0  0  0  0  0  0
    5.8826  -11.8830   27.1362 C   0  0  0  0  0  0  0  0  0  0  0  0
    7.6117  -12.2958   27.0607 S   0  0  0  0  0  0  0  0  0  0  0  0
    7.9784  -13.8664   26.3079 C   0  0  0  0  0  0  0  0  0  0  0  0
    9.4260  -14.2469   26.2668 C   0  0  0  0  0  0  0  0  0  0  0  0
    9.6470  -15.6780   25.8065 C   0  0  2  0  0  0  0  0  0  0  0  0
    8.9765  -15.9070   24.5420 N   0  0  0  0  0  0  0  0  0  0  0  0
    9.3209  -16.6663   26.8085 C   0  0  0  0  0  0  0  0  0  0  0  0
    9.8612  -16.7966   28.0685 O   0  0  0  0  0  0  0  0  0  0  0  0
    8.4277  -17.5352   26.5164 O   0  0  0  0  0  0  0  0  0  0  0  0
  2  1  1  6
  2  3  1  0
  2  7  1  0
  3  4  1  0
  5  4  1  0
  5  6  2  0
  7 10  1  0
  8  7  2  0
  9  5  1  0
 10 11  1  0
 11 12  1  1
 12 13  1  0
 13 17  1  0
 14 13  2  0
 14 15  1  0
 15 16  1  0
 17 16  2  0
 18 11  1  0
 18 19  2  0
 20 21  1  0
 21 22  1  0
 22 23  1  0
 24 23  1  1
 24 25  1  0
 25 18  1  0
 26 27  1  0
 26 24  1  0
 28 26  2  0
M  END
$$$$
