EHM.pdb
     RDKit          3D

 28 28  0  0  1  0  0  0  0  0999 V2000
   11.0197  -17.4378   18.0365 N   0  0  0  0  0  0  0  0  0  0  0  0
   11.3802  -17.6064   19.4038 C   0  0  1  0  0  0  0  0  0  0  0  0
   12.8386  -17.7276   19.6405 C   0  0  0  0  0  0  0  0  0  0  0  0
   13.4075  -19.1081   19.4643 C   0  0  0  0  0  0  0  0  0  0  0  0
   14.8301  -19.1639   19.8084 C   0  0  0  0  0  0  0  0  0  0  0  0
   15.2111  -19.4055   20.9753 O   0  0  0  0  0  0  0  0  0  0  0  0
   10.8601  -16.4875   20.2657 C   0  0  0  0  0  0  0  0  0  0  0  0
   11.4779  -15.3965   20.2831 O   0  0  0  0  0  0  0  0  0  0  0  0
   15.8020  -18.9446   18.8204 O   0  0  0  0  0  0  0  0  0  0  0  0
    9.6968  -16.6415   21.0510 N   0  0  0  0  0  0  0  0  0  0  0  0
    9.0717  -15.5147   21.7895 C   0  0  1  0  0  0  0  0  0  0  0  0
    7.7709  -15.1767   21.1584 C   0  0  0  0  0  0  0  0  0  0  0  0
    7.8470  -14.6208   19.8076 C   0  0  0  0  0  0  0  0  0  0  0  0
    8.2526  -13.3539   19.4472 C   0  0  0  0  0  0  0  0  0  0  0  0
    8.1486  -13.1920   18.1291 N   0  0  0  0  0  0  0  0  0  0  0  0
    7.6764  -14.3471   17.6230 C   0  0  0  0  0  0  0  0  0  0  0  0
    7.4951  -15.2077   18.6371 N   0  0  0  0  0  0  0  0  0  0  0  0
    9.0862  -15.8584   23.2056 C   0  0  0  0  0  0  0  0  0  0  0  0
    8.3918  -16.8625   23.6122 O   0  0  0  0  0  0  0  0  0  0  0  0
    6.0928  -10.7830   27.6421 C   0  0  0  0  0  0  0  0  0  0  0  0
    6.4264  -11.7496   26.1860 S   0  0  0  0  0  0  0  0  0  0  0  0
    7.5625  -13.0992   26.4224 C   0  0  0  0  0  0  0  0  0  0  0  0
    8.1764  -13.6597   25.1771 C   0  0  0  0  0  0  0  0  0  0  0  0
    9.1881  -14.7573   25.4604 C   0  0  2  0  0  0  0  0  0  0  0  0
    9.8034  -15.2029   24.2260 N   0  0  0  0  0  0  0  0  0  0  0  0
    8.6594  -15.8424   26.2544 C   0  0  0  0  0  0  0  0  0  0  0  0
    8.1731  -17.0513   25.8088 O   0  0  0  0  0  0  0  0  0  0  0  0
    8.6277  -15.6877   27.5245 O   0  0  0  0  0  0  0  0  0  0  0  0
  2  1  1  6
  2  3  1  0
  2  7  1  0
  3  4  1  0
  5  4  1  0
  5  6  2  0
  7 10  1  0
  8  7  2  0
  9  5  1  0
 10 11  1  0
 11 12  1  6
 12 13  1  0
 13 17  1  0
 14 13  2  0
 14 15  1  0
 15 16  1  0
 17 16  2  0
 18 11  1  0
 18 19  2  0
 20 21  1  0
 21 22  1  0
 22 23  1  0
 24 23  1  6
 24 25  1  0
 25 18  1  0
 26 27  1  0
 26 24  1  0
 28 26  2  0
M  END
$$$$
