EHM.pdb
     RDKit          3D

 28 28  0  0  1  0  0  0  0  0999 V2000
   12.7385  -17.2771   19.4226 N   0  0  0  0  0  0  0  0  0  0  0  0
   11.4066  -17.6188   19.7930 C   0  0  1  0  0  0  0  0  0  0  0  0
   11.2875  -18.8976   20.5334 C   0  0  0  0  0  0  0  0  0  0  0  0
   12.2704  -19.0868   21.6552 C   0  0  0  0  0  0  0  0  0  0  0  0
   12.1427  -20.4049   22.2810 C   0  0  0  0  0  0  0  0  0  0  0  0
   11.0692  -20.7790   22.8033 O   0  0  0  0  0  0  0  0  0  0  0  0
   10.7572  -16.5408   20.6185 C   0  0  0  0  0  0  0  0  0  0  0  0
   11.4690  -15.8527   21.3878 O   0  0  0  0  0  0  0  0  0  0  0  0
   13.2380  -21.2816   22.3046 O   0  0  0  0  0  0  0  0  0  0  0  0
    9.3694  -16.2908   20.5442 N   0  0  0  0  0  0  0  0  0  0  0  0
    8.6953  -15.2543   21.3671 C   0  0  1  0  0  0  0  0  0  0  0  0
    7.5059  -14.7466   20.6377 C   0  0  0  0  0  0  0  0  0  0  0  0
    7.7314  -14.3676   19.2431 C   0  0  0  0  0  0  0  0  0  0  0  0
    8.0722  -13.1226   18.7603 C   0  0  0  0  0  0  0  0  0  0  0  0
    8.1503  -13.1471   17.4308 N   0  0  0  0  0  0  0  0  0  0  0  0
    7.8621  -14.4028   17.0390 C   0  0  0  0  0  0  0  0  0  0  0  0
    7.6096  -15.1375   18.1337 N   0  0  0  0  0  0  0  0  0  0  0  0
    8.5051  -15.8103   22.7007 C   0  0  0  0  0  0  0  0  0  0  0  0
    9.2602  -16.7775   23.0882 O   0  0  0  0  0  0  0  0  0  0  0  0
    6.3586  -10.7629   28.4174 C   0  0  0  0  0  0  0  0  0  0  0  0
    5.9665  -11.6677   26.9364 S   0  0  0  0  0  0  0  0  0  0  0  0
    7.1934  -12.8547   26.4325 C   0  0  0  0  0  0  0  0  0  0  0  0
    6.8919  -13.6092   25.1748 C   0  0  0  0  0  0  0  0  0  0  0  0
    7.9252  -14.6798   24.8670 C   0  0  2  0  0  0  0  0  0  0  0  0
    7.5607  -15.3964   23.6610 N   0  0  0  0  0  0  0  0  0  0  0  0
    8.2050  -15.5535   25.9831 C   0  0  0  0  0  0  0  0  0  0  0  0
    9.0769  -15.3328   27.0259 O   0  0  0  0  0  0  0  0  0  0  0  0
    7.5827  -16.6708   26.0326 O   0  0  0  0  0  0  0  0  0  0  0  0
  2  1  1  1
  2  3  1  0
  2  7  1  0
  3  4  1  0
  5  4  1  0
  5  6  2  0
  7 10  1  0
  8  7  2  0
  9  5  1  0
 10 11  1  0
 11 12  1  6
 12 13  1  0
 13 17  1  0
 14 13  2  0
 14 15  1  0
 15 16  1  0
 17 16  2  0
 18 11  1  0
 18 19  2  0
 20 21  1  0
 21 22  1  0
 22 23  1  0
 24 23  1  1
 24 25  1  0
 25 18  1  0
 26 27  1  0
 26 24  1  0
 28 26  2  0
M  END
$$$$
