EHM.pdb
     RDKit          3D

 28 28  0  0  1  0  0  0  0  0999 V2000
   12.4219  -16.1969   17.9089 N   0  0  0  0  0  0  0  0  0  0  0  0
   12.1705  -16.9351   19.1004 C   0  0  1  0  0  0  0  0  0  0  0  0
   13.3818  -17.5202   19.7235 C   0  0  0  0  0  0  0  0  0  0  0  0
   13.1315  -18.4027   20.9148 C   0  0  0  0  0  0  0  0  0  0  0  0
   14.3771  -18.9159   21.4895 C   0  0  0  0  0  0  0  0  0  0  0  0
   15.4667  -18.8154   20.8830 O   0  0  0  0  0  0  0  0  0  0  0  0
   11.4672  -16.1047   20.1401 C   0  0  0  0  0  0  0  0  0  0  0  0
   12.0462  -15.0938   20.6038 O   0  0  0  0  0  0  0  0  0  0  0  0
   14.3680  -19.5371   22.7476 O   0  0  0  0  0  0  0  0  0  0  0  0
   10.1755  -16.4400   20.6013 N   0  0  0  0  0  0  0  0  0  0  0  0
    9.3608  -15.5260   21.4420 C   0  0  1  0  0  0  0  0  0  0  0  0
    7.9731  -15.4824   20.9158 C   0  0  0  0  0  0  0  0  0  0  0  0
    7.8021  -14.7972   19.6348 C   0  0  0  0  0  0  0  0  0  0  0  0
    7.8116  -13.4381   19.4065 C   0  0  0  0  0  0  0  0  0  0  0  0
    7.5807  -13.1832   18.1196 N   0  0  0  0  0  0  0  0  0  0  0  0
    7.4196  -14.3692   17.5025 C   0  0  0  0  0  0  0  0  0  0  0  0
    7.5534  -15.3415   18.4182 N   0  0  0  0  0  0  0  0  0  0  0  0
    9.5628  -15.9142   22.8321 C   0  0  0  0  0  0  0  0  0  0  0  0
   10.0495  -17.0766   23.0921 O   0  0  0  0  0  0  0  0  0  0  0  0
   10.0457  -14.0143   30.5665 C   0  0  0  0  0  0  0  0  0  0  0  0
    9.6124  -13.5426   28.9065 S   0  0  0  0  0  0  0  0  0  0  0  0
    9.5583  -14.8804   27.7337 C   0  0  0  0  0  0  0  0  0  0  0  0
    9.2289  -14.4979   26.3240 C   0  0  0  0  0  0  0  0  0  0  0  0
    9.5659  -15.5897   25.3224 C   0  0  2  0  0  0  0  0  0  0  0  0
    9.2856  -15.1371   23.9743 N   0  0  0  0  0  0  0  0  0  0  0  0
    8.9611  -16.8652   25.6296 C   0  0  0  0  0  0  0  0  0  0  0  0
    9.4380  -17.8397   26.4777 O   0  0  0  0  0  0  0  0  0  0  0  0
    7.8505  -17.1480   25.0597 O   0  0  0  0  0  0  0  0  0  0  0  0
  2  1  1  6
  2  3  1  0
  2  7  1  0
  3  4  1  0
  5  4  1  0
  5  6  2  0
  7 10  1  0
  8  7  2  0
  9  5  1  0
 10 11  1  0
 11 12  1  6
 12 13  1  0
 13 17  1  0
 14 13  2  0
 14 15  1  0
 15 16  1  0
 17 16  2  0
 18 11  1  0
 18 19  2  0
 20 21  1  0
 21 22  1  0
 22 23  1  0
 24 23  1  1
 24 25  1  0
 25 18  1  0
 26 27  1  0
 26 24  1  0
 28 26  2  0
M  END
$$$$
