EHM.pdb
     RDKit          3D

 28 28  0  0  1  0  0  0  0  0999 V2000
   11.4748  -19.3722   18.2999 N   0  0  0  0  0  0  0  0  0  0  0  0
   11.7705  -19.1064   19.6673 C   0  0  1  0  0  0  0  0  0  0  0  0
   12.8990  -18.1682   19.8771 C   0  0  0  0  0  0  0  0  0  0  0  0
   14.2289  -18.6319   19.3509 C   0  0  0  0  0  0  0  0  0  0  0  0
   15.3133  -17.7177   19.7166 C   0  0  0  0  0  0  0  0  0  0  0  0
   15.6231  -16.7476   18.9899 O   0  0  0  0  0  0  0  0  0  0  0  0
   10.5754  -18.5701   20.4083 C   0  0  0  0  0  0  0  0  0  0  0  0
    9.7642  -17.8325   19.8001 O   0  0  0  0  0  0  0  0  0  0  0  0
   16.0318  -17.9182   20.9051 O   0  0  0  0  0  0  0  0  0  0  0  0
   10.3512  -18.8792   21.7677 N   0  0  0  0  0  0  0  0  0  0  0  0
    9.0871  -18.5407   22.4701 C   0  0  1  0  0  0  0  0  0  0  0  0
    8.5050  -19.7755   23.0540 C   0  0  0  0  0  0  0  0  0  0  0  0
    7.5204  -20.4670   22.2223 C   0  0  0  0  0  0  0  0  0  0  0  0
    7.7036  -21.6263   21.5000 C   0  0  0  0  0  0  0  0  0  0  0  0
    6.5950  -21.9334   20.8284 N   0  0  0  0  0  0  0  0  0  0  0  0
    5.6851  -20.9806   21.1067 C   0  0  0  0  0  0  0  0  0  0  0  0
    6.2453  -20.0969   21.9477 N   0  0  0  0  0  0  0  0  0  0  0  0
    9.3671  -17.4197   23.3582 C   0  0  0  0  0  0  0  0  0  0  0  0
   10.5116  -17.3561   23.9429 O   0  0  0  0  0  0  0  0  0  0  0  0
    6.9195  -10.9988   27.4464 C   0  0  0  0  0  0  0  0  0  0  0  0
    6.6862  -12.1040   26.0717 S   0  0  0  0  0  0  0  0  0  0  0  0
    7.7654  -13.5193   26.0521 C   0  0  0  0  0  0  0  0  0  0  0  0
    7.5989  -14.4495   24.8907 C   0  0  0  0  0  0  0  0  0  0  0  0
    8.7816  -15.3863   24.7108 C   0  0  2  0  0  0  0  0  0  0  0  0
    8.5046  -16.3477   23.6621 N   0  0  0  0  0  0  0  0  0  0  0  0
    9.2269  -16.0006   25.9402 C   0  0  0  0  0  0  0  0  0  0  0  0
    8.7846  -17.1784   26.5002 O   0  0  0  0  0  0  0  0  0  0  0  0
   10.1394  -15.3999   26.6072 O   0  0  0  0  0  0  0  0  0  0  0  0
  2  1  1  6
  2  3  1  0
  2  7  1  0
  3  4  1  0
  5  4  1  0
  5  6  2  0
  7 10  1  0
  8  7  2  0
  9  5  1  0
 10 11  1  0
 11 12  1  1
 12 13  1  0
 13 17  1  0
 14 13  2  0
 14 15  1  0
 15 16  1  0
 17 16  2  0
 18 11  1  0
 18 19  2  0
 20 21  1  0
 21 22  1  0
 22 23  1  0
 24 23  1  1
 24 25  1  0
 25 18  1  0
 26 27  1  0
 26 24  1  0
 28 26  2  0
M  END
$$$$
