EHM.pdb
     RDKit          3D

 28 28  0  0  1  0  0  0  0  0999 V2000
   14.7973  -17.8853   20.8784 N   0  0  0  0  0  0  0  0  0  0  0  0
   13.4571  -18.3265   21.0708 C   0  0  1  0  0  0  0  0  0  0  0  0
   13.3127  -19.4350   22.0446 C   0  0  0  0  0  0  0  0  0  0  0  0
   14.3706  -19.4977   23.1110 C   0  0  0  0  0  0  0  0  0  0  0  0
   13.8754  -20.1224   24.3398 C   0  0  0  0  0  0  0  0  0  0  0  0
   13.6921  -19.4568   25.3832 O   0  0  0  0  0  0  0  0  0  0  0  0
   12.5514  -17.2053   21.5042 C   0  0  0  0  0  0  0  0  0  0  0  0
   13.0579  -16.1773   22.0130 O   0  0  0  0  0  0  0  0  0  0  0  0
   13.5943  -21.4969   24.3664 O   0  0  0  0  0  0  0  0  0  0  0  0
   11.1503  -17.2881   21.3504 N   0  0  0  0  0  0  0  0  0  0  0  0
   10.2414  -16.1516   21.6479 C   0  0  1  0  0  0  0  0  0  0  0  0
    9.3866  -15.8848   20.4636 C   0  0  0  0  0  0  0  0  0  0  0  0
    8.3938  -14.8227   20.6246 C   0  0  0  0  0  0  0  0  0  0  0  0
    8.5553  -13.4806   20.3566 C   0  0  0  0  0  0  0  0  0  0  0  0
    7.4468  -12.8100   20.6661 N   0  0  0  0  0  0  0  0  0  0  0  0
    6.5585  -13.7063   21.1362 C   0  0  0  0  0  0  0  0  0  0  0  0
    7.1318  -14.9199   21.1105 N   0  0  0  0  0  0  0  0  0  0  0  0
    9.5922  -16.4330   22.9218 C   0  0  0  0  0  0  0  0  0  0  0  0
    9.3043  -17.6509   23.2212 O   0  0  0  0  0  0  0  0  0  0  0  0
   10.7084  -12.5409   28.8568 C   0  0  0  0  0  0  0  0  0  0  0  0
    9.2679  -12.9037   27.8776 S   0  0  0  0  0  0  0  0  0  0  0  0
    9.4118  -14.3341   26.8281 C   0  0  0  0  0  0  0  0  0  0  0  0
    8.2319  -14.6204   25.9518 C   0  0  0  0  0  0  0  0  0  0  0  0
    8.4342  -15.8415   25.0704 C   0  0  2  0  0  0  0  0  0  0  0  0
    9.2323  -15.4961   23.9109 N   0  0  0  0  0  0  0  0  0  0  0  0
    7.2056  -16.5216   24.7310 C   0  0  0  0  0  0  0  0  0  0  0  0
    6.5466  -16.5143   23.5218 O   0  0  0  0  0  0  0  0  0  0  0  0
    6.6423  -17.2201   25.6437 O   0  0  0  0  0  0  0  0  0  0  0  0
  2  1  1  1
  2  3  1  0
  2  7  1  0
  3  4  1  0
  5  4  1  0
  5  6  2  0
  7 10  1  0
  8  7  2  0
  9  5  1  0
 10 11  1  0
 11 12  1  6
 12 13  1  0
 13 17  1  0
 14 13  2  0
 14 15  1  0
 15 16  1  0
 17 16  2  0
 18 11  1  0
 18 19  2  0
 20 21  1  0
 21 22  1  0
 22 23  1  0
 24 23  1  6
 24 25  1  0
 25 18  1  0
 26 27  1  0
 26 24  1  0
 28 26  2  0
M  END
$$$$
