EHM.pdb
     RDKit          3D

 28 28  0  0  1  0  0  0  0  0999 V2000
    9.6612  -13.8856   17.7979 N   0  0  0  0  0  0  0  0  0  0  0  0
   10.0442  -15.0879   18.4581 C   0  0  1  0  0  0  0  0  0  0  0  0
   11.4802  -15.1550   18.8203 C   0  0  0  0  0  0  0  0  0  0  0  0
   12.2452  -13.8703   18.6632 C   0  0  0  0  0  0  0  0  0  0  0  0
   13.6894  -14.0704   18.8027 C   0  0  0  0  0  0  0  0  0  0  0  0
   14.2972  -13.7396   19.8450 O   0  0  0  0  0  0  0  0  0  0  0  0
    9.2377  -15.3270   19.7061 C   0  0  0  0  0  0  0  0  0  0  0  0
    8.8186  -14.3406   20.3569 O   0  0  0  0  0  0  0  0  0  0  0  0
   14.4246  -14.6448   17.7546 O   0  0  0  0  0  0  0  0  0  0  0  0
    8.9457  -16.6331   20.1562 N   0  0  0  0  0  0  0  0  0  0  0  0
    8.0216  -16.9048   21.2867 C   0  0  1  0  0  0  0  0  0  0  0  0
    7.6550  -18.3436   21.2851 C   0  0  0  0  0  0  0  0  0  0  0  0
    6.8243  -18.7875   22.4042 C   0  0  0  0  0  0  0  0  0  0  0  0
    5.4526  -18.7067   22.5101 C   0  0  0  0  0  0  0  0  0  0  0  0
    5.0514  -19.1715   23.6922 N   0  0  0  0  0  0  0  0  0  0  0  0
    6.1539  -19.5569   24.3626 C   0  0  0  0  0  0  0  0  0  0  0  0
    7.2223  -19.3244   23.5839 N   0  0  0  0  0  0  0  0  0  0  0  0
    8.6253  -16.3450   22.4891 C   0  0  0  0  0  0  0  0  0  0  0  0
    9.9076  -16.2765   22.5710 O   0  0  0  0  0  0  0  0  0  0  0  0
    5.8735  -12.1293   26.9839 C   0  0  0  0  0  0  0  0  0  0  0  0
    7.5853  -12.3076   27.4351 S   0  0  0  0  0  0  0  0  0  0  0  0
    8.4229  -13.6853   26.6811 C   0  0  0  0  0  0  0  0  0  0  0  0
    7.8336  -14.1828   25.3977 C   0  0  0  0  0  0  0  0  0  0  0  0
    8.6365  -15.3151   24.7796 C   0  0  2  0  0  0  0  0  0  0  0  0
    7.9483  -15.8415   23.6177 N   0  0  0  0  0  0  0  0  0  0  0  0
    9.0178  -16.3389   25.7250 C   0  0  0  0  0  0  0  0  0  0  0  0
    8.6202  -17.6572   25.7430 O   0  0  0  0  0  0  0  0  0  0  0  0
    9.8185  -16.0081   26.6671 O   0  0  0  0  0  0  0  0  0  0  0  0
  2  1  1  1
  2  3  1  0
  2  7  1  0
  3  4  1  0
  5  4  1  0
  5  6  2  0
  7 10  1  0
  8  7  2  0
  9  5  1  0
 10 11  1  0
 11 12  1  1
 12 13  1  0
 13 17  1  0
 14 13  2  0
 14 15  1  0
 15 16  1  0
 17 16  2  0
 18 11  1  0
 18 19  2  0
 20 21  1  0
 21 22  1  0
 22 23  1  0
 24 23  1  1
 24 25  1  0
 25 18  1  0
 26 27  1  0
 26 24  1  0
 28 26  2  0
M  END
$$$$
