EHM.pdb
     RDKit          3D

 28 28  0  0  1  0  0  0  0  0999 V2000
    9.3063  -16.9546   19.3945 N   0  0  0  0  0  0  0  0  0  0  0  0
    9.9819  -17.4334   20.5531 C   0  0  1  0  0  0  0  0  0  0  0  0
   11.3788  -16.9551   20.6870 C   0  0  0  0  0  0  0  0  0  0  0  0
   11.5808  -15.4833   20.4564 C   0  0  0  0  0  0  0  0  0  0  0  0
   12.9888  -15.0972   20.5737 C   0  0  0  0  0  0  0  0  0  0  0  0
   13.8555  -15.9024   20.9809 O   0  0  0  0  0  0  0  0  0  0  0  0
    9.2467  -17.0837   21.8189 C   0  0  0  0  0  0  0  0  0  0  0  0
    8.4874  -16.0859   21.8246 O   0  0  0  0  0  0  0  0  0  0  0  0
   13.3938  -13.7995   20.2259 O   0  0  0  0  0  0  0  0  0  0  0  0
    9.3949  -17.8526   22.9939 N   0  0  0  0  0  0  0  0  0  0  0  0
    8.5296  -17.6702   24.1872 C   0  0  1  0  0  0  0  0  0  0  0  0
    8.0860  -18.9991   24.6786 C   0  0  0  0  0  0  0  0  0  0  0  0
    6.9969  -19.6221   23.9267 C   0  0  0  0  0  0  0  0  0  0  0  0
    6.3153  -19.0942   22.8515 C   0  0  0  0  0  0  0  0  0  0  0  0
    5.3588  -19.9314   22.4534 N   0  0  0  0  0  0  0  0  0  0  0  0
    5.4097  -21.0064   23.2629 C   0  0  0  0  0  0  0  0  0  0  0  0
    6.3985  -20.8178   24.1510 N   0  0  0  0  0  0  0  0  0  0  0  0
    9.2366  -16.7910   25.1095 C   0  0  0  0  0  0  0  0  0  0  0  0
   10.5180  -16.8739   25.1941 O   0  0  0  0  0  0  0  0  0  0  0  0
    6.5107  -10.9960   24.8248 C   0  0  0  0  0  0  0  0  0  0  0  0
    6.8580  -12.0400   26.2231 S   0  0  0  0  0  0  0  0  0  0  0  0
    8.3769  -12.9616   26.1155 C   0  0  0  0  0  0  0  0  0  0  0  0
    8.7190  -13.7954   27.3111 C   0  0  0  0  0  0  0  0  0  0  0  0
    9.4290  -15.0880   26.9454 C   0  0  2  0  0  0  0  0  0  0  0  0
    8.6658  -15.8149   25.9503 N   0  0  0  0  0  0  0  0  0  0  0  0
    9.7864  -15.8967   28.0880 C   0  0  0  0  0  0  0  0  0  0  0  0
    9.4171  -17.1980   28.3460 O   0  0  0  0  0  0  0  0  0  0  0  0
   10.5337  -15.3650   28.9808 O   0  0  0  0  0  0  0  0  0  0  0  0
  2  1  1  6
  2  3  1  0
  2  7  1  0
  3  4  1  0
  5  4  1  0
  5  6  2  0
  7 10  1  0
  8  7  2  0
  9  5  1  0
 10 11  1  0
 11 12  1  1
 12 13  1  0
 13 17  1  0
 14 13  2  0
 14 15  1  0
 15 16  1  0
 17 16  2  0
 18 11  1  0
 18 19  2  0
 20 21  1  0
 21 22  1  0
 22 23  1  0
 24 23  1  1
 24 25  1  0
 25 18  1  0
 26 27  1  0
 26 24  1  0
 28 26  2  0
M  END
$$$$
