EHM.pdb
     RDKit          3D

 28 28  0  0  1  0  0  0  0  0999 V2000
   13.5436  -18.3517   20.5302 N   0  0  0  0  0  0  0  0  0  0  0  0
   12.4416  -17.4517   20.4711 C   0  0  1  0  0  0  0  0  0  0  0  0
   11.6890  -17.4906   19.1944 C   0  0  0  0  0  0  0  0  0  0  0  0
   11.4168  -18.8647   18.6484 C   0  0  0  0  0  0  0  0  0  0  0  0
   10.7047  -18.8164   17.3694 C   0  0  0  0  0  0  0  0  0  0  0  0
   10.4299  -19.8590   16.7348 O   0  0  0  0  0  0  0  0  0  0  0  0
   11.4659  -17.6811   21.5937 C   0  0  0  0  0  0  0  0  0  0  0  0
   10.4506  -16.9498   21.6754 O   0  0  0  0  0  0  0  0  0  0  0  0
   10.3135  -17.5824   16.8281 O   0  0  0  0  0  0  0  0  0  0  0  0
   11.6704  -18.6979   22.5519 N   0  0  0  0  0  0  0  0  0  0  0  0
   10.6679  -19.0306   23.5960 C   0  0  1  0  0  0  0  0  0  0  0  0
   10.5315  -20.5059   23.6921 C   0  0  0  0  0  0  0  0  0  0  0  0
    9.5206  -21.1072   22.8225 C   0  0  0  0  0  0  0  0  0  0  0  0
    8.6556  -20.4542   21.9713 C   0  0  0  0  0  0  0  0  0  0  0  0
    7.8477  -21.3278   21.3727 N   0  0  0  0  0  0  0  0  0  0  0  0
    8.1786  -22.5513   21.8275 C   0  0  0  0  0  0  0  0  0  0  0  0
    9.1880  -22.4161   22.7020 N   0  0  0  0  0  0  0  0  0  0  0  0
   11.0254  -18.2881   24.7979 C   0  0  0  0  0  0  0  0  0  0  0  0
   12.2675  -18.1664   25.1111 O   0  0  0  0  0  0  0  0  0  0  0  0
   10.5103  -12.7643   30.1954 C   0  0  0  0  0  0  0  0  0  0  0  0
   10.0948  -13.4781   28.6195 S   0  0  0  0  0  0  0  0  0  0  0  0
    9.9799  -15.2542   28.6045 C   0  0  0  0  0  0  0  0  0  0  0  0
    9.6504  -15.8746   27.2821 C   0  0  0  0  0  0  0  0  0  0  0  0
   10.5812  -17.0194   26.9193 C   0  0  2  0  0  0  0  0  0  0  0  0
   10.1409  -17.6541   25.6929 N   0  0  0  0  0  0  0  0  0  0  0  0
   10.7953  -17.9567   27.9977 C   0  0  0  0  0  0  0  0  0  0  0  0
   10.0385  -19.0633   28.3128 O   0  0  0  0  0  0  0  0  0  0  0  0
   11.7997  -17.7583   28.7658 O   0  0  0  0  0  0  0  0  0  0  0  0
  2  1  1  6
  2  3  1  0
  2  7  1  0
  3  4  1  0
  5  4  1  0
  5  6  2  0
  7 10  1  0
  8  7  2  0
  9  5  1  0
 10 11  1  0
 11 12  1  1
 12 13  1  0
 13 17  1  0
 14 13  2  0
 14 15  1  0
 15 16  1  0
 17 16  2  0
 18 11  1  0
 18 19  2  0
 20 21  1  0
 21 22  1  0
 22 23  1  0
 24 23  1  1
 24 25  1  0
 25 18  1  0
 26 27  1  0
 26 24  1  0
 28 26  2  0
M  END
$$$$
