EHM.pdb
     RDKit          3D

 28 28  0  0  1  0  0  0  0  0999 V2000
   11.3523  -17.6867   17.4517 N   0  0  0  0  0  0  0  0  0  0  0  0
   11.7557  -17.9459   18.7926 C   0  0  1  0  0  0  0  0  0  0  0  0
   13.2219  -18.0634   18.9775 C   0  0  0  0  0  0  0  0  0  0  0  0
   14.0573  -17.5899   17.8207 C   0  0  0  0  0  0  0  0  0  0  0  0
   15.4549  -18.0105   17.9440 C   0  0  0  0  0  0  0  0  0  0  0  0
   16.0721  -17.9173   19.0282 O   0  0  0  0  0  0  0  0  0  0  0  0
   11.2488  -16.8977   19.7462 C   0  0  0  0  0  0  0  0  0  0  0  0
   11.7323  -15.7421   19.6919 O   0  0  0  0  0  0  0  0  0  0  0  0
   16.1332  -18.5324   16.8320 O   0  0  0  0  0  0  0  0  0  0  0  0
   10.2451  -17.1886   20.6958 N   0  0  0  0  0  0  0  0  0  0  0  0
    9.5826  -16.1386   21.5111 C   0  0  1  0  0  0  0  0  0  0  0  0
    8.1528  -16.0454   21.1220 C   0  0  0  0  0  0  0  0  0  0  0  0
    7.8583  -15.1582   19.9970 C   0  0  0  0  0  0  0  0  0  0  0  0
    7.4929  -15.5226   18.7192 C   0  0  0  0  0  0  0  0  0  0  0  0
    7.3492  -14.4425   17.9530 N   0  0  0  0  0  0  0  0  0  0  0  0
    7.6189  -13.3708   18.7225 C   0  0  0  0  0  0  0  0  0  0  0  0
    7.9258  -13.8047   19.9552 N   0  0  0  0  0  0  0  0  0  0  0  0
    9.9050  -16.4012   22.9078 C   0  0  0  0  0  0  0  0  0  0  0  0
   10.4774  -17.5107   23.2193 O   0  0  0  0  0  0  0  0  0  0  0  0
   10.6017  -13.8651   30.4388 C   0  0  0  0  0  0  0  0  0  0  0  0
    9.7237  -13.7444   28.8960 S   0  0  0  0  0  0  0  0  0  0  0  0
   10.0838  -15.0331   27.7222 C   0  0  0  0  0  0  0  0  0  0  0  0
    9.6773  -14.7580   26.3077 C   0  0  0  0  0  0  0  0  0  0  0  0
    9.9854  -15.9132   25.3700 C   0  0  2  0  0  0  0  0  0  0  0  0
    9.6632  -15.5500   24.0043 N   0  0  0  0  0  0  0  0  0  0  0  0
    9.3925  -17.1657   25.7786 C   0  0  0  0  0  0  0  0  0  0  0  0
    8.1875  -17.6969   25.3757 O   0  0  0  0  0  0  0  0  0  0  0  0
   10.0430  -17.8860   26.6130 O   0  0  0  0  0  0  0  0  0  0  0  0
  2  1  1  6
  2  3  1  0
  2  7  1  0
  3  4  1  0
  5  4  1  0
  5  6  2  0
  7 10  1  0
  8  7  2  0
  9  5  1  0
 10 11  1  0
 11 12  1  1
 12 13  1  0
 13 17  1  0
 14 13  2  0
 14 15  1  0
 15 16  1  0
 17 16  2  0
 18 11  1  0
 18 19  2  0
 20 21  1  0
 21 22  1  0
 22 23  1  0
 24 23  1  1
 24 25  1  0
 25 18  1  0
 26 27  1  0
 26 24  1  0
 28 26  2  0
M  END
$$$$
