EHM.pdb
     RDKit          3D

 28 28  0  0  1  0  0  0  0  0999 V2000
   10.5322  -17.2003   18.5862 N   0  0  0  0  0  0  0  0  0  0  0  0
   11.2706  -17.1919   19.8038 C   0  0  1  0  0  0  0  0  0  0  0  0
   12.3547  -16.1819   19.8538 C   0  0  0  0  0  0  0  0  0  0  0  0
   13.0900  -16.0900   21.1619 C   0  0  0  0  0  0  0  0  0  0  0  0
   14.5116  -15.7919   20.9732 C   0  0  0  0  0  0  0  0  0  0  0  0
   14.9649  -15.4487   19.8588 O   0  0  0  0  0  0  0  0  0  0  0  0
   10.3822  -16.9807   21.0001 C   0  0  0  0  0  0  0  0  0  0  0  0
    9.7046  -15.9284   21.0756 O   0  0  0  0  0  0  0  0  0  0  0  0
   15.4001  -15.8877   22.0550 O   0  0  0  0  0  0  0  0  0  0  0  0
   10.2976  -17.9388   22.0338 N   0  0  0  0  0  0  0  0  0  0  0  0
    9.3360  -17.8223   23.1597 C   0  0  1  0  0  0  0  0  0  0  0  0
    8.9218  -19.1807   23.5930 C   0  0  0  0  0  0  0  0  0  0  0  0
    8.1656  -19.2443   24.8435 C   0  0  0  0  0  0  0  0  0  0  0  0
    6.8433  -18.9081   25.0382 C   0  0  0  0  0  0  0  0  0  0  0  0
    6.5127  -19.0537   26.3204 N   0  0  0  0  0  0  0  0  0  0  0  0
    7.6123  -19.4838   26.9678 C   0  0  0  0  0  0  0  0  0  0  0  0
    8.6083  -19.5981   26.0752 N   0  0  0  0  0  0  0  0  0  0  0  0
    9.9267  -16.9297   24.1486 C   0  0  0  0  0  0  0  0  0  0  0  0
   11.2053  -16.9153   24.2930 O   0  0  0  0  0  0  0  0  0  0  0  0
    5.2791  -12.4824   27.1783 C   0  0  0  0  0  0  0  0  0  0  0  0
    7.0045  -12.3765   26.7569 S   0  0  0  0  0  0  0  0  0  0  0  0
    7.8229  -13.9416   26.5365 C   0  0  0  0  0  0  0  0  0  0  0  0
    9.2574  -13.8727   26.1130 C   0  0  0  0  0  0  0  0  0  0  0  0
    9.9081  -15.2417   26.0081 C   0  0  2  0  0  0  0  0  0  0  0  0
    9.2411  -16.0376   24.9968 N   0  0  0  0  0  0  0  0  0  0  0  0
   10.0319  -15.9236   27.2758 C   0  0  0  0  0  0  0  0  0  0  0  0
   10.8241  -15.5720   28.3460 O   0  0  0  0  0  0  0  0  0  0  0  0
    9.3340  -16.9821   27.4509 O   0  0  0  0  0  0  0  0  0  0  0  0
  2  1  1  6
  2  3  1  0
  2  7  1  0
  3  4  1  0
  5  4  1  0
  5  6  2  0
  7 10  1  0
  8  7  2  0
  9  5  1  0
 10 11  1  0
 11 12  1  1
 12 13  1  0
 13 17  1  0
 14 13  2  0
 14 15  1  0
 15 16  1  0
 17 16  2  0
 18 11  1  0
 18 19  2  0
 20 21  1  0
 21 22  1  0
 22 23  1  0
 24 23  1  1
 24 25  1  0
 25 18  1  0
 26 27  1  0
 26 24  1  0
 28 26  2  0
M  END
$$$$
