EHM.pdb
     RDKit          3D

 28 28  0  0  1  0  0  0  0  0999 V2000
   10.2185  -17.6091   18.5122 N   0  0  0  0  0  0  0  0  0  0  0  0
    8.9432  -16.9755   18.4946 C   0  0  1  0  0  0  0  0  0  0  0  0
    8.0231  -17.4835   17.4490 C   0  0  0  0  0  0  0  0  0  0  0  0
    8.4063  -17.1471   16.0347 C   0  0  0  0  0  0  0  0  0  0  0  0
    8.1075  -18.2424   15.1093 C   0  0  0  0  0  0  0  0  0  0  0  0
    7.0354  -18.8834   15.1801 O   0  0  0  0  0  0  0  0  0  0  0  0
    8.2429  -17.0819   19.8225 C   0  0  0  0  0  0  0  0  0  0  0  0
    7.0984  -16.5851   19.9474 O   0  0  0  0  0  0  0  0  0  0  0  0
    9.0320  -18.5949   14.1144 O   0  0  0  0  0  0  0  0  0  0  0  0
    8.8462  -17.7262   20.9246 N   0  0  0  0  0  0  0  0  0  0  0  0
    8.1523  -17.9119   22.2246 C   0  0  1  0  0  0  0  0  0  0  0  0
    8.3976  -19.2904   22.7185 C   0  0  0  0  0  0  0  0  0  0  0  0
    7.9427  -19.5661   24.0811 C   0  0  0  0  0  0  0  0  0  0  0  0
    6.6625  -19.4412   24.5758 C   0  0  0  0  0  0  0  0  0  0  0  0
    6.6367  -19.7390   25.8738 N   0  0  0  0  0  0  0  0  0  0  0  0
    7.8945  -20.0587   26.2332 C   0  0  0  0  0  0  0  0  0  0  0  0
    8.6809  -19.9537   25.1503 N   0  0  0  0  0  0  0  0  0  0  0  0
    8.5222  -16.7928   23.0815 C   0  0  0  0  0  0  0  0  0  0  0  0
    9.7572  -16.4373   23.1471 O   0  0  0  0  0  0  0  0  0  0  0  0
    6.5853  -10.5396   27.6647 C   0  0  0  0  0  0  0  0  0  0  0  0
    6.0517  -11.9188   26.6753 S   0  0  0  0  0  0  0  0  0  0  0  0
    7.3511  -13.0163   26.1508 C   0  0  0  0  0  0  0  0  0  0  0  0
    6.9536  -14.0740   25.1684 C   0  0  0  0  0  0  0  0  0  0  0  0
    8.1216  -14.9417   24.7308 C   0  0  2  0  0  0  0  0  0  0  0  0
    7.6559  -16.0147   23.8749 N   0  0  0  0  0  0  0  0  0  0  0  0
    8.9418  -15.4053   25.8260 C   0  0  0  0  0  0  0  0  0  0  0  0
   10.1438  -14.8875   26.2545 O   0  0  0  0  0  0  0  0  0  0  0  0
    8.5254  -16.4151   26.4932 O   0  0  0  0  0  0  0  0  0  0  0  0
  2  1  1  1
  2  3  1  0
  2  7  1  0
  3  4  1  0
  5  4  1  0
  5  6  2  0
  7 10  1  0
  8  7  2  0
  9  5  1  0
 10 11  1  0
 11 12  1  1
 12 13  1  0
 13 17  1  0
 14 13  2  0
 14 15  1  0
 15 16  1  0
 17 16  2  0
 18 11  1  0
 18 19  2  0
 20 21  1  0
 21 22  1  0
 22 23  1  0
 24 23  1  1
 24 25  1  0
 25 18  1  0
 26 27  1  0
 26 24  1  0
 28 26  2  0
M  END
$$$$
