EHM.pdb
     RDKit          3D

 28 28  0  0  1  0  0  0  0  0999 V2000
    9.9765  -18.0324   18.0384 N   0  0  0  0  0  0  0  0  0  0  0  0
   11.1892  -17.6834   18.6983 C   0  0  1  0  0  0  0  0  0  0  0  0
   12.2517  -17.1776   17.7965 C   0  0  0  0  0  0  0  0  0  0  0  0
   12.3149  -17.8320   16.4445 C   0  0  0  0  0  0  0  0  0  0  0  0
   13.6237  -17.6577   15.8105 C   0  0  0  0  0  0  0  0  0  0  0  0
   13.8809  -18.1599   14.6938 O   0  0  0  0  0  0  0  0  0  0  0  0
   10.9683  -16.6585   19.7781 C   0  0  0  0  0  0  0  0  0  0  0  0
   11.7832  -15.7127   19.8940 O   0  0  0  0  0  0  0  0  0  0  0  0
   14.6239  -16.9138   16.4546 O   0  0  0  0  0  0  0  0  0  0  0  0
    9.8676  -16.7409   20.6586 N   0  0  0  0  0  0  0  0  0  0  0  0
    9.5933  -15.7171   21.6991 C   0  0  1  0  0  0  0  0  0  0  0  0
    8.2418  -15.1434   21.4779 C   0  0  0  0  0  0  0  0  0  0  0  0
    8.0783  -14.3597   20.2537 C   0  0  0  0  0  0  0  0  0  0  0  0
    8.5876  -13.1067   19.9896 C   0  0  0  0  0  0  0  0  0  0  0  0
    8.1948  -12.6915   18.7864 N   0  0  0  0  0  0  0  0  0  0  0  0
    7.4298  -13.6665   18.2598 C   0  0  0  0  0  0  0  0  0  0  0  0
    7.3607  -14.6720   19.1465 N   0  0  0  0  0  0  0  0  0  0  0  0
    9.8870  -16.3193   22.9932 C   0  0  0  0  0  0  0  0  0  0  0  0
    9.2215  -17.3556   23.3660 O   0  0  0  0  0  0  0  0  0  0  0  0
    9.5812  -12.7621   29.2211 C   0  0  0  0  0  0  0  0  0  0  0  0
    8.6003  -13.6177   28.0080 S   0  0  0  0  0  0  0  0  0  0  0  0
    9.3711  -15.0546   27.2943 C   0  0  0  0  0  0  0  0  0  0  0  0
    9.6176  -14.9963   25.8185 C   0  0  0  0  0  0  0  0  0  0  0  0
   10.6702  -15.9898   25.3565 C   0  0  2  0  0  0  0  0  0  0  0  0
   10.8564  -15.8923   23.9224 N   0  0  0  0  0  0  0  0  0  0  0  0
   10.4291  -17.3413   25.8064 C   0  0  0  0  0  0  0  0  0  0  0  0
   10.1909  -18.4554   25.0328 O   0  0  0  0  0  0  0  0  0  0  0  0
   10.4315  -17.5561   27.0682 O   0  0  0  0  0  0  0  0  0  0  0  0
  2  1  1  6
  2  3  1  0
  2  7  1  0
  3  4  1  0
  5  4  1  0
  5  6  2  0
  7 10  1  0
  8  7  2  0
  9  5  1  0
 10 11  1  0
 11 12  1  1
 12 13  1  0
 13 17  1  0
 14 13  2  0
 14 15  1  0
 15 16  1  0
 17 16  2  0
 18 11  1  0
 18 19  2  0
 20 21  1  0
 21 22  1  0
 22 23  1  0
 24 23  1  6
 24 25  1  0
 25 18  1  0
 26 27  1  0
 26 24  1  0
 28 26  2  0
M  END
$$$$
