EHM.pdb
     RDKit          3D

 28 28  0  0  1  0  0  0  0  0999 V2000
    8.7355  -19.1742   20.7912 N   0  0  0  0  0  0  0  0  0  0  0  0
   10.0493  -18.6482   20.6321 C   0  0  1  0  0  0  0  0  0  0  0  0
   10.5281  -18.6146   19.2295 C   0  0  0  0  0  0  0  0  0  0  0  0
   11.9812  -18.2715   19.0526 C   0  0  0  0  0  0  0  0  0  0  0  0
   12.3869  -18.3082   17.6457 C   0  0  0  0  0  0  0  0  0  0  0  0
   12.1903  -19.3189   16.9351 O   0  0  0  0  0  0  0  0  0  0  0  0
   10.1729  -17.2598   21.1995 C   0  0  0  0  0  0  0  0  0  0  0  0
   11.3138  -16.7571   21.3327 O   0  0  0  0  0  0  0  0  0  0  0  0
   13.0110  -17.1941   17.0642 O   0  0  0  0  0  0  0  0  0  0  0  0
    9.0354  -16.5162   21.5831 N   0  0  0  0  0  0  0  0  0  0  0  0
    9.1185  -15.1154   22.0695 C   0  0  1  0  0  0  0  0  0  0  0  0
    7.9905  -14.3326   21.5044 C   0  0  0  0  0  0  0  0  0  0  0  0
    7.9372  -14.2609   20.0444 C   0  0  0  0  0  0  0  0  0  0  0  0
    8.8496  -14.7755   19.1488 C   0  0  0  0  0  0  0  0  0  0  0  0
    8.4917  -14.4779   17.9008 N   0  0  0  0  0  0  0  0  0  0  0  0
    7.3484  -13.7701   17.9734 C   0  0  0  0  0  0  0  0  0  0  0  0
    7.0156  -13.6403   19.2674 N   0  0  0  0  0  0  0  0  0  0  0  0
    9.2711  -15.1638   23.5180 C   0  0  0  0  0  0  0  0  0  0  0  0
    8.8512  -14.1736   24.2243 O   0  0  0  0  0  0  0  0  0  0  0  0
   10.8615  -12.9922   30.0426 C   0  0  0  0  0  0  0  0  0  0  0  0
    9.7748  -13.8388   28.9165 S   0  0  0  0  0  0  0  0  0  0  0  0
   10.5882  -14.8884   27.7313 C   0  0  0  0  0  0  0  0  0  0  0  0
    9.8638  -15.0929   26.4370 C   0  0  0  0  0  0  0  0  0  0  0  0
   10.6261  -15.9812   25.4682 C   0  0  2  0  0  0  0  0  0  0  0  0
    9.8395  -16.2095   24.2723 N   0  0  0  0  0  0  0  0  0  0  0  0
   11.1181  -17.2015   26.0648 C   0  0  0  0  0  0  0  0  0  0  0  0
   10.9017  -18.4929   25.6385 O   0  0  0  0  0  0  0  0  0  0  0  0
   11.8432  -17.0984   27.1146 O   0  0  0  0  0  0  0  0  0  0  0  0
  2  1  1  6
  2  3  1  0
  2  7  1  0
  3  4  1  0
  5  4  1  0
  5  6  2  0
  7 10  1  0
  8  7  2  0
  9  5  1  0
 10 11  1  0
 11 12  1  1
 12 13  1  0
 13 17  1  0
 14 13  2  0
 14 15  1  0
 15 16  1  0
 17 16  2  0
 18 11  1  0
 18 19  2  0
 20 21  1  0
 21 22  1  0
 22 23  1  0
 24 23  1  1
 24 25  1  0
 25 18  1  0
 26 27  1  0
 26 24  1  0
 28 26  2  0
M  END
$$$$
