VAP.pdb
     RDKit          3D

 20 20  0  0  1  0  0  0  0  0999 V2000
    9.1518  -13.4201   18.4650 C   0  0  0  0  0  0  0  0  0  0  0  0
    8.6518  -13.5426   19.8621 C   0  0  1  0  0  0  0  0  0  0  0  0
    7.4227  -12.6707   20.0183 C   0  0  0  0  0  0  0  0  0  0  0  0
    8.2728  -14.9355   20.2618 C   0  0  2  0  0  0  0  0  0  0  0  0
    7.4470  -15.5189   19.2262 N   0  0  0  0  0  0  0  0  0  0  0  0
    7.5563  -15.0338   21.5314 C   0  0  0  0  0  0  0  0  0  0  0  0
    6.3178  -14.8091   21.5227 O   0  0  0  0  0  0  0  0  0  0  0  0
    6.9729  -16.8812   24.2380 C   0  0  0  0  0  0  0  0  0  0  0  0
    7.4029  -15.4391   24.0360 C   0  0  2  0  0  0  0  0  0  0  0  0
    8.1403  -15.3619   22.7755 N   0  0  0  0  0  0  0  0  0  0  0  0
    8.2172  -14.9452   25.1634 C   0  0  0  0  0  0  0  0  0  0  0  0
    9.2599  -15.5650   25.4316 O   0  0  0  0  0  0  0  0  0  0  0  0
    7.8548  -13.8259   25.9175 N   0  0  0  0  0  0  0  0  0  0  0  0
    6.8821  -12.8301   25.3780 C   0  0  0  0  0  0  0  0  0  0  0  0
    6.0310  -12.4811   26.5752 C   0  0  0  0  0  0  0  0  0  0  0  0
    6.7343  -13.0987   27.7622 C   0  0  0  0  0  0  0  0  0  0  0  0
    8.1596  -13.2819   27.1914 C   0  0  1  0  0  0  0  0  0  0  0  0
    9.0151  -13.9901   28.1052 C   0  0  0  0  0  0  0  0  0  0  0  0
    9.2030  -15.3388   28.2872 O   0  0  0  0  0  0  0  0  0  0  0  0
    9.7263  -13.2485   28.8862 O   0  0  0  0  0  0  0  0  0  0  0  0
  2  1  1  6
  2  4  1  0
  3  2  1  0
  4  5  1  6
  6 10  1  0
  6  4  1  0
  7  6  2  0
  9  8  1  1
  9 10  1  0
  9 11  1  0
 11 13  1  0
 12 11  2  0
 13 14  1  0
 13 17  1  0
 14 15  1  0
 15 16  1  0
 17 18  1  1
 17 16  1  0
 18 19  1  0
 20 18  2  0
M  END
$$$$
