VAP.pdb
     RDKit          3D

 20 20  0  0  1  0  0  0  0  0999 V2000
    9.4440  -13.1242   18.5798 C   0  0  0  0  0  0  0  0  0  0  0  0
    8.6357  -13.3296   19.8132 C   0  0  1  0  0  0  0  0  0  0  0  0
    7.2360  -12.8026   19.5722 C   0  0  0  0  0  0  0  0  0  0  0  0
    8.5138  -14.7602   20.2400 C   0  0  2  0  0  0  0  0  0  0  0  0
    7.9124  -15.5258   19.1691 N   0  0  0  0  0  0  0  0  0  0  0  0
    7.7285  -14.9715   21.4539 C   0  0  0  0  0  0  0  0  0  0  0  0
    6.5198  -15.2958   21.3190 O   0  0  0  0  0  0  0  0  0  0  0  0
    6.9956  -16.5709   23.9289 C   0  0  0  0  0  0  0  0  0  0  0  0
    7.4235  -15.1148   23.9731 C   0  0  2  0  0  0  0  0  0  0  0  0
    8.2148  -14.8417   22.7741 N   0  0  0  0  0  0  0  0  0  0  0  0
    8.1840  -14.8023   25.1988 C   0  0  0  0  0  0  0  0  0  0  0  0
    9.1005  -15.5781   25.5175 O   0  0  0  0  0  0  0  0  0  0  0  0
    7.9070  -13.6840   25.9896 N   0  0  0  0  0  0  0  0  0  0  0  0
    7.0436  -12.5825   25.4700 C   0  0  0  0  0  0  0  0  0  0  0  0
    6.1983  -12.2022   26.6618 C   0  0  0  0  0  0  0  0  0  0  0  0
    6.8121  -12.9272   27.8377 C   0  0  0  0  0  0  0  0  0  0  0  0
    8.2284  -13.2197   27.2906 C   0  0  1  0  0  0  0  0  0  0  0  0
    8.9922  -14.0384   28.1931 C   0  0  0  0  0  0  0  0  0  0  0  0
    8.9380  -15.3901   28.4335 O   0  0  0  0  0  0  0  0  0  0  0  0
    9.8746  -13.4127   28.8971 O   0  0  0  0  0  0  0  0  0  0  0  0
  2  1  1  6
  2  4  1  0
  3  2  1  0
  4  5  1  6
  6 10  1  0
  6  4  1  0
  7  6  2  0
  9  8  1  1
  9 10  1  0
  9 11  1  0
 11 13  1  0
 12 11  2  0
 13 14  1  0
 13 17  1  0
 14 15  1  0
 15 16  1  0
 17 18  1  1
 17 16  1  0
 18 19  1  0
 20 18  2  0
M  END
$$$$
