VAP.pdb
     RDKit          3D

 20 20  0  0  1  0  0  0  0  0999 V2000
    8.1447  -12.5160   20.6882 C   0  0  0  0  0  0  0  0  0  0  0  0
    7.7854  -13.5966   19.7288 C   0  0  1  0  0  0  0  0  0  0  0  0
    8.6557  -13.4633   18.4960 C   0  0  0  0  0  0  0  0  0  0  0  0
    7.9683  -14.9833   20.2647 C   0  0  2  0  0  0  0  0  0  0  0  0
    7.4704  -15.9365   19.2961 N   0  0  0  0  0  0  0  0  0  0  0  0
    7.3066  -15.2374   21.5424 C   0  0  0  0  0  0  0  0  0  0  0  0
    6.1750  -15.7880   21.5153 O   0  0  0  0  0  0  0  0  0  0  0  0
    6.9490  -16.8006   24.0269 C   0  0  0  0  0  0  0  0  0  0  0  0
    7.2206  -15.3078   24.0817 C   0  0  2  0  0  0  0  0  0  0  0  0
    7.8333  -14.9151   22.8133 N   0  0  0  0  0  0  0  0  0  0  0  0
    8.0806  -14.9471   25.2256 C   0  0  0  0  0  0  0  0  0  0  0  0
    8.9933  -15.7344   25.5266 O   0  0  0  0  0  0  0  0  0  0  0  0
    7.8995  -13.7720   25.9599 N   0  0  0  0  0  0  0  0  0  0  0  0
    7.0213  -12.6815   25.4418 C   0  0  0  0  0  0  0  0  0  0  0  0
    6.2910  -12.1997   26.6723 C   0  0  0  0  0  0  0  0  0  0  0  0
    6.9861  -12.8646   27.8384 C   0  0  0  0  0  0  0  0  0  0  0  0
    8.3427  -13.2338   27.1949 C   0  0  1  0  0  0  0  0  0  0  0  0
    9.1614  -14.0144   28.0830 C   0  0  0  0  0  0  0  0  0  0  0  0
    9.3014  -15.3761   28.2009 O   0  0  0  0  0  0  0  0  0  0  0  0
    9.8864  -13.3365   28.9079 O   0  0  0  0  0  0  0  0  0  0  0  0
  2  1  1  1
  2  4  1  0
  3  2  1  0
  4  5  1  6
  6 10  1  0
  6  4  1  0
  7  6  2  0
  9  8  1  6
  9 10  1  0
  9 11  1  0
 11 13  1  0
 12 11  2  0
 13 14  1  0
 13 17  1  0
 14 15  1  0
 15 16  1  0
 17 18  1  1
 17 16  1  0
 18 19  1  0
 20 18  2  0
M  END
$$$$
