VAP.pdb
     RDKit          3D

 20 20  0  0  1  0  0  0  0  0999 V2000
   10.7459  -14.4352   18.3995 C   0  0  0  0  0  0  0  0  0  0  0  0
   10.1273  -14.2971   19.7468 C   0  0  1  0  0  0  0  0  0  0  0  0
   10.8547  -13.2078   20.5079 C   0  0  0  0  0  0  0  0  0  0  0  0
    8.6728  -13.9400   19.7242 C   0  0  2  0  0  0  0  0  0  0  0  0
    8.5047  -12.6751   19.0413 N   0  0  0  0  0  0  0  0  0  0  0  0
    8.0475  -13.8387   21.0409 C   0  0  0  0  0  0  0  0  0  0  0  0
    8.0567  -12.7147   21.6075 O   0  0  0  0  0  0  0  0  0  0  0  0
    5.8546  -15.9325   23.2419 C   0  0  0  0  0  0  0  0  0  0  0  0
    6.8247  -14.7785   23.0612 C   0  0  2  0  0  0  0  0  0  0  0  0
    7.4296  -14.9026   21.7357 N   0  0  0  0  0  0  0  0  0  0  0  0
    7.8538  -14.7547   24.1189 C   0  0  0  0  0  0  0  0  0  0  0  0
    8.7767  -15.5824   24.0386 O   0  0  0  0  0  0  0  0  0  0  0  0
    7.8177  -13.8475   25.1811 N   0  0  0  0  0  0  0  0  0  0  0  0
    7.1517  -12.5206   25.0233 C   0  0  0  0  0  0  0  0  0  0  0  0
    6.4377  -12.3236   26.3389 C   0  0  0  0  0  0  0  0  0  0  0  0
    6.9532  -13.4191   27.2441 C   0  0  0  0  0  0  0  0  0  0  0  0
    8.2694  -13.7942   26.5245 C   0  0  1  0  0  0  0  0  0  0  0  0
    8.9044  -14.9337   27.1300 C   0  0  0  0  0  0  0  0  0  0  0  0
    8.8494  -16.2659   26.7984 O   0  0  0  0  0  0  0  0  0  0  0  0
    9.6490  -14.6751   28.1520 O   0  0  0  0  0  0  0  0  0  0  0  0
  2  1  1  6
  2  4  1  0
  3  2  1  0
  4  5  1  1
  6 10  1  0
  6  4  1  0
  7  6  2  0
  9  8  1  1
  9 10  1  0
  9 11  1  0
 11 13  1  0
 12 11  2  0
 13 14  1  0
 13 17  1  0
 14 15  1  0
 15 16  1  0
 17 18  1  1
 17 16  1  0
 18 19  1  0
 20 18  2  0
M  END
$$$$
