VAP.pdb
     RDKit          3D

 20 20  0  0  1  0  0  0  0  0999 V2000
    9.2668  -13.3111   18.5127 C   0  0  0  0  0  0  0  0  0  0  0  0
    8.6277  -13.4551   19.8498 C   0  0  1  0  0  0  0  0  0  0  0  0
    7.3890  -12.5840   19.8944 C   0  0  0  0  0  0  0  0  0  0  0  0
    8.2103  -14.8536   20.1867 C   0  0  2  0  0  0  0  0  0  0  0  0
    7.3388  -15.3534   19.1448 N   0  0  0  0  0  0  0  0  0  0  0  0
    7.5231  -14.9948   21.4684 C   0  0  0  0  0  0  0  0  0  0  0  0
    6.2664  -14.9220   21.4690 O   0  0  0  0  0  0  0  0  0  0  0  0
    7.0266  -16.7877   24.1430 C   0  0  0  0  0  0  0  0  0  0  0  0
    7.4432  -15.3361   23.9858 C   0  0  2  0  0  0  0  0  0  0  0  0
    8.1543  -15.2072   22.7145 N   0  0  0  0  0  0  0  0  0  0  0  0
    8.2772  -14.8784   25.1141 C   0  0  0  0  0  0  0  0  0  0  0  0
    9.3029  -15.5310   25.3699 O   0  0  0  0  0  0  0  0  0  0  0  0
    7.9512  -13.7575   25.8823 N   0  0  0  0  0  0  0  0  0  0  0  0
    7.0224  -12.7169   25.3500 C   0  0  0  0  0  0  0  0  0  0  0  0
    6.1745  -12.3535   26.5452 C   0  0  0  0  0  0  0  0  0  0  0  0
    6.8429  -13.0156   27.7284 C   0  0  0  0  0  0  0  0  0  0  0  0
    8.2652  -13.2449   27.1669 C   0  0  1  0  0  0  0  0  0  0  0  0
    9.0846  -13.9991   28.0769 C   0  0  0  0  0  0  0  0  0  0  0  0
    9.9632  -13.5767   29.0450 O   0  0  0  0  0  0  0  0  0  0  0  0
    8.9873  -15.2822   27.9768 O   0  0  0  0  0  0  0  0  0  0  0  0
  2  1  1  6
  2  4  1  0
  3  2  1  0
  4  5  1  6
  6 10  1  0
  6  4  1  0
  7  6  2  0
  9  8  1  1
  9 10  1  0
  9 11  1  0
 11 13  1  0
 12 11  2  0
 13 14  1  0
 13 17  1  0
 14 15  1  0
 15 16  1  0
 17 18  1  1
 17 16  1  0
 18 19  1  0
 20 18  2  0
M  END
$$$$
