VAP.pdb
     RDKit          3D

 20 20  0  0  1  0  0  0  0  0999 V2000
    8.3134  -12.4246   20.7202 C   0  0  0  0  0  0  0  0  0  0  0  0
    7.8976  -13.5045   19.7833 C   0  0  1  0  0  0  0  0  0  0  0  0
    8.6820  -13.3612   18.4951 C   0  0  0  0  0  0  0  0  0  0  0  0
    8.1255  -14.8917   20.3005 C   0  0  2  0  0  0  0  0  0  0  0  0
    7.6781  -15.8476   19.3101 N   0  0  0  0  0  0  0  0  0  0  0  0
    7.4558  -15.1909   21.5642 C   0  0  0  0  0  0  0  0  0  0  0  0
    6.3215  -15.7338   21.5104 O   0  0  0  0  0  0  0  0  0  0  0  0
    7.1257  -16.8351   24.0400 C   0  0  0  0  0  0  0  0  0  0  0  0
    7.3414  -15.3333   24.0993 C   0  0  2  0  0  0  0  0  0  0  0  0
    7.9776  -14.9204   22.8491 N   0  0  0  0  0  0  0  0  0  0  0  0
    8.1527  -14.9402   25.2679 C   0  0  0  0  0  0  0  0  0  0  0  0
    9.0461  -15.7220   25.6339 O   0  0  0  0  0  0  0  0  0  0  0  0
    7.9472  -13.7411   25.9553 N   0  0  0  0  0  0  0  0  0  0  0  0
    7.0657  -12.6803   25.3837 C   0  0  0  0  0  0  0  0  0  0  0  0
    6.3107  -12.1619   26.5839 C   0  0  0  0  0  0  0  0  0  0  0  0
    6.9941  -12.7756   27.7846 C   0  0  0  0  0  0  0  0  0  0  0  0
    8.3647  -13.1529   27.1764 C   0  0  1  0  0  0  0  0  0  0  0  0
    9.1775  -13.8910   28.1054 C   0  0  0  0  0  0  0  0  0  0  0  0
    9.3492  -15.2454   28.2593 O   0  0  0  0  0  0  0  0  0  0  0  0
    9.8606  -13.1754   28.9343 O   0  0  0  0  0  0  0  0  0  0  0  0
  2  1  1  1
  2  4  1  0
  3  2  1  0
  4  5  1  6
  6 10  1  0
  6  4  1  0
  7  6  2  0
  9  8  1  6
  9 10  1  0
  9 11  1  0
 11 13  1  0
 12 11  2  0
 13 14  1  0
 13 17  1  0
 14 15  1  0
 15 16  1  0
 17 18  1  1
 17 16  1  0
 18 19  1  0
 20 18  2  0
M  END
$$$$
