VAP.pdb
     RDKit          3D

 20 20  0  0  1  0  0  0  0  0999 V2000
    8.5396  -12.5051   20.6966 C   0  0  0  0  0  0  0  0  0  0  0  0
    8.0035  -13.5072   19.7346 C   0  0  1  0  0  0  0  0  0  0  0  0
    8.8095  -13.4336   18.4541 C   0  0  0  0  0  0  0  0  0  0  0  0
    8.0577  -14.9220   20.2233 C   0  0  2  0  0  0  0  0  0  0  0  0
    7.4424  -15.7881   19.2405 N   0  0  0  0  0  0  0  0  0  0  0  0
    7.4047  -15.1500   21.5104 C   0  0  0  0  0  0  0  0  0  0  0  0
    6.2133  -15.5561   21.4977 O   0  0  0  0  0  0  0  0  0  0  0  0
    7.1491  -16.8011   24.0650 C   0  0  0  0  0  0  0  0  0  0  0  0
    7.3693  -15.2990   24.0476 C   0  0  2  0  0  0  0  0  0  0  0  0
    8.0017  -14.9516   22.7756 N   0  0  0  0  0  0  0  0  0  0  0  0
    8.1863  -14.8498   25.1916 C   0  0  0  0  0  0  0  0  0  0  0  0
    9.1597  -15.5524   25.5112 O   0  0  0  0  0  0  0  0  0  0  0  0
    7.9005  -13.6834   25.9062 N   0  0  0  0  0  0  0  0  0  0  0  0
    6.9878  -12.6487   25.3359 C   0  0  0  0  0  0  0  0  0  0  0  0
    6.1696  -12.2037   26.5242 C   0  0  0  0  0  0  0  0  0  0  0  0
    6.8424  -12.8208   27.7292 C   0  0  0  0  0  0  0  0  0  0  0  0
    8.2489  -13.1137   27.1575 C   0  0  1  0  0  0  0  0  0  0  0  0
    9.0656  -13.8405   28.0918 C   0  0  0  0  0  0  0  0  0  0  0  0
    9.9311  -13.3892   29.0587 O   0  0  0  0  0  0  0  0  0  0  0  0
    8.9802  -15.1263   28.0193 O   0  0  0  0  0  0  0  0  0  0  0  0
  2  1  1  1
  2  4  1  0
  3  2  1  0
  4  5  1  6
  6 10  1  0
  6  4  1  0
  7  6  2  0
  9  8  1  1
  9 10  1  0
  9 11  1  0
 11 13  1  0
 12 11  2  0
 13 14  1  0
 13 17  1  0
 14 15  1  0
 15 16  1  0
 17 18  1  1
 17 16  1  0
 18 19  1  0
 20 18  2  0
M  END
$$$$
