VAP.pdb
     RDKit          3D

 20 20  0  0  1  0  0  0  0  0999 V2000
    9.7897  -12.9318   21.1206 C   0  0  0  0  0  0  0  0  0  0  0  0
    8.6859  -13.3290   20.2036 C   0  0  1  0  0  0  0  0  0  0  0  0
    9.2398  -13.4531   18.7990 C   0  0  0  0  0  0  0  0  0  0  0  0
    8.0346  -14.6325   20.5505 C   0  0  2  0  0  0  0  0  0  0  0  0
    6.9467  -14.8802   19.6286 N   0  0  0  0  0  0  0  0  0  0  0  0
    7.5107  -14.7111   21.9122 C   0  0  0  0  0  0  0  0  0  0  0  0
    6.2623  -14.6524   22.0625 O   0  0  0  0  0  0  0  0  0  0  0  0
    6.7934  -16.3750   24.1915 C   0  0  0  0  0  0  0  0  0  0  0  0
    7.7564  -15.2182   24.3907 C   0  0  2  0  0  0  0  0  0  0  0  0
    8.2922  -14.8482   23.0813 N   0  0  0  0  0  0  0  0  0  0  0  0
    8.8383  -15.5599   25.3345 C   0  0  0  0  0  0  0  0  0  0  0  0
    9.3826  -16.6690   25.2045 O   0  0  0  0  0  0  0  0  0  0  0  0
    9.2561  -14.6894   26.3447 N   0  0  0  0  0  0  0  0  0  0  0  0
    8.9256  -13.2350   26.2776 C   0  0  0  0  0  0  0  0  0  0  0  0
    8.5785  -12.8840   27.7044 C   0  0  0  0  0  0  0  0  0  0  0  0
    8.9827  -14.0880   28.5243 C   0  0  0  0  0  0  0  0  0  0  0  0
    9.9802  -14.7727   27.5614 C   0  0  1  0  0  0  0  0  0  0  0  0
   10.4228  -16.0449   28.0652 C   0  0  0  0  0  0  0  0  0  0  0  0
    9.7903  -17.2644   28.0868 O   0  0  0  0  0  0  0  0  0  0  0  0
   11.6046  -16.0547   28.5841 O   0  0  0  0  0  0  0  0  0  0  0  0
  2  1  1  1
  2  4  1  0
  3  2  1  0
  4  5  1  6
  6 10  1  0
  6  4  1  0
  7  6  2  0
  9  8  1  6
  9 10  1  0
  9 11  1  0
 11 13  1  0
 12 11  2  0
 13 14  1  0
 13 17  1  0
 14 15  1  0
 15 16  1  0
 17 18  1  1
 17 16  1  0
 18 19  1  0
 20 18  2  0
M  END
$$$$
