VAP.pdb
     RDKit          3D

 20 20  0  0  1  0  0  0  0  0999 V2000
    7.3244  -21.4778   22.9275 C   0  0  0  0  0  0  0  0  0  0  0  0
    7.4674  -20.0245   22.6370 C   0  0  1  0  0  0  0  0  0  0  0  0
    7.0846  -19.7761   21.1924 C   0  0  0  0  0  0  0  0  0  0  0  0
    6.6138  -19.1378   23.4907 C   0  0  2  0  0  0  0  0  0  0  0  0
    5.2335  -19.5595   23.3823 N   0  0  0  0  0  0  0  0  0  0  0  0
    6.6877  -17.7162   23.1611 C   0  0  0  0  0  0  0  0  0  0  0  0
    5.8180  -17.2515   22.3787 O   0  0  0  0  0  0  0  0  0  0  0  0
    8.5205  -14.6497   24.2692 C   0  0  0  0  0  0  0  0  0  0  0  0
    7.8136  -15.4375   23.1808 C   0  0  2  0  0  0  0  0  0  0  0  0
    7.6592  -16.8140   23.6497 N   0  0  0  0  0  0  0  0  0  0  0  0
    8.5472  -15.3874   21.9011 C   0  0  0  0  0  0  0  0  0  0  0  0
    9.4594  -16.2135   21.7313 O   0  0  0  0  0  0  0  0  0  0  0  0
    8.2492  -14.4584   20.9007 N   0  0  0  0  0  0  0  0  0  0  0  0
    6.9277  -13.7641   20.8795 C   0  0  0  0  0  0  0  0  0  0  0  0
    7.2772  -12.3482   20.4890 C   0  0  0  0  0  0  0  0  0  0  0  0
    8.7274  -12.3946   20.0647 C   0  0  0  0  0  0  0  0  0  0  0  0
    8.8939  -13.9026   19.7663 C   0  0  1  0  0  0  0  0  0  0  0  0
   10.2579  -14.2401   19.4598 C   0  0  0  0  0  0  0  0  0  0  0  0
   10.9083  -14.3136   18.2518 O   0  0  0  0  0  0  0  0  0  0  0  0
   11.0010  -14.5219   20.4767 O   0  0  0  0  0  0  0  0  0  0  0  0
  2  1  1  1
  2  4  1  0
  3  2  1  0
  4  5  1  6
  6 10  1  0
  6  4  1  0
  7  6  2  0
  9  8  1  1
  9 10  1  0
  9 11  1  0
 11 13  1  0
 12 11  2  0
 13 14  1  0
 13 17  1  0
 14 15  1  0
 15 16  1  0
 17 18  1  1
 17 16  1  0
 18 19  1  0
 20 18  2  0
M  END
$$$$
