VAP.pdb
     RDKit          3D

 20 20  0  0  1  0  0  0  0  0999 V2000
   10.8319  -16.8777   21.9652 C   0  0  0  0  0  0  0  0  0  0  0  0
   10.1800  -16.4574   20.6942 C   0  0  1  0  0  0  0  0  0  0  0  0
   10.7102  -17.3187   19.5663 C   0  0  0  0  0  0  0  0  0  0  0  0
    8.6873  -16.5818   20.6959 C   0  0  2  0  0  0  0  0  0  0  0  0
    8.1705  -16.1188   19.4257 N   0  0  0  0  0  0  0  0  0  0  0  0
    8.0135  -15.8451   21.7628 C   0  0  0  0  0  0  0  0  0  0  0  0
    8.0107  -14.5883   21.6939 O   0  0  0  0  0  0  0  0  0  0  0  0
    5.7525  -16.5308   24.6643 C   0  0  0  0  0  0  0  0  0  0  0  0
    6.8088  -15.6706   23.9941 C   0  0  2  0  0  0  0  0  0  0  0  0
    7.3609  -16.4285   22.8720 N   0  0  0  0  0  0  0  0  0  0  0  0
    7.8680  -15.2652   24.9387 C   0  0  0  0  0  0  0  0  0  0  0  0
    8.7710  -16.0856   25.1731 O   0  0  0  0  0  0  0  0  0  0  0  0
    7.8811  -14.0135   25.5598 N   0  0  0  0  0  0  0  0  0  0  0  0
    7.2037  -12.8443   24.9249 C   0  0  0  0  0  0  0  0  0  0  0  0
    6.5544  -12.1355   26.0892 C   0  0  0  0  0  0  0  0  0  0  0  0
    7.1174  -12.7962   27.3267 C   0  0  0  0  0  0  0  0  0  0  0  0
    8.3979  -13.4448   26.7519 C   0  0  1  0  0  0  0  0  0  0  0  0
    9.0657  -14.2656   27.7260 C   0  0  0  0  0  0  0  0  0  0  0  0
    9.9865  -13.9342   28.6903 O   0  0  0  0  0  0  0  0  0  0  0  0
    8.7582  -15.5187   27.6990 O   0  0  0  0  0  0  0  0  0  0  0  0
  2  1  1  1
  2  4  1  0
  3  2  1  0
  4  5  1  6
  6 10  1  0
  6  4  1  0
  7  6  2  0
  9  8  1  1
  9 10  1  0
  9 11  1  0
 11 13  1  0
 12 11  2  0
 13 14  1  0
 13 17  1  0
 14 15  1  0
 15 16  1  0
 17 18  1  1
 17 16  1  0
 18 19  1  0
 20 18  2  0
M  END
$$$$
