VAP.pdb
     RDKit          3D

 20 20  0  0  1  0  0  0  0  0999 V2000
   11.1548  -19.1925   21.5344 C   0  0  0  0  0  0  0  0  0  0  0  0
   10.5610  -17.9857   22.1733 C   0  0  1  0  0  0  0  0  0  0  0  0
   11.5321  -17.4536   23.2072 C   0  0  0  0  0  0  0  0  0  0  0  0
   10.2568  -16.8701   21.2212 C   0  0  2  0  0  0  0  0  0  0  0  0
   11.4846  -16.4367   20.5893 N   0  0  0  0  0  0  0  0  0  0  0  0
    9.6159  -15.7058   21.8281 C   0  0  0  0  0  0  0  0  0  0  0  0
   10.3609  -14.8196   22.3221 O   0  0  0  0  0  0  0  0  0  0  0  0
    6.1439  -14.3237   22.2721 C   0  0  0  0  0  0  0  0  0  0  0  0
    7.5970  -14.4306   22.6991 C   0  0  2  0  0  0  0  0  0  0  0  0
    8.2217  -15.4897   21.9076 N   0  0  0  0  0  0  0  0  0  0  0  0
    7.7269  -14.6959   24.1451 C   0  0  0  0  0  0  0  0  0  0  0  0
    7.7436  -15.8831   24.5104 O   0  0  0  0  0  0  0  0  0  0  0  0
    7.8298  -13.6715   25.0900 N   0  0  0  0  0  0  0  0  0  0  0  0
    7.9400  -12.2473   24.6559 C   0  0  0  0  0  0  0  0  0  0  0  0
    7.0704  -11.5072   25.6437 C   0  0  0  0  0  0  0  0  0  0  0  0
    6.7362  -12.5155   26.7193 C   0  0  0  0  0  0  0  0  0  0  0  0
    7.8614  -13.5537   26.5030 C   0  0  1  0  0  0  0  0  0  0  0  0
    7.6895  -14.7112   27.3390 C   0  0  0  0  0  0  0  0  0  0  0  0
    7.1438  -15.9405   27.0586 O   0  0  0  0  0  0  0  0  0  0  0  0
    8.1125  -14.5865   28.5520 O   0  0  0  0  0  0  0  0  0  0  0  0
  2  1  1  6
  2  4  1  0
  3  2  1  0
  4  5  1  1
  6 10  1  0
  6  4  1  0
  7  6  2  0
  9  8  1  6
  9 10  1  0
  9 11  1  0
 11 13  1  0
 12 11  2  0
 13 14  1  0
 13 17  1  0
 14 15  1  0
 15 16  1  0
 17 18  1  1
 17 16  1  0
 18 19  1  0
 20 18  2  0
M  END
$$$$
