VAP.pdb
     RDKit          3D

 20 20  0  0  1  0  0  0  0  0999 V2000
   10.5136  -13.5882   18.7006 C   0  0  0  0  0  0  0  0  0  0  0  0
    9.7962  -13.5732   20.0053 C   0  0  1  0  0  0  0  0  0  0  0  0
    9.6069  -12.1348   20.4411 C   0  0  0  0  0  0  0  0  0  0  0  0
    8.4449  -14.2186   19.9737 C   0  0  2  0  0  0  0  0  0  0  0  0
    7.6224  -13.5508   18.9877 N   0  0  0  0  0  0  0  0  0  0  0  0
    7.7327  -14.2092   21.2495 C   0  0  0  0  0  0  0  0  0  0  0  0
    7.0992  -13.1661   21.5577 O   0  0  0  0  0  0  0  0  0  0  0  0
    6.4629  -16.5769   23.7863 C   0  0  0  0  0  0  0  0  0  0  0  0
    7.0545  -15.2116   23.4846 C   0  0  2  0  0  0  0  0  0  0  0  0
    7.6953  -15.2790   22.1719 N   0  0  0  0  0  0  0  0  0  0  0  0
    8.0100  -14.7844   24.5251 C   0  0  0  0  0  0  0  0  0  0  0  0
    9.1003  -15.3775   24.5797 O   0  0  0  0  0  0  0  0  0  0  0  0
    7.7271  -13.7554   25.4273 N   0  0  0  0  0  0  0  0  0  0  0  0
    6.7855  -12.6581   25.0556 C   0  0  0  0  0  0  0  0  0  0  0  0
    5.9929  -12.4276   26.3198 C   0  0  0  0  0  0  0  0  0  0  0  0
    6.7055  -13.2207   27.3914 C   0  0  0  0  0  0  0  0  0  0  0  0
    8.1004  -13.3913   26.7463 C   0  0  1  0  0  0  0  0  0  0  0  0
    8.9513  -14.2460   27.5296 C   0  0  0  0  0  0  0  0  0  0  0  0
    9.8641  -13.9393   28.5096 O   0  0  0  0  0  0  0  0  0  0  0  0
    8.8501  -15.5082   27.2798 O   0  0  0  0  0  0  0  0  0  0  0  0
  2  1  1  6
  2  4  1  0
  3  2  1  0
  4  5  1  6
  6 10  1  0
  6  4  1  0
  7  6  2  0
  9  8  1  1
  9 10  1  0
  9 11  1  0
 11 13  1  0
 12 11  2  0
 13 14  1  0
 13 17  1  0
 14 15  1  0
 15 16  1  0
 17 18  1  1
 17 16  1  0
 18 19  1  0
 20 18  2  0
M  END
$$$$
