AKK.pdb
     RDKit          3D

 24 23  0  0  1  0  0  0  0  0999 V2000
    4.6033  -19.0978   24.2933 C   0  0  0  0  0  0  0  0  0  0  0  0
    4.4978  -18.9192   22.8122 C   0  0  2  0  0  0  0  0  0  0  0  0
    4.0399  -20.1337   22.1607 N   0  0  0  0  0  0  0  0  0  0  0  0
    5.7470  -18.4061   22.1923 C   0  0  0  0  0  0  0  0  0  0  0  0
    6.6814  -19.2087   21.9379 O   0  0  0  0  0  0  0  0  0  0  0  0
    5.9468  -17.0425   21.8671 N   0  0  0  0  0  0  0  0  0  0  0  0
    7.2253  -16.5711   21.2694 C   0  0  1  0  0  0  0  0  0  0  0  0
    6.9252  -15.2885   20.5931 C   0  0  0  0  0  0  0  0  0  0  0  0
    7.8941  -14.7249   19.6488 C   0  0  0  0  0  0  0  0  0  0  0  0
    7.4336  -13.5265   18.8769 C   0  0  0  0  0  0  0  0  0  0  0  0
    8.5368  -13.2344   17.8545 C   0  0  0  0  0  0  0  0  0  0  0  0
    8.2702  -12.0507   17.0968 N   0  0  0  0  0  0  0  0  0  0  0  0
    8.1677  -16.3973   22.4030 C   0  0  0  0  0  0  0  0  0  0  0  0
    7.7982  -15.7562   23.4536 O   0  0  0  0  0  0  0  0  0  0  0  0
    9.4913  -16.8959   22.4360 N   0  0  0  0  0  0  0  0  0  0  0  0
   10.3649  -16.6763   23.6138 C   0  0  1  0  0  0  0  0  0  0  0  0
   10.5480  -18.0353   24.2462 C   0  0  0  0  0  0  0  0  0  0  0  0
   11.5481  -17.9637   25.3688 C   0  0  0  0  0  0  0  0  0  0  0  0
   11.8352  -19.3844   25.8623 C   0  0  0  0  0  0  0  0  0  0  0  0
   12.8149  -19.3680   27.0020 C   0  0  0  0  0  0  0  0  0  0  0  0
   13.1211  -20.7451   27.3883 N   0  0  0  0  0  0  0  0  0  0  0  0
   11.6199  -16.0713   23.1847 C   0  0  0  0  0  0  0  0  0  0  0  0
   12.4810  -15.4610   24.0592 O   0  0  0  0  0  0  0  0  0  0  0  0
   11.9554  -16.0935   21.9541 O   0  0  0  0  0  0  0  0  0  0  0  0
  2  1  1  1
  2  3  1  0
  4  2  1  0
  4  5  2  0
  6  4  1  0
  7  6  1  0
  8  9  1  0
  7  8  1  1
  9 10  1  0
 11 12  1  0
 11 10  1  0
 13 15  1  0
 13  7  1  0
 14 13  2  0
 16 15  1  0
 16 22  1  0
 16 17  1  6
 18 17  1  0
 19 18  1  0
 20 19  1  0
 21 20  1  0
 22 24  2  0
 22 23  1  0
M  END
$$$$
