AKK.pdb
     RDKit          3D

 24 23  0  0  1  0  0  0  0  0999 V2000
    6.2798  -23.2160   27.8686 C   0  0  0  0  0  0  0  0  0  0  0  0
    6.0920  -23.2157   26.3848 C   0  0  2  0  0  0  0  0  0  0  0  0
    5.4540  -24.4380   25.9285 N   0  0  0  0  0  0  0  0  0  0  0  0
    7.3453  -22.9424   25.6347 C   0  0  0  0  0  0  0  0  0  0  0  0
    8.2033  -23.8547   25.5184 O   0  0  0  0  0  0  0  0  0  0  0  0
    7.6316  -21.6924   25.0342 N   0  0  0  0  0  0  0  0  0  0  0  0
    8.8835  -21.4773   24.2593 C   0  0  1  0  0  0  0  0  0  0  0  0
    8.5773  -20.4429   23.2449 C   0  0  0  0  0  0  0  0  0  0  0  0
    9.5648  -20.1332   22.2071 C   0  0  0  0  0  0  0  0  0  0  0  0
    9.1349  -19.1400   21.1713 C   0  0  0  0  0  0  0  0  0  0  0  0
   10.3449  -18.9383   20.2532 C   0  0  0  0  0  0  0  0  0  0  0  0
   10.0316  -18.1246   19.1191 N   0  0  0  0  0  0  0  0  0  0  0  0
    9.8975  -21.0147   25.2397 C   0  0  0  0  0  0  0  0  0  0  0  0
    9.5954  -20.1061   26.0968 O   0  0  0  0  0  0  0  0  0  0  0  0
   11.2222  -21.5047   25.3230 N   0  0  0  0  0  0  0  0  0  0  0  0
   12.1788  -20.9648   26.3189 C   0  0  1  0  0  0  0  0  0  0  0  0
   13.0313  -22.1365   26.7440 C   0  0  0  0  0  0  0  0  0  0  0  0
   12.3474  -22.9181   27.8334 C   0  0  0  0  0  0  0  0  0  0  0  0
   13.2336  -24.1067   28.2156 C   0  0  0  0  0  0  0  0  0  0  0  0
   12.5878  -24.9320   29.2929 C   0  0  0  0  0  0  0  0  0  0  0  0
   13.4405  -26.0830   29.5888 N   0  0  0  0  0  0  0  0  0  0  0  0
   12.9508  -19.8839   25.7183 C   0  0  0  0  0  0  0  0  0  0  0  0
   13.0285  -19.6985   24.3625 O   0  0  0  0  0  0  0  0  0  0  0  0
   13.5906  -19.0644   26.4577 O   0  0  0  0  0  0  0  0  0  0  0  0
  2  1  1  1
  2  3  1  0
  4  2  1  0
  4  5  2  0
  6  4  1  0
  7  6  1  0
  8  9  1  0
  7  8  1  6
  9 10  1  0
 11 12  1  0
 11 10  1  0
 13 15  1  0
 13  7  1  0
 14 13  2  0
 16 15  1  0
 16 22  1  0
 16 17  1  6
 18 17  1  0
 19 18  1  0
 20 19  1  0
 21 20  1  0
 22 24  2  0
 22 23  1  0
M  END
$$$$
