AKK.pdb
     RDKit          3D

 24 23  0  0  1  0  0  0  0  0999 V2000
    8.6521  -12.7669   18.9347 C   0  0  0  0  0  0  0  0  0  0  0  0
    8.6256  -14.2342   18.6469 C   0  0  2  0  0  0  0  0  0  0  0  0
    7.6693  -14.5547   17.6017 N   0  0  0  0  0  0  0  0  0  0  0  0
    8.4076  -15.0662   19.8586 C   0  0  0  0  0  0  0  0  0  0  0  0
    7.2437  -15.1867   20.3201 O   0  0  0  0  0  0  0  0  0  0  0  0
    9.4537  -15.7413   20.5330 N   0  0  0  0  0  0  0  0  0  0  0  0
    9.1916  -16.5379   21.7622 C   0  0  1  0  0  0  0  0  0  0  0  0
   10.1952  -17.6266   21.7792 C   0  0  0  0  0  0  0  0  0  0  0  0
   10.2467  -18.5447   22.9205 C   0  0  0  0  0  0  0  0  0  0  0  0
    9.2591  -19.6709   22.8987 C   0  0  0  0  0  0  0  0  0  0  0  0
    9.5816  -20.5379   24.1201 C   0  0  0  0  0  0  0  0  0  0  0  0
    8.7785  -21.7207   24.1691 N   0  0  0  0  0  0  0  0  0  0  0  0
    9.3642  -15.6019   22.9012 C   0  0  0  0  0  0  0  0  0  0  0  0
   10.4270  -14.8848   22.9887 O   0  0  0  0  0  0  0  0  0  0  0  0
    8.4249  -15.4163   23.9429 N   0  0  0  0  0  0  0  0  0  0  0  0
    8.6576  -14.4217   25.0178 C   0  0  1  0  0  0  0  0  0  0  0  0
    7.3125  -13.7918   25.2903 C   0  0  0  0  0  0  0  0  0  0  0  0
    7.4069  -12.8237   26.4389 C   0  0  0  0  0  0  0  0  0  0  0  0
    6.0166  -12.2400   26.7049 C   0  0  0  0  0  0  0  0  0  0  0  0
    6.0544  -11.2661   27.8489 C   0  0  0  0  0  0  0  0  0  0  0  0
    4.6934  -10.8138   28.1362 N   0  0  0  0  0  0  0  0  0  0  0  0
    9.2244  -15.0872   26.1844 C   0  0  0  0  0  0  0  0  0  0  0  0
    9.0219  -16.4175   26.4451 O   0  0  0  0  0  0  0  0  0  0  0  0
    9.9391  -14.4316   27.0132 O   0  0  0  0  0  0  0  0  0  0  0  0
  2  1  1  1
  2  3  1  0
  4  2  1  0
  4  5  2  0
  6  4  1  0
  7  6  1  0
  8  9  1  0
  7  8  1  1
  9 10  1  0
 11 12  1  0
 11 10  1  0
 13 15  1  0
 13  7  1  0
 14 13  2  0
 16 15  1  0
 16 22  1  0
 16 17  1  1
 18 17  1  0
 19 18  1  0
 20 19  1  0
 21 20  1  0
 22 24  2  0
 22 23  1  0
M  END
$$$$
