AKK.pdb
     RDKit          3D

 24 23  0  0  1  0  0  0  0  0999 V2000
    8.2614  -12.3306   19.4756 C   0  0  0  0  0  0  0  0  0  0  0  0
    8.4426  -13.7364   18.9985 C   0  0  2  0  0  0  0  0  0  0  0  0
    7.5791  -14.0307   17.8684 N   0  0  0  0  0  0  0  0  0  0  0  0
    8.2908  -14.7466   20.0777 C   0  0  0  0  0  0  0  0  0  0  0  0
    7.1372  -15.1197   20.4125 O   0  0  0  0  0  0  0  0  0  0  0  0
    9.3901  -15.3215   20.7605 N   0  0  0  0  0  0  0  0  0  0  0  0
    9.1914  -16.3686   21.7988 C   0  0  1  0  0  0  0  0  0  0  0  0
   10.2063  -17.4152   21.5396 C   0  0  0  0  0  0  0  0  0  0  0  0
   10.2711  -18.5914   22.4117 C   0  0  0  0  0  0  0  0  0  0  0  0
   11.2394  -19.6578   22.0001 C   0  0  0  0  0  0  0  0  0  0  0  0
   11.1178  -20.7658   23.0514 C   0  0  0  0  0  0  0  0  0  0  0  0
   11.8846  -21.9231   22.7063 N   0  0  0  0  0  0  0  0  0  0  0  0
    9.4043  -15.6959   23.1048 C   0  0  0  0  0  0  0  0  0  0  0  0
   10.4946  -15.0527   23.3264 O   0  0  0  0  0  0  0  0  0  0  0  0
    8.4767  -15.6952   24.1731 N   0  0  0  0  0  0  0  0  0  0  0  0
    8.7757  -15.0002   25.4484 C   0  0  1  0  0  0  0  0  0  0  0  0
    7.4520  -14.4693   25.9448 C   0  0  0  0  0  0  0  0  0  0  0  0
    7.4398  -12.9647   25.9061 C   0  0  0  0  0  0  0  0  0  0  0  0
    6.0773  -12.4716   26.4007 C   0  0  0  0  0  0  0  0  0  0  0  0
    5.9844  -10.9742   26.3108 C   0  0  0  0  0  0  0  0  0  0  0  0
    4.6599  -10.5498   26.7636 N   0  0  0  0  0  0  0  0  0  0  0  0
    9.4025  -15.9327   26.3772 C   0  0  0  0  0  0  0  0  0  0  0  0
    9.3175  -17.2924   26.2267 O   0  0  0  0  0  0  0  0  0  0  0  0
   10.0604  -15.4958   27.3792 O   0  0  0  0  0  0  0  0  0  0  0  0
  2  1  1  1
  2  3  1  0
  4  2  1  0
  4  5  2  0
  6  4  1  0
  7  6  1  0
  8  9  1  0
  7  8  1  6
  9 10  1  0
 11 12  1  0
 11 10  1  0
 13 15  1  0
 13  7  1  0
 14 13  2  0
 16 15  1  0
 16 22  1  0
 16 17  1  1
 18 17  1  0
 19 18  1  0
 20 19  1  0
 21 20  1  0
 22 24  2  0
 22 23  1  0
M  END
$$$$
