AKK.pdb
     RDKit          3D

 24 23  0  0  1  0  0  0  0  0999 V2000
   14.6713  -13.0083   17.4656 C   0  0  0  0  0  0  0  0  0  0  0  0
   15.3091  -14.2088   18.0890 C   0  0  2  0  0  0  0  0  0  0  0  0
   14.8730  -15.4369   17.4478 N   0  0  0  0  0  0  0  0  0  0  0  0
   15.1295  -14.2702   19.5628 C   0  0  0  0  0  0  0  0  0  0  0  0
   15.6097  -13.3545   20.2790 O   0  0  0  0  0  0  0  0  0  0  0  0
   14.4370  -15.3187   20.2156 N   0  0  0  0  0  0  0  0  0  0  0  0
   14.2892  -15.3413   21.6960 C   0  0  1  0  0  0  0  0  0  0  0  0
   13.1114  -16.1899   21.9878 C   0  0  0  0  0  0  0  0  0  0  0  0
   12.7800  -16.5137   23.3783 C   0  0  0  0  0  0  0  0  0  0  0  0
   11.6085  -17.4263   23.5756 C   0  0  0  0  0  0  0  0  0  0  0  0
   11.5697  -17.7441   25.0739 C   0  0  0  0  0  0  0  0  0  0  0  0
   10.4493  -18.5623   25.4229 N   0  0  0  0  0  0  0  0  0  0  0  0
   15.5456  -15.9297   22.2240 C   0  0  0  0  0  0  0  0  0  0  0  0
   16.0287  -16.9959   21.6936 O   0  0  0  0  0  0  0  0  0  0  0  0
   16.2940  -15.4008   23.3019 N   0  0  0  0  0  0  0  0  0  0  0  0
   17.5723  -16.0212   23.7260 C   0  0  1  0  0  0  0  0  0  0  0  0
   18.5420  -14.8776   23.9058 C   0  0  0  0  0  0  0  0  0  0  0  0
   19.8720  -15.2119   23.2855 C   0  0  0  0  0  0  0  0  0  0  0  0
   20.8302  -14.0403   23.5168 C   0  0  0  0  0  0  0  0  0  0  0  0
   22.1444  -14.2789   22.8276 C   0  0  0  0  0  0  0  0  0  0  0  0
   23.0309  -13.1440   23.0836 N   0  0  0  0  0  0  0  0  0  0  0  0
   17.3609  -16.7892   24.9468 C   0  0  0  0  0  0  0  0  0  0  0  0
   18.0378  -17.9508   25.2136 O   0  0  0  0  0  0  0  0  0  0  0  0
   16.5183  -16.3907   25.8180 O   0  0  0  0  0  0  0  0  0  0  0  0
  2  1  1  6
  2  3  1  0
  4  2  1  0
  4  5  2  0
  6  4  1  0
  7  6  1  0
  8  9  1  0
  7  8  1  6
  9 10  1  0
 11 12  1  0
 11 10  1  0
 13 15  1  0
 13  7  1  0
 14 13  2  0
 16 15  1  0
 16 22  1  0
 16 17  1  1
 18 17  1  0
 19 18  1  0
 20 19  1  0
 21 20  1  0
 22 24  2  0
 22 23  1  0
M  END
$$$$
