AKK.pdb
     RDKit          3D

 24 23  0  0  1  0  0  0  0  0999 V2000
    7.5245  -12.2957   19.5557 C   0  0  0  0  0  0  0  0  0  0  0  0
    8.4720  -13.4308   19.7801 C   0  0  2  0  0  0  0  0  0  0  0  0
    8.7379  -14.1539   18.5489 N   0  0  0  0  0  0  0  0  0  0  0  0
    8.0428  -14.3472   20.8683 C   0  0  0  0  0  0  0  0  0  0  0  0
    7.7114  -13.8660   21.9821 O   0  0  0  0  0  0  0  0  0  0  0  0
    7.9855  -15.7541   20.7184 N   0  0  0  0  0  0  0  0  0  0  0  0
    7.5667  -16.6335   21.8433 C   0  0  1  0  0  0  0  0  0  0  0  0
    7.1735  -17.9278   21.2409 C   0  0  0  0  0  0  0  0  0  0  0  0
    5.8188  -18.0950   20.7070 C   0  0  0  0  0  0  0  0  0  0  0  0
    5.5297  -19.4144   20.0592 C   0  0  0  0  0  0  0  0  0  0  0  0
    4.1001  -19.3135   19.5172 C   0  0  0  0  0  0  0  0  0  0  0  0
    3.7034  -20.4971   18.8186 N   0  0  0  0  0  0  0  0  0  0  0  0
    8.7544  -16.7656   22.7238 C   0  0  0  0  0  0  0  0  0  0  0  0
    9.9124  -16.4041   22.2998 O   0  0  0  0  0  0  0  0  0  0  0  0
    8.7276  -17.2720   24.0447 N   0  0  0  0  0  0  0  0  0  0  0  0
    9.8362  -17.0033   24.9921 C   0  0  1  0  0  0  0  0  0  0  0  0
    9.4219  -15.7764   25.7689 C   0  0  0  0  0  0  0  0  0  0  0  0
   10.4106  -15.4892   26.8669 C   0  0  0  0  0  0  0  0  0  0  0  0
    9.8136  -14.4337   27.8017 C   0  0  0  0  0  0  0  0  0  0  0  0
   10.6891  -14.2278   29.0058 C   0  0  0  0  0  0  0  0  0  0  0  0
   10.0780  -13.2218   29.8742 N   0  0  0  0  0  0  0  0  0  0  0  0
   10.0491  -18.1712   25.8382 C   0  0  0  0  0  0  0  0  0  0  0  0
    9.1611  -19.2138   25.8926 O   0  0  0  0  0  0  0  0  0  0  0  0
   11.0919  -18.2531   26.5685 O   0  0  0  0  0  0  0  0  0  0  0  0
  2  1  1  6
  2  3  1  0
  4  2  1  0
  4  5  2  0
  6  4  1  0
  7  6  1  0
  8  9  1  0
  7  8  1  6
  9 10  1  0
 11 12  1  0
 11 10  1  0
 13 15  1  0
 13  7  1  0
 14 13  2  0
 16 15  1  0
 16 22  1  0
 16 17  1  1
 18 17  1  0
 19 18  1  0
 20 19  1  0
 21 20  1  0
 22 24  2  0
 22 23  1  0
M  END
$$$$
