AKK.pdb
     RDKit          3D

 24 23  0  0  1  0  0  0  0  0999 V2000
    8.7877  -18.8672   20.4155 C   0  0  0  0  0  0  0  0  0  0  0  0
    8.6993  -17.4115   20.0838 C   0  0  2  0  0  0  0  0  0  0  0  0
    9.3932  -17.1045   18.8454 N   0  0  0  0  0  0  0  0  0  0  0  0
    9.1466  -16.5287   21.1923 C   0  0  0  0  0  0  0  0  0  0  0  0
   10.3609  -16.2110   21.2732 O   0  0  0  0  0  0  0  0  0  0  0  0
    8.2678  -16.0175   22.1779 N   0  0  0  0  0  0  0  0  0  0  0  0
    8.7600  -15.1263   23.2630 C   0  0  1  0  0  0  0  0  0  0  0  0
    7.5638  -14.4854   23.8555 C   0  0  0  0  0  0  0  0  0  0  0  0
    7.7280  -13.4975   24.9257 C   0  0  0  0  0  0  0  0  0  0  0  0
    6.4632  -12.9110   25.4736 C   0  0  0  0  0  0  0  0  0  0  0  0
    6.8923  -11.9476   26.5850 C   0  0  0  0  0  0  0  0  0  0  0  0
    5.7722  -11.3995   27.2859 N   0  0  0  0  0  0  0  0  0  0  0  0
    9.4584  -16.0079   24.2317 C   0  0  0  0  0  0  0  0  0  0  0  0
    9.2161  -17.2699   24.2429 O   0  0  0  0  0  0  0  0  0  0  0  0
   10.4091  -15.5687   25.1830 N   0  0  0  0  0  0  0  0  0  0  0  0
   11.2071  -16.5365   25.9738 C   0  0  1  0  0  0  0  0  0  0  0  0
   10.3164  -17.7408   26.1654 C   0  0  0  0  0  0  0  0  0  0  0  0
   11.0486  -18.8246   26.9102 C   0  0  0  0  0  0  0  0  0  0  0  0
   10.0871  -19.9920   27.1493 C   0  0  0  0  0  0  0  0  0  0  0  0
   10.7345  -21.0554   27.9912 C   0  0  0  0  0  0  0  0  0  0  0  0
   10.6931  -20.6447   29.3944 N   0  0  0  0  0  0  0  0  0  0  0  0
   12.4423  -16.8457   25.2642 C   0  0  0  0  0  0  0  0  0  0  0  0
   12.5360  -16.8101   23.8972 O   0  0  0  0  0  0  0  0  0  0  0  0
   13.4923  -17.1671   25.9136 O   0  0  0  0  0  0  0  0  0  0  0  0
  2  1  1  1
  2  3  1  0
  4  2  1  0
  4  5  2  0
  6  4  1  0
  7  6  1  0
  8  9  1  0
  7  8  1  1
  9 10  1  0
 11 12  1  0
 11 10  1  0
 13 15  1  0
 13  7  1  0
 14 13  2  0
 16 15  1  0
 16 22  1  0
 16 17  1  6
 18 17  1  0
 19 18  1  0
 20 19  1  0
 21 20  1  0
 22 24  2  0
 22 23  1  0
M  END
$$$$
