AKK.pdb
     RDKit          3D

 24 23  0  0  1  0  0  0  0  0999 V2000
    8.2150  -18.3079   19.9239 C   0  0  0  0  0  0  0  0  0  0  0  0
    8.1155  -16.8157   19.9093 C   0  0  2  0  0  0  0  0  0  0  0  0
    8.7114  -16.2540   18.7098 N   0  0  0  0  0  0  0  0  0  0  0  0
    8.6590  -16.1791   21.1371 C   0  0  0  0  0  0  0  0  0  0  0  0
    9.8880  -16.2752   21.3866 O   0  0  0  0  0  0  0  0  0  0  0  0
    7.8575  -15.4592   22.0559 N   0  0  0  0  0  0  0  0  0  0  0  0
    8.4555  -14.7920   23.2439 C   0  0  1  0  0  0  0  0  0  0  0  0
    7.3874  -13.9566   23.8387 C   0  0  0  0  0  0  0  0  0  0  0  0
    7.6399  -13.2474   25.0962 C   0  0  0  0  0  0  0  0  0  0  0  0
    6.4844  -12.4743   25.6541 C   0  0  0  0  0  0  0  0  0  0  0  0
    7.0002  -11.8117   26.9357 C   0  0  0  0  0  0  0  0  0  0  0  0
    6.0138  -10.9730   27.5439 N   0  0  0  0  0  0  0  0  0  0  0  0
    8.8827  -15.8836   24.1547 C   0  0  0  0  0  0  0  0  0  0  0  0
    8.0603  -16.8212   24.4644 O   0  0  0  0  0  0  0  0  0  0  0  0
   10.1678  -15.9931   24.7361 N   0  0  0  0  0  0  0  0  0  0  0  0
   10.5175  -17.1349   25.6152 C   0  0  1  0  0  0  0  0  0  0  0  0
   11.9314  -17.5165   25.2469 C   0  0  0  0  0  0  0  0  0  0  0  0
   11.9500  -18.2824   23.9513 C   0  0  0  0  0  0  0  0  0  0  0  0
   13.4005  -18.6334   23.6090 C   0  0  0  0  0  0  0  0  0  0  0  0
   13.4787  -19.3738   22.3034 C   0  0  0  0  0  0  0  0  0  0  0  0
   14.8841  -19.5538   21.9399 N   0  0  0  0  0  0  0  0  0  0  0  0
   10.3775  -16.7373   27.0107 C   0  0  0  0  0  0  0  0  0  0  0  0
   10.3865  -17.6427   28.0397 O   0  0  0  0  0  0  0  0  0  0  0  0
   10.2377  -15.5066   27.3165 O   0  0  0  0  0  0  0  0  0  0  0  0
  2  1  1  1
  2  3  1  0
  4  2  1  0
  4  5  2  0
  6  4  1  0
  7  6  1  0
  8  9  1  0
  7  8  1  1
  9 10  1  0
 11 12  1  0
 11 10  1  0
 13 15  1  0
 13  7  1  0
 14 13  2  0
 16 15  1  0
 16 22  1  0
 16 17  1  1
 18 17  1  0
 19 18  1  0
 20 19  1  0
 21 20  1  0
 22 24  2  0
 22 23  1  0
M  END
$$$$
