AKK.pdb
     RDKit          3D

 24 23  0  0  1  0  0  0  0  0999 V2000
    8.0201  -16.6686   17.7898 C   0  0  0  0  0  0  0  0  0  0  0  0
    7.8738  -18.0127   18.4290 C   0  0  2  0  0  0  0  0  0  0  0  0
    7.5221  -19.0304   17.4543 N   0  0  0  0  0  0  0  0  0  0  0  0
    6.9365  -18.0155   19.5820 C   0  0  0  0  0  0  0  0  0  0  0  0
    7.1576  -17.2505   20.5556 O   0  0  0  0  0  0  0  0  0  0  0  0
    5.7905  -18.8446   19.6464 N   0  0  0  0  0  0  0  0  0  0  0  0
    4.9240  -18.8707   20.8558 C   0  0  1  0  0  0  0  0  0  0  0  0
    3.6782  -19.5693   20.4652 C   0  0  0  0  0  0  0  0  0  0  0  0
    2.7366  -20.0023   21.5015 C   0  0  0  0  0  0  0  0  0  0  0  0
    1.3080  -19.6010   21.2956 C   0  0  0  0  0  0  0  0  0  0  0  0
    0.5298  -20.1935   22.4750 C   0  0  0  0  0  0  0  0  0  0  0  0
   -0.8597  -19.8568   22.4280 N   0  0  0  0  0  0  0  0  0  0  0  0
    5.6839  -19.6197   21.8878 C   0  0  0  0  0  0  0  0  0  0  0  0
    6.2481  -20.7346   21.5878 O   0  0  0  0  0  0  0  0  0  0  0  0
    5.8538  -19.2001   23.2283 N   0  0  0  0  0  0  0  0  0  0  0  0
    6.6454  -20.0048   24.1897 C   0  0  1  0  0  0  0  0  0  0  0  0
    7.0043  -19.0624   25.3137 C   0  0  0  0  0  0  0  0  0  0  0  0
    7.8774  -19.7562   26.3246 C   0  0  0  0  0  0  0  0  0  0  0  0
    8.2900  -18.7424   27.3953 C   0  0  0  0  0  0  0  0  0  0  0  0
    9.2393  -19.3619   28.3822 C   0  0  0  0  0  0  0  0  0  0  0  0
    9.5324  -18.3915   29.4366 N   0  0  0  0  0  0  0  0  0  0  0  0
    5.8587  -21.1495   24.6323 C   0  0  0  0  0  0  0  0  0  0  0  0
    6.4295  -22.3459   24.9809 O   0  0  0  0  0  0  0  0  0  0  0  0
    4.5879  -21.0649   24.7061 O   0  0  0  0  0  0  0  0  0  0  0  0
  2  1  1  6
  2  3  1  0
  4  2  1  0
  4  5  2  0
  6  4  1  0
  7  6  1  0
  8  9  1  0
  7  8  1  6
  9 10  1  0
 11 12  1  0
 11 10  1  0
 13 15  1  0
 13  7  1  0
 14 13  2  0
 16 15  1  0
 16 22  1  0
 16 17  1  1
 18 17  1  0
 19 18  1  0
 20 19  1  0
 21 20  1  0
 22 24  2  0
 22 23  1  0
M  END
$$$$
