AKK.pdb
     RDKit          3D

 24 23  0  0  1  0  0  0  0  0999 V2000
    7.6949  -12.0265   19.4296 C   0  0  0  0  0  0  0  0  0  0  0  0
    8.8827  -12.9334   19.3731 C   0  0  2  0  0  0  0  0  0  0  0  0
    9.2926  -13.1893   18.0035 N   0  0  0  0  0  0  0  0  0  0  0  0
    8.6923  -14.1979   20.1301 C   0  0  0  0  0  0  0  0  0  0  0  0
    8.2822  -14.1471   21.3181 O   0  0  0  0  0  0  0  0  0  0  0  0
    8.9509  -15.4766   19.5795 N   0  0  0  0  0  0  0  0  0  0  0  0
    8.7256  -16.7169   20.3700 C   0  0  1  0  0  0  0  0  0  0  0  0
    8.3994  -17.7829   19.3953 C   0  0  0  0  0  0  0  0  0  0  0  0
    8.2286  -19.1617   19.8619 C   0  0  0  0  0  0  0  0  0  0  0  0
    7.8656  -20.1669   18.8121 C   0  0  0  0  0  0  0  0  0  0  0  0
    7.6861  -21.4987   19.5481 C   0  0  0  0  0  0  0  0  0  0  0  0
    7.4689  -22.5880   18.6467 N   0  0  0  0  0  0  0  0  0  0  0  0
    9.9992  -16.9842   21.0841 C   0  0  0  0  0  0  0  0  0  0  0  0
   11.1223  -16.7606   20.5011 O   0  0  0  0  0  0  0  0  0  0  0  0
   10.0948  -17.4815   22.4053 N   0  0  0  0  0  0  0  0  0  0  0  0
   11.4042  -17.8573   22.9908 C   0  0  1  0  0  0  0  0  0  0  0  0
   11.0863  -18.5352   24.3022 C   0  0  0  0  0  0  0  0  0  0  0  0
   11.5638  -17.6974   25.4579 C   0  0  0  0  0  0  0  0  0  0  0  0
   11.1990  -18.4085   26.7639 C   0  0  0  0  0  0  0  0  0  0  0  0
   11.6989  -17.6360   27.9523 C   0  0  0  0  0  0  0  0  0  0  0  0
   11.3763  -18.3752   29.1725 N   0  0  0  0  0  0  0  0  0  0  0  0
   12.1253  -18.7187   22.0618 C   0  0  0  0  0  0  0  0  0  0  0  0
   11.5037  -19.6956   21.3283 O   0  0  0  0  0  0  0  0  0  0  0  0
   13.3841  -18.5827   21.9057 O   0  0  0  0  0  0  0  0  0  0  0  0
  2  1  1  6
  2  3  1  0
  4  2  1  0
  4  5  2  0
  6  4  1  0
  7  6  1  0
  8  9  1  0
  7  8  1  6
  9 10  1  0
 11 12  1  0
 11 10  1  0
 13 15  1  0
 13  7  1  0
 14 13  2  0
 16 15  1  0
 16 22  1  0
 16 17  1  1
 18 17  1  0
 19 18  1  0
 20 19  1  0
 21 20  1  0
 22 24  2  0
 22 23  1  0
M  END
$$$$
