AKK.pdb
     RDKit          3D

 24 23  0  0  1  0  0  0  0  0999 V2000
    5.3741  -19.3599   20.0109 C   0  0  0  0  0  0  0  0  0  0  0  0
    5.8639  -18.8764   21.3387 C   0  0  2  0  0  0  0  0  0  0  0  0
    4.7833  -18.3221   22.1353 N   0  0  0  0  0  0  0  0  0  0  0  0
    7.0047  -17.9299   21.2343 C   0  0  0  0  0  0  0  0  0  0  0  0
    8.0887  -18.3268   20.7349 O   0  0  0  0  0  0  0  0  0  0  0  0
    6.9380  -16.5852   21.6729 N   0  0  0  0  0  0  0  0  0  0  0  0
    8.1141  -15.6799   21.5671 C   0  0  1  0  0  0  0  0  0  0  0  0
    7.5766  -14.3132   21.3779 C   0  0  0  0  0  0  0  0  0  0  0  0
    7.1756  -13.8728   20.0387 C   0  0  0  0  0  0  0  0  0  0  0  0
    8.2930  -13.5351   19.0997 C   0  0  0  0  0  0  0  0  0  0  0  0
    7.6260  -13.0540   17.8069 C   0  0  0  0  0  0  0  0  0  0  0  0
    8.5834  -12.7296   16.7946 N   0  0  0  0  0  0  0  0  0  0  0  0
    8.8527  -15.8169   22.8473 C   0  0  0  0  0  0  0  0  0  0  0  0
    8.3106  -15.4311   23.9467 O   0  0  0  0  0  0  0  0  0  0  0  0
   10.1535  -16.3588   22.9748 N   0  0  0  0  0  0  0  0  0  0  0  0
   10.8353  -16.4163   24.2902 C   0  0  1  0  0  0  0  0  0  0  0  0
   10.6954  -17.8441   24.7613 C   0  0  0  0  0  0  0  0  0  0  0  0
   11.3280  -18.0165   26.1162 C   0  0  0  0  0  0  0  0  0  0  0  0
   11.2726  -19.4979   26.4993 C   0  0  0  0  0  0  0  0  0  0  0  0
   11.9628  -19.7377   27.8127 C   0  0  0  0  0  0  0  0  0  0  0  0
   12.0111  -21.1766   28.0710 N   0  0  0  0  0  0  0  0  0  0  0  0
   12.2234  -15.9972   24.1393 C   0  0  0  0  0  0  0  0  0  0  0  0
   12.9859  -15.5771   25.1980 O   0  0  0  0  0  0  0  0  0  0  0  0
   12.7761  -16.0094   22.9896 O   0  0  0  0  0  0  0  0  0  0  0  0
  2  1  1  6
  2  3  1  0
  4  2  1  0
  4  5  2  0
  6  4  1  0
  7  6  1  0
  8  9  1  0
  7  8  1  1
  9 10  1  0
 11 12  1  0
 11 10  1  0
 13 15  1  0
 13  7  1  0
 14 13  2  0
 16 15  1  0
 16 22  1  0
 16 17  1  6
 18 17  1  0
 19 18  1  0
 20 19  1  0
 21 20  1  0
 22 24  2  0
 22 23  1  0
M  END
$$$$
