NVP.pdb
     RDKit          3D

 23 23  0  0  1  0  0  0  0  0999 V2000
   13.1801  -19.5016   20.1964 N   0  0  0  0  0  0  0  0  0  0  0  0
   12.0621  -19.2200   20.9822 C   0  0  0  0  0  0  0  0  0  0  0  0
   11.0591  -19.9820   20.8853 O   0  0  0  0  0  0  0  0  0  0  0  0
   11.9350  -18.0986   21.9324 C   0  0  0  0  0  0  0  0  0  0  0  0
   10.8613  -17.1161   21.5646 C   0  0  2  0  0  0  0  0  0  0  0  0
   11.1415  -16.4480   20.3002 N   0  0  0  0  0  0  0  0  0  0  0  0
   10.5888  -16.1186   22.6029 C   0  0  0  0  0  0  0  0  0  0  0  0
   11.4473  -15.2541   22.8988 O   0  0  0  0  0  0  0  0  0  0  0  0
    7.2286  -14.1441   25.7388 C   0  0  0  0  0  0  0  0  0  0  0  0
    7.5980  -14.9241   24.4981 C   0  0  1  0  0  0  0  0  0  0  0  0
    7.1988  -14.1017   23.2594 C   0  0  0  0  0  0  0  0  0  0  0  0
    9.1007  -15.2104   24.4456 C   0  0  2  0  0  0  0  0  0  0  0  0
    9.3593  -16.0893   23.3073 N   0  0  0  0  0  0  0  0  0  0  0  0
    9.4186  -15.9679   25.6794 C   0  0  0  0  0  0  0  0  0  0  0  0
    9.4248  -17.2484   25.5798 O   0  0  0  0  0  0  0  0  0  0  0  0
    9.6992  -15.3316   26.8906 N   0  0  0  0  0  0  0  0  0  0  0  0
    9.0747  -14.0670   27.3140 C   0  0  0  0  0  0  0  0  0  0  0  0
   10.0086  -13.5260   28.3646 C   0  0  0  0  0  0  0  0  0  0  0  0
   11.2342  -14.4251   28.3059 C   0  0  0  0  0  0  0  0  0  0  0  0
   10.5726  -15.7541   27.9492 C   0  0  1  0  0  0  0  0  0  0  0  0
    9.7401  -16.2353   29.0896 C   0  0  0  0  0  0  0  0  0  0  0  0
   10.3209  -16.6231   30.1275 O   0  0  0  0  0  0  0  0  0  0  0  0
    8.3542  -16.2674   29.0389 O   0  0  0  0  0  0  0  0  0  0  0  0
  1  2  1  0
  2  3  2  0
  4  2  1  0
  4  5  1  0
  5  6  1  6
  7  5  1  0
  7  8  2  0
 10  9  1  1
 10 11  1  0
 10 12  1  0
 12 13  1  6
 13  7  1  0
 14 12  1  0
 15 14  2  0
 16 14  1  0
 16 17  1  0
 18 17  1  0
 19 18  1  0
 19 20  1  0
 20 16  1  0
 20 21  1  1
 21 23  1  0
 22 21  2  0
M  END
$$$$
