NVP.pdb
     RDKit          3D

 23 23  0  0  1  0  0  0  0  0999 V2000
   14.3131  -17.9773   18.6845 N   0  0  0  0  0  0  0  0  0  0  0  0
   13.2273  -17.9631   19.5606 C   0  0  0  0  0  0  0  0  0  0  0  0
   12.6602  -19.0609   19.8237 O   0  0  0  0  0  0  0  0  0  0  0  0
   12.6668  -16.7690   20.2215 C   0  0  0  0  0  0  0  0  0  0  0  0
   11.1790  -16.8287   20.4123 C   0  0  2  0  0  0  0  0  0  0  0  0
   10.4710  -16.9748   19.1470 N   0  0  0  0  0  0  0  0  0  0  0  0
   10.6306  -15.6935   21.1593 C   0  0  0  0  0  0  0  0  0  0  0  0
   11.3238  -14.6689   21.3635 O   0  0  0  0  0  0  0  0  0  0  0  0
    7.2424  -13.7262   20.7493 C   0  0  0  0  0  0  0  0  0  0  0  0
    7.3149  -14.3971   22.1017 C   0  0  1  0  0  0  0  0  0  0  0  0
    6.5725  -15.7437   22.0263 C   0  0  0  0  0  0  0  0  0  0  0  0
    8.7648  -14.6480   22.5232 C   0  0  2  0  0  0  0  0  0  0  0  0
    9.3109  -15.7057   21.6757 N   0  0  0  0  0  0  0  0  0  0  0  0
    8.7058  -15.1689   23.9098 C   0  0  0  0  0  0  0  0  0  0  0  0
    9.1326  -16.3667   24.0903 O   0  0  0  0  0  0  0  0  0  0  0  0
    8.2151  -14.4043   24.9706 N   0  0  0  0  0  0  0  0  0  0  0  0
    7.3749  -13.2075   24.7961 C   0  0  0  0  0  0  0  0  0  0  0  0
    7.5201  -12.4602   26.0957 C   0  0  0  0  0  0  0  0  0  0  0  0
    8.6269  -13.1841   26.8473 C   0  0  0  0  0  0  0  0  0  0  0  0
    8.3724  -14.6158   26.3821 C   0  0  1  0  0  0  0  0  0  0  0  0
    7.0797  -15.1132   26.9358 C   0  0  0  0  0  0  0  0  0  0  0  0
    7.0364  -15.4398   28.1427 O   0  0  0  0  0  0  0  0  0  0  0  0
    5.9325  -15.2252   26.1640 O   0  0  0  0  0  0  0  0  0  0  0  0
  1  2  1  0
  2  3  2  0
  4  2  1  0
  4  5  1  0
  5  6  1  6
  7  5  1  0
  7  8  2  0
 10  9  1  6
 10 11  1  0
 10 12  1  0
 12 13  1  6
 13  7  1  0
 14 12  1  0
 15 14  2  0
 16 14  1  0
 16 17  1  0
 18 17  1  0
 19 18  1  0
 19 20  1  0
 20 16  1  0
 20 21  1  1
 21 23  1  0
 22 21  2  0
M  END
$$$$
