NVP.pdb
     RDKit          3D

 23 23  0  0  1  0  0  0  0  0999 V2000
   12.7239  -19.2476   19.7953 N   0  0  0  0  0  0  0  0  0  0  0  0
   13.3329  -18.9453   21.0137 C   0  0  0  0  0  0  0  0  0  0  0  0
   14.3052  -19.6603   21.3868 O   0  0  0  0  0  0  0  0  0  0  0  0
   12.9446  -17.8520   21.9251 C   0  0  0  0  0  0  0  0  0  0  0  0
   11.6976  -17.1305   21.5034 C   0  0  2  0  0  0  0  0  0  0  0  0
   11.8532  -16.4810   20.2082 N   0  0  0  0  0  0  0  0  0  0  0  0
   11.2108  -16.1614   22.4889 C   0  0  0  0  0  0  0  0  0  0  0  0
   11.9276  -15.1954   22.8424 O   0  0  0  0  0  0  0  0  0  0  0  0
    7.3353  -14.5297   25.1980 C   0  0  0  0  0  0  0  0  0  0  0  0
    7.9146  -15.3637   24.0785 C   0  0  1  0  0  0  0  0  0  0  0  0
    7.4768  -14.7578   22.7327 C   0  0  0  0  0  0  0  0  0  0  0  0
    9.4437  -15.3948   24.1395 C   0  0  2  0  0  0  0  0  0  0  0  0
    9.9259  -16.2737   23.0764 N   0  0  0  0  0  0  0  0  0  0  0  0
    9.7910  -16.0249   25.4355 C   0  0  0  0  0  0  0  0  0  0  0  0
   10.0938  -17.2726   25.4029 O   0  0  0  0  0  0  0  0  0  0  0  0
    9.7931  -15.3074   26.6338 N   0  0  0  0  0  0  0  0  0  0  0  0
    8.9704  -14.1093   26.8710 C   0  0  0  0  0  0  0  0  0  0  0  0
    9.6499  -13.4152   28.0222 C   0  0  0  0  0  0  0  0  0  0  0  0
   10.9600  -14.1631   28.2180 C   0  0  0  0  0  0  0  0  0  0  0  0
   10.5186  -15.5759   27.8435 C   0  0  1  0  0  0  0  0  0  0  0  0
    9.5657  -16.1030   28.8629 C   0  0  0  0  0  0  0  0  0  0  0  0
    8.3484  -16.1387   28.5764 O   0  0  0  0  0  0  0  0  0  0  0  0
    9.9800  -16.5516   30.1084 O   0  0  0  0  0  0  0  0  0  0  0  0
  1  2  1  0
  2  3  2  0
  4  2  1  0
  4  5  1  0
  5  6  1  6
  7  5  1  0
  7  8  2  0
 10  9  1  1
 10 11  1  0
 10 12  1  0
 12 13  1  6
 13  7  1  0
 14 12  1  0
 15 14  2  0
 16 14  1  0
 16 17  1  0
 18 17  1  0
 19 18  1  0
 19 20  1  0
 20 16  1  0
 20 21  1  1
 21 23  1  0
 22 21  2  0
M  END
$$$$
