NVP.pdb
     RDKit          3D

 23 23  0  0  1  0  0  0  0  0999 V2000
    9.4543  -21.3062   17.1263 N   0  0  0  0  0  0  0  0  0  0  0  0
    9.2205  -19.9357   17.0096 C   0  0  0  0  0  0  0  0  0  0  0  0
    8.9551  -19.4724   15.8647 O   0  0  0  0  0  0  0  0  0  0  0  0
    9.2537  -18.9572   18.1134 C   0  0  0  0  0  0  0  0  0  0  0  0
    9.9126  -17.6589   17.7478 C   0  0  2  0  0  0  0  0  0  0  0  0
   11.2798  -17.8519   17.2819 N   0  0  0  0  0  0  0  0  0  0  0  0
    9.8902  -16.6597   18.8195 C   0  0  0  0  0  0  0  0  0  0  0  0
   10.9405  -16.3600   19.4350 O   0  0  0  0  0  0  0  0  0  0  0  0
    7.0100  -13.6160   21.5916 C   0  0  0  0  0  0  0  0  0  0  0  0
    7.2958  -14.3564   20.3054 C   0  0  1  0  0  0  0  0  0  0  0  0
    7.4754  -13.3294   19.1727 C   0  0  0  0  0  0  0  0  0  0  0  0
    8.5659  -15.2030   20.4192 C   0  0  2  0  0  0  0  0  0  0  0  0
    8.6958  -15.9986   19.2004 N   0  0  0  0  0  0  0  0  0  0  0  0
    8.3364  -16.1398   21.5448 C   0  0  0  0  0  0  0  0  0  0  0  0
    7.8800  -17.3009   21.2398 O   0  0  0  0  0  0  0  0  0  0  0  0
    8.6008  -15.7878   22.8703 N   0  0  0  0  0  0  0  0  0  0  0  0
    8.6896  -14.3966   23.3449 C   0  0  0  0  0  0  0  0  0  0  0  0
    9.4630  -14.4934   24.6338 C   0  0  0  0  0  0  0  0  0  0  0  0
    9.9606  -15.9299   24.6901 C   0  0  0  0  0  0  0  0  0  0  0  0
    8.7952  -16.6423   24.0078 C   0  0  1  0  0  0  0  0  0  0  0  0
    7.5781  -16.5745   24.8675 C   0  0  0  0  0  0  0  0  0  0  0  0
    7.5359  -17.2864   25.8954 O   0  0  0  0  0  0  0  0  0  0  0  0
    6.4993  -15.7554   24.5684 O   0  0  0  0  0  0  0  0  0  0  0  0
  1  2  1  0
  2  3  2  0
  4  2  1  0
  4  5  1  0
  5  6  1  1
  7  5  1  0
  7  8  2  0
 10  9  1  1
 10 11  1  0
 10 12  1  0
 12 13  1  6
 13  7  1  0
 14 12  1  0
 15 14  2  0
 16 14  1  0
 16 17  1  0
 18 17  1  0
 19 18  1  0
 19 20  1  0
 20 16  1  0
 20 21  1  1
 21 23  1  0
 22 21  2  0
M  END
$$$$
