NVP.pdb
     RDKit          3D

 23 23  0  0  1  0  0  0  0  0999 V2000
   12.2102  -21.1986   18.2413 N   0  0  0  0  0  0  0  0  0  0  0  0
   11.2921  -20.1498   18.1805 C   0  0  0  0  0  0  0  0  0  0  0  0
   10.4863  -20.1195   17.2080 O   0  0  0  0  0  0  0  0  0  0  0  0
   11.1686  -19.0528   19.1594 C   0  0  0  0  0  0  0  0  0  0  0  0
   10.9762  -17.7033   18.5305 C   0  0  2  0  0  0  0  0  0  0  0  0
   12.1437  -17.2853   17.7652 N   0  0  0  0  0  0  0  0  0  0  0  0
   10.6049  -16.6527   19.4823 C   0  0  0  0  0  0  0  0  0  0  0  0
   11.4535  -16.1809   20.2755 O   0  0  0  0  0  0  0  0  0  0  0  0
    6.7744  -13.9888   21.3496 C   0  0  0  0  0  0  0  0  0  0  0  0
    7.4787  -14.6525   20.1887 C   0  0  1  0  0  0  0  0  0  0  0  0
    7.7422  -13.5961   19.1004 C   0  0  0  0  0  0  0  0  0  0  0  0
    8.8117  -15.2673   20.6224 C   0  0  2  0  0  0  0  0  0  0  0  0
    9.2881  -16.1325   19.5455 N   0  0  0  0  0  0  0  0  0  0  0  0
    8.5070  -16.1289   21.7895 C   0  0  0  0  0  0  0  0  0  0  0  0
    8.2359  -17.3589   21.5381 O   0  0  0  0  0  0  0  0  0  0  0  0
    8.5134  -15.6385   23.0972 N   0  0  0  0  0  0  0  0  0  0  0  0
    8.2749  -14.2269   23.4424 C   0  0  0  0  0  0  0  0  0  0  0  0
    8.8647  -14.0776   24.8202 C   0  0  0  0  0  0  0  0  0  0  0  0
    9.6076  -15.3801   25.0762 C   0  0  0  0  0  0  0  0  0  0  0  0
    8.7020  -16.3549   24.3272 C   0  0  1  0  0  0  0  0  0  0  0  0
    7.3854  -16.4672   25.0193 C   0  0  0  0  0  0  0  0  0  0  0  0
    7.3325  -17.0997   26.0973 O   0  0  0  0  0  0  0  0  0  0  0  0
    6.2262  -15.8987   24.5121 O   0  0  0  0  0  0  0  0  0  0  0  0
  1  2  1  0
  2  3  2  0
  4  2  1  0
  4  5  1  0
  5  6  1  1
  7  5  1  0
  7  8  2  0
 10  9  1  1
 10 11  1  0
 10 12  1  0
 12 13  1  6
 13  7  1  0
 14 12  1  0
 15 14  2  0
 16 14  1  0
 16 17  1  0
 18 17  1  0
 19 18  1  0
 19 20  1  0
 20 16  1  0
 20 21  1  1
 21 23  1  0
 22 21  2  0
M  END
$$$$
