NVP.pdb
     RDKit          3D

 23 23  0  0  1  0  0  0  0  0999 V2000
   11.6071  -20.2413   20.7067 N   0  0  0  0  0  0  0  0  0  0  0  0
   11.2209  -19.9339   22.0117 C   0  0  0  0  0  0  0  0  0  0  0  0
   10.9531  -20.8890   22.7939 O   0  0  0  0  0  0  0  0  0  0  0  0
   11.0926  -18.5771   22.5770 C   0  0  0  0  0  0  0  0  0  0  0  0
   10.7753  -17.5257   21.5536 C   0  0  2  0  0  0  0  0  0  0  0  0
   11.8305  -17.3968   20.5569 N   0  0  0  0  0  0  0  0  0  0  0  0
   10.4717  -16.2119   22.1273 C   0  0  0  0  0  0  0  0  0  0  0  0
   11.3743  -15.5239   22.6601 O   0  0  0  0  0  0  0  0  0  0  0  0
    8.1598  -13.2224   20.6676 C   0  0  0  0  0  0  0  0  0  0  0  0
    7.6588  -13.7722   21.9832 C   0  0  1  0  0  0  0  0  0  0  0  0
    6.5679  -14.8204   21.6982 C   0  0  0  0  0  0  0  0  0  0  0  0
    8.7886  -14.4298   22.7797 C   0  0  2  0  0  0  0  0  0  0  0  0
    9.1621  -15.6705   22.1043 N   0  0  0  0  0  0  0  0  0  0  0  0
    8.2082  -14.7914   24.0949 C   0  0  0  0  0  0  0  0  0  0  0  0
    8.0365  -16.0440   24.3203 O   0  0  0  0  0  0  0  0  0  0  0  0
    7.8645  -13.8278   25.0458 N   0  0  0  0  0  0  0  0  0  0  0  0
    7.7670  -12.3879   24.7527 C   0  0  0  0  0  0  0  0  0  0  0  0
    7.8843  -11.7266   26.1008 C   0  0  0  0  0  0  0  0  0  0  0  0
    8.2698  -12.8443   27.0581 C   0  0  0  0  0  0  0  0  0  0  0  0
    7.5121  -14.0094   26.4259 C   0  0  1  0  0  0  0  0  0  0  0  0
    6.0417  -13.8053   26.5724 C   0  0  0  0  0  0  0  0  0  0  0  0
    5.5246  -13.9932   27.6960 O   0  0  0  0  0  0  0  0  0  0  0  0
    5.2342  -13.4171   25.5135 O   0  0  0  0  0  0  0  0  0  0  0  0
  1  2  1  0
  2  3  2  0
  4  2  1  0
  4  5  1  0
  5  6  1  6
  7  5  1  0
  7  8  2  0
 10  9  1  6
 10 11  1  0
 10 12  1  0
 12 13  1  6
 13  7  1  0
 14 12  1  0
 15 14  2  0
 16 14  1  0
 16 17  1  0
 18 17  1  0
 19 18  1  0
 19 20  1  0
 20 16  1  0
 20 21  1  6
 21 23  1  0
 22 21  2  0
M  END
$$$$
