NVP.pdb
     RDKit          3D

 23 23  0  0  1  0  0  0  0  0999 V2000
    9.1739  -17.6743   19.3403 N   0  0  0  0  0  0  0  0  0  0  0  0
    9.4068  -16.3023   19.2410 C   0  0  0  0  0  0  0  0  0  0  0  0
    9.7217  -15.8320   18.1116 O   0  0  0  0  0  0  0  0  0  0  0  0
    9.3194  -15.3296   20.3470 C   0  0  0  0  0  0  0  0  0  0  0  0
    9.0263  -15.9568   21.6790 C   0  0  2  0  0  0  0  0  0  0  0  0
    7.7173  -16.5967   21.7058 N   0  0  0  0  0  0  0  0  0  0  0  0
    9.1501  -15.0331   22.8098 C   0  0  0  0  0  0  0  0  0  0  0  0
   10.1707  -14.3166   22.9402 O   0  0  0  0  0  0  0  0  0  0  0  0
    7.1358  -13.4917   27.1436 C   0  0  0  0  0  0  0  0  0  0  0  0
    6.9917  -14.0304   25.7389 C   0  0  1  0  0  0  0  0  0  0  0  0
    6.2712  -12.9778   24.8768 C   0  0  0  0  0  0  0  0  0  0  0  0
    8.3558  -14.3381   25.1165 C   0  0  2  0  0  0  0  0  0  0  0  0
    8.1347  -14.9122   23.7911 N   0  0  0  0  0  0  0  0  0  0  0  0
    8.9674  -15.3887   25.9648 C   0  0  0  0  0  0  0  0  0  0  0  0
    8.9019  -16.5925   25.5221 O   0  0  0  0  0  0  0  0  0  0  0  0
    9.5857  -15.0944   27.1821 N   0  0  0  0  0  0  0  0  0  0  0  0
    9.1758  -13.9860   28.0607 C   0  0  0  0  0  0  0  0  0  0  0  0
   10.3781  -13.7415   28.9343 C   0  0  0  0  0  0  0  0  0  0  0  0
   11.4850  -14.5937   28.3322 C   0  0  0  0  0  0  0  0  0  0  0  0
   10.6653  -15.7814   27.8335 C   0  0  1  0  0  0  0  0  0  0  0  0
   10.1141  -16.5460   28.9896 C   0  0  0  0  0  0  0  0  0  0  0  0
   10.9063  -17.2072   29.6971 O   0  0  0  0  0  0  0  0  0  0  0  0
    8.7633  -16.5491   29.3048 O   0  0  0  0  0  0  0  0  0  0  0  0
  1  2  1  0
  2  3  2  0
  4  2  1  0
  4  5  1  0
  5  6  1  6
  7  5  1  0
  7  8  2  0
 10  9  1  1
 10 11  1  0
 10 12  1  0
 12 13  1  6
 13  7  1  0
 14 12  1  0
 15 14  2  0
 16 14  1  0
 16 17  1  0
 18 17  1  0
 19 18  1  0
 19 20  1  0
 20 16  1  0
 20 21  1  1
 21 23  1  0
 22 21  2  0
M  END
$$$$
