NVP.pdb
     RDKit          3D

 23 23  0  0  1  0  0  0  0  0999 V2000
   14.6393  -14.4280   18.6815 N   0  0  0  0  0  0  0  0  0  0  0  0
   13.9819  -15.1028   19.7107 C   0  0  0  0  0  0  0  0  0  0  0  0
   14.2233  -16.3332   19.8651 O   0  0  0  0  0  0  0  0  0  0  0  0
   13.0148  -14.5084   20.6532 C   0  0  0  0  0  0  0  0  0  0  0  0
   11.5839  -14.8232   20.3263 C   0  0  2  0  0  0  0  0  0  0  0  0
   11.1930  -14.3004   19.0234 N   0  0  0  0  0  0  0  0  0  0  0  0
   10.6305  -14.3776   21.3460 C   0  0  0  0  0  0  0  0  0  0  0  0
   10.4009  -13.1567   21.5152 O   0  0  0  0  0  0  0  0  0  0  0  0
    6.7200  -15.4426   24.1331 C   0  0  0  0  0  0  0  0  0  0  0  0
    7.6747  -15.6342   22.9772 C   0  0  1  0  0  0  0  0  0  0  0  0
    7.0154  -15.0925   21.6959 C   0  0  0  0  0  0  0  0  0  0  0  0
    8.9930  -14.8930   23.2134 C   0  0  2  0  0  0  0  0  0  0  0  0
    9.9367  -15.2958   22.1731 N   0  0  0  0  0  0  0  0  0  0  0  0
    9.5157  -15.3865   24.5098 C   0  0  0  0  0  0  0  0  0  0  0  0
   10.3361  -16.3734   24.4583 O   0  0  0  0  0  0  0  0  0  0  0  0
    9.1429  -14.8139   25.7279 N   0  0  0  0  0  0  0  0  0  0  0  0
    7.9204  -14.0146   25.9156 C   0  0  0  0  0  0  0  0  0  0  0  0
    8.1877  -13.2164   27.1647 C   0  0  0  0  0  0  0  0  0  0  0  0
    9.6562  -13.4563   27.4812 C   0  0  0  0  0  0  0  0  0  0  0  0
    9.7997  -14.8988   27.0019 C   0  0  1  0  0  0  0  0  0  0  0  0
    9.0149  -15.8125   27.8820 C   0  0  0  0  0  0  0  0  0  0  0  0
    9.4484  -16.0480   29.0317 O   0  0  0  0  0  0  0  0  0  0  0  0
    7.8298  -16.4056   27.4722 O   0  0  0  0  0  0  0  0  0  0  0  0
  1  2  1  0
  2  3  2  0
  4  2  1  0
  4  5  1  0
  5  6  1  6
  7  5  1  0
  7  8  2  0
 10  9  1  1
 10 11  1  0
 10 12  1  0
 12 13  1  6
 13  7  1  0
 14 12  1  0
 15 14  2  0
 16 14  1  0
 16 17  1  0
 18 17  1  0
 19 18  1  0
 19 20  1  0
 20 16  1  0
 20 21  1  1
 21 23  1  0
 22 21  2  0
M  END
$$$$
