NVP.pdb
     RDKit          3D

 23 23  0  0  1  0  0  0  0  0999 V2000
   10.8251  -20.6545   21.3804 N   0  0  0  0  0  0  0  0  0  0  0  0
   11.8220  -19.8857   21.9820 C   0  0  0  0  0  0  0  0  0  0  0  0
   12.9923  -20.3591   22.0283 O   0  0  0  0  0  0  0  0  0  0  0  0
   11.6388  -18.5495   22.5800 C   0  0  0  0  0  0  0  0  0  0  0  0
   11.4057  -17.4641   21.5695 C   0  0  2  0  0  0  0  0  0  0  0  0
   12.6069  -17.1665   20.8000 N   0  0  0  0  0  0  0  0  0  0  0  0
   10.8636  -16.2283   22.1405 C   0  0  0  0  0  0  0  0  0  0  0  0
   11.6169  -15.4046   22.7115 O   0  0  0  0  0  0  0  0  0  0  0  0
    6.6249  -15.6357   22.0340 C   0  0  0  0  0  0  0  0  0  0  0  0
    7.5552  -14.4457   22.0874 C   0  0  1  0  0  0  0  0  0  0  0  0
    6.8620  -13.3101   22.8620 C   0  0  0  0  0  0  0  0  0  0  0  0
    8.8711  -14.7970   22.7858 C   0  0  2  0  0  0  0  0  0  0  0  0
    9.4829  -15.9160   22.0724 N   0  0  0  0  0  0  0  0  0  0  0  0
    8.5034  -15.2748   24.1400 C   0  0  0  0  0  0  0  0  0  0  0  0
    8.6606  -16.5291   24.3671 O   0  0  0  0  0  0  0  0  0  0  0  0
    8.0125  -14.4137   25.1239 N   0  0  0  0  0  0  0  0  0  0  0  0
    7.4279  -13.0929   24.8372 C   0  0  0  0  0  0  0  0  0  0  0  0
    7.5207  -12.3544   26.1466 C   0  0  0  0  0  0  0  0  0  0  0  0
    8.3684  -13.2437   27.0436 C   0  0  0  0  0  0  0  0  0  0  0  0
    7.9333  -14.6189   26.5429 C   0  0  1  0  0  0  0  0  0  0  0  0
    6.5094  -14.8714   26.9085 C   0  0  0  0  0  0  0  0  0  0  0  0
    6.2501  -15.2244   28.0804 O   0  0  0  0  0  0  0  0  0  0  0  0
    5.4705  -14.7291   26.0004 O   0  0  0  0  0  0  0  0  0  0  0  0
  1  2  1  0
  2  3  2  0
  4  2  1  0
  4  5  1  0
  5  6  1  1
  7  5  1  0
  7  8  2  0
 10  9  1  1
 10 11  1  0
 10 12  1  0
 12 13  1  6
 13  7  1  0
 14 12  1  0
 15 14  2  0
 16 14  1  0
 16 17  1  0
 18 17  1  0
 19 18  1  0
 19 20  1  0
 20 16  1  0
 20 21  1  6
 21 23  1  0
 22 21  2  0
M  END
$$$$
