NVP.pdb
     RDKit          3D

 23 23  0  0  1  0  0  0  0  0999 V2000
   11.0768  -16.1247   13.2245 N   0  0  0  0  0  0  0  0  0  0  0  0
   11.6729  -16.5465   14.4133 C   0  0  0  0  0  0  0  0  0  0  0  0
   12.3753  -17.5963   14.3874 O   0  0  0  0  0  0  0  0  0  0  0  0
   11.5608  -15.8735   15.7215 C   0  0  0  0  0  0  0  0  0  0  0  0
   10.7714  -16.6519   16.7336 C   0  0  2  0  0  0  0  0  0  0  0  0
    9.4976  -17.1127   16.1966 N   0  0  0  0  0  0  0  0  0  0  0  0
   10.5488  -15.9344   17.9918 C   0  0  0  0  0  0  0  0  0  0  0  0
   11.5099  -15.6589   18.7483 O   0  0  0  0  0  0  0  0  0  0  0  0
    7.2365  -13.5324   20.8844 C   0  0  0  0  0  0  0  0  0  0  0  0
    7.7085  -14.0511   19.5456 C   0  0  1  0  0  0  0  0  0  0  0  0
    8.0069  -12.8518   18.6276 C   0  0  0  0  0  0  0  0  0  0  0  0
    8.9754  -14.8979   19.6902 C   0  0  2  0  0  0  0  0  0  0  0  0
    9.2546  -15.5269   18.4012 N   0  0  0  0  0  0  0  0  0  0  0  0
    8.6427  -15.9748   20.6530 C   0  0  0  0  0  0  0  0  0  0  0  0
    8.1543  -17.0546   20.1582 O   0  0  0  0  0  0  0  0  0  0  0  0
    8.8474  -15.8324   22.0272 N   0  0  0  0  0  0  0  0  0  0  0  0
    9.0441  -14.5346   22.6946 C   0  0  0  0  0  0  0  0  0  0  0  0
    9.7104  -14.8858   23.9989 C   0  0  0  0  0  0  0  0  0  0  0  0
   10.0535  -16.3633   23.8831 C   0  0  0  0  0  0  0  0  0  0  0  0
    8.8726  -16.8459   23.0441 C   0  0  1  0  0  0  0  0  0  0  0  0
    7.6110  -16.7577   23.8352 C   0  0  0  0  0  0  0  0  0  0  0  0
    6.8370  -15.7998   23.6150 O   0  0  0  0  0  0  0  0  0  0  0  0
    7.2692  -17.6945   24.7995 O   0  0  0  0  0  0  0  0  0  0  0  0
  1  2  1  0
  2  3  2  0
  4  2  1  0
  4  5  1  0
  5  6  1  6
  7  5  1  0
  7  8  2  0
 10  9  1  1
 10 11  1  0
 10 12  1  0
 12 13  1  6
 13  7  1  0
 14 12  1  0
 15 14  2  0
 16 14  1  0
 16 17  1  0
 18 17  1  0
 19 18  1  0
 19 20  1  0
 20 16  1  0
 20 21  1  1
 21 23  1  0
 22 21  2  0
M  END
$$$$
