TND.pdb
     RDKit          3D

 24 23  0  0  1  0  0  0  0  0999 V2000
   20.1787  -11.2248  -20.8870 C   0  0  0  0  0  0  0  0  0  0  0  0
   20.7355  -10.4833  -19.6972 C   0  0  1  0  0  0  0  0  0  0  0  0
   19.6456  -10.1859  -18.8701 O   0  0  0  0  0  0  0  0  0  0  0  0
   21.7015  -11.3442  -18.8963 C   0  0  2  0  0  0  0  0  0  0  0  0
   21.0553  -12.5448  -18.4319 N   0  0  0  0  0  0  0  0  0  0  0  0
   22.2322  -10.6020  -17.7258 C   0  0  0  0  0  0  0  0  0  0  0  0
   21.6345  -10.8103  -16.6226 O   0  0  0  0  0  0  0  0  0  0  0  0
   25.2298  -11.2472  -15.7870 N   0  0  0  0  0  0  0  0  0  0  0  0
   25.9981  -10.0929  -16.1553 C   0  0  0  0  0  0  0  0  0  0  0  0
   27.2294  -10.2069  -16.0083 O   0  0  0  0  0  0  0  0  0  0  0  0
   25.2560   -8.9356  -16.6523 C   0  0  0  0  0  0  0  0  0  0  0  0
   23.7589   -9.0215  -16.5826 C   0  0  2  0  0  0  0  0  0  0  0  0
   23.3169   -9.7253  -17.8020 N   0  0  0  0  0  0  0  0  0  0  0  0
   23.1611   -7.6535  -16.5896 C   0  0  0  0  0  0  0  0  0  0  0  0
   22.9756   -7.0924  -17.6924 O   0  0  0  0  0  0  0  0  0  0  0  0
   22.8047   -6.9873  -15.3880 N   0  0  0  0  0  0  0  0  0  0  0  0
   22.1580   -5.6677  -15.5109 C   0  0  1  0  0  0  0  0  0  0  0  0
   20.7215   -5.8602  -15.9135 C   0  0  0  0  0  0  0  0  0  0  0  0
   19.9430   -4.6199  -16.0028 C   0  0  0  0  0  0  0  0  0  0  0  0
   20.4512   -3.4825  -16.0643 O   0  0  0  0  0  0  0  0  0  0  0  0
   22.2638   -4.9662  -14.2139 C   0  0  0  0  0  0  0  0  0  0  0  0
   22.7065   -5.5849  -13.0871 O   0  0  0  0  0  0  0  0  0  0  0  0
   18.5415   -4.6446  -16.0243 O   0  0  0  0  0  0  0  0  0  0  0  0
   21.9329   -3.7599  -14.1508 O   0  0  0  0  0  0  0  0  0  0  0  0
  2  1  1  6
  2  4  1  0
  3  2  1  0
  4  5  1  1
  6  7  2  0
  6  4  1  0
  9  8  1  0
  9 10  2  0
 12 11  1  6
 11  9  1  0
 12 13  1  0
 13  6  1  0
 14 12  1  0
 15 14  2  0
 16 14  1  0
 17 21  1  0
 17 16  1  0
 17 18  1  1
 19 18  1  0
 20 19  2  0
 21 22  1  0
 23 19  1  0
 24 21  2  0
M  END
$$$$
