TND.pdb
     RDKit          3D

 24 23  0  0  1  0  0  0  0  0999 V2000
   16.3102  -11.9792  -18.0413 C   0  0  0  0  0  0  0  0  0  0  0  0
   16.5081  -13.3642  -17.4770 C   0  0  1  0  0  0  0  0  0  0  0  0
   15.9775  -14.2550  -18.4179 O   0  0  0  0  0  0  0  0  0  0  0  0
   17.9826  -13.6987  -17.3048 C   0  0  2  0  0  0  0  0  0  0  0  0
   18.1494  -15.0309  -16.7833 N   0  0  0  0  0  0  0  0  0  0  0  0
   18.6434  -12.7383  -16.3864 C   0  0  0  0  0  0  0  0  0  0  0  0
   18.5472  -13.0045  -15.1464 O   0  0  0  0  0  0  0  0  0  0  0  0
   23.7295  -10.5851  -15.0408 N   0  0  0  0  0  0  0  0  0  0  0  0
   22.3153  -10.3750  -14.9214 C   0  0  0  0  0  0  0  0  0  0  0  0
   21.9689   -9.6111  -14.0009 O   0  0  0  0  0  0  0  0  0  0  0  0
   21.4598  -11.0722  -15.8800 C   0  0  0  0  0  0  0  0  0  0  0  0
   19.9970  -10.7379  -15.8368 C   0  0  2  0  0  0  0  0  0  0  0  0
   19.3335  -11.6069  -16.8278 N   0  0  0  0  0  0  0  0  0  0  0  0
   19.7786   -9.3171  -16.2401 C   0  0  0  0  0  0  0  0  0  0  0  0
   19.9695   -9.0037  -17.4363 O   0  0  0  0  0  0  0  0  0  0  0  0
   19.3651   -8.3304  -15.3075 N   0  0  0  0  0  0  0  0  0  0  0  0
   19.0861   -6.9794  -15.8290 C   0  0  1  0  0  0  0  0  0  0  0  0
   17.7922   -6.4843  -15.2430 C   0  0  0  0  0  0  0  0  0  0  0  0
   17.4866   -5.0807  -15.5416 C   0  0  0  0  0  0  0  0  0  0  0  0
   17.2400   -4.2220  -14.6712 O   0  0  0  0  0  0  0  0  0  0  0  0
   20.2131   -6.0920  -15.4715 C   0  0  0  0  0  0  0  0  0  0  0  0
   20.3722   -4.8605  -16.0252 O   0  0  0  0  0  0  0  0  0  0  0  0
   17.4537   -4.6120  -16.8625 O   0  0  0  0  0  0  0  0  0  0  0  0
   21.0512   -6.4892  -14.6299 O   0  0  0  0  0  0  0  0  0  0  0  0
  2  1  1  6
  2  4  1  0
  3  2  1  0
  4  5  1  1
  6  7  2  0
  6  4  1  0
  9  8  1  0
  9 10  2  0
 12 11  1  6
 11  9  1  0
 12 13  1  0
 13  6  1  0
 14 12  1  0
 15 14  2  0
 16 14  1  0
 17 21  1  0
 17 16  1  0
 17 18  1  1
 19 18  1  0
 20 19  2  0
 21 22  1  0
 23 19  1  0
 24 21  2  0
M  END
$$$$
