TND.pdb
     RDKit          3D

 24 23  0  0  1  0  0  0  0  0999 V2000
   23.1376   -9.5357  -16.7063 C   0  0  0  0  0  0  0  0  0  0  0  0
   22.3212   -8.5899  -15.8608 C   0  0  1  0  0  0  0  0  0  0  0  0
   21.4281   -7.9518  -16.7299 O   0  0  0  0  0  0  0  0  0  0  0  0
   21.4991   -9.3316  -14.8168 C   0  0  2  0  0  0  0  0  0  0  0  0
   20.6206  -10.2880  -15.4397 N   0  0  0  0  0  0  0  0  0  0  0  0
   20.6859   -8.3881  -14.0099 C   0  0  0  0  0  0  0  0  0  0  0  0
   19.4643   -8.2830  -14.3484 O   0  0  0  0  0  0  0  0  0  0  0  0
   19.0452   -5.1440  -10.2911 N   0  0  0  0  0  0  0  0  0  0  0  0
   20.1213   -5.9462   -9.7841 C   0  0  0  0  0  0  0  0  0  0  0  0
   20.3177   -5.8554   -8.5578 O   0  0  0  0  0  0  0  0  0  0  0  0
   20.8499   -6.7635  -10.7525 C   0  0  0  0  0  0  0  0  0  0  0  0
   20.2923   -6.8053  -12.1457 C   0  0  2  0  0  0  0  0  0  0  0  0
   21.2026   -7.6506  -12.9422 N   0  0  0  0  0  0  0  0  0  0  0  0
   20.2843   -5.4363  -12.7413 C   0  0  0  0  0  0  0  0  0  0  0  0
   21.3533   -4.9874  -13.2115 O   0  0  0  0  0  0  0  0  0  0  0  0
   19.1059   -4.6464  -12.7837 N   0  0  0  0  0  0  0  0  0  0  0  0
   19.1338   -3.4319  -13.6198 C   0  0  1  0  0  0  0  0  0  0  0  0
   19.1026   -3.8327  -15.0694 C   0  0  0  0  0  0  0  0  0  0  0  0
   18.9841   -2.7116  -16.0083 C   0  0  0  0  0  0  0  0  0  0  0  0
   19.0381   -1.5122  -15.6701 O   0  0  0  0  0  0  0  0  0  0  0  0
   17.9706   -2.5893  -13.2695 C   0  0  0  0  0  0  0  0  0  0  0  0
   18.0516   -1.2343  -13.1929 O   0  0  0  0  0  0  0  0  0  0  0  0
   18.7976   -2.9326  -17.3801 O   0  0  0  0  0  0  0  0  0  0  0  0
   16.8725   -3.1434  -13.0341 O   0  0  0  0  0  0  0  0  0  0  0  0
  2  1  1  6
  2  4  1  0
  3  2  1  0
  4  5  1  6
  6  7  2  0
  6  4  1  0
  9  8  1  0
  9 10  2  0
 12 11  1  1
 11  9  1  0
 12 13  1  0
 13  6  1  0
 14 12  1  0
 15 14  2  0
 16 14  1  0
 17 21  1  0
 17 16  1  0
 17 18  1  6
 19 18  1  0
 20 19  2  0
 21 22  1  0
 23 19  1  0
 24 21  2  0
M  END
$$$$
