TND.pdb
     RDKit          3D

 24 23  0  0  1  0  0  0  0  0999 V2000
   17.4264  -12.2649  -15.9165 C   0  0  0  0  0  0  0  0  0  0  0  0
   18.7181  -11.9669  -16.6366 C   0  0  1  0  0  0  0  0  0  0  0  0
   18.6570  -12.6479  -17.8583 O   0  0  0  0  0  0  0  0  0  0  0  0
   18.8655  -10.4833  -16.9417 C   0  0  2  0  0  0  0  0  0  0  0  0
   19.5681  -10.2818  -18.1828 N   0  0  0  0  0  0  0  0  0  0  0  0
   19.5998   -9.7863  -15.8566 C   0  0  0  0  0  0  0  0  0  0  0  0
   19.0794   -9.8651  -14.6987 O   0  0  0  0  0  0  0  0  0  0  0  0
   22.2702  -10.8774  -14.2361 N   0  0  0  0  0  0  0  0  0  0  0  0
   23.2976   -9.9427  -14.5955 C   0  0  0  0  0  0  0  0  0  0  0  0
   24.4606  -10.3835  -14.5327 O   0  0  0  0  0  0  0  0  0  0  0  0
   22.8648   -8.6025  -14.9872 C   0  0  0  0  0  0  0  0  0  0  0  0
   21.3880   -8.3371  -14.9414 C   0  0  2  0  0  0  0  0  0  0  0  0
   20.7878   -9.0819  -16.0650 N   0  0  0  0  0  0  0  0  0  0  0  0
   21.1167   -6.8833  -15.1460 C   0  0  0  0  0  0  0  0  0  0  0  0
   21.5444   -6.0739  -14.2931 O   0  0  0  0  0  0  0  0  0  0  0  0
   20.3943   -6.4089  -16.2718 N   0  0  0  0  0  0  0  0  0  0  0  0
   20.0713   -4.9706  -16.3130 C   0  0  1  0  0  0  0  0  0  0  0  0
   19.9292   -4.5400  -17.7473 C   0  0  0  0  0  0  0  0  0  0  0  0
   21.1789   -4.5608  -18.5156 C   0  0  0  0  0  0  0  0  0  0  0  0
   22.2574   -4.0897  -18.1026 O   0  0  0  0  0  0  0  0  0  0  0  0
   18.8213   -4.7443  -15.5569 C   0  0  0  0  0  0  0  0  0  0  0  0
   18.5877   -3.5971  -14.8656 O   0  0  0  0  0  0  0  0  0  0  0  0
   21.2320   -5.1285  -19.7963 O   0  0  0  0  0  0  0  0  0  0  0  0
   17.9474   -5.6414  -15.5523 O   0  0  0  0  0  0  0  0  0  0  0  0
  2  1  1  6
  2  4  1  0
  3  2  1  0
  4  5  1  6
  6  7  2  0
  6  4  1  0
  9  8  1  0
  9 10  2  0
 12 11  1  6
 11  9  1  0
 12 13  1  0
 13  6  1  0
 14 12  1  0
 15 14  2  0
 16 14  1  0
 17 21  1  0
 17 16  1  0
 17 18  1  6
 19 18  1  0
 20 19  2  0
 21 22  1  0
 23 19  1  0
 24 21  2  0
M  END
$$$$
