TND.pdb
     RDKit          3D

 24 23  0  0  1  0  0  0  0  0999 V2000
   20.8855  -13.4458  -16.6253 C   0  0  0  0  0  0  0  0  0  0  0  0
   20.6515  -12.0042  -16.2476 C   0  0  1  0  0  0  0  0  0  0  0  0
   20.9827  -11.2407  -17.3734 O   0  0  0  0  0  0  0  0  0  0  0  0
   19.1895  -11.7357  -15.9215 C   0  0  2  0  0  0  0  0  0  0  0  0
   18.3653  -11.8915  -17.0924 N   0  0  0  0  0  0  0  0  0  0  0  0
   19.0062  -10.3640  -15.3853 C   0  0  0  0  0  0  0  0  0  0  0  0
   18.5220   -9.5137  -16.1978 O   0  0  0  0  0  0  0  0  0  0  0  0
   17.2005   -9.9204  -10.6028 N   0  0  0  0  0  0  0  0  0  0  0  0
   17.3580   -9.2118  -11.8403 C   0  0  0  0  0  0  0  0  0  0  0  0
   16.3189   -9.0862  -12.5149 O   0  0  0  0  0  0  0  0  0  0  0  0
   18.7001   -8.7280  -12.1591 C   0  0  0  0  0  0  0  0  0  0  0  0
   19.0467   -8.6305  -13.6164 C   0  0  2  0  0  0  0  0  0  0  0  0
   19.3352  -10.0025  -14.0768 N   0  0  0  0  0  0  0  0  0  0  0  0
   20.2777   -7.8065  -13.8017 C   0  0  0  0  0  0  0  0  0  0  0  0
   21.3818   -8.3132  -13.5019 O   0  0  0  0  0  0  0  0  0  0  0  0
   20.2210   -6.4801  -14.3036 N   0  0  0  0  0  0  0  0  0  0  0  0
   21.5003   -5.7702  -14.4889 C   0  0  1  0  0  0  0  0  0  0  0  0
   21.8456   -5.7544  -15.9530 C   0  0  0  0  0  0  0  0  0  0  0  0
   23.0330   -4.9612  -16.2896 C   0  0  0  0  0  0  0  0  0  0  0  0
   24.1943   -5.4165  -16.2979 O   0  0  0  0  0  0  0  0  0  0  0  0
   21.3625   -4.3990  -13.9539 C   0  0  0  0  0  0  0  0  0  0  0  0
   22.4380   -3.6408  -13.6120 O   0  0  0  0  0  0  0  0  0  0  0  0
   22.9255   -3.6058  -16.6309 O   0  0  0  0  0  0  0  0  0  0  0  0
   20.2146   -3.9195  -13.8095 O   0  0  0  0  0  0  0  0  0  0  0  0
  2  1  1  6
  2  4  1  0
  3  2  1  0
  4  5  1  6
  6  7  2  0
  6  4  1  0
  9  8  1  0
  9 10  2  0
 12 11  1  1
 11  9  1  0
 12 13  1  0
 13  6  1  0
 14 12  1  0
 15 14  2  0
 16 14  1  0
 17 21  1  0
 17 16  1  0
 17 18  1  6
 19 18  1  0
 20 19  2  0
 21 22  1  0
 23 19  1  0
 24 21  2  0
M  END
$$$$
