TND.pdb
     RDKit          3D

 24 23  0  0  1  0  0  0  0  0999 V2000
   26.6943  -10.8144  -15.1922 C   0  0  0  0  0  0  0  0  0  0  0  0
   27.7375  -11.0135  -16.2636 C   0  0  1  0  0  0  0  0  0  0  0  0
   28.5739  -12.0432  -15.8159 O   0  0  0  0  0  0  0  0  0  0  0  0
   27.1178  -11.4611  -17.5794 C   0  0  2  0  0  0  0  0  0  0  0  0
   28.1342  -11.6910  -18.5737 N   0  0  0  0  0  0  0  0  0  0  0  0
   26.1657  -10.4452  -18.0931 C   0  0  0  0  0  0  0  0  0  0  0  0
   26.6738   -9.5237  -18.8076 O   0  0  0  0  0  0  0  0  0  0  0  0
   21.9132   -7.7618  -19.3403 N   0  0  0  0  0  0  0  0  0  0  0  0
   21.8075   -9.1555  -19.6638 C   0  0  0  0  0  0  0  0  0  0  0  0
   20.8564   -9.4558  -20.4095 O   0  0  0  0  0  0  0  0  0  0  0  0
   22.8136  -10.0462  -19.0882 C   0  0  0  0  0  0  0  0  0  0  0  0
   23.9385   -9.3898  -18.3418 C   0  0  2  0  0  0  0  0  0  0  0  0
   24.7952  -10.4747  -17.8251 N   0  0  0  0  0  0  0  0  0  0  0  0
   23.4077   -8.6190  -17.1786 C   0  0  0  0  0  0  0  0  0  0  0  0
   23.0646   -9.2508  -16.1546 O   0  0  0  0  0  0  0  0  0  0  0  0
   23.2865   -7.2052  -17.2113 N   0  0  0  0  0  0  0  0  0  0  0  0
   22.8044   -6.5378  -15.9878 C   0  0  1  0  0  0  0  0  0  0  0  0
   23.3815   -5.1500  -15.9254 C   0  0  0  0  0  0  0  0  0  0  0  0
   22.8981   -4.3400  -14.8017 C   0  0  0  0  0  0  0  0  0  0  0  0
   22.3562   -4.8153  -13.7838 O   0  0  0  0  0  0  0  0  0  0  0  0
   21.3267   -6.5051  -16.0176 C   0  0  0  0  0  0  0  0  0  0  0  0
   20.6317   -6.0263  -17.0835 O   0  0  0  0  0  0  0  0  0  0  0  0
   23.0219   -2.9435  -14.8097 O   0  0  0  0  0  0  0  0  0  0  0  0
   20.6930   -6.9325  -15.0255 O   0  0  0  0  0  0  0  0  0  0  0  0
  2  1  1  1
  2  4  1  0
  3  2  1  0
  4  5  1  6
  6  7  2  0
  6  4  1  0
  9  8  1  0
  9 10  2  0
 12 11  1  1
 11  9  1  0
 12 13  1  0
 13  6  1  0
 14 12  1  0
 15 14  2  0
 16 14  1  0
 17 21  1  0
 17 16  1  0
 17 18  1  6
 19 18  1  0
 20 19  2  0
 21 22  1  0
 23 19  1  0
 24 21  2  0
M  END
$$$$
