TND.pdb
     RDKit          3D

 24 23  0  0  1  0  0  0  0  0999 V2000
   15.6543  -12.3050  -17.5170 C   0  0  0  0  0  0  0  0  0  0  0  0
   16.8099  -11.8495  -16.6610 C   0  0  1  0  0  0  0  0  0  0  0  0
   17.8126  -12.8164  -16.8017 O   0  0  0  0  0  0  0  0  0  0  0  0
   17.3785  -10.5216  -17.1395 C   0  0  2  0  0  0  0  0  0  0  0  0
   17.8197  -10.6151  -18.5074 N   0  0  0  0  0  0  0  0  0  0  0  0
   18.5224  -10.0962  -16.2949 C   0  0  0  0  0  0  0  0  0  0  0  0
   18.2586   -9.9000  -15.0662 O   0  0  0  0  0  0  0  0  0  0  0  0
   23.1514   -9.0550  -14.3264 N   0  0  0  0  0  0  0  0  0  0  0  0
   23.3100   -9.9476  -15.4383 C   0  0  0  0  0  0  0  0  0  0  0  0
   24.4508  -10.4281  -15.5736 O   0  0  0  0  0  0  0  0  0  0  0  0
   22.1311  -10.1846  -16.2695 C   0  0  0  0  0  0  0  0  0  0  0  0
   20.8785   -9.4569  -15.8757 C   0  0  2  0  0  0  0  0  0  0  0  0
   19.8156   -9.9155  -16.7909 N   0  0  0  0  0  0  0  0  0  0  0  0
   21.0538   -7.9861  -16.0625 C   0  0  0  0  0  0  0  0  0  0  0  0
   21.3003   -7.5591  -17.2124 O   0  0  0  0  0  0  0  0  0  0  0  0
   20.9481   -7.0770  -14.9777 N   0  0  0  0  0  0  0  0  0  0  0  0
   21.1747   -5.6485  -15.2660 C   0  0  1  0  0  0  0  0  0  0  0  0
   19.8517   -4.9327  -15.2716 C   0  0  0  0  0  0  0  0  0  0  0  0
   19.9473   -3.4785  -15.4409 C   0  0  0  0  0  0  0  0  0  0  0  0
   19.4200   -2.6522  -14.6697 O   0  0  0  0  0  0  0  0  0  0  0  0
   22.0810   -5.0960  -14.2369 C   0  0  0  0  0  0  0  0  0  0  0  0
   22.7375   -3.9172  -14.4041 O   0  0  0  0  0  0  0  0  0  0  0  0
   20.6586   -2.9195  -16.5119 O   0  0  0  0  0  0  0  0  0  0  0  0
   22.2506   -5.7370  -13.1744 O   0  0  0  0  0  0  0  0  0  0  0  0
  2  1  1  6
  2  4  1  0
  3  2  1  0
  4  5  1  6
  6  7  2  0
  6  4  1  0
  9  8  1  0
  9 10  2  0
 12 11  1  6
 11  9  1  0
 12 13  1  0
 13  6  1  0
 14 12  1  0
 15 14  2  0
 16 14  1  0
 17 21  1  0
 17 16  1  0
 17 18  1  1
 19 18  1  0
 20 19  2  0
 21 22  1  0
 23 19  1  0
 24 21  2  0
M  END
$$$$
