TND.pdb
     RDKit          3D

 24 23  0  0  1  0  0  0  0  0999 V2000
   17.2910  -11.9502  -17.7841 C   0  0  0  0  0  0  0  0  0  0  0  0
   18.2046  -10.8715  -17.2574 C   0  0  1  0  0  0  0  0  0  0  0  0
   17.3765   -9.8396  -16.7994 O   0  0  0  0  0  0  0  0  0  0  0  0
   19.0316  -11.3585  -16.0764 C   0  0  2  0  0  0  0  0  0  0  0  0
   18.1810  -11.7919  -14.9979 N   0  0  0  0  0  0  0  0  0  0  0  0
   19.9304  -10.2881  -15.5775 C   0  0  0  0  0  0  0  0  0  0  0  0
   19.5562   -9.7055  -14.5106 O   0  0  0  0  0  0  0  0  0  0  0  0
   23.8456   -6.8800  -15.1116 N   0  0  0  0  0  0  0  0  0  0  0  0
   24.3428   -8.0879  -15.7049 C   0  0  0  0  0  0  0  0  0  0  0  0
   25.5802   -8.1452  -15.8327 O   0  0  0  0  0  0  0  0  0  0  0  0
   23.3531   -9.0946  -16.0842 C   0  0  0  0  0  0  0  0  0  0  0  0
   21.9404   -8.8419  -15.6438 C   0  0  2  0  0  0  0  0  0  0  0  0
   21.1168   -9.9234  -16.2182 N   0  0  0  0  0  0  0  0  0  0  0  0
   21.4523   -7.5416  -16.1912 C   0  0  0  0  0  0  0  0  0  0  0  0
   20.9978   -7.5214  -17.3568 O   0  0  0  0  0  0  0  0  0  0  0  0
   21.4933   -6.3462  -15.4271 N   0  0  0  0  0  0  0  0  0  0  0  0
   20.8012   -5.1659  -15.9773 C   0  0  1  0  0  0  0  0  0  0  0  0
   19.3155   -5.3906  -15.9070 C   0  0  0  0  0  0  0  0  0  0  0  0
   18.5057   -4.2399  -16.3227 C   0  0  0  0  0  0  0  0  0  0  0  0
   18.9850   -3.1592  -16.7201 O   0  0  0  0  0  0  0  0  0  0  0  0
   21.2028   -3.9757  -15.1978 C   0  0  0  0  0  0  0  0  0  0  0  0
   20.9058   -2.7107  -15.5980 O   0  0  0  0  0  0  0  0  0  0  0  0
   17.1050   -4.2925  -16.2953 O   0  0  0  0  0  0  0  0  0  0  0  0
   21.8398   -4.1385  -14.1319 O   0  0  0  0  0  0  0  0  0  0  0  0
  2  1  1  1
  2  4  1  0
  3  2  1  0
  4  5  1  1
  6  7  2  0
  6  4  1  0
  9  8  1  0
  9 10  2  0
 12 11  1  6
 11  9  1  0
 12 13  1  0
 13  6  1  0
 14 12  1  0
 15 14  2  0
 16 14  1  0
 17 21  1  0
 17 16  1  0
 17 18  1  1
 19 18  1  0
 20 19  2  0
 21 22  1  0
 23 19  1  0
 24 21  2  0
M  END
$$$$
