TND.pdb
     RDKit          3D

 24 23  0  0  1  0  0  0  0  0999 V2000
   25.4602   -9.3345  -15.5143 C   0  0  0  0  0  0  0  0  0  0  0  0
   24.8673  -10.2525  -16.5541 C   0  0  1  0  0  0  0  0  0  0  0  0
   25.8319  -11.2336  -16.8130 O   0  0  0  0  0  0  0  0  0  0  0  0
   23.6193  -10.9561  -16.0410 C   0  0  2  0  0  0  0  0  0  0  0  0
   23.1545  -11.9344  -16.9904 N   0  0  0  0  0  0  0  0  0  0  0  0
   22.5282   -9.9842  -15.7811 C   0  0  0  0  0  0  0  0  0  0  0  0
   21.8634   -9.6147  -16.8005 O   0  0  0  0  0  0  0  0  0  0  0  0
   19.0129   -6.9147  -13.5132 N   0  0  0  0  0  0  0  0  0  0  0  0
   19.1845   -8.1410  -12.7887 C   0  0  0  0  0  0  0  0  0  0  0  0
   18.3242   -8.3664  -11.9171 O   0  0  0  0  0  0  0  0  0  0  0  0
   20.3324   -8.9695  -13.1533 C   0  0  0  0  0  0  0  0  0  0  0  0
   21.1189   -8.5304  -14.3542 C   0  0  2  0  0  0  0  0  0  0  0  0
   22.2286   -9.4907  -14.5092 N   0  0  0  0  0  0  0  0  0  0  0  0
   21.7019   -7.1754  -14.1240 C   0  0  0  0  0  0  0  0  0  0  0  0
   22.5964   -7.0534  -13.2577 O   0  0  0  0  0  0  0  0  0  0  0  0
   21.2678   -6.0404  -14.8574 N   0  0  0  0  0  0  0  0  0  0  0  0
   21.9411   -4.7575  -14.5823 C   0  0  1  0  0  0  0  0  0  0  0  0
   22.6162   -4.2780  -15.8382 C   0  0  0  0  0  0  0  0  0  0  0  0
   23.2547   -2.9622  -15.7214 C   0  0  0  0  0  0  0  0  0  0  0  0
   23.3000   -2.3023  -14.6640 O   0  0  0  0  0  0  0  0  0  0  0  0
   20.9327   -3.7856  -14.1089 C   0  0  0  0  0  0  0  0  0  0  0  0
   21.2053   -2.8674  -13.1440 O   0  0  0  0  0  0  0  0  0  0  0  0
   23.8683   -2.3546  -16.8258 O   0  0  0  0  0  0  0  0  0  0  0  0
   19.7869   -3.8099  -14.6137 O   0  0  0  0  0  0  0  0  0  0  0  0
  2  1  1  1
  2  4  1  0
  3  2  1  0
  4  5  1  6
  6  7  2  0
  6  4  1  0
  9  8  1  0
  9 10  2  0
 12 11  1  1
 11  9  1  0
 12 13  1  0
 13  6  1  0
 14 12  1  0
 15 14  2  0
 16 14  1  0
 17 21  1  0
 17 16  1  0
 17 18  1  6
 19 18  1  0
 20 19  2  0
 21 22  1  0
 23 19  1  0
 24 21  2  0
M  END
$$$$
