TND.pdb
     RDKit          3D

 24 23  0  0  1  0  0  0  0  0999 V2000
   27.0792  -19.0654   -8.1158 C   0  0  0  0  0  0  0  0  0  0  0  0
   26.8625  -20.4881   -8.5679 C   0  0  1  0  0  0  0  0  0  0  0  0
   26.6938  -21.2517   -7.4065 O   0  0  0  0  0  0  0  0  0  0  0  0
   25.5971  -20.6297   -9.4013 C   0  0  2  0  0  0  0  0  0  0  0  0
   25.2512  -22.0166   -9.5780 N   0  0  0  0  0  0  0  0  0  0  0  0
   25.7654  -20.0037  -10.7364 C   0  0  0  0  0  0  0  0  0  0  0  0
   25.8889  -18.7379  -10.7412 O   0  0  0  0  0  0  0  0  0  0  0  0
   29.4891  -20.6746  -12.4863 N   0  0  0  0  0  0  0  0  0  0  0  0
   28.5689  -19.8901  -13.2583 C   0  0  0  0  0  0  0  0  0  0  0  0
   28.9107  -18.7080  -13.4493 O   0  0  0  0  0  0  0  0  0  0  0  0
   27.3559  -20.5607  -13.7230 C   0  0  0  0  0  0  0  0  0  0  0  0
   26.0547  -20.0287  -13.1964 C   0  0  2  0  0  0  0  0  0  0  0  0
   25.7904  -20.7335  -11.9271 N   0  0  0  0  0  0  0  0  0  0  0  0
   24.9454  -20.3422  -14.1451 C   0  0  0  0  0  0  0  0  0  0  0  0
   24.6602  -21.5433  -14.3487 O   0  0  0  0  0  0  0  0  0  0  0  0
   24.2194  -19.3200  -14.8103 N   0  0  0  0  0  0  0  0  0  0  0  0
   23.0061  -19.7201  -15.5470 C   0  0  1  0  0  0  0  0  0  0  0  0
   21.8853  -18.7807  -15.1945 C   0  0  0  0  0  0  0  0  0  0  0  0
   20.6977  -19.4339  -14.6330 C   0  0  0  0  0  0  0  0  0  0  0  0
   20.5827  -20.6681  -14.4942 O   0  0  0  0  0  0  0  0  0  0  0  0
   23.2996  -19.6878  -16.9955 C   0  0  0  0  0  0  0  0  0  0  0  0
   22.9375  -20.6958  -17.8330 O   0  0  0  0  0  0  0  0  0  0  0  0
   19.5918  -18.6843  -14.2081 O   0  0  0  0  0  0  0  0  0  0  0  0
   23.9040  -18.6976  -17.4674 O   0  0  0  0  0  0  0  0  0  0  0  0
  2  1  1  1
  2  4  1  0
  3  2  1  0
  4  5  1  6
  6  7  2  0
  6  4  1  0
  9  8  1  0
  9 10  2  0
 12 11  1  6
 11  9  1  0
 12 13  1  0
 13  6  1  0
 14 12  1  0
 15 14  2  0
 16 14  1  0
 17 21  1  0
 17 16  1  0
 17 18  1  6
 19 18  1  0
 20 19  2  0
 21 22  1  0
 23 19  1  0
 24 21  2  0
M  END
$$$$
