TND.pdb
     RDKit          3D

 24 23  0  0  1  0  0  0  0  0999 V2000
   25.3263  -19.8365  -15.9219 C   0  0  0  0  0  0  0  0  0  0  0  0
   25.6227  -21.2995  -15.7039 C   0  0  1  0  0  0  0  0  0  0  0  0
   27.0172  -21.4242  -15.6945 O   0  0  0  0  0  0  0  0  0  0  0  0
   25.1066  -21.7860  -14.3576 C   0  0  2  0  0  0  0  0  0  0  0  0
   25.4562  -23.1666  -14.1422 N   0  0  0  0  0  0  0  0  0  0  0  0
   23.6318  -21.6457  -14.2697 C   0  0  0  0  0  0  0  0  0  0  0  0
   22.9554  -22.5887  -14.7901 O   0  0  0  0  0  0  0  0  0  0  0  0
   20.1161  -22.5432  -12.3696 N   0  0  0  0  0  0  0  0  0  0  0  0
   20.4264  -21.4046  -11.5539 C   0  0  0  0  0  0  0  0  0  0  0  0
   20.0595  -21.4874  -10.3668 O   0  0  0  0  0  0  0  0  0  0  0  0
   21.1263  -20.2973  -12.2026 C   0  0  0  0  0  0  0  0  0  0  0  0
   21.5260  -20.5065  -13.6344 C   0  0  2  0  0  0  0  0  0  0  0  0
   23.0005  -20.5589  -13.6603 N   0  0  0  0  0  0  0  0  0  0  0  0
   21.0844  -19.3503  -14.4693 C   0  0  0  0  0  0  0  0  0  0  0  0
   21.6442  -18.2448  -14.2958 O   0  0  0  0  0  0  0  0  0  0  0  0
   20.0578  -19.4787  -15.4410 N   0  0  0  0  0  0  0  0  0  0  0  0
   19.7095  -18.2771  -16.2218 C   0  0  1  0  0  0  0  0  0  0  0  0
   19.4367  -18.6787  -17.6456 C   0  0  0  0  0  0  0  0  0  0  0  0
   18.9578  -17.5894  -18.5039 C   0  0  0  0  0  0  0  0  0  0  0  0
   19.4290  -16.4346  -18.4905 O   0  0  0  0  0  0  0  0  0  0  0  0
   18.5261  -17.6395  -15.6065 C   0  0  0  0  0  0  0  0  0  0  0  0
   18.2894  -16.3039  -15.6998 O   0  0  0  0  0  0  0  0  0  0  0  0
   17.9116  -17.7919  -19.4149 O   0  0  0  0  0  0  0  0  0  0  0  0
   17.7138  -18.3547  -14.9764 O   0  0  0  0  0  0  0  0  0  0  0  0
  2  1  1  1
  2  4  1  0
  3  2  1  0
  4  5  1  6
  6  7  2  0
  6  4  1  0
  9  8  1  0
  9 10  2  0
 12 11  1  1
 11  9  1  0
 12 13  1  0
 13  6  1  0
 14 12  1  0
 15 14  2  0
 16 14  1  0
 17 21  1  0
 17 16  1  0
 17 18  1  6
 19 18  1  0
 20 19  2  0
 21 22  1  0
 23 19  1  0
 24 21  2  0
M  END
$$$$
