TND.pdb
     RDKit          3D

 24 23  0  0  1  0  0  0  0  0999 V2000
   23.5242  -21.7548  -11.9117 C   0  0  0  0  0  0  0  0  0  0  0  0
   23.7663  -20.7978  -10.7710 C   0  0  1  0  0  0  0  0  0  0  0  0
   22.9599  -21.2316   -9.7118 O   0  0  0  0  0  0  0  0  0  0  0  0
   25.2119  -20.8377  -10.2971 C   0  0  2  0  0  0  0  0  0  0  0  0
   25.3653  -20.1226   -9.0563 N   0  0  0  0  0  0  0  0  0  0  0  0
   26.1210  -20.2435  -11.3085 C   0  0  0  0  0  0  0  0  0  0  0  0
   26.0041  -18.9897  -11.4872 O   0  0  0  0  0  0  0  0  0  0  0  0
   30.5973  -21.6441  -11.3123 N   0  0  0  0  0  0  0  0  0  0  0  0
   30.0512  -20.5787  -12.1029 C   0  0  0  0  0  0  0  0  0  0  0  0
   30.4146  -19.4342  -11.7733 O   0  0  0  0  0  0  0  0  0  0  0  0
   29.1454  -20.9564  -13.1863 C   0  0  0  0  0  0  0  0  0  0  0  0
   27.7725  -20.3503  -13.1516 C   0  0  2  0  0  0  0  0  0  0  0  0
   27.0545  -20.9894  -12.0319 N   0  0  0  0  0  0  0  0  0  0  0  0
   27.0384  -20.6586  -14.4145 C   0  0  0  0  0  0  0  0  0  0  0  0
   27.0940  -21.8251  -14.8637 O   0  0  0  0  0  0  0  0  0  0  0  0
   26.2904  -19.6695  -15.1049 N   0  0  0  0  0  0  0  0  0  0  0  0
   25.3580  -20.1315  -16.1499 C   0  0  1  0  0  0  0  0  0  0  0  0
   24.3167  -21.0174  -15.5224 C   0  0  0  0  0  0  0  0  0  0  0  0
   22.9946  -20.9440  -16.1541 C   0  0  0  0  0  0  0  0  0  0  0  0
   22.6643  -21.6096  -17.1559 O   0  0  0  0  0  0  0  0  0  0  0  0
   24.7434  -18.9501  -16.7917 C   0  0  0  0  0  0  0  0  0  0  0  0
   23.9753  -19.0474  -17.9093 O   0  0  0  0  0  0  0  0  0  0  0  0
   21.9981  -20.0955  -15.6516 O   0  0  0  0  0  0  0  0  0  0  0  0
   24.9380  -17.8198  -16.2887 O   0  0  0  0  0  0  0  0  0  0  0  0
  2  1  1  6
  2  4  1  0
  3  2  1  0
  4  5  1  1
  6  7  2  0
  6  4  1  0
  9  8  1  0
  9 10  2  0
 12 11  1  6
 11  9  1  0
 12 13  1  0
 13  6  1  0
 14 12  1  0
 15 14  2  0
 16 14  1  0
 17 21  1  0
 17 16  1  0
 17 18  1  1
 19 18  1  0
 20 19  2  0
 21 22  1  0
 23 19  1  0
 24 21  2  0
M  END
$$$$
