TND.pdb
     RDKit          3D

 24 23  0  0  1  0  0  0  0  0999 V2000
   26.0569  -13.1306  -15.7941 C   0  0  0  0  0  0  0  0  0  0  0  0
   24.9839  -12.1058  -16.0667 C   0  0  1  0  0  0  0  0  0  0  0  0
   25.3064  -11.5108  -17.2923 O   0  0  0  0  0  0  0  0  0  0  0  0
   23.6124  -12.7488  -16.2123 C   0  0  2  0  0  0  0  0  0  0  0  0
   23.5845  -13.6502  -17.3354 N   0  0  0  0  0  0  0  0  0  0  0  0
   22.5584  -11.7204  -16.3967 C   0  0  0  0  0  0  0  0  0  0  0  0
   22.2338  -11.4723  -17.6012 O   0  0  0  0  0  0  0  0  0  0  0  0
   17.7422   -9.5446  -16.1619 N   0  0  0  0  0  0  0  0  0  0  0  0
   18.5238   -9.5759  -14.9592 C   0  0  0  0  0  0  0  0  0  0  0  0
   18.1448   -8.8017  -14.0605 O   0  0  0  0  0  0  0  0  0  0  0  0
   19.6568  -10.4992  -14.9307 C   0  0  0  0  0  0  0  0  0  0  0  0
   20.9083  -10.0429  -15.6227 C   0  0  2  0  0  0  0  0  0  0  0  0
   21.9451  -11.0526  -15.3342 N   0  0  0  0  0  0  0  0  0  0  0  0
   21.3613   -8.7347  -15.0638 C   0  0  0  0  0  0  0  0  0  0  0  0
   22.0415   -8.7415  -14.0137 O   0  0  0  0  0  0  0  0  0  0  0  0
   21.0400   -7.5025  -15.6906 N   0  0  0  0  0  0  0  0  0  0  0  0
   21.5750   -6.2715  -15.0797 C   0  0  1  0  0  0  0  0  0  0  0  0
   22.1222   -5.3831  -16.1634 C   0  0  0  0  0  0  0  0  0  0  0  0
   22.6117   -4.0820  -15.6943 C   0  0  0  0  0  0  0  0  0  0  0  0
   22.6646   -3.7506  -14.4930 O   0  0  0  0  0  0  0  0  0  0  0  0
   20.4884   -5.6026  -14.3333 C   0  0  0  0  0  0  0  0  0  0  0  0
   20.7319   -4.7596  -13.2948 O   0  0  0  0  0  0  0  0  0  0  0  0
   23.0609   -3.1088  -16.5978 O   0  0  0  0  0  0  0  0  0  0  0  0
   19.3017   -5.8212  -14.6688 O   0  0  0  0  0  0  0  0  0  0  0  0
  2  1  1  6
  2  4  1  0
  3  2  1  0
  4  5  1  6
  6  7  2  0
  6  4  1  0
  9  8  1  0
  9 10  2  0
 12 11  1  1
 11  9  1  0
 12 13  1  0
 13  6  1  0
 14 12  1  0
 15 14  2  0
 16 14  1  0
 17 21  1  0
 17 16  1  0
 17 18  1  6
 19 18  1  0
 20 19  2  0
 21 22  1  0
 23 19  1  0
 24 21  2  0
M  END
$$$$
