TND.pdb
     RDKit          3D

 24 23  0  0  1  0  0  0  0  0999 V2000
   16.7892  -11.3543  -17.1846 C   0  0  0  0  0  0  0  0  0  0  0  0
   17.0746  -12.7343  -16.6460 C   0  0  1  0  0  0  0  0  0  0  0  0
   16.0329  -13.5568  -17.0917 O   0  0  0  0  0  0  0  0  0  0  0  0
   18.3762  -13.2980  -17.1973 C   0  0  2  0  0  0  0  0  0  0  0  0
   18.5625  -14.6634  -16.7783 N   0  0  0  0  0  0  0  0  0  0  0  0
   19.5391  -12.4947  -16.7446 C   0  0  0  0  0  0  0  0  0  0  0  0
   19.7771  -12.5231  -15.4955 O   0  0  0  0  0  0  0  0  0  0  0  0
   22.9210  -13.3152  -17.3254 N   0  0  0  0  0  0  0  0  0  0  0  0
   23.3081  -12.2443  -18.1982 C   0  0  0  0  0  0  0  0  0  0  0  0
   24.2561  -12.5010  -18.9638 O   0  0  0  0  0  0  0  0  0  0  0  0
   22.5553  -10.9961  -18.0877 C   0  0  0  0  0  0  0  0  0  0  0  0
   21.4610  -10.9643  -17.0606 C   0  0  2  0  0  0  0  0  0  0  0  0
   20.3380  -11.7466  -17.6124 N   0  0  0  0  0  0  0  0  0  0  0  0
   20.9935   -9.5629  -16.8454 C   0  0  0  0  0  0  0  0  0  0  0  0
   20.3903   -8.9885  -17.7791 O   0  0  0  0  0  0  0  0  0  0  0  0
   21.2168   -8.8799  -15.6214 N   0  0  0  0  0  0  0  0  0  0  0  0
   20.6075   -7.5456  -15.4688 C   0  0  1  0  0  0  0  0  0  0  0  0
   19.1100   -7.6818  -15.5099 C   0  0  0  0  0  0  0  0  0  0  0  0
   18.3782   -6.4465  -15.2085 C   0  0  0  0  0  0  0  0  0  0  0  0
   18.5723   -5.3624  -15.7941 O   0  0  0  0  0  0  0  0  0  0  0  0
   21.0598   -6.9625  -14.1878 C   0  0  0  0  0  0  0  0  0  0  0  0
   21.8369   -7.6511  -13.3100 O   0  0  0  0  0  0  0  0  0  0  0  0
   17.3895   -6.4146  -14.2151 O   0  0  0  0  0  0  0  0  0  0  0  0
   20.7139   -5.7936  -13.9007 O   0  0  0  0  0  0  0  0  0  0  0  0
  2  1  1  6
  2  4  1  0
  3  2  1  0
  4  5  1  1
  6  7  2  0
  6  4  1  0
  9  8  1  0
  9 10  2  0
 12 11  1  6
 11  9  1  0
 12 13  1  0
 13  6  1  0
 14 12  1  0
 15 14  2  0
 16 14  1  0
 17 21  1  0
 17 16  1  0
 17 18  1  1
 19 18  1  0
 20 19  2  0
 21 22  1  0
 23 19  1  0
 24 21  2  0
M  END
$$$$
