TND.pdb
     RDKit          3D

 24 23  0  0  1  0  0  0  0  0999 V2000
   17.2399  -11.4681  -18.1464 C   0  0  0  0  0  0  0  0  0  0  0  0
   18.1384  -10.4835  -17.4401 C   0  0  1  0  0  0  0  0  0  0  0  0
   17.3361   -9.8110  -16.5104 O   0  0  0  0  0  0  0  0  0  0  0  0
   19.2491  -11.1833  -16.6706 C   0  0  2  0  0  0  0  0  0  0  0  0
   18.7043  -12.0565  -15.6630 N   0  0  0  0  0  0  0  0  0  0  0  0
   20.1471  -10.1988  -16.0171 C   0  0  0  0  0  0  0  0  0  0  0  0
   19.8416   -9.8794  -14.8245 O   0  0  0  0  0  0  0  0  0  0  0  0
   23.8985   -6.6962  -15.1395 N   0  0  0  0  0  0  0  0  0  0  0  0
   24.4205   -7.7474  -15.9647 C   0  0  0  0  0  0  0  0  0  0  0  0
   25.6447   -7.6895  -16.1854 O   0  0  0  0  0  0  0  0  0  0  0  0
   23.4679   -8.7479  -16.4426 C   0  0  0  0  0  0  0  0  0  0  0  0
   22.0613   -8.6290  -15.9319 C   0  0  2  0  0  0  0  0  0  0  0  0
   21.2628   -9.6430  -16.6474 N   0  0  0  0  0  0  0  0  0  0  0  0
   21.5051   -7.2820  -16.2559 C   0  0  0  0  0  0  0  0  0  0  0  0
   21.4510   -6.9353  -17.4569 O   0  0  0  0  0  0  0  0  0  0  0  0
   21.0438   -6.4004  -15.2436 N   0  0  0  0  0  0  0  0  0  0  0  0
   20.5351   -5.0840  -15.6715 C   0  0  1  0  0  0  0  0  0  0  0  0
   19.2482   -4.7959  -14.9478 C   0  0  0  0  0  0  0  0  0  0  0  0
   18.6541   -3.4910  -15.2590 C   0  0  0  0  0  0  0  0  0  0  0  0
   18.8885   -2.8512  -16.3037 O   0  0  0  0  0  0  0  0  0  0  0  0
   21.5602   -4.0611  -15.3742 C   0  0  0  0  0  0  0  0  0  0  0  0
   21.7595   -2.9786  -16.1723 O   0  0  0  0  0  0  0  0  0  0  0  0
   17.7626   -2.8713  -14.3720 O   0  0  0  0  0  0  0  0  0  0  0  0
   22.2705   -4.1971  -14.3517 O   0  0  0  0  0  0  0  0  0  0  0  0
  2  1  1  1
  2  4  1  0
  3  2  1  0
  4  5  1  1
  6  7  2  0
  6  4  1  0
  9  8  1  0
  9 10  2  0
 12 11  1  6
 11  9  1  0
 12 13  1  0
 13  6  1  0
 14 12  1  0
 15 14  2  0
 16 14  1  0
 17 21  1  0
 17 16  1  0
 17 18  1  1
 19 18  1  0
 20 19  2  0
 21 22  1  0
 23 19  1  0
 24 21  2  0
M  END
$$$$
