KPT.pdb
     RDKit          3D

 24 24  0  0  1  0  0  0  0  0999 V2000
    8.5595  -14.6970   21.5290 N   0  0  0  0  0  0  0  0  0  0  0  0
    7.5354  -14.4988   22.5567 C   0  0  1  0  0  0  0  0  0  0  0  0
    6.5906  -15.6857   22.5566 C   0  0  0  0  0  0  0  0  0  0  0  0
    7.2778  -16.9895   22.6744 C   0  0  0  0  0  0  0  0  0  0  0  0
    6.4607  -18.2154   22.7190 C   0  0  0  0  0  0  0  0  0  0  0  0
    7.1832  -19.4907   22.9721 C   0  0  0  0  0  0  0  0  0  0  0  0
    6.2481  -20.6251   23.0480 N   0  0  0  0  0  0  0  0  0  0  0  0
    8.2736  -14.3833   23.8320 C   0  0  0  0  0  0  0  0  0  0  0  0
    9.3861  -14.9960   23.9960 O   0  0  0  0  0  0  0  0  0  0  0  0
    7.8221  -13.6149   24.9214 N   0  0  0  0  0  0  0  0  0  0  0  0
    6.6316  -12.7914   24.9156 C   0  0  0  0  0  0  0  0  0  0  0  0
    6.1975  -12.9411   26.3828 C   0  0  0  0  0  0  0  0  0  0  0  0
    7.5522  -12.6232   27.0339 C   0  0  0  0  0  0  0  0  0  0  0  0
    8.4582  -13.5073   26.2467 C   0  0  1  0  0  0  0  0  0  0  0  0
    8.6180  -14.8537   26.8515 C   0  0  0  0  0  0  0  0  0  0  0  0
    7.6166  -15.6064   26.9020 O   0  0  0  0  0  0  0  0  0  0  0  0
   10.7721  -17.5770   25.8617 C   0  0  0  0  0  0  0  0  0  0  0  0
   11.1214  -17.3480   27.2953 C   0  0  1  0  0  0  0  0  0  0  0  0
   12.2746  -16.5366   27.3352 O   0  0  0  0  0  0  0  0  0  0  0  0
   10.0201  -16.5926   28.0160 C   0  0  2  0  0  0  0  0  0  0  0  0
    9.8443  -15.3238   27.3713 N   0  0  0  0  0  0  0  0  0  0  0  0
   10.4483  -16.4344   29.4286 C   0  0  0  0  0  0  0  0  0  0  0  0
   10.5907  -17.5292   30.2678 O   0  0  0  0  0  0  0  0  0  0  0  0
   10.6896  -15.2917   29.8854 O   0  0  0  0  0  0  0  0  0  0  0  0
  2  1  1  6
  3  2  1  0
  4  3  1  0
  5  6  1  0
  5  4  1  0
  7  6  1  0
  8  9  2  0
  8  2  1  0
 10  8  1  0
 11 10  1  0
 12 13  1  0
 12 11  1  0
 13 14  1  0
 14 10  1  0
 14 15  1  1
 16 15  2  0
 18 17  1  6
 19 18  1  0
 20 18  1  0
 20 21  1  6
 21 15  1  0
 22 23  1  0
 22 20  1  0
 24 22  2  0
M  END
$$$$
