KPT.pdb
     RDKit          3D

 24 24  0  0  1  0  0  0  0  0999 V2000
    9.5634  -15.7932   15.7113 N   0  0  0  0  0  0  0  0  0  0  0  0
    8.4894  -15.4325   16.6390 C   0  0  1  0  0  0  0  0  0  0  0  0
    7.5230  -16.5954   16.7618 C   0  0  0  0  0  0  0  0  0  0  0  0
    8.1446  -17.8286   17.2898 C   0  0  0  0  0  0  0  0  0  0  0  0
    7.9214  -19.0947   16.5689 C   0  0  0  0  0  0  0  0  0  0  0  0
    8.5576  -20.3108   17.1424 C   0  0  0  0  0  0  0  0  0  0  0  0
    8.2210  -21.5081   16.3549 N   0  0  0  0  0  0  0  0  0  0  0  0
    9.1599  -15.1364   17.9226 C   0  0  0  0  0  0  0  0  0  0  0  0
   10.2529  -15.7261   18.2353 O   0  0  0  0  0  0  0  0  0  0  0  0
    8.6621  -14.2137   18.8617 N   0  0  0  0  0  0  0  0  0  0  0  0
    7.5054  -13.3678   18.6569 C   0  0  0  0  0  0  0  0  0  0  0  0
    6.9657  -13.3026   20.0950 C   0  0  0  0  0  0  0  0  0  0  0  0
    8.2827  -12.9337   20.7947 C   0  0  0  0  0  0  0  0  0  0  0  0
    9.2085  -13.9413   20.2032 C   0  0  1  0  0  0  0  0  0  0  0  0
    9.2775  -15.1952   20.9950 C   0  0  0  0  0  0  0  0  0  0  0  0
    8.2605  -15.9271   21.0409 O   0  0  0  0  0  0  0  0  0  0  0  0
   11.3994  -17.9857   20.4524 C   0  0  0  0  0  0  0  0  0  0  0  0
   11.6600  -17.6486   21.8836 C   0  0  1  0  0  0  0  0  0  0  0  0
   12.8334  -16.8675   21.9371 O   0  0  0  0  0  0  0  0  0  0  0  0
   10.5381  -16.8075   22.4638 C   0  0  2  0  0  0  0  0  0  0  0  0
   10.4342  -15.5999   21.6973 N   0  0  0  0  0  0  0  0  0  0  0  0
   10.8858  -16.5288   23.8799 C   0  0  0  0  0  0  0  0  0  0  0  0
   11.2320  -15.2539   24.3019 O   0  0  0  0  0  0  0  0  0  0  0  0
   10.8700  -17.4571   24.7228 O   0  0  0  0  0  0  0  0  0  0  0  0
  2  1  1  6
  3  2  1  0
  4  3  1  0
  5  6  1  0
  5  4  1  0
  7  6  1  0
  8  9  2  0
  8  2  1  0
 10  8  1  0
 11 10  1  0
 12 13  1  0
 12 11  1  0
 13 14  1  0
 14 10  1  0
 14 15  1  1
 16 15  2  0
 18 17  1  6
 19 18  1  0
 20 18  1  0
 20 21  1  6
 21 15  1  0
 22 23  1  0
 22 20  1  0
 24 22  2  0
M  END
$$$$
