KPT.pdb
     RDKit          3D

 24 24  0  0  1  0  0  0  0  0999 V2000
    8.7656  -16.8713   17.2099 N   0  0  0  0  0  0  0  0  0  0  0  0
    7.8674  -16.7391   18.3587 C   0  0  1  0  0  0  0  0  0  0  0  0
    7.2710  -18.0951   18.6859 C   0  0  0  0  0  0  0  0  0  0  0  0
    6.5692  -18.7238   17.5464 C   0  0  0  0  0  0  0  0  0  0  0  0
    5.9976  -20.0703   17.7270 C   0  0  0  0  0  0  0  0  0  0  0  0
    5.3570  -20.6891   16.5357 C   0  0  0  0  0  0  0  0  0  0  0  0
    4.9374  -22.0719   16.8161 N   0  0  0  0  0  0  0  0  0  0  0  0
    8.7093  -16.2279   19.4608 C   0  0  0  0  0  0  0  0  0  0  0  0
    9.9301  -16.5988   19.5710 O   0  0  0  0  0  0  0  0  0  0  0  0
    8.2449  -15.3247   20.4353 N   0  0  0  0  0  0  0  0  0  0  0  0
    6.9532  -14.6719   20.4092 C   0  0  0  0  0  0  0  0  0  0  0  0
    6.6677  -14.5867   21.9175 C   0  0  0  0  0  0  0  0  0  0  0  0
    8.0127  -13.9833   22.3498 C   0  0  0  0  0  0  0  0  0  0  0  0
    8.9668  -14.8841   21.6425 C   0  0  1  0  0  0  0  0  0  0  0  0
    9.3658  -16.0572   22.4603 C   0  0  0  0  0  0  0  0  0  0  0  0
    8.5315  -16.9781   22.6272 O   0  0  0  0  0  0  0  0  0  0  0  0
   13.0730  -18.7086   24.3139 C   0  0  0  0  0  0  0  0  0  0  0  0
   12.5625  -17.5066   23.5899 C   0  0  1  0  0  0  0  0  0  0  0  0
   12.7485  -17.7225   22.2084 O   0  0  0  0  0  0  0  0  0  0  0  0
   11.0734  -17.3200   23.8150 C   0  0  2  0  0  0  0  0  0  0  0  0
   10.6397  -16.1823   23.0572 N   0  0  0  0  0  0  0  0  0  0  0  0
   10.8718  -17.1168   25.2717 C   0  0  0  0  0  0  0  0  0  0  0  0
   10.7512  -18.1902   26.1415 O   0  0  0  0  0  0  0  0  0  0  0  0
   10.8074  -15.9547   25.7387 O   0  0  0  0  0  0  0  0  0  0  0  0
  2  1  1  6
  3  2  1  0
  4  3  1  0
  5  6  1  0
  5  4  1  0
  7  6  1  0
  8  9  2  0
  8  2  1  0
 10  8  1  0
 11 10  1  0
 12 13  1  0
 12 11  1  0
 13 14  1  0
 14 10  1  0
 14 15  1  1
 16 15  2  0
 18 17  1  1
 19 18  1  0
 20 18  1  0
 20 21  1  6
 21 15  1  0
 22 23  1  0
 22 20  1  0
 24 22  2  0
M  END
$$$$
