KPT.pdb
     RDKit          3D

 24 24  0  0  1  0  0  0  0  0999 V2000
    8.5704  -13.4349   19.7443 N   0  0  0  0  0  0  0  0  0  0  0  0
    7.5463  -13.5490   20.7848 C   0  0  1  0  0  0  0  0  0  0  0  0
    6.5571  -14.6315   20.3962 C   0  0  0  0  0  0  0  0  0  0  0  0
    7.1973  -15.9042   20.0005 C   0  0  0  0  0  0  0  0  0  0  0  0
    6.3356  -17.0398   19.6255 C   0  0  0  0  0  0  0  0  0  0  0  0
    7.0223  -18.2709   19.1508 C   0  0  0  0  0  0  0  0  0  0  0  0
    6.0498  -19.3040   18.7585 N   0  0  0  0  0  0  0  0  0  0  0  0
    8.2782  -13.8910   22.0226 C   0  0  0  0  0  0  0  0  0  0  0  0
    9.3862  -14.5306   21.9661 O   0  0  0  0  0  0  0  0  0  0  0  0
    7.8250  -13.5476   23.3102 N   0  0  0  0  0  0  0  0  0  0  0  0
    6.6450  -12.7564   23.5879 C   0  0  0  0  0  0  0  0  0  0  0  0
    6.1939  -13.4055   24.9065 C   0  0  0  0  0  0  0  0  0  0  0  0
    7.5457  -13.3574   25.6350 C   0  0  0  0  0  0  0  0  0  0  0  0
    8.4487  -13.9222   24.5920 C   0  0  1  0  0  0  0  0  0  0  0  0
    8.5855  -15.3975   24.6859 C   0  0  0  0  0  0  0  0  0  0  0  0
    7.5672  -16.1034   24.4933 O   0  0  0  0  0  0  0  0  0  0  0  0
   10.4475  -17.8027   22.7412 C   0  0  0  0  0  0  0  0  0  0  0  0
   10.9659  -17.9570   24.1330 C   0  0  1  0  0  0  0  0  0  0  0  0
   12.1178  -17.1523   24.2571 O   0  0  0  0  0  0  0  0  0  0  0  0
    9.9605  -17.4559   25.1532 C   0  0  2  0  0  0  0  0  0  0  0  0
    9.8079  -16.0404   24.9815 N   0  0  0  0  0  0  0  0  0  0  0  0
   10.4954  -17.7899   26.4972 C   0  0  0  0  0  0  0  0  0  0  0  0
   11.0261  -16.8137   27.3271 O   0  0  0  0  0  0  0  0  0  0  0  0
   10.4729  -18.9762   26.9029 O   0  0  0  0  0  0  0  0  0  0  0  0
  2  1  1  6
  3  2  1  0
  4  3  1  0
  5  6  1  0
  5  4  1  0
  7  6  1  0
  8  9  2  0
  8  2  1  0
 10  8  1  0
 11 10  1  0
 12 13  1  0
 12 11  1  0
 13 14  1  0
 14 10  1  0
 14 15  1  1
 16 15  2  0
 18 17  1  6
 19 18  1  0
 20 18  1  0
 20 21  1  1
 21 15  1  0
 22 23  1  0
 22 20  1  0
 24 22  2  0
M  END
$$$$
