KPT.pdb
     RDKit          3D

 24 24  0  0  1  0  0  0  0  0999 V2000
    8.2262  -14.2164   21.2150 N   0  0  0  0  0  0  0  0  0  0  0  0
    7.2938  -14.0892   22.3369 C   0  0  1  0  0  0  0  0  0  0  0  0
    6.2786  -15.2146   22.2735 C   0  0  0  0  0  0  0  0  0  0  0  0
    6.8858  -16.5502   22.0904 C   0  0  0  0  0  0  0  0  0  0  0  0
    5.9970  -17.7230   22.0072 C   0  0  0  0  0  0  0  0  0  0  0  0
    6.6514  -19.0442   21.8106 C   0  0  0  0  0  0  0  0  0  0  0  0
    5.6533  -20.1212   21.7059 N   0  0  0  0  0  0  0  0  0  0  0  0
    8.1284  -14.1688   23.5542 C   0  0  0  0  0  0  0  0  0  0  0  0
    9.1755  -14.9057   23.5765 O   0  0  0  0  0  0  0  0  0  0  0  0
    7.8421  -13.4618   24.7371 N   0  0  0  0  0  0  0  0  0  0  0  0
    6.7610  -12.5116   24.8916 C   0  0  0  0  0  0  0  0  0  0  0  0
    6.4057  -12.7506   26.3681 C   0  0  0  0  0  0  0  0  0  0  0  0
    7.8272  -12.6524   26.9424 C   0  0  0  0  0  0  0  0  0  0  0  0
    8.5690  -13.5543   26.0160 C   0  0  1  0  0  0  0  0  0  0  0  0
    8.6041  -14.9618   26.4871 C   0  0  0  0  0  0  0  0  0  0  0  0
    7.5236  -15.5943   26.5543 O   0  0  0  0  0  0  0  0  0  0  0  0
   10.4474  -17.7888   25.0896 C   0  0  0  0  0  0  0  0  0  0  0  0
   10.8653  -17.7347   26.5221 C   0  0  1  0  0  0  0  0  0  0  0  0
   12.0877  -17.0341   26.5898 O   0  0  0  0  0  0  0  0  0  0  0  0
    9.8623  -16.9624   27.3590 C   0  0  2  0  0  0  0  0  0  0  0  0
    9.7968  -15.6188   26.8622 N   0  0  0  0  0  0  0  0  0  0  0  0
   10.3390  -17.0039   28.7643 C   0  0  0  0  0  0  0  0  0  0  0  0
   10.3376  -18.1834   29.4937 O   0  0  0  0  0  0  0  0  0  0  0  0
   10.7544  -15.9570   29.3157 O   0  0  0  0  0  0  0  0  0  0  0  0
  2  1  1  6
  3  2  1  0
  4  3  1  0
  5  6  1  0
  5  4  1  0
  7  6  1  0
  8  9  2  0
  8  2  1  0
 10  8  1  0
 11 10  1  0
 12 13  1  0
 12 11  1  0
 13 14  1  0
 14 10  1  0
 14 15  1  1
 16 15  2  0
 18 17  1  6
 19 18  1  0
 20 18  1  0
 20 21  1  6
 21 15  1  0
 22 23  1  0
 22 20  1  0
 24 22  2  0
M  END
$$$$
