KPT.pdb
     RDKit          3D

 24 24  0  0  1  0  0  0  0  0999 V2000
    5.8026  -19.6352   23.7399 N   0  0  0  0  0  0  0  0  0  0  0  0
    6.1163  -18.5171   24.6318 C   0  0  1  0  0  0  0  0  0  0  0  0
    6.5778  -19.0600   25.9710 C   0  0  0  0  0  0  0  0  0  0  0  0
    7.6937  -20.0243   25.8663 C   0  0  0  0  0  0  0  0  0  0  0  0
    8.9021  -19.7948   26.6783 C   0  0  0  0  0  0  0  0  0  0  0  0
    9.9828  -20.8111   26.5695 C   0  0  0  0  0  0  0  0  0  0  0  0
   11.1969  -20.3735   27.2777 N   0  0  0  0  0  0  0  0  0  0  0  0
    7.1837  -17.7557   23.9493 C   0  0  0  0  0  0  0  0  0  0  0  0
    7.9184  -18.3187   23.0643 O   0  0  0  0  0  0  0  0  0  0  0  0
    7.4586  -16.4008   24.2134 N   0  0  0  0  0  0  0  0  0  0  0  0
    6.6717  -15.5514   25.0822 C   0  0  0  0  0  0  0  0  0  0  0  0
    7.7800  -14.6465   25.6445 C   0  0  0  0  0  0  0  0  0  0  0  0
    8.4363  -14.2668   24.3083 C   0  0  0  0  0  0  0  0  0  0  0  0
    8.5763  -15.6074   23.6716 C   0  0  1  0  0  0  0  0  0  0  0  0
    9.8714  -16.2618   23.9853 C   0  0  0  0  0  0  0  0  0  0  0  0
    9.9902  -16.8497   25.0863 O   0  0  0  0  0  0  0  0  0  0  0  0
   13.1202  -16.0439   21.2112 C   0  0  0  0  0  0  0  0  0  0  0  0
   12.6993  -17.3310   21.8403 C   0  0  1  0  0  0  0  0  0  0  0  0
   13.8500  -18.1313   21.9991 O   0  0  0  0  0  0  0  0  0  0  0  0
   12.1206  -17.1035   23.2245 C   0  0  2  0  0  0  0  0  0  0  0  0
   10.9731  -16.2522   23.1015 N   0  0  0  0  0  0  0  0  0  0  0  0
   13.1840  -16.4737   24.0468 C   0  0  0  0  0  0  0  0  0  0  0  0
   14.2860  -17.1958   24.4799 O   0  0  0  0  0  0  0  0  0  0  0  0
   13.0962  -15.2635   24.3637 O   0  0  0  0  0  0  0  0  0  0  0  0
  2  1  1  6
  3  2  1  0
  4  3  1  0
  5  6  1  0
  5  4  1  0
  7  6  1  0
  8  9  2  0
  8  2  1  0
 10  8  1  0
 11 10  1  0
 12 13  1  0
 12 11  1  0
 13 14  1  0
 14 10  1  0
 14 15  1  1
 16 15  2  0
 18 17  1  1
 19 18  1  0
 20 18  1  0
 20 21  1  6
 21 15  1  0
 22 23  1  0
 22 20  1  0
 24 22  2  0
M  END
$$$$
