KPT.pdb
     RDKit          3D

 24 24  0  0  1  0  0  0  0  0999 V2000
    9.1745  -16.9586   16.8971 N   0  0  0  0  0  0  0  0  0  0  0  0
    8.1504  -16.9826   17.9434 C   0  0  1  0  0  0  0  0  0  0  0  0
    7.6856  -18.4109   18.1556 C   0  0  0  0  0  0  0  0  0  0  0  0
    6.6125  -18.5407   19.1644 C   0  0  0  0  0  0  0  0  0  0  0  0
    6.0309  -19.8731   19.4072 C   0  0  0  0  0  0  0  0  0  0  0  0
    4.9109  -19.9451   20.3834 C   0  0  0  0  0  0  0  0  0  0  0  0
    4.3441  -21.3023   20.4427 N   0  0  0  0  0  0  0  0  0  0  0  0
    8.8052  -16.4322   19.1489 C   0  0  0  0  0  0  0  0  0  0  0  0
    9.9001  -16.9370   19.5807 O   0  0  0  0  0  0  0  0  0  0  0  0
    8.2898  -15.3478   19.8834 N   0  0  0  0  0  0  0  0  0  0  0  0
    7.0737  -14.6328   19.5591 C   0  0  0  0  0  0  0  0  0  0  0  0
    6.5926  -14.2710   20.9738 C   0  0  0  0  0  0  0  0  0  0  0  0
    7.9120  -13.6839   21.4981 C   0  0  0  0  0  0  0  0  0  0  0  0
    8.8743  -14.7493   21.0969 C   0  0  1  0  0  0  0  0  0  0  0  0
    9.0570  -15.7851   22.1446 C   0  0  0  0  0  0  0  0  0  0  0  0
    8.0647  -16.4741   22.4802 O   0  0  0  0  0  0  0  0  0  0  0  0
   11.9033  -18.3391   22.2405 C   0  0  0  0  0  0  0  0  0  0  0  0
   11.8510  -17.6670   23.5728 C   0  0  1  0  0  0  0  0  0  0  0  0
   12.8189  -16.6409   23.5778 O   0  0  0  0  0  0  0  0  0  0  0  0
   10.5033  -17.0092   23.8047 C   0  0  2  0  0  0  0  0  0  0  0  0
   10.2952  -16.0288   22.7790 N   0  0  0  0  0  0  0  0  0  0  0  0
   10.5432  -16.3904   25.1535 C   0  0  0  0  0  0  0  0  0  0  0  0
   10.5529  -17.1646   26.3041 O   0  0  0  0  0  0  0  0  0  0  0  0
   10.5690  -15.1420   25.2690 O   0  0  0  0  0  0  0  0  0  0  0  0
  2  1  1  6
  3  2  1  0
  4  3  1  0
  5  6  1  0
  5  4  1  0
  7  6  1  0
  8  9  2  0
  8  2  1  0
 10  8  1  0
 11 10  1  0
 12 13  1  0
 12 11  1  0
 13 14  1  0
 14 10  1  0
 14 15  1  1
 16 15  2  0
 18 17  1  6
 19 18  1  0
 20 18  1  0
 20 21  1  6
 21 15  1  0
 22 23  1  0
 22 20  1  0
 24 22  2  0
M  END
$$$$
