KPT.pdb
     RDKit          3D

 24 24  0  0  1  0  0  0  0  0999 V2000
   11.2757  -15.1780   16.3190 N   0  0  0  0  0  0  0  0  0  0  0  0
    9.9281  -14.9720   16.8535 C   0  0  1  0  0  0  0  0  0  0  0  0
    9.0977  -16.2180   16.6101 C   0  0  0  0  0  0  0  0  0  0  0  0
    9.6601  -17.4353   17.2328 C   0  0  0  0  0  0  0  0  0  0  0  0
    8.9471  -18.7127   17.0530 C   0  0  0  0  0  0  0  0  0  0  0  0
    9.5774  -19.9195   17.6521 C   0  0  0  0  0  0  0  0  0  0  0  0
    8.7478  -21.1159   17.4342 N   0  0  0  0  0  0  0  0  0  0  0  0
   10.1122  -14.7065   18.2959 C   0  0  0  0  0  0  0  0  0  0  0  0
   11.1049  -15.2120   18.9275 O   0  0  0  0  0  0  0  0  0  0  0  0
    9.2389  -13.9036   19.0532 N   0  0  0  0  0  0  0  0  0  0  0  0
    8.1724  -13.0943   18.5025 C   0  0  0  0  0  0  0  0  0  0  0  0
    7.1463  -13.1947   19.6429 C   0  0  0  0  0  0  0  0  0  0  0  0
    8.0887  -12.8377   20.8025 C   0  0  0  0  0  0  0  0  0  0  0  0
    9.2408  -13.7399   20.5181 C   0  0  1  0  0  0  0  0  0  0  0  0
    9.1159  -15.0611   21.1835 C   0  0  0  0  0  0  0  0  0  0  0  0
    8.4811  -15.9673   20.5937 O   0  0  0  0  0  0  0  0  0  0  0  0
   12.2112  -16.5952   22.1482 C   0  0  0  0  0  0  0  0  0  0  0  0
   10.9301  -17.3623   22.1475 C   0  0  1  0  0  0  0  0  0  0  0  0
   11.1737  -18.6113   22.7561 O   0  0  0  0  0  0  0  0  0  0  0  0
    9.8693  -16.6622   22.9766 C   0  0  2  0  0  0  0  0  0  0  0  0
    9.6787  -15.3428   22.4480 N   0  0  0  0  0  0  0  0  0  0  0  0
   10.3604  -16.6252   24.3771 C   0  0  0  0  0  0  0  0  0  0  0  0
   10.4351  -17.7759   25.1476 O   0  0  0  0  0  0  0  0  0  0  0  0
   10.7184  -15.5366   24.8864 O   0  0  0  0  0  0  0  0  0  0  0  0
  2  1  1  6
  3  2  1  0
  4  3  1  0
  5  6  1  0
  5  4  1  0
  7  6  1  0
  8  9  2  0
  8  2  1  0
 10  8  1  0
 11 10  1  0
 12 13  1  0
 12 11  1  0
 13 14  1  0
 14 10  1  0
 14 15  1  1
 16 15  2  0
 18 17  1  1
 19 18  1  0
 20 18  1  0
 20 21  1  6
 21 15  1  0
 22 23  1  0
 22 20  1  0
 24 22  2  0
M  END
$$$$
