KPT.pdb
     RDKit          3D

 24 24  0  0  1  0  0  0  0  0999 V2000
    8.3371  -17.9973   17.7193 N   0  0  0  0  0  0  0  0  0  0  0  0
    7.6176  -17.6286   18.9402 C   0  0  1  0  0  0  0  0  0  0  0  0
    7.0450  -18.8791   19.5803 C   0  0  0  0  0  0  0  0  0  0  0  0
    7.1483  -20.0817   18.7264 C   0  0  0  0  0  0  0  0  0  0  0  0
    6.0046  -21.0100   18.6751 C   0  0  0  0  0  0  0  0  0  0  0  0
    6.1624  -22.2176   17.8211 C   0  0  0  0  0  0  0  0  0  0  0  0
    4.9661  -23.0730   17.8842 N   0  0  0  0  0  0  0  0  0  0  0  0
    8.6212  -16.9766   19.8078 C   0  0  0  0  0  0  0  0  0  0  0  0
    9.8423  -17.3621   19.7911 O   0  0  0  0  0  0  0  0  0  0  0  0
    8.3166  -15.9184   20.6844 N   0  0  0  0  0  0  0  0  0  0  0  0
    7.0362  -15.2471   20.7570 C   0  0  0  0  0  0  0  0  0  0  0  0
    6.9946  -14.9152   22.2576 C   0  0  0  0  0  0  0  0  0  0  0  0
    8.3904  -14.2831   22.3694 C   0  0  0  0  0  0  0  0  0  0  0  0
    9.2210  -15.3081   21.6755 C   0  0  1  0  0  0  0  0  0  0  0  0
    9.7471  -16.3448   22.5988 C   0  0  0  0  0  0  0  0  0  0  0  0
    8.9636  -17.2374   23.0005 O   0  0  0  0  0  0  0  0  0  0  0  0
   13.8252  -18.4662   24.4554 C   0  0  0  0  0  0  0  0  0  0  0  0
   13.1679  -17.3515   23.7103 C   0  0  1  0  0  0  0  0  0  0  0  0
   13.4706  -17.5086   22.3416 O   0  0  0  0  0  0  0  0  0  0  0  0
   11.6576  -17.4166   23.8428 C   0  0  2  0  0  0  0  0  0  0  0  0
   11.0873  -16.3709   23.0441 N   0  0  0  0  0  0  0  0  0  0  0  0
   11.3353  -17.2442   25.2816 C   0  0  0  0  0  0  0  0  0  0  0  0
   11.1451  -18.3359   26.1156 O   0  0  0  0  0  0  0  0  0  0  0  0
   11.2301  -16.0924   25.7660 O   0  0  0  0  0  0  0  0  0  0  0  0
  2  1  1  6
  3  2  1  0
  4  3  1  0
  5  6  1  0
  5  4  1  0
  7  6  1  0
  8  9  2  0
  8  2  1  0
 10  8  1  0
 11 10  1  0
 12 13  1  0
 12 11  1  0
 13 14  1  0
 14 10  1  0
 14 15  1  1
 16 15  2  0
 18 17  1  1
 19 18  1  0
 20 18  1  0
 20 21  1  6
 21 15  1  0
 22 23  1  0
 22 20  1  0
 24 22  2  0
M  END
$$$$
