KPT.pdb
     RDKit          3D

 24 24  0  0  1  0  0  0  0  0999 V2000
    8.4930  -15.0007   21.3965 N   0  0  0  0  0  0  0  0  0  0  0  0
    7.5180  -14.5755   22.4029 C   0  0  1  0  0  0  0  0  0  0  0  0
    6.4319  -15.6277   22.5228 C   0  0  0  0  0  0  0  0  0  0  0  0
    6.7310  -16.8742   21.7860 C   0  0  0  0  0  0  0  0  0  0  0  0
    6.2490  -18.1526   22.3388 C   0  0  0  0  0  0  0  0  0  0  0  0
    6.4061  -19.3546   21.4767 C   0  0  0  0  0  0  0  0  0  0  0  0
    5.9076  -20.5629   22.1537 N   0  0  0  0  0  0  0  0  0  0  0  0
    8.2848  -14.4305   23.6582 C   0  0  0  0  0  0  0  0  0  0  0  0
    9.3511  -15.1131   23.8502 O   0  0  0  0  0  0  0  0  0  0  0  0
    7.9107  -13.5586   24.6979 N   0  0  0  0  0  0  0  0  0  0  0  0
    6.7826  -12.6526   24.6518 C   0  0  0  0  0  0  0  0  0  0  0  0
    6.3672  -12.6697   26.1319 C   0  0  0  0  0  0  0  0  0  0  0  0
    7.7535  -12.4080   26.7400 C   0  0  0  0  0  0  0  0  0  0  0  0
    8.5783  -13.4075   26.0033 C   0  0  1  0  0  0  0  0  0  0  0  0
    8.6524  -14.7175   26.6978 C   0  0  0  0  0  0  0  0  0  0  0  0
    7.6054  -15.4006   26.7939 O   0  0  0  0  0  0  0  0  0  0  0  0
   10.5269  -17.6691   25.9114 C   0  0  0  0  0  0  0  0  0  0  0  0
   10.9465  -17.3541   27.3094 C   0  0  1  0  0  0  0  0  0  0  0  0
   12.1632  -16.6431   27.2459 O   0  0  0  0  0  0  0  0  0  0  0  0
    9.9385  -16.4514   27.9962 C   0  0  2  0  0  0  0  0  0  0  0  0
    9.8463  -15.2279   27.2539 N   0  0  0  0  0  0  0  0  0  0  0  0
   10.4284  -16.2178   29.3780 C   0  0  0  0  0  0  0  0  0  0  0  0
   10.4784  -17.2434   30.3103 O   0  0  0  0  0  0  0  0  0  0  0  0
   10.8080  -15.0734   29.7226 O   0  0  0  0  0  0  0  0  0  0  0  0
  2  1  1  6
  3  2  1  0
  4  3  1  0
  5  6  1  0
  5  4  1  0
  7  6  1  0
  8  9  2  0
  8  2  1  0
 10  8  1  0
 11 10  1  0
 12 13  1  0
 12 11  1  0
 13 14  1  0
 14 10  1  0
 14 15  1  1
 16 15  2  0
 18 17  1  6
 19 18  1  0
 20 18  1  0
 20 21  1  6
 21 15  1  0
 22 23  1  0
 22 20  1  0
 24 22  2  0
M  END
$$$$
