KPT.pdb
     RDKit          3D

 24 24  0  0  1  0  0  0  0  0999 V2000
    8.9963  -17.4575   17.5501 N   0  0  0  0  0  0  0  0  0  0  0  0
    8.0260  -17.1619   18.6063 C   0  0  1  0  0  0  0  0  0  0  0  0
    7.3425  -18.4476   19.0316 C   0  0  0  0  0  0  0  0  0  0  0  0
    6.6047  -19.1157   17.9383 C   0  0  0  0  0  0  0  0  0  0  0  0
    5.1981  -19.4933   18.1651 C   0  0  0  0  0  0  0  0  0  0  0  0
    4.5185  -20.2291   17.0654 C   0  0  0  0  0  0  0  0  0  0  0  0
    3.1394  -20.5851   17.4372 N   0  0  0  0  0  0  0  0  0  0  0  0
    8.8113  -16.5658   19.7076 C   0  0  0  0  0  0  0  0  0  0  0  0
    9.9692  -17.0265   20.0027 O   0  0  0  0  0  0  0  0  0  0  0  0
    8.3579  -15.4831   20.4843 N   0  0  0  0  0  0  0  0  0  0  0  0
    7.1821  -14.6909   20.1923 C   0  0  0  0  0  0  0  0  0  0  0  0
    6.7249  -14.3566   21.6215 C   0  0  0  0  0  0  0  0  0  0  0  0
    8.0757  -13.8627   22.1617 C   0  0  0  0  0  0  0  0  0  0  0  0
    8.9772  -14.9634   21.7167 C   0  0  1  0  0  0  0  0  0  0  0  0
    9.1052  -16.0462   22.7243 C   0  0  0  0  0  0  0  0  0  0  0  0
    8.1202  -16.7971   22.9198 O   0  0  0  0  0  0  0  0  0  0  0  0
   11.9746  -19.1923   25.0421 C   0  0  0  0  0  0  0  0  0  0  0  0
   11.7675  -18.0281   24.1303 C   0  0  1  0  0  0  0  0  0  0  0  0
   11.6881  -18.5210   22.8109 O   0  0  0  0  0  0  0  0  0  0  0  0
   10.4543  -17.3265   24.4233 C   0  0  2  0  0  0  0  0  0  0  0  0
   10.2835  -16.2683   23.4708 N   0  0  0  0  0  0  0  0  0  0  0  0
   10.5349  -16.8060   25.8113 C   0  0  0  0  0  0  0  0  0  0  0  0
   10.2449  -17.6106   26.9031 O   0  0  0  0  0  0  0  0  0  0  0  0
   10.8712  -15.6152   26.0149 O   0  0  0  0  0  0  0  0  0  0  0  0
  2  1  1  6
  3  2  1  0
  4  3  1  0
  5  6  1  0
  5  4  1  0
  7  6  1  0
  8  9  2  0
  8  2  1  0
 10  8  1  0
 11 10  1  0
 12 13  1  0
 12 11  1  0
 13 14  1  0
 14 10  1  0
 14 15  1  1
 16 15  2  0
 18 17  1  1
 19 18  1  0
 20 18  1  0
 20 21  1  6
 21 15  1  0
 22 23  1  0
 22 20  1  0
 24 22  2  0
M  END
$$$$
