KPT.pdb
     RDKit          3D

 24 24  0  0  1  0  0  0  0  0999 V2000
    8.4460  -14.5512   21.3136 N   0  0  0  0  0  0  0  0  0  0  0  0
    7.4572  -14.2169   22.3406 C   0  0  1  0  0  0  0  0  0  0  0  0
    6.3360  -15.2382   22.3066 C   0  0  0  0  0  0  0  0  0  0  0  0
    6.7868  -16.6007   21.9507 C   0  0  0  0  0  0  0  0  0  0  0  0
    6.0153  -17.7519   22.4528 C   0  0  0  0  0  0  0  0  0  0  0  0
    6.5121  -19.1030   22.0785 C   0  0  0  0  0  0  0  0  0  0  0  0
    5.6601  -20.1593   22.6490 N   0  0  0  0  0  0  0  0  0  0  0  0
    8.1930  -14.2499   23.6221 C   0  0  0  0  0  0  0  0  0  0  0  0
    9.2372  -14.9796   23.7525 O   0  0  0  0  0  0  0  0  0  0  0  0
    7.8119  -13.5043   24.7534 N   0  0  0  0  0  0  0  0  0  0  0  0
    6.7254  -12.5482   24.7863 C   0  0  0  0  0  0  0  0  0  0  0  0
    6.2474  -12.7385   26.2350 C   0  0  0  0  0  0  0  0  0  0  0  0
    7.6165  -12.6233   26.9224 C   0  0  0  0  0  0  0  0  0  0  0  0
    8.4294  -13.5559   26.0908 C   0  0  1  0  0  0  0  0  0  0  0  0
    8.4196  -14.9472   26.6086 C   0  0  0  0  0  0  0  0  0  0  0  0
    7.3355  -15.5772   26.6025 O   0  0  0  0  0  0  0  0  0  0  0  0
   11.8588  -17.1795   26.3920 C   0  0  0  0  0  0  0  0  0  0  0  0
   10.4657  -17.7142   26.4482 C   0  0  1  0  0  0  0  0  0  0  0  0
   10.5359  -19.0613   26.8609 O   0  0  0  0  0  0  0  0  0  0  0  0
    9.6340  -16.9750   27.4800 C   0  0  2  0  0  0  0  0  0  0  0  0
    9.5735  -15.5917   27.1066 N   0  0  0  0  0  0  0  0  0  0  0  0
   10.2998  -17.1588   28.7940 C   0  0  0  0  0  0  0  0  0  0  0  0
   10.2800  -18.3806   29.4499 O   0  0  0  0  0  0  0  0  0  0  0  0
   10.8966  -16.1968   29.3335 O   0  0  0  0  0  0  0  0  0  0  0  0
  2  1  1  6
  3  2  1  0
  4  3  1  0
  5  6  1  0
  5  4  1  0
  7  6  1  0
  8  9  2  0
  8  2  1  0
 10  8  1  0
 11 10  1  0
 12 13  1  0
 12 11  1  0
 13 14  1  0
 14 10  1  0
 14 15  1  1
 16 15  2  0
 18 17  1  1
 19 18  1  0
 20 18  1  0
 20 21  1  6
 21 15  1  0
 22 23  1  0
 22 20  1  0
 24 22  2  0
M  END
$$$$
