IDQ.pdb
     RDKit          3D

 26 25  0  0  1  0  0  0  0  0999 V2000
    8.2442  -12.2209   27.0718 C   0  0  0  0  0  0  0  0  0  0  0  0
    7.7037  -13.5447   26.6322 C   0  0  0  0  0  0  0  0  0  0  0  0
    6.9427  -13.4769   25.3266 C   0  0  2  0  0  0  0  0  0  0  0  0
    5.7142  -12.5932   25.4504 C   0  0  0  0  0  0  0  0  0  0  0  0
    6.5720  -14.8816   24.9146 C   0  0  2  0  0  0  0  0  0  0  0  0
    5.9267  -15.5258   26.0333 N   0  0  0  0  0  0  0  0  0  0  0  0
    7.8043  -15.6437   24.5287 C   0  0  0  0  0  0  0  0  0  0  0  0
    8.2524  -16.5116   25.3143 O   0  0  0  0  0  0  0  0  0  0  0  0
    8.4804  -15.4179   23.3079 N   0  0  0  0  0  0  0  0  0  0  0  0
    9.5917  -16.2822   22.9668 C   0  0  1  0  0  0  0  0  0  0  0  0
   10.0899  -15.8573   21.6047 C   0  0  0  0  0  0  0  0  0  0  0  0
   11.0519  -16.7925   21.0318 C   0  0  0  0  0  0  0  0  0  0  0  0
   11.4144  -17.8011   21.6729 O   0  0  0  0  0  0  0  0  0  0  0  0
   10.6899  -16.1603   23.9748 C   0  0  0  0  0  0  0  0  0  0  0  0
   11.2198  -15.0580   24.2524 O   0  0  0  0  0  0  0  0  0  0  0  0
   11.5529  -16.5378   19.7646 O   0  0  0  0  0  0  0  0  0  0  0  0
    9.4287  -15.4260   28.8741 N   0  0  0  0  0  0  0  0  0  0  0  0
   10.7828  -15.6996   29.2113 C   0  0  0  0  0  0  0  0  0  0  0  0
   11.2037  -15.2846   30.3430 O   0  0  0  0  0  0  0  0  0  0  0  0
   11.6927  -16.4384   28.2982 C   0  0  0  0  0  0  0  0  0  0  0  0
   11.0736  -16.4974   26.9349 C   0  0  0  0  0  0  0  0  0  0  0  0
   11.9140  -17.2252   25.9224 C   0  0  2  0  0  0  0  0  0  0  0  0
   11.1878  -17.2983   24.6705 N   0  0  0  0  0  0  0  0  0  0  0  0
   12.3356  -18.5664   26.3836 C   0  0  0  0  0  0  0  0  0  0  0  0
   13.4418  -18.8032   27.1757 O   0  0  0  0  0  0  0  0  0  0  0  0
   11.6473  -19.5528   26.0349 O   0  0  0  0  0  0  0  0  0  0  0  0
  2  1  1  0
  3  5  1  0
  3  2  1  0
  3  4  1  1
  5  6  1  1
  7  5  1  0
  7  8  2  0
  9  7  1  0
 10  9  1  0
 11 12  1  0
 10 11  1  6
 12 16  1  0
 13 12  2  0
 14 10  1  0
 15 14  2  0
 17 18  1  0
 18 19  2  0
 18 20  1  0
 20 21  1  0
 22 21  1  1
 22 23  1  0
 22 24  1  0
 23 14  1  0
 24 25  1  0
 26 24  2  0
M  END
$$$$
