IDQ.pdb
     RDKit          3D

 26 25  0  0  1  0  0  0  0  0999 V2000
    7.2758  -11.6474   26.6248 C   0  0  0  0  0  0  0  0  0  0  0  0
    6.9564  -13.1078   26.5709 C   0  0  0  0  0  0  0  0  0  0  0  0
    6.9040  -13.6576   25.1626 C   0  0  2  0  0  0  0  0  0  0  0  0
    5.8583  -12.9384   24.3291 C   0  0  0  0  0  0  0  0  0  0  0  0
    6.6257  -15.1399   25.2370 C   0  0  2  0  0  0  0  0  0  0  0  0
    6.5808  -15.5226   26.6279 N   0  0  0  0  0  0  0  0  0  0  0  0
    7.7101  -15.9001   24.5337 C   0  0  0  0  0  0  0  0  0  0  0  0
    7.6439  -17.1510   24.4891 O   0  0  0  0  0  0  0  0  0  0  0  0
    8.8068  -15.2550   23.9176 N   0  0  0  0  0  0  0  0  0  0  0  0
    9.8306  -16.0750   23.3028 C   0  0  1  0  0  0  0  0  0  0  0  0
   10.2623  -15.3780   22.0333 C   0  0  0  0  0  0  0  0  0  0  0  0
    9.8412  -16.0799   20.8256 C   0  0  0  0  0  0  0  0  0  0  0  0
   10.2167  -17.2513   20.6099 O   0  0  0  0  0  0  0  0  0  0  0  0
   11.0008  -16.2413   24.2192 C   0  0  0  0  0  0  0  0  0  0  0  0
   11.6543  -15.2613   24.6498 O   0  0  0  0  0  0  0  0  0  0  0  0
    9.0180  -15.4202   19.9262 O   0  0  0  0  0  0  0  0  0  0  0  0
   10.2598  -15.2308   28.7533 N   0  0  0  0  0  0  0  0  0  0  0  0
   11.0947  -16.3018   29.1752 C   0  0  0  0  0  0  0  0  0  0  0  0
   11.7552  -16.1434   30.2564 O   0  0  0  0  0  0  0  0  0  0  0  0
   11.2108  -17.5667   28.4044 C   0  0  0  0  0  0  0  0  0  0  0  0
   10.8597  -17.2995   26.9724 C   0  0  0  0  0  0  0  0  0  0  0  0
   11.8743  -17.8255   25.9950 C   0  0  2  0  0  0  0  0  0  0  0  0
   11.4301  -17.5294   24.6478 N   0  0  0  0  0  0  0  0  0  0  0  0
   12.1467  -19.2690   26.1710 C   0  0  0  0  0  0  0  0  0  0  0  0
   11.3841  -20.2770   25.6145 O   0  0  0  0  0  0  0  0  0  0  0  0
   13.1316  -19.6020   26.8692 O   0  0  0  0  0  0  0  0  0  0  0  0
  2  1  1  0
  3  5  1  0
  3  2  1  0
  3  4  1  6
  5  6  1  1
  7  5  1  0
  7  8  2  0
  9  7  1  0
 10  9  1  0
 11 12  1  0
 10 11  1  6
 12 16  1  0
 13 12  2  0
 14 10  1  0
 15 14  2  0
 17 18  1  0
 18 19  2  0
 18 20  1  0
 20 21  1  0
 22 21  1  1
 22 23  1  0
 22 24  1  0
 23 14  1  0
 24 25  1  0
 26 24  2  0
M  END
$$$$
