IDQ.pdb
     RDKit          3D

 26 25  0  0  1  0  0  0  0  0999 V2000
    5.2000  -11.5144   25.9800 C   0  0  0  0  0  0  0  0  0  0  0  0
    6.0058  -12.3338   26.9376 C   0  0  0  0  0  0  0  0  0  0  0  0
    7.0143  -13.2318   26.2557 C   0  0  2  0  0  0  0  0  0  0  0  0
    8.0085  -12.4241   25.4404 C   0  0  0  0  0  0  0  0  0  0  0  0
    6.2684  -14.2211   25.3925 C   0  0  2  0  0  0  0  0  0  0  0  0
    5.3777  -14.9784   26.2387 N   0  0  0  0  0  0  0  0  0  0  0  0
    7.2381  -15.1443   24.7174 C   0  0  0  0  0  0  0  0  0  0  0  0
    7.7526  -16.0752   25.3807 O   0  0  0  0  0  0  0  0  0  0  0  0
    7.5938  -15.0020   23.3566 N   0  0  0  0  0  0  0  0  0  0  0  0
    8.5623  -15.9234   22.7987 C   0  0  1  0  0  0  0  0  0  0  0  0
    8.5832  -15.7027   21.3038 C   0  0  0  0  0  0  0  0  0  0  0  0
    9.5206  -16.5798   20.6106 C   0  0  0  0  0  0  0  0  0  0  0  0
    9.5407  -17.8046   20.8537 O   0  0  0  0  0  0  0  0  0  0  0  0
    9.9219  -15.6783   23.3717 C   0  0  0  0  0  0  0  0  0  0  0  0
   10.5549  -14.6176   23.1546 O   0  0  0  0  0  0  0  0  0  0  0  0
   10.3852  -16.0255   19.6796 O   0  0  0  0  0  0  0  0  0  0  0  0
   11.4714  -14.0820   28.3230 N   0  0  0  0  0  0  0  0  0  0  0  0
   10.9425  -15.4016   28.3540 C   0  0  0  0  0  0  0  0  0  0  0  0
   10.4031  -15.7950   29.4423 O   0  0  0  0  0  0  0  0  0  0  0  0
   11.0034  -16.3072   27.1775 C   0  0  0  0  0  0  0  0  0  0  0  0
   11.6827  -15.5947   26.0479 C   0  0  0  0  0  0  0  0  0  0  0  0
   11.8576  -16.4431   24.8187 C   0  0  2  0  0  0  0  0  0  0  0  0
   10.5647  -16.6449   24.1960 N   0  0  0  0  0  0  0  0  0  0  0  0
   12.5304  -17.7304   25.1004 C   0  0  0  0  0  0  0  0  0  0  0  0
   11.9637  -18.9691   24.8732 O   0  0  0  0  0  0  0  0  0  0  0  0
   13.6886  -17.6984   25.5757 O   0  0  0  0  0  0  0  0  0  0  0  0
  2  1  1  0
  3  5  1  0
  3  2  1  0
  3  4  1  6
  5  6  1  1
  7  5  1  0
  7  8  2  0
  9  7  1  0
 10  9  1  0
 11 12  1  0
 10 11  1  6
 12 16  1  0
 13 12  2  0
 14 10  1  0
 15 14  2  0
 17 18  1  0
 18 19  2  0
 18 20  1  0
 20 21  1  0
 22 21  1  1
 22 23  1  0
 22 24  1  0
 23 14  1  0
 24 25  1  0
 26 24  2  0
M  END
$$$$
