IDQ.pdb
     RDKit          3D

 26 25  0  0  1  0  0  0  0  0999 V2000
    7.0120  -12.0510   19.8226 C   0  0  0  0  0  0  0  0  0  0  0  0
    7.3288  -13.4424   19.3739 C   0  0  0  0  0  0  0  0  0  0  0  0
    8.0292  -14.2673   20.4309 C   0  0  2  0  0  0  0  0  0  0  0  0
    9.2913  -13.5793   20.9199 C   0  0  0  0  0  0  0  0  0  0  0  0
    8.3323  -15.6291   19.8529 C   0  0  2  0  0  0  0  0  0  0  0  0
    7.0819  -16.2663   19.5163 N   0  0  0  0  0  0  0  0  0  0  0  0
    9.0728  -16.4586   20.8589 C   0  0  0  0  0  0  0  0  0  0  0  0
    8.4238  -17.0536   21.7511 O   0  0  0  0  0  0  0  0  0  0  0  0
   10.4798  -16.5941   20.8370 N   0  0  0  0  0  0  0  0  0  0  0  0
   11.1087  -17.4072   21.8577 C   0  0  1  0  0  0  0  0  0  0  0  0
   12.5756  -17.5107   21.5092 C   0  0  0  0  0  0  0  0  0  0  0  0
   13.3276  -18.3382   22.4463 C   0  0  0  0  0  0  0  0  0  0  0  0
   12.7450  -19.1945   23.1444 O   0  0  0  0  0  0  0  0  0  0  0  0
   10.9457  -16.7861   23.2084 C   0  0  0  0  0  0  0  0  0  0  0  0
   11.1482  -15.5647   23.4088 O   0  0  0  0  0  0  0  0  0  0  0  0
   14.6980  -18.1538   22.5442 O   0  0  0  0  0  0  0  0  0  0  0  0
    7.2546  -14.0289   25.2872 N   0  0  0  0  0  0  0  0  0  0  0  0
    6.8772  -15.3839   25.0784 C   0  0  0  0  0  0  0  0  0  0  0  0
    5.6477  -15.6216   24.8296 O   0  0  0  0  0  0  0  0  0  0  0  0
    7.8580  -16.4982   25.1424 C   0  0  0  0  0  0  0  0  0  0  0  0
    9.2027  -15.9445   25.5038 C   0  0  0  0  0  0  0  0  0  0  0  0
   10.2694  -16.9953   25.6426 C   0  0  2  0  0  0  0  0  0  0  0  0
   10.5504  -17.5585   24.3372 N   0  0  0  0  0  0  0  0  0  0  0  0
    9.9161  -18.0466   26.6219 C   0  0  0  0  0  0  0  0  0  0  0  0
    9.7997  -19.3877   26.3138 O   0  0  0  0  0  0  0  0  0  0  0  0
    9.7087  -17.7015   27.8078 O   0  0  0  0  0  0  0  0  0  0  0  0
  2  1  1  0
  3  5  1  0
  3  2  1  0
  3  4  1  6
  5  6  1  1
  7  5  1  0
  7  8  2  0
  9  7  1  0
 10  9  1  0
 11 12  1  0
 10 11  1  6
 12 16  1  0
 13 12  2  0
 14 10  1  0
 15 14  2  0
 17 18  1  0
 18 19  2  0
 18 20  1  0
 20 21  1  0
 22 21  1  6
 22 23  1  0
 22 24  1  0
 23 14  1  0
 24 25  1  0
 26 24  2  0
M  END
$$$$
