IDQ.pdb
     RDKit          3D

 26 25  0  0  1  0  0  0  0  0999 V2000
    6.5800  -11.9639   26.7679 C   0  0  0  0  0  0  0  0  0  0  0  0
    6.1745  -13.1820   25.9999 C   0  0  0  0  0  0  0  0  0  0  0  0
    7.3459  -13.9330   25.4066 C   0  0  2  0  0  0  0  0  0  0  0  0
    8.1818  -13.0334   24.5137 C   0  0  0  0  0  0  0  0  0  0  0  0
    6.8153  -15.1250   24.6463 C   0  0  2  0  0  0  0  0  0  0  0  0
    6.0114  -15.9152   25.5475 N   0  0  0  0  0  0  0  0  0  0  0  0
    7.9552  -15.9480   24.1249 C   0  0  0  0  0  0  0  0  0  0  0  0
    8.3828  -16.9010   24.8177 O   0  0  0  0  0  0  0  0  0  0  0  0
    8.5660  -15.6870   22.8770 N   0  0  0  0  0  0  0  0  0  0  0  0
    9.5976  -16.5921   22.4133 C   0  0  1  0  0  0  0  0  0  0  0  0
    9.6540  -16.4756   20.9076 C   0  0  0  0  0  0  0  0  0  0  0  0
    8.5445  -17.1490   20.2414 C   0  0  0  0  0  0  0  0  0  0  0  0
    7.7227  -17.8201   20.9003 O   0  0  0  0  0  0  0  0  0  0  0  0
   10.9242  -16.2351   23.0046 C   0  0  0  0  0  0  0  0  0  0  0  0
   11.9454  -16.0659   22.2965 O   0  0  0  0  0  0  0  0  0  0  0  0
    8.4230  -17.0280   18.8658 O   0  0  0  0  0  0  0  0  0  0  0  0
   12.5119  -18.0316   28.9306 N   0  0  0  0  0  0  0  0  0  0  0  0
   11.6039  -18.7354   28.0925 C   0  0  0  0  0  0  0  0  0  0  0  0
   10.5204  -19.1568   28.6204 O   0  0  0  0  0  0  0  0  0  0  0  0
   11.8829  -18.9834   26.6543 C   0  0  0  0  0  0  0  0  0  0  0  0
   11.0969  -18.0098   25.8299 C   0  0  0  0  0  0  0  0  0  0  0  0
   11.9350  -16.9162   25.2274 C   0  0  2  0  0  0  0  0  0  0  0  0
   11.0899  -16.0698   24.4090 N   0  0  0  0  0  0  0  0  0  0  0  0
   13.0892  -17.4338   24.4599 C   0  0  0  0  0  0  0  0  0  0  0  0
   13.0056  -18.4336   23.5109 O   0  0  0  0  0  0  0  0  0  0  0  0
   14.2163  -16.9354   24.6828 O   0  0  0  0  0  0  0  0  0  0  0  0
  2  1  1  0
  3  5  1  0
  3  2  1  0
  3  4  1  6
  5  6  1  1
  7  5  1  0
  7  8  2  0
  9  7  1  0
 10  9  1  0
 11 12  1  0
 10 11  1  6
 12 16  1  0
 13 12  2  0
 14 10  1  0
 15 14  2  0
 17 18  1  0
 18 19  2  0
 18 20  1  0
 20 21  1  0
 22 21  1  6
 22 23  1  0
 22 24  1  0
 23 14  1  0
 24 25  1  0
 26 24  2  0
M  END
$$$$
