IDQ.pdb
     RDKit          3D

 26 25  0  0  1  0  0  0  0  0999 V2000
    8.5883  -11.9538   19.2664 C   0  0  0  0  0  0  0  0  0  0  0  0
    7.7502  -13.1573   18.9715 C   0  0  0  0  0  0  0  0  0  0  0  0
    7.9214  -14.2686   19.9835 C   0  0  2  0  0  0  0  0  0  0  0  0
    7.1474  -13.9778   21.2571 C   0  0  0  0  0  0  0  0  0  0  0  0
    9.3956  -14.4405   20.2615 C   0  0  2  0  0  0  0  0  0  0  0  0
   10.0639  -14.7070   19.0103 N   0  0  0  0  0  0  0  0  0  0  0  0
    9.6080  -15.5850   21.2068 C   0  0  0  0  0  0  0  0  0  0  0  0
    8.8443  -15.7074   22.1932 O   0  0  0  0  0  0  0  0  0  0  0  0
   10.6409  -16.5329   21.0250 N   0  0  0  0  0  0  0  0  0  0  0  0
   10.8167  -17.5603   22.0309 C   0  0  1  0  0  0  0  0  0  0  0  0
   11.9538  -18.4454   21.5752 C   0  0  0  0  0  0  0  0  0  0  0  0
   11.6908  -19.0999   20.2982 C   0  0  0  0  0  0  0  0  0  0  0  0
   10.5961  -19.6634   20.0884 O   0  0  0  0  0  0  0  0  0  0  0  0
   11.1398  -16.9547   23.3597 C   0  0  0  0  0  0  0  0  0  0  0  0
   12.1790  -16.2784   23.5485 O   0  0  0  0  0  0  0  0  0  0  0  0
   12.6792  -19.0825   19.3264 O   0  0  0  0  0  0  0  0  0  0  0  0
    8.2236  -13.1924   26.0614 N   0  0  0  0  0  0  0  0  0  0  0  0
    8.7423  -13.6695   27.2965 C   0  0  0  0  0  0  0  0  0  0  0  0
    8.7495  -12.8607   28.2844 O   0  0  0  0  0  0  0  0  0  0  0  0
    9.2619  -15.0523   27.4562 C   0  0  0  0  0  0  0  0  0  0  0  0
    9.1886  -15.7566   26.1356 C   0  0  0  0  0  0  0  0  0  0  0  0
   10.4663  -16.4502   25.7509 C   0  0  2  0  0  0  0  0  0  0  0  0
   10.2762  -17.1194   24.4796 N   0  0  0  0  0  0  0  0  0  0  0  0
   10.9465  -17.3872   26.7903 C   0  0  0  0  0  0  0  0  0  0  0  0
   10.8231  -18.7607   26.7148 O   0  0  0  0  0  0  0  0  0  0  0  0
   11.5012  -16.9074   27.8054 O   0  0  0  0  0  0  0  0  0  0  0  0
  2  1  1  0
  3  5  1  0
  3  2  1  0
  3  4  1  1
  5  6  1  6
  7  5  1  0
  7  8  2  0
  9  7  1  0
 10  9  1  0
 11 12  1  0
 10 11  1  6
 12 16  1  0
 13 12  2  0
 14 10  1  0
 15 14  2  0
 17 18  1  0
 18 19  2  0
 18 20  1  0
 20 21  1  0
 22 21  1  1
 22 23  1  0
 22 24  1  0
 23 14  1  0
 24 25  1  0
 26 24  2  0
M  END
$$$$
