IDQ.pdb
     RDKit          3D

 26 25  0  0  1  0  0  0  0  0999 V2000
    6.3190  -11.7574   26.9794 C   0  0  0  0  0  0  0  0  0  0  0  0
    5.9326  -12.9368   26.1442 C   0  0  0  0  0  0  0  0  0  0  0  0
    7.1170  -13.7553   25.6800 C   0  0  2  0  0  0  0  0  0  0  0  0
    8.1115  -12.9004   24.9148 C   0  0  0  0  0  0  0  0  0  0  0  0
    6.6077  -14.8984   24.8348 C   0  0  2  0  0  0  0  0  0  0  0  0
    5.6855  -15.6731   25.6299 N   0  0  0  0  0  0  0  0  0  0  0  0
    7.7533  -15.7612   24.3971 C   0  0  0  0  0  0  0  0  0  0  0  0
    8.0697  -16.7515   25.0974 O   0  0  0  0  0  0  0  0  0  0  0  0
    8.4910  -15.4972   23.2204 N   0  0  0  0  0  0  0  0  0  0  0  0
    9.5761  -16.3919   22.8734 C   0  0  1  0  0  0  0  0  0  0  0  0
   10.0563  -16.0021   21.4945 C   0  0  0  0  0  0  0  0  0  0  0  0
   10.9340  -17.0001   20.8927 C   0  0  0  0  0  0  0  0  0  0  0  0
   11.2690  -18.0184   21.5336 O   0  0  0  0  0  0  0  0  0  0  0  0
   10.6964  -16.2767   23.8575 C   0  0  0  0  0  0  0  0  0  0  0  0
   11.3195  -15.2028   24.0348 O   0  0  0  0  0  0  0  0  0  0  0  0
   11.3861  -16.7939   19.5986 O   0  0  0  0  0  0  0  0  0  0  0  0
    9.9101  -14.2806   28.2367 N   0  0  0  0  0  0  0  0  0  0  0  0
   10.9608  -15.0195   28.8468 C   0  0  0  0  0  0  0  0  0  0  0  0
   11.2957  -14.6960   30.0357 O   0  0  0  0  0  0  0  0  0  0  0  0
   11.6578  -16.1300   28.1477 C   0  0  0  0  0  0  0  0  0  0  0  0
   11.0355  -16.3241   26.7985 C   0  0  0  0  0  0  0  0  0  0  0  0
   11.7998  -17.2689   25.9128 C   0  0  2  0  0  0  0  0  0  0  0  0
   11.1102  -17.3891   24.6439 N   0  0  0  0  0  0  0  0  0  0  0  0
   12.0191  -18.5918   26.5380 C   0  0  0  0  0  0  0  0  0  0  0  0
   11.2568  -19.7123   26.2727 O   0  0  0  0  0  0  0  0  0  0  0  0
   12.9557  -18.7064   27.3615 O   0  0  0  0  0  0  0  0  0  0  0  0
  2  1  1  0
  3  5  1  0
  3  2  1  0
  3  4  1  6
  5  6  1  1
  7  5  1  0
  7  8  2  0
  9  7  1  0
 10  9  1  0
 11 12  1  0
 10 11  1  6
 12 16  1  0
 13 12  2  0
 14 10  1  0
 15 14  2  0
 17 18  1  0
 18 19  2  0
 18 20  1  0
 20 21  1  0
 22 21  1  1
 22 23  1  0
 22 24  1  0
 23 14  1  0
 24 25  1  0
 26 24  2  0
M  END
$$$$
