IDQ.pdb
     RDKit          3D

 26 25  0  0  1  0  0  0  0  0999 V2000
    6.4716  -11.7034   26.6275 C   0  0  0  0  0  0  0  0  0  0  0  0
    6.2539  -12.6270   25.4710 C   0  0  0  0  0  0  0  0  0  0  0  0
    7.3572  -13.6485   25.3049 C   0  0  2  0  0  0  0  0  0  0  0  0
    8.7216  -12.9836   25.2613 C   0  0  0  0  0  0  0  0  0  0  0  0
    7.0902  -14.4420   24.0481 C   0  0  2  0  0  0  0  0  0  0  0  0
    5.7626  -15.0004   24.1391 N   0  0  0  0  0  0  0  0  0  0  0  0
    8.0988  -15.5435   23.9144 C   0  0  0  0  0  0  0  0  0  0  0  0
    7.9353  -16.5993   24.5700 O   0  0  0  0  0  0  0  0  0  0  0  0
    9.2299  -15.4338   23.0737 N   0  0  0  0  0  0  0  0  0  0  0  0
   10.2139  -16.4965   23.1019 C   0  0  1  0  0  0  0  0  0  0  0  0
   11.0528  -16.3655   21.8517 C   0  0  0  0  0  0  0  0  0  0  0  0
   12.0730  -17.4021   21.7380 C   0  0  0  0  0  0  0  0  0  0  0  0
   11.8272  -18.4704   21.1395 O   0  0  0  0  0  0  0  0  0  0  0  0
   11.0817  -16.3865   24.3149 C   0  0  0  0  0  0  0  0  0  0  0  0
   11.9514  -15.4905   24.4328 O   0  0  0  0  0  0  0  0  0  0  0  0
   13.3167  -17.1759   22.3069 O   0  0  0  0  0  0  0  0  0  0  0  0
   10.7426  -14.8059   31.0499 N   0  0  0  0  0  0  0  0  0  0  0  0
   10.5187  -15.0968   29.6761 C   0  0  0  0  0  0  0  0  0  0  0  0
    9.5124  -14.5477   29.1138 O   0  0  0  0  0  0  0  0  0  0  0  0
   11.4078  -16.0020   28.9029 C   0  0  0  0  0  0  0  0  0  0  0  0
   10.8280  -16.2050   27.5362 C   0  0  0  0  0  0  0  0  0  0  0  0
   11.6324  -17.1371   26.6728 C   0  0  2  0  0  0  0  0  0  0  0  0
   10.9597  -17.3006   25.3997 N   0  0  0  0  0  0  0  0  0  0  0  0
   11.8902  -18.4418   27.3211 C   0  0  0  0  0  0  0  0  0  0  0  0
   11.4440  -19.6538   26.8321 O   0  0  0  0  0  0  0  0  0  0  0  0
   12.5557  -18.4514   28.3820 O   0  0  0  0  0  0  0  0  0  0  0  0
  2  1  1  0
  3  5  1  0
  3  2  1  0
  3  4  1  6
  5  6  1  1
  7  5  1  0
  7  8  2  0
  9  7  1  0
 10  9  1  0
 11 12  1  0
 10 11  1  6
 12 16  1  0
 13 12  2  0
 14 10  1  0
 15 14  2  0
 17 18  1  0
 18 19  2  0
 18 20  1  0
 20 21  1  0
 22 21  1  1
 22 23  1  0
 22 24  1  0
 23 14  1  0
 24 25  1  0
 26 24  2  0
M  END
$$$$
