IDQ.pdb
     RDKit          3D

 26 25  0  0  1  0  0  0  0  0999 V2000
    7.5623  -11.5936   19.0399 C   0  0  0  0  0  0  0  0  0  0  0  0
    8.0490  -12.7794   18.2686 C   0  0  0  0  0  0  0  0  0  0  0  0
    9.0342  -13.6310   19.0385 C   0  0  2  0  0  0  0  0  0  0  0  0
   10.2266  -12.8123   19.5005 C   0  0  0  0  0  0  0  0  0  0  0  0
    9.4627  -14.7813   18.1592 C   0  0  2  0  0  0  0  0  0  0  0  0
    8.2881  -15.5408   17.8033 N   0  0  0  0  0  0  0  0  0  0  0  0
   10.4314  -15.6563   18.8971 C   0  0  0  0  0  0  0  0  0  0  0  0
    9.9878  -16.5146   19.6956 O   0  0  0  0  0  0  0  0  0  0  0  0
   11.8303  -15.5475   18.7240 N   0  0  0  0  0  0  0  0  0  0  0  0
   12.6908  -16.3873   19.5319 C   0  0  1  0  0  0  0  0  0  0  0  0
   14.0833  -16.2931   18.9523 C   0  0  0  0  0  0  0  0  0  0  0  0
   15.0526  -17.1238   19.6585 C   0  0  0  0  0  0  0  0  0  0  0  0
   14.7147  -18.2295   20.1309 O   0  0  0  0  0  0  0  0  0  0  0  0
   12.6966  -15.9297   20.9558 C   0  0  0  0  0  0  0  0  0  0  0  0
   12.7468  -14.7153   21.2650 O   0  0  0  0  0  0  0  0  0  0  0  0
   16.3521  -16.6605   19.7929 O   0  0  0  0  0  0  0  0  0  0  0  0
    7.9572  -15.4511   22.6387 N   0  0  0  0  0  0  0  0  0  0  0  0
    8.4919  -15.3066   23.9484 C   0  0  0  0  0  0  0  0  0  0  0  0
    7.7673  -14.7177   24.8192 O   0  0  0  0  0  0  0  0  0  0  0  0
    9.8400  -15.8133   24.3139 C   0  0  0  0  0  0  0  0  0  0  0  0
   10.5862  -16.1618   23.0621 C   0  0  0  0  0  0  0  0  0  0  0  0
   12.0087  -16.5840   23.3063 C   0  0  2  0  0  0  0  0  0  0  0  0
   12.6452  -16.8586   22.0336 N   0  0  0  0  0  0  0  0  0  0  0  0
   12.1153  -17.7383   24.2258 C   0  0  0  0  0  0  0  0  0  0  0  0
   12.3538  -19.0362   23.8188 O   0  0  0  0  0  0  0  0  0  0  0  0
   11.9812  -17.5283   25.4531 O   0  0  0  0  0  0  0  0  0  0  0  0
  2  1  1  0
  3  5  1  0
  3  2  1  0
  3  4  1  6
  5  6  1  1
  7  5  1  0
  7  8  2  0
  9  7  1  0
 10  9  1  0
 11 12  1  0
 10 11  1  6
 12 16  1  0
 13 12  2  0
 14 10  1  0
 15 14  2  0
 17 18  1  0
 18 19  2  0
 18 20  1  0
 20 21  1  0
 22 21  1  6
 22 23  1  0
 22 24  1  0
 23 14  1  0
 24 25  1  0
 26 24  2  0
M  END
$$$$
