IDQ.pdb
     RDKit          3D

 26 25  0  0  1  0  0  0  0  0999 V2000
    6.0347  -11.8968   26.9506 C   0  0  0  0  0  0  0  0  0  0  0  0
    5.7522  -13.0698   26.0662 C   0  0  0  0  0  0  0  0  0  0  0  0
    7.0000  -13.8070   25.6328 C   0  0  2  0  0  0  0  0  0  0  0  0
    7.9629  -12.8822   24.9095 C   0  0  0  0  0  0  0  0  0  0  0  0
    6.5910  -14.9691   24.7596 C   0  0  2  0  0  0  0  0  0  0  0  0
    5.6198  -15.7567   25.4803 N   0  0  0  0  0  0  0  0  0  0  0  0
    7.7886  -15.8102   24.4331 C   0  0  0  0  0  0  0  0  0  0  0  0
    8.1047  -16.7434   25.2080 O   0  0  0  0  0  0  0  0  0  0  0  0
    8.5758  -15.5879   23.2801 N   0  0  0  0  0  0  0  0  0  0  0  0
    9.6755  -16.4922   23.0130 C   0  0  1  0  0  0  0  0  0  0  0  0
   10.1900  -16.1772   21.6274 C   0  0  0  0  0  0  0  0  0  0  0  0
   11.2030  -17.1205   21.1668 C   0  0  0  0  0  0  0  0  0  0  0  0
   11.6009  -18.0384   21.9144 O   0  0  0  0  0  0  0  0  0  0  0  0
   10.7684  -16.3127   24.0182 C   0  0  0  0  0  0  0  0  0  0  0  0
   11.4582  -15.2667   24.0727 O   0  0  0  0  0  0  0  0  0  0  0  0
   11.7123  -16.9760   19.8856 O   0  0  0  0  0  0  0  0  0  0  0  0
   11.6637  -14.5124   29.3813 N   0  0  0  0  0  0  0  0  0  0  0  0
   10.4469  -15.1215   28.9683 C   0  0  0  0  0  0  0  0  0  0  0  0
    9.3666  -14.7031   29.5051 O   0  0  0  0  0  0  0  0  0  0  0  0
   10.4085  -16.2052   27.9526 C   0  0  0  0  0  0  0  0  0  0  0  0
   11.3971  -15.8948   26.8702 C   0  0  0  0  0  0  0  0  0  0  0  0
   11.8963  -17.1126   26.1428 C   0  0  2  0  0  0  0  0  0  0  0  0
   11.0782  -17.3287   24.9663 N   0  0  0  0  0  0  0  0  0  0  0  0
   11.9397  -18.3168   27.0014 C   0  0  0  0  0  0  0  0  0  0  0  0
   12.8642  -18.5211   28.0068 O   0  0  0  0  0  0  0  0  0  0  0  0
   11.0843  -19.2105   26.8067 O   0  0  0  0  0  0  0  0  0  0  0  0
  2  1  1  0
  3  5  1  0
  3  2  1  0
  3  4  1  6
  5  6  1  1
  7  5  1  0
  7  8  2  0
  9  7  1  0
 10  9  1  0
 11 12  1  0
 10 11  1  6
 12 16  1  0
 13 12  2  0
 14 10  1  0
 15 14  2  0
 17 18  1  0
 18 19  2  0
 18 20  1  0
 20 21  1  0
 22 21  1  1
 22 23  1  0
 22 24  1  0
 23 14  1  0
 24 25  1  0
 26 24  2  0
M  END
$$$$
