MKG.pdb
     RDKit          3D

 22 21  0  0  1  0  0  0  0  0999 V2000
   28.1922  -12.0908  -15.1231 C   0  0  0  0  0  0  0  0  0  0  0  0
   26.6626  -11.2215  -15.5586 S   0  0  0  0  0  0  0  0  0  0  0  0
   27.0092   -9.6858  -16.4155 C   0  0  0  0  0  0  0  0  0  0  0  0
   25.7787   -8.8792  -16.7322 C   0  0  0  0  0  0  0  0  0  0  0  0
   24.6204   -9.6853  -17.2264 C   0  0  2  0  0  0  0  0  0  0  0  0
   24.8637  -10.4769  -18.3850 N   0  0  0  0  0  0  0  0  0  0  0  0
   23.3868   -8.8598  -17.3617 C   0  0  0  0  0  0  0  0  0  0  0  0
   23.1020   -8.2532  -18.4262 O   0  0  0  0  0  0  0  0  0  0  0  0
   22.4818   -8.7287  -16.2820 N   0  0  0  0  0  0  0  0  0  0  0  0
   21.2223   -7.9467  -16.4196 C   0  0  1  0  0  0  0  0  0  0  0  0
   20.0792   -8.8898  -16.0787 C   0  0  0  0  0  0  0  0  0  0  0  0
   19.7589   -9.8831  -17.1388 C   0  0  0  0  0  0  0  0  0  0  0  0
   18.4896  -10.6696  -16.8094 C   0  0  0  0  0  0  0  0  0  0  0  0
   18.3155  -11.7541  -17.8116 C   0  0  0  0  0  0  0  0  0  0  0  0
   17.0960  -12.4829  -17.5280 N   0  0  0  0  0  0  0  0  0  0  0  0
   21.2945   -6.8509  -15.4471 C   0  0  0  0  0  0  0  0  0  0  0  0
   20.2568   -6.1952  -15.1699 O   0  0  0  0  0  0  0  0  0  0  0  0
   22.5042   -6.5026  -14.7970 N   0  0  0  0  0  0  0  0  0  0  0  0
   22.5436   -5.5020  -13.7237 C   0  0  0  0  0  0  0  0  0  0  0  0
   22.3965   -4.1721  -14.3260 C   0  0  0  0  0  0  0  0  0  0  0  0
   22.4737   -3.0269  -13.5461 O   0  0  0  0  0  0  0  0  0  0  0  0
   22.1943   -4.0359  -15.5795 O   0  0  0  0  0  0  0  0  0  0  0  0
  2  1  1  0
  3  2  1  0
  4  3  1  0
  4  5  1  0
  5  7  1  0
  5  6  1  6
  7  8  2  0
  9 10  1  0
  9  7  1  0
 10 11  1  1
 11 12  1  0
 13 12  1  0
 13 14  1  0
 14 15  1  0
 16 17  2  0
 16 10  1  0
 18 16  1  0
 19 18  1  0
 20 19  1  0
 21 20  1  0
 22 20  2  0
M  END
$$$$
