MKG.pdb
     RDKit          3D

 22 21  0  0  1  0  0  0  0  0999 V2000
   29.3577  -19.2239  -14.5501 C   0  0  0  0  0  0  0  0  0  0  0  0
   27.6747  -19.5518  -13.9626 S   0  0  0  0  0  0  0  0  0  0  0  0
   27.3761  -21.3111  -13.7947 C   0  0  0  0  0  0  0  0  0  0  0  0
   25.9633  -21.6498  -13.4019 C   0  0  0  0  0  0  0  0  0  0  0  0
   25.3999  -20.7903  -12.3158 C   0  0  2  0  0  0  0  0  0  0  0  0
   25.8752  -21.0597  -11.0007 N   0  0  0  0  0  0  0  0  0  0  0  0
   23.9116  -20.7298  -12.3714 C   0  0  0  0  0  0  0  0  0  0  0  0
   23.1906  -21.1287  -11.4210 O   0  0  0  0  0  0  0  0  0  0  0  0
   23.2505  -20.2142  -13.5111 N   0  0  0  0  0  0  0  0  0  0  0  0
   21.7692  -20.0677  -13.5452 C   0  0  1  0  0  0  0  0  0  0  0  0
   21.4630  -18.9079  -14.4797 C   0  0  0  0  0  0  0  0  0  0  0  0
   20.0221  -18.5489  -14.5695 C   0  0  0  0  0  0  0  0  0  0  0  0
   19.7878  -17.3986  -15.5494 C   0  0  0  0  0  0  0  0  0  0  0  0
   18.3256  -17.1655  -15.6851 C   0  0  0  0  0  0  0  0  0  0  0  0
   18.0975  -15.9809  -16.4873 N   0  0  0  0  0  0  0  0  0  0  0  0
   21.2310  -21.3211  -14.0850 C   0  0  0  0  0  0  0  0  0  0  0  0
   20.0714  -21.3414  -14.5733 O   0  0  0  0  0  0  0  0  0  0  0  0
   21.9804  -22.5234  -14.0806 N   0  0  0  0  0  0  0  0  0  0  0  0
   21.4413  -23.7713  -14.6344 C   0  0  0  0  0  0  0  0  0  0  0  0
   20.4607  -24.3122  -13.6861 C   0  0  0  0  0  0  0  0  0  0  0  0
   19.8646  -25.5456  -13.9072 O   0  0  0  0  0  0  0  0  0  0  0  0
   20.1324  -23.6628  -12.6367 O   0  0  0  0  0  0  0  0  0  0  0  0
  2  1  1  0
  3  2  1  0
  4  3  1  0
  4  5  1  0
  5  7  1  0
  5  6  1  1
  7  8  2  0
  9 10  1  0
  9  7  1  0
 10 11  1  6
 11 12  1  0
 13 12  1  0
 13 14  1  0
 14 15  1  0
 16 17  2  0
 16 10  1  0
 18 16  1  0
 19 18  1  0
 20 19  1  0
 21 20  1  0
 22 20  2  0
M  END
$$$$
