MKG.pdb
     RDKit          3D

 22 21  0  0  1  0  0  0  0  0999 V2000
   28.0207  -19.7947   -4.4171 C   0  0  0  0  0  0  0  0  0  0  0  0
   28.3276  -19.8195   -6.2033 S   0  0  0  0  0  0  0  0  0  0  0  0
   26.8022  -20.0228   -7.1221 C   0  0  0  0  0  0  0  0  0  0  0  0
   26.9961  -20.0647   -8.6140 C   0  0  0  0  0  0  0  0  0  0  0  0
   25.7314  -20.2084   -9.3987 C   0  0  2  0  0  0  0  0  0  0  0  0
   24.9812  -21.3944   -9.1564 N   0  0  0  0  0  0  0  0  0  0  0  0
   25.9512  -19.9730  -10.8540 C   0  0  0  0  0  0  0  0  0  0  0  0
   26.6960  -19.0518  -11.2769 O   0  0  0  0  0  0  0  0  0  0  0  0
   25.3206  -20.7893  -11.8224 N   0  0  0  0  0  0  0  0  0  0  0  0
   25.3866  -20.4595  -13.2728 C   0  0  1  0  0  0  0  0  0  0  0  0
   25.4777  -21.7803  -14.0208 C   0  0  0  0  0  0  0  0  0  0  0  0
   24.7903  -22.9185  -13.3535 C   0  0  0  0  0  0  0  0  0  0  0  0
   24.9655  -24.2201  -14.1366 C   0  0  0  0  0  0  0  0  0  0  0  0
   24.2338  -25.3100  -13.4383 C   0  0  0  0  0  0  0  0  0  0  0  0
   24.3814  -26.5446  -14.1818 N   0  0  0  0  0  0  0  0  0  0  0  0
   24.1398  -19.7625  -13.6069 C   0  0  0  0  0  0  0  0  0  0  0  0
   24.0513  -19.1306  -14.6916 O   0  0  0  0  0  0  0  0  0  0  0  0
   23.0161  -19.7789  -12.7441 N   0  0  0  0  0  0  0  0  0  0  0  0
   21.8001  -19.0140  -13.0454 C   0  0  0  0  0  0  0  0  0  0  0  0
   20.8525  -19.9024  -13.7282 C   0  0  0  0  0  0  0  0  0  0  0  0
   19.7945  -19.3834  -14.4610 O   0  0  0  0  0  0  0  0  0  0  0  0
   20.9777  -21.1716  -13.6650 O   0  0  0  0  0  0  0  0  0  0  0  0
  2  1  1  0
  3  2  1  0
  4  3  1  0
  4  5  1  0
  5  7  1  0
  5  6  1  6
  7  8  2  0
  9 10  1  0
  9  7  1  0
 10 11  1  6
 11 12  1  0
 13 12  1  0
 13 14  1  0
 14 15  1  0
 16 17  2  0
 16 10  1  0
 18 16  1  0
 19 18  1  0
 20 19  1  0
 21 20  1  0
 22 20  2  0
M  END
$$$$
