MKG.pdb
     RDKit          3D

 22 21  0  0  1  0  0  0  0  0999 V2000
   27.3828  -18.2498   -6.7879 C   0  0  0  0  0  0  0  0  0  0  0  0
   27.4452  -20.0224   -7.1610 S   0  0  0  0  0  0  0  0  0  0  0  0
   28.1650  -20.3219   -8.7750 C   0  0  0  0  0  0  0  0  0  0  0  0
   27.3010  -19.8598   -9.9174 C   0  0  0  0  0  0  0  0  0  0  0  0
   26.2305  -20.8255  -10.3138 C   0  0  2  0  0  0  0  0  0  0  0  0
   26.6803  -22.0715  -10.8365 N   0  0  0  0  0  0  0  0  0  0  0  0
   25.2050  -20.1892  -11.1886 C   0  0  0  0  0  0  0  0  0  0  0  0
   24.7092  -19.0632  -10.9269 O   0  0  0  0  0  0  0  0  0  0  0  0
   24.7484  -20.8395  -12.3592 N   0  0  0  0  0  0  0  0  0  0  0  0
   23.7847  -20.1810  -13.2835 C   0  0  1  0  0  0  0  0  0  0  0  0
   24.2785  -20.4470  -14.6969 C   0  0  0  0  0  0  0  0  0  0  0  0
   25.5417  -19.7469  -15.0535 C   0  0  0  0  0  0  0  0  0  0  0  0
   25.9241  -19.9834  -16.5150 C   0  0  0  0  0  0  0  0  0  0  0  0
   27.0782  -19.1128  -16.8628 C   0  0  0  0  0  0  0  0  0  0  0  0
   27.5267  -19.4188  -18.2060 N   0  0  0  0  0  0  0  0  0  0  0  0
   22.4820  -20.8186  -13.0636 C   0  0  0  0  0  0  0  0  0  0  0  0
   22.4316  -21.9903  -12.6073 O   0  0  0  0  0  0  0  0  0  0  0  0
   21.2634  -20.1532  -13.3453 N   0  0  0  0  0  0  0  0  0  0  0  0
   19.9633  -20.7537  -13.0231 C   0  0  0  0  0  0  0  0  0  0  0  0
   19.6202  -21.7091  -14.0827 C   0  0  0  0  0  0  0  0  0  0  0  0
   18.4511  -22.4538  -14.0158 O   0  0  0  0  0  0  0  0  0  0  0  0
   20.3868  -21.8786  -15.0897 O   0  0  0  0  0  0  0  0  0  0  0  0
  2  1  1  0
  3  2  1  0
  4  3  1  0
  4  5  1  0
  5  7  1  0
  5  6  1  6
  7  8  2  0
  9 10  1  0
  9  7  1  0
 10 11  1  6
 11 12  1  0
 13 12  1  0
 13 14  1  0
 14 15  1  0
 16 17  2  0
 16 10  1  0
 18 16  1  0
 19 18  1  0
 20 19  1  0
 21 20  1  0
 22 20  2  0
M  END
$$$$
