MKG.pdb
     RDKit          3D

 22 21  0  0  1  0  0  0  0  0999 V2000
   30.1421  -19.6595   -5.8397 C   0  0  0  0  0  0  0  0  0  0  0  0
   28.7221  -19.1213   -4.8502 S   0  0  0  0  0  0  0  0  0  0  0  0
   27.1781  -19.6692   -5.5774 C   0  0  0  0  0  0  0  0  0  0  0  0
   27.1992  -19.7096   -7.0817 C   0  0  0  0  0  0  0  0  0  0  0  0
   25.9055  -20.1219   -7.7080 C   0  0  2  0  0  0  0  0  0  0  0  0
   25.4739  -21.4493   -7.4258 N   0  0  0  0  0  0  0  0  0  0  0  0
   25.8749  -19.8219   -9.1677 C   0  0  0  0  0  0  0  0  0  0  0  0
   26.0642  -18.6619   -9.6157 O   0  0  0  0  0  0  0  0  0  0  0  0
   25.6282  -20.8464  -10.1118 N   0  0  0  0  0  0  0  0  0  0  0  0
   25.4366  -20.5373  -11.5557 C   0  0  1  0  0  0  0  0  0  0  0  0
   26.5699  -21.2191  -12.3059 C   0  0  0  0  0  0  0  0  0  0  0  0
   27.2652  -20.3541  -13.2966 C   0  0  0  0  0  0  0  0  0  0  0  0
   27.4292  -21.0590  -14.6436 C   0  0  0  0  0  0  0  0  0  0  0  0
   28.0455  -20.1161  -15.6141 C   0  0  0  0  0  0  0  0  0  0  0  0
   28.3063  -20.8074  -16.8603 N   0  0  0  0  0  0  0  0  0  0  0  0
   24.1429  -21.1095  -11.9443 C   0  0  0  0  0  0  0  0  0  0  0  0
   23.8248  -22.2589  -11.5427 O   0  0  0  0  0  0  0  0  0  0  0  0
   23.2253  -20.4044  -12.7617 N   0  0  0  0  0  0  0  0  0  0  0  0
   21.9085  -20.9580  -13.0992 C   0  0  0  0  0  0  0  0  0  0  0  0
   21.1587  -19.9433  -13.8485 C   0  0  0  0  0  0  0  0  0  0  0  0
   21.7391  -18.7242  -14.1689 O   0  0  0  0  0  0  0  0  0  0  0  0
   19.9568  -20.1564  -14.2234 O   0  0  0  0  0  0  0  0  0  0  0  0
  2  1  1  0
  3  2  1  0
  4  3  1  0
  4  5  1  0
  5  7  1  0
  5  6  1  6
  7  8  2  0
  9 10  1  0
  9  7  1  0
 10 11  1  6
 11 12  1  0
 13 12  1  0
 13 14  1  0
 14 15  1  0
 16 17  2  0
 16 10  1  0
 18 16  1  0
 19 18  1  0
 20 19  1  0
 21 20  1  0
 22 20  2  0
M  END
$$$$
