MKG.pdb
     RDKit          3D

 22 21  0  0  1  0  0  0  0  0999 V2000
   25.9561  -21.8186  -18.1611 C   0  0  0  0  0  0  0  0  0  0  0  0
   26.6142  -20.4941  -19.2089 S   0  0  0  0  0  0  0  0  0  0  0  0
   26.3410  -18.8842  -18.4697 C   0  0  0  0  0  0  0  0  0  0  0  0
   25.2030  -18.8563  -17.4853 C   0  0  0  0  0  0  0  0  0  0  0  0
   24.9848  -17.5306  -16.8289 C   0  0  2  0  0  0  0  0  0  0  0  0
   26.1216  -16.9595  -16.1889 N   0  0  0  0  0  0  0  0  0  0  0  0
   23.7887  -17.5416  -15.9396 C   0  0  0  0  0  0  0  0  0  0  0  0
   23.8866  -17.4799  -14.6871 O   0  0  0  0  0  0  0  0  0  0  0  0
   22.4845  -17.6228  -16.4820 N   0  0  0  0  0  0  0  0  0  0  0  0
   21.2816  -17.6343  -15.6046 C   0  0  1  0  0  0  0  0  0  0  0  0
   20.2000  -16.8495  -16.3302 C   0  0  0  0  0  0  0  0  0  0  0  0
   20.1692  -15.3969  -16.0107 C   0  0  0  0  0  0  0  0  0  0  0  0
   19.0705  -14.6718  -16.7887 C   0  0  0  0  0  0  0  0  0  0  0  0
   19.1372  -13.2180  -16.4839 C   0  0  0  0  0  0  0  0  0  0  0  0
   18.0766  -12.5274  -17.1889 N   0  0  0  0  0  0  0  0  0  0  0  0
   20.8837  -19.0375  -15.4480 C   0  0  0  0  0  0  0  0  0  0  0  0
   21.0403  -19.8395  -16.4050 O   0  0  0  0  0  0  0  0  0  0  0  0
   20.3269  -19.5298  -14.2418 N   0  0  0  0  0  0  0  0  0  0  0  0
   19.8968  -20.9264  -14.1034 C   0  0  0  0  0  0  0  0  0  0  0  0
   18.4646  -20.9395  -13.7841 C   0  0  0  0  0  0  0  0  0  0  0  0
   17.8037  -22.1339  -13.5345 O   0  0  0  0  0  0  0  0  0  0  0  0
   17.7928  -19.8550  -13.7283 O   0  0  0  0  0  0  0  0  0  0  0  0
  2  1  1  0
  3  2  1  0
  4  3  1  0
  4  5  1  0
  5  7  1  0
  5  6  1  1
  7  8  2  0
  9 10  1  0
  9  7  1  0
 10 11  1  6
 11 12  1  0
 13 12  1  0
 13 14  1  0
 14 15  1  0
 16 17  2  0
 16 10  1  0
 18 16  1  0
 19 18  1  0
 20 19  1  0
 21 20  1  0
 22 20  2  0
M  END
$$$$
