MKG.pdb
     RDKit          3D

 22 21  0  0  1  0  0  0  0  0999 V2000
   25.9930  -18.5116   -8.7403 C   0  0  0  0  0  0  0  0  0  0  0  0
   26.6362  -20.1447   -8.2881 S   0  0  0  0  0  0  0  0  0  0  0  0
   26.3809  -21.3317   -9.6067 C   0  0  0  0  0  0  0  0  0  0  0  0
   25.3866  -20.8802  -10.6424 C   0  0  0  0  0  0  0  0  0  0  0  0
   25.2034  -21.8320  -11.7809 C   0  0  2  0  0  0  0  0  0  0  0  0
   26.3928  -22.2298  -12.4556 N   0  0  0  0  0  0  0  0  0  0  0  0
   24.1509  -21.3679  -12.7287 C   0  0  0  0  0  0  0  0  0  0  0  0
   24.3903  -21.1674  -13.9472 O   0  0  0  0  0  0  0  0  0  0  0  0
   22.8285  -21.1339  -12.2836 N   0  0  0  0  0  0  0  0  0  0  0  0
   21.7618  -20.6957  -13.2254 C   0  0  1  0  0  0  0  0  0  0  0  0
   20.4337  -20.9090  -12.5164 C   0  0  0  0  0  0  0  0  0  0  0  0
   19.6030  -22.0092  -13.0756 C   0  0  0  0  0  0  0  0  0  0  0  0
   19.3176  -23.0875  -12.0296 C   0  0  0  0  0  0  0  0  0  0  0  0
   18.6271  -24.2298  -12.6847 C   0  0  0  0  0  0  0  0  0  0  0  0
   18.3290  -25.2457  -11.6958 N   0  0  0  0  0  0  0  0  0  0  0  0
   21.9847  -19.2692  -13.4853 C   0  0  0  0  0  0  0  0  0  0  0  0
   22.1433  -18.4780  -12.5197 O   0  0  0  0  0  0  0  0  0  0  0  0
   22.0329  -18.7443  -14.8003 N   0  0  0  0  0  0  0  0  0  0  0  0
   23.1317  -17.8794  -15.2466 C   0  0  0  0  0  0  0  0  0  0  0  0
   23.3348  -18.0946  -16.6838 C   0  0  0  0  0  0  0  0  0  0  0  0
   24.2341  -17.3158  -17.3983 O   0  0  0  0  0  0  0  0  0  0  0  0
   22.6908  -19.0015  -17.3110 O   0  0  0  0  0  0  0  0  0  0  0  0
  2  1  1  0
  3  2  1  0
  4  3  1  0
  4  5  1  0
  5  7  1  0
  5  6  1  6
  7  8  2  0
  9 10  1  0
  9  7  1  0
 10 11  1  1
 11 12  1  0
 13 12  1  0
 13 14  1  0
 14 15  1  0
 16 17  2  0
 16 10  1  0
 18 16  1  0
 19 18  1  0
 20 19  1  0
 21 20  1  0
 22 20  2  0
M  END
$$$$
