MKG.pdb
     RDKit          3D

 22 21  0  0  1  0  0  0  0  0999 V2000
   26.8990  -18.9219   -4.6097 C   0  0  0  0  0  0  0  0  0  0  0  0
   28.5449  -19.2978   -5.2692 S   0  0  0  0  0  0  0  0  0  0  0  0
   28.4399  -20.3422   -6.7222 C   0  0  0  0  0  0  0  0  0  0  0  0
   27.4371  -19.8654   -7.7381 C   0  0  0  0  0  0  0  0  0  0  0  0
   27.2774  -20.7668   -8.9204 C   0  0  2  0  0  0  0  0  0  0  0  0
   28.4852  -21.2265   -9.5188 N   0  0  0  0  0  0  0  0  0  0  0  0
   26.3344  -20.2011   -9.9266 C   0  0  0  0  0  0  0  0  0  0  0  0
   26.4489  -19.0273  -10.3638 O   0  0  0  0  0  0  0  0  0  0  0  0
   25.2637  -20.9764  -10.4308 N   0  0  0  0  0  0  0  0  0  0  0  0
   24.5265  -20.5702  -11.6590 C   0  0  1  0  0  0  0  0  0  0  0  0
   24.8609  -21.5945  -12.7320 C   0  0  0  0  0  0  0  0  0  0  0  0
   24.9777  -21.0362  -14.1060 C   0  0  0  0  0  0  0  0  0  0  0  0
   26.3424  -21.3420  -14.7245 C   0  0  0  0  0  0  0  0  0  0  0  0
   26.3595  -20.8558  -16.1295 C   0  0  0  0  0  0  0  0  0  0  0  0
   27.6276  -21.1945  -16.7426 N   0  0  0  0  0  0  0  0  0  0  0  0
   23.0974  -20.6148  -11.3308 C   0  0  0  0  0  0  0  0  0  0  0  0
   22.6881  -21.4013  -10.4377 O   0  0  0  0  0  0  0  0  0  0  0  0
   22.1502  -19.7910  -11.9876 N   0  0  0  0  0  0  0  0  0  0  0  0
   20.7124  -19.8962  -11.7115 C   0  0  0  0  0  0  0  0  0  0  0  0
   20.2269  -21.1651  -12.2660 C   0  0  0  0  0  0  0  0  0  0  0  0
   19.4099  -22.0007  -11.5176 O   0  0  0  0  0  0  0  0  0  0  0  0
   20.5434  -21.5309  -13.4478 O   0  0  0  0  0  0  0  0  0  0  0  0
  2  1  1  0
  3  2  1  0
  4  3  1  0
  4  5  1  0
  5  7  1  0
  5  6  1  6
  7  8  2  0
  9 10  1  0
  9  7  1  0
 10 11  1  6
 11 12  1  0
 13 12  1  0
 13 14  1  0
 14 15  1  0
 16 17  2  0
 16 10  1  0
 18 16  1  0
 19 18  1  0
 20 19  1  0
 21 20  1  0
 22 20  2  0
M  END
$$$$
