MKG.pdb
     RDKit          3D

 22 21  0  0  1  0  0  0  0  0999 V2000
   28.4561  -20.2874   -4.0624 C   0  0  0  0  0  0  0  0  0  0  0  0
   27.3396  -20.0463   -5.4698 S   0  0  0  0  0  0  0  0  0  0  0  0
   28.2245  -19.4363   -6.9043 C   0  0  0  0  0  0  0  0  0  0  0  0
   27.3361  -19.1451   -8.0837 C   0  0  0  0  0  0  0  0  0  0  0  0
   27.0388  -20.3323   -8.9427 C   0  0  2  0  0  0  0  0  0  0  0  0
   28.1652  -21.1042   -9.3473 N   0  0  0  0  0  0  0  0  0  0  0  0
   26.1603  -19.9787  -10.0938 C   0  0  0  0  0  0  0  0  0  0  0  0
   26.3258  -18.9260  -10.7620 O   0  0  0  0  0  0  0  0  0  0  0  0
   25.0957  -20.8273  -10.4789 N   0  0  0  0  0  0  0  0  0  0  0  0
   24.3893  -20.6412  -11.7763 C   0  0  1  0  0  0  0  0  0  0  0  0
   24.8378  -21.7726  -12.6879 C   0  0  0  0  0  0  0  0  0  0  0  0
   25.6397  -21.3394  -13.8637 C   0  0  0  0  0  0  0  0  0  0  0  0
   25.9119  -22.5016  -14.8194 C   0  0  0  0  0  0  0  0  0  0  0  0
   26.8325  -22.0429  -15.8932 C   0  0  0  0  0  0  0  0  0  0  0  0
   27.2950  -23.1857  -16.6539 N   0  0  0  0  0  0  0  0  0  0  0  0
   22.9529  -20.7431  -11.4960 C   0  0  0  0  0  0  0  0  0  0  0  0
   22.5516  -21.4906  -10.5667 O   0  0  0  0  0  0  0  0  0  0  0  0
   21.9897  -20.0179  -12.2399 N   0  0  0  0  0  0  0  0  0  0  0  0
   20.5596  -20.0752  -11.9144 C   0  0  0  0  0  0  0  0  0  0  0  0
   19.8859  -20.8888  -12.9329 C   0  0  0  0  0  0  0  0  0  0  0  0
   19.1347  -21.9986  -12.5725 O   0  0  0  0  0  0  0  0  0  0  0  0
   19.9740  -20.5966  -14.1728 O   0  0  0  0  0  0  0  0  0  0  0  0
  2  1  1  0
  3  2  1  0
  4  3  1  0
  4  5  1  0
  5  7  1  0
  5  6  1  6
  7  8  2  0
  9 10  1  0
  9  7  1  0
 10 11  1  6
 11 12  1  0
 13 12  1  0
 13 14  1  0
 14 15  1  0
 16 17  2  0
 16 10  1  0
 18 16  1  0
 19 18  1  0
 20 19  1  0
 21 20  1  0
 22 20  2  0
M  END
$$$$
