MKG.pdb
     RDKit          3D

 22 21  0  0  1  0  0  0  0  0999 V2000
   27.5506  -18.4110   -6.0530 C   0  0  0  0  0  0  0  0  0  0  0  0
   26.6409  -19.9484   -6.3592 S   0  0  0  0  0  0  0  0  0  0  0  0
   27.3519  -20.8628   -7.7271 C   0  0  0  0  0  0  0  0  0  0  0  0
   27.0880  -20.2410   -9.0721 C   0  0  0  0  0  0  0  0  0  0  0  0
   26.2047  -21.0512   -9.9660 C   0  0  2  0  0  0  0  0  0  0  0  0
   26.7793  -22.2431  -10.4928 N   0  0  0  0  0  0  0  0  0  0  0  0
   25.5746  -20.2169  -11.0283 C   0  0  0  0  0  0  0  0  0  0  0  0
   24.9272  -19.1721  -10.7613 O   0  0  0  0  0  0  0  0  0  0  0  0
   25.6851  -20.5772  -12.3921 N   0  0  0  0  0  0  0  0  0  0  0  0
   25.0154  -19.7826  -13.4583 C   0  0  1  0  0  0  0  0  0  0  0  0
   25.6505  -20.1929  -14.7776 C   0  0  0  0  0  0  0  0  0  0  0  0
   25.6185  -19.1446  -15.8327 C   0  0  0  0  0  0  0  0  0  0  0  0
   26.9810  -18.9822  -16.5075 C   0  0  0  0  0  0  0  0  0  0  0  0
   26.8504  -18.0337  -17.6451 C   0  0  0  0  0  0  0  0  0  0  0  0
   28.1511  -17.8170  -18.2453 N   0  0  0  0  0  0  0  0  0  0  0  0
   23.5954  -20.1500  -13.4331 C   0  0  0  0  0  0  0  0  0  0  0  0
   23.2460  -21.2504  -12.9325 O   0  0  0  0  0  0  0  0  0  0  0  0
   22.5903  -19.2982  -13.9540 N   0  0  0  0  0  0  0  0  0  0  0  0
   21.1635  -19.6161  -13.8207 C   0  0  0  0  0  0  0  0  0  0  0  0
   20.8505  -20.7260  -14.7282 C   0  0  0  0  0  0  0  0  0  0  0  0
   20.1073  -20.5129  -15.8805 O   0  0  0  0  0  0  0  0  0  0  0  0
   21.2531  -21.9122  -14.4805 O   0  0  0  0  0  0  0  0  0  0  0  0
  2  1  1  0
  3  2  1  0
  4  3  1  0
  4  5  1  0
  5  7  1  0
  5  6  1  6
  7  8  2  0
  9 10  1  0
  9  7  1  0
 10 11  1  6
 11 12  1  0
 13 12  1  0
 13 14  1  0
 14 15  1  0
 16 17  2  0
 16 10  1  0
 18 16  1  0
 19 18  1  0
 20 19  1  0
 21 20  1  0
 22 20  2  0
M  END
$$$$
