PLF.pdb
     RDKit          3D

 27 28  0  0  1  0  0  0  0  0999 V2000
   27.7679  -19.8837  -16.8595 N   0  0  0  0  0  0  0  0  0  0  0  0
   29.1663  -19.7723  -17.1931 C   0  0  0  0  0  0  0  0  0  0  0  0
   29.7958  -21.1121  -17.0098 C   0  0  0  0  0  0  0  0  0  0  0  0
   28.6530  -22.0716  -17.0102 C   0  0  0  0  0  0  0  0  0  0  0  0
   27.4696  -21.2637  -16.6377 C   0  0  1  0  0  0  0  0  0  0  0  0
   26.9608  -21.5331  -15.2735 C   0  0  0  0  0  0  0  0  0  0  0  0
   26.3972  -22.6426  -15.0739 O   0  0  0  0  0  0  0  0  0  0  0  0
   29.7999  -20.2384  -10.9406 C   0  0  0  0  0  0  0  0  0  0  0  0
   28.8575  -20.9930  -11.8566 C   0  0  1  0  0  0  0  0  0  0  0  0
   28.6849  -22.3775  -11.1959 C   0  0  0  0  0  0  0  0  0  0  0  0
   27.5125  -20.3975  -11.9116 C   0  0  0  0  0  0  0  0  0  0  0  0
   26.5105  -20.9310  -12.8521 C   0  0  2  0  0  0  0  0  0  0  0  0
   27.0652  -20.6419  -14.2022 N   0  0  0  0  0  0  0  0  0  0  0  0
   25.1835  -20.3315  -12.8676 C   0  0  0  0  0  0  0  0  0  0  0  0
   24.9390  -19.1023  -12.9761 O   0  0  0  0  0  0  0  0  0  0  0  0
   24.0452  -21.1715  -12.7546 N   0  0  0  0  0  0  0  0  0  0  0  0
   22.6996  -20.6703  -13.0413 C   0  0  1  0  0  0  0  0  0  0  0  0
   22.5568  -20.4482  -14.5115 C   0  0  0  0  0  0  0  0  0  0  0  0
   21.1720  -20.0970  -14.8976 C   0  0  0  0  0  0  0  0  0  0  0  0
   20.8094  -18.7690  -14.8892 C   0  0  0  0  0  0  0  0  0  0  0  0
   19.5140  -18.4197  -15.2490 C   0  0  0  0  0  0  0  0  0  0  0  0
   18.5719  -19.3666  -15.6173 C   0  0  0  0  0  0  0  0  0  0  0  0
   18.9439  -20.6872  -15.6223 C   0  0  0  0  0  0  0  0  0  0  0  0
   20.2381  -21.0416  -15.2632 C   0  0  0  0  0  0  0  0  0  0  0  0
   21.6909  -21.5471  -12.4399 C   0  0  0  0  0  0  0  0  0  0  0  0
   21.7375  -22.7908  -12.4263 O   0  0  0  0  0  0  0  0  0  0  0  0
   20.5775  -20.9604  -11.8262 O   0  0  0  0  0  0  0  0  0  0  0  0
  1  2  1  0
  3  2  1  0
  4  5  1  0
  4  3  1  0
  5  1  1  0
  5  6  1  1
  6  7  2  0
  9 10  1  1
  9  8  1  0
 11  9  1  0
 12 11  1  1
 12 13  1  0
 13  6  1  0
 14 15  2  0
 14 12  1  0
 16 14  1  0
 17 16  1  0
 17 18  1  6
 19 18  1  0
 19 20  2  0
 21 20  1  0
 22 21  2  0
 23 24  2  0
 23 22  1  0
 24 19  1  0
 25 17  1  0
 26 25  2  0
 27 25  1  0
M  END
$$$$
