PLF.pdb
     RDKit          3D

 27 28  0  0  1  0  0  0  0  0999 V2000
   26.0090  -16.3156  -16.3381 N   0  0  0  0  0  0  0  0  0  0  0  0
   27.1763  -15.8676  -17.0562 C   0  0  0  0  0  0  0  0  0  0  0  0
   27.4984  -16.8837  -18.0995 C   0  0  0  0  0  0  0  0  0  0  0  0
   26.2429  -17.6744  -18.2595 C   0  0  0  0  0  0  0  0  0  0  0  0
   25.4982  -17.4774  -16.9952 C   0  0  1  0  0  0  0  0  0  0  0  0
   25.4699  -18.6713  -16.1197 C   0  0  0  0  0  0  0  0  0  0  0  0
   24.9961  -19.7339  -16.6041 O   0  0  0  0  0  0  0  0  0  0  0  0
   28.2706  -21.7895  -13.7741 C   0  0  0  0  0  0  0  0  0  0  0  0
   27.6042  -21.0798  -12.6128 C   0  0  1  0  0  0  0  0  0  0  0  0
   28.7637  -20.6688  -11.6801 C   0  0  0  0  0  0  0  0  0  0  0  0
   26.9389  -19.8287  -13.0111 C   0  0  0  0  0  0  0  0  0  0  0  0
   25.7687  -19.8715  -13.9065 C   0  0  2  0  0  0  0  0  0  0  0  0
   25.9318  -18.6937  -14.8010 N   0  0  0  0  0  0  0  0  0  0  0  0
   24.4432  -19.7073  -13.3261 C   0  0  0  0  0  0  0  0  0  0  0  0
   24.1062  -18.8019  -12.5203 O   0  0  0  0  0  0  0  0  0  0  0  0
   23.4182  -20.6246  -13.6753 N   0  0  0  0  0  0  0  0  0  0  0  0
   22.0812  -20.5306  -13.0857 C   0  0  1  0  0  0  0  0  0  0  0  0
   21.5434  -19.1529  -13.2954 C   0  0  0  0  0  0  0  0  0  0  0  0
   21.0283  -18.9507  -14.6678 C   0  0  0  0  0  0  0  0  0  0  0  0
   21.9041  -19.0910  -15.7206 C   0  0  0  0  0  0  0  0  0  0  0  0
   21.4391  -18.9056  -17.0163 C   0  0  0  0  0  0  0  0  0  0  0  0
   20.1186  -18.5831  -17.2850 C   0  0  0  0  0  0  0  0  0  0  0  0
   19.2542  -18.4456  -16.2285 C   0  0  0  0  0  0  0  0  0  0  0  0
   19.7144  -18.6300  -14.9309 C   0  0  0  0  0  0  0  0  0  0  0  0
   21.2297  -21.6166  -13.5790 C   0  0  0  0  0  0  0  0  0  0  0  0
   21.5352  -22.4125  -14.4859 O   0  0  0  0  0  0  0  0  0  0  0  0
   19.9677  -21.7914  -12.9982 O   0  0  0  0  0  0  0  0  0  0  0  0
  1  2  1  0
  3  2  1  0
  4  5  1  0
  4  3  1  0
  5  1  1  0
  5  6  1  1
  6  7  2  0
  9 10  1  1
  9  8  1  0
 11  9  1  0
 12 11  1  1
 12 13  1  0
 13  6  1  0
 14 15  2  0
 14 12  1  0
 16 14  1  0
 17 16  1  0
 17 18  1  6
 19 18  1  0
 19 20  2  0
 21 20  1  0
 22 21  2  0
 23 24  2  0
 23 22  1  0
 24 19  1  0
 25 17  1  0
 26 25  2  0
 27 25  1  0
M  END
$$$$
