PLF.pdb
     RDKit          3D

 27 28  0  0  1  0  0  0  0  0999 V2000
   22.3800  -14.8496  -19.0307 N   0  0  0  0  0  0  0  0  0  0  0  0
   21.1903  -14.6787  -19.8273 C   0  0  0  0  0  0  0  0  0  0  0  0
   21.2663  -13.3478  -20.4963 C   0  0  0  0  0  0  0  0  0  0  0  0
   22.7088  -12.9715  -20.4297 C   0  0  0  0  0  0  0  0  0  0  0  0
   23.2626  -13.7596  -19.3054 C   0  0  1  0  0  0  0  0  0  0  0  0
   23.5792  -12.9550  -18.1033 C   0  0  0  0  0  0  0  0  0  0  0  0
   22.7258  -12.9382  -17.1761 O   0  0  0  0  0  0  0  0  0  0  0  0
   28.6556  -12.6042  -16.2707 C   0  0  0  0  0  0  0  0  0  0  0  0
   27.1460  -12.7220  -16.3328 C   0  0  1  0  0  0  0  0  0  0  0  0
   26.7251  -13.1863  -14.9220 C   0  0  0  0  0  0  0  0  0  0  0  0
   26.4787  -11.4284  -16.5517 C   0  0  0  0  0  0  0  0  0  0  0  0
   25.0169  -11.3772  -16.7353 C   0  0  2  0  0  0  0  0  0  0  0  0
   24.7550  -12.2192  -17.9338 N   0  0  0  0  0  0  0  0  0  0  0  0
   24.4002  -10.0957  -17.0486 C   0  0  0  0  0  0  0  0  0  0  0  0
   24.5049   -9.4834  -18.1424 O   0  0  0  0  0  0  0  0  0  0  0  0
   23.6060   -9.4527  -16.0639 N   0  0  0  0  0  0  0  0  0  0  0  0
   22.8955   -8.2062  -16.3559 C   0  0  1  0  0  0  0  0  0  0  0  0
   21.9789   -8.4188  -17.5160 C   0  0  0  0  0  0  0  0  0  0  0  0
   20.7916   -9.2259  -17.1569 C   0  0  0  0  0  0  0  0  0  0  0  0
   19.6852   -8.5737  -16.6613 C   0  0  0  0  0  0  0  0  0  0  0  0
   18.5608   -9.3142  -16.3192 C   0  0  0  0  0  0  0  0  0  0  0  0
   18.5161  -10.6918  -16.4607 C   0  0  0  0  0  0  0  0  0  0  0  0
   19.6242  -11.3317  -16.9555 C   0  0  0  0  0  0  0  0  0  0  0  0
   20.7510  -10.5957  -17.2991 C   0  0  0  0  0  0  0  0  0  0  0  0
   22.2590   -7.6866  -15.1423 C   0  0  0  0  0  0  0  0  0  0  0  0
   21.6956   -6.5810  -15.0445 O   0  0  0  0  0  0  0  0  0  0  0  0
   22.2738   -8.4804  -13.9889 O   0  0  0  0  0  0  0  0  0  0  0  0
  1  2  1  0
  3  2  1  0
  4  5  1  0
  4  3  1  0
  5  1  1  0
  5  6  1  1
  6  7  2  0
  9 10  1  1
  9  8  1  0
 11  9  1  0
 12 11  1  6
 12 13  1  0
 13  6  1  0
 14 15  2  0
 14 12  1  0
 16 14  1  0
 17 16  1  0
 17 18  1  6
 19 18  1  0
 19 20  2  0
 21 20  1  0
 22 21  2  0
 23 24  2  0
 23 22  1  0
 24 19  1  0
 25 17  1  0
 26 25  2  0
 27 25  1  0
M  END
$$$$
