PLF.pdb
     RDKit          3D

 27 28  0  0  1  0  0  0  0  0999 V2000
   24.0030  -23.7703  -15.8617 N   0  0  0  0  0  0  0  0  0  0  0  0
   23.7773  -25.1936  -15.9126 C   0  0  0  0  0  0  0  0  0  0  0  0
   23.5727  -25.6817  -14.5181 C   0  0  0  0  0  0  0  0  0  0  0  0
   23.2343  -24.4581  -13.7336 C   0  0  0  0  0  0  0  0  0  0  0  0
   23.7843  -23.3305  -14.5197 C   0  0  1  0  0  0  0  0  0  0  0  0
   24.9805  -22.7009  -13.9153 C   0  0  0  0  0  0  0  0  0  0  0  0
   26.0973  -23.2365  -14.1484 O   0  0  0  0  0  0  0  0  0  0  0  0
   28.7506  -19.6264  -13.9230 C   0  0  0  0  0  0  0  0  0  0  0  0
   27.5967  -18.9233  -13.2369 C   0  0  1  0  0  0  0  0  0  0  0  0
   27.3755  -17.6323  -14.0541 C   0  0  0  0  0  0  0  0  0  0  0  0
   26.3356  -19.6780  -13.3185 C   0  0  0  0  0  0  0  0  0  0  0  0
   26.1764  -20.9280  -12.5535 C   0  0  2  0  0  0  0  0  0  0  0  0
   24.9493  -21.5597  -13.1094 N   0  0  0  0  0  0  0  0  0  0  0  0
   25.9239  -20.8393  -11.1220 C   0  0  0  0  0  0  0  0  0  0  0  0
   24.8055  -20.6174  -10.5905 O   0  0  0  0  0  0  0  0  0  0  0  0
   27.0041  -21.0137  -10.2184 N   0  0  0  0  0  0  0  0  0  0  0  0
   26.8206  -20.8529   -8.7746 C   0  0  1  0  0  0  0  0  0  0  0  0
   28.1567  -20.7927   -8.1094 C   0  0  0  0  0  0  0  0  0  0  0  0
   28.0623  -20.3900   -6.6885 C   0  0  0  0  0  0  0  0  0  0  0  0
   28.5407  -19.1503   -6.3287 C   0  0  0  0  0  0  0  0  0  0  0  0
   28.4603  -18.7543   -4.9997 C   0  0  0  0  0  0  0  0  0  0  0  0
   27.9129  -19.5684   -4.0212 C   0  0  0  0  0  0  0  0  0  0  0  0
   27.4391  -20.8018   -4.3907 C   0  0  0  0  0  0  0  0  0  0  0  0
   27.5172  -21.2024   -5.7184 C   0  0  0  0  0  0  0  0  0  0  0  0
   25.9318  -19.7211   -8.4973 C   0  0  0  0  0  0  0  0  0  0  0  0
   26.0334  -18.5883   -9.0029 O   0  0  0  0  0  0  0  0  0  0  0  0
   24.8775  -19.9062   -7.5947 O   0  0  0  0  0  0  0  0  0  0  0  0
  1  2  1  0
  3  2  1  0
  4  5  1  0
  4  3  1  0
  5  1  1  0
  5  6  1  1
  6  7  2  0
  9 10  1  6
  9  8  1  0
 11  9  1  0
 12 11  1  6
 12 13  1  0
 13  6  1  0
 14 15  2  0
 14 12  1  0
 16 14  1  0
 17 16  1  0
 17 18  1  1
 19 18  1  0
 19 20  2  0
 21 20  1  0
 22 21  2  0
 23 24  2  0
 23 22  1  0
 24 19  1  0
 25 17  1  0
 26 25  2  0
 27 25  1  0
M  END
$$$$
