PLF.pdb
     RDKit          3D

 27 28  0  0  1  0  0  0  0  0999 V2000
   15.2807  -17.3185    4.1049 N   0  0  0  0  0  0  0  0  0  0  0  0
   15.1620  -17.2586    2.6691 C   0  0  0  0  0  0  0  0  0  0  0  0
   16.4307  -17.7719    2.0761 C   0  0  0  0  0  0  0  0  0  0  0  0
   17.0807  -18.5406    3.1778 C   0  0  0  0  0  0  0  0  0  0  0  0
   16.4971  -17.9971    4.4251 C   0  0  1  0  0  0  0  0  0  0  0  0
   17.4324  -17.1650    5.2159 C   0  0  0  0  0  0  0  0  0  0  0  0
   18.5573  -17.6613    5.4926 O   0  0  0  0  0  0  0  0  0  0  0  0
   18.0615  -11.7505    4.4589 C   0  0  0  0  0  0  0  0  0  0  0  0
   18.4757  -13.1714    4.7846 C   0  0  1  0  0  0  0  0  0  0  0  0
   19.9953  -13.0926    5.0451 C   0  0  0  0  0  0  0  0  0  0  0  0
   17.8743  -13.6723    6.0311 C   0  0  0  0  0  0  0  0  0  0  0  0
   18.1164  -15.0627    6.4571 C   0  0  2  0  0  0  0  0  0  0  0  0
   17.1485  -15.8746    5.6710 N   0  0  0  0  0  0  0  0  0  0  0  0
   17.8512  -15.4210    7.8434 C   0  0  0  0  0  0  0  0  0  0  0  0
   16.7254  -15.7225    8.3168 O   0  0  0  0  0  0  0  0  0  0  0  0
   18.9273  -15.4450    8.7682 N   0  0  0  0  0  0  0  0  0  0  0  0
   18.7208  -15.8349   10.1644 C   0  0  1  0  0  0  0  0  0  0  0  0
   18.3738  -17.2865   10.2270 C   0  0  0  0  0  0  0  0  0  0  0  0
   18.1193  -17.7470   11.6101 C   0  0  0  0  0  0  0  0  0  0  0  0
   16.8758  -17.5191   12.1551 C   0  0  0  0  0  0  0  0  0  0  0  0
   16.6178  -17.9446   13.4519 C   0  0  0  0  0  0  0  0  0  0  0  0
   17.5735  -18.5929   14.2175 C   0  0  0  0  0  0  0  0  0  0  0  0
   18.8094  -18.8150   13.6647 C   0  0  0  0  0  0  0  0  0  0  0  0
   19.0724  -18.3914   12.3682 C   0  0  0  0  0  0  0  0  0  0  0  0
   19.8682  -15.4299   10.9812 C   0  0  0  0  0  0  0  0  0  0  0  0
   21.0597  -15.6731   10.7156 O   0  0  0  0  0  0  0  0  0  0  0  0
   19.6286  -14.7112   12.1587 O   0  0  0  0  0  0  0  0  0  0  0  0
  1  2  1  0
  3  2  1  0
  4  5  1  0
  4  3  1  0
  5  1  1  0
  5  6  1  6
  6  7  2  0
  9 10  1  1
  9  8  1  0
 11  9  1  0
 12 11  1  1
 12 13  1  0
 13  6  1  0
 14 15  2  0
 14 12  1  0
 16 14  1  0
 17 16  1  0
 17 18  1  6
 19 18  1  0
 19 20  2  0
 21 20  1  0
 22 21  2  0
 23 24  2  0
 23 22  1  0
 24 19  1  0
 25 17  1  0
 26 25  2  0
 27 25  1  0
M  END
$$$$
