PLF.pdb
     RDKit          3D

 27 28  0  0  1  0  0  0  0  0999 V2000
   17.6124  -11.2888  -16.6220 N   0  0  0  0  0  0  0  0  0  0  0  0
   16.4126  -12.0224  -16.9405 C   0  0  0  0  0  0  0  0  0  0  0  0
   15.2400  -11.1850  -16.5552 C   0  0  0  0  0  0  0  0  0  0  0  0
   15.7838   -9.8001  -16.4409 C   0  0  0  0  0  0  0  0  0  0  0  0
   17.2362   -9.9727  -16.2110 C   0  0  1  0  0  0  0  0  0  0  0  0
   17.6709   -9.6510  -14.8326 C   0  0  0  0  0  0  0  0  0  0  0  0
   17.8460  -10.6154  -14.0403 O   0  0  0  0  0  0  0  0  0  0  0  0
   21.1138   -7.8122  -11.2399 C   0  0  0  0  0  0  0  0  0  0  0  0
   20.5102   -6.7903  -12.1822 C   0  0  1  0  0  0  0  0  0  0  0  0
   21.7202   -6.0856  -12.8322 C   0  0  0  0  0  0  0  0  0  0  0  0
   19.7551   -7.4044  -13.2864 C   0  0  0  0  0  0  0  0  0  0  0  0
   18.4707   -8.0749  -13.0148 C   0  0  2  0  0  0  0  0  0  0  0  0
   17.8975   -8.3560  -14.3588 N   0  0  0  0  0  0  0  0  0  0  0  0
   17.4291   -7.3277  -12.3237 C   0  0  0  0  0  0  0  0  0  0  0  0
   16.7633   -6.3797  -12.8140 O   0  0  0  0  0  0  0  0  0  0  0  0
   17.1084   -7.6686  -10.9840 N   0  0  0  0  0  0  0  0  0  0  0  0
   16.1452   -6.8830  -10.2098 C   0  0  1  0  0  0  0  0  0  0  0  0
   15.3683   -7.7935   -9.3161 C   0  0  0  0  0  0  0  0  0  0  0  0
   14.3974   -7.0625   -8.4718 C   0  0  0  0  0  0  0  0  0  0  0  0
   14.6594   -6.9495   -7.1251 C   0  0  0  0  0  0  0  0  0  0  0  0
   13.7601   -6.2665   -6.3163 C   0  0  0  0  0  0  0  0  0  0  0  0
   12.6043   -5.6934   -6.8219 C   0  0  0  0  0  0  0  0  0  0  0  0
   12.3529   -5.8119   -8.1654 C   0  0  0  0  0  0  0  0  0  0  0  0
   13.2491   -6.4940   -8.9783 C   0  0  0  0  0  0  0  0  0  0  0  0
   16.8204   -5.7706   -9.5356 C   0  0  0  0  0  0  0  0  0  0  0  0
   17.8522   -5.8692   -8.8464 O   0  0  0  0  0  0  0  0  0  0  0  0
   16.2790   -4.4857   -9.6631 O   0  0  0  0  0  0  0  0  0  0  0  0
  1  2  1  0
  3  2  1  0
  4  5  1  0
  4  3  1  0
  5  1  1  0
  5  6  1  1
  6  7  2  0
  9 10  1  6
  9  8  1  0
 11  9  1  0
 12 11  1  6
 12 13  1  0
 13  6  1  0
 14 15  2  0
 14 12  1  0
 16 14  1  0
 17 16  1  0
 17 18  1  1
 19 18  1  0
 19 20  2  0
 21 20  1  0
 22 21  2  0
 23 24  2  0
 23 22  1  0
 24 19  1  0
 25 17  1  0
 26 25  2  0
 27 25  1  0
M  END
$$$$
