PLF.pdb
     RDKit          3D

 27 28  0  0  1  0  0  0  0  0999 V2000
   26.8156  -20.6437  -15.6338 N   0  0  0  0  0  0  0  0  0  0  0  0
   27.6478  -20.5800  -16.8096 C   0  0  0  0  0  0  0  0  0  0  0  0
   28.0420  -19.1575  -17.0233 C   0  0  0  0  0  0  0  0  0  0  0  0
   27.8012  -18.4953  -15.7079 C   0  0  0  0  0  0  0  0  0  0  0  0
   26.8121  -19.3540  -15.0179 C   0  0  1  0  0  0  0  0  0  0  0  0
   25.4585  -18.7608  -14.9261 C   0  0  0  0  0  0  0  0  0  0  0  0
   25.3623  -17.6133  -14.4141 O   0  0  0  0  0  0  0  0  0  0  0  0
   21.3927  -16.2673  -16.8070 C   0  0  0  0  0  0  0  0  0  0  0  0
   21.4094  -17.7495  -17.1219 C   0  0  1  0  0  0  0  0  0  0  0  0
   21.3153  -17.8300  -18.6607 C   0  0  0  0  0  0  0  0  0  0  0  0
   22.6789  -18.3988  -16.7570 C   0  0  0  0  0  0  0  0  0  0  0  0
   22.9586  -18.7256  -15.3470 C   0  0  2  0  0  0  0  0  0  0  0  0
   24.2906  -19.3883  -15.3678 N   0  0  0  0  0  0  0  0  0  0  0  0
   22.0892  -19.6765  -14.6683 C   0  0  0  0  0  0  0  0  0  0  0  0
   22.0436  -20.9133  -14.8935 O   0  0  0  0  0  0  0  0  0  0  0  0
   21.2061  -19.2075  -13.6613 N   0  0  0  0  0  0  0  0  0  0  0  0
   20.3850  -20.1339  -12.8792 C   0  0  1  0  0  0  0  0  0  0  0  0
   19.9954  -19.4842  -11.5918 C   0  0  0  0  0  0  0  0  0  0  0  0
   18.9384  -18.4641  -11.7713 C   0  0  0  0  0  0  0  0  0  0  0  0
   19.3175  -17.1842  -12.1080 C   0  0  0  0  0  0  0  0  0  0  0  0
   18.3397  -16.2131  -12.2814 C   0  0  0  0  0  0  0  0  0  0  0  0
   16.9911  -16.4908  -12.1262 C   0  0  0  0  0  0  0  0  0  0  0  0
   16.6243  -17.7695  -11.7906 C   0  0  0  0  0  0  0  0  0  0  0  0
   17.5984  -18.7443  -11.6161 C   0  0  0  0  0  0  0  0  0  0  0  0
   19.2714  -20.6356  -13.6892 C   0  0  0  0  0  0  0  0  0  0  0  0
   18.7945  -20.0632  -14.6862 O   0  0  0  0  0  0  0  0  0  0  0  0
   18.6818  -21.8540  -13.3311 O   0  0  0  0  0  0  0  0  0  0  0  0
  1  2  1  0
  3  2  1  0
  4  5  1  0
  4  3  1  0
  5  1  1  0
  5  6  1  6
  6  7  2  0
  9 10  1  6
  9  8  1  0
 11  9  1  0
 12 11  1  6
 12 13  1  0
 13  6  1  0
 14 15  2  0
 14 12  1  0
 16 14  1  0
 17 16  1  0
 17 18  1  1
 19 18  1  0
 19 20  2  0
 21 20  1  0
 22 21  2  0
 23 24  2  0
 23 22  1  0
 24 19  1  0
 25 17  1  0
 26 25  2  0
 27 25  1  0
M  END
$$$$
