PLF.pdb
     RDKit          3D

 27 28  0  0  1  0  0  0  0  0999 V2000
   28.5354  -21.5070  -14.6207 N   0  0  0  0  0  0  0  0  0  0  0  0
   28.3212  -20.9815  -15.9463 C   0  0  0  0  0  0  0  0  0  0  0  0
   27.7202  -19.6226  -15.8158 C   0  0  0  0  0  0  0  0  0  0  0  0
   28.0193  -19.2084  -14.4137 C   0  0  0  0  0  0  0  0  0  0  0  0
   28.2482  -20.4724  -13.6776 C   0  0  1  0  0  0  0  0  0  0  0  0
   27.1589  -20.8303  -12.7406 C   0  0  0  0  0  0  0  0  0  0  0  0
   26.4338  -21.8154  -13.0442 O   0  0  0  0  0  0  0  0  0  0  0  0
   27.3473  -19.3073   -7.4145 C   0  0  0  0  0  0  0  0  0  0  0  0
   27.0889  -20.2132   -8.6016 C   0  0  1  0  0  0  0  0  0  0  0  0
   26.6573  -21.5615   -7.9860 C   0  0  0  0  0  0  0  0  0  0  0  0
   25.9586  -19.7636   -9.4304 C   0  0  0  0  0  0  0  0  0  0  0  0
   25.6836  -20.4244  -10.7190 C   0  0  2  0  0  0  0  0  0  0  0  0
   26.8864  -20.1500  -11.5508 N   0  0  0  0  0  0  0  0  0  0  0  0
   24.5680  -19.9438  -11.5224 C   0  0  0  0  0  0  0  0  0  0  0  0
   24.6168  -18.9932  -12.3447 O   0  0  0  0  0  0  0  0  0  0  0  0
   23.3038  -20.5761  -11.3963 N   0  0  0  0  0  0  0  0  0  0  0  0
   22.2478  -20.3683  -12.3892 C   0  0  1  0  0  0  0  0  0  0  0  0
   22.7199  -20.8496  -13.7221 C   0  0  0  0  0  0  0  0  0  0  0  0
   21.6499  -20.8216  -14.7439 C   0  0  0  0  0  0  0  0  0  0  0  0
   21.5360  -19.7035  -15.5388 C   0  0  0  0  0  0  0  0  0  0  0  0
   20.5381  -19.6588  -16.5040 C   0  0  0  0  0  0  0  0  0  0  0  0
   19.6506  -20.7059  -16.6937 C   0  0  0  0  0  0  0  0  0  0  0  0
   19.7729  -21.8155  -15.8961 C   0  0  0  0  0  0  0  0  0  0  0  0
   20.7693  -21.8649  -14.9295 C   0  0  0  0  0  0  0  0  0  0  0  0
   20.9879  -20.9536  -11.9227 C   0  0  0  0  0  0  0  0  0  0  0  0
   19.8637  -20.4361  -12.0553 O   0  0  0  0  0  0  0  0  0  0  0  0
   21.0282  -22.1935  -11.2733 O   0  0  0  0  0  0  0  0  0  0  0  0
  1  2  1  0
  3  2  1  0
  4  5  1  0
  4  3  1  0
  5  1  1  0
  5  6  1  6
  6  7  2  0
  9 10  1  1
  9  8  1  0
 11  9  1  0
 12 11  1  1
 12 13  1  0
 13  6  1  0
 14 15  2  0
 14 12  1  0
 16 14  1  0
 17 16  1  0
 17 18  1  6
 19 18  1  0
 19 20  2  0
 21 20  1  0
 22 21  2  0
 23 24  2  0
 23 22  1  0
 24 19  1  0
 25 17  1  0
 26 25  2  0
 27 25  1  0
M  END
$$$$
