PLF.pdb
     RDKit          3D

 27 28  0  0  1  0  0  0  0  0999 V2000
   26.3106  -35.0998  -12.2967 N   0  0  0  0  0  0  0  0  0  0  0  0
   27.2904  -35.7213  -13.1528 C   0  0  0  0  0  0  0  0  0  0  0  0
   28.1137  -36.6464  -12.3215 C   0  0  0  0  0  0  0  0  0  0  0  0
   27.2989  -36.8795  -11.0932 C   0  0  0  0  0  0  0  0  0  0  0  0
   26.3828  -35.7194  -11.0109 C   0  0  1  0  0  0  0  0  0  0  0  0
   26.7132  -34.7658   -9.9273 C   0  0  0  0  0  0  0  0  0  0  0  0
   27.5534  -33.8629  -10.1862 O   0  0  0  0  0  0  0  0  0  0  0  0
   23.3129  -31.7012   -7.9585 C   0  0  0  0  0  0  0  0  0  0  0  0
   24.6622  -32.2645   -8.3567 C   0  0  1  0  0  0  0  0  0  0  0  0
   25.5781  -31.0313   -8.5099 C   0  0  0  0  0  0  0  0  0  0  0  0
   25.2699  -33.0950   -7.3043 C   0  0  0  0  0  0  0  0  0  0  0  0
   26.5167  -33.8323   -7.5782 C   0  0  2  0  0  0  0  0  0  0  0  0
   26.1564  -34.8038   -8.6461 N   0  0  0  0  0  0  0  0  0  0  0  0
   27.0869  -34.6516   -6.5178 C   0  0  0  0  0  0  0  0  0  0  0  0
   26.7120  -35.8124   -6.2106 O   0  0  0  0  0  0  0  0  0  0  0  0
   28.1578  -34.1325   -5.7448 N   0  0  0  0  0  0  0  0  0  0  0  0
   28.7476  -34.9042   -4.6490 C   0  0  1  0  0  0  0  0  0  0  0  0
   30.0621  -34.3032   -4.2717 C   0  0  0  0  0  0  0  0  0  0  0  0
   30.7257  -35.0406   -3.1736 C   0  0  0  0  0  0  0  0  0  0  0  0
   30.5897  -34.5612   -1.8904 C   0  0  0  0  0  0  0  0  0  0  0  0
   31.2048  -35.2401   -0.8463 C   0  0  0  0  0  0  0  0  0  0  0  0
   31.9533  -36.3875   -1.0545 C   0  0  0  0  0  0  0  0  0  0  0  0
   32.0824  -36.8566   -2.3373 C   0  0  0  0  0  0  0  0  0  0  0  0
   31.4691  -36.1813   -3.3847 C   0  0  0  0  0  0  0  0  0  0  0  0
   27.7866  -35.0467   -3.5517 C   0  0  0  0  0  0  0  0  0  0  0  0
   27.1369  -34.1157   -3.0414 O   0  0  0  0  0  0  0  0  0  0  0  0
   27.5659  -36.3228   -3.0195 O   0  0  0  0  0  0  0  0  0  0  0  0
  1  2  1  0
  3  2  1  0
  4  5  1  0
  4  3  1  0
  5  1  1  0
  5  6  1  1
  6  7  2  0
  9 10  1  1
  9  8  1  0
 11  9  1  0
 12 11  1  1
 12 13  1  0
 13  6  1  0
 14 15  2  0
 14 12  1  0
 16 14  1  0
 17 16  1  0
 17 18  1  1
 19 18  1  0
 19 20  2  0
 21 20  1  0
 22 21  2  0
 23 24  2  0
 23 22  1  0
 24 19  1  0
 25 17  1  0
 26 25  2  0
 27 25  1  0
M  END
$$$$
