DDE.pdb
     RDKit          3D

 26 25  0  0  1  0  0  0  0  0999 V2000
   11.1309  -15.0249   16.4391 N   0  0  0  0  0  0  0  0  0  0  0  0
   12.1942  -15.7534   17.1146 C   0  0  1  0  0  0  0  0  0  0  0  0
   13.4575  -15.5008   16.3260 C   0  0  0  0  0  0  0  0  0  0  0  0
   13.2430  -16.0645   14.9678 C   0  0  0  0  0  0  0  0  0  0  0  0
   12.8114  -17.2245   14.7642 O   0  0  0  0  0  0  0  0  0  0  0  0
   12.3117  -15.3514   18.5349 C   0  0  0  0  0  0  0  0  0  0  0  0
   12.5128  -14.1473   18.8374 O   0  0  0  0  0  0  0  0  0  0  0  0
   13.5273  -15.2863   13.8555 O   0  0  0  0  0  0  0  0  0  0  0  0
   12.2076  -16.2711   19.6124 N   0  0  0  0  0  0  0  0  0  0  0  0
   12.3788  -15.9272   20.9980 C   0  0  1  0  0  0  0  0  0  0  0  0
   11.4484  -16.7035   21.9039 C   0  0  0  0  0  0  0  0  0  0  0  0
   11.6053  -16.3681   23.3180 C   0  0  0  0  0  0  0  0  0  0  0  0
   11.9101  -17.1587   24.2300 O   0  0  0  0  0  0  0  0  0  0  0  0
   13.8021  -16.1212   21.3793 C   0  0  0  0  0  0  0  0  0  0  0  0
   14.6152  -16.6100   20.5557 O   0  0  0  0  0  0  0  0  0  0  0  0
   11.3920  -15.0324   23.6766 O   0  0  0  0  0  0  0  0  0  0  0  0
   14.3214  -15.7828   22.6469 N   0  0  0  0  0  0  0  0  0  0  0  0
   15.7435  -15.4793   22.8405 C   0  0  1  0  0  0  0  0  0  0  0  0
   16.2336  -14.4872   21.8567 C   0  0  0  0  0  0  0  0  0  0  0  0
   17.1008  -15.1035   20.8051 C   0  0  0  0  0  0  0  0  0  0  0  0
   17.8147  -14.0807   19.9993 C   0  0  0  0  0  0  0  0  0  0  0  0
   18.7433  -13.4421   20.5203 O   0  0  0  0  0  0  0  0  0  0  0  0
   15.9958  -15.1023   24.2481 C   0  0  0  0  0  0  0  0  0  0  0  0
   15.0769  -14.9765   25.2458 O   0  0  0  0  0  0  0  0  0  0  0  0
   17.4560  -13.8413   18.6974 O   0  0  0  0  0  0  0  0  0  0  0  0
   17.2088  -14.8631   24.5797 O   0  0  0  0  0  0  0  0  0  0  0  0
  2  3  1  0
  2  1  1  6
  3  4  1  0
  4  8  1  0
  4  5  2  0
  6  2  1  0
  6  7  2  0
  9  6  1  0
 10  9  1  0
 10 14  1  0
 10 11  1  1
 12 11  1  0
 13 12  2  0
 14 17  1  0
 15 14  2  0
 16 12  1  0
 17 18  1  0
 18 23  1  0
 18 19  1  6
 20 19  1  0
 21 20  1  0
 21 22  2  0
 23 26  2  0
 23 24  1  0
 25 21  1  0
M  END
$$$$
