DDE.pdb
     RDKit          3D

 26 25  0  0  1  0  0  0  0  0999 V2000
   10.1765  -17.3613   18.8133 N   0  0  0  0  0  0  0  0  0  0  0  0
    9.5740  -17.8869   20.0292 C   0  0  1  0  0  0  0  0  0  0  0  0
    8.6067  -18.9644   19.5993 C   0  0  0  0  0  0  0  0  0  0  0  0
    7.9959  -18.5166   18.3208 C   0  0  0  0  0  0  0  0  0  0  0  0
    8.4706  -17.5927   17.6175 O   0  0  0  0  0  0  0  0  0  0  0  0
   10.6005  -18.3787   20.9762 C   0  0  0  0  0  0  0  0  0  0  0  0
   10.2593  -19.0199   22.0030 O   0  0  0  0  0  0  0  0  0  0  0  0
    6.8433  -19.1376   17.8630 O   0  0  0  0  0  0  0  0  0  0  0  0
   11.9925  -18.1646   20.7912 N   0  0  0  0  0  0  0  0  0  0  0  0
   13.0165  -18.6390   21.6822 C   0  0  1  0  0  0  0  0  0  0  0  0
   14.4051  -18.4734   21.1049 C   0  0  0  0  0  0  0  0  0  0  0  0
   14.5988  -19.1955   19.8488 C   0  0  0  0  0  0  0  0  0  0  0  0
   14.9809  -18.7033   18.7711 O   0  0  0  0  0  0  0  0  0  0  0  0
   12.8830  -17.9514   22.9930 C   0  0  0  0  0  0  0  0  0  0  0  0
   13.1655  -16.7318   23.0978 O   0  0  0  0  0  0  0  0  0  0  0  0
   14.3285  -20.5684   19.8625 O   0  0  0  0  0  0  0  0  0  0  0  0
   12.4460  -18.5966   24.1694 N   0  0  0  0  0  0  0  0  0  0  0  0
   12.2051  -17.8536   25.4111 C   0  0  1  0  0  0  0  0  0  0  0  0
   11.3254  -16.6833   25.1905 C   0  0  0  0  0  0  0  0  0  0  0  0
    9.9610  -17.0734   24.7173 C   0  0  0  0  0  0  0  0  0  0  0  0
    9.0640  -15.8993   24.5688 C   0  0  0  0  0  0  0  0  0  0  0  0
    9.5089  -14.7654   24.8096 O   0  0  0  0  0  0  0  0  0  0  0  0
   11.7277  -18.7712   26.4681 C   0  0  0  0  0  0  0  0  0  0  0  0
   11.3503  -20.0720   26.3226 O   0  0  0  0  0  0  0  0  0  0  0  0
    7.7611  -16.0608   24.1720 O   0  0  0  0  0  0  0  0  0  0  0  0
   11.6544  -18.3036   27.6574 O   0  0  0  0  0  0  0  0  0  0  0  0
  2  3  1  0
  2  1  1  6
  3  4  1  0
  4  8  1  0
  4  5  2  0
  6  2  1  0
  6  7  2  0
  9  6  1  0
 10  9  1  0
 10 14  1  0
 10 11  1  6
 12 11  1  0
 13 12  2  0
 14 17  1  0
 15 14  2  0
 16 12  1  0
 17 18  1  0
 18 23  1  0
 18 19  1  6
 20 19  1  0
 21 20  1  0
 21 22  2  0
 23 26  2  0
 23 24  1  0
 25 21  1  0
M  END
$$$$
