DDE.pdb
     RDKit          3D

 26 25  0  0  1  0  0  0  0  0999 V2000
   13.2513  -13.7461   17.3784 N   0  0  0  0  0  0  0  0  0  0  0  0
   13.3997  -14.9583   18.1698 C   0  0  1  0  0  0  0  0  0  0  0  0
   14.8703  -15.0857   18.4903 C   0  0  0  0  0  0  0  0  0  0  0  0
   15.5703  -15.3815   17.2133 C   0  0  0  0  0  0  0  0  0  0  0  0
   15.2173  -14.9046   16.1082 O   0  0  0  0  0  0  0  0  0  0  0  0
   12.5470  -14.9257   19.3798 C   0  0  0  0  0  0  0  0  0  0  0  0
   12.4026  -13.8551   20.0238 O   0  0  0  0  0  0  0  0  0  0  0  0
   16.6717  -16.2244   17.2206 O   0  0  0  0  0  0  0  0  0  0  0  0
   11.8591  -16.0656   19.8748 N   0  0  0  0  0  0  0  0  0  0  0  0
   11.0901  -16.0907   21.0895 C   0  0  1  0  0  0  0  0  0  0  0  0
    9.7077  -16.6703   20.8849 C   0  0  0  0  0  0  0  0  0  0  0  0
    9.7189  -17.9698   20.2157 C   0  0  0  0  0  0  0  0  0  0  0  0
   10.7190  -18.5464   19.7498 O   0  0  0  0  0  0  0  0  0  0  0  0
   11.8456  -16.8320   22.1329 C   0  0  0  0  0  0  0  0  0  0  0  0
   12.2264  -18.0100   21.9194 O   0  0  0  0  0  0  0  0  0  0  0  0
    8.4885  -18.6242   20.0885 O   0  0  0  0  0  0  0  0  0  0  0  0
   12.1759  -16.2850   23.3910 N   0  0  0  0  0  0  0  0  0  0  0  0
   12.8035  -17.0940   24.4415 C   0  0  1  0  0  0  0  0  0  0  0  0
   14.1669  -16.6153   24.7644 C   0  0  0  0  0  0  0  0  0  0  0  0
   15.0634  -16.5893   23.5672 C   0  0  0  0  0  0  0  0  0  0  0  0
   16.4287  -16.1107   23.9016 C   0  0  0  0  0  0  0  0  0  0  0  0
   16.9137  -15.1688   23.2540 O   0  0  0  0  0  0  0  0  0  0  0  0
   11.9078  -17.1873   25.6147 C   0  0  0  0  0  0  0  0  0  0  0  0
   12.0648  -17.9798   26.7114 O   0  0  0  0  0  0  0  0  0  0  0  0
   17.1478  -16.6985   24.9108 O   0  0  0  0  0  0  0  0  0  0  0  0
   10.8634  -16.4474   25.6117 O   0  0  0  0  0  0  0  0  0  0  0  0
  2  3  1  0
  2  1  1  1
  3  4  1  0
  4  8  1  0
  4  5  2  0
  6  2  1  0
  6  7  2  0
  9  6  1  0
 10  9  1  0
 10 14  1  0
 10 11  1  6
 12 11  1  0
 13 12  2  0
 14 17  1  0
 15 14  2  0
 16 12  1  0
 17 18  1  0
 18 23  1  0
 18 19  1  1
 20 19  1  0
 21 20  1  0
 21 22  2  0
 23 26  2  0
 23 24  1  0
 25 21  1  0
M  END
$$$$
