DDE.pdb
     RDKit          3D

 26 25  0  0  1  0  0  0  0  0999 V2000
   11.7623  -18.5897   17.5859 N   0  0  0  0  0  0  0  0  0  0  0  0
   10.7124  -17.5843   17.5169 C   0  0  1  0  0  0  0  0  0  0  0  0
    9.4836  -18.2811   16.9821 C   0  0  0  0  0  0  0  0  0  0  0  0
    9.8459  -18.8469   15.6566 C   0  0  0  0  0  0  0  0  0  0  0  0
   10.4749  -18.2039   14.7823 O   0  0  0  0  0  0  0  0  0  0  0  0
   10.4851  -16.9441   18.8325 C   0  0  0  0  0  0  0  0  0  0  0  0
    9.3659  -16.4396   19.1061 O   0  0  0  0  0  0  0  0  0  0  0  0
    9.4805  -20.1492   15.3498 O   0  0  0  0  0  0  0  0  0  0  0  0
   11.4850  -16.8615   19.8380 N   0  0  0  0  0  0  0  0  0  0  0  0
   11.2638  -16.3671   21.1700 C   0  0  1  0  0  0  0  0  0  0  0  0
   10.0375  -16.9752   21.8144 C   0  0  0  0  0  0  0  0  0  0  0  0
    9.6852  -16.3524   23.0890 C   0  0  0  0  0  0  0  0  0  0  0  0
    8.5634  -16.3693   23.6285 O   0  0  0  0  0  0  0  0  0  0  0  0
   12.4833  -16.5979   21.9875 C   0  0  0  0  0  0  0  0  0  0  0  0
   12.7149  -17.7351   22.4685 O   0  0  0  0  0  0  0  0  0  0  0  0
   10.7069  -15.6745   23.7632 O   0  0  0  0  0  0  0  0  0  0  0  0
   13.4319  -15.5925   22.2712 N   0  0  0  0  0  0  0  0  0  0  0  0
   14.6842  -15.8917   22.9742 C   0  0  1  0  0  0  0  0  0  0  0  0
   15.8038  -15.0558   22.4846 C   0  0  0  0  0  0  0  0  0  0  0  0
   15.9636  -15.1256   20.9989 C   0  0  0  0  0  0  0  0  0  0  0  0
   17.0409  -14.2281   20.5098 C   0  0  0  0  0  0  0  0  0  0  0  0
   17.6541  -13.5209   21.3256 O   0  0  0  0  0  0  0  0  0  0  0  0
   14.4763  -15.8179   24.4366 C   0  0  0  0  0  0  0  0  0  0  0  0
   13.3299  -15.4812   25.0909 O   0  0  0  0  0  0  0  0  0  0  0  0
   17.3569  -14.1776   19.1762 O   0  0  0  0  0  0  0  0  0  0  0  0
   15.4777  -16.0975   25.1832 O   0  0  0  0  0  0  0  0  0  0  0  0
  2  3  1  0
  2  1  1  1
  3  4  1  0
  4  8  1  0
  4  5  2  0
  6  2  1  0
  6  7  2  0
  9  6  1  0
 10  9  1  0
 10 14  1  0
 10 11  1  1
 12 11  1  0
 13 12  2  0
 14 17  1  0
 15 14  2  0
 16 12  1  0
 17 18  1  0
 18 23  1  0
 18 19  1  6
 20 19  1  0
 21 20  1  0
 21 22  2  0
 23 26  2  0
 23 24  1  0
 25 21  1  0
M  END
$$$$
