DDE.pdb
     RDKit          3D

 26 25  0  0  1  0  0  0  0  0999 V2000
   11.1635  -18.5536   20.6090 N   0  0  0  0  0  0  0  0  0  0  0  0
   10.7442  -17.2453   21.0889 C   0  0  1  0  0  0  0  0  0  0  0  0
    9.8705  -16.6506   20.0098 C   0  0  0  0  0  0  0  0  0  0  0  0
   10.6740  -16.6318   18.7599 C   0  0  0  0  0  0  0  0  0  0  0  0
   11.9186  -16.7865   18.7392 O   0  0  0  0  0  0  0  0  0  0  0  0
   10.0590  -17.3402   22.3980 C   0  0  0  0  0  0  0  0  0  0  0  0
    9.6269  -16.3029   22.9630 O   0  0  0  0  0  0  0  0  0  0  0  0
   10.0363  -16.4352   17.5440 O   0  0  0  0  0  0  0  0  0  0  0  0
    9.8522  -18.5701   23.0779 N   0  0  0  0  0  0  0  0  0  0  0  0
    9.1606  -18.7032   24.3314 C   0  0  1  0  0  0  0  0  0  0  0  0
    8.5027  -20.0568   24.4861 C   0  0  0  0  0  0  0  0  0  0  0  0
    7.9146  -20.2661   25.8079 C   0  0  0  0  0  0  0  0  0  0  0  0
    8.4943  -20.7411   26.8019 O   0  0  0  0  0  0  0  0  0  0  0  0
   10.1047  -18.4229   25.4445 C   0  0  0  0  0  0  0  0  0  0  0  0
   11.2934  -18.8242   25.3802 O   0  0  0  0  0  0  0  0  0  0  0  0
    6.5743  -19.8969   25.9673 O   0  0  0  0  0  0  0  0  0  0  0  0
    9.7454  -17.7126   26.6097 N   0  0  0  0  0  0  0  0  0  0  0  0
   10.7304  -17.3847   27.6461 C   0  0  1  0  0  0  0  0  0  0  0  0
   10.6956  -15.9485   28.0041 C   0  0  0  0  0  0  0  0  0  0  0  0
    9.4867  -15.2526   27.4637 C   0  0  0  0  0  0  0  0  0  0  0  0
    9.4554  -13.8157   27.8371 C   0  0  0  0  0  0  0  0  0  0  0  0
   10.3645  -13.3565   28.5473 O   0  0  0  0  0  0  0  0  0  0  0  0
   10.5741  -18.2942   28.8018 C   0  0  0  0  0  0  0  0  0  0  0  0
   11.3942  -18.4011   29.8842 O   0  0  0  0  0  0  0  0  0  0  0  0
    8.4378  -13.0035   27.4060 O   0  0  0  0  0  0  0  0  0  0  0  0
    9.5599  -19.0751   28.7968 O   0  0  0  0  0  0  0  0  0  0  0  0
  2  3  1  0
  2  1  1  6
  3  4  1  0
  4  8  1  0
  4  5  2  0
  6  2  1  0
  6  7  2  0
  9  6  1  0
 10  9  1  0
 10 14  1  0
 10 11  1  1
 12 11  1  0
 13 12  2  0
 14 17  1  0
 15 14  2  0
 16 12  1  0
 17 18  1  0
 18 23  1  0
 18 19  1  1
 20 19  1  0
 21 20  1  0
 21 22  2  0
 23 26  2  0
 23 24  1  0
 25 21  1  0
M  END
$$$$
