DDE.pdb
     RDKit          3D

 26 25  0  0  1  0  0  0  0  0999 V2000
   10.8190  -17.4522   20.1517 N   0  0  0  0  0  0  0  0  0  0  0  0
    9.6431  -16.6422   20.4328 C   0  0  1  0  0  0  0  0  0  0  0  0
    8.5532  -17.1299   19.5077 C   0  0  0  0  0  0  0  0  0  0  0  0
    9.0113  -16.8677   18.1186 C   0  0  0  0  0  0  0  0  0  0  0  0
    9.8119  -17.6136   17.5054 O   0  0  0  0  0  0  0  0  0  0  0  0
    9.2615  -16.7150   21.8616 C   0  0  0  0  0  0  0  0  0  0  0  0
    8.2870  -16.0461   22.2914 O   0  0  0  0  0  0  0  0  0  0  0  0
    8.5426  -15.7481   17.4475 O   0  0  0  0  0  0  0  0  0  0  0  0
    9.9499  -17.5198   22.8082 N   0  0  0  0  0  0  0  0  0  0  0  0
    9.5776  -17.6522   24.1907 C   0  0  1  0  0  0  0  0  0  0  0  0
   10.0421  -18.9613   24.7901 C   0  0  0  0  0  0  0  0  0  0  0  0
   11.4969  -19.0740   24.8758 C   0  0  0  0  0  0  0  0  0  0  0  0
   12.1896  -18.8748   25.8909 O   0  0  0  0  0  0  0  0  0  0  0  0
   10.0972  -16.4865   24.9523 C   0  0  0  0  0  0  0  0  0  0  0  0
   11.1187  -15.8750   24.5512 O   0  0  0  0  0  0  0  0  0  0  0  0
   12.1711  -19.4402   23.7055 O   0  0  0  0  0  0  0  0  0  0  0  0
    9.5018  -16.0024   26.1365 N   0  0  0  0  0  0  0  0  0  0  0  0
   10.0510  -14.8500   26.8591 C   0  0  1  0  0  0  0  0  0  0  0  0
    9.2897  -13.6112   26.5798 C   0  0  0  0  0  0  0  0  0  0  0  0
    7.8237  -13.7711   26.8304 C   0  0  0  0  0  0  0  0  0  0  0  0
    7.0757  -12.5098   26.5961 C   0  0  0  0  0  0  0  0  0  0  0  0
    7.7026  -11.4867   26.2767 O   0  0  0  0  0  0  0  0  0  0  0  0
   10.1756  -15.1649   28.2987 C   0  0  0  0  0  0  0  0  0  0  0  0
   10.6988  -14.3714   29.2745 O   0  0  0  0  0  0  0  0  0  0  0  0
    5.7114  -12.4710   26.7302 O   0  0  0  0  0  0  0  0  0  0  0  0
    9.7496  -16.3085   28.6849 O   0  0  0  0  0  0  0  0  0  0  0  0
  2  3  1  0
  2  1  1  1
  3  4  1  0
  4  8  1  0
  4  5  2  0
  6  2  1  0
  6  7  2  0
  9  6  1  0
 10  9  1  0
 10 14  1  0
 10 11  1  1
 12 11  1  0
 13 12  2  0
 14 17  1  0
 15 14  2  0
 16 12  1  0
 17 18  1  0
 18 23  1  0
 18 19  1  1
 20 19  1  0
 21 20  1  0
 21 22  2  0
 23 26  2  0
 23 24  1  0
 25 21  1  0
M  END
$$$$
