DDE.pdb
     RDKit          3D

 26 25  0  0  1  0  0  0  0  0999 V2000
   13.1565  -18.5072   21.4218 N   0  0  0  0  0  0  0  0  0  0  0  0
   12.0049  -17.6179   21.4480 C   0  0  1  0  0  0  0  0  0  0  0  0
   11.2529  -17.8493   20.1587 C   0  0  0  0  0  0  0  0  0  0  0  0
   12.0755  -17.2707   19.0648 C   0  0  0  0  0  0  0  0  0  0  0  0
   13.2839  -17.5568   18.8870 O   0  0  0  0  0  0  0  0  0  0  0  0
   11.1706  -17.8438   22.6502 C   0  0  0  0  0  0  0  0  0  0  0  0
   10.1595  -17.1267   22.8630 O   0  0  0  0  0  0  0  0  0  0  0  0
   11.4987  -16.3675   18.1844 O   0  0  0  0  0  0  0  0  0  0  0  0
   11.4499  -18.8534   23.6096 N   0  0  0  0  0  0  0  0  0  0  0  0
   10.6696  -19.0922   24.7935 C   0  0  1  0  0  0  0  0  0  0  0  0
   10.4600  -20.5670   25.0580 C   0  0  0  0  0  0  0  0  0  0  0  0
    9.5956  -21.2140   24.0726 C   0  0  0  0  0  0  0  0  0  0  0  0
    8.3871  -20.9780   23.8896 O   0  0  0  0  0  0  0  0  0  0  0  0
   11.3124  -18.4146   25.9495 C   0  0  0  0  0  0  0  0  0  0  0  0
   12.5179  -18.6391   26.2223 O   0  0  0  0  0  0  0  0  0  0  0  0
   10.1850  -22.1895   23.2608 O   0  0  0  0  0  0  0  0  0  0  0  0
   10.6383  -17.5048   26.7916 N   0  0  0  0  0  0  0  0  0  0  0  0
   11.2923  -16.9090   27.9617 C   0  0  1  0  0  0  0  0  0  0  0  0
   10.6778  -15.6152   28.3368 C   0  0  0  0  0  0  0  0  0  0  0  0
    9.7822  -15.0751   27.2673 C   0  0  0  0  0  0  0  0  0  0  0  0
    9.1248  -13.8079   27.6759 C   0  0  0  0  0  0  0  0  0  0  0  0
    9.3521  -13.3471   28.8063 O   0  0  0  0  0  0  0  0  0  0  0  0
   11.3468  -17.8893   29.0677 C   0  0  0  0  0  0  0  0  0  0  0  0
   10.7294  -19.1022   29.1262 O   0  0  0  0  0  0  0  0  0  0  0  0
    8.2771  -13.1525   26.8198 O   0  0  0  0  0  0  0  0  0  0  0  0
   12.0477  -17.5754   30.0918 O   0  0  0  0  0  0  0  0  0  0  0  0
  2  3  1  0
  2  1  1  1
  3  4  1  0
  4  8  1  0
  4  5  2  0
  6  2  1  0
  6  7  2  0
  9  6  1  0
 10  9  1  0
 10 14  1  0
 10 11  1  1
 12 11  1  0
 13 12  2  0
 14 17  1  0
 15 14  2  0
 16 12  1  0
 17 18  1  0
 18 23  1  0
 18 19  1  1
 20 19  1  0
 21 20  1  0
 21 22  2  0
 23 26  2  0
 23 24  1  0
 25 21  1  0
M  END
$$$$
