DDE.pdb
     RDKit          3D

 26 25  0  0  1  0  0  0  0  0999 V2000
   11.6761  -19.1326   17.9324 N   0  0  0  0  0  0  0  0  0  0  0  0
   11.5970  -17.6810   17.8681 C   0  0  1  0  0  0  0  0  0  0  0  0
   10.3892  -17.3526   17.0226 C   0  0  0  0  0  0  0  0  0  0  0  0
   10.6949  -17.7930   15.6367 C   0  0  0  0  0  0  0  0  0  0  0  0
   11.7485  -18.3971   15.3229 O   0  0  0  0  0  0  0  0  0  0  0  0
   11.5351  -17.0792   19.2196 C   0  0  0  0  0  0  0  0  0  0  0  0
   10.8596  -16.0371   19.4182 O   0  0  0  0  0  0  0  0  0  0  0  0
    9.7836  -17.5339   14.6237 O   0  0  0  0  0  0  0  0  0  0  0  0
   12.2131  -17.6237   20.3428 N   0  0  0  0  0  0  0  0  0  0  0  0
   12.0424  -17.1713   21.6969 C   0  0  1  0  0  0  0  0  0  0  0  0
   10.6181  -17.3292   22.1822 C   0  0  0  0  0  0  0  0  0  0  0  0
   10.4381  -16.9448   23.5810 C   0  0  0  0  0  0  0  0  0  0  0  0
   10.8799  -15.9140   24.1212 O   0  0  0  0  0  0  0  0  0  0  0  0
   13.0032  -17.8857   22.5774 C   0  0  0  0  0  0  0  0  0  0  0  0
   13.3177  -19.0772   22.3330 O   0  0  0  0  0  0  0  0  0  0  0  0
    9.6994  -17.8198   24.3853 O   0  0  0  0  0  0  0  0  0  0  0  0
   13.6074  -17.2977   23.7089 N   0  0  0  0  0  0  0  0  0  0  0  0
   15.0553  -17.0724   23.7789 C   0  0  1  0  0  0  0  0  0  0  0  0
   15.5615  -16.3674   22.5793 C   0  0  0  0  0  0  0  0  0  0  0  0
   17.0118  -16.0183   22.6896 C   0  0  0  0  0  0  0  0  0  0  0  0
   17.4877  -15.2319   21.5233 C   0  0  0  0  0  0  0  0  0  0  0  0
   18.6983  -14.9754   21.4215 O   0  0  0  0  0  0  0  0  0  0  0  0
   15.4058  -16.4116   25.0547 C   0  0  0  0  0  0  0  0  0  0  0  0
   16.5732  -16.5229   25.7479 O   0  0  0  0  0  0  0  0  0  0  0  0
   16.6054  -14.7924   20.5696 O   0  0  0  0  0  0  0  0  0  0  0  0
   14.5221  -15.6479   25.5784 O   0  0  0  0  0  0  0  0  0  0  0  0
  2  3  1  0
  2  1  1  1
  3  4  1  0
  4  8  1  0
  4  5  2  0
  6  2  1  0
  6  7  2  0
  9  6  1  0
 10  9  1  0
 10 14  1  0
 10 11  1  1
 12 11  1  0
 13 12  2  0
 14 17  1  0
 15 14  2  0
 16 12  1  0
 17 18  1  0
 18 23  1  0
 18 19  1  6
 20 19  1  0
 21 20  1  0
 21 22  2  0
 23 26  2  0
 23 24  1  0
 25 21  1  0
M  END
$$$$
