DDE.pdb
     RDKit          3D

 26 25  0  0  1  0  0  0  0  0999 V2000
   11.3971  -18.1264   19.8456 N   0  0  0  0  0  0  0  0  0  0  0  0
   10.2491  -17.3113   20.2138 C   0  0  1  0  0  0  0  0  0  0  0  0
    9.2603  -17.4219   19.0774 C   0  0  0  0  0  0  0  0  0  0  0  0
    9.9077  -16.8308   17.8776 C   0  0  0  0  0  0  0  0  0  0  0  0
   11.1509  -16.7909   17.7154 O   0  0  0  0  0  0  0  0  0  0  0  0
    9.6803  -17.7294   21.5154 C   0  0  0  0  0  0  0  0  0  0  0  0
    8.6843  -17.1283   21.9933 O   0  0  0  0  0  0  0  0  0  0  0  0
    9.1170  -16.2908   16.8742 O   0  0  0  0  0  0  0  0  0  0  0  0
   10.2065  -18.8026   22.2829 N   0  0  0  0  0  0  0  0  0  0  0  0
    9.6617  -19.2544   23.5346 C   0  0  1  0  0  0  0  0  0  0  0  0
    9.6271  -20.7634   23.6371 C   0  0  0  0  0  0  0  0  0  0  0  0
    9.0751  -21.2443   24.9023 C   0  0  0  0  0  0  0  0  0  0  0  0
    9.3828  -20.8387   26.0383 O   0  0  0  0  0  0  0  0  0  0  0  0
   10.4310  -18.6472   24.6519 C   0  0  0  0  0  0  0  0  0  0  0  0
   11.6849  -18.5914   24.5979 O   0  0  0  0  0  0  0  0  0  0  0  0
    8.1109  -22.2555   24.8258 O   0  0  0  0  0  0  0  0  0  0  0  0
    9.8292  -18.1106   25.8099 N   0  0  0  0  0  0  0  0  0  0  0  0
   10.5673  -17.2337   26.7254 C   0  0  1  0  0  0  0  0  0  0  0  0
    9.8422  -15.9681   26.9799 C   0  0  0  0  0  0  0  0  0  0  0  0
   10.5527  -15.0877   27.9586 C   0  0  0  0  0  0  0  0  0  0  0  0
    9.8530  -13.7930   28.1563 C   0  0  0  0  0  0  0  0  0  0  0  0
   10.3405  -12.9558   28.9328 O   0  0  0  0  0  0  0  0  0  0  0  0
   10.9323  -17.9725   27.9535 C   0  0  0  0  0  0  0  0  0  0  0  0
   12.0623  -17.8250   28.6998 O   0  0  0  0  0  0  0  0  0  0  0  0
    8.6838  -13.5219   27.4927 O   0  0  0  0  0  0  0  0  0  0  0  0
   10.1035  -18.8533   28.3726 O   0  0  0  0  0  0  0  0  0  0  0  0
  2  3  1  0
  2  1  1  6
  3  4  1  0
  4  8  1  0
  4  5  2  0
  6  2  1  0
  6  7  2  0
  9  6  1  0
 10  9  1  0
 10 14  1  0
 10 11  1  6
 12 11  1  0
 13 12  2  0
 14 17  1  0
 15 14  2  0
 16 12  1  0
 17 18  1  0
 18 23  1  0
 18 19  1  1
 20 19  1  0
 21 20  1  0
 21 22  2  0
 23 26  2  0
 23 24  1  0
 25 21  1  0
M  END
$$$$
