DDE.pdb
     RDKit          3D

 26 25  0  0  1  0  0  0  0  0999 V2000
   11.3691  -19.3536   17.2630 N   0  0  0  0  0  0  0  0  0  0  0  0
   11.4502  -17.9116   17.4416 C   0  0  1  0  0  0  0  0  0  0  0  0
   10.4891  -17.3002   16.4497 C   0  0  0  0  0  0  0  0  0  0  0  0
   10.9874  -17.6431   15.0924 C   0  0  0  0  0  0  0  0  0  0  0  0
   12.2043  -17.6550   14.7884 O   0  0  0  0  0  0  0  0  0  0  0  0
   11.1616  -17.5198   18.8401 C   0  0  0  0  0  0  0  0  0  0  0  0
   11.6148  -16.4412   19.3016 O   0  0  0  0  0  0  0  0  0  0  0  0
   10.0790  -17.9698   14.0965 O   0  0  0  0  0  0  0  0  0  0  0  0
   10.3789  -18.3121   19.7218 N   0  0  0  0  0  0  0  0  0  0  0  0
    9.9727  -17.9065   21.0401 C   0  0  1  0  0  0  0  0  0  0  0  0
    8.8224  -18.7344   21.5693 C   0  0  0  0  0  0  0  0  0  0  0  0
    7.7147  -18.8564   20.6232 C   0  0  0  0  0  0  0  0  0  0  0  0
    7.0280  -17.9207   20.1731 O   0  0  0  0  0  0  0  0  0  0  0  0
   11.1460  -17.9541   21.9511 C   0  0  0  0  0  0  0  0  0  0  0  0
   11.6821  -19.0548   22.2330 O   0  0  0  0  0  0  0  0  0  0  0  0
    7.3994  -20.1473   20.1846 O   0  0  0  0  0  0  0  0  0  0  0  0
   11.7194  -16.8083   22.5423 N   0  0  0  0  0  0  0  0  0  0  0  0
   12.7993  -16.9100   23.5300 C   0  0  1  0  0  0  0  0  0  0  0  0
   13.8938  -15.9531   23.2497 C   0  0  0  0  0  0  0  0  0  0  0  0
   14.4083  -16.0654   21.8496 C   0  0  0  0  0  0  0  0  0  0  0  0
   15.5240  -15.1214   21.5867 C   0  0  0  0  0  0  0  0  0  0  0  0
   15.6850  -14.6825   20.4364 O   0  0  0  0  0  0  0  0  0  0  0  0
   12.2480  -16.8058   24.8984 C   0  0  0  0  0  0  0  0  0  0  0  0
   10.9650  -16.5138   25.2508 O   0  0  0  0  0  0  0  0  0  0  0  0
   16.3677  -14.7375   22.5975 O   0  0  0  0  0  0  0  0  0  0  0  0
   13.0562  -17.0086   25.8701 O   0  0  0  0  0  0  0  0  0  0  0  0
  2  3  1  0
  2  1  1  1
  3  4  1  0
  4  8  1  0
  4  5  2  0
  6  2  1  0
  6  7  2  0
  9  6  1  0
 10  9  1  0
 10 14  1  0
 10 11  1  1
 12 11  1  0
 13 12  2  0
 14 17  1  0
 15 14  2  0
 16 12  1  0
 17 18  1  0
 18 23  1  0
 18 19  1  6
 20 19  1  0
 21 20  1  0
 21 22  2  0
 23 26  2  0
 23 24  1  0
 25 21  1  0
M  END
$$$$
