DDE.pdb
     RDKit          3D

 26 25  0  0  1  0  0  0  0  0999 V2000
   11.9171  -18.2303   19.6971 N   0  0  0  0  0  0  0  0  0  0  0  0
   10.7360  -17.4280   19.9782 C   0  0  1  0  0  0  0  0  0  0  0  0
    9.7969  -17.6207   18.8110 C   0  0  0  0  0  0  0  0  0  0  0  0
   10.5695  -17.3240   17.5768 C   0  0  0  0  0  0  0  0  0  0  0  0
   11.5630  -17.9954   17.2085 O   0  0  0  0  0  0  0  0  0  0  0  0
   10.1251  -17.7957   21.2760 C   0  0  0  0  0  0  0  0  0  0  0  0
    9.1476  -17.1427   21.7231 O   0  0  0  0  0  0  0  0  0  0  0  0
   10.1906  -16.2562   16.7770 O   0  0  0  0  0  0  0  0  0  0  0  0
   10.5894  -18.8755   22.0735 N   0  0  0  0  0  0  0  0  0  0  0  0
   10.0566  -19.2260   23.3623 C   0  0  1  0  0  0  0  0  0  0  0  0
   10.0641  -20.7197   23.6024 C   0  0  0  0  0  0  0  0  0  0  0  0
    9.0014  -21.1660   24.5014 C   0  0  0  0  0  0  0  0  0  0  0  0
    8.7454  -20.6955   25.6252 O   0  0  0  0  0  0  0  0  0  0  0  0
   10.8078  -18.4979   24.4180 C   0  0  0  0  0  0  0  0  0  0  0  0
   12.0258  -18.2348   24.2584 O   0  0  0  0  0  0  0  0  0  0  0  0
    8.1986  -22.2212   24.0539 O   0  0  0  0  0  0  0  0  0  0  0  0
   10.2272  -18.0671   25.6298 N   0  0  0  0  0  0  0  0  0  0  0  0
   10.9880  -17.2910   26.6150 C   0  0  1  0  0  0  0  0  0  0  0  0
   10.5257  -15.8862   26.6853 C   0  0  0  0  0  0  0  0  0  0  0  0
   10.0487  -15.5079   28.0516 C   0  0  0  0  0  0  0  0  0  0  0  0
    9.5471  -14.1111   28.1017 C   0  0  0  0  0  0  0  0  0  0  0  0
    8.6705  -13.7553   27.2975 O   0  0  0  0  0  0  0  0  0  0  0  0
   10.9890  -17.9874   27.9197 C   0  0  0  0  0  0  0  0  0  0  0  0
   11.8217  -17.7627   28.9741 O   0  0  0  0  0  0  0  0  0  0  0  0
   10.0428  -13.2229   29.0216 O   0  0  0  0  0  0  0  0  0  0  0  0
   10.1159  -18.9078   28.0905 O   0  0  0  0  0  0  0  0  0  0  0  0
  2  3  1  0
  2  1  1  6
  3  4  1  0
  4  8  1  0
  4  5  2  0
  6  2  1  0
  6  7  2  0
  9  6  1  0
 10  9  1  0
 10 14  1  0
 10 11  1  1
 12 11  1  0
 13 12  2  0
 14 17  1  0
 15 14  2  0
 16 12  1  0
 17 18  1  0
 18 23  1  0
 18 19  1  1
 20 19  1  0
 21 20  1  0
 21 22  2  0
 23 26  2  0
 23 24  1  0
 25 21  1  0
M  END
$$$$
