FTC.pdb
     RDKit          3D

 25 25  0  0  1  0  0  0  0  0999 V2000
   26.8964  -10.1214  -17.1139 N   0  0  0  0  0  0  0  0  0  0  0  0
   25.4879   -9.8856  -17.3705 C   0  0  1  0  0  0  0  0  0  0  0  0
   24.7005  -10.8732  -16.5250 C   0  0  0  0  0  0  0  0  0  0  0  0
   24.8280  -12.2511  -17.0204 C   0  0  0  0  0  0  0  0  0  0  0  0
   24.3923  -12.5887  -18.2812 C   0  0  0  0  0  0  0  0  0  0  0  0
   24.5117  -13.8771  -18.7440 C   0  0  0  0  0  0  0  0  0  0  0  0
   25.0761  -14.8580  -17.9408 C   0  0  0  0  0  0  0  0  0  0  0  0
   25.5023  -14.4911  -16.6862 C   0  0  0  0  0  0  0  0  0  0  0  0
   25.3920  -13.2065  -16.2033 C   0  0  0  0  0  0  0  0  0  0  0  0
   25.1158   -8.5102  -16.9225 C   0  0  0  0  0  0  0  0  0  0  0  0
   25.6207   -7.9793  -15.8874 O   0  0  0  0  0  0  0  0  0  0  0  0
   26.0929   -5.6127  -17.4663 C   0  0  0  0  0  0  0  0  0  0  0  0
   24.7179   -5.4770  -18.0570 C   0  0  1  0  0  0  0  0  0  0  0  0
   24.7908   -5.8780  -19.4004 O   0  0  0  0  0  0  0  0  0  0  0  0
   23.7784   -6.4080  -17.3468 C   0  0  2  0  0  0  0  0  0  0  0  0
   24.1680   -7.7649  -17.6715 N   0  0  0  0  0  0  0  0  0  0  0  0
   22.3708   -6.1871  -17.7704 C   0  0  0  0  0  0  0  0  0  0  0  0
   21.8954   -6.7540  -18.7809 O   0  0  0  0  0  0  0  0  0  0  0  0
   21.5185   -5.3217  -17.0373 N   0  0  0  0  0  0  0  0  0  0  0  0
   20.1617   -5.0375  -17.3800 C   0  0  1  0  0  0  0  0  0  0  0  0
   19.1770   -5.9890  -16.7367 C   0  0  0  0  0  0  0  0  0  0  0  0
   19.7049   -6.2764  -15.0126 S   0  0  0  0  0  0  0  0  0  0  0  0
   19.8396   -3.6635  -16.9141 C   0  0  0  0  0  0  0  0  0  0  0  0
   18.6119   -3.0594  -17.1532 O   0  0  0  0  0  0  0  0  0  0  0  0
   20.6991   -3.0039  -16.2760 O   0  0  0  0  0  0  0  0  0  0  0  0
  2  1  1  1
  2  3  1  0
  2 10  1  0
  4  3  1  0
  4  9  2  0
  5  4  1  0
  6  5  2  0
  6  7  1  0
  7  8  2  0
  8  9  1  0
 10 16  1  0
 11 10  2  0
 13 12  1  1
 13 14  1  0
 15 13  1  0
 15 16  1  6
 17 15  1  0
 17 19  1  0
 18 17  2  0
 20 19  1  0
 20 23  1  0
 20 21  1  1
 21 22  1  0
 23 25  2  0
 23 24  1  0
M  END
$$$$
