FTC.pdb
     RDKit          3D

 25 25  0  0  1  0  0  0  0  0999 V2000
   28.5692  -21.4487   -8.9809 N   0  0  0  0  0  0  0  0  0  0  0  0
   27.1921  -21.0143   -8.8380 C   0  0  1  0  0  0  0  0  0  0  0  0
   27.2011  -19.7409   -8.0082 C   0  0  0  0  0  0  0  0  0  0  0  0
   27.8174  -19.9438   -6.6894 C   0  0  0  0  0  0  0  0  0  0  0  0
   27.1446  -20.6145   -5.6940 C   0  0  0  0  0  0  0  0  0  0  0  0
   27.7211  -20.8039   -4.4610 C   0  0  0  0  0  0  0  0  0  0  0  0
   28.9955  -20.3183   -4.2041 C   0  0  0  0  0  0  0  0  0  0  0  0
   29.6431  -19.6524   -5.2177 C   0  0  0  0  0  0  0  0  0  0  0  0
   29.0838  -19.4518   -6.4597 C   0  0  0  0  0  0  0  0  0  0  0  0
   26.6272  -20.6759  -10.1786 C   0  0  0  0  0  0  0  0  0  0  0  0
   27.3637  -20.3369  -11.1537 O   0  0  0  0  0  0  0  0  0  0  0  0
   26.6697  -21.3237  -12.6247 C   0  0  0  0  0  0  0  0  0  0  0  0
   25.1711  -21.4282  -12.6586 C   0  0  1  0  0  0  0  0  0  0  0  0
   24.8271  -22.7335  -12.2727 O   0  0  0  0  0  0  0  0  0  0  0  0
   24.5845  -20.4793  -11.6540 C   0  0  2  0  0  0  0  0  0  0  0  0
   25.2230  -20.7323  -10.3785 N   0  0  0  0  0  0  0  0  0  0  0  0
   23.1173  -20.6735  -11.5150 C   0  0  0  0  0  0  0  0  0  0  0  0
   22.5593  -20.6610  -10.3939 O   0  0  0  0  0  0  0  0  0  0  0  0
   22.3003  -20.8801  -12.6563 N   0  0  0  0  0  0  0  0  0  0  0  0
   21.0640  -20.2089  -12.9013 C   0  0  1  0  0  0  0  0  0  0  0  0
   21.1996  -18.7021  -12.9080 C   0  0  0  0  0  0  0  0  0  0  0  0
   19.5278  -17.9785  -12.7843 S   0  0  0  0  0  0  0  0  0  0  0  0
   20.5609  -20.6277  -14.2356 C   0  0  0  0  0  0  0  0  0  0  0  0
   19.2328  -20.9639  -14.4643 O   0  0  0  0  0  0  0  0  0  0  0  0
   21.3531  -20.6867  -15.2104 O   0  0  0  0  0  0  0  0  0  0  0  0
  2  1  1  6
  2  3  1  0
  2 10  1  0
  4  3  1  0
  4  9  2  0
  5  4  1  0
  6  5  2  0
  6  7  1  0
  7  8  2  0
  8  9  1  0
 10 16  1  0
 11 10  2  0
 13 12  1  1
 13 14  1  0
 15 13  1  0
 15 16  1  1
 17 15  1  0
 17 19  1  0
 18 17  2  0
 20 19  1  0
 20 23  1  0
 20 21  1  6
 21 22  1  0
 23 25  2  0
 23 24  1  0
M  END
$$$$
