FTC.pdb
     RDKit          3D

 25 25  0  0  1  0  0  0  0  0999 V2000
   29.8620  -20.5689  -12.0553 N   0  0  0  0  0  0  0  0  0  0  0  0
   28.6224  -21.1461  -11.5698 C   0  0  1  0  0  0  0  0  0  0  0  0
   28.6093  -20.9886  -10.0582 C   0  0  0  0  0  0  0  0  0  0  0  0
   29.8532  -21.4700   -9.4405 C   0  0  0  0  0  0  0  0  0  0  0  0
   30.8908  -21.9330  -10.2166 C   0  0  0  0  0  0  0  0  0  0  0  0
   32.0536  -22.3830   -9.6387 C   0  0  0  0  0  0  0  0  0  0  0  0
   32.1955  -22.3757   -8.2582 C   0  0  0  0  0  0  0  0  0  0  0  0
   31.1422  -21.9075   -7.5090 C   0  0  0  0  0  0  0  0  0  0  0  0
   29.9690  -21.4523   -8.0677 C   0  0  0  0  0  0  0  0  0  0  0  0
   27.4611  -20.3804  -12.1138 C   0  0  0  0  0  0  0  0  0  0  0  0
   27.6017  -19.2515  -12.6741 O   0  0  0  0  0  0  0  0  0  0  0  0
   25.3860  -22.1592  -14.4797 C   0  0  0  0  0  0  0  0  0  0  0  0
   25.3110  -20.6806  -14.2227 C   0  0  1  0  0  0  0  0  0  0  0  0
   24.2339  -20.1738  -14.9668 O   0  0  0  0  0  0  0  0  0  0  0  0
   25.0209  -20.4436  -12.7689 C   0  0  2  0  0  0  0  0  0  0  0  0
   26.1545  -20.9243  -12.0057 N   0  0  0  0  0  0  0  0  0  0  0  0
   23.7959  -21.1650  -12.3345 C   0  0  0  0  0  0  0  0  0  0  0  0
   23.7869  -21.8772  -11.3043 O   0  0  0  0  0  0  0  0  0  0  0  0
   22.5924  -21.0673  -13.0794 N   0  0  0  0  0  0  0  0  0  0  0  0
   21.2823  -21.0996  -12.5122 C   0  0  1  0  0  0  0  0  0  0  0  0
   21.0364  -19.9789  -11.5261 C   0  0  0  0  0  0  0  0  0  0  0  0
   19.7394  -20.5195  -10.3602 S   0  0  0  0  0  0  0  0  0  0  0  0
   20.2927  -20.9643  -13.6128 C   0  0  0  0  0  0  0  0  0  0  0  0
   19.0442  -21.5718  -13.5772 O   0  0  0  0  0  0  0  0  0  0  0  0
   20.5774  -20.2764  -14.6262 O   0  0  0  0  0  0  0  0  0  0  0  0
  2  1  1  6
  2  3  1  0
  2 10  1  0
  4  3  1  0
  4  9  2  0
  5  4  1  0
  6  5  2  0
  6  7  1  0
  7  8  2  0
  8  9  1  0
 10 16  1  0
 11 10  2  0
 13 12  1  1
 13 14  1  0
 15 13  1  0
 15 16  1  1
 17 15  1  0
 17 19  1  0
 18 17  2  0
 20 19  1  0
 20 23  1  0
 20 21  1  1
 21 22  1  0
 23 25  2  0
 23 24  1  0
M  END
$$$$
