FTC.pdb
     RDKit          3D

 25 25  0  0  1  0  0  0  0  0999 V2000
   27.2711  -17.5586  -17.7814 N   0  0  0  0  0  0  0  0  0  0  0  0
   26.5004  -16.3761  -18.1178 C   0  0  1  0  0  0  0  0  0  0  0  0
   25.4498  -16.1952  -17.0346 C   0  0  0  0  0  0  0  0  0  0  0  0
   24.4609  -17.2825  -17.0351 C   0  0  0  0  0  0  0  0  0  0  0  0
   24.6060  -18.3660  -16.1994 C   0  0  0  0  0  0  0  0  0  0  0  0
   23.6812  -19.3824  -16.2002 C   0  0  0  0  0  0  0  0  0  0  0  0
   22.5842  -19.3277  -17.0486 C   0  0  0  0  0  0  0  0  0  0  0  0
   22.4659  -18.2331  -17.8720 C   0  0  0  0  0  0  0  0  0  0  0  0
   23.3807  -17.2042  -17.8869 C   0  0  0  0  0  0  0  0  0  0  0  0
   27.3849  -15.1728  -18.0948 C   0  0  0  0  0  0  0  0  0  0  0  0
   28.4782  -15.1527  -17.4523 O   0  0  0  0  0  0  0  0  0  0  0  0
   29.8162  -14.3772  -19.0912 C   0  0  0  0  0  0  0  0  0  0  0  0
   29.0346  -13.3548  -19.8670 C   0  0  1  0  0  0  0  0  0  0  0  0
   28.5169  -13.9905  -21.0066 O   0  0  0  0  0  0  0  0  0  0  0  0
   27.8776  -12.8798  -19.0367 C   0  0  2  0  0  0  0  0  0  0  0  0
   26.9994  -14.0096  -18.8111 N   0  0  0  0  0  0  0  0  0  0  0  0
   27.1215  -11.8007  -19.7250 C   0  0  0  0  0  0  0  0  0  0  0  0
   26.3222  -12.0534  -20.6555 O   0  0  0  0  0  0  0  0  0  0  0  0
   27.2842  -10.4435  -19.3454 N   0  0  0  0  0  0  0  0  0  0  0  0
   26.6310   -9.3409  -19.9753 C   0  0  1  0  0  0  0  0  0  0  0  0
   26.5450   -8.1184  -19.0882 C   0  0  0  0  0  0  0  0  0  0  0  0
   25.6509   -6.8137  -20.0003 S   0  0  0  0  0  0  0  0  0  0  0  0
   27.4044   -8.9704  -21.1891 C   0  0  0  0  0  0  0  0  0  0  0  0
   26.7965   -8.6420  -22.3940 O   0  0  0  0  0  0  0  0  0  0  0  0
   28.6609   -8.9472  -21.1449 O   0  0  0  0  0  0  0  0  0  0  0  0
  2  1  1  1
  2  3  1  0
  2 10  1  0
  4  3  1  0
  4  9  2  0
  5  4  1  0
  6  5  2  0
  6  7  1  0
  7  8  2  0
  8  9  1  0
 10 16  1  0
 11 10  2  0
 13 12  1  1
 13 14  1  0
 15 13  1  0
 15 16  1  6
 17 15  1  0
 17 19  1  0
 18 17  2  0
 20 19  1  0
 20 23  1  0
 20 21  1  1
 21 22  1  0
 23 25  2  0
 23 24  1  0
M  END
$$$$
