FTC.pdb
     RDKit          3D

 25 25  0  0  1  0  0  0  0  0999 V2000
   26.8592  -22.1822  -10.8933 N   0  0  0  0  0  0  0  0  0  0  0  0
   26.0976  -20.9744  -11.1518 C   0  0  1  0  0  0  0  0  0  0  0  0
   26.6524  -19.8854  -10.2483 C   0  0  0  0  0  0  0  0  0  0  0  0
   26.3537  -20.1360   -8.8312 C   0  0  0  0  0  0  0  0  0  0  0  0
   27.3492  -20.0849   -7.8826 C   0  0  0  0  0  0  0  0  0  0  0  0
   27.0695  -20.3193   -6.5577 C   0  0  0  0  0  0  0  0  0  0  0  0
   25.7729  -20.6118   -6.1589 C   0  0  0  0  0  0  0  0  0  0  0  0
   24.7994  -20.6558   -7.1288 C   0  0  0  0  0  0  0  0  0  0  0  0
   25.0582  -20.4242   -8.4612 C   0  0  0  0  0  0  0  0  0  0  0  0
   26.3056  -20.5384  -12.5651 C   0  0  0  0  0  0  0  0  0  0  0  0
   27.4391  -20.6036  -13.1301 O   0  0  0  0  0  0  0  0  0  0  0  0
   25.2242  -22.0068  -15.3585 C   0  0  0  0  0  0  0  0  0  0  0  0
   24.5505  -20.6722  -15.5102 C   0  0  1  0  0  0  0  0  0  0  0  0
   23.2557  -20.7868  -14.9799 O   0  0  0  0  0  0  0  0  0  0  0  0
   25.2921  -19.6471  -14.7020 C   0  0  2  0  0  0  0  0  0  0  0  0
   25.2068  -20.0336  -13.3084 N   0  0  0  0  0  0  0  0  0  0  0  0
   24.7048  -18.2922  -14.8720 C   0  0  0  0  0  0  0  0  0  0  0  0
   23.7280  -17.9121  -14.1863 O   0  0  0  0  0  0  0  0  0  0  0  0
   25.2371  -17.3834  -15.8225 N   0  0  0  0  0  0  0  0  0  0  0  0
   24.7193  -16.0766  -16.0740 C   0  0  1  0  0  0  0  0  0  0  0  0
   25.7459  -15.1374  -16.6680 C   0  0  0  0  0  0  0  0  0  0  0  0
   27.1454  -15.0111  -15.5021 S   0  0  0  0  0  0  0  0  0  0  0  0
   23.5969  -16.1963  -17.0408 C   0  0  0  0  0  0  0  0  0  0  0  0
   22.6790  -15.1758  -17.2539 O   0  0  0  0  0  0  0  0  0  0  0  0
   23.4544  -17.2558  -17.7028 O   0  0  0  0  0  0  0  0  0  0  0  0
  2  1  1  6
  2  3  1  0
  2 10  1  0
  4  3  1  0
  4  9  2  0
  5  4  1  0
  6  5  2  0
  6  7  1  0
  7  8  2  0
  8  9  1  0
 10 16  1  0
 11 10  2  0
 13 12  1  1
 13 14  1  0
 15 13  1  0
 15 16  1  1
 17 15  1  0
 17 19  1  0
 18 17  2  0
 20 19  1  0
 20 23  1  0
 20 21  1  6
 21 22  1  0
 23 25  2  0
 23 24  1  0
M  END
$$$$
