FTC.pdb
     RDKit          3D

 25 25  0  0  1  0  0  0  0  0999 V2000
   28.5759  -21.3614   -9.0823 N   0  0  0  0  0  0  0  0  0  0  0  0
   27.2007  -20.9081   -8.9892 C   0  0  1  0  0  0  0  0  0  0  0  0
   27.2024  -19.6116   -8.1960 C   0  0  0  0  0  0  0  0  0  0  0  0
   27.7146  -19.7982   -6.8311 C   0  0  0  0  0  0  0  0  0  0  0  0
   26.8528  -20.0018   -5.7779 C   0  0  0  0  0  0  0  0  0  0  0  0
   27.3321  -20.1762   -4.5018 C   0  0  0  0  0  0  0  0  0  0  0  0
   28.6983  -20.1488   -4.2592 C   0  0  0  0  0  0  0  0  0  0  0  0
   29.5346  -19.9435   -5.3309 C   0  0  0  0  0  0  0  0  0  0  0  0
   29.0753  -19.7666   -6.6168 C   0  0  0  0  0  0  0  0  0  0  0  0
   26.6759  -20.6021  -10.3537 C   0  0  0  0  0  0  0  0  0  0  0  0
   27.4449  -20.4097  -11.3436 O   0  0  0  0  0  0  0  0  0  0  0  0
   26.5904  -21.4038  -12.9113 C   0  0  0  0  0  0  0  0  0  0  0  0
   25.0962  -21.4369  -12.7551 C   0  0  1  0  0  0  0  0  0  0  0  0
   24.7613  -22.6454  -12.1241 O   0  0  0  0  0  0  0  0  0  0  0  0
   24.6659  -20.3123  -11.8584 C   0  0  2  0  0  0  0  0  0  0  0  0
   25.2738  -20.5220  -10.5602 N   0  0  0  0  0  0  0  0  0  0  0  0
   23.1877  -20.2731  -11.7070 C   0  0  0  0  0  0  0  0  0  0  0  0
   22.6281  -20.6490  -10.6515 O   0  0  0  0  0  0  0  0  0  0  0  0
   22.3614  -19.8053  -12.7612 N   0  0  0  0  0  0  0  0  0  0  0  0
   20.9599  -19.5579  -12.6448 C   0  0  1  0  0  0  0  0  0  0  0  0
   20.4655  -18.4932  -13.5991 C   0  0  0  0  0  0  0  0  0  0  0  0
   18.6825  -18.2404  -13.2975 S   0  0  0  0  0  0  0  0  0  0  0  0
   20.2352  -20.8185  -12.9522 C   0  0  0  0  0  0  0  0  0  0  0  0
   20.5394  -21.6085  -14.0534 O   0  0  0  0  0  0  0  0  0  0  0  0
   19.3058  -21.2034  -12.1977 O   0  0  0  0  0  0  0  0  0  0  0  0
  2  1  1  6
  2  3  1  0
  2 10  1  0
  4  3  1  0
  4  9  2  0
  5  4  1  0
  6  5  2  0
  6  7  1  0
  7  8  2  0
  8  9  1  0
 10 16  1  0
 11 10  2  0
 13 12  1  1
 13 14  1  0
 15 13  1  0
 15 16  1  1
 17 15  1  0
 17 19  1  0
 18 17  2  0
 20 19  1  0
 20 23  1  0
 20 21  1  6
 21 22  1  0
 23 25  2  0
 23 24  1  0
M  END
$$$$
