FTC.pdb
     RDKit          3D

 25 25  0  0  1  0  0  0  0  0999 V2000
   25.3949  -13.9834  -17.3112 N   0  0  0  0  0  0  0  0  0  0  0  0
   26.1183  -14.7521  -16.3156 C   0  0  1  0  0  0  0  0  0  0  0  0
   26.8898  -13.7667  -15.4532 C   0  0  0  0  0  0  0  0  0  0  0  0
   27.9591  -13.0930  -16.2036 C   0  0  0  0  0  0  0  0  0  0  0  0
   28.9780  -13.8166  -16.7795 C   0  0  0  0  0  0  0  0  0  0  0  0
   29.9776  -13.1864  -17.4810 C   0  0  0  0  0  0  0  0  0  0  0  0
   29.9710  -11.8054  -17.6175 C   0  0  0  0  0  0  0  0  0  0  0  0
   28.9405  -11.1092  -17.0313 C   0  0  0  0  0  0  0  0  0  0  0  0
   27.9296  -11.7208  -16.3245 C   0  0  0  0  0  0  0  0  0  0  0  0
   25.1523  -15.4680  -15.4296 C   0  0  0  0  0  0  0  0  0  0  0  0
   24.1693  -14.8769  -14.8885 O   0  0  0  0  0  0  0  0  0  0  0  0
   22.2578  -18.9010  -14.8422 C   0  0  0  0  0  0  0  0  0  0  0  0
   23.1979  -17.8892  -15.4340 C   0  0  1  0  0  0  0  0  0  0  0  0
   22.5015  -16.6752  -15.5442 O   0  0  0  0  0  0  0  0  0  0  0  0
   24.3521  -17.6769  -14.4977 C   0  0  2  0  0  0  0  0  0  0  0  0
   25.3306  -16.8536  -15.1785 N   0  0  0  0  0  0  0  0  0  0  0  0
   24.9813  -18.9664  -14.1094 C   0  0  0  0  0  0  0  0  0  0  0  0
   25.4973  -19.7252  -14.9618 O   0  0  0  0  0  0  0  0  0  0  0  0
   25.0160  -19.3785  -12.7523 N   0  0  0  0  0  0  0  0  0  0  0  0
   25.5692  -20.6122  -12.2929 C   0  0  1  0  0  0  0  0  0  0  0  0
   26.0926  -20.5349  -10.8756 C   0  0  0  0  0  0  0  0  0  0  0  0
   26.6006  -22.2120  -10.3629 S   0  0  0  0  0  0  0  0  0  0  0  0
   24.5019  -21.6458  -12.3295 C   0  0  0  0  0  0  0  0  0  0  0  0
   23.2257  -21.4237  -11.8284 O   0  0  0  0  0  0  0  0  0  0  0  0
   24.7432  -22.7738  -12.8301 O   0  0  0  0  0  0  0  0  0  0  0  0
  2  1  1  6
  2  3  1  0
  2 10  1  0
  4  3  1  0
  4  9  2  0
  5  4  1  0
  6  5  2  0
  6  7  1  0
  7  8  2  0
  8  9  1  0
 10 16  1  0
 11 10  2  0
 13 12  1  1
 13 14  1  0
 15 13  1  0
 15 16  1  6
 17 15  1  0
 17 19  1  0
 18 17  2  0
 20 19  1  0
 20 23  1  0
 20 21  1  1
 21 22  1  0
 23 25  2  0
 23 24  1  0
M  END
$$$$
