FTC.pdb
     RDKit          3D

 25 25  0  0  1  0  0  0  0  0999 V2000
   19.2988   -7.9678  -14.1038 N   0  0  0  0  0  0  0  0  0  0  0  0
   18.9827   -7.7753  -12.7008 C   0  0  1  0  0  0  0  0  0  0  0  0
   19.2750   -6.3222  -12.3645 C   0  0  0  0  0  0  0  0  0  0  0  0
   20.7176   -6.0496  -12.2936 C   0  0  0  0  0  0  0  0  0  0  0  0
   21.4284   -6.3159  -11.1459 C   0  0  0  0  0  0  0  0  0  0  0  0
   22.7771   -6.0609  -11.0800 C   0  0  0  0  0  0  0  0  0  0  0  0
   23.4415   -5.5290  -12.1761 C   0  0  0  0  0  0  0  0  0  0  0  0
   22.7052   -5.2735  -13.3088 C   0  0  0  0  0  0  0  0  0  0  0  0
   21.3537   -5.5215  -13.3957 C   0  0  0  0  0  0  0  0  0  0  0  0
   17.5245   -8.0068  -12.4747 C   0  0  0  0  0  0  0  0  0  0  0  0
   16.7520   -8.3931  -13.4034 O   0  0  0  0  0  0  0  0  0  0  0  0
   15.6830   -9.9413  -12.4284 C   0  0  0  0  0  0  0  0  0  0  0  0
   15.3784   -9.5525  -11.0092 C   0  0  1  0  0  0  0  0  0  0  0  0
   16.2911  -10.2228  -10.1795 O   0  0  0  0  0  0  0  0  0  0  0  0
   15.5976   -8.0769  -10.8408 C   0  0  2  0  0  0  0  0  0  0  0  0
   16.9757   -7.7907  -11.1837 N   0  0  0  0  0  0  0  0  0  0  0  0
   15.3406   -7.6454   -9.4417 C   0  0  0  0  0  0  0  0  0  0  0  0
   16.2792   -7.4278   -8.6415 O   0  0  0  0  0  0  0  0  0  0  0  0
   14.0152   -7.4661   -8.9684 N   0  0  0  0  0  0  0  0  0  0  0  0
   13.6752   -6.8897   -7.7069 C   0  0  1  0  0  0  0  0  0  0  0  0
   14.3139   -5.5367   -7.4829 C   0  0  0  0  0  0  0  0  0  0  0  0
   13.7538   -4.9025   -5.8649 S   0  0  0  0  0  0  0  0  0  0  0  0
   12.2005   -6.7123   -7.6560 C   0  0  0  0  0  0  0  0  0  0  0  0
   11.4487   -7.0061   -6.5257 O   0  0  0  0  0  0  0  0  0  0  0  0
   11.5892   -6.2800   -8.6663 O   0  0  0  0  0  0  0  0  0  0  0  0
  2  1  1  6
  2  3  1  0
  2 10  1  0
  4  3  1  0
  4  9  2  0
  5  4  1  0
  6  5  2  0
  6  7  1  0
  7  8  2  0
  8  9  1  0
 10 16  1  0
 11 10  2  0
 13 12  1  6
 13 14  1  0
 15 13  1  0
 15 16  1  1
 17 15  1  0
 17 19  1  0
 18 17  2  0
 20 19  1  0
 20 23  1  0
 20 21  1  6
 21 22  1  0
 23 25  2  0
 23 24  1  0
M  END
$$$$
