FTC.pdb
     RDKit          3D

 25 25  0  0  1  0  0  0  0  0999 V2000
   23.3280   -8.9386  -17.9305 N   0  0  0  0  0  0  0  0  0  0  0  0
   22.6735   -8.4541  -16.7295 C   0  0  1  0  0  0  0  0  0  0  0  0
   23.7221   -7.7300  -15.9012 C   0  0  0  0  0  0  0  0  0  0  0  0
   24.8605   -8.5978  -15.5675 C   0  0  0  0  0  0  0  0  0  0  0  0
   26.1030   -8.3694  -16.1129 C   0  0  0  0  0  0  0  0  0  0  0  0
   27.1670   -9.1810  -15.8007 C   0  0  0  0  0  0  0  0  0  0  0  0
   26.9999  -10.2462  -14.9270 C   0  0  0  0  0  0  0  0  0  0  0  0
   25.7473  -10.4497  -14.3980 C   0  0  0  0  0  0  0  0  0  0  0  0
   24.6683   -9.6487  -14.6975 C   0  0  0  0  0  0  0  0  0  0  0  0
   21.6200   -7.4600  -17.0938 C   0  0  0  0  0  0  0  0  0  0  0  0
   21.8208   -6.5511  -17.9552 O   0  0  0  0  0  0  0  0  0  0  0  0
   16.8090   -6.4551  -16.7768 C   0  0  0  0  0  0  0  0  0  0  0  0
   17.9727   -7.3474  -16.4492 C   0  0  1  0  0  0  0  0  0  0  0  0
   17.8858   -8.4798  -17.2744 O   0  0  0  0  0  0  0  0  0  0  0  0
   19.2526   -6.6341  -16.7762 C   0  0  2  0  0  0  0  0  0  0  0  0
   20.3506   -7.5254  -16.4622 N   0  0  0  0  0  0  0  0  0  0  0  0
   19.3950   -5.3833  -15.9857 C   0  0  0  0  0  0  0  0  0  0  0  0
   20.1212   -5.3328  -14.9665 O   0  0  0  0  0  0  0  0  0  0  0  0
   18.7077   -4.2016  -16.3652 N   0  0  0  0  0  0  0  0  0  0  0  0
   18.8325   -2.9424  -15.7035 C   0  0  1  0  0  0  0  0  0  0  0  0
   19.4849   -1.8833  -16.5646 C   0  0  0  0  0  0  0  0  0  0  0  0
   19.5114   -0.3193  -15.6228 S   0  0  0  0  0  0  0  0  0  0  0  0
   17.4713   -2.4649  -15.3457 C   0  0  0  0  0  0  0  0  0  0  0  0
   17.1692   -1.9241  -14.1026 O   0  0  0  0  0  0  0  0  0  0  0  0
   16.5412   -2.5448  -16.1881 O   0  0  0  0  0  0  0  0  0  0  0  0
  2  1  1  6
  2  3  1  0
  2 10  1  0
  4  3  1  0
  4  9  2  0
  5  4  1  0
  6  5  2  0
  6  7  1  0
  7  8  2  0
  8  9  1  0
 10 16  1  0
 11 10  2  0
 13 12  1  6
 13 14  1  0
 15 13  1  0
 15 16  1  1
 17 15  1  0
 17 19  1  0
 18 17  2  0
 20 19  1  0
 20 23  1  0
 20 21  1  6
 21 22  1  0
 23 25  2  0
 23 24  1  0
M  END
$$$$
