FTC.pdb
     RDKit          3D

 25 25  0  0  1  0  0  0  0  0999 V2000
   20.0065  -12.5646  -17.0391 N   0  0  0  0  0  0  0  0  0  0  0  0
   19.2477  -11.3279  -17.0544 C   0  0  1  0  0  0  0  0  0  0  0  0
   18.5295  -11.2189  -15.7194 C   0  0  0  0  0  0  0  0  0  0  0  0
   17.3948  -12.1483  -15.6235 C   0  0  0  0  0  0  0  0  0  0  0  0
   17.5073  -13.3259  -14.9207 C   0  0  0  0  0  0  0  0  0  0  0  0
   16.4462  -14.1945  -14.8312 C   0  0  0  0  0  0  0  0  0  0  0  0
   15.2424  -13.8925  -15.4521 C   0  0  0  0  0  0  0  0  0  0  0  0
   15.1598  -12.7091  -16.1470 C   0  0  0  0  0  0  0  0  0  0  0  0
   16.2104  -11.8251  -16.2490 C   0  0  0  0  0  0  0  0  0  0  0  0
   20.1785  -10.1649  -17.1629 C   0  0  0  0  0  0  0  0  0  0  0  0
   21.4277  -10.2826  -16.9783 O   0  0  0  0  0  0  0  0  0  0  0  0
   20.9159   -5.7608  -19.0493 C   0  0  0  0  0  0  0  0  0  0  0  0
   20.1331   -7.0364  -18.9145 C   0  0  1  0  0  0  0  0  0  0  0  0
   20.5338   -7.8928  -19.9522 O   0  0  0  0  0  0  0  0  0  0  0  0
   20.4794   -7.6958  -17.6109 C   0  0  2  0  0  0  0  0  0  0  0  0
   19.6593   -8.8830  -17.4821 N   0  0  0  0  0  0  0  0  0  0  0  0
   20.2194   -6.7928  -16.4591 C   0  0  0  0  0  0  0  0  0  0  0  0
   19.0790   -6.3235  -16.2404 O   0  0  0  0  0  0  0  0  0  0  0  0
   21.2627   -6.4335  -15.5674 N   0  0  0  0  0  0  0  0  0  0  0  0
   21.1126   -5.5467  -14.4582 C   0  0  1  0  0  0  0  0  0  0  0  0
   22.1230   -5.7960  -13.3602 C   0  0  0  0  0  0  0  0  0  0  0  0
   21.9221   -7.5154  -12.7799 S   0  0  0  0  0  0  0  0  0  0  0  0
   21.3002   -4.1546  -14.9437 C   0  0  0  0  0  0  0  0  0  0  0  0
   21.7439   -3.8615  -16.2268 O   0  0  0  0  0  0  0  0  0  0  0  0
   21.0530   -3.1885  -14.1776 O   0  0  0  0  0  0  0  0  0  0  0  0
  2  1  1  1
  2  3  1  0
  2 10  1  0
  4  3  1  0
  4  9  2  0
  5  4  1  0
  6  5  2  0
  6  7  1  0
  7  8  2  0
  8  9  1  0
 10 16  1  0
 11 10  2  0
 13 12  1  6
 13 14  1  0
 15 13  1  0
 15 16  1  1
 17 15  1  0
 17 19  1  0
 18 17  2  0
 20 19  1  0
 20 23  1  0
 20 21  1  1
 21 22  1  0
 23 25  2  0
 23 24  1  0
M  END
$$$$
