FTC.pdb
     RDKit          3D

 25 25  0  0  1  0  0  0  0  0999 V2000
   26.0827  -11.2562  -17.9423 N   0  0  0  0  0  0  0  0  0  0  0  0
   25.9413  -11.0285  -16.5163 C   0  0  1  0  0  0  0  0  0  0  0  0
   27.3190  -11.1815  -15.8929 C   0  0  0  0  0  0  0  0  0  0  0  0
   27.8773  -12.5243  -16.1063 C   0  0  0  0  0  0  0  0  0  0  0  0
   28.8245  -12.7460  -17.0795 C   0  0  0  0  0  0  0  0  0  0  0  0
   29.3462  -14.0016  -17.2788 C   0  0  0  0  0  0  0  0  0  0  0  0
   28.9216  -15.0663  -16.4965 C   0  0  0  0  0  0  0  0  0  0  0  0
   27.9744  -14.8145  -15.5323 C   0  0  0  0  0  0  0  0  0  0  0  0
   27.4390  -13.5646  -15.3163 C   0  0  0  0  0  0  0  0  0  0  0  0
   25.4875   -9.6268  -16.2708 C   0  0  0  0  0  0  0  0  0  0  0  0
   25.6062   -9.0692  -15.1380 O   0  0  0  0  0  0  0  0  0  0  0  0
   24.1679   -5.3709  -18.2725 C   0  0  0  0  0  0  0  0  0  0  0  0
   24.7549   -6.7499  -18.3802 C   0  0  1  0  0  0  0  0  0  0  0  0
   26.1526   -6.6187  -18.3745 O   0  0  0  0  0  0  0  0  0  0  0  0
   24.3609   -7.5526  -17.1742 C   0  0  2  0  0  0  0  0  0  0  0  0
   24.9037   -8.8864  -17.3318 N   0  0  0  0  0  0  0  0  0  0  0  0
   22.8833   -7.6375  -17.0369 C   0  0  0  0  0  0  0  0  0  0  0  0
   22.1693   -8.1270  -17.9420 O   0  0  0  0  0  0  0  0  0  0  0  0
   22.2335   -7.1632  -15.8682 N   0  0  0  0  0  0  0  0  0  0  0  0
   20.8224   -7.1999  -15.6529 C   0  0  1  0  0  0  0  0  0  0  0  0
   20.4492   -7.2986  -14.1901 C   0  0  0  0  0  0  0  0  0  0  0  0
   21.0483   -8.9025  -13.5557 S   0  0  0  0  0  0  0  0  0  0  0  0
   20.2344   -5.9451  -16.1901 C   0  0  0  0  0  0  0  0  0  0  0  0
   21.0101   -4.9130  -16.7021 O   0  0  0  0  0  0  0  0  0  0  0  0
   18.9864   -5.7915  -16.1905 O   0  0  0  0  0  0  0  0  0  0  0  0
  2  1  1  6
  2  3  1  0
  2 10  1  0
  4  3  1  0
  4  9  2  0
  5  4  1  0
  6  5  2  0
  6  7  1  0
  7  8  2  0
  8  9  1  0
 10 16  1  0
 11 10  2  0
 13 12  1  1
 13 14  1  0
 15 13  1  0
 15 16  1  6
 17 15  1  0
 17 19  1  0
 18 17  2  0
 20 19  1  0
 20 23  1  0
 20 21  1  1
 21 22  1  0
 23 25  2  0
 23 24  1  0
M  END
$$$$
