LNG.pdb
     RDKit          3D

 21 20  0  0  1  0  0  0  0  0999 V2000
   20.4816  -13.4016  -19.4825 C   0  0  0  0  0  0  0  0  0  0  0  0
   19.3190  -13.5719  -18.5346 C   0  0  2  0  0  0  0  0  0  0  0  0
   18.2044  -14.4010  -19.1516 C   0  0  0  0  0  0  0  0  0  0  0  0
   18.7751  -12.2280  -18.0695 C   0  0  0  0  0  0  0  0  0  0  0  0
   19.9151  -11.4820  -17.4198 C   0  0  2  0  0  0  0  0  0  0  0  0
   20.3356  -12.2809  -16.2796 N   0  0  0  0  0  0  0  0  0  0  0  0
   19.5340  -10.1204  -17.0008 C   0  0  0  0  0  0  0  0  0  0  0  0
   19.1510   -9.3123  -17.8819 O   0  0  0  0  0  0  0  0  0  0  0  0
   16.3575   -8.9619  -16.2731 N   0  0  0  0  0  0  0  0  0  0  0  0
   16.6273   -8.7057  -14.8722 C   0  0  0  0  0  0  0  0  0  0  0  0
   15.6027   -8.7927  -14.1679 O   0  0  0  0  0  0  0  0  0  0  0  0
   17.9418   -8.3960  -14.4304 C   0  0  0  0  0  0  0  0  0  0  0  0
   19.1261   -8.2701  -15.2931 C   0  0  2  0  0  0  0  0  0  0  0  0
   19.5709   -9.6644  -15.6670 N   0  0  0  0  0  0  0  0  0  0  0  0
   20.3013   -7.5528  -14.8065 C   0  0  0  0  0  0  0  0  0  0  0  0
   21.0737   -8.1491  -13.9393 O   0  0  0  0  0  0  0  0  0  0  0  0
   20.7590   -6.2625  -15.1414 N   0  0  0  0  0  0  0  0  0  0  0  0
   21.9914   -5.7029  -14.5766 C   0  0  0  0  0  0  0  0  0  0  0  0
   21.7508   -5.1087  -13.2458 C   0  0  0  0  0  0  0  0  0  0  0  0
   20.5948   -5.1784  -12.7614 O   0  0  0  0  0  0  0  0  0  0  0  0
   22.7273   -4.4792  -12.5025 O   0  0  0  0  0  0  0  0  0  0  0  0
  2  1  1  6
  3  2  1  0
  4  5  1  0
  4  2  1  0
  5  6  1  1
  7  5  1  0
  8  7  2  0
 10  9  1  0
 10 12  1  0
 11 10  2  0
 13 12  1  1
 13 14  1  0
 14  7  1  0
 15 16  2  0
 15 13  1  0
 17 15  1  0
 18 19  1  0
 18 17  1  0
 19 21  1  0
 20 19  2  0
M  END
$$$$
