LNG.pdb
     RDKit          3D

 21 20  0  0  1  0  0  0  0  0999 V2000
   19.3593  -13.5450  -19.0188 C   0  0  0  0  0  0  0  0  0  0  0  0
   18.6980  -13.7794  -17.6820 C   0  0  2  0  0  0  0  0  0  0  0  0
   17.5343  -14.7512  -17.7906 C   0  0  0  0  0  0  0  0  0  0  0  0
   18.2322  -12.4739  -17.0519 C   0  0  0  0  0  0  0  0  0  0  0  0
   19.4184  -11.5411  -17.0210 C   0  0  2  0  0  0  0  0  0  0  0  0
   20.3889  -12.1361  -16.1159 N   0  0  0  0  0  0  0  0  0  0  0  0
   19.0555  -10.1791  -16.5876 C   0  0  0  0  0  0  0  0  0  0  0  0
   18.3223   -9.4912  -17.3394 O   0  0  0  0  0  0  0  0  0  0  0  0
   17.4881   -5.9683  -13.6509 N   0  0  0  0  0  0  0  0  0  0  0  0
   17.0489   -7.3457  -13.5450 C   0  0  0  0  0  0  0  0  0  0  0  0
   15.9970   -7.4591  -12.8863 O   0  0  0  0  0  0  0  0  0  0  0  0
   17.7914   -8.3936  -14.1531 C   0  0  0  0  0  0  0  0  0  0  0  0
   19.0147   -8.2228  -14.9513 C   0  0  2  0  0  0  0  0  0  0  0  0
   19.4801   -9.5956  -15.3760 N   0  0  0  0  0  0  0  0  0  0  0  0
   20.1639   -7.5319  -14.3729 C   0  0  0  0  0  0  0  0  0  0  0  0
   21.0287   -8.2343  -13.6925 O   0  0  0  0  0  0  0  0  0  0  0  0
   20.5075   -6.1665  -14.4381 N   0  0  0  0  0  0  0  0  0  0  0  0
   21.7609   -5.6517  -13.8770 C   0  0  0  0  0  0  0  0  0  0  0  0
   21.8295   -4.1796  -13.9773 C   0  0  0  0  0  0  0  0  0  0  0  0
   20.9189   -3.5808  -14.6003 O   0  0  0  0  0  0  0  0  0  0  0  0
   22.8408   -3.4225  -13.4236 O   0  0  0  0  0  0  0  0  0  0  0  0
  2  1  1  6
  3  2  1  0
  4  5  1  0
  4  2  1  0
  5  6  1  1
  7  5  1  0
  8  7  2  0
 10  9  1  0
 10 12  1  0
 11 10  2  0
 13 12  1  1
 13 14  1  0
 14  7  1  0
 15 16  2  0
 15 13  1  0
 17 15  1  0
 18 19  1  0
 18 17  1  0
 19 21  1  0
 20 19  2  0
M  END
$$$$
