LNG.pdb
     RDKit          3D

 21 20  0  0  1  0  0  0  0  0999 V2000
   22.3491  -14.8675  -18.4752 C   0  0  0  0  0  0  0  0  0  0  0  0
   20.9510  -14.4381  -18.1006 C   0  0  2  0  0  0  0  0  0  0  0  0
   19.8986  -15.3546  -18.7030 C   0  0  0  0  0  0  0  0  0  0  0  0
   20.6817  -12.9953  -18.5055 C   0  0  0  0  0  0  0  0  0  0  0  0
   21.7043  -12.1335  -17.8056 C   0  0  2  0  0  0  0  0  0  0  0  0
   21.7279  -12.5650  -16.4169 N   0  0  0  0  0  0  0  0  0  0  0  0
   21.3967  -10.6950  -17.9081 C   0  0  0  0  0  0  0  0  0  0  0  0
   21.2947  -10.1886  -19.0523 O   0  0  0  0  0  0  0  0  0  0  0  0
   19.5135   -5.7117  -17.0834 N   0  0  0  0  0  0  0  0  0  0  0  0
   18.8131   -6.9619  -17.3019 C   0  0  0  0  0  0  0  0  0  0  0  0
   17.6055   -6.7907  -17.5582 O   0  0  0  0  0  0  0  0  0  0  0  0
   19.4988   -8.2034  -17.2154 C   0  0  0  0  0  0  0  0  0  0  0  0
   20.9387   -8.3691  -16.9662 C   0  0  2  0  0  0  0  0  0  0  0  0
   21.2076   -9.8460  -16.7981 N   0  0  0  0  0  0  0  0  0  0  0  0
   21.5605   -7.6811  -15.8382 C   0  0  0  0  0  0  0  0  0  0  0  0
   21.3415   -8.1421  -14.6367 O   0  0  0  0  0  0  0  0  0  0  0  0
   22.4012   -6.5498  -15.8388 N   0  0  0  0  0  0  0  0  0  0  0  0
   22.9456   -5.9841  -14.6001 C   0  0  0  0  0  0  0  0  0  0  0  0
   21.9254   -5.2013  -13.8734 C   0  0  0  0  0  0  0  0  0  0  0  0
   22.2668   -4.6062  -12.8221 O   0  0  0  0  0  0  0  0  0  0  0  0
   20.6140   -5.0864  -14.2854 O   0  0  0  0  0  0  0  0  0  0  0  0
  2  1  1  6
  3  2  1  0
  4  5  1  0
  4  2  1  0
  5  6  1  1
  7  5  1  0
  8  7  2  0
 10  9  1  0
 10 12  1  0
 11 10  2  0
 13 12  1  1
 13 14  1  0
 14  7  1  0
 15 16  2  0
 15 13  1  0
 17 15  1  0
 18 19  1  0
 18 17  1  0
 19 21  1  0
 20 19  2  0
M  END
$$$$
