LNG.pdb
     RDKit          3D

 21 20  0  0  1  0  0  0  0  0999 V2000
   19.0556  -12.3913  -16.0096 C   0  0  0  0  0  0  0  0  0  0  0  0
   18.2682  -11.4515  -16.8905 C   0  0  2  0  0  0  0  0  0  0  0  0
   18.8815  -11.3295  -18.2759 C   0  0  0  0  0  0  0  0  0  0  0  0
   18.1305  -10.0741  -16.2564 C   0  0  0  0  0  0  0  0  0  0  0  0
   17.4156  -10.2548  -14.9394 C   0  0  2  0  0  0  0  0  0  0  0  0
   16.0552  -10.6578  -15.2591 N   0  0  0  0  0  0  0  0  0  0  0  0
   17.4259   -9.0303  -14.1177 C   0  0  0  0  0  0  0  0  0  0  0  0
   16.5186   -8.1826  -14.3022 O   0  0  0  0  0  0  0  0  0  0  0  0
   18.3424   -5.4698  -10.0842 N   0  0  0  0  0  0  0  0  0  0  0  0
   17.8139   -6.8114   -9.9364 C   0  0  0  0  0  0  0  0  0  0  0  0
   17.3586   -7.0191   -8.7949 O   0  0  0  0  0  0  0  0  0  0  0  0
   17.8485   -7.7292  -11.0206 C   0  0  0  0  0  0  0  0  0  0  0  0
   18.3850   -7.4491  -12.3609 C   0  0  2  0  0  0  0  0  0  0  0  0
   18.3937   -8.7481  -13.1317 N   0  0  0  0  0  0  0  0  0  0  0  0
   19.7102   -6.8513  -12.4981 C   0  0  0  0  0  0  0  0  0  0  0  0
   20.7529   -7.5984  -12.2562 O   0  0  0  0  0  0  0  0  0  0  0  0
   20.0604   -5.5380  -12.8712 N   0  0  0  0  0  0  0  0  0  0  0  0
   21.4571   -5.0979  -12.9510 C   0  0  0  0  0  0  0  0  0  0  0  0
   21.9167   -5.0208  -14.3527 C   0  0  0  0  0  0  0  0  0  0  0  0
   21.1774   -5.4944  -15.2499 O   0  0  0  0  0  0  0  0  0  0  0  0
   23.1161   -4.4562  -14.7334 O   0  0  0  0  0  0  0  0  0  0  0  0
  2  1  1  1
  3  2  1  0
  4  5  1  0
  4  2  1  0
  5  6  1  6
  7  5  1  0
  8  7  2  0
 10  9  1  0
 10 12  1  0
 11 10  2  0
 13 12  1  1
 13 14  1  0
 14  7  1  0
 15 16  2  0
 15 13  1  0
 17 15  1  0
 18 19  1  0
 18 17  1  0
 19 21  1  0
 20 19  2  0
M  END
$$$$
