LNG.pdb
     RDKit          3D

 21 20  0  0  1  0  0  0  0  0999 V2000
   18.1246  -12.3868  -14.9165 C   0  0  0  0  0  0  0  0  0  0  0  0
   18.4423  -12.3632  -16.3922 C   0  0  2  0  0  0  0  0  0  0  0  0
   18.4198  -13.7576  -16.9968 C   0  0  0  0  0  0  0  0  0  0  0  0
   19.7838  -11.6966  -16.6649 C   0  0  0  0  0  0  0  0  0  0  0  0
   19.7141  -10.2986  -16.1002 C   0  0  2  0  0  0  0  0  0  0  0  0
   18.4855   -9.7084  -16.6074 N   0  0  0  0  0  0  0  0  0  0  0  0
   20.8854   -9.4813  -16.4677 C   0  0  0  0  0  0  0  0  0  0  0  0
   22.0142   -9.8383  -16.0503 O   0  0  0  0  0  0  0  0  0  0  0  0
   22.2264   -8.6560  -21.3878 N   0  0  0  0  0  0  0  0  0  0  0  0
   22.4714   -8.6776  -19.9593 C   0  0  0  0  0  0  0  0  0  0  0  0
   23.0003   -9.7421  -19.5845 O   0  0  0  0  0  0  0  0  0  0  0  0
   22.1185   -7.5679  -19.1449 C   0  0  0  0  0  0  0  0  0  0  0  0
   22.0647   -7.5689  -17.6753 C   0  0  2  0  0  0  0  0  0  0  0  0
   20.8199   -8.3186  -17.2629 N   0  0  0  0  0  0  0  0  0  0  0  0
   22.0704   -6.3007  -16.9514 C   0  0  0  0  0  0  0  0  0  0  0  0
   22.9804   -5.4173  -17.2603 O   0  0  0  0  0  0  0  0  0  0  0  0
   21.2088   -5.8551  -15.9288 N   0  0  0  0  0  0  0  0  0  0  0  0
   21.4221   -4.5832  -15.2306 C   0  0  0  0  0  0  0  0  0  0  0  0
   21.7204   -4.7992  -13.8001 C   0  0  0  0  0  0  0  0  0  0  0  0
   21.8785   -5.9767  -13.3948 O   0  0  0  0  0  0  0  0  0  0  0  0
   21.8356   -3.7772  -12.8810 O   0  0  0  0  0  0  0  0  0  0  0  0
  2  1  1  1
  3  2  1  0
  4  5  1  0
  4  2  1  0
  5  6  1  6
  7  5  1  0
  8  7  2  0
 10  9  1  0
 10 12  1  0
 11 10  2  0
 13 12  1  6
 13 14  1  0
 14  7  1  0
 15 16  2  0
 15 13  1  0
 17 15  1  0
 18 19  1  0
 18 17  1  0
 19 21  1  0
 20 19  2  0
M  END
$$$$
