LNG.pdb
     RDKit          3D

 21 20  0  0  1  0  0  0  0  0999 V2000
   28.2929  -17.4190  -16.0612 C   0  0  0  0  0  0  0  0  0  0  0  0
   27.5267  -18.5818  -16.6443 C   0  0  2  0  0  0  0  0  0  0  0  0
   26.7082  -18.1675  -17.8563 C   0  0  0  0  0  0  0  0  0  0  0  0
   26.6273  -19.2366  -15.6049 C   0  0  0  0  0  0  0  0  0  0  0  0
   27.5134  -20.0463  -14.6897 C   0  0  2  0  0  0  0  0  0  0  0  0
   28.2886  -20.9331  -15.5427 N   0  0  0  0  0  0  0  0  0  0  0  0
   26.7451  -20.8110  -13.6899 C   0  0  0  0  0  0  0  0  0  0  0  0
   27.2223  -21.8957  -13.2756 O   0  0  0  0  0  0  0  0  0  0  0  0
   24.6349  -21.1542   -8.8538 N   0  0  0  0  0  0  0  0  0  0  0  0
   25.9327  -20.9025   -9.4485 C   0  0  0  0  0  0  0  0  0  0  0  0
   26.8385  -20.8253   -8.5959 O   0  0  0  0  0  0  0  0  0  0  0  0
   26.0733  -20.7706  -10.8563 C   0  0  0  0  0  0  0  0  0  0  0  0
   24.9910  -20.9178  -11.8410 C   0  0  2  0  0  0  0  0  0  0  0  0
   25.5024  -20.4004  -13.1648 N   0  0  0  0  0  0  0  0  0  0  0  0
   23.6989  -20.2839  -11.5943 C   0  0  0  0  0  0  0  0  0  0  0  0
   23.6365  -18.9801  -11.6151 O   0  0  0  0  0  0  0  0  0  0  0  0
   22.4499  -20.8811  -11.3297 N   0  0  0  0  0  0  0  0  0  0  0  0
   21.7859  -21.7589  -12.2989 C   0  0  0  0  0  0  0  0  0  0  0  0
   20.9466  -20.9857  -13.2368 C   0  0  0  0  0  0  0  0  0  0  0  0
   21.1018  -19.7411  -13.2893 O   0  0  0  0  0  0  0  0  0  0  0  0
   19.9987  -21.5552  -14.0611 O   0  0  0  0  0  0  0  0  0  0  0  0
  2  1  1  1
  3  2  1  0
  4  5  1  0
  4  2  1  0
  5  6  1  6
  7  5  1  0
  8  7  2  0
 10  9  1  0
 10 12  1  0
 11 10  2  0
 13 12  1  1
 13 14  1  0
 14  7  1  0
 15 16  2  0
 15 13  1  0
 17 15  1  0
 18 19  1  0
 18 17  1  0
 19 21  1  0
 20 19  2  0
M  END
$$$$
