LNG.pdb
     RDKit          3D

 21 20  0  0  1  0  0  0  0  0999 V2000
   16.7128  -10.6882  -18.2114 C   0  0  0  0  0  0  0  0  0  0  0  0
   16.1128  -11.1754  -16.9144 C   0  0  2  0  0  0  0  0  0  0  0  0
   14.6179  -10.9084  -16.8487 C   0  0  0  0  0  0  0  0  0  0  0  0
   16.8080  -10.5567  -15.7094 C   0  0  0  0  0  0  0  0  0  0  0  0
   18.2820  -10.8552  -15.8384 C   0  0  2  0  0  0  0  0  0  0  0  0
   18.4382  -12.2805  -15.5949 N   0  0  0  0  0  0  0  0  0  0  0  0
   19.1030  -10.0649  -14.9025 C   0  0  0  0  0  0  0  0  0  0  0  0
   18.6311   -9.8087  -13.7677 O   0  0  0  0  0  0  0  0  0  0  0  0
   23.0119   -9.7744  -16.3627 N   0  0  0  0  0  0  0  0  0  0  0  0
   23.3318   -9.9032  -14.9548 C   0  0  0  0  0  0  0  0  0  0  0  0
   24.4222  -10.4767  -14.7664 O   0  0  0  0  0  0  0  0  0  0  0  0
   22.4474   -9.4050  -13.9604 C   0  0  0  0  0  0  0  0  0  0  0  0
   21.1659   -8.7306  -14.2166 C   0  0  2  0  0  0  0  0  0  0  0  0
   20.3917   -9.5760  -15.2003 N   0  0  0  0  0  0  0  0  0  0  0  0
   21.1590   -7.3596  -14.7193 C   0  0  0  0  0  0  0  0  0  0  0  0
   21.8305   -6.4560  -14.0584 O   0  0  0  0  0  0  0  0  0  0  0  0
   20.5180   -6.8318  -15.8581 N   0  0  0  0  0  0  0  0  0  0  0  0
   20.5945   -5.4089  -16.2050 C   0  0  0  0  0  0  0  0  0  0  0  0
   19.5808   -4.6224  -15.4730 C   0  0  0  0  0  0  0  0  0  0  0  0
   19.4459   -3.4079  -15.7606 O   0  0  0  0  0  0  0  0  0  0  0  0
   18.7711   -5.1481  -14.4879 O   0  0  0  0  0  0  0  0  0  0  0  0
  2  1  1  6
  3  2  1  0
  4  5  1  0
  4  2  1  0
  5  6  1  1
  7  5  1  0
  8  7  2  0
 10  9  1  0
 10 12  1  0
 11 10  2  0
 13 12  1  6
 13 14  1  0
 14  7  1  0
 15 16  2  0
 15 13  1  0
 17 15  1  0
 18 19  1  0
 18 17  1  0
 19 21  1  0
 20 19  2  0
M  END
$$$$
