LNG.pdb
     RDKit          3D

 21 20  0  0  1  0  0  0  0  0999 V2000
   10.7815  -12.0979  -11.5528 C   0  0  0  0  0  0  0  0  0  0  0  0
   11.6679  -12.3242  -10.3518 C   0  0  2  0  0  0  0  0  0  0  0  0
   10.8902  -12.8912   -9.1752 C   0  0  0  0  0  0  0  0  0  0  0  0
   12.3855  -11.0469   -9.9376 C   0  0  0  0  0  0  0  0  0  0  0  0
   13.1713  -10.5649  -11.1327 C   0  0  2  0  0  0  0  0  0  0  0  0
   14.1930  -11.5679  -11.3878 N   0  0  0  0  0  0  0  0  0  0  0  0
   13.7751   -9.2373  -10.9144 C   0  0  0  0  0  0  0  0  0  0  0  0
   13.0101   -8.2559  -10.7488 O   0  0  0  0  0  0  0  0  0  0  0  0
   16.8295   -5.0749   -9.4780 N   0  0  0  0  0  0  0  0  0  0  0  0
   16.6385   -6.2796   -8.6948 C   0  0  0  0  0  0  0  0  0  0  0  0
   17.0263   -6.1469   -7.5178 O   0  0  0  0  0  0  0  0  0  0  0  0
   16.0657   -7.4419   -9.2779 C   0  0  0  0  0  0  0  0  0  0  0  0
   15.7237   -7.6055  -10.6989 C   0  0  2  0  0  0  0  0  0  0  0  0
   15.1642   -8.9970  -10.8782 N   0  0  0  0  0  0  0  0  0  0  0  0
   16.7537   -7.4147  -11.7162 C   0  0  0  0  0  0  0  0  0  0  0  0
   17.4524   -6.3124  -11.6888 O   0  0  0  0  0  0  0  0  0  0  0  0
   17.1352   -8.2709  -12.7688 N   0  0  0  0  0  0  0  0  0  0  0  0
   18.2510   -7.9524  -13.6657 C   0  0  0  0  0  0  0  0  0  0  0  0
   17.8211   -7.0607  -14.7620 C   0  0  0  0  0  0  0  0  0  0  0  0
   16.6444   -6.6235  -14.7490 O   0  0  0  0  0  0  0  0  0  0  0  0
   18.6417   -6.6796  -15.8031 O   0  0  0  0  0  0  0  0  0  0  0  0
  2  1  1  6
  3  2  1  0
  4  5  1  0
  4  2  1  0
  5  6  1  1
  7  5  1  0
  8  7  2  0
 10  9  1  0
 10 12  1  0
 11 10  2  0
 13 12  1  1
 13 14  1  0
 14  7  1  0
 15 16  2  0
 15 13  1  0
 17 15  1  0
 18 19  1  0
 18 17  1  0
 19 21  1  0
 20 19  2  0
M  END
$$$$
