LNG.pdb
     RDKit          3D

 21 20  0  0  1  0  0  0  0  0999 V2000
   27.9116  -18.3575   -5.8564 C   0  0  0  0  0  0  0  0  0  0  0  0
   27.6357  -19.8366   -5.7324 C   0  0  2  0  0  0  0  0  0  0  0  0
   28.5625  -20.5014   -4.7276 C   0  0  0  0  0  0  0  0  0  0  0  0
   27.7349  -20.5389   -7.0797 C   0  0  0  0  0  0  0  0  0  0  0  0
   26.7507  -19.8707   -8.0087 C   0  0  2  0  0  0  0  0  0  0  0  0
   25.4377  -20.0290   -7.4034 N   0  0  0  0  0  0  0  0  0  0  0  0
   26.7794  -20.4411   -9.3682 C   0  0  0  0  0  0  0  0  0  0  0  0
   27.7508  -21.1697   -9.6871 O   0  0  0  0  0  0  0  0  0  0  0  0
   25.8818  -23.3264  -13.5638 N   0  0  0  0  0  0  0  0  0  0  0  0
   25.7050  -23.5455  -12.1418 C   0  0  0  0  0  0  0  0  0  0  0  0
   25.6148  -24.7552  -11.8556 O   0  0  0  0  0  0  0  0  0  0  0  0
   25.6505  -22.4494  -11.2393 C   0  0  0  0  0  0  0  0  0  0  0  0
   25.7225  -21.0291  -11.6140 C   0  0  2  0  0  0  0  0  0  0  0  0
   25.7806  -20.2212  -10.3391 N   0  0  0  0  0  0  0  0  0  0  0  0
   24.6760  -20.4490  -12.4511 C   0  0  0  0  0  0  0  0  0  0  0  0
   24.6112  -20.8163  -13.7021 O   0  0  0  0  0  0  0  0  0  0  0  0
   23.6760  -19.5168  -12.1084 N   0  0  0  0  0  0  0  0  0  0  0  0
   22.6753  -19.0575  -13.0771 C   0  0  0  0  0  0  0  0  0  0  0  0
   21.3588  -19.6780  -12.8243 C   0  0  0  0  0  0  0  0  0  0  0  0
   21.3062  -20.6793  -12.0691 O   0  0  0  0  0  0  0  0  0  0  0  0
   20.1797  -19.2183  -13.3729 O   0  0  0  0  0  0  0  0  0  0  0  0
  2  1  1  6
  3  2  1  0
  4  5  1  0
  4  2  1  0
  5  6  1  1
  7  5  1  0
  8  7  2  0
 10  9  1  0
 10 12  1  0
 11 10  2  0
 13 12  1  1
 13 14  1  0
 14  7  1  0
 15 16  2  0
 15 13  1  0
 17 15  1  0
 18 19  1  0
 18 17  1  0
 19 21  1  0
 20 19  2  0
M  END
$$$$
