LNG.pdb
     RDKit          3D

 21 20  0  0  1  0  0  0  0  0999 V2000
   27.6667  -18.6130   -4.5988 C   0  0  0  0  0  0  0  0  0  0  0  0
   28.1730  -19.9965   -4.9287 C   0  0  2  0  0  0  0  0  0  0  0  0
   29.4403  -20.3321   -4.1592 C   0  0  0  0  0  0  0  0  0  0  0  0
   28.4089  -20.1641   -6.4235 C   0  0  0  0  0  0  0  0  0  0  0  0
   27.0896  -19.9248   -7.1165 C   0  0  2  0  0  0  0  0  0  0  0  0
   26.1492  -20.8835   -6.5580 N   0  0  0  0  0  0  0  0  0  0  0  0
   27.1858  -20.0688   -8.5809 C   0  0  0  0  0  0  0  0  0  0  0  0
   28.3106  -19.9267   -9.1199 O   0  0  0  0  0  0  0  0  0  0  0  0
   29.2499  -21.6396  -12.7101 N   0  0  0  0  0  0  0  0  0  0  0  0
   27.8239  -21.7545  -12.4770 C   0  0  0  0  0  0  0  0  0  0  0  0
   27.2041  -22.1160  -13.4962 O   0  0  0  0  0  0  0  0  0  0  0  0
   27.2712  -21.4687  -11.1996 C   0  0  0  0  0  0  0  0  0  0  0  0
   26.2442  -20.4538  -10.9201 C   0  0  2  0  0  0  0  0  0  0  0  0
   26.0904  -20.3585   -9.4205 N   0  0  0  0  0  0  0  0  0  0  0  0
   24.9071  -20.6040  -11.4873 C   0  0  0  0  0  0  0  0  0  0  0  0
   23.9831  -21.1607  -10.7521 O   0  0  0  0  0  0  0  0  0  0  0  0
   24.4308  -20.2231  -12.7580 N   0  0  0  0  0  0  0  0  0  0  0  0
   23.2558  -19.3609  -12.9224 C   0  0  0  0  0  0  0  0  0  0  0  0
   22.0797  -20.1353  -13.3683 C   0  0  0  0  0  0  0  0  0  0  0  0
   22.2635  -21.2905  -13.8238 O   0  0  0  0  0  0  0  0  0  0  0  0
   20.7862  -19.6597  -13.3128 O   0  0  0  0  0  0  0  0  0  0  0  0
  2  1  1  6
  3  2  1  0
  4  5  1  0
  4  2  1  0
  5  6  1  1
  7  5  1  0
  8  7  2  0
 10  9  1  0
 10 12  1  0
 11 10  2  0
 13 12  1  1
 13 14  1  0
 14  7  1  0
 15 16  2  0
 15 13  1  0
 17 15  1  0
 18 19  1  0
 18 17  1  0
 19 21  1  0
 20 19  2  0
M  END
$$$$
