RLE.pdb
     RDKit          3D

 29 28  0  0  1  0  0  0  0  0999 V2000
   22.5651  -20.4299  -10.7068 N   0  0  0  0  0  0  0  0  0  0  0  0
   23.1972  -20.8463   -9.5126 C   0  0  0  0  0  0  0  0  0  0  0  0
   22.4924  -21.4177   -8.5973 N   0  0  0  0  0  0  0  0  0  0  0  0
   24.5897  -20.6417   -9.3171 N   0  0  0  0  0  0  0  0  0  0  0  0
   25.3595  -19.8496  -10.2495 C   0  0  0  0  0  0  0  0  0  0  0  0
   26.2161  -20.7790  -11.1007 C   0  0  0  0  0  0  0  0  0  0  0  0
   26.5710  -20.1180  -12.4092 C   0  0  0  0  0  0  0  0  0  0  0  0
   25.7035  -20.7165  -13.5044 C   0  0  2  0  0  0  0  0  0  0  0  0
   26.1871  -22.0143  -13.9147 N   0  0  0  0  0  0  0  0  0  0  0  0
   25.7453  -19.7373  -14.6376 C   0  0  0  0  0  0  0  0  0  0  0  0
   25.3558  -18.5610  -14.4143 O   0  0  0  0  0  0  0  0  0  0  0  0
   22.9104  -21.7233   -7.7091 C   0  0  0  0  0  0  0  0  0  0  0  0
   29.7915  -19.2521  -18.4376 C   0  0  1  0  0  0  0  0  0  0  0  0
   28.6713  -19.0085  -17.4971 C   0  0  0  0  0  0  0  0  0  0  0  0
   28.7395  -17.5780  -16.9536 C   0  0  0  0  0  0  0  0  0  0  0  0
   27.3105  -19.3379  -17.9495 C   0  0  2  0  0  0  0  0  0  0  0  0
   26.1800  -19.2028  -17.0026 N   0  0  0  0  0  0  0  0  0  0  0  0
   26.2115  -20.1376  -15.9174 C   0  0  0  0  0  0  0  0  0  0  0  0
   24.8362  -19.0986  -17.6278 O   0  0  0  0  0  0  0  0  0  0  0  0
   24.4987  -20.0298  -18.4124 N   0  0  0  0  0  0  0  0  0  0  0  0
   23.9309  -18.0593  -17.4104 C   0  0  1  0  0  0  0  0  0  0  0  0
   22.5741  -18.0612  -18.0539 C   0  0  0  0  0  0  0  0  0  0  0  0
   21.7846  -18.9471  -17.1370 C   0  0  0  0  0  0  0  0  0  0  0  0
   21.4562  -18.5040  -15.7776 C   0  0  0  0  0  0  0  0  0  0  0  0
   20.4681  -19.2454  -14.9996 O   0  0  0  0  0  0  0  0  0  0  0  0
   19.8086  -20.1708  -15.5248 C   0  0  0  0  0  0  0  0  0  0  0  0
   22.0641  -16.6792  -18.0025 O   0  0  0  0  0  0  0  0  0  0  0  0
   22.6059  -15.7080  -17.4393 O   0  0  0  0  0  0  0  0  0  0  0  0
   20.2463  -18.9402  -13.6724 O   0  0  0  0  0  0  0  0  0  0  0  0
  2  1  1  0
  2  3  2  0
  4  2  1  0
  5  4  1  0
  6  5  1  0
  7  6  1  0
  8  7  1  0
  8  9  1  6
 10 17  1  0
 10  8  1  0
 11 10  2  0
 13 12  1  1
 14 13  1  0
 15 13  1  0
 16 15  1  1
 16 17  1  0
 18 16  1  0
 18 19  2  0
 20 18  1  0
 21 20  1  0
 21 26  1  0
 21 22  1  6
 23 22  1  0
 24 23  1  0
 25 24  2  0
 26 29  1  0
 27 26  2  0
 28 24  1  0
M  END
$$$$
