RLE.pdb
     RDKit          3D

 29 28  0  0  1  0  0  0  0  0999 V2000
   28.7928  -21.0182  -17.6688 N   0  0  0  0  0  0  0  0  0  0  0  0
   29.3867  -22.3013  -17.6789 C   0  0  0  0  0  0  0  0  0  0  0  0
   30.4076  -22.5130  -18.4366 N   0  0  0  0  0  0  0  0  0  0  0  0
   28.8713  -23.3478  -16.8676 N   0  0  0  0  0  0  0  0  0  0  0  0
   27.7395  -23.1210  -15.9977 C   0  0  0  0  0  0  0  0  0  0  0  0
   26.6579  -22.3799  -16.7741 C   0  0  0  0  0  0  0  0  0  0  0  0
   25.3821  -22.3172  -15.9718 C   0  0  0  0  0  0  0  0  0  0  0  0
   25.5627  -23.1461  -14.7107 C   0  0  2  0  0  0  0  0  0  0  0  0
   25.2667  -24.5404  -14.9451 N   0  0  0  0  0  0  0  0  0  0  0  0
   24.6301  -22.5550  -13.6979 C   0  0  0  0  0  0  0  0  0  0  0  0
   23.4724  -23.0419  -13.6084 O   0  0  0  0  0  0  0  0  0  0  0  0
   30.8953  -23.4181  -18.4414 C   0  0  0  0  0  0  0  0  0  0  0  0
   26.3316  -20.0026   -8.9272 C   0  0  1  0  0  0  0  0  0  0  0  0
   25.5369  -20.8110   -9.8832 C   0  0  0  0  0  0  0  0  0  0  0  0
   24.6904  -21.8405   -9.1282 C   0  0  0  0  0  0  0  0  0  0  0  0
   24.7303  -20.0948  -10.8839 C   0  0  2  0  0  0  0  0  0  0  0  0
   24.1098  -20.8553  -11.9926 N   0  0  0  0  0  0  0  0  0  0  0  0
   25.0523  -21.4801  -12.8724 C   0  0  0  0  0  0  0  0  0  0  0  0
   23.0296  -20.1445  -12.7245 O   0  0  0  0  0  0  0  0  0  0  0  0
   23.3876  -19.2448  -13.5363 N   0  0  0  0  0  0  0  0  0  0  0  0
   21.6651  -20.3990  -12.5824 C   0  0  1  0  0  0  0  0  0  0  0  0
   20.6415  -19.6017  -13.3384 C   0  0  0  0  0  0  0  0  0  0  0  0
   20.8925  -20.0187  -14.7568 C   0  0  0  0  0  0  0  0  0  0  0  0
   20.6407  -21.4007  -15.1799 C   0  0  0  0  0  0  0  0  0  0  0  0
   20.8430  -21.7721  -16.5772 O   0  0  0  0  0  0  0  0  0  0  0  0
   21.5117  -22.7875  -16.8754 C   0  0  0  0  0  0  0  0  0  0  0  0
   19.3136  -20.0606  -12.8925 O   0  0  0  0  0  0  0  0  0  0  0  0
   19.0749  -21.0297  -12.1455 O   0  0  0  0  0  0  0  0  0  0  0  0
   20.2990  -21.0119  -17.5920 O   0  0  0  0  0  0  0  0  0  0  0  0
  2  1  1  0
  2  3  2  0
  4  2  1  0
  5  4  1  0
  6  5  1  0
  7  6  1  0
  8  7  1  0
  8  9  1  6
 10 17  1  0
 10  8  1  0
 11 10  2  0
 13 12  1  6
 14 13  1  0
 15 13  1  0
 16 15  1  1
 16 17  1  0
 18 16  1  0
 18 19  2  0
 20 18  1  0
 21 20  1  0
 21 26  1  0
 21 22  1  6
 23 22  1  0
 24 23  1  0
 25 24  2  0
 26 29  1  0
 27 26  2  0
 28 24  1  0
M  END
$$$$
