RLE.pdb
     RDKit          3D

 29 28  0  0  1  0  0  0  0  0999 V2000
   30.1710  -22.5411  -16.4845 N   0  0  0  0  0  0  0  0  0  0  0  0
   29.7338  -22.8723  -17.7876 C   0  0  0  0  0  0  0  0  0  0  0  0
   30.3283  -23.8215  -18.4254 N   0  0  0  0  0  0  0  0  0  0  0  0
   28.6543  -22.1735  -18.3922 N   0  0  0  0  0  0  0  0  0  0  0  0
   28.1213  -20.9718  -17.7912 C   0  0  0  0  0  0  0  0  0  0  0  0
   28.1676  -21.1132  -16.2747 C   0  0  0  0  0  0  0  0  0  0  0  0
   26.7730  -21.0919  -15.7003 C   0  0  0  0  0  0  0  0  0  0  0  0
   26.5974  -22.3122  -14.8113 C   0  0  2  0  0  0  0  0  0  0  0  0
   26.2833  -23.4912  -15.5845 N   0  0  0  0  0  0  0  0  0  0  0  0
   25.4870  -21.9704  -13.8654 C   0  0  0  0  0  0  0  0  0  0  0  0
   24.3636  -22.5057  -14.0577 O   0  0  0  0  0  0  0  0  0  0  0  0
   30.0220  -24.1139  -19.3623 C   0  0  0  0  0  0  0  0  0  0  0  0
   26.4601  -19.8419   -8.6515 C   0  0  1  0  0  0  0  0  0  0  0  0
   25.8850  -20.6524   -9.7520 C   0  0  0  0  0  0  0  0  0  0  0  0
   25.2120  -21.9075   -9.1876 C   0  0  0  0  0  0  0  0  0  0  0  0
   25.0099  -19.9734  -10.7205 C   0  0  2  0  0  0  0  0  0  0  0  0
   24.6100  -20.6832  -11.9570 N   0  0  0  0  0  0  0  0  0  0  0  0
   25.7091  -21.0698  -12.7907 C   0  0  0  0  0  0  0  0  0  0  0  0
   23.5060  -20.0507  -12.7243 O   0  0  0  0  0  0  0  0  0  0  0  0
   23.8218  -19.1112  -13.5080 N   0  0  0  0  0  0  0  0  0  0  0  0
   22.1623  -20.4180  -12.6434 C   0  0  1  0  0  0  0  0  0  0  0  0
   21.1437  -19.8593  -13.5948 C   0  0  0  0  0  0  0  0  0  0  0  0
   21.5778  -20.4396  -14.9078 C   0  0  0  0  0  0  0  0  0  0  0  0
   20.7231  -20.3144  -16.0935 C   0  0  0  0  0  0  0  0  0  0  0  0
   21.1500  -20.9163  -17.3532 O   0  0  0  0  0  0  0  0  0  0  0  0
   22.2305  -21.5444  -17.4246 C   0  0  0  0  0  0  0  0  0  0  0  0
   19.8318  -20.4021  -13.1988 O   0  0  0  0  0  0  0  0  0  0  0  0
   19.6023  -21.5480  -12.7651 O   0  0  0  0  0  0  0  0  0  0  0  0
   20.3690  -20.8049  -18.4852 O   0  0  0  0  0  0  0  0  0  0  0  0
  2  1  1  0
  2  3  2  0
  4  2  1  0
  5  4  1  0
  6  5  1  0
  7  6  1  0
  8  7  1  0
  8  9  1  6
 10 17  1  0
 10  8  1  0
 11 10  2  0
 13 12  1  6
 14 13  1  0
 15 13  1  0
 16 15  1  1
 16 17  1  0
 18 16  1  0
 18 19  2  0
 20 18  1  0
 21 20  1  0
 21 26  1  0
 21 22  1  6
 23 22  1  0
 24 23  1  0
 25 24  2  0
 26 29  1  0
 27 26  2  0
 28 24  1  0
M  END
$$$$
