RLE.pdb
     RDKit          3D

 29 28  0  0  1  0  0  0  0  0999 V2000
   20.4724  -16.8649  -15.4242 N   0  0  0  0  0  0  0  0  0  0  0  0
   20.6605  -17.6838  -16.5613 C   0  0  0  0  0  0  0  0  0  0  0  0
   20.8060  -17.1291  -17.7155 N   0  0  0  0  0  0  0  0  0  0  0  0
   20.6903  -19.0994  -16.4413 N   0  0  0  0  0  0  0  0  0  0  0  0
   20.5579  -19.7358  -15.1503 C   0  0  0  0  0  0  0  0  0  0  0  0
   21.9463  -19.9647  -14.5655 C   0  0  0  0  0  0  0  0  0  0  0  0
   21.9669  -19.6069  -13.1003 C   0  0  0  0  0  0  0  0  0  0  0  0
   23.3615  -19.8721  -12.5572 C   0  0  2  0  0  0  0  0  0  0  0  0
   24.2046  -20.5038  -13.5456 N   0  0  0  0  0  0  0  0  0  0  0  0
   23.1717  -20.7538  -11.3608 C   0  0  0  0  0  0  0  0  0  0  0  0
   22.9015  -21.9673  -11.5603 O   0  0  0  0  0  0  0  0  0  0  0  0
   20.9221  -17.6886  -18.5702 C   0  0  0  0  0  0  0  0  0  0  0  0
   26.2024  -19.7393   -6.9333 C   0  0  1  0  0  0  0  0  0  0  0  0
   25.4583  -20.4589   -7.9949 C   0  0  0  0  0  0  0  0  0  0  0  0
   26.2020  -21.7399   -8.3856 C   0  0  0  0  0  0  0  0  0  0  0  0
   24.0284  -20.7248   -7.7720 C   0  0  2  0  0  0  0  0  0  0  0  0
   23.1735  -21.0986   -8.9218 N   0  0  0  0  0  0  0  0  0  0  0  0
   23.2953  -20.2237  -10.0497 C   0  0  0  0  0  0  0  0  0  0  0  0
   21.7588  -21.4069   -8.5883 O   0  0  0  0  0  0  0  0  0  0  0  0
   20.9617  -20.4285   -8.5256 N   0  0  0  0  0  0  0  0  0  0  0  0
   21.2542  -22.6848   -8.3451 C   0  0  1  0  0  0  0  0  0  0  0  0
   19.8232  -22.8928   -7.9400 C   0  0  0  0  0  0  0  0  0  0  0  0
   19.5135  -24.2356   -8.5314 C   0  0  0  0  0  0  0  0  0  0  0  0
   18.2315  -24.8919   -8.2523 C   0  0  0  0  0  0  0  0  0  0  0  0
   17.9193  -26.1626   -8.8997 O   0  0  0  0  0  0  0  0  0  0  0  0
   16.8299  -26.7385   -8.6793 C   0  0  0  0  0  0  0  0  0  0  0  0
   19.7906  -22.9569   -6.4678 O   0  0  0  0  0  0  0  0  0  0  0  0
   20.7718  -23.0716   -5.7074 O   0  0  0  0  0  0  0  0  0  0  0  0
   18.8185  -26.7489   -9.7666 O   0  0  0  0  0  0  0  0  0  0  0  0
  2  1  1  0
  2  3  2  0
  4  2  1  0
  5  4  1  0
  6  5  1  0
  7  6  1  0
  8  7  1  0
  8  9  1  6
 10 17  1  0
 10  8  1  0
 11 10  2  0
 13 12  1  6
 14 13  1  0
 15 13  1  0
 16 15  1  6
 16 17  1  0
 18 16  1  0
 18 19  2  0
 20 18  1  0
 21 20  1  0
 21 26  1  0
 21 22  1  1
 23 22  1  0
 24 23  1  0
 25 24  2  0
 26 29  1  0
 27 26  2  0
 28 24  1  0
M  END
$$$$
