RLE.pdb
     RDKit          3D

 29 28  0  0  1  0  0  0  0  0999 V2000
   27.8680  -20.4413  -19.0044 N   0  0  0  0  0  0  0  0  0  0  0  0
   29.1628  -21.0091  -19.0021 C   0  0  0  0  0  0  0  0  0  0  0  0
   29.8612  -20.9804  -20.0849 N   0  0  0  0  0  0  0  0  0  0  0  0
   29.6939  -21.6044  -17.8262 N   0  0  0  0  0  0  0  0  0  0  0  0
   28.9363  -21.6158  -16.5953 C   0  0  0  0  0  0  0  0  0  0  0  0
   27.6733  -22.4440  -16.7979 C   0  0  0  0  0  0  0  0  0  0  0  0
   26.8358  -22.4437  -15.5434 C   0  0  0  0  0  0  0  0  0  0  0  0
   26.1538  -21.0912  -15.4175 C   0  0  2  0  0  0  0  0  0  0  0  0
   27.0789  -20.0683  -14.9881 N   0  0  0  0  0  0  0  0  0  0  0  0
   25.0523  -21.2819  -14.4200 C   0  0  0  0  0  0  0  0  0  0  0  0
   24.1919  -22.1706  -14.6552 O   0  0  0  0  0  0  0  0  0  0  0  0
   30.7890  -21.4201  -20.1382 C   0  0  0  0  0  0  0  0  0  0  0  0
   26.0202  -20.0932   -9.0550 C   0  0  1  0  0  0  0  0  0  0  0  0
   25.6030  -20.7065  -10.3390 C   0  0  0  0  0  0  0  0  0  0  0  0
   25.7027  -22.2326  -10.2524 C   0  0  0  0  0  0  0  0  0  0  0  0
   24.3119  -20.2925  -10.9106 C   0  0  2  0  0  0  0  0  0  0  0  0
   23.9608  -20.7134  -12.2861 N   0  0  0  0  0  0  0  0  0  0  0  0
   24.9933  -20.4784  -13.2511 C   0  0  0  0  0  0  0  0  0  0  0  0
   22.6232  -20.2757  -12.7628 O   0  0  0  0  0  0  0  0  0  0  0  0
   22.5757  -19.1924  -13.4115 N   0  0  0  0  0  0  0  0  0  0  0  0
   21.4314  -20.9691  -12.5496 C   0  0  1  0  0  0  0  0  0  0  0  0
   20.1266  -20.4595  -13.0907 C   0  0  0  0  0  0  0  0  0  0  0  0
   20.2224  -20.8113  -14.5454 C   0  0  0  0  0  0  0  0  0  0  0  0
   19.3613  -20.1448  -15.5285 C   0  0  0  0  0  0  0  0  0  0  0  0
   19.4341  -20.5403  -16.9319 O   0  0  0  0  0  0  0  0  0  0  0  0
   20.2256  -21.4376  -17.3001 C   0  0  0  0  0  0  0  0  0  0  0  0
   19.0525  -21.2329  -12.4420 O   0  0  0  0  0  0  0  0  0  0  0  0
   19.0814  -22.4448  -12.1513 O   0  0  0  0  0  0  0  0  0  0  0  0
   18.6304  -19.9337  -17.8753 O   0  0  0  0  0  0  0  0  0  0  0  0
  2  1  1  0
  2  3  2  0
  4  2  1  0
  5  4  1  0
  6  5  1  0
  7  6  1  0
  8  7  1  0
  8  9  1  1
 10 17  1  0
 10  8  1  0
 11 10  2  0
 13 12  1  6
 14 13  1  0
 15 13  1  0
 16 15  1  1
 16 17  1  0
 18 16  1  0
 18 19  2  0
 20 18  1  0
 21 20  1  0
 21 26  1  0
 21 22  1  1
 23 22  1  0
 24 23  1  0
 25 24  2  0
 26 29  1  0
 27 26  2  0
 28 24  1  0
M  END
$$$$
