RLE.pdb
     RDKit          3D

 29 28  0  0  1  0  0  0  0  0999 V2000
   29.4267  -17.1285  -18.9835 N   0  0  0  0  0  0  0  0  0  0  0  0
   28.1329  -16.5780  -18.8352 C   0  0  0  0  0  0  0  0  0  0  0  0
   27.5186  -16.1325  -19.8770 N   0  0  0  0  0  0  0  0  0  0  0  0
   27.5116  -16.5138  -17.5589 N   0  0  0  0  0  0  0  0  0  0  0  0
   28.1220  -17.1368  -16.4063 C   0  0  0  0  0  0  0  0  0  0  0  0
   27.5286  -18.5281  -16.2221 C   0  0  0  0  0  0  0  0  0  0  0  0
   26.7931  -18.6180  -14.9083 C   0  0  0  0  0  0  0  0  0  0  0  0
   27.4311  -19.7144  -14.0709 C   0  0  2  0  0  0  0  0  0  0  0  0
   28.2033  -20.6232  -14.8859 N   0  0  0  0  0  0  0  0  0  0  0  0
   26.2971  -20.4211  -13.3933 C   0  0  0  0  0  0  0  0  0  0  0  0
   25.8103  -21.4338  -13.9617 O   0  0  0  0  0  0  0  0  0  0  0  0
   26.6038  -15.6689  -19.8046 C   0  0  0  0  0  0  0  0  0  0  0  0
   26.0570  -20.2491   -7.8823 C   0  0  1  0  0  0  0  0  0  0  0  0
   26.0180  -20.6868   -9.2985 C   0  0  0  0  0  0  0  0  0  0  0  0
   26.5755  -22.1078   -9.4277 C   0  0  0  0  0  0  0  0  0  0  0  0
   24.7460  -20.5498  -10.0252 C   0  0  2  0  0  0  0  0  0  0  0  0
   24.7390  -20.6676  -11.5013 N   0  0  0  0  0  0  0  0  0  0  0  0
   25.7974  -19.9524  -12.1499 C   0  0  0  0  0  0  0  0  0  0  0  0
   23.4204  -20.4487  -12.1501 O   0  0  0  0  0  0  0  0  0  0  0  0
   23.1300  -19.2597  -12.4642 N   0  0  0  0  0  0  0  0  0  0  0  0
   22.4929  -21.4511  -12.4359 C   0  0  1  0  0  0  0  0  0  0  0  0
   21.1735  -21.1312  -13.0778 C   0  0  0  0  0  0  0  0  0  0  0  0
   20.8659  -22.3934  -13.8269 C   0  0  0  0  0  0  0  0  0  0  0  0
   19.5811  -22.5526  -14.5169 C   0  0  0  0  0  0  0  0  0  0  0  0
   19.3387  -23.7501  -15.3160 O   0  0  0  0  0  0  0  0  0  0  0  0
   20.2028  -24.6531  -15.3878 C   0  0  0  0  0  0  0  0  0  0  0  0
   20.1982  -20.9241  -11.9922 O   0  0  0  0  0  0  0  0  0  0  0  0
   20.3215  -21.2824  -10.8045 O   0  0  0  0  0  0  0  0  0  0  0  0
   18.1528  -23.9077  -16.0035 O   0  0  0  0  0  0  0  0  0  0  0  0
  2  1  1  0
  2  3  2  0
  4  2  1  0
  5  4  1  0
  6  5  1  0
  7  6  1  0
  8  7  1  0
  8  9  1  6
 10 17  1  0
 10  8  1  0
 11 10  2  0
 13 12  1  6
 14 13  1  0
 15 13  1  0
 16 15  1  1
 16 17  1  0
 18 16  1  0
 18 19  2  0
 20 18  1  0
 21 20  1  0
 21 26  1  0
 21 22  1  1
 23 22  1  0
 24 23  1  0
 25 24  2  0
 26 29  1  0
 27 26  2  0
 28 24  1  0
M  END
$$$$
