RLE.pdb
     RDKit          3D

 29 28  0  0  1  0  0  0  0  0999 V2000
   29.3679  -20.4482  -19.1327 N   0  0  0  0  0  0  0  0  0  0  0  0
   28.2905  -21.3530  -18.9931 C   0  0  0  0  0  0  0  0  0  0  0  0
   28.4267  -22.5602  -19.4234 N   0  0  0  0  0  0  0  0  0  0  0  0
   27.0716  -20.9447  -18.3876 N   0  0  0  0  0  0  0  0  0  0  0  0
   26.9593  -19.6540  -17.7467 C   0  0  0  0  0  0  0  0  0  0  0  0
   27.5379  -19.7468  -16.3400 C   0  0  0  0  0  0  0  0  0  0  0  0
   26.4628  -20.1243  -15.3516 C   0  0  0  0  0  0  0  0  0  0  0  0
   26.8907  -21.3936  -14.6331 C   0  0  2  0  0  0  0  0  0  0  0  0
   26.7308  -22.5582  -15.4726 N   0  0  0  0  0  0  0  0  0  0  0  0
   26.0273  -21.4808  -13.4118 C   0  0  0  0  0  0  0  0  0  0  0  0
   25.1365  -22.3702  -13.3825 O   0  0  0  0  0  0  0  0  0  0  0  0
   27.6324  -23.2122  -19.4563 C   0  0  0  0  0  0  0  0  0  0  0  0
   24.7923  -21.5778   -8.1972 C   0  0  2  0  0  0  0  0  0  0  0  0
   25.2955  -20.2598   -8.6535 C   0  0  0  0  0  0  0  0  0  0  0  0
   26.0741  -19.5729   -7.5273 C   0  0  0  0  0  0  0  0  0  0  0  0
   26.0434  -20.2108   -9.9197 C   0  0  1  0  0  0  0  0  0  0  0  0
   25.4014  -20.7041  -11.1595 N   0  0  0  0  0  0  0  0  0  0  0  0
   26.2189  -20.5822  -12.3296 C   0  0  0  0  0  0  0  0  0  0  0  0
   24.0093  -20.2358  -11.3841 O   0  0  0  0  0  0  0  0  0  0  0  0
   23.2054  -20.3530  -10.4163 N   0  0  0  0  0  0  0  0  0  0  0  0
   23.5338  -19.6802  -12.5724 C   0  0  2  0  0  0  0  0  0  0  0  0
   22.0641  -19.4748  -12.8025 C   0  0  0  0  0  0  0  0  0  0  0  0
   21.8259  -20.2445  -14.0672 C   0  0  0  0  0  0  0  0  0  0  0  0
   20.4591  -20.5469  -14.5059 C   0  0  0  0  0  0  0  0  0  0  0  0
   20.2517  -21.3706  -15.6933 O   0  0  0  0  0  0  0  0  0  0  0  0
   21.2265  -21.7664  -16.3716 C   0  0  0  0  0  0  0  0  0  0  0  0
   21.3532  -20.1025  -11.6741 O   0  0  0  0  0  0  0  0  0  0  0  0
   21.4896  -21.2737  -11.2694 O   0  0  0  0  0  0  0  0  0  0  0  0
   18.9784  -21.7282  -16.0865 O   0  0  0  0  0  0  0  0  0  0  0  0
  2  1  1  0
  2  3  2  0
  4  2  1  0
  5  4  1  0
  6  5  1  0
  7  6  1  0
  8  7  1  0
  8  9  1  6
 10 17  1  0
 10  8  1  0
 11 10  2  0
 13 12  1  1
 14 13  1  0
 15 13  1  0
 16 15  1  1
 16 17  1  0
 18 16  1  0
 18 19  2  0
 20 18  1  0
 21 20  1  0
 21 26  1  0
 21 22  1  6
 23 22  1  0
 24 23  1  0
 25 24  2  0
 26 29  1  0
 27 26  2  0
 28 24  1  0
M  END
$$$$
