RLE.pdb
     RDKit          3D

 29 28  0  0  1  0  0  0  0  0999 V2000
   29.2237  -22.8390  -16.6773 N   0  0  0  0  0  0  0  0  0  0  0  0
   28.5158  -22.2837  -17.7679 C   0  0  0  0  0  0  0  0  0  0  0  0
   28.7168  -22.7552  -18.9505 N   0  0  0  0  0  0  0  0  0  0  0  0
   27.5936  -21.2207  -17.5711 N   0  0  0  0  0  0  0  0  0  0  0  0
   27.1550  -20.8577  -16.2424 C   0  0  0  0  0  0  0  0  0  0  0  0
   25.6822  -21.2181  -16.0906 C   0  0  0  0  0  0  0  0  0  0  0  0
   25.5087  -22.7155  -16.0362 C   0  0  0  0  0  0  0  0  0  0  0  0
   25.7073  -23.1735  -14.6005 C   0  0  2  0  0  0  0  0  0  0  0  0
   25.7217  -24.6144  -14.5004 N   0  0  0  0  0  0  0  0  0  0  0  0
   24.5685  -22.5857  -13.8245 C   0  0  0  0  0  0  0  0  0  0  0  0
   23.4755  -23.2108  -13.8176 O   0  0  0  0  0  0  0  0  0  0  0  0
   28.2776  -22.3340  -19.7791 C   0  0  0  0  0  0  0  0  0  0  0  0
   25.7506  -19.7190   -9.0905 C   0  0  1  0  0  0  0  0  0  0  0  0
   25.1455  -20.6485  -10.0746 C   0  0  0  0  0  0  0  0  0  0  0  0
   24.4775  -21.8220   -9.3512 C   0  0  0  0  0  0  0  0  0  0  0  0
   24.2531  -20.0807  -11.0973 C   0  0  2  0  0  0  0  0  0  0  0  0
   23.7376  -20.9556  -12.1750 N   0  0  0  0  0  0  0  0  0  0  0  0
   24.7312  -21.3617  -13.1240 C   0  0  0  0  0  0  0  0  0  0  0  0
   22.4834  -20.4933  -12.8238 O   0  0  0  0  0  0  0  0  0  0  0  0
   21.5145  -20.2188  -12.0605 N   0  0  0  0  0  0  0  0  0  0  0  0
   22.3031  -20.3403  -14.1989 C   0  0  2  0  0  0  0  0  0  0  0  0
   20.9490  -20.0487  -14.7789 C   0  0  0  0  0  0  0  0  0  0  0  0
   20.1478  -21.2374  -14.3386 C   0  0  0  0  0  0  0  0  0  0  0  0
   18.7006  -21.2858  -14.5744 C   0  0  0  0  0  0  0  0  0  0  0  0
   17.9496  -22.4766  -14.1884 O   0  0  0  0  0  0  0  0  0  0  0  0
   18.1974  -23.5843  -14.7164 C   0  0  0  0  0  0  0  0  0  0  0  0
   20.4512  -18.8217  -14.1312 O   0  0  0  0  0  0  0  0  0  0  0  0
   20.0140  -17.8044  -14.7039 O   0  0  0  0  0  0  0  0  0  0  0  0
   16.9559  -22.4018  -13.2340 O   0  0  0  0  0  0  0  0  0  0  0  0
  2  1  1  0
  2  3  2  0
  4  2  1  0
  5  4  1  0
  6  5  1  0
  7  6  1  0
  8  7  1  0
  8  9  1  6
 10 17  1  0
 10  8  1  0
 11 10  2  0
 13 12  1  6
 14 13  1  0
 15 13  1  0
 16 15  1  1
 16 17  1  0
 18 16  1  0
 18 19  2  0
 20 18  1  0
 21 20  1  0
 21 26  1  0
 21 22  1  1
 23 22  1  0
 24 23  1  0
 25 24  2  0
 26 29  1  0
 27 26  2  0
 28 24  1  0
M  END
$$$$
