RLE.pdb
     RDKit          3D

 29 28  0  0  1  0  0  0  0  0999 V2000
   28.5091  -26.4843  -16.3725 N   0  0  0  0  0  0  0  0  0  0  0  0
   27.5227  -26.1583  -17.3315 C   0  0  0  0  0  0  0  0  0  0  0  0
   27.1140  -27.0709  -18.1447 N   0  0  0  0  0  0  0  0  0  0  0  0
   26.9841  -24.8454  -17.4036 N   0  0  0  0  0  0  0  0  0  0  0  0
   27.1796  -24.0287  -18.5802 C   0  0  0  0  0  0  0  0  0  0  0  0
   27.9201  -22.7573  -18.1839 C   0  0  0  0  0  0  0  0  0  0  0  0
   27.1191  -21.9736  -17.1742 C   0  0  0  0  0  0  0  0  0  0  0  0
   27.8065  -20.6377  -16.9434 C   0  0  2  0  0  0  0  0  0  0  0  0
   28.8816  -20.7526  -15.9855 N   0  0  0  0  0  0  0  0  0  0  0  0
   26.7378  -19.7094  -16.4527 C   0  0  0  0  0  0  0  0  0  0  0  0
   26.2666  -19.9092  -15.3023 O   0  0  0  0  0  0  0  0  0  0  0  0
   26.4800  -26.8520  -18.9239 C   0  0  0  0  0  0  0  0  0  0  0  0
   26.7194  -14.2280  -16.5821 C   0  0  1  0  0  0  0  0  0  0  0  0
   26.4274  -15.6382  -16.2289 C   0  0  0  0  0  0  0  0  0  0  0  0
   26.1012  -15.7521  -14.7365 C   0  0  0  0  0  0  0  0  0  0  0  0
   25.4367  -16.3594  -17.0433 C   0  0  2  0  0  0  0  0  0  0  0  0
   25.2166  -17.8041  -16.8043 N   0  0  0  0  0  0  0  0  0  0  0  0
   26.2806  -18.6426  -17.2702 C   0  0  0  0  0  0  0  0  0  0  0  0
   23.8758  -18.3152  -17.1903 O   0  0  0  0  0  0  0  0  0  0  0  0
   23.7241  -18.6644  -18.3951 N   0  0  0  0  0  0  0  0  0  0  0  0
   22.7870  -18.4376  -16.3264 C   0  0  1  0  0  0  0  0  0  0  0  0
   21.4983  -19.0600  -16.7814 C   0  0  0  0  0  0  0  0  0  0  0  0
   21.9091  -20.4721  -17.0745 C   0  0  0  0  0  0  0  0  0  0  0  0
   20.8998  -21.4874  -17.3950 C   0  0  0  0  0  0  0  0  0  0  0  0
   21.3147  -22.8714  -17.6042 O   0  0  0  0  0  0  0  0  0  0  0  0
   22.5075  -23.2110  -17.4339 C   0  0  0  0  0  0  0  0  0  0  0  0
   20.5665  -19.0195  -15.6400 O   0  0  0  0  0  0  0  0  0  0  0  0
   19.3214  -19.0410  -15.6964 O   0  0  0  0  0  0  0  0  0  0  0  0
   20.3990  -23.8285  -17.9908 O   0  0  0  0  0  0  0  0  0  0  0  0
  2  1  1  0
  2  3  2  0
  4  2  1  0
  5  4  1  0
  6  5  1  0
  7  6  1  0
  8  7  1  0
  8  9  1  1
 10 17  1  0
 10  8  1  0
 11 10  2  0
 13 12  1  1
 14 13  1  0
 15 13  1  0
 16 15  1  1
 16 17  1  0
 18 16  1  0
 18 19  2  0
 20 18  1  0
 21 20  1  0
 21 26  1  0
 21 22  1  6
 23 22  1  0
 24 23  1  0
 25 24  2  0
 26 29  1  0
 27 26  2  0
 28 24  1  0
M  END
$$$$
