RLE.pdb
     RDKit          3D

 29 28  0  0  1  0  0  0  0  0999 V2000
   30.9351  -24.2930  -15.4275 N   0  0  0  0  0  0  0  0  0  0  0  0
   30.8454  -24.4951  -16.8239 C   0  0  0  0  0  0  0  0  0  0  0  0
   31.7896  -25.1327  -17.4265 N   0  0  0  0  0  0  0  0  0  0  0  0
   29.7326  -24.0058  -17.5597 N   0  0  0  0  0  0  0  0  0  0  0  0
   29.2881  -22.6388  -17.4078 C   0  0  0  0  0  0  0  0  0  0  0  0
   28.8856  -22.4065  -15.9566 C   0  0  0  0  0  0  0  0  0  0  0  0
   27.3939  -22.5584  -15.7924 C   0  0  0  0  0  0  0  0  0  0  0  0
   26.7860  -21.1792  -15.5960 C   0  0  2  0  0  0  0  0  0  0  0  0
   27.7740  -20.2216  -15.1561 N   0  0  0  0  0  0  0  0  0  0  0  0
   25.7041  -21.3528  -14.5743 C   0  0  0  0  0  0  0  0  0  0  0  0
   24.8310  -22.2353  -14.7851 O   0  0  0  0  0  0  0  0  0  0  0  0
   31.7373  -25.3485  -18.4303 C   0  0  0  0  0  0  0  0  0  0  0  0
   26.3852  -20.1256   -9.0883 C   0  0  1  0  0  0  0  0  0  0  0  0
   26.0701  -20.6925  -10.4217 C   0  0  0  0  0  0  0  0  0  0  0  0
   26.0445  -22.2226  -10.3524 C   0  0  0  0  0  0  0  0  0  0  0  0
   24.8863  -20.1752  -11.1260 C   0  0  2  0  0  0  0  0  0  0  0  0
   24.5849  -20.6635  -12.4910 N   0  0  0  0  0  0  0  0  0  0  0  0
   25.6768  -20.5406  -13.4103 C   0  0  0  0  0  0  0  0  0  0  0  0
   23.2986  -20.1911  -13.0655 O   0  0  0  0  0  0  0  0  0  0  0  0
   23.2892  -19.0300  -13.5639 N   0  0  0  0  0  0  0  0  0  0  0  0
   22.1159  -20.9309  -13.0955 C   0  0  1  0  0  0  0  0  0  0  0  0
   20.9110  -20.4426  -13.8470 C   0  0  0  0  0  0  0  0  0  0  0  0
   21.3771  -20.4956  -15.2713 C   0  0  0  0  0  0  0  0  0  0  0  0
   21.2371  -19.3235  -16.1424 C   0  0  0  0  0  0  0  0  0  0  0  0
   21.6345  -19.4187  -17.5439 O   0  0  0  0  0  0  0  0  0  0  0  0
   20.8429  -19.8734  -18.4005 C   0  0  0  0  0  0  0  0  0  0  0  0
   19.8298  -21.4185  -13.6207 O   0  0  0  0  0  0  0  0  0  0  0  0
   19.9607  -22.6473  -13.4564 O   0  0  0  0  0  0  0  0  0  0  0  0
   22.8879  -19.0073  -17.9482 O   0  0  0  0  0  0  0  0  0  0  0  0
  2  1  1  0
  2  3  2  0
  4  2  1  0
  5  4  1  0
  6  5  1  0
  7  6  1  0
  8  7  1  0
  8  9  1  1
 10 17  1  0
 10  8  1  0
 11 10  2  0
 13 12  1  6
 14 13  1  0
 15 13  1  0
 16 15  1  1
 16 17  1  0
 18 16  1  0
 18 19  2  0
 20 18  1  0
 21 20  1  0
 21 26  1  0
 21 22  1  1
 23 22  1  0
 24 23  1  0
 25 24  2  0
 26 29  1  0
 27 26  2  0
 28 24  1  0
M  END
$$$$
