RRY.pdb
     RDKit          3D

 35 35  0  0  1  0  0  0  0  0999 V2000
   17.7490  -11.3229   11.5356 N   0  0  0  0  0  0  0  0  0  0  0  0
   18.4422  -11.9776   12.6059 C   0  0  0  0  0  0  0  0  0  0  0  0
   18.9612  -11.2945   13.5708 N   0  0  0  0  0  0  0  0  0  0  0  0
   18.5777  -13.3866   12.6380 N   0  0  0  0  0  0  0  0  0  0  0  0
   18.7725  -14.2067   11.4398 C   0  0  0  0  0  0  0  0  0  0  0  0
   17.4487  -14.4750   10.7717 C   0  0  0  0  0  0  0  0  0  0  0  0
   16.4876  -15.2817   11.5689 C   0  0  0  0  0  0  0  0  0  0  0  0
   15.1928  -15.6255   10.8989 C   0  0  2  0  0  0  0  0  0  0  0  0
   14.5492  -14.5103   10.2589 N   0  0  0  0  0  0  0  0  0  0  0  0
   14.2528  -16.0860   11.9991 C   0  0  0  0  0  0  0  0  0  0  0  0
   13.1183  -15.5559   12.1064 O   0  0  0  0  0  0  0  0  0  0  0  0
   19.4806  -11.7392   14.3348 N   0  0  0  0  0  0  0  0  0  0  0  0
    8.7220  -21.9579   12.9381 C   0  0  0  0  0  0  0  0  0  0  0  0
    8.7470  -21.2564   14.2077 N   0  0  0  0  0  0  0  0  0  0  0  0
    7.7380  -21.3386   14.9961 N   0  0  0  0  0  0  0  0  0  0  0  0
    9.8776  -20.4908   14.5662 C   0  0  0  0  0  0  0  0  0  0  0  0
   11.0079  -20.3594   13.6982 C   0  0  0  0  0  0  0  0  0  0  0  0
   12.0439  -19.4662   14.3929 C   0  0  0  0  0  0  0  0  0  0  0  0
   12.8720  -18.7727   13.3650 C   0  0  2  0  0  0  0  0  0  0  0  0
   13.8896  -17.7936   13.8551 N   0  0  0  0  0  0  0  0  0  0  0  0
   14.6620  -17.1044   12.8896 C   0  0  0  0  0  0  0  0  0  0  0  0
   14.6348  -18.2549   15.0478 O   0  0  0  0  0  0  0  0  0  0  0  0
   15.4771  -19.1830   14.8495 O   0  0  0  0  0  0  0  0  0  0  0  0
    7.7470  -20.8798   15.9155 C   0  0  0  0  0  0  0  0  0  0  0  0
    9.9556  -21.3427   19.5544 C   0  0  0  0  0  0  0  0  0  0  0  0
   11.1817  -20.9101   19.0609 C   0  0  0  0  0  0  0  0  0  0  0  0
   12.3421  -20.9602   19.8141 C   0  0  0  0  0  0  0  0  0  0  0  0
   13.5560  -20.5406   19.3489 C   0  0  0  0  0  0  0  0  0  0  0  0
   13.6219  -20.0398   18.0549 C   0  0  2  0  0  0  0  0  0  0  0  0
   14.9250  -19.5877   17.5618 N   0  0  0  0  0  0  0  0  0  0  0  0
   15.0845  -18.1062   17.4604 C   0  0  0  0  0  0  0  0  0  0  0  0
   14.3740  -17.6581   16.2896 O   0  0  0  0  0  0  0  0  0  0  0  0
   16.4651  -17.6213   17.4099 C   0  0  0  0  0  0  0  0  0  0  0  0
   17.0558  -17.5107   16.3098 C   0  0  0  0  0  0  0  0  0  0  0  0
   12.5002  -19.9706   17.2718 O   0  0  0  0  0  0  0  0  0  0  0  0
  2  3  2  0
  2  1  1  0
  4  2  1  0
  5  4  1  0
  6  5  1  0
  7  8  1  0
  7  6  1  0
  8 10  1  0
  8  9  1  1
 10 11  2  0
 13 15  1  0
 13 12  1  0
 14 13  2  0
 16 15  1  0
 17 16  1  0
 17 18  1  0
 19 18  1  6
 20 10  1  0
 20 19  1  0
 21 19  1  0
 21 30  1  0
 22 21  2  0
 23 24  1  0
 24 25  2  0
 25 26  1  0
 27 28  1  0
 27 26  2  0
 29 31  1  0
 29 30  1  0
 29 28  1  1
 31 35  1  0
 32 31  2  0
 33 27  1  0
 34 33  2  0
 34 24  1  0
M  END
$$$$
