RRY.pdb
     RDKit          3D

 35 35  0  0  1  0  0  0  0  0999 V2000
    9.6120  -14.5398   15.5366 N   0  0  0  0  0  0  0  0  0  0  0  0
    8.3992  -13.9236   15.9886 C   0  0  0  0  0  0  0  0  0  0  0  0
    7.7318  -13.1352   15.2141 N   0  0  0  0  0  0  0  0  0  0  0  0
    7.8980  -14.1602   17.2915 N   0  0  0  0  0  0  0  0  0  0  0  0
    8.5093  -15.1013   18.2333 C   0  0  0  0  0  0  0  0  0  0  0  0
    7.7947  -15.0490   19.5591 C   0  0  0  0  0  0  0  0  0  0  0  0
    6.7840  -16.1169   19.7776 C   0  0  0  0  0  0  0  0  0  0  0  0
    7.3049  -17.5193   19.8536 C   0  0  2  0  0  0  0  0  0  0  0  0
    6.2782  -18.5252   19.8925 N   0  0  0  0  0  0  0  0  0  0  0  0
    8.0546  -17.6245   21.1700 C   0  0  0  0  0  0  0  0  0  0  0  0
    7.4101  -17.6672   22.2481 O   0  0  0  0  0  0  0  0  0  0  0  0
    6.8494  -12.7028   15.5070 N   0  0  0  0  0  0  0  0  0  0  0  0
   16.2664  -14.1048   21.8166 C   0  0  0  0  0  0  0  0  0  0  0  0
   15.4772  -14.5635   20.6891 N   0  0  0  0  0  0  0  0  0  0  0  0
   15.5096  -13.9090   19.5859 N   0  0  0  0  0  0  0  0  0  0  0  0
   14.6818  -15.7232   20.8126 C   0  0  0  0  0  0  0  0  0  0  0  0
   13.5578  -15.7785   21.6971 C   0  0  0  0  0  0  0  0  0  0  0  0
   12.4381  -16.5620   21.0000 C   0  0  0  0  0  0  0  0  0  0  0  0
   11.8242  -17.5179   21.9658 C   0  0  1  0  0  0  0  0  0  0  0  0
   10.3594  -17.3770   22.2280 N   0  0  0  0  0  0  0  0  0  0  0  0
    9.4671  -17.6738   21.1699 C   0  0  0  0  0  0  0  0  0  0  0  0
   10.0097  -16.1855   23.0335 O   0  0  0  0  0  0  0  0  0  0  0  0
   10.2415  -15.0625   22.4900 O   0  0  0  0  0  0  0  0  0  0  0  0
   14.9941  -14.2388   18.7605 C   0  0  0  0  0  0  0  0  0  0  0  0
    5.6496  -10.6290   27.9505 C   0  0  0  0  0  0  0  0  0  0  0  0
    6.1702  -11.6488   27.1614 C   0  0  0  0  0  0  0  0  0  0  0  0
    5.6590  -12.9350   27.1818 C   0  0  0  0  0  0  0  0  0  0  0  0
    6.1554  -13.9509   26.4152 C   0  0  0  0  0  0  0  0  0  0  0  0
    7.2265  -13.6722   25.5758 C   0  0  2  0  0  0  0  0  0  0  0  0
    7.7576  -14.7656   24.7585 N   0  0  0  0  0  0  0  0  0  0  0  0
    9.1382  -15.2099   25.1152 C   0  0  0  0  0  0  0  0  0  0  0  0
    9.4600  -16.3617   24.3114 O   0  0  0  0  0  0  0  0  0  0  0  0
    9.3554  -15.5240   26.5287 C   0  0  0  0  0  0  0  0  0  0  0  0
    9.2262  -16.7006   26.9412 C   0  0  0  0  0  0  0  0  0  0  0  0
    7.7660  -12.4144   25.5214 O   0  0  0  0  0  0  0  0  0  0  0  0
  2  3  2  0
  2  1  1  0
  4  2  1  0
  5  4  1  0
  6  5  1  0
  7  8  1  0
  7  6  1  0
  8 10  1  0
  8  9  1  1
 10 11  2  0
 13 15  1  0
 13 12  1  0
 14 13  2  0
 16 15  1  0
 17 16  1  0
 17 18  1  0
 19 18  1  1
 20 10  1  0
 20 19  1  0
 21 19  1  0
 21 30  1  0
 22 21  2  0
 23 24  1  0
 24 25  2  0
 25 26  1  0
 27 28  1  0
 27 26  2  0
 29 31  1  0
 29 30  1  0
 29 28  1  1
 31 35  1  0
 32 31  2  0
 33 27  1  0
 34 33  2  0
 34 24  1  0
M  END
$$$$
