RRY.pdb
     RDKit          3D

 35 35  0  0  1  0  0  0  0  0999 V2000
   14.5000  -13.2778   19.4093 N   0  0  0  0  0  0  0  0  0  0  0  0
   13.3867  -13.8723   20.0888 C   0  0  0  0  0  0  0  0  0  0  0  0
   13.3046  -13.8367   21.3768 N   0  0  0  0  0  0  0  0  0  0  0  0
   12.3474  -14.5131   19.3718 N   0  0  0  0  0  0  0  0  0  0  0  0
   11.4389  -13.8082   18.4640 C   0  0  0  0  0  0  0  0  0  0  0  0
   10.3108  -13.1798   19.2407 C   0  0  0  0  0  0  0  0  0  0  0  0
    8.9640  -13.3163   18.6261 C   0  0  0  0  0  0  0  0  0  0  0  0
    8.5258  -14.7083   18.2883 C   0  0  2  0  0  0  0  0  0  0  0  0
    7.2745  -14.7745   17.5832 N   0  0  0  0  0  0  0  0  0  0  0  0
    8.3071  -15.4192   19.6122 C   0  0  0  0  0  0  0  0  0  0  0  0
    7.3680  -15.0542   20.3634 O   0  0  0  0  0  0  0  0  0  0  0  0
   12.5719  -14.3379   21.8898 N   0  0  0  0  0  0  0  0  0  0  0  0
   12.6555  -22.5777   24.8244 C   0  0  0  0  0  0  0  0  0  0  0  0
   12.4213  -21.3290   24.1240 N   0  0  0  0  0  0  0  0  0  0  0  0
   13.4083  -20.5472   23.8771 N   0  0  0  0  0  0  0  0  0  0  0  0
   11.1135  -20.9838   23.7198 C   0  0  0  0  0  0  0  0  0  0  0  0
   10.8367  -20.4716   22.4123 C   0  0  0  0  0  0  0  0  0  0  0  0
   10.0149  -19.1853   22.5660 C   0  0  0  0  0  0  0  0  0  0  0  0
    9.9518  -18.4758   21.2562 C   0  0  1  0  0  0  0  0  0  0  0  0
    9.2178  -17.1741   21.2196 N   0  0  0  0  0  0  0  0  0  0  0  0
    9.1599  -16.4826   19.9857 C   0  0  0  0  0  0  0  0  0  0  0  0
    9.4506  -16.3247   22.4091 O   0  0  0  0  0  0  0  0  0  0  0  0
   10.4586  -15.5561   22.3518 O   0  0  0  0  0  0  0  0  0  0  0  0
   13.2726  -19.6744   23.3521 C   0  0  0  0  0  0  0  0  0  0  0  0
    6.6871  -10.2811   27.9013 C   0  0  0  0  0  0  0  0  0  0  0  0
    6.8766  -11.3054   26.9801 C   0  0  0  0  0  0  0  0  0  0  0  0
    7.9026  -11.2851   26.0511 C   0  0  0  0  0  0  0  0  0  0  0  0
    8.1063  -12.2803   25.1378 C   0  0  0  0  0  0  0  0  0  0  0  0
    7.2368  -13.3635   25.1475 C   0  0  1  0  0  0  0  0  0  0  0  0
    7.4570  -14.4264   24.1639 N   0  0  0  0  0  0  0  0  0  0  0  0
    8.5594  -15.3778   24.4958 C   0  0  0  0  0  0  0  0  0  0  0  0
    8.5708  -16.4165   23.4972 O   0  0  0  0  0  0  0  0  0  0  0  0
    8.4934  -15.9812   25.8283 C   0  0  0  0  0  0  0  0  0  0  0  0
    7.8583  -17.0468   26.0081 C   0  0  0  0  0  0  0  0  0  0  0  0
    6.2068  -13.4279   26.0481 O   0  0  0  0  0  0  0  0  0  0  0  0
  2  3  2  0
  2  1  1  0
  4  2  1  0
  5  4  1  0
  6  5  1  0
  7  8  1  0
  7  6  1  0
  8 10  1  0
  8  9  1  1
 10 11  2  0
 13 15  1  0
 13 12  1  0
 14 13  2  0
 16 15  1  0
 17 16  1  0
 17 18  1  0
 19 18  1  6
 20 10  1  0
 20 19  1  0
 21 19  1  0
 21 30  1  0
 22 21  2  0
 23 24  1  0
 24 25  2  0
 25 26  1  0
 27 28  1  0
 27 26  2  0
 29 31  1  0
 29 30  1  0
 29 28  1  1
 31 35  1  0
 32 31  2  0
 33 27  1  0
 34 33  2  0
 34 24  1  0
M  END
$$$$
