RRY.pdb
     RDKit          3D

 35 35  0  0  1  0  0  0  0  0999 V2000
    4.9653  -24.0195   24.5885 N   0  0  0  0  0  0  0  0  0  0  0  0
    5.6447  -24.3309   23.3653 C   0  0  0  0  0  0  0  0  0  0  0  0
    4.9916  -24.7684   22.3412 N   0  0  0  0  0  0  0  0  0  0  0  0
    7.0459  -24.1682   23.2431 N   0  0  0  0  0  0  0  0  0  0  0  0
    7.6720  -22.9962   22.6260 C   0  0  0  0  0  0  0  0  0  0  0  0
    7.6038  -21.8166   23.5613 C   0  0  0  0  0  0  0  0  0  0  0  0
    8.3294  -20.6021   23.1047 C   0  0  0  0  0  0  0  0  0  0  0  0
    7.9176  -20.0415   21.7781 C   0  0  2  0  0  0  0  0  0  0  0  0
    8.4359  -20.7654   20.6490 N   0  0  0  0  0  0  0  0  0  0  0  0
    8.5146  -18.6473   21.7009 C   0  0  0  0  0  0  0  0  0  0  0  0
    9.7561  -18.5121   21.5608 O   0  0  0  0  0  0  0  0  0  0  0  0
    5.4627  -25.0544   21.4765 N   0  0  0  0  0  0  0  0  0  0  0  0
    8.5049  -13.1863   16.9277 C   0  0  0  0  0  0  0  0  0  0  0  0
    8.2724  -12.4234   18.1395 N   0  0  0  0  0  0  0  0  0  0  0  0
    7.3350  -11.5475   18.1658 N   0  0  0  0  0  0  0  0  0  0  0  0
    9.0761  -12.6491   19.2779 C   0  0  0  0  0  0  0  0  0  0  0  0
    9.0043  -13.8681   20.0245 C   0  0  0  0  0  0  0  0  0  0  0  0
    7.7792  -13.7944   20.9450 C   0  0  0  0  0  0  0  0  0  0  0  0
    7.2073  -15.1600   21.1222 C   0  0  2  0  0  0  0  0  0  0  0  0
    8.0306  -16.1519   21.8789 N   0  0  0  0  0  0  0  0  0  0  0  0
    7.6695  -17.5176   21.7867 C   0  0  0  0  0  0  0  0  0  0  0  0
    8.4249  -15.6929   23.2296 O   0  0  0  0  0  0  0  0  0  0  0  0
    7.9239  -14.5900   23.6076 O   0  0  0  0  0  0  0  0  0  0  0  0
    7.2140  -10.9273   18.9760 C   0  0  0  0  0  0  0  0  0  0  0  0
    5.5783  -11.2427   26.5622 C   0  0  0  0  0  0  0  0  0  0  0  0
    6.2579  -12.4512   26.4548 C   0  0  0  0  0  0  0  0  0  0  0  0
    5.6530  -13.6006   25.9762 C   0  0  0  0  0  0  0  0  0  0  0  0
    6.3020  -14.7973   25.8627 C   0  0  0  0  0  0  0  0  0  0  0  0
    7.6350  -14.8564   26.2488 C   0  0  1  0  0  0  0  0  0  0  0  0
    8.3256  -16.1427   26.1288 N   0  0  0  0  0  0  0  0  0  0  0  0
    9.5993  -16.1073   25.3496 C   0  0  0  0  0  0  0  0  0  0  0  0
    9.3029  -16.4791   23.9894 O   0  0  0  0  0  0  0  0  0  0  0  0
   10.6782  -16.9531   25.8637 C   0  0  0  0  0  0  0  0  0  0  0  0
   11.6469  -16.4407   26.4722 C   0  0  0  0  0  0  0  0  0  0  0  0
    8.2761  -13.7451   26.7285 O   0  0  0  0  0  0  0  0  0  0  0  0
  2  3  2  0
  2  1  1  0
  4  2  1  0
  5  4  1  0
  6  5  1  0
  7  8  1  0
  7  6  1  0
  8 10  1  0
  8  9  1  6
 10 11  2  0
 13 15  1  0
 13 12  1  0
 14 13  2  0
 16 15  1  0
 17 16  1  0
 17 18  1  0
 19 18  1  6
 20 10  1  0
 20 19  1  0
 21 19  1  0
 21 30  1  0
 22 21  2  0
 23 24  1  0
 24 25  2  0
 25 26  1  0
 27 28  1  0
 27 26  2  0
 29 31  1  0
 29 30  1  0
 29 28  1  1
 31 35  1  0
 32 31  2  0
 33 27  1  0
 34 33  2  0
 34 24  1  0
M  END
$$$$
