RRY.pdb
     RDKit          3D

 35 35  0  0  1  0  0  0  0  0999 V2000
    0.9558  -20.5547   20.4091 N   0  0  0  0  0  0  0  0  0  0  0  0
    1.5444  -20.3848   21.7051 C   0  0  0  0  0  0  0  0  0  0  0  0
    0.9886  -19.6231   22.5870 N   0  0  0  0  0  0  0  0  0  0  0  0
    2.7469  -21.0445   22.0563 N   0  0  0  0  0  0  0  0  0  0  0  0
    4.0200  -20.8251   21.3653 C   0  0  0  0  0  0  0  0  0  0  0  0
    4.2111  -19.3579   21.0795 C   0  0  0  0  0  0  0  0  0  0  0  0
    5.4966  -18.7812   21.5538 C   0  0  0  0  0  0  0  0  0  0  0  0
    6.5147  -18.4711   20.4997 C   0  0  2  0  0  0  0  0  0  0  0  0
    7.3062  -19.6022   20.0978 N   0  0  0  0  0  0  0  0  0  0  0  0
    7.4789  -17.4746   21.1187 C   0  0  0  0  0  0  0  0  0  0  0  0
    8.5130  -17.8916   21.6984 O   0  0  0  0  0  0  0  0  0  0  0  0
    1.3702  -19.5167   23.5327 N   0  0  0  0  0  0  0  0  0  0  0  0
    8.0232  -13.0563   16.2614 C   0  0  0  0  0  0  0  0  0  0  0  0
    8.5763  -14.1376   17.0548 N   0  0  0  0  0  0  0  0  0  0  0  0
    8.9088  -15.2367   16.4823 N   0  0  0  0  0  0  0  0  0  0  0  0
    8.7447  -13.9737   18.4468 C   0  0  0  0  0  0  0  0  0  0  0  0
    8.2202  -12.8387   19.1435 C   0  0  0  0  0  0  0  0  0  0  0  0
    8.6014  -12.9675   20.6239 C   0  0  0  0  0  0  0  0  0  0  0  0
    7.4948  -13.6367   21.3661 C   0  0  2  0  0  0  0  0  0  0  0  0
    7.7313  -15.0394   21.8252 N   0  0  0  0  0  0  0  0  0  0  0  0
    7.2046  -16.0905   21.0367 C   0  0  0  0  0  0  0  0  0  0  0  0
    7.5961  -15.2188   23.2882 O   0  0  0  0  0  0  0  0  0  0  0  0
    6.4801  -14.8778   23.7869 O   0  0  0  0  0  0  0  0  0  0  0  0
    9.3100  -16.0135   17.0222 C   0  0  0  0  0  0  0  0  0  0  0  0
    6.7282  -21.9395   24.2179 C   0  0  0  0  0  0  0  0  0  0  0  0
    6.8580  -20.6070   24.5939 C   0  0  0  0  0  0  0  0  0  0  0  0
    5.7624  -19.7918   24.8208 C   0  0  0  0  0  0  0  0  0  0  0  0
    5.8676  -18.4809   25.1906 C   0  0  0  0  0  0  0  0  0  0  0  0
    7.1402  -17.9460   25.3446 C   0  0  2  0  0  0  0  0  0  0  0  0
    7.2479  -16.5390   25.7376 N   0  0  0  0  0  0  0  0  0  0  0  0
    8.5646  -15.8983   25.4434 C   0  0  0  0  0  0  0  0  0  0  0  0
    8.6762  -15.7385   24.0158 O   0  0  0  0  0  0  0  0  0  0  0  0
    9.7403  -16.6095   25.9493 C   0  0  0  0  0  0  0  0  0  0  0  0
   10.5799  -17.0890   25.1515 C   0  0  0  0  0  0  0  0  0  0  0  0
    8.2542  -18.7138   25.1311 O   0  0  0  0  0  0  0  0  0  0  0  0
  2  3  2  0
  2  1  1  0
  4  2  1  0
  5  4  1  0
  6  5  1  0
  7  8  1  0
  7  6  1  0
  8 10  1  0
  8  9  1  1
 10 11  2  0
 13 15  1  0
 13 12  1  0
 14 13  2  0
 16 15  1  0
 17 16  1  0
 17 18  1  0
 19 18  1  6
 20 10  1  0
 20 19  1  0
 21 19  1  0
 21 30  1  0
 22 21  2  0
 23 24  1  0
 24 25  2  0
 25 26  1  0
 27 28  1  0
 27 26  2  0
 29 31  1  0
 29 30  1  0
 29 28  1  6
 31 35  1  0
 32 31  2  0
 33 27  1  0
 34 33  2  0
 34 24  1  0
M  END
$$$$
