RRY.pdb
     RDKit          3D

 35 35  0  0  1  0  0  0  0  0999 V2000
    7.2654  -12.8981   15.2639 N   0  0  0  0  0  0  0  0  0  0  0  0
    7.9473  -14.1512   15.4035 C   0  0  0  0  0  0  0  0  0  0  0  0
    8.0680  -14.9519   14.3978 N   0  0  0  0  0  0  0  0  0  0  0  0
    8.5074  -14.5470   16.6421 N   0  0  0  0  0  0  0  0  0  0  0  0
    8.8196  -13.6095   17.7237 C   0  0  0  0  0  0  0  0  0  0  0  0
    7.6441  -13.4828   18.6582 C   0  0  0  0  0  0  0  0  0  0  0  0
    7.1554  -14.7607   19.2398 C   0  0  0  0  0  0  0  0  0  0  0  0
    8.1597  -15.8661   19.3534 C   0  0  2  0  0  0  0  0  0  0  0  0
    7.8888  -16.9943   18.5041 N   0  0  0  0  0  0  0  0  0  0  0  0
    8.0720  -16.3766   20.7809 C   0  0  0  0  0  0  0  0  0  0  0  0
    7.1045  -17.1033   21.1203 O   0  0  0  0  0  0  0  0  0  0  0  0
    8.5475  -15.8548   14.4753 N   0  0  0  0  0  0  0  0  0  0  0  0
   13.1941  -22.7586   22.4918 C   0  0  0  0  0  0  0  0  0  0  0  0
   12.1212  -22.5860   23.4530 N   0  0  0  0  0  0  0  0  0  0  0  0
   11.6382  -23.6121   24.0532 N   0  0  0  0  0  0  0  0  0  0  0  0
   11.6178  -21.2946   23.7208 C   0  0  0  0  0  0  0  0  0  0  0  0
   11.0936  -20.4576   22.6849 C   0  0  0  0  0  0  0  0  0  0  0  0
   10.6774  -19.1215   23.3135 C   0  0  0  0  0  0  0  0  0  0  0  0
   10.1268  -18.2248   22.2571 C   0  0  2  0  0  0  0  0  0  0  0  0
    9.7059  -16.8534   22.6771 N   0  0  0  0  0  0  0  0  0  0  0  0
    9.0775  -16.0304   21.7118 C   0  0  0  0  0  0  0  0  0  0  0  0
   10.6878  -16.1686   23.5476 O   0  0  0  0  0  0  0  0  0  0  0  0
   11.5268  -15.4228   22.9558 O   0  0  0  0  0  0  0  0  0  0  0  0
   10.9268  -23.5085   24.7874 C   0  0  0  0  0  0  0  0  0  0  0  0
    5.7057  -11.1230   27.9255 C   0  0  0  0  0  0  0  0  0  0  0  0
    6.4686  -12.0520   27.2264 C   0  0  0  0  0  0  0  0  0  0  0  0
    6.1653  -12.4344   25.9310 C   0  0  0  0  0  0  0  0  0  0  0  0
    6.9010  -13.3448   25.2267 C   0  0  0  0  0  0  0  0  0  0  0  0
    8.0071  -13.9111   25.8476 C   0  0  1  0  0  0  0  0  0  0  0  0
    8.7907  -14.8895   25.0897 N   0  0  0  0  0  0  0  0  0  0  0  0
   10.0149  -15.3929   25.7815 C   0  0  0  0  0  0  0  0  0  0  0  0
   10.6359  -16.3782   24.9331 O   0  0  0  0  0  0  0  0  0  0  0  0
    9.7992  -15.9609   27.1137 C   0  0  0  0  0  0  0  0  0  0  0  0
    9.3664  -15.2413   28.0445 C   0  0  0  0  0  0  0  0  0  0  0  0
    8.3467  -13.5638   27.1283 O   0  0  0  0  0  0  0  0  0  0  0  0
  2  3  2  0
  2  1  1  0
  4  2  1  0
  5  4  1  0
  6  5  1  0
  7  8  1  0
  7  6  1  0
  8 10  1  0
  8  9  1  6
 10 11  2  0
 13 15  1  0
 13 12  1  0
 14 13  2  0
 16 15  1  0
 17 16  1  0
 17 18  1  0
 19 18  1  1
 20 10  1  0
 20 19  1  0
 21 19  1  0
 21 30  1  0
 22 21  2  0
 23 24  1  0
 24 25  2  0
 25 26  1  0
 27 28  1  0
 27 26  2  0
 29 31  1  0
 29 30  1  0
 29 28  1  1
 31 35  1  0
 32 31  2  0
 33 27  1  0
 34 33  2  0
 34 24  1  0
M  END
$$$$
