RRY.pdb
     RDKit          3D

 35 35  0  0  1  0  0  0  0  0999 V2000
    6.0108  -12.2171   20.3234 N   0  0  0  0  0  0  0  0  0  0  0  0
    7.3191  -11.7401   20.6634 C   0  0  0  0  0  0  0  0  0  0  0  0
    7.4675  -10.7053   21.4211 N   0  0  0  0  0  0  0  0  0  0  0  0
    8.4832  -12.3864   20.1818 N   0  0  0  0  0  0  0  0  0  0  0  0
    8.8677  -13.7476   20.5635 C   0  0  0  0  0  0  0  0  0  0  0  0
    7.7318  -14.7024   20.3008 C   0  0  0  0  0  0  0  0  0  0  0  0
    8.0724  -15.8761   19.4544 C   0  0  0  0  0  0  0  0  0  0  0  0
    9.3152  -16.6250   19.8260 C   0  0  2  0  0  0  0  0  0  0  0  0
    9.6614  -17.6782   18.9104 N   0  0  0  0  0  0  0  0  0  0  0  0
    9.0264  -17.2958   21.1575 C   0  0  0  0  0  0  0  0  0  0  0  0
    7.9450  -17.9158   21.3168 O   0  0  0  0  0  0  0  0  0  0  0  0
    8.3922  -10.3734   21.7146 N   0  0  0  0  0  0  0  0  0  0  0  0
   13.4985  -19.7898   20.2629 C   0  0  0  0  0  0  0  0  0  0  0  0
   14.5590  -20.0782   21.2099 N   0  0  0  0  0  0  0  0  0  0  0  0
   15.7816  -20.0382   20.8224 N   0  0  0  0  0  0  0  0  0  0  0  0
   14.2398  -20.3995   22.5469 C   0  0  0  0  0  0  0  0  0  0  0  0
   12.8851  -20.5206   22.9928 C   0  0  0  0  0  0  0  0  0  0  0  0
   12.2257  -19.1384   22.9017 C   0  0  0  0  0  0  0  0  0  0  0  0
   10.8289  -19.2187   23.4173 C   0  0  1  0  0  0  0  0  0  0  0  0
   10.0239  -17.9593   23.4064 N   0  0  0  0  0  0  0  0  0  0  0  0
    9.9750  -17.2166   22.2022 C   0  0  0  0  0  0  0  0  0  0  0  0
   10.1609  -17.1533   24.6402 O   0  0  0  0  0  0  0  0  0  0  0  0
   11.1754  -16.3931   24.6949 O   0  0  0  0  0  0  0  0  0  0  0  0
   16.5504  -20.2184   21.4799 C   0  0  0  0  0  0  0  0  0  0  0  0
    6.4818  -11.1282   24.8389 C   0  0  0  0  0  0  0  0  0  0  0  0
    6.8546  -12.3293   25.4325 C   0  0  0  0  0  0  0  0  0  0  0  0
    6.0735  -13.4692   25.3508 C   0  0  0  0  0  0  0  0  0  0  0  0
    6.4209  -14.6584   25.9264 C   0  0  0  0  0  0  0  0  0  0  0  0
    7.6188  -14.7195   26.6270 C   0  0  1  0  0  0  0  0  0  0  0  0
    7.9852  -15.9958   27.2454 N   0  0  0  0  0  0  0  0  0  0  0  0
    9.3314  -16.5198   26.8663 C   0  0  0  0  0  0  0  0  0  0  0  0
    9.1916  -17.2736   25.6463 O   0  0  0  0  0  0  0  0  0  0  0  0
    9.9960  -17.3446   27.8773 C   0  0  0  0  0  0  0  0  0  0  0  0
   10.0407  -18.5904   27.7461 C   0  0  0  0  0  0  0  0  0  0  0  0
    8.4251  -13.6175   26.7349 O   0  0  0  0  0  0  0  0  0  0  0  0
  2  3  2  0
  2  1  1  0
  4  2  1  0
  5  4  1  0
  6  5  1  0
  7  8  1  0
  7  6  1  0
  8 10  1  0
  8  9  1  6
 10 11  2  0
 13 15  1  0
 13 12  1  0
 14 13  2  0
 16 15  1  0
 17 16  1  0
 17 18  1  0
 19 18  1  6
 20 10  1  0
 20 19  1  0
 21 19  1  0
 21 30  1  0
 22 21  2  0
 23 24  1  0
 24 25  2  0
 25 26  1  0
 27 28  1  0
 27 26  2  0
 29 31  1  0
 29 30  1  0
 29 28  1  1
 31 35  1  0
 32 31  2  0
 33 27  1  0
 34 33  2  0
 34 24  1  0
M  END
$$$$
