RRY.pdb
     RDKit          3D

 35 35  0  0  1  0  0  0  0  0999 V2000
    8.4824  -11.5243   20.0142 N   0  0  0  0  0  0  0  0  0  0  0  0
    8.7766  -12.9055   19.7680 C   0  0  0  0  0  0  0  0  0  0  0  0
    9.9036  -13.2566   19.2451 N   0  0  0  0  0  0  0  0  0  0  0  0
    7.8452  -13.9221   20.0899 N   0  0  0  0  0  0  0  0  0  0  0  0
    7.1708  -14.0183   21.3869 C   0  0  0  0  0  0  0  0  0  0  0  0
    6.2664  -15.2234   21.4153 C   0  0  0  0  0  0  0  0  0  0  0  0
    6.3673  -16.0637   22.6375 C   0  0  0  0  0  0  0  0  0  0  0  0
    6.8052  -17.4817   22.4345 C   0  0  2  0  0  0  0  0  0  0  0  0
    5.8144  -18.4591   22.7958 N   0  0  0  0  0  0  0  0  0  0  0  0
    7.9817  -17.7022   23.3690 C   0  0  0  0  0  0  0  0  0  0  0  0
    7.7981  -18.2785   24.4706 O   0  0  0  0  0  0  0  0  0  0  0  0
   10.0911  -14.2213   18.9527 N   0  0  0  0  0  0  0  0  0  0  0  0
   13.1402  -15.8553   18.2529 C   0  0  0  0  0  0  0  0  0  0  0  0
   13.3913  -15.0541   19.4359 N   0  0  0  0  0  0  0  0  0  0  0  0
   13.6778  -13.8098   19.3084 N   0  0  0  0  0  0  0  0  0  0  0  0
   13.3189  -15.6466   20.7152 C   0  0  0  0  0  0  0  0  0  0  0  0
   13.0764  -17.0467   20.8873 C   0  0  0  0  0  0  0  0  0  0  0  0
   11.6721  -17.2201   21.4800 C   0  0  0  0  0  0  0  0  0  0  0  0
   11.7619  -17.2642   22.9677 C   0  0  2  0  0  0  0  0  0  0  0  0
   10.4763  -17.3265   23.7277 N   0  0  0  0  0  0  0  0  0  0  0  0
    9.2693  -17.2584   22.9911 C   0  0  0  0  0  0  0  0  0  0  0  0
   10.4910  -16.5519   24.9889 O   0  0  0  0  0  0  0  0  0  0  0  0
   11.0993  -15.4390   24.9479 O   0  0  0  0  0  0  0  0  0  0  0  0
   13.9539  -13.2452   20.1213 C   0  0  0  0  0  0  0  0  0  0  0  0
    5.9701  -12.1122   24.6892 C   0  0  0  0  0  0  0  0  0  0  0  0
    6.6003  -13.0842   25.4587 C   0  0  0  0  0  0  0  0  0  0  0  0
    7.7342  -12.8164   26.2060 C   0  0  0  0  0  0  0  0  0  0  0  0
    8.3685  -13.7560   26.9682 C   0  0  0  0  0  0  0  0  0  0  0  0
    7.8441  -15.0421   26.9894 C   0  0  2  0  0  0  0  0  0  0  0  0
    8.5299  -16.0471   27.8051 N   0  0  0  0  0  0  0  0  0  0  0  0
    9.9231  -16.3693   27.3740 C   0  0  0  0  0  0  0  0  0  0  0  0
    9.8520  -17.0773   26.1211 O   0  0  0  0  0  0  0  0  0  0  0  0
   10.7167  -17.1447   28.3295 C   0  0  0  0  0  0  0  0  0  0  0  0
   11.1388  -18.2842   28.0219 C   0  0  0  0  0  0  0  0  0  0  0  0
    6.7237  -15.3546   26.2661 O   0  0  0  0  0  0  0  0  0  0  0  0
  2  3  2  0
  2  1  1  0
  4  2  1  0
  5  4  1  0
  6  5  1  0
  7  8  1  0
  7  6  1  0
  8 10  1  0
  8  9  1  1
 10 11  2  0
 13 15  1  0
 13 12  1  0
 14 13  2  0
 16 15  1  0
 17 16  1  0
 17 18  1  0
 19 18  1  6
 20 10  1  0
 20 19  1  0
 21 19  1  0
 21 30  1  0
 22 21  2  0
 23 24  1  0
 24 25  2  0
 25 26  1  0
 27 28  1  0
 27 26  2  0
 29 31  1  0
 29 30  1  0
 29 28  1  1
 31 35  1  0
 32 31  2  0
 33 27  1  0
 34 33  2  0
 34 24  1  0
M  END
$$$$
