RRY.pdb
     RDKit          3D

 35 35  0  0  1  0  0  0  0  0999 V2000
    9.4501  -12.5260   17.7022 N   0  0  0  0  0  0  0  0  0  0  0  0
    9.2191  -13.5466   18.6820 C   0  0  0  0  0  0  0  0  0  0  0  0
   10.1613  -14.3622   19.0195 N   0  0  0  0  0  0  0  0  0  0  0  0
    7.9569  -13.6903   19.3073 N   0  0  0  0  0  0  0  0  0  0  0  0
    6.9797  -14.7138   18.9282 C   0  0  0  0  0  0  0  0  0  0  0  0
    6.2748  -15.2392   20.1521 C   0  0  0  0  0  0  0  0  0  0  0  0
    7.1609  -15.8246   21.1923 C   0  0  0  0  0  0  0  0  0  0  0  0
    7.5408  -17.2620   21.0094 C   0  0  2  0  0  0  0  0  0  0  0  0
    6.4520  -18.1839   21.1881 N   0  0  0  0  0  0  0  0  0  0  0  0
    8.5500  -17.5780   22.0992 C   0  0  0  0  0  0  0  0  0  0  0  0
    8.1459  -17.8426   23.2594 O   0  0  0  0  0  0  0  0  0  0  0  0
   10.0186  -15.1007   19.7162 N   0  0  0  0  0  0  0  0  0  0  0  0
   15.3344  -14.3589   21.0574 C   0  0  0  0  0  0  0  0  0  0  0  0
   14.7736  -14.7327   19.7727 N   0  0  0  0  0  0  0  0  0  0  0  0
   14.5122  -13.8222   18.9072 N   0  0  0  0  0  0  0  0  0  0  0  0
   14.5203  -16.0912   19.4843 C   0  0  0  0  0  0  0  0  0  0  0  0
   14.1770  -17.0304   20.5083 C   0  0  0  0  0  0  0  0  0  0  0  0
   12.7947  -16.6554   21.0580 C   0  0  0  0  0  0  0  0  0  0  0  0
   12.4022  -17.6249   22.1207 C   0  0  1  0  0  0  0  0  0  0  0  0
   11.0269  -17.4928   22.6911 N   0  0  0  0  0  0  0  0  0  0  0  0
    9.9310  -17.5719   21.7985 C   0  0  0  0  0  0  0  0  0  0  0  0
   10.9135  -16.4544   23.7397 O   0  0  0  0  0  0  0  0  0  0  0  0
   11.2350  -15.2776   23.3905 O   0  0  0  0  0  0  0  0  0  0  0  0
   14.2020  -14.0680   17.9590 C   0  0  0  0  0  0  0  0  0  0  0  0
    5.7113  -11.4039   27.9684 C   0  0  0  0  0  0  0  0  0  0  0  0
    6.4462  -12.3537   27.2673 C   0  0  0  0  0  0  0  0  0  0  0  0
    5.9474  -13.6131   26.9824 C   0  0  0  0  0  0  0  0  0  0  0  0
    6.6523  -14.5605   26.2954 C   0  0  0  0  0  0  0  0  0  0  0  0
    7.9326  -14.2370   25.8645 C   0  0  2  0  0  0  0  0  0  0  0  0
    8.6859  -15.2573   25.1315 N   0  0  0  0  0  0  0  0  0  0  0  0
    9.8486  -15.8370   25.8681 C   0  0  0  0  0  0  0  0  0  0  0  0
   10.4716  -16.8206   25.0192 O   0  0  0  0  0  0  0  0  0  0  0  0
    9.5379  -16.4382   27.1665 C   0  0  0  0  0  0  0  0  0  0  0  0
    9.5834  -15.7454   28.2102 C   0  0  0  0  0  0  0  0  0  0  0  0
    8.4686  -13.0032   26.1227 O   0  0  0  0  0  0  0  0  0  0  0  0
  2  3  2  0
  2  1  1  0
  4  2  1  0
  5  4  1  0
  6  5  1  0
  7  8  1  0
  7  6  1  0
  8 10  1  0
  8  9  1  1
 10 11  2  0
 13 15  1  0
 13 12  1  0
 14 13  2  0
 16 15  1  0
 17 16  1  0
 17 18  1  0
 19 18  1  1
 20 10  1  0
 20 19  1  0
 21 19  1  0
 21 30  1  0
 22 21  2  0
 23 24  1  0
 24 25  2  0
 25 26  1  0
 27 28  1  0
 27 26  2  0
 29 31  1  0
 29 30  1  0
 29 28  1  1
 31 35  1  0
 32 31  2  0
 33 27  1  0
 34 33  2  0
 34 24  1  0
M  END
$$$$
