RRY.pdb
     RDKit          3D

 35 35  0  0  1  0  0  0  0  0999 V2000
    7.5993  -11.9051   19.0787 N   0  0  0  0  0  0  0  0  0  0  0  0
    8.6045  -12.5207   19.8944 C   0  0  0  0  0  0  0  0  0  0  0  0
    9.6765  -11.8777   20.2175 N   0  0  0  0  0  0  0  0  0  0  0  0
    8.4529  -13.8459   20.3693 N   0  0  0  0  0  0  0  0  0  0  0  0
    7.1514  -14.4868   20.5733 C   0  0  0  0  0  0  0  0  0  0  0  0
    7.3380  -15.9025   21.0549 C   0  0  0  0  0  0  0  0  0  0  0  0
    6.0832  -16.6695   21.2716 C   0  0  0  0  0  0  0  0  0  0  0  0
    6.2404  -18.0751   21.7650 C   0  0  2  0  0  0  0  0  0  0  0  0
    5.1450  -18.9422   21.4248 N   0  0  0  0  0  0  0  0  0  0  0  0
    6.2650  -17.9943   23.2812 C   0  0  0  0  0  0  0  0  0  0  0  0
    5.1823  -17.9198   23.9149 O   0  0  0  0  0  0  0  0  0  0  0  0
   10.4389  -12.3192   20.7420 N   0  0  0  0  0  0  0  0  0  0  0  0
    5.3794  -22.3915   23.7389 C   0  0  0  0  0  0  0  0  0  0  0  0
    5.4678  -23.0103   25.0480 N   0  0  0  0  0  0  0  0  0  0  0  0
    4.5573  -23.8336   25.4216 N   0  0  0  0  0  0  0  0  0  0  0  0
    6.5516  -22.7039   25.8992 C   0  0  0  0  0  0  0  0  0  0  0  0
    6.6590  -21.4395   26.5613 C   0  0  0  0  0  0  0  0  0  0  0  0
    7.1572  -20.4064   25.5425 C   0  0  0  0  0  0  0  0  0  0  0  0
    7.2792  -19.0752   26.2030 C   0  0  1  0  0  0  0  0  0  0  0  0
    7.7416  -17.9331   25.3569 N   0  0  0  0  0  0  0  0  0  0  0  0
    7.5028  -18.0040   23.9633 C   0  0  0  0  0  0  0  0  0  0  0  0
    9.0683  -17.4030   25.7439 O   0  0  0  0  0  0  0  0  0  0  0  0
    9.9717  -18.2698   25.9510 O   0  0  0  0  0  0  0  0  0  0  0  0
    4.5846  -24.2643   26.3541 C   0  0  0  0  0  0  0  0  0  0  0  0
    6.5926  -10.6487   24.2424 C   0  0  0  0  0  0  0  0  0  0  0  0
    7.0769  -11.6371   25.0923 C   0  0  0  0  0  0  0  0  0  0  0  0
    8.3667  -12.1303   24.9949 C   0  0  0  0  0  0  0  0  0  0  0  0
    8.8621  -13.1006   25.8191 C   0  0  0  0  0  0  0  0  0  0  0  0
    8.0244  -13.6133   26.8014 C   0  0  2  0  0  0  0  0  0  0  0  0
    8.5589  -14.6562   27.6802 N   0  0  0  0  0  0  0  0  0  0  0  0
    9.6852  -15.4518   27.1065 C   0  0  0  0  0  0  0  0  0  0  0  0
    9.2439  -16.0164   25.8565 O   0  0  0  0  0  0  0  0  0  0  0  0
   10.2092  -16.5154   27.9656 C   0  0  0  0  0  0  0  0  0  0  0  0
   10.7613  -16.2329   29.0550 C   0  0  0  0  0  0  0  0  0  0  0  0
    6.7402  -13.1565   26.9363 O   0  0  0  0  0  0  0  0  0  0  0  0
  2  3  2  0
  2  1  1  0
  4  2  1  0
  5  4  1  0
  6  5  1  0
  7  8  1  0
  7  6  1  0
  8 10  1  0
  8  9  1  1
 10 11  2  0
 13 15  1  0
 13 12  1  0
 14 13  2  0
 16 15  1  0
 17 16  1  0
 17 18  1  0
 19 18  1  1
 20 10  1  0
 20 19  1  0
 21 19  1  0
 21 30  1  0
 22 21  2  0
 23 24  1  0
 24 25  2  0
 25 26  1  0
 27 28  1  0
 27 26  2  0
 29 31  1  0
 29 30  1  0
 29 28  1  1
 31 35  1  0
 32 31  2  0
 33 27  1  0
 34 33  2  0
 34 24  1  0
M  END
$$$$
