RRY.pdb
     RDKit          3D

 35 35  0  0  1  0  0  0  0  0999 V2000
    8.4804  -15.4504   14.2133 N   0  0  0  0  0  0  0  0  0  0  0  0
    7.9653  -14.1130   14.1842 C   0  0  0  0  0  0  0  0  0  0  0  0
    7.1957  -13.7235   13.2235 N   0  0  0  0  0  0  0  0  0  0  0  0
    8.2824  -13.1829   15.2035 N   0  0  0  0  0  0  0  0  0  0  0  0
    8.4821  -13.5582   16.6055 C   0  0  0  0  0  0  0  0  0  0  0  0
    7.2529  -13.2289   17.4127 C   0  0  0  0  0  0  0  0  0  0  0  0
    7.3167  -13.6076   18.8489 C   0  0  0  0  0  0  0  0  0  0  0  0
    8.3591  -14.6156   19.2245 C   0  0  2  0  0  0  0  0  0  0  0  0
    8.2661  -15.8538   18.4994 N   0  0  0  0  0  0  0  0  0  0  0  0
    8.1151  -14.9572   20.6839 C   0  0  0  0  0  0  0  0  0  0  0  0
    7.9574  -14.0311   21.5187 O   0  0  0  0  0  0  0  0  0  0  0  0
    6.7781  -12.7873   13.2058 N   0  0  0  0  0  0  0  0  0  0  0  0
    8.1440  -22.4357   24.3919 C   0  0  0  0  0  0  0  0  0  0  0  0
    7.2971  -21.8514   25.4147 N   0  0  0  0  0  0  0  0  0  0  0  0
    7.2745  -22.3683   26.5889 N   0  0  0  0  0  0  0  0  0  0  0  0
    6.5066  -20.7216   25.1124 C   0  0  0  0  0  0  0  0  0  0  0  0
    6.4921  -20.1364   23.8063 C   0  0  0  0  0  0  0  0  0  0  0  0
    7.2277  -18.7919   23.8758 C   0  0  0  0  0  0  0  0  0  0  0  0
    7.1691  -18.1234   22.5443 C   0  0  1  0  0  0  0  0  0  0  0  0
    7.9128  -16.8356   22.3938 N   0  0  0  0  0  0  0  0  0  0  0  0
    8.0677  -16.3107   21.0882 C   0  0  0  0  0  0  0  0  0  0  0  0
    9.1072  -16.7317   23.2618 O   0  0  0  0  0  0  0  0  0  0  0  0
   10.1221  -17.3958   22.8886 O   0  0  0  0  0  0  0  0  0  0  0  0
    6.6723  -21.9803   27.3256 C   0  0  0  0  0  0  0  0  0  0  0  0
   10.9604  -15.4180   31.5400 C   0  0  0  0  0  0  0  0  0  0  0  0
   10.7275  -15.1958   30.1871 C   0  0  0  0  0  0  0  0  0  0  0  0
   11.1326  -16.0885   29.2099 C   0  0  0  0  0  0  0  0  0  0  0  0
   10.9140  -15.8895   27.8761 C   0  0  0  0  0  0  0  0  0  0  0  0
   10.2519  -14.7316   27.4886 C   0  0  1  0  0  0  0  0  0  0  0  0
   10.0231  -14.5209   26.0572 N   0  0  0  0  0  0  0  0  0  0  0  0
   10.2384  -15.7232   25.1978 C   0  0  0  0  0  0  0  0  0  0  0  0
    9.0491  -15.9307   24.4113 O   0  0  0  0  0  0  0  0  0  0  0  0
   10.5748  -16.9572   25.9106 C   0  0  0  0  0  0  0  0  0  0  0  0
    9.6714  -17.7585   26.2469 C   0  0  0  0  0  0  0  0  0  0  0  0
    9.8319  -13.8189   28.4196 O   0  0  0  0  0  0  0  0  0  0  0  0
  2  3  2  0
  2  1  1  0
  4  2  1  0
  5  4  1  0
  6  5  1  0
  7  8  1  0
  7  6  1  0
  8 10  1  0
  8  9  1  6
 10 11  2  0
 13 15  1  0
 13 12  1  0
 14 13  2  0
 16 15  1  0
 17 16  1  0
 17 18  1  0
 19 18  1  1
 20 10  1  0
 20 19  1  0
 21 19  1  0
 21 30  1  0
 22 21  2  0
 23 24  1  0
 24 25  2  0
 25 26  1  0
 27 28  1  0
 27 26  2  0
 29 31  1  0
 29 30  1  0
 29 28  1  1
 31 35  1  0
 32 31  2  0
 33 27  1  0
 34 33  2  0
 34 24  1  0
M  END
$$$$
