RRY.pdb
     RDKit          3D

 35 35  0  0  1  0  0  0  0  0999 V2000
    8.5454  -11.6788   18.0614 N   0  0  0  0  0  0  0  0  0  0  0  0
    7.8903  -12.9154   17.7508 C   0  0  0  0  0  0  0  0  0  0  0  0
    8.0687  -13.4870   16.6070 N   0  0  0  0  0  0  0  0  0  0  0  0
    7.0324  -13.5452   18.6846 N   0  0  0  0  0  0  0  0  0  0  0  0
    7.2644  -13.5322   20.1311 C   0  0  0  0  0  0  0  0  0  0  0  0
    7.2898  -14.9404   20.6669 C   0  0  0  0  0  0  0  0  0  0  0  0
    7.9155  -15.9488   19.7715 C   0  0  0  0  0  0  0  0  0  0  0  0
    7.8655  -17.3719   20.2362 C   0  0  2  0  0  0  0  0  0  0  0  0
    6.5879  -17.7736   20.7596 N   0  0  0  0  0  0  0  0  0  0  0  0
    8.8502  -17.4792   21.3872 C   0  0  0  0  0  0  0  0  0  0  0  0
    8.4360  -17.8036   22.5285 O   0  0  0  0  0  0  0  0  0  0  0  0
    7.5930  -14.3594   16.3542 N   0  0  0  0  0  0  0  0  0  0  0  0
   14.7873  -13.9602   19.5940 C   0  0  0  0  0  0  0  0  0  0  0  0
   14.5089  -15.0273   18.6514 N   0  0  0  0  0  0  0  0  0  0  0  0
   14.0880  -14.7380   17.4743 N   0  0  0  0  0  0  0  0  0  0  0  0
   14.7026  -16.3722   19.0342 C   0  0  0  0  0  0  0  0  0  0  0  0
   13.6182  -17.1975   19.4719 C   0  0  0  0  0  0  0  0  0  0  0  0
   13.6338  -17.2348   21.0055 C   0  0  0  0  0  0  0  0  0  0  0  0
   12.5252  -18.1046   21.4932 C   0  0  1  0  0  0  0  0  0  0  0  0
   11.3127  -17.4227   22.0401 N   0  0  0  0  0  0  0  0  0  0  0  0
   10.2204  -17.2138   21.1640 C   0  0  0  0  0  0  0  0  0  0  0  0
   11.6211  -16.2929   22.9452 O   0  0  0  0  0  0  0  0  0  0  0  0
   12.7587  -15.7529   22.7887 O   0  0  0  0  0  0  0  0  0  0  0  0
   13.8596  -15.4774   16.7983 C   0  0  0  0  0  0  0  0  0  0  0  0
   10.5835  -15.4830   31.6692 C   0  0  0  0  0  0  0  0  0  0  0  0
   10.3893  -15.5763   30.2954 C   0  0  0  0  0  0  0  0  0  0  0  0
   10.3811  -14.4639   29.4717 C   0  0  0  0  0  0  0  0  0  0  0  0
   10.1921  -14.5333   28.1205 C   0  0  0  0  0  0  0  0  0  0  0  0
    9.9989  -15.7858   27.5517 C   0  0  1  0  0  0  0  0  0  0  0  0
    9.7929  -15.8548   26.1031 N   0  0  0  0  0  0  0  0  0  0  0  0
   11.0400  -15.8009   25.2829 C   0  0  0  0  0  0  0  0  0  0  0  0
   10.6676  -15.8976   23.8943 O   0  0  0  0  0  0  0  0  0  0  0  0
   12.0441  -16.8206   25.5921 C   0  0  0  0  0  0  0  0  0  0  0  0
   13.2055  -16.4837   25.9221 C   0  0  0  0  0  0  0  0  0  0  0  0
    9.9989  -16.9154   28.3264 O   0  0  0  0  0  0  0  0  0  0  0  0
  2  3  2  0
  2  1  1  0
  4  2  1  0
  5  4  1  0
  6  5  1  0
  7  8  1  0
  7  6  1  0
  8 10  1  0
  8  9  1  1
 10 11  2  0
 13 15  1  0
 13 12  1  0
 14 13  2  0
 16 15  1  0
 17 16  1  0
 17 18  1  0
 19 18  1  1
 20 10  1  0
 20 19  1  0
 21 19  1  0
 21 30  1  0
 22 21  2  0
 23 24  1  0
 24 25  2  0
 25 26  1  0
 27 28  1  0
 27 26  2  0
 29 31  1  0
 29 30  1  0
 29 28  1  1
 31 35  1  0
 32 31  2  0
 33 27  1  0
 34 33  2  0
 34 24  1  0
M  END
$$$$
