MFK.pdb
     RDKit          3D

 29 29  0  0  1  0  0  0  0  0999 V2000
   29.9213  -19.9006  -20.6117 C   0  0  0  0  0  0  0  0  0  0  0  0
   28.9229  -20.3543  -19.1661 S   0  0  0  0  0  0  0  0  0  0  0  0
   27.9497  -21.8316  -19.5632 C   0  0  0  0  0  0  0  0  0  0  0  0
   27.0985  -22.2398  -18.3797 C   0  0  0  0  0  0  0  0  0  0  0  0
   27.9032  -22.4214  -17.1266 C   0  0  2  0  0  0  0  0  0  0  0  0
   28.7132  -23.6119  -17.2040 N   0  0  0  0  0  0  0  0  0  0  0  0
   26.9998  -22.5337  -15.9410 C   0  0  0  0  0  0  0  0  0  0  0  0
   26.6135  -23.6766  -15.6066 O   0  0  0  0  0  0  0  0  0  0  0  0
   26.5769  -21.4075  -15.2005 N   0  0  0  0  0  0  0  0  0  0  0  0
   25.7664  -21.4757  -14.0210 C   0  0  1  0  0  0  0  0  0  0  0  0
   26.1640  -20.5286  -12.9507 C   0  0  0  0  0  0  0  0  0  0  0  0
   25.3929  -20.5117  -11.7347 C   0  0  0  0  0  0  0  0  0  0  0  0
   24.1475  -19.9333  -11.6287 C   0  0  0  0  0  0  0  0  0  0  0  0
   23.4135  -19.9134  -10.4804 C   0  0  0  0  0  0  0  0  0  0  0  0
   23.9044  -20.4890   -9.3457 C   0  0  0  0  0  0  0  0  0  0  0  0
   25.1486  -21.0827   -9.3981 C   0  0  0  0  0  0  0  0  0  0  0  0
   25.8800  -21.0904  -10.5831 C   0  0  0  0  0  0  0  0  0  0  0  0
   24.3608  -21.5408  -14.3864 C   0  0  0  0  0  0  0  0  0  0  0  0
   23.9366  -20.7019  -15.2257 O   0  0  0  0  0  0  0  0  0  0  0  0
   23.4124  -22.4677  -13.8856 N   0  0  0  0  0  0  0  0  0  0  0  0
   21.9986  -22.3182  -14.2502 C   0  0  1  0  0  0  0  0  0  0  0  0
   21.2686  -23.6011  -13.9032 C   0  0  0  0  0  0  0  0  0  0  0  0
   19.8383  -23.6317  -14.2800 C   0  0  0  0  0  0  0  0  0  0  0  0
   19.1433  -24.9364  -14.0454 C   0  0  0  0  0  0  0  0  0  0  0  0
   17.7170  -24.9552  -14.5117 C   0  0  0  0  0  0  0  0  0  0  0  0
   17.2041  -26.3031  -14.3304 N   0  0  0  0  0  0  0  0  0  0  0  0
   21.4174  -21.2025  -13.4981 C   0  0  0  0  0  0  0  0  0  0  0  0
   21.3968  -21.1213  -12.1106 O   0  0  0  0  0  0  0  0  0  0  0  0
   20.8949  -20.2418  -14.1369 O   0  0  0  0  0  0  0  0  0  0  0  0
  2  1  1  0
  3  2  1  0
  4  3  1  0
  5  4  1  0
  5  6  1  6
  7  5  1  0
  7  8  2  0
  9  7  1  0
 10  9  1  0
 10 11  1  1
 12 11  1  0
 12 13  2  0
 14 13  1  0
 15 14  2  0
 16 15  1  0
 16 17  2  0
 17 12  1  0
 18 20  1  0
 18 10  1  0
 19 18  2  0
 21 20  1  0
 21 27  1  0
 21 22  1  1
 23 22  1  0
 24 25  1  0
 24 23  1  0
 25 26  1  0
 27 29  2  0
 27 28  1  0
M  END
$$$$
