MFK.pdb
     RDKit          3D

 29 29  0  0  1  0  0  0  0  0999 V2000
   26.9838  -18.8300   -3.9277 C   0  0  0  0  0  0  0  0  0  0  0  0
   28.6622  -19.2547   -4.4704 S   0  0  0  0  0  0  0  0  0  0  0  0
   28.5560  -20.3053   -5.9443 C   0  0  0  0  0  0  0  0  0  0  0  0
   27.4126  -19.8606   -6.8312 C   0  0  0  0  0  0  0  0  0  0  0  0
   27.1897  -20.7857   -7.9912 C   0  0  2  0  0  0  0  0  0  0  0  0
   28.4411  -21.1384   -8.6150 N   0  0  0  0  0  0  0  0  0  0  0  0
   26.3124  -20.1359   -9.0124 C   0  0  0  0  0  0  0  0  0  0  0  0
   26.4883  -18.9183   -9.2444 O   0  0  0  0  0  0  0  0  0  0  0  0
   25.3087  -20.8436   -9.7104 N   0  0  0  0  0  0  0  0  0  0  0  0
   24.9973  -20.6464  -11.0949 C   0  0  1  0  0  0  0  0  0  0  0  0
   25.8213  -21.4536  -12.0276 C   0  0  0  0  0  0  0  0  0  0  0  0
   27.1319  -20.9680  -12.3738 C   0  0  0  0  0  0  0  0  0  0  0  0
   28.3006  -21.5186  -11.8965 C   0  0  0  0  0  0  0  0  0  0  0  0
   29.5437  -21.0626  -12.2199 C   0  0  0  0  0  0  0  0  0  0  0  0
   29.6837  -20.0000  -13.0631 C   0  0  0  0  0  0  0  0  0  0  0  0
   28.5435  -19.4114  -13.5697 C   0  0  0  0  0  0  0  0  0  0  0  0
   27.2840  -19.8950  -13.2247 C   0  0  0  0  0  0  0  0  0  0  0  0
   23.5560  -20.6445  -11.2852 C   0  0  0  0  0  0  0  0  0  0  0  0
   22.8759  -21.4542  -10.5996 O   0  0  0  0  0  0  0  0  0  0  0  0
   22.8348  -19.8099  -12.1754 N   0  0  0  0  0  0  0  0  0  0  0  0
   21.3844  -19.9875  -12.3124 C   0  0  1  0  0  0  0  0  0  0  0  0
   20.8576  -18.9529  -13.2876 C   0  0  0  0  0  0  0  0  0  0  0  0
   19.4047  -19.0252  -13.5563 C   0  0  0  0  0  0  0  0  0  0  0  0
   18.8660  -17.9534  -14.4516 C   0  0  0  0  0  0  0  0  0  0  0  0
   17.3990  -18.0847  -14.7387 C   0  0  0  0  0  0  0  0  0  0  0  0
   17.0246  -17.0201  -15.6547 N   0  0  0  0  0  0  0  0  0  0  0  0
   21.1049  -21.3326  -12.8233 C   0  0  0  0  0  0  0  0  0  0  0  0
   21.8974  -21.9964  -13.7525 O   0  0  0  0  0  0  0  0  0  0  0  0
   20.0788  -21.9445  -12.4029 O   0  0  0  0  0  0  0  0  0  0  0  0
  2  1  1  0
  3  2  1  0
  4  3  1  0
  5  4  1  0
  5  6  1  6
  7  5  1  0
  7  8  2  0
  9  7  1  0
 10  9  1  0
 10 11  1  6
 12 11  1  0
 12 13  2  0
 14 13  1  0
 15 14  2  0
 16 15  1  0
 16 17  2  0
 17 12  1  0
 18 20  1  0
 18 10  1  0
 19 18  2  0
 21 20  1  0
 21 27  1  0
 21 22  1  6
 23 22  1  0
 24 25  1  0
 24 23  1  0
 25 26  1  0
 27 29  2  0
 27 28  1  0
M  END
$$$$
