MFK.pdb
     RDKit          3D

 29 29  0  0  1  0  0  0  0  0999 V2000
   25.7233  -18.8611  -18.9466 C   0  0  0  0  0  0  0  0  0  0  0  0
   27.3838  -19.2406  -19.5717 S   0  0  0  0  0  0  0  0  0  0  0  0
   27.5768  -21.0405  -19.6743 C   0  0  0  0  0  0  0  0  0  0  0  0
   26.8938  -21.7147  -18.5035 C   0  0  0  0  0  0  0  0  0  0  0  0
   27.8521  -22.0746  -17.4067 C   0  0  2  0  0  0  0  0  0  0  0  0
   28.5504  -23.2979  -17.7154 N   0  0  0  0  0  0  0  0  0  0  0  0
   27.1200  -22.2543  -16.1158 C   0  0  0  0  0  0  0  0  0  0  0  0
   26.5854  -23.3649  -15.8967 O   0  0  0  0  0  0  0  0  0  0  0  0
   27.0159  -21.2254  -15.1535 N   0  0  0  0  0  0  0  0  0  0  0  0
   26.3017  -21.3464  -13.9174 C   0  0  1  0  0  0  0  0  0  0  0  0
   26.9185  -20.6183  -12.7815 C   0  0  0  0  0  0  0  0  0  0  0  0
   26.2270  -20.6146  -11.5185 C   0  0  0  0  0  0  0  0  0  0  0  0
   26.5135  -21.4833  -10.4890 C   0  0  0  0  0  0  0  0  0  0  0  0
   25.8618  -21.4851   -9.2918 C   0  0  0  0  0  0  0  0  0  0  0  0
   24.8599  -20.5900   -9.0580 C   0  0  0  0  0  0  0  0  0  0  0  0
   24.5331  -19.6970  -10.0574 C   0  0  0  0  0  0  0  0  0  0  0  0
   25.2133  -19.7144  -11.2726 C   0  0  0  0  0  0  0  0  0  0  0  0
   24.8769  -21.1711  -14.1468 C   0  0  0  0  0  0  0  0  0  0  0  0
   24.5111  -20.1549  -14.7961 O   0  0  0  0  0  0  0  0  0  0  0  0
   23.8493  -22.0430  -13.7073 N   0  0  0  0  0  0  0  0  0  0  0  0
   22.4482  -21.6929  -13.9685 C   0  0  1  0  0  0  0  0  0  0  0  0
   21.6070  -22.9510  -13.8753 C   0  0  0  0  0  0  0  0  0  0  0  0
   20.1561  -22.7537  -14.0863 C   0  0  0  0  0  0  0  0  0  0  0  0
   19.3370  -24.0063  -14.1069 C   0  0  0  0  0  0  0  0  0  0  0  0
   17.8836  -23.7748  -14.3999 C   0  0  0  0  0  0  0  0  0  0  0  0
   17.4417  -24.8095  -15.3200 N   0  0  0  0  0  0  0  0  0  0  0  0
   21.9944  -20.7224  -12.9682 C   0  0  0  0  0  0  0  0  0  0  0  0
   21.1929  -19.6230  -13.2528 O   0  0  0  0  0  0  0  0  0  0  0  0
   22.3463  -20.8791  -11.7618 O   0  0  0  0  0  0  0  0  0  0  0  0
  2  1  1  0
  3  2  1  0
  4  3  1  0
  5  4  1  0
  5  6  1  6
  7  5  1  0
  7  8  2  0
  9  7  1  0
 10  9  1  0
 10 11  1  1
 12 11  1  0
 12 13  2  0
 14 13  1  0
 15 14  2  0
 16 15  1  0
 16 17  2  0
 17 12  1  0
 18 20  1  0
 18 10  1  0
 19 18  2  0
 21 20  1  0
 21 27  1  0
 21 22  1  1
 23 22  1  0
 24 25  1  0
 24 23  1  0
 25 26  1  0
 27 29  2  0
 27 28  1  0
M  END
$$$$
