MFK.pdb
     RDKit          3D

 29 29  0  0  1  0  0  0  0  0999 V2000
   22.5791   -5.9714  -24.5004 C   0  0  0  0  0  0  0  0  0  0  0  0
   24.2809   -5.4045  -24.2265 S   0  0  0  0  0  0  0  0  0  0  0  0
   25.0937   -6.5263  -23.0567 C   0  0  0  0  0  0  0  0  0  0  0  0
   24.1354   -6.9307  -21.9567 C   0  0  0  0  0  0  0  0  0  0  0  0
   24.7709   -7.8354  -20.9427 C   0  0  2  0  0  0  0  0  0  0  0  0
   24.9195   -9.1706  -21.4667 N   0  0  0  0  0  0  0  0  0  0  0  0
   23.9343   -7.8974  -19.7054 C   0  0  0  0  0  0  0  0  0  0  0  0
   23.0368   -8.7685  -19.6497 O   0  0  0  0  0  0  0  0  0  0  0  0
   24.1238   -7.0172  -18.6169 N   0  0  0  0  0  0  0  0  0  0  0  0
   23.3480   -7.0447  -17.4128 C   0  0  1  0  0  0  0  0  0  0  0  0
   24.1534   -7.0770  -16.1675 C   0  0  0  0  0  0  0  0  0  0  0  0
   23.4581   -7.1009  -14.9067 C   0  0  0  0  0  0  0  0  0  0  0  0
   22.8633   -5.9944  -14.3421 C   0  0  0  0  0  0  0  0  0  0  0  0
   22.2048   -6.0108  -13.1488 C   0  0  0  0  0  0  0  0  0  0  0  0
   22.1057   -7.1710  -12.4390 C   0  0  0  0  0  0  0  0  0  0  0  0
   22.6849   -8.3093  -12.9605 C   0  0  0  0  0  0  0  0  0  0  0  0
   23.3527   -8.2679  -14.1819 C   0  0  0  0  0  0  0  0  0  0  0  0
   22.2626   -6.0813  -17.4982 C   0  0  0  0  0  0  0  0  0  0  0  0
   22.5329   -4.9364  -17.9502 O   0  0  0  0  0  0  0  0  0  0  0  0
   20.9156   -6.3088  -17.1198 N   0  0  0  0  0  0  0  0  0  0  0  0
   19.9507   -5.2056  -17.1963 C   0  0  1  0  0  0  0  0  0  0  0  0
   18.6033   -5.7656  -17.6085 C   0  0  0  0  0  0  0  0  0  0  0  0
   17.5308   -4.7609  -17.7784 C   0  0  0  0  0  0  0  0  0  0  0  0
   16.2348   -5.2925  -18.3061 C   0  0  0  0  0  0  0  0  0  0  0  0
   15.1715   -4.2458  -18.4668 C   0  0  0  0  0  0  0  0  0  0  0  0
   14.0626   -4.8416  -19.1934 N   0  0  0  0  0  0  0  0  0  0  0  0
   19.8369   -4.5665  -15.8821 C   0  0  0  0  0  0  0  0  0  0  0  0
   20.0816   -3.2191  -15.6440 O   0  0  0  0  0  0  0  0  0  0  0  0
   19.4955   -5.2723  -14.8875 O   0  0  0  0  0  0  0  0  0  0  0  0
  2  1  1  0
  3  2  1  0
  4  3  1  0
  5  4  1  0
  5  6  1  6
  7  5  1  0
  7  8  2  0
  9  7  1  0
 10  9  1  0
 10 11  1  1
 12 11  1  0
 12 13  2  0
 14 13  1  0
 15 14  2  0
 16 15  1  0
 16 17  2  0
 17 12  1  0
 18 20  1  0
 18 10  1  0
 19 18  2  0
 21 20  1  0
 21 27  1  0
 21 22  1  1
 23 22  1  0
 24 25  1  0
 24 23  1  0
 25 26  1  0
 27 29  2  0
 27 28  1  0
M  END
$$$$
