MFK.pdb
     RDKit          3D

 29 29  0  0  1  0  0  0  0  0999 V2000
   25.6154  -22.7703  -20.9771 C   0  0  0  0  0  0  0  0  0  0  0  0
   27.0076  -23.8952  -20.6796 S   0  0  0  0  0  0  0  0  0  0  0  0
   28.0816  -23.1787  -19.4067 C   0  0  0  0  0  0  0  0  0  0  0  0
   27.4467  -23.3147  -18.0392 C   0  0  0  0  0  0  0  0  0  0  0  0
   26.6154  -22.1220  -17.6687 C   0  0  2  0  0  0  0  0  0  0  0  0
   27.4044  -20.9155  -17.7014 N   0  0  0  0  0  0  0  0  0  0  0  0
   26.0523  -22.2883  -16.2939 C   0  0  0  0  0  0  0  0  0  0  0  0
   25.3889  -23.3229  -16.0552 O   0  0  0  0  0  0  0  0  0  0  0  0
   26.2437  -21.3289  -15.2749 N   0  0  0  0  0  0  0  0  0  0  0  0
   25.6792  -21.4237  -13.9615 C   0  0  1  0  0  0  0  0  0  0  0  0
   26.4688  -20.7428  -12.9064 C   0  0  0  0  0  0  0  0  0  0  0  0
   25.9301  -20.7018  -11.5716 C   0  0  0  0  0  0  0  0  0  0  0  0
   26.3348  -21.5431  -10.5591 C   0  0  0  0  0  0  0  0  0  0  0  0
   25.8279  -21.5096   -9.2943 C   0  0  0  0  0  0  0  0  0  0  0  0
   24.8607  -20.6047   -8.9695 C   0  0  0  0  0  0  0  0  0  0  0  0
   24.4196  -19.7381   -9.9482 C   0  0  0  0  0  0  0  0  0  0  0  0
   24.9527  -19.7914  -11.2337 C   0  0  0  0  0  0  0  0  0  0  0  0
   24.2491  -21.1680  -14.0151 C   0  0  0  0  0  0  0  0  0  0  0  0
   23.8623  -20.1452  -14.6416 O   0  0  0  0  0  0  0  0  0  0  0  0
   23.2377  -21.9674  -13.4259 N   0  0  0  0  0  0  0  0  0  0  0  0
   21.8322  -21.5691  -13.5675 C   0  0  1  0  0  0  0  0  0  0  0  0
   20.9677  -22.8143  -13.5305 C   0  0  0  0  0  0  0  0  0  0  0  0
   19.5207  -22.5806  -13.7304 C   0  0  0  0  0  0  0  0  0  0  0  0
   18.6724  -23.8135  -13.7618 C   0  0  0  0  0  0  0  0  0  0  0  0
   17.2393  -23.5536  -14.1232 C   0  0  0  0  0  0  0  0  0  0  0  0
   16.5233  -24.8165  -14.0526 N   0  0  0  0  0  0  0  0  0  0  0  0
   21.4640  -20.6814  -12.4608 C   0  0  0  0  0  0  0  0  0  0  0  0
   20.5595  -19.6315  -12.5683 O   0  0  0  0  0  0  0  0  0  0  0  0
   21.9951  -20.8674  -11.3262 O   0  0  0  0  0  0  0  0  0  0  0  0
  2  1  1  0
  3  2  1  0
  4  3  1  0
  5  4  1  0
  5  6  1  1
  7  5  1  0
  7  8  2  0
  9  7  1  0
 10  9  1  0
 10 11  1  1
 12 11  1  0
 12 13  2  0
 14 13  1  0
 15 14  2  0
 16 15  1  0
 16 17  2  0
 17 12  1  0
 18 20  1  0
 18 10  1  0
 19 18  2  0
 21 20  1  0
 21 27  1  0
 21 22  1  1
 23 22  1  0
 24 25  1  0
 24 23  1  0
 25 26  1  0
 27 29  2  0
 27 28  1  0
M  END
$$$$
