MFK.pdb
     RDKit          3D

 29 29  0  0  1  0  0  0  0  0999 V2000
   22.8766  -20.0873  -19.6341 C   0  0  0  0  0  0  0  0  0  0  0  0
   24.3999  -19.6922  -20.5372 S   0  0  0  0  0  0  0  0  0  0  0  0
   25.8124  -20.3972  -19.6454 C   0  0  0  0  0  0  0  0  0  0  0  0
   25.3987  -20.8318  -18.2555 C   0  0  0  0  0  0  0  0  0  0  0  0
   26.5614  -21.2883  -17.4246 C   0  0  2  0  0  0  0  0  0  0  0  0
   27.1690  -22.4657  -17.9939 N   0  0  0  0  0  0  0  0  0  0  0  0
   26.1132  -21.6059  -16.0343 C   0  0  0  0  0  0  0  0  0  0  0  0
   25.6241  -22.7387  -15.8223 O   0  0  0  0  0  0  0  0  0  0  0  0
   26.2236  -20.6812  -14.9722 N   0  0  0  0  0  0  0  0  0  0  0  0
   25.7834  -20.9352  -13.6326 C   0  0  1  0  0  0  0  0  0  0  0  0
   26.5761  -20.2428  -12.5872 C   0  0  0  0  0  0  0  0  0  0  0  0
   26.1848  -20.4115  -11.2118 C   0  0  0  0  0  0  0  0  0  0  0  0
   25.3439  -19.5474  -10.5461 C   0  0  0  0  0  0  0  0  0  0  0  0
   24.9709  -19.7014   -9.2441 C   0  0  0  0  0  0  0  0  0  0  0  0
   25.4351  -20.7604   -8.5211 C   0  0  0  0  0  0  0  0  0  0  0  0
   26.2813  -21.6563   -9.1413 C   0  0  0  0  0  0  0  0  0  0  0  0
   26.6485  -21.4778  -10.4727 C   0  0  0  0  0  0  0  0  0  0  0  0
   24.3342  -20.8466  -13.5600 C   0  0  0  0  0  0  0  0  0  0  0  0
   23.7756  -19.9015  -14.1788 O   0  0  0  0  0  0  0  0  0  0  0  0
   23.4802  -21.7311  -12.8544 N   0  0  0  0  0  0  0  0  0  0  0  0
   22.0328  -21.4885  -12.8568 C   0  0  1  0  0  0  0  0  0  0  0  0
   21.3664  -22.5131  -11.9595 C   0  0  0  0  0  0  0  0  0  0  0  0
   19.8880  -22.5265  -12.0112 C   0  0  0  0  0  0  0  0  0  0  0  0
   19.2334  -23.6620  -11.2883 C   0  0  0  0  0  0  0  0  0  0  0  0
   17.7365  -23.6651  -11.3946 C   0  0  0  0  0  0  0  0  0  0  0  0
   17.2350  -24.7911  -10.6244 N   0  0  0  0  0  0  0  0  0  0  0  0
   21.7644  -20.1403  -12.3482 C   0  0  0  0  0  0  0  0  0  0  0  0
   22.3620  -19.5983  -11.2163 O   0  0  0  0  0  0  0  0  0  0  0  0
   20.9367  -19.4078  -12.9666 O   0  0  0  0  0  0  0  0  0  0  0  0
  2  1  1  0
  3  2  1  0
  4  3  1  0
  5  4  1  0
  5  6  1  6
  7  5  1  0
  7  8  2  0
  9  7  1  0
 10  9  1  0
 10 11  1  1
 12 11  1  0
 12 13  2  0
 14 13  1  0
 15 14  2  0
 16 15  1  0
 16 17  2  0
 17 12  1  0
 18 20  1  0
 18 10  1  0
 19 18  2  0
 21 20  1  0
 21 27  1  0
 21 22  1  1
 23 22  1  0
 24 25  1  0
 24 23  1  0
 25 26  1  0
 27 29  2  0
 27 28  1  0
M  END
$$$$
