MFK.pdb
     RDKit          3D

 29 29  0  0  1  0  0  0  0  0999 V2000
   26.1720  -18.3765  -15.6277 C   0  0  0  0  0  0  0  0  0  0  0  0
   27.4749  -19.5568  -16.0767 S   0  0  0  0  0  0  0  0  0  0  0  0
   28.4600  -19.9349  -14.6023 C   0  0  0  0  0  0  0  0  0  0  0  0
   27.5590  -20.3002  -13.4419 C   0  0  0  0  0  0  0  0  0  0  0  0
   28.3230  -20.5462  -12.1744 C   0  0  2  0  0  0  0  0  0  0  0  0
   29.2516  -21.6372  -12.3376 N   0  0  0  0  0  0  0  0  0  0  0  0
   27.3850  -20.8790  -11.0590 C   0  0  0  0  0  0  0  0  0  0  0  0
   27.2543  -22.0839  -10.7452 O   0  0  0  0  0  0  0  0  0  0  0  0
   26.6550  -19.8909  -10.3617 N   0  0  0  0  0  0  0  0  0  0  0  0
   25.8164  -20.1556   -9.2306 C   0  0  1  0  0  0  0  0  0  0  0  0
   25.9486  -19.1718   -8.1283 C   0  0  0  0  0  0  0  0  0  0  0  0
   26.9246  -19.4267   -7.1007 C   0  0  0  0  0  0  0  0  0  0  0  0
   27.2263  -20.6854   -6.6302 C   0  0  0  0  0  0  0  0  0  0  0  0
   28.1483  -20.9327   -5.6572 C   0  0  0  0  0  0  0  0  0  0  0  0
   28.8356  -19.9010   -5.0890 C   0  0  0  0  0  0  0  0  0  0  0  0
   28.5708  -18.6191   -5.5248 C   0  0  0  0  0  0  0  0  0  0  0  0
   27.6241  -18.3912   -6.5204 C   0  0  0  0  0  0  0  0  0  0  0  0
   24.4773  -20.5057   -9.6753 C   0  0  0  0  0  0  0  0  0  0  0  0
   24.1755  -20.2535  -10.8725 O   0  0  0  0  0  0  0  0  0  0  0  0
   23.4689  -21.1112   -8.8841 N   0  0  0  0  0  0  0  0  0  0  0  0
   22.1840  -21.4611   -9.5008 C   0  0  1  0  0  0  0  0  0  0  0  0
   21.3677  -22.2605   -8.5039 C   0  0  0  0  0  0  0  0  0  0  0  0
   20.0492  -22.7179   -8.9947 C   0  0  0  0  0  0  0  0  0  0  0  0
   19.3130  -23.6454   -8.0791 C   0  0  0  0  0  0  0  0  0  0  0  0
   17.9666  -24.0624   -8.5941 C   0  0  0  0  0  0  0  0  0  0  0  0
   17.3527  -24.9237   -7.5972 N   0  0  0  0  0  0  0  0  0  0  0  0
   21.4641  -20.2345   -9.8551 C   0  0  0  0  0  0  0  0  0  0  0  0
   21.7665  -18.9762   -9.3478 O   0  0  0  0  0  0  0  0  0  0  0  0
   20.5009  -20.3067  -10.6742 O   0  0  0  0  0  0  0  0  0  0  0  0
  2  1  1  0
  3  2  1  0
  4  3  1  0
  5  4  1  0
  5  6  1  6
  7  5  1  0
  7  8  2  0
  9  7  1  0
 10  9  1  0
 10 11  1  1
 12 11  1  0
 12 13  2  0
 14 13  1  0
 15 14  2  0
 16 15  1  0
 16 17  2  0
 17 12  1  0
 18 20  1  0
 18 10  1  0
 19 18  2  0
 21 20  1  0
 21 27  1  0
 21 22  1  1
 23 22  1  0
 24 25  1  0
 24 23  1  0
 25 26  1  0
 27 29  2  0
 27 28  1  0
M  END
$$$$
