MFK.pdb
     RDKit          3D

 29 29  0  0  1  0  0  0  0  0999 V2000
   27.5320  -26.0068  -19.1133 C   0  0  0  0  0  0  0  0  0  0  0  0
   28.5743  -24.8200  -20.0062 S   0  0  0  0  0  0  0  0  0  0  0  0
   28.4053  -23.1893  -19.2318 C   0  0  0  0  0  0  0  0  0  0  0  0
   27.5211  -23.2735  -18.0059 C   0  0  0  0  0  0  0  0  0  0  0  0
   27.3311  -21.9426  -17.3399 C   0  0  2  0  0  0  0  0  0  0  0  0
   28.5994  -21.2934  -17.1179 N   0  0  0  0  0  0  0  0  0  0  0  0
   26.6445  -22.1141  -16.0232 C   0  0  0  0  0  0  0  0  0  0  0  0
   25.8829  -23.0981  -15.8849 O   0  0  0  0  0  0  0  0  0  0  0  0
   26.8268  -21.2139  -14.9500 N   0  0  0  0  0  0  0  0  0  0  0  0
   26.1365  -21.3016  -13.6975 C   0  0  1  0  0  0  0  0  0  0  0  0
   26.8753  -20.7192  -12.5505 C   0  0  0  0  0  0  0  0  0  0  0  0
   26.2170  -20.6685  -11.2709 C   0  0  0  0  0  0  0  0  0  0  0  0
   25.1985  -19.7912  -10.9709 C   0  0  0  0  0  0  0  0  0  0  0  0
   24.5724  -19.7379   -9.7614 C   0  0  0  0  0  0  0  0  0  0  0  0
   24.9456  -20.5860   -8.7608 C   0  0  0  0  0  0  0  0  0  0  0  0
   25.9618  -21.4853   -9.0096 C   0  0  0  0  0  0  0  0  0  0  0  0
   26.5868  -21.5209  -10.2536 C   0  0  0  0  0  0  0  0  0  0  0  0
   24.7422  -20.9284  -13.8709 C   0  0  0  0  0  0  0  0  0  0  0  0
   24.4980  -19.8386  -14.4547 O   0  0  0  0  0  0  0  0  0  0  0  0
   23.6195  -21.6809  -13.4435 N   0  0  0  0  0  0  0  0  0  0  0  0
   22.2727  -21.1229  -13.6128 C   0  0  1  0  0  0  0  0  0  0  0  0
   21.4279  -22.1172  -14.3854 C   0  0  0  0  0  0  0  0  0  0  0  0
   20.0279  -21.7018  -14.6220 C   0  0  0  0  0  0  0  0  0  0  0  0
   19.2003  -22.6656  -15.4136 C   0  0  0  0  0  0  0  0  0  0  0  0
   17.8103  -22.1778  -15.6996 C   0  0  0  0  0  0  0  0  0  0  0  0
   17.1288  -23.1982  -16.4786 N   0  0  0  0  0  0  0  0  0  0  0  0
   21.6743  -20.8875  -12.2956 C   0  0  0  0  0  0  0  0  0  0  0  0
   20.8138  -19.8355  -12.0045 O   0  0  0  0  0  0  0  0  0  0  0  0
   21.9485  -21.6833  -11.3493 O   0  0  0  0  0  0  0  0  0  0  0  0
  2  1  1  0
  3  2  1  0
  4  3  1  0
  5  4  1  0
  5  6  1  1
  7  5  1  0
  7  8  2  0
  9  7  1  0
 10  9  1  0
 10 11  1  1
 12 11  1  0
 12 13  2  0
 14 13  1  0
 15 14  2  0
 16 15  1  0
 16 17  2  0
 17 12  1  0
 18 20  1  0
 18 10  1  0
 19 18  2  0
 21 20  1  0
 21 27  1  0
 21 22  1  6
 23 22  1  0
 24 25  1  0
 24 23  1  0
 25 26  1  0
 27 29  2  0
 27 28  1  0
M  END
$$$$
