MFK.pdb
     RDKit          3D

 29 29  0  0  1  0  0  0  0  0999 V2000
   28.8457  -24.2857  -16.6292 C   0  0  0  0  0  0  0  0  0  0  0  0
   28.9913  -22.6644  -17.4306 S   0  0  0  0  0  0  0  0  0  0  0  0
   29.7013  -21.4859  -16.2497 C   0  0  0  0  0  0  0  0  0  0  0  0
   29.3190  -21.8591  -14.8332 C   0  0  0  0  0  0  0  0  0  0  0  0
   28.4812  -20.8081  -14.1667 C   0  0  2  0  0  0  0  0  0  0  0  0
   29.1843  -19.5503  -14.1095 N   0  0  0  0  0  0  0  0  0  0  0  0
   28.1348  -21.2262  -12.7739 C   0  0  0  0  0  0  0  0  0  0  0  0
   27.3698  -22.2069  -12.6313 O   0  0  0  0  0  0  0  0  0  0  0  0
   28.6367  -20.5585  -11.6348 N   0  0  0  0  0  0  0  0  0  0  0  0
   28.1699  -20.7809  -10.2986 C   0  0  1  0  0  0  0  0  0  0  0  0
   29.1154  -20.3474   -9.2409 C   0  0  0  0  0  0  0  0  0  0  0  0
   28.6142  -20.1951   -7.8996 C   0  0  0  0  0  0  0  0  0  0  0  0
   27.3457  -19.7466   -7.6052 C   0  0  0  0  0  0  0  0  0  0  0  0
   26.8662  -19.5994   -6.3378 C   0  0  0  0  0  0  0  0  0  0  0  0
   27.6565  -19.9031   -5.2687 C   0  0  0  0  0  0  0  0  0  0  0  0
   28.9370  -20.3569   -5.5089 C   0  0  0  0  0  0  0  0  0  0  0  0
   29.4048  -20.4990   -6.8129 C   0  0  0  0  0  0  0  0  0  0  0  0
   26.7806  -20.3689  -10.1820 C   0  0  0  0  0  0  0  0  0  0  0  0
   26.5304  -19.1354  -10.2459 O   0  0  0  0  0  0  0  0  0  0  0  0
   25.6689  -21.2301  -10.0032 N   0  0  0  0  0  0  0  0  0  0  0  0
   24.3111  -20.6887  -10.1345 C   0  0  1  0  0  0  0  0  0  0  0  0
   23.5664  -21.4923  -11.1827 C   0  0  0  0  0  0  0  0  0  0  0  0
   22.1523  -21.1065  -11.3826 C   0  0  0  0  0  0  0  0  0  0  0  0
   21.4228  -21.8765  -12.4387 C   0  0  0  0  0  0  0  0  0  0  0  0
   20.0441  -21.3569  -12.7236 C   0  0  0  0  0  0  0  0  0  0  0  0
   19.4384  -22.2191  -13.7247 N   0  0  0  0  0  0  0  0  0  0  0  0
   23.6177  -20.7962   -8.8476 C   0  0  0  0  0  0  0  0  0  0  0  0
   23.9898  -21.6659   -7.8292 O   0  0  0  0  0  0  0  0  0  0  0  0
   22.6119  -20.0574   -8.6324 O   0  0  0  0  0  0  0  0  0  0  0  0
  2  1  1  0
  3  2  1  0
  4  3  1  0
  5  4  1  0
  5  6  1  1
  7  5  1  0
  7  8  2  0
  9  7  1  0
 10  9  1  0
 10 11  1  1
 12 11  1  0
 12 13  2  0
 14 13  1  0
 15 14  2  0
 16 15  1  0
 16 17  2  0
 17 12  1  0
 18 20  1  0
 18 10  1  0
 19 18  2  0
 21 20  1  0
 21 27  1  0
 21 22  1  6
 23 22  1  0
 24 25  1  0
 24 23  1  0
 25 26  1  0
 27 29  2  0
 27 28  1  0
M  END
$$$$
