MFK.pdb
     RDKit          3D

 29 29  0  0  1  0  0  0  0  0999 V2000
   24.7075  -22.0519  -20.7982 C   0  0  0  0  0  0  0  0  0  0  0  0
   26.0229  -20.8544  -21.1557 S   0  0  0  0  0  0  0  0  0  0  0  0
   27.3314  -21.0290  -19.9129 C   0  0  0  0  0  0  0  0  0  0  0  0
   26.7588  -21.5414  -18.6085 C   0  0  0  0  0  0  0  0  0  0  0  0
   27.7830  -21.6012  -17.5137 C   0  0  2  0  0  0  0  0  0  0  0  0
   28.7799  -22.6039  -17.7969 N   0  0  0  0  0  0  0  0  0  0  0  0
   27.1305  -21.9303  -16.2096 C   0  0  0  0  0  0  0  0  0  0  0  0
   27.0155  -23.1383  -15.9020 O   0  0  0  0  0  0  0  0  0  0  0  0
   26.6485  -20.9352  -15.3305 N   0  0  0  0  0  0  0  0  0  0  0  0
   26.0178  -21.2066  -14.0730 C   0  0  1  0  0  0  0  0  0  0  0  0
   26.5256  -20.3875  -12.9453 C   0  0  0  0  0  0  0  0  0  0  0  0
   25.8973  -20.5361  -11.6581 C   0  0  0  0  0  0  0  0  0  0  0  0
   26.4163  -21.3045  -10.6398 C   0  0  0  0  0  0  0  0  0  0  0  0
   25.8257  -21.4497   -9.4199 C   0  0  0  0  0  0  0  0  0  0  0  0
   24.6500  -20.8135   -9.1499 C   0  0  0  0  0  0  0  0  0  0  0  0
   24.0874  -20.0307  -10.1368 C   0  0  0  0  0  0  0  0  0  0  0  0
   24.7095  -19.8977  -11.3756 C   0  0  0  0  0  0  0  0  0  0  0  0
   24.5782  -21.3060  -14.2497 C   0  0  0  0  0  0  0  0  0  0  0  0
   23.9946  -20.3527  -14.8317 O   0  0  0  0  0  0  0  0  0  0  0  0
   23.7600  -22.3838  -13.8275 N   0  0  0  0  0  0  0  0  0  0  0  0
   22.3054  -22.2934  -14.0007 C   0  0  1  0  0  0  0  0  0  0  0  0
   21.7065  -23.6736  -13.8124 C   0  0  0  0  0  0  0  0  0  0  0  0
   20.2456  -23.7594  -14.0289 C   0  0  0  0  0  0  0  0  0  0  0  0
   19.6703  -25.1399  -13.9677 C   0  0  0  0  0  0  0  0  0  0  0  0
   20.1482  -26.0443  -15.0657 C   0  0  0  0  0  0  0  0  0  0  0  0
   19.4032  -27.2892  -14.9770 N   0  0  0  0  0  0  0  0  0  0  0  0
   21.7522  -21.3762  -13.0002 C   0  0  0  0  0  0  0  0  0  0  0  0
   20.9068  -20.3133  -13.2965 O   0  0  0  0  0  0  0  0  0  0  0  0
   22.0537  -21.5472  -11.7821 O   0  0  0  0  0  0  0  0  0  0  0  0
  2  1  1  0
  3  2  1  0
  4  3  1  0
  5  4  1  0
  5  6  1  6
  7  5  1  0
  7  8  2  0
  9  7  1  0
 10  9  1  0
 10 11  1  1
 12 11  1  0
 12 13  2  0
 14 13  1  0
 15 14  2  0
 16 15  1  0
 16 17  2  0
 17 12  1  0
 18 20  1  0
 18 10  1  0
 19 18  2  0
 21 20  1  0
 21 27  1  0
 21 22  1  1
 23 22  1  0
 24 25  1  0
 24 23  1  0
 25 26  1  0
 27 29  2  0
 27 28  1  0
M  END
$$$$
