MFK.pdb
     RDKit          3D

 29 29  0  0  1  0  0  0  0  0999 V2000
   27.3020  -17.3151  -17.4741 C   0  0  0  0  0  0  0  0  0  0  0  0
   28.7188  -18.0759  -18.3144 S   0  0  0  0  0  0  0  0  0  0  0  0
   28.1603  -19.5725  -19.1720 C   0  0  0  0  0  0  0  0  0  0  0  0
   27.3295  -20.4354  -18.2462 C   0  0  0  0  0  0  0  0  0  0  0  0
   28.1671  -21.1940  -17.2594 C   0  0  2  0  0  0  0  0  0  0  0  0
   28.6855  -22.4039  -17.8482 N   0  0  0  0  0  0  0  0  0  0  0  0
   27.3540  -21.5565  -16.0585 C   0  0  0  0  0  0  0  0  0  0  0  0
   26.7077  -22.6282  -16.0920 O   0  0  0  0  0  0  0  0  0  0  0  0
   27.2949  -20.7393  -14.9078 N   0  0  0  0  0  0  0  0  0  0  0  0
   26.5324  -21.0509  -13.7355 C   0  0  1  0  0  0  0  0  0  0  0  0
   27.0293  -20.4078  -12.4946 C   0  0  0  0  0  0  0  0  0  0  0  0
   26.2575  -20.5655  -11.2892 C   0  0  0  0  0  0  0  0  0  0  0  0
   26.4819  -21.5608  -10.3641 C   0  0  0  0  0  0  0  0  0  0  0  0
   25.7541  -21.7157   -9.2220 C   0  0  0  0  0  0  0  0  0  0  0  0
   24.7339  -20.8558   -8.9401 C   0  0  0  0  0  0  0  0  0  0  0  0
   24.4673  -19.8402   -9.8349 C   0  0  0  0  0  0  0  0  0  0  0  0
   25.2248  -19.7022  -10.9954 C   0  0  0  0  0  0  0  0  0  0  0  0
   25.1112  -20.9611  -14.0282 C   0  0  0  0  0  0  0  0  0  0  0  0
   24.6982  -19.9174  -14.6011 O   0  0  0  0  0  0  0  0  0  0  0  0
   24.1358  -21.9454  -13.7294 N   0  0  0  0  0  0  0  0  0  0  0  0
   22.7234  -21.6689  -14.0167 C   0  0  1  0  0  0  0  0  0  0  0  0
   21.9875  -22.9877  -14.1526 C   0  0  0  0  0  0  0  0  0  0  0  0
   20.5465  -22.8735  -14.4671 C   0  0  0  0  0  0  0  0  0  0  0  0
   19.8129  -24.1730  -14.5843 C   0  0  0  0  0  0  0  0  0  0  0  0
   18.3714  -24.0218  -14.9729 C   0  0  0  0  0  0  0  0  0  0  0  0
   17.7873  -25.3503  -15.0532 N   0  0  0  0  0  0  0  0  0  0  0  0
   22.1452  -20.8941  -12.9150 C   0  0  0  0  0  0  0  0  0  0  0  0
   21.1734  -19.9132  -13.0747 O   0  0  0  0  0  0  0  0  0  0  0  0
   22.5456  -21.1184  -11.7347 O   0  0  0  0  0  0  0  0  0  0  0  0
  2  1  1  0
  3  2  1  0
  4  3  1  0
  5  4  1  0
  5  6  1  6
  7  5  1  0
  7  8  2  0
  9  7  1  0
 10  9  1  0
 10 11  1  1
 12 11  1  0
 12 13  2  0
 14 13  1  0
 15 14  2  0
 16 15  1  0
 16 17  2  0
 17 12  1  0
 18 20  1  0
 18 10  1  0
 19 18  2  0
 21 20  1  0
 21 27  1  0
 21 22  1  1
 23 22  1  0
 24 25  1  0
 24 23  1  0
 25 26  1  0
 27 29  2  0
 27 28  1  0
M  END
$$$$
