MFK.pdb
     RDKit          3D

 29 29  0  0  1  0  0  0  0  0999 V2000
   13.5432  -20.8329   -0.6689 C   0  0  0  0  0  0  0  0  0  0  0  0
   13.1393  -22.3332   -1.6061 S   0  0  0  0  0  0  0  0  0  0  0  0
   14.4066  -23.5886   -1.2820 C   0  0  0  0  0  0  0  0  0  0  0  0
   14.7428  -23.6341    0.1934 C   0  0  0  0  0  0  0  0  0  0  0  0
   15.9156  -24.5215    0.4900 C   0  0  2  0  0  0  0  0  0  0  0  0
   15.5644  -25.9101    0.3232 N   0  0  0  0  0  0  0  0  0  0  0  0
   16.3836  -24.3116    1.8941 C   0  0  0  0  0  0  0  0  0  0  0  0
   15.6338  -24.6896    2.8228 O   0  0  0  0  0  0  0  0  0  0  0  0
   17.6250  -23.7099    2.1977 N   0  0  0  0  0  0  0  0  0  0  0  0
   18.0720  -23.4084    3.5252 C   0  0  1  0  0  0  0  0  0  0  0  0
   19.5174  -23.6523    3.7533 C   0  0  0  0  0  0  0  0  0  0  0  0
   20.0960  -23.2066    4.9943 C   0  0  0  0  0  0  0  0  0  0  0  0
   20.5650  -21.9284    5.2021 C   0  0  0  0  0  0  0  0  0  0  0  0
   21.1145  -21.5012    6.3740 C   0  0  0  0  0  0  0  0  0  0  0  0
   21.2257  -22.3581    7.4290 C   0  0  0  0  0  0  0  0  0  0  0  0
   20.7707  -23.6512    7.2731 C   0  0  0  0  0  0  0  0  0  0  0  0
   20.2129  -24.0647    6.0659 C   0  0  0  0  0  0  0  0  0  0  0  0
   17.5180  -22.1366    3.9598 C   0  0  0  0  0  0  0  0  0  0  0  0
   17.6407  -21.1511    3.1840 O   0  0  0  0  0  0  0  0  0  0  0  0
   16.8450  -21.8964    5.1840 N   0  0  0  0  0  0  0  0  0  0  0  0
   16.3407  -20.5492    5.4754 C   0  0  1  0  0  0  0  0  0  0  0  0
   15.3598  -20.6359    6.6284 C   0  0  0  0  0  0  0  0  0  0  0  0
   15.9387  -20.3831    7.9661 C   0  0  0  0  0  0  0  0  0  0  0  0
   14.9631  -20.4132    9.1009 C   0  0  0  0  0  0  0  0  0  0  0  0
   15.5760  -20.1027   10.4350 C   0  0  0  0  0  0  0  0  0  0  0  0
   14.5151  -20.1111   11.4284 N   0  0  0  0  0  0  0  0  0  0  0  0
   17.4610  -19.6800    5.8467 C   0  0  0  0  0  0  0  0  0  0  0  0
   18.6596  -20.1355    6.3834 O   0  0  0  0  0  0  0  0  0  0  0  0
   17.3471  -18.4304    5.6754 O   0  0  0  0  0  0  0  0  0  0  0  0
  2  1  1  0
  3  2  1  0
  4  3  1  0
  5  4  1  0
  5  6  1  1
  7  5  1  0
  7  8  2  0
  9  7  1  0
 10  9  1  0
 10 11  1  6
 12 11  1  0
 12 13  2  0
 14 13  1  0
 15 14  2  0
 16 15  1  0
 16 17  2  0
 17 12  1  0
 18 20  1  0
 18 10  1  0
 19 18  2  0
 21 20  1  0
 21 27  1  0
 21 22  1  1
 23 22  1  0
 24 25  1  0
 24 23  1  0
 25 26  1  0
 27 29  2  0
 27 28  1  0
M  END
$$$$
