MFK.pdb
     RDKit          3D

 29 29  0  0  1  0  0  0  0  0999 V2000
   26.3343  -15.6444  -15.3444 C   0  0  0  0  0  0  0  0  0  0  0  0
   27.6272  -16.3227  -16.4217 S   0  0  0  0  0  0  0  0  0  0  0  0
   28.4444  -17.6970  -15.5668 C   0  0  0  0  0  0  0  0  0  0  0  0
   27.4223  -18.5753  -14.8770 C   0  0  0  0  0  0  0  0  0  0  0  0
   28.0540  -19.6042  -13.9864 C   0  0  2  0  0  0  0  0  0  0  0  0
   28.8575  -20.5239  -14.7532 N   0  0  0  0  0  0  0  0  0  0  0  0
   27.0017  -20.3788  -13.2602 C   0  0  0  0  0  0  0  0  0  0  0  0
   26.7578  -21.5426  -13.6519 O   0  0  0  0  0  0  0  0  0  0  0  0
   26.2876  -19.8449  -12.1646 N   0  0  0  0  0  0  0  0  0  0  0  0
   25.3516  -20.5868  -11.3732 C   0  0  1  0  0  0  0  0  0  0  0  0
   25.3435  -20.2227   -9.9352 C   0  0  0  0  0  0  0  0  0  0  0  0
   26.5855  -20.2852   -9.2094 C   0  0  0  0  0  0  0  0  0  0  0  0
   27.6262  -21.1214   -9.5482 C   0  0  0  0  0  0  0  0  0  0  0  0
   28.8036  -21.1857   -8.8645 C   0  0  0  0  0  0  0  0  0  0  0  0
   29.0046  -20.3920   -7.7739 C   0  0  0  0  0  0  0  0  0  0  0  0
   27.9927  -19.5356   -7.3918 C   0  0  0  0  0  0  0  0  0  0  0  0
   26.7983  -19.4877   -8.1062 C   0  0  0  0  0  0  0  0  0  0  0  0
   24.0744  -20.6714  -12.0625 C   0  0  0  0  0  0  0  0  0  0  0  0
   23.4231  -19.6037  -12.2175 O   0  0  0  0  0  0  0  0  0  0  0  0
   23.4861  -21.8510  -12.5838 N   0  0  0  0  0  0  0  0  0  0  0  0
   22.2074  -21.7619  -13.2986 C   0  0  1  0  0  0  0  0  0  0  0  0
   21.8609  -23.1319  -13.8482 C   0  0  0  0  0  0  0  0  0  0  0  0
   20.5713  -23.2121  -14.5686 C   0  0  0  0  0  0  0  0  0  0  0  0
   20.1932  -24.5771  -15.0525 C   0  0  0  0  0  0  0  0  0  0  0  0
   18.8846  -24.6187  -15.7858 C   0  0  0  0  0  0  0  0  0  0  0  0
   18.6563  -25.9877  -16.2176 N   0  0  0  0  0  0  0  0  0  0  0  0
   21.1605  -21.3247  -12.3706 C   0  0  0  0  0  0  0  0  0  0  0  0
   21.0243  -21.7927  -11.0689 O   0  0  0  0  0  0  0  0  0  0  0  0
   20.3162  -20.4662  -12.7630 O   0  0  0  0  0  0  0  0  0  0  0  0
  2  1  1  0
  3  2  1  0
  4  3  1  0
  5  4  1  0
  5  6  1  6
  7  5  1  0
  7  8  2  0
  9  7  1  0
 10  9  1  0
 10 11  1  1
 12 11  1  0
 12 13  2  0
 14 13  1  0
 15 14  2  0
 16 15  1  0
 16 17  2  0
 17 12  1  0
 18 20  1  0
 18 10  1  0
 19 18  2  0
 21 20  1  0
 21 27  1  0
 21 22  1  1
 23 22  1  0
 24 25  1  0
 24 23  1  0
 25 26  1  0
 27 29  2  0
 27 28  1  0
M  END
$$$$
