ISN.pdb
     RDKit          3D

 23 22  0  0  1  0  0  0  0  0999 V2000
    7.3598  -11.7976   19.7859 C   0  0  0  0  0  0  0  0  0  0  0  0
    7.6427  -13.0434   18.9360 C   0  0  0  0  0  0  0  0  0  0  0  0
    8.0581  -14.1156   19.9113 C   0  0  2  0  0  0  0  0  0  0  0  0
    9.1204  -13.6412   20.8292 C   0  0  0  0  0  0  0  0  0  0  0  0
    8.3231  -15.4401   19.2393 C   0  0  2  0  0  0  0  0  0  0  0  0
    7.1047  -15.7876   18.4792 N   0  0  0  0  0  0  0  0  0  0  0  0
    8.6247  -16.5526   20.1324 C   0  0  0  0  0  0  0  0  0  0  0  0
    7.7030  -17.0582   20.8263 O   0  0  0  0  0  0  0  0  0  0  0  0
   11.2240  -19.2215   19.4145 O   0  0  0  0  0  0  0  0  0  0  0  0
   10.3406  -19.4843   20.4582 C   0  0  0  0  0  0  0  0  0  0  0  0
   10.1322  -18.2119   21.2930 C   0  0  2  0  0  0  0  0  0  0  0  0
    9.9017  -17.1543   20.3104 N   0  0  0  0  0  0  0  0  0  0  0  0
   11.3492  -17.9261   22.0959 C   0  0  0  0  0  0  0  0  0  0  0  0
   12.4145  -17.6166   21.5050 O   0  0  0  0  0  0  0  0  0  0  0  0
   13.8315  -16.3241   22.4232 N   0  0  0  0  0  0  0  0  0  0  0  0
   13.5675  -15.8028   23.7423 C   0  0  0  0  0  0  0  0  0  0  0  0
   13.9293  -14.6187   23.9632 O   0  0  0  0  0  0  0  0  0  0  0  0
   12.9067  -16.6415   24.7556 C   0  0  0  0  0  0  0  0  0  0  0  0
   12.6299  -18.0245   24.2744 C   0  0  2  0  0  0  0  0  0  0  0  0
   11.3669  -17.9858   23.5111 N   0  0  0  0  0  0  0  0  0  0  0  0
   12.4783  -19.0520   25.3150 C   0  0  0  0  0  0  0  0  0  0  0  0
   13.5005  -19.3914   26.0166 O   0  0  0  0  0  0  0  0  0  0  0  0
   11.2960  -19.6919   25.6018 O   0  0  0  0  0  0  0  0  0  0  0  0
  2  1  1  0
  3  2  1  0
  3  4  1  6
  5  6  1  1
  5  3  1  0
  7  5  1  0
  8  7  2  0
  9 10  1  0
 11 10  1  6
 11 13  1  0
 11 12  1  0
 12  7  1  0
 13 20  1  0
 14 13  2  0
 16 15  1  0
 16 17  2  0
 18 16  1  0
 19 18  1  1
 19 21  1  0
 20 19  1  0
 21 22  2  0
 21 23  1  0
M  END
$$$$
