ISN.pdb
     RDKit          3D

 23 22  0  0  1  0  0  0  0  0999 V2000
    6.7920  -11.6929   27.4410 C   0  0  0  0  0  0  0  0  0  0  0  0
    5.9338  -12.7491   26.7324 C   0  0  0  0  0  0  0  0  0  0  0  0
    6.8816  -13.5146   25.8442 C   0  0  2  0  0  0  0  0  0  0  0  0
    7.6895  -12.6090   24.9938 C   0  0  0  0  0  0  0  0  0  0  0  0
    6.2073  -14.6550   25.1224 C   0  0  2  0  0  0  0  0  0  0  0  0
    5.6751  -15.5643   26.1581 N   0  0  0  0  0  0  0  0  0  0  0  0
    7.0632  -15.4374   24.2384 C   0  0  0  0  0  0  0  0  0  0  0  0
    7.6388  -16.4658   24.6829 O   0  0  0  0  0  0  0  0  0  0  0  0
    8.9076  -16.1543   19.7765 O   0  0  0  0  0  0  0  0  0  0  0  0
    8.1467  -15.3837   20.6517 C   0  0  0  0  0  0  0  0  0  0  0  0
    8.2486  -15.9603   22.0717 C   0  0  2  0  0  0  0  0  0  0  0  0
    7.3278  -15.1525   22.8696 N   0  0  0  0  0  0  0  0  0  0  0  0
    9.6392  -15.8238   22.5769 C   0  0  0  0  0  0  0  0  0  0  0  0
   10.0419  -14.6988   22.9668 O   0  0  0  0  0  0  0  0  0  0  0  0
   10.6941  -19.0375   25.5029 N   0  0  0  0  0  0  0  0  0  0  0  0
   11.6682  -18.0171   25.2008 C   0  0  0  0  0  0  0  0  0  0  0  0
   11.9305  -17.1988   26.1192 O   0  0  0  0  0  0  0  0  0  0  0  0
   12.3039  -17.9643   23.8742 C   0  0  0  0  0  0  0  0  0  0  0  0
   11.9355  -16.7443   23.1016 C   0  0  2  0  0  0  0  0  0  0  0  0
   10.5430  -16.9127   22.6413 N   0  0  0  0  0  0  0  0  0  0  0  0
   12.7550  -16.4597   21.9147 C   0  0  0  0  0  0  0  0  0  0  0  0
   14.0005  -16.1790   22.0636 O   0  0  0  0  0  0  0  0  0  0  0  0
   12.2777  -16.4727   20.6256 O   0  0  0  0  0  0  0  0  0  0  0  0
  2  1  1  0
  3  2  1  0
  3  4  1  6
  5  6  1  1
  5  3  1  0
  7  5  1  0
  8  7  2  0
  9 10  1  0
 11 10  1  6
 11 13  1  0
 11 12  1  0
 12  7  1  0
 13 20  1  0
 14 13  2  0
 16 15  1  0
 16 17  2  0
 18 16  1  0
 19 18  1  6
 19 21  1  0
 20 19  1  0
 21 22  2  0
 21 23  1  0
M  END
$$$$
