ISN.pdb
     RDKit          3D

 23 22  0  0  1  0  0  0  0  0999 V2000
    7.9733  -11.8212   20.1096 C   0  0  0  0  0  0  0  0  0  0  0  0
    7.1545  -13.0936   19.8551 C   0  0  0  0  0  0  0  0  0  0  0  0
    7.9991  -14.2310   20.3711 C   0  0  2  0  0  0  0  0  0  0  0  0
    9.4103  -14.1082   19.9359 C   0  0  0  0  0  0  0  0  0  0  0  0
    7.3619  -15.5787   20.1389 C   0  0  2  0  0  0  0  0  0  0  0  0
    6.0109  -15.5235   20.7346 N   0  0  0  0  0  0  0  0  0  0  0  0
    8.0612  -16.7172   20.7229 C   0  0  0  0  0  0  0  0  0  0  0  0
    8.0649  -16.8677   21.9735 O   0  0  0  0  0  0  0  0  0  0  0  0
   10.6523  -19.1411   18.6290 O   0  0  0  0  0  0  0  0  0  0  0  0
    9.8257  -19.7954   19.5387 C   0  0  0  0  0  0  0  0  0  0  0  0
    9.4376  -18.8328   20.6710 C   0  0  2  0  0  0  0  0  0  0  0  0
    8.7681  -17.7191   20.0011 N   0  0  0  0  0  0  0  0  0  0  0  0
   10.6567  -18.3631   21.3787 C   0  0  0  0  0  0  0  0  0  0  0  0
   11.3713  -17.4770   20.8461 O   0  0  0  0  0  0  0  0  0  0  0  0
    9.9670  -16.0094   24.5454 N   0  0  0  0  0  0  0  0  0  0  0  0
   11.3098  -16.3262   24.1237 C   0  0  0  0  0  0  0  0  0  0  0  0
   11.9085  -15.4525   23.4454 O   0  0  0  0  0  0  0  0  0  0  0  0
   11.9187  -17.6167   24.4854 C   0  0  0  0  0  0  0  0  0  0  0  0
   12.3021  -18.4313   23.2979 C   0  0  2  0  0  0  0  0  0  0  0  0
   11.0565  -18.8713   22.6390 N   0  0  0  0  0  0  0  0  0  0  0  0
   13.0989  -19.6363   23.5715 C   0  0  0  0  0  0  0  0  0  0  0  0
   14.3159  -19.5088   23.9652 O   0  0  0  0  0  0  0  0  0  0  0  0
   12.6281  -20.9206   23.4356 O   0  0  0  0  0  0  0  0  0  0  0  0
  2  1  1  0
  3  2  1  0
  3  4  1  6
  5  6  1  1
  5  3  1  0
  7  5  1  0
  8  7  2  0
  9 10  1  0
 11 10  1  6
 11 13  1  0
 11 12  1  0
 12  7  1  0
 13 20  1  0
 14 13  2  0
 16 15  1  0
 16 17  2  0
 18 16  1  0
 19 18  1  1
 19 21  1  0
 20 19  1  0
 21 22  2  0
 21 23  1  0
M  END
$$$$
