ISN.pdb
     RDKit          3D

 23 22  0  0  1  0  0  0  0  0999 V2000
    6.4171  -11.8141   27.4796 C   0  0  0  0  0  0  0  0  0  0  0  0
    5.8198  -13.0490   26.7922 C   0  0  0  0  0  0  0  0  0  0  0  0
    6.9258  -13.6136   25.9371 C   0  0  2  0  0  0  0  0  0  0  0  0
    7.5562  -12.5696   25.0952 C   0  0  0  0  0  0  0  0  0  0  0  0
    6.5149  -14.8720   25.2134 C   0  0  2  0  0  0  0  0  0  0  0  0
    6.0066  -15.8093   26.2362 N   0  0  0  0  0  0  0  0  0  0  0  0
    7.5731  -15.5495   24.4735 C   0  0  0  0  0  0  0  0  0  0  0  0
    8.4732  -16.1659   25.1030 O   0  0  0  0  0  0  0  0  0  0  0  0
    8.8102  -14.7025   20.5789 O   0  0  0  0  0  0  0  0  0  0  0  0
    8.5854  -16.0392   20.8977 C   0  0  0  0  0  0  0  0  0  0  0  0
    8.8233  -16.2607   22.3989 C   0  0  2  0  0  0  0  0  0  0  0  0
    7.7024  -15.5918   23.0571 N   0  0  0  0  0  0  0  0  0  0  0  0
   10.1133  -15.6453   22.8050 C   0  0  0  0  0  0  0  0  0  0  0  0
   10.1030  -14.6540   23.5776 O   0  0  0  0  0  0  0  0  0  0  0  0
   13.4064  -19.3903   24.9910 N   0  0  0  0  0  0  0  0  0  0  0  0
   12.8972  -18.0518   25.1652 C   0  0  0  0  0  0  0  0  0  0  0  0
   13.3593  -17.3944   26.1328 O   0  0  0  0  0  0  0  0  0  0  0  0
   11.8873  -17.5132   24.2394 C   0  0  0  0  0  0  0  0  0  0  0  0
   12.4423  -16.4965   23.3018 C   0  0  2  0  0  0  0  0  0  0  0  0
   11.3682  -16.1277   22.3587 N   0  0  0  0  0  0  0  0  0  0  0  0
   13.5989  -16.9211   22.4997 C   0  0  0  0  0  0  0  0  0  0  0  0
   14.7546  -16.4154   22.7468 O   0  0  0  0  0  0  0  0  0  0  0  0
   13.5360  -17.8420   21.4810 O   0  0  0  0  0  0  0  0  0  0  0  0
  2  1  1  0
  3  2  1  0
  3  4  1  6
  5  6  1  1
  5  3  1  0
  7  5  1  0
  8  7  2  0
  9 10  1  0
 11 10  1  6
 11 13  1  0
 11 12  1  0
 12  7  1  0
 13 20  1  0
 14 13  2  0
 16 15  1  0
 16 17  2  0
 18 16  1  0
 19 18  1  1
 19 21  1  0
 20 19  1  0
 21 22  2  0
 21 23  1  0
M  END
$$$$
