ISN.pdb
     RDKit          3D

 23 22  0  0  1  0  0  0  0  0999 V2000
    8.3012  -15.7121   15.4795 C   0  0  0  0  0  0  0  0  0  0  0  0
    7.5830  -14.7309   16.4153 C   0  0  0  0  0  0  0  0  0  0  0  0
    8.3219  -14.8051   17.7274 C   0  0  2  0  0  0  0  0  0  0  0  0
    8.6429  -16.2035   18.0984 C   0  0  0  0  0  0  0  0  0  0  0  0
    7.6696  -13.9790   18.8083 C   0  0  2  0  0  0  0  0  0  0  0  0
    7.6282  -12.5858   18.3182 N   0  0  0  0  0  0  0  0  0  0  0  0
    8.3479  -13.9783   20.0990 C   0  0  0  0  0  0  0  0  0  0  0  0
    9.5146  -13.5117   20.1862 O   0  0  0  0  0  0  0  0  0  0  0  0
    6.7847  -15.6776   23.5802 O   0  0  0  0  0  0  0  0  0  0  0  0
    7.5001  -14.4870   23.6773 C   0  0  0  0  0  0  0  0  0  0  0  0
    8.5661  -14.4317   22.5729 C   0  0  2  0  0  0  0  0  0  0  0  0
    7.8100  -14.4673   21.3222 N   0  0  0  0  0  0  0  0  0  0  0  0
    9.4658  -15.6096   22.6759 C   0  0  0  0  0  0  0  0  0  0  0  0
    9.5591  -16.3966   21.7003 O   0  0  0  0  0  0  0  0  0  0  0  0
   14.4285  -17.0751   24.3298 N   0  0  0  0  0  0  0  0  0  0  0  0
   13.8491  -16.4977   23.1415 C   0  0  0  0  0  0  0  0  0  0  0  0
   14.5177  -16.6008   22.0812 O   0  0  0  0  0  0  0  0  0  0  0  0
   12.5397  -15.8279   23.2017 C   0  0  0  0  0  0  0  0  0  0  0  0
   11.4699  -16.6939   23.7730 C   0  0  2  0  0  0  0  0  0  0  0  0
   10.2323  -15.8913   23.8333 N   0  0  0  0  0  0  0  0  0  0  0  0
   11.7157  -17.2169   25.1249 C   0  0  0  0  0  0  0  0  0  0  0  0
   12.6248  -18.1092   25.2977 O   0  0  0  0  0  0  0  0  0  0  0  0
   11.0304  -16.8126   26.2457 O   0  0  0  0  0  0  0  0  0  0  0  0
  2  1  1  0
  3  2  1  0
  3  4  1  1
  5  6  1  6
  5  3  1  0
  7  5  1  0
  8  7  2  0
  9 10  1  0
 11 10  1  1
 11 13  1  0
 11 12  1  0
 12  7  1  0
 13 20  1  0
 14 13  2  0
 16 15  1  0
 16 17  2  0
 18 16  1  0
 19 18  1  1
 19 21  1  0
 20 19  1  0
 21 22  2  0
 21 23  1  0
M  END
$$$$
