ISN.pdb
     RDKit          3D

 23 22  0  0  1  0  0  0  0  0999 V2000
   -3.3780  -20.9455   17.5891 C   0  0  0  0  0  0  0  0  0  0  0  0
   -2.1683  -21.6766   18.1860 C   0  0  0  0  0  0  0  0  0  0  0  0
   -1.4432  -20.6506   19.0194 C   0  0  2  0  0  0  0  0  0  0  0  0
   -1.2841  -19.3677   18.2948 C   0  0  0  0  0  0  0  0  0  0  0  0
   -0.1888  -21.1992   19.6533 C   0  0  2  0  0  0  0  0  0  0  0  0
   -0.4077  -22.6462   19.8566 N   0  0  0  0  0  0  0  0  0  0  0  0
    0.1753  -20.6177   20.9399 C   0  0  0  0  0  0  0  0  0  0  0  0
    0.5919  -19.4300   20.9880 O   0  0  0  0  0  0  0  0  0  0  0  0
   -1.4647  -20.2892   24.6564 O   0  0  0  0  0  0  0  0  0  0  0  0
   -0.3870  -21.1604   24.5208 C   0  0  0  0  0  0  0  0  0  0  0  0
    0.5656  -20.6404   23.4339 C   0  0  2  0  0  0  0  0  0  0  0  0
    0.1062  -21.2753   22.1998 N   0  0  0  0  0  0  0  0  0  0  0  0
    1.9608  -21.0460   23.7448 C   0  0  0  0  0  0  0  0  0  0  0  0
    2.4625  -20.7186   24.8497 O   0  0  0  0  0  0  0  0  0  0  0  0
    6.7725  -22.7782   23.8576 N   0  0  0  0  0  0  0  0  0  0  0  0
    6.3930  -21.4073   23.6167 C   0  0  0  0  0  0  0  0  0  0  0  0
    7.3055  -20.5462   23.7037 O   0  0  0  0  0  0  0  0  0  0  0  0
    4.9988  -21.0677   23.2885 C   0  0  0  0  0  0  0  0  0  0  0  0
    4.1124  -22.2631   23.2109 C   0  0  2  0  0  0  0  0  0  0  0  0
    2.7615  -21.7928   22.8460 N   0  0  0  0  0  0  0  0  0  0  0  0
    3.9804  -23.0503   24.4456 C   0  0  0  0  0  0  0  0  0  0  0  0
    4.9147  -23.8712   24.7704 O   0  0  0  0  0  0  0  0  0  0  0  0
    2.9068  -22.9714   25.3006 O   0  0  0  0  0  0  0  0  0  0  0  0
  2  1  1  0
  3  2  1  0
  3  4  1  6
  5  6  1  1
  5  3  1  0
  7  5  1  0
  8  7  2  0
  9 10  1  0
 11 10  1  1
 11 13  1  0
 11 12  1  0
 12  7  1  0
 13 20  1  0
 14 13  2  0
 16 15  1  0
 16 17  2  0
 18 16  1  0
 19 18  1  1
 19 21  1  0
 20 19  1  0
 21 22  2  0
 21 23  1  0
M  END
$$$$
