ISN.pdb
     RDKit          3D

 23 22  0  0  1  0  0  0  0  0999 V2000
    7.7828  -12.1861   18.8041 C   0  0  0  0  0  0  0  0  0  0  0  0
    6.9476  -13.3955   19.2443 C   0  0  0  0  0  0  0  0  0  0  0  0
    7.5409  -13.8442   20.5558 C   0  0  2  0  0  0  0  0  0  0  0  0
    9.0171  -13.9516   20.4824 C   0  0  0  0  0  0  0  0  0  0  0  0
    6.8298  -15.0422   21.1348 C   0  0  2  0  0  0  0  0  0  0  0  0
    5.3914  -14.7077   21.1798 N   0  0  0  0  0  0  0  0  0  0  0  0
    7.2398  -15.4317   22.4789 C   0  0  0  0  0  0  0  0  0  0  0  0
    7.1602  -14.5962   23.4181 O   0  0  0  0  0  0  0  0  0  0  0  0
    7.6403  -18.4671   26.0178 O   0  0  0  0  0  0  0  0  0  0  0  0
    7.3082  -18.1391   24.7059 C   0  0  0  0  0  0  0  0  0  0  0  0
    8.2014  -16.9888   24.2178 C   0  0  2  0  0  0  0  0  0  0  0  0
    7.7398  -16.7083   22.8593 N   0  0  0  0  0  0  0  0  0  0  0  0
    9.6239  -17.4180   24.2105 C   0  0  0  0  0  0  0  0  0  0  0  0
   10.0103  -18.2441   23.3458 O   0  0  0  0  0  0  0  0  0  0  0  0
   13.3476  -17.1769   22.8174 N   0  0  0  0  0  0  0  0  0  0  0  0
   13.6079  -16.2281   23.8725 C   0  0  0  0  0  0  0  0  0  0  0  0
   14.4647  -15.3392   23.6324 O   0  0  0  0  0  0  0  0  0  0  0  0
   12.8899  -16.3243   25.1539 C   0  0  0  0  0  0  0  0  0  0  0  0
   11.9476  -17.4776   25.2067 C   0  0  2  0  0  0  0  0  0  0  0  0
   10.5762  -16.9352   25.1415 N   0  0  0  0  0  0  0  0  0  0  0  0
   12.0256  -18.3207   26.4087 C   0  0  0  0  0  0  0  0  0  0  0  0
   11.1445  -18.1789   27.3339 O   0  0  0  0  0  0  0  0  0  0  0  0
   12.9932  -19.2735   26.6221 O   0  0  0  0  0  0  0  0  0  0  0  0
  2  1  1  0
  3  2  1  0
  3  4  1  6
  5  6  1  1
  5  3  1  0
  7  5  1  0
  8  7  2  0
  9 10  1  0
 11 10  1  6
 11 13  1  0
 11 12  1  0
 12  7  1  0
 13 20  1  0
 14 13  2  0
 16 15  1  0
 16 17  2  0
 18 16  1  0
 19 18  1  1
 19 21  1  0
 20 19  1  0
 21 22  2  0
 21 23  1  0
M  END
$$$$
