ISN.pdb
     RDKit          3D

 23 22  0  0  1  0  0  0  0  0999 V2000
    5.9693  -11.6947   27.0789 C   0  0  0  0  0  0  0  0  0  0  0  0
    5.5599  -12.9103   26.2370 C   0  0  0  0  0  0  0  0  0  0  0  0
    6.8495  -13.5815   25.8373 C   0  0  2  0  0  0  0  0  0  0  0  0
    7.8191  -12.6146   25.2707 C   0  0  0  0  0  0  0  0  0  0  0  0
    6.6249  -14.8308   25.0218 C   0  0  2  0  0  0  0  0  0  0  0  0
    5.8396  -15.7575   25.8629 N   0  0  0  0  0  0  0  0  0  0  0  0
    7.8303  -15.5302   24.5925 C   0  0  0  0  0  0  0  0  0  0  0  0
    8.4340  -16.2810   25.4039 O   0  0  0  0  0  0  0  0  0  0  0  0
   10.9698  -16.6127   21.0127 O   0  0  0  0  0  0  0  0  0  0  0  0
    9.8681  -15.8933   21.4684 C   0  0  0  0  0  0  0  0  0  0  0  0
    9.6424  -16.1816   22.9601 C   0  0  2  0  0  0  0  0  0  0  0  0
    8.4215  -15.4532   23.3005 N   0  0  0  0  0  0  0  0  0  0  0  0
   10.7926  -15.6780   23.7545 C   0  0  0  0  0  0  0  0  0  0  0  0
   10.8960  -14.4438   23.9686 O   0  0  0  0  0  0  0  0  0  0  0  0
   11.8773  -14.6061   27.2656 N   0  0  0  0  0  0  0  0  0  0  0  0
   12.1205  -16.0281   27.2715 C   0  0  0  0  0  0  0  0  0  0  0  0
   11.4924  -16.7038   28.1263 O   0  0  0  0  0  0  0  0  0  0  0  0
   13.0633  -16.6260   26.3120 C   0  0  0  0  0  0  0  0  0  0  0  0
   12.9916  -16.0012   24.9609 C   0  0  2  0  0  0  0  0  0  0  0  0
   11.7892  -16.5314   24.2885 N   0  0  0  0  0  0  0  0  0  0  0  0
   14.1347  -16.2534   24.0714 C   0  0  0  0  0  0  0  0  0  0  0  0
   14.5261  -17.4625   23.8787 O   0  0  0  0  0  0  0  0  0  0  0  0
   14.8328  -15.2690   23.4132 O   0  0  0  0  0  0  0  0  0  0  0  0
  2  1  1  0
  3  2  1  0
  3  4  1  6
  5  6  1  1
  5  3  1  0
  7  5  1  0
  8  7  2  0
  9 10  1  0
 11 10  1  6
 11 13  1  0
 11 12  1  0
 12  7  1  0
 13 20  1  0
 14 13  2  0
 16 15  1  0
 16 17  2  0
 18 16  1  0
 19 18  1  1
 19 21  1  0
 20 19  1  0
 21 22  2  0
 21 23  1  0
M  END
$$$$
