ISN.pdb
     RDKit          3D

 23 22  0  0  1  0  0  0  0  0999 V2000
    7.5302  -11.7111   19.6618 C   0  0  0  0  0  0  0  0  0  0  0  0
    7.5620  -13.0095   18.8449 C   0  0  0  0  0  0  0  0  0  0  0  0
    8.5217  -13.9211   19.5668 C   0  0  2  0  0  0  0  0  0  0  0  0
    9.8042  -13.2418   19.8663 C   0  0  0  0  0  0  0  0  0  0  0  0
    8.6404  -15.2749   18.9115 C   0  0  2  0  0  0  0  0  0  0  0  0
    7.2726  -15.8239   18.8086 N   0  0  0  0  0  0  0  0  0  0  0  0
    9.4608  -16.2501   19.6202 C   0  0  0  0  0  0  0  0  0  0  0  0
    9.0291  -16.7670   20.6846 O   0  0  0  0  0  0  0  0  0  0  0  0
   13.3223  -17.2001   18.4974 O   0  0  0  0  0  0  0  0  0  0  0  0
   12.5638  -18.2256   19.0558 C   0  0  0  0  0  0  0  0  0  0  0  0
   11.5313  -17.6356   20.0280 C   0  0  2  0  0  0  0  0  0  0  0  0
   10.7501  -16.7003   19.2205 N   0  0  0  0  0  0  0  0  0  0  0  0
   12.2232  -16.9236   21.1334 C   0  0  0  0  0  0  0  0  0  0  0  0
   12.5325  -15.7145   20.9847 O   0  0  0  0  0  0  0  0  0  0  0  0
   14.5416  -15.8705   25.7166 N   0  0  0  0  0  0  0  0  0  0  0  0
   13.7010  -17.0327   25.8714 C   0  0  0  0  0  0  0  0  0  0  0  0
   13.6290  -17.5265   27.0260 O   0  0  0  0  0  0  0  0  0  0  0  0
   12.9782  -17.5879   24.7155 C   0  0  0  0  0  0  0  0  0  0  0  0
   13.1976  -16.8088   23.4642 C   0  0  2  0  0  0  0  0  0  0  0  0
   12.5545  -17.5488   22.3606 N   0  0  0  0  0  0  0  0  0  0  0  0
   14.5990  -16.5853   23.0801 C   0  0  0  0  0  0  0  0  0  0  0  0
   15.2288  -15.5734   23.5614 O   0  0  0  0  0  0  0  0  0  0  0  0
   15.3042  -17.3980   22.2246 O   0  0  0  0  0  0  0  0  0  0  0  0
  2  1  1  0
  3  2  1  0
  3  4  1  6
  5  6  1  1
  5  3  1  0
  7  5  1  0
  8  7  2  0
  9 10  1  0
 11 10  1  6
 11 13  1  0
 11 12  1  0
 12  7  1  0
 13 20  1  0
 14 13  2  0
 16 15  1  0
 16 17  2  0
 18 16  1  0
 19 18  1  1
 19 21  1  0
 20 19  1  0
 21 22  2  0
 21 23  1  0
M  END
$$$$
