ISN.pdb
     RDKit          3D

 23 22  0  0  1  0  0  0  0  0999 V2000
    7.2694  -12.0869   20.0322 C   0  0  0  0  0  0  0  0  0  0  0  0
    8.7107  -12.5836   19.8577 C   0  0  0  0  0  0  0  0  0  0  0  0
    8.5969  -13.9524   19.2360 C   0  0  2  0  0  0  0  0  0  0  0  0
    7.6808  -13.9519   18.0712 C   0  0  0  0  0  0  0  0  0  0  0  0
    8.3495  -15.0349   20.2573 C   0  0  2  0  0  0  0  0  0  0  0  0
    6.9715  -14.8479   20.7564 N   0  0  0  0  0  0  0  0  0  0  0  0
    9.2451  -15.0344   21.4081 C   0  0  0  0  0  0  0  0  0  0  0  0
    8.9421  -14.3621   22.4293 O   0  0  0  0  0  0  0  0  0  0  0  0
   11.3618  -16.6707   24.8865 O   0  0  0  0  0  0  0  0  0  0  0  0
   10.6144  -16.6088   23.7133 C   0  0  0  0  0  0  0  0  0  0  0  0
   11.3119  -15.6856   22.7031 C   0  0  2  0  0  0  0  0  0  0  0  0
   10.4752  -15.7427   21.5057 N   0  0  0  0  0  0  0  0  0  0  0  0
   12.6787  -16.1908   22.4128 C   0  0  0  0  0  0  0  0  0  0  0  0
   12.8122  -17.2823   21.8043 O   0  0  0  0  0  0  0  0  0  0  0  0
   15.0855  -15.8080   19.5124 N   0  0  0  0  0  0  0  0  0  0  0  0
   15.3580  -14.7163   20.4153 C   0  0  0  0  0  0  0  0  0  0  0  0
   15.0753  -13.5615   20.0049 O   0  0  0  0  0  0  0  0  0  0  0  0
   15.9388  -14.9755   21.7428 C   0  0  0  0  0  0  0  0  0  0  0  0
   15.2002  -16.0210   22.5060 C   0  0  2  0  0  0  0  0  0  0  0  0
   13.8517  -15.4934   22.7928 N   0  0  0  0  0  0  0  0  0  0  0  0
   15.7927  -16.4226   23.7902 C   0  0  0  0  0  0  0  0  0  0  0  0
   16.9581  -16.9650   23.8022 O   0  0  0  0  0  0  0  0  0  0  0  0
   15.1795  -16.2563   25.0091 O   0  0  0  0  0  0  0  0  0  0  0  0
  2  1  1  0
  3  2  1  0
  3  4  1  6
  5  6  1  1
  5  3  1  0
  7  5  1  0
  8  7  2  0
  9 10  1  0
 11 10  1  1
 11 13  1  0
 11 12  1  0
 12  7  1  0
 13 20  1  0
 14 13  2  0
 16 15  1  0
 16 17  2  0
 18 16  1  0
 19 18  1  1
 19 21  1  0
 20 19  1  0
 21 22  2  0
 21 23  1  0
M  END
$$$$
