ISN.pdb
     RDKit          3D

 23 22  0  0  1  0  0  0  0  0999 V2000
    6.4814  -11.3518   26.9207 C   0  0  0  0  0  0  0  0  0  0  0  0
    5.8700  -12.6317   26.3356 C   0  0  0  0  0  0  0  0  0  0  0  0
    7.0170  -13.3783   25.7030 C   0  0  2  0  0  0  0  0  0  0  0  0
    7.8375  -12.4956   24.8405 C   0  0  0  0  0  0  0  0  0  0  0  0
    6.5861  -14.6815   25.0767 C   0  0  2  0  0  0  0  0  0  0  0  0
    5.9551  -15.4836   26.1451 N   0  0  0  0  0  0  0  0  0  0  0  0
    7.6527  -15.4826   24.4879 C   0  0  0  0  0  0  0  0  0  0  0  0
    8.4030  -16.1629   25.2367 O   0  0  0  0  0  0  0  0  0  0  0  0
    8.9000  -14.8316   20.8270 O   0  0  0  0  0  0  0  0  0  0  0  0
    9.0354  -16.1945   21.0778 C   0  0  0  0  0  0  0  0  0  0  0  0
    9.0134  -16.4470   22.5927 C   0  0  2  0  0  0  0  0  0  0  0  0
    7.9483  -15.5834   23.0997 N   0  0  0  0  0  0  0  0  0  0  0  0
   10.3215  -16.0720   23.1893 C   0  0  0  0  0  0  0  0  0  0  0  0
   10.6713  -14.8648   23.1897 O   0  0  0  0  0  0  0  0  0  0  0  0
   10.9190  -15.9957   26.6000 N   0  0  0  0  0  0  0  0  0  0  0  0
   11.8197  -17.1175   26.7072 C   0  0  0  0  0  0  0  0  0  0  0  0
   11.8106  -17.7454   27.7970 O   0  0  0  0  0  0  0  0  0  0  0  0
   12.6927  -17.4818   25.5793 C   0  0  0  0  0  0  0  0  0  0  0  0
   12.4834  -16.6208   24.3811 C   0  0  2  0  0  0  0  0  0  0  0  0
   11.2030  -17.0201   23.7643 N   0  0  0  0  0  0  0  0  0  0  0  0
   13.5148  -16.7058   23.3369 C   0  0  0  0  0  0  0  0  0  0  0  0
   14.6956  -16.2608   23.5823 O   0  0  0  0  0  0  0  0  0  0  0  0
   13.3065  -17.2396   22.0874 O   0  0  0  0  0  0  0  0  0  0  0  0
  2  1  1  0
  3  2  1  0
  3  4  1  6
  5  6  1  1
  5  3  1  0
  7  5  1  0
  8  7  2  0
  9 10  1  0
 11 10  1  6
 11 13  1  0
 11 12  1  0
 12  7  1  0
 13 20  1  0
 14 13  2  0
 16 15  1  0
 16 17  2  0
 18 16  1  0
 19 18  1  1
 19 21  1  0
 20 19  1  0
 21 22  2  0
 21 23  1  0
M  END
$$$$
