ISN.pdb
     RDKit          3D

 23 22  0  0  1  0  0  0  0  0999 V2000
    6.6777  -12.0299   27.4272 C   0  0  0  0  0  0  0  0  0  0  0  0
    5.9291  -12.9594   26.4630 C   0  0  0  0  0  0  0  0  0  0  0  0
    6.9963  -13.7474   25.7464 C   0  0  2  0  0  0  0  0  0  0  0  0
    8.0463  -12.8651   25.1849 C   0  0  0  0  0  0  0  0  0  0  0  0
    6.4234  -14.7654   24.7916 C   0  0  2  0  0  0  0  0  0  0  0  0
    5.5095  -15.6223   25.5748 N   0  0  0  0  0  0  0  0  0  0  0  0
    7.3947  -15.6320   24.1345 C   0  0  0  0  0  0  0  0  0  0  0  0
    7.7588  -16.6967   24.7006 O   0  0  0  0  0  0  0  0  0  0  0  0
    9.5849  -14.4672   20.8720 O   0  0  0  0  0  0  0  0  0  0  0  0
    9.2050  -15.8068   20.8636 C   0  0  0  0  0  0  0  0  0  0  0  0
    9.0025  -16.2966   22.3053 C   0  0  2  0  0  0  0  0  0  0  0  0
    7.9994  -15.3946   22.8686 N   0  0  0  0  0  0  0  0  0  0  0  0
   10.2791  -16.1983   23.0592 C   0  0  0  0  0  0  0  0  0  0  0  0
   10.5365  -15.1442   23.6935 O   0  0  0  0  0  0  0  0  0  0  0  0
   12.5049  -17.5942   26.6592 N   0  0  0  0  0  0  0  0  0  0  0  0
   12.7789  -18.7153   25.7936 C   0  0  0  0  0  0  0  0  0  0  0  0
   12.9708  -19.8255   26.3528 O   0  0  0  0  0  0  0  0  0  0  0  0
   12.8252  -18.5346   24.3335 C   0  0  0  0  0  0  0  0  0  0  0  0
   12.4617  -17.1536   23.9072 C   0  0  2  0  0  0  0  0  0  0  0  0
   11.2304  -17.2471   23.0983 N   0  0  0  0  0  0  0  0  0  0  0  0
   13.4620  -16.4435   23.0969 C   0  0  0  0  0  0  0  0  0  0  0  0
   14.5174  -15.9800   23.6658 O   0  0  0  0  0  0  0  0  0  0  0  0
   13.3512  -16.2340   21.7429 O   0  0  0  0  0  0  0  0  0  0  0  0
  2  1  1  0
  3  2  1  0
  3  4  1  6
  5  6  1  1
  5  3  1  0
  7  5  1  0
  8  7  2  0
  9 10  1  0
 11 10  1  6
 11 13  1  0
 11 12  1  0
 12  7  1  0
 13 20  1  0
 14 13  2  0
 16 15  1  0
 16 17  2  0
 18 16  1  0
 19 18  1  6
 19 21  1  0
 20 19  1  0
 21 22  2  0
 21 23  1  0
M  END
$$$$
