HQY.pdb
     RDKit          3D

 32 33  0  0  1  0  0  0  0  0999 V2000
   20.1470  -24.4292  -14.0678 N   0  0  0  0  0  0  0  0  0  0  0  0
   19.9037  -25.2640  -12.9171 C   0  0  1  0  0  0  0  0  0  0  0  0
   21.0400  -26.2458  -12.7264 C   0  0  0  0  0  0  0  0  0  0  0  0
   21.0682  -27.1923  -13.8863 C   0  0  0  0  0  0  0  0  0  0  0  0
   22.0196  -27.2469  -14.8898 C   0  0  0  0  0  0  0  0  0  0  0  0
   21.7015  -28.2294  -15.7506 N   0  0  0  0  0  0  0  0  0  0  0  0
   20.5669  -28.7839  -15.2945 C   0  0  0  0  0  0  0  0  0  0  0  0
   20.1771  -28.1632  -14.1681 N   0  0  0  0  0  0  0  0  0  0  0  0
   19.6831  -24.4267  -11.7282 C   0  0  0  0  0  0  0  0  0  0  0  0
   20.4673  -23.4585  -11.4652 O   0  0  0  0  0  0  0  0  0  0  0  0
   15.2433  -20.9653  -10.4168 N   0  0  0  0  0  0  0  0  0  0  0  0
   15.0292  -22.3193  -10.7644 C   0  0  0  0  0  0  0  0  0  0  0  0
   13.9139  -22.6745  -11.2002 O   0  0  0  0  0  0  0  0  0  0  0  0
   16.1053  -23.3116  -10.6171 C   0  0  0  0  0  0  0  0  0  0  0  0
   17.3507  -22.7803   -9.9868 C   0  0  0  0  0  0  0  0  0  0  0  0
   18.3824  -23.8131   -9.6345 C   0  0  2  0  0  0  0  0  0  0  0  0
   18.6004  -24.6649  -10.8408 N   0  0  0  0  0  0  0  0  0  0  0  0
   17.9919  -24.7469   -8.5665 C   0  0  0  0  0  0  0  0  0  0  0  0
   17.3987  -25.8344   -8.8978 O   0  0  0  0  0  0  0  0  0  0  0  0
   15.9532  -28.6822   -0.9079 O   0  0  0  0  0  0  0  0  0  0  0  0
   16.5445  -27.8729   -1.8906 C   0  0  0  0  0  0  0  0  0  0  0  0
   17.5118  -28.3699   -2.7415 C   0  0  0  0  0  0  0  0  0  0  0  0
   18.1133  -27.6053   -3.7169 C   0  0  0  0  0  0  0  0  0  0  0  0
   17.7493  -26.2642   -3.8766 C   0  0  0  0  0  0  0  0  0  0  0  0
   18.3874  -25.4056   -4.8925 C   0  0  0  0  0  0  0  0  0  0  0  0
   17.6652  -25.5242   -6.1932 C   0  0  2  0  0  0  0  0  0  0  0  0
   18.2091  -24.5711   -7.1769 N   0  0  0  0  0  0  0  0  0  0  0  0
   16.2341  -25.2580   -6.0277 C   0  0  0  0  0  0  0  0  0  0  0  0
   15.3704  -26.1169   -5.7996 O   0  0  0  0  0  0  0  0  0  0  0  0
   16.7682  -25.7772   -3.0061 C   0  0  0  0  0  0  0  0  0  0  0  0
   16.1809  -26.5537   -2.0414 C   0  0  0  0  0  0  0  0  0  0  0  0
   15.7772  -23.9403   -6.1298 O   0  0  0  0  0  0  0  0  0  0  0  0
  2  3  1  0
  2  1  1  6
  3  4  1  0
  4  5  2  0
  6  5  1  0
  7  6  1  0
  8  7  2  0
  8  4  1  0
  9  2  1  0
  9 10  2  0
 11 12  1  0
 12 14  1  0
 13 12  2  0
 14 15  1  0
 16 15  1  6
 16 17  1  0
 17  9  1  0
 18 16  1  0
 18 27  1  0
 19 18  2  0
 20 21  1  0
 21 22  2  0
 21 31  1  0
 22 23  1  0
 23 24  2  0
 24 25  1  0
 26 25  1  1
 26 27  1  0
 26 28  1  0
 28 29  2  0
 28 32  1  0
 30 24  1  0
 31 30  2  0
M  END
$$$$
