HQY.pdb
     RDKit          3D

 32 33  0  0  1  0  0  0  0  0999 V2000
   25.2612  -35.4079   -5.7101 N   0  0  0  0  0  0  0  0  0  0  0  0
   26.2684  -34.6516   -5.0076 C   0  0  1  0  0  0  0  0  0  0  0  0
   25.9129  -33.1802   -4.9964 C   0  0  0  0  0  0  0  0  0  0  0  0
   25.9856  -32.6490   -6.3946 C   0  0  0  0  0  0  0  0  0  0  0  0
   24.9373  -32.1522   -7.1490 C   0  0  0  0  0  0  0  0  0  0  0  0
   25.3979  -31.7713   -8.3531 N   0  0  0  0  0  0  0  0  0  0  0  0
   26.7163  -32.0251   -8.3552 C   0  0  0  0  0  0  0  0  0  0  0  0
   27.0801  -32.5557   -7.1753 N   0  0  0  0  0  0  0  0  0  0  0  0
   26.4475  -35.1935   -3.6521 C   0  0  0  0  0  0  0  0  0  0  0  0
   25.4406  -35.5627   -2.9656 O   0  0  0  0  0  0  0  0  0  0  0  0
   32.0299  -37.1644   -1.4714 N   0  0  0  0  0  0  0  0  0  0  0  0
   31.1187  -37.9641   -2.1996 C   0  0  0  0  0  0  0  0  0  0  0  0
   31.5203  -39.0126   -2.7468 O   0  0  0  0  0  0  0  0  0  0  0  0
   29.7055  -37.5733   -2.3189 C   0  0  0  0  0  0  0  0  0  0  0  0
   29.3451  -36.3312   -1.5721 C   0  0  0  0  0  0  0  0  0  0  0  0
   27.9128  -35.8981   -1.7007 C   0  0  2  0  0  0  0  0  0  0  0  0
   27.7347  -35.3232   -3.0666 N   0  0  0  0  0  0  0  0  0  0  0  0
   27.4971  -34.8326   -0.7749 C   0  0  0  0  0  0  0  0  0  0  0  0
   27.1796  -33.6914   -1.2659 O   0  0  0  0  0  0  0  0  0  0  0  0
   23.4676  -29.4422    4.5797 O   0  0  0  0  0  0  0  0  0  0  0  0
   23.9966  -30.4009    3.7015 C   0  0  0  0  0  0  0  0  0  0  0  0
   25.0011  -30.0794    2.8101 C   0  0  0  0  0  0  0  0  0  0  0  0
   25.5438  -30.9938    1.9344 C   0  0  0  0  0  0  0  0  0  0  0  0
   25.0779  -32.3127    1.9240 C   0  0  0  0  0  0  0  0  0  0  0  0
   25.6155  -33.3152    0.9846 C   0  0  0  0  0  0  0  0  0  0  0  0
   26.9467  -33.7989    1.4549 C   0  0  2  0  0  0  0  0  0  0  0  0
   27.4045  -34.9353    0.6358 N   0  0  0  0  0  0  0  0  0  0  0  0
   26.8876  -34.2269    2.8549 C   0  0  0  0  0  0  0  0  0  0  0  0
   26.7684  -33.4691    3.8281 O   0  0  0  0  0  0  0  0  0  0  0  0
   24.0600  -32.6209    2.8331 C   0  0  0  0  0  0  0  0  0  0  0  0
   23.5325  -31.6970    3.6972 C   0  0  0  0  0  0  0  0  0  0  0  0
   26.9696  -35.5920    3.1465 O   0  0  0  0  0  0  0  0  0  0  0  0
  2  3  1  0
  2  1  1  1
  3  4  1  0
  4  5  2  0
  6  5  1  0
  7  6  1  0
  8  7  2  0
  8  4  1  0
  9  2  1  0
  9 10  2  0
 11 12  1  0
 12 14  1  0
 13 12  2  0
 14 15  1  0
 16 15  1  1
 16 17  1  0
 17  9  1  0
 18 16  1  0
 18 27  1  0
 19 18  2  0
 20 21  1  0
 21 22  2  0
 21 31  1  0
 22 23  1  0
 23 24  2  0
 24 25  1  0
 26 25  1  6
 26 27  1  0
 26 28  1  0
 28 29  2  0
 28 32  1  0
 30 24  1  0
 31 30  2  0
M  END
$$$$
