HQY.pdb
     RDKit          3D

 32 33  0  0  1  0  0  0  0  0999 V2000
   45.1452  -10.9657  -10.1773 N   0  0  0  0  0  0  0  0  0  0  0  0
   44.9760   -9.6762   -9.5540 C   0  0  1  0  0  0  0  0  0  0  0  0
   44.9719   -8.5805  -10.5984 C   0  0  0  0  0  0  0  0  0  0  0  0
   46.3676   -8.3804  -11.1025 C   0  0  0  0  0  0  0  0  0  0  0  0
   47.3910   -7.7017  -10.4646 C   0  0  0  0  0  0  0  0  0  0  0  0
   48.4945   -7.7386  -11.2317 N   0  0  0  0  0  0  0  0  0  0  0  0
   48.1690   -8.4304  -12.3354 C   0  0  0  0  0  0  0  0  0  0  0  0
   46.8854   -8.8221  -12.2657 N   0  0  0  0  0  0  0  0  0  0  0  0
   43.7544   -9.6720   -8.7348 C   0  0  0  0  0  0  0  0  0  0  0  0
   42.7126  -10.2915   -9.1252 O   0  0  0  0  0  0  0  0  0  0  0  0
   43.2009   -9.9328   -2.3213 N   0  0  0  0  0  0  0  0  0  0  0  0
   44.0835  -10.3070   -3.3610 C   0  0  0  0  0  0  0  0  0  0  0  0
   45.2583  -10.6294   -3.0856 O   0  0  0  0  0  0  0  0  0  0  0  0
   43.6321  -10.3194   -4.7612 C   0  0  0  0  0  0  0  0  0  0  0  0
   42.9433   -9.0680   -5.1971 C   0  0  0  0  0  0  0  0  0  0  0  0
   42.4806   -9.0547   -6.6258 C   0  0  2  0  0  0  0  0  0  0  0  0
   43.6932   -8.9851   -7.4936 N   0  0  0  0  0  0  0  0  0  0  0  0
   41.6643   -7.8914   -7.0070 C   0  0  0  0  0  0  0  0  0  0  0  0
   42.2657   -6.8362   -7.4182 O   0  0  0  0  0  0  0  0  0  0  0  0
   35.4602   -1.9908   -9.0071 O   0  0  0  0  0  0  0  0  0  0  0  0
   36.1088   -3.1919   -8.6801 C   0  0  0  0  0  0  0  0  0  0  0  0
   36.1579   -3.6484   -7.3778 C   0  0  0  0  0  0  0  0  0  0  0  0
   36.7850   -4.8217   -7.0205 C   0  0  0  0  0  0  0  0  0  0  0  0
   37.4078   -5.6063   -7.9968 C   0  0  0  0  0  0  0  0  0  0  0  0
   38.1112   -6.8562   -7.6515 C   0  0  0  0  0  0  0  0  0  0  0  0
   39.5461   -6.5735   -7.3539 C   0  0  2  0  0  0  0  0  0  0  0  0
   40.2496   -7.8106   -6.9708 N   0  0  0  0  0  0  0  0  0  0  0  0
   39.6773   -5.6052   -6.2623 C   0  0  0  0  0  0  0  0  0  0  0  0
   39.5357   -5.8635   -5.0586 O   0  0  0  0  0  0  0  0  0  0  0  0
   37.3487   -5.1288   -9.3106 C   0  0  0  0  0  0  0  0  0  0  0  0
   36.7196   -3.9584   -9.6469 C   0  0  0  0  0  0  0  0  0  0  0  0
   39.9861   -4.2771   -6.5727 O   0  0  0  0  0  0  0  0  0  0  0  0
  2  3  1  0
  2  1  1  6
  3  4  1  0
  4  5  2  0
  6  5  1  0
  7  6  1  0
  8  7  2  0
  8  4  1  0
  9  2  1  0
  9 10  2  0
 11 12  1  0
 12 14  1  0
 13 12  2  0
 14 15  1  0
 16 15  1  1
 16 17  1  0
 17  9  1  0
 18 16  1  0
 18 27  1  0
 19 18  2  0
 20 21  1  0
 21 22  2  0
 21 31  1  0
 22 23  1  0
 23 24  2  0
 24 25  1  0
 26 25  1  1
 26 27  1  0
 26 28  1  0
 28 29  2  0
 28 32  1  0
 30 24  1  0
 31 30  2  0
M  END
$$$$
