HQY.pdb
     RDKit          3D

 32 33  0  0  1  0  0  0  0  0999 V2000
   27.4820  -32.9759  -14.8796 N   0  0  0  0  0  0  0  0  0  0  0  0
   26.2832  -33.7224  -14.5872 C   0  0  1  0  0  0  0  0  0  0  0  0
   26.6077  -34.9322  -13.7371 C   0  0  0  0  0  0  0  0  0  0  0  0
   27.3636  -35.9238  -14.5663 C   0  0  0  0  0  0  0  0  0  0  0  0
   26.8382  -36.7859  -15.5127 C   0  0  0  0  0  0  0  0  0  0  0  0
   27.8308  -37.5202  -16.0446 N   0  0  0  0  0  0  0  0  0  0  0  0
   28.9633  -37.1251  -15.4412 C   0  0  0  0  0  0  0  0  0  0  0  0
   28.6901  -36.1605  -14.5462 N   0  0  0  0  0  0  0  0  0  0  0  0
   25.2882  -32.8444  -13.9530 C   0  0  0  0  0  0  0  0  0  0  0  0
   25.6448  -31.7466  -13.4150 O   0  0  0  0  0  0  0  0  0  0  0  0
   19.4202  -32.2977  -15.9297 N   0  0  0  0  0  0  0  0  0  0  0  0
   19.4239  -31.4210  -14.8200 C   0  0  0  0  0  0  0  0  0  0  0  0
   18.4356  -30.6861  -14.6122 O   0  0  0  0  0  0  0  0  0  0  0  0
   20.5788  -31.3659  -13.9104 C   0  0  0  0  0  0  0  0  0  0  0  0
   21.7280  -32.2266  -14.3215 C   0  0  0  0  0  0  0  0  0  0  0  0
   22.8903  -32.2421  -13.3707 C   0  0  2  0  0  0  0  0  0  0  0  0
   23.9101  -33.1848  -13.9179 N   0  0  0  0  0  0  0  0  0  0  0  0
   22.5861  -32.7417  -12.0205 C   0  0  0  0  0  0  0  0  0  0  0  0
   22.6076  -34.0085  -11.8228 O   0  0  0  0  0  0  0  0  0  0  0  0
   28.2326  -33.7950   -8.8770 O   0  0  0  0  0  0  0  0  0  0  0  0
   26.9136  -33.3230   -8.7886 C   0  0  0  0  0  0  0  0  0  0  0  0
   25.9775  -33.9562   -7.9950 C   0  0  0  0  0  0  0  0  0  0  0  0
   24.6751  -33.5212   -7.8841 C   0  0  0  0  0  0  0  0  0  0  0  0
   24.2529  -32.3922   -8.5938 C   0  0  0  0  0  0  0  0  0  0  0  0
   22.8608  -31.9094   -8.5213 C   0  0  0  0  0  0  0  0  0  0  0  0
   22.0311  -32.5729   -9.5696 C   0  0  2  0  0  0  0  0  0  0  0  0
   22.2671  -31.9540  -10.8862 N   0  0  0  0  0  0  0  0  0  0  0  0
   20.6038  -32.4706   -9.2552 C   0  0  0  0  0  0  0  0  0  0  0  0
   19.7577  -31.8994   -9.9576 O   0  0  0  0  0  0  0  0  0  0  0  0
   25.2139  -31.7634   -9.3928 C   0  0  0  0  0  0  0  0  0  0  0  0
   26.5056  -32.2111   -9.4904 C   0  0  0  0  0  0  0  0  0  0  0  0
   20.1297  -33.0541   -8.0761 O   0  0  0  0  0  0  0  0  0  0  0  0
  2  3  1  0
  2  1  1  1
  3  4  1  0
  4  5  2  0
  6  5  1  0
  7  6  1  0
  8  7  2  0
  8  4  1  0
  9  2  1  0
  9 10  2  0
 11 12  1  0
 12 14  1  0
 13 12  2  0
 14 15  1  0
 16 15  1  6
 16 17  1  0
 17  9  1  0
 18 16  1  0
 18 27  1  0
 19 18  2  0
 20 21  1  0
 21 22  2  0
 21 31  1  0
 22 23  1  0
 23 24  2  0
 24 25  1  0
 26 25  1  1
 26 27  1  0
 26 28  1  0
 28 29  2  0
 28 32  1  0
 30 24  1  0
 31 30  2  0
M  END
$$$$
