HQY.pdb
     RDKit          3D

 32 33  0  0  1  0  0  0  0  0999 V2000
   26.8716   -9.1949  -20.2852 N   0  0  0  0  0  0  0  0  0  0  0  0
   25.9120   -8.4207  -21.0333 C   0  0  1  0  0  0  0  0  0  0  0  0
   24.9448   -9.3334  -21.7566 C   0  0  0  0  0  0  0  0  0  0  0  0
   25.6975  -10.1386  -22.7702 C   0  0  0  0  0  0  0  0  0  0  0  0
   26.0068   -9.7622  -24.0654 C   0  0  0  0  0  0  0  0  0  0  0  0
   26.6909  -10.7524  -24.6644 N   0  0  0  0  0  0  0  0  0  0  0  0
   26.8096  -11.7365  -23.7588 C   0  0  0  0  0  0  0  0  0  0  0  0
   26.2119  -11.3740  -22.6110 N   0  0  0  0  0  0  0  0  0  0  0  0
   25.2260   -7.4746  -20.1403 C   0  0  0  0  0  0  0  0  0  0  0  0
   25.0322   -7.7663  -18.9159 O   0  0  0  0  0  0  0  0  0  0  0  0
   25.2914   -1.2563  -20.9829 N   0  0  0  0  0  0  0  0  0  0  0  0
   24.4030   -1.3772  -19.8892 C   0  0  0  0  0  0  0  0  0  0  0  0
   23.9671   -0.3474  -19.3329 O   0  0  0  0  0  0  0  0  0  0  0  0
   23.9887   -2.7017  -19.4011 C   0  0  0  0  0  0  0  0  0  0  0  0
   24.5691   -3.8478  -20.1628 C   0  0  0  0  0  0  0  0  0  0  0  0
   24.1742   -5.2107  -19.6710 C   0  0  2  0  0  0  0  0  0  0  0  0
   24.7602   -6.2164  -20.6055 N   0  0  0  0  0  0  0  0  0  0  0  0
   22.7275   -5.4795  -19.6704 C   0  0  0  0  0  0  0  0  0  0  0  0
   22.1685   -5.7965  -20.7801 O   0  0  0  0  0  0  0  0  0  0  0  0
   14.4889   -8.0257  -19.0274 O   0  0  0  0  0  0  0  0  0  0  0  0
   15.8691   -7.7965  -18.9142 C   0  0  0  0  0  0  0  0  0  0  0  0
   16.6295   -7.4439  -20.0117 C   0  0  0  0  0  0  0  0  0  0  0  0
   17.9852   -7.2114  -19.9378 C   0  0  0  0  0  0  0  0  0  0  0  0
   18.6485   -7.3297  -18.7120 C   0  0  0  0  0  0  0  0  0  0  0  0
   20.1032   -7.1135  -18.5959 C   0  0  0  0  0  0  0  0  0  0  0  0
   20.4155   -5.6569  -18.6872 C   0  0  2  0  0  0  0  0  0  0  0  0
   21.8646   -5.4276  -18.5472 N   0  0  0  0  0  0  0  0  0  0  0  0
   19.7206   -4.9022  -17.6413 C   0  0  0  0  0  0  0  0  0  0  0  0
   18.4908   -4.7851  -17.5436 O   0  0  0  0  0  0  0  0  0  0  0  0
   17.8631   -7.6879  -17.6109 C   0  0  0  0  0  0  0  0  0  0  0  0
   16.5147   -7.9152  -17.7041 C   0  0  0  0  0  0  0  0  0  0  0  0
   20.4786   -4.2524  -16.6622 O   0  0  0  0  0  0  0  0  0  0  0  0
  2  3  1  0
  2  1  1  1
  3  4  1  0
  4  5  2  0
  6  5  1  0
  7  6  1  0
  8  7  2  0
  8  4  1  0
  9  2  1  0
  9 10  2  0
 11 12  1  0
 12 14  1  0
 13 12  2  0
 14 15  1  0
 16 15  1  6
 16 17  1  0
 17  9  1  0
 18 16  1  0
 18 27  1  0
 19 18  2  0
 20 21  1  0
 21 22  2  0
 21 31  1  0
 22 23  1  0
 23 24  2  0
 24 25  1  0
 26 25  1  1
 26 27  1  0
 26 28  1  0
 28 29  2  0
 28 32  1  0
 30 24  1  0
 31 30  2  0
M  END
$$$$
