HQY.pdb
     RDKit          3D

 32 33  0  0  1  0  0  0  0  0999 V2000
   23.4091  -50.9754  -81.7495 N   0  0  0  0  0  0  0  0  0  0  0  0
   24.1737  -51.1561  -82.9589 C   0  0  1  0  0  0  0  0  0  0  0  0
   23.3730  -51.9371  -83.9789 C   0  0  0  0  0  0  0  0  0  0  0  0
   23.4654  -53.3970  -83.6592 C   0  0  0  0  0  0  0  0  0  0  0  0
   24.4914  -54.2589  -84.0047 C   0  0  0  0  0  0  0  0  0  0  0  0
   24.2139  -55.4892  -83.5392 N   0  0  0  0  0  0  0  0  0  0  0  0
   23.0308  -55.4016  -82.9106 C   0  0  0  0  0  0  0  0  0  0  0  0
   22.5712  -54.1405  -82.9782 N   0  0  0  0  0  0  0  0  0  0  0  0
   24.6128  -49.8503  -83.4740 C   0  0  0  0  0  0  0  0  0  0  0  0
   23.9954  -49.2960  -84.4400 O   0  0  0  0  0  0  0  0  0  0  0  0
   27.8903  -46.3721  -83.4929 N   0  0  0  0  0  0  0  0  0  0  0  0
   27.4142  -46.9465  -84.6944 C   0  0  0  0  0  0  0  0  0  0  0  0
   28.2267  -47.4323  -85.5091 O   0  0  0  0  0  0  0  0  0  0  0  0
   25.9741  -46.9765  -84.9934 C   0  0  0  0  0  0  0  0  0  0  0  0
   25.0951  -47.0026  -83.7862 C   0  0  0  0  0  0  0  0  0  0  0  0
   25.6655  -47.7134  -82.5925 C   0  0  2  0  0  0  0  0  0  0  0  0
   25.7281  -49.1684  -82.9195 N   0  0  0  0  0  0  0  0  0  0  0  0
   24.8548  -47.6262  -81.3676 C   0  0  0  0  0  0  0  0  0  0  0  0
   23.6505  -47.1970  -81.4659 O   0  0  0  0  0  0  0  0  0  0  0  0
   24.1022  -44.3243  -75.2960 O   0  0  0  0  0  0  0  0  0  0  0  0
   24.7769  -45.3170  -76.0237 C   0  0  0  0  0  0  0  0  0  0  0  0
   26.0778  -45.6679  -75.7214 C   0  0  0  0  0  0  0  0  0  0  0  0
   26.7704  -46.6368  -76.4135 C   0  0  0  0  0  0  0  0  0  0  0  0
   26.1560  -47.3119  -77.4734 C   0  0  0  0  0  0  0  0  0  0  0  0
   26.8718  -48.3381  -78.2552 C   0  0  0  0  0  0  0  0  0  0  0  0
   26.7001  -48.0845  -79.7158 C   0  0  2  0  0  0  0  0  0  0  0  0
   25.2708  -47.9775  -80.0590 N   0  0  0  0  0  0  0  0  0  0  0  0
   27.2914  -49.1634  -80.5113 C   0  0  0  0  0  0  0  0  0  0  0  0
   28.4897  -49.4789  -80.5066 O   0  0  0  0  0  0  0  0  0  0  0  0
   24.8383  -46.9438  -77.7661 C   0  0  0  0  0  0  0  0  0  0  0  0
   24.1653  -45.9769  -77.0657 C   0  0  0  0  0  0  0  0  0  0  0  0
   26.4625  -49.9139  -81.3511 O   0  0  0  0  0  0  0  0  0  0  0  0
  2  3  1  0
  2  1  1  1
  3  4  1  0
  4  5  2  0
  6  5  1  0
  7  6  1  0
  8  7  2  0
  8  4  1  0
  9  2  1  0
  9 10  2  0
 11 12  1  0
 12 14  1  0
 13 12  2  0
 14 15  1  0
 16 15  1  6
 16 17  1  0
 17  9  1  0
 18 16  1  0
 18 27  1  0
 19 18  2  0
 20 21  1  0
 21 22  2  0
 21 31  1  0
 22 23  1  0
 23 24  2  0
 24 25  1  0
 26 25  1  1
 26 27  1  0
 26 28  1  0
 28 29  2  0
 28 32  1  0
 30 24  1  0
 31 30  2  0
M  END
$$$$
