HQY.pdb
     RDKit          3D

 32 33  0  0  1  0  0  0  0  0999 V2000
   32.4743  -25.0157  -15.3356 N   0  0  0  0  0  0  0  0  0  0  0  0
   32.0297  -24.5017  -16.6076 C   0  0  1  0  0  0  0  0  0  0  0  0
   32.1579  -25.5619  -17.6804 C   0  0  0  0  0  0  0  0  0  0  0  0
   33.6070  -25.8811  -17.8817 C   0  0  0  0  0  0  0  0  0  0  0  0
   34.4958  -25.2172  -18.7089 C   0  0  0  0  0  0  0  0  0  0  0  0
   35.7049  -25.7978  -18.6190 N   0  0  0  0  0  0  0  0  0  0  0  0
   35.5776  -26.8117  -17.7480 C   0  0  0  0  0  0  0  0  0  0  0  0
   34.3128  -26.8693  -17.2975 N   0  0  0  0  0  0  0  0  0  0  0  0
   30.6559  -23.9900  -16.4889 C   0  0  0  0  0  0  0  0  0  0  0  0
   29.8607  -24.4700  -15.6178 O   0  0  0  0  0  0  0  0  0  0  0  0
   28.9764  -18.1382  -17.9909 N   0  0  0  0  0  0  0  0  0  0  0  0
   27.7099  -18.7421  -17.8139 C   0  0  0  0  0  0  0  0  0  0  0  0
   26.6784  -18.0411  -17.8815 O   0  0  0  0  0  0  0  0  0  0  0  0
   27.5961  -20.1851  -17.5508 C   0  0  0  0  0  0  0  0  0  0  0  0
   28.9043  -20.9009  -17.4688 C   0  0  0  0  0  0  0  0  0  0  0  0
   28.8160  -22.3625  -17.1351 C   0  0  2  0  0  0  0  0  0  0  0  0
   30.1722  -22.9543  -17.3313 N   0  0  0  0  0  0  0  0  0  0  0  0
   27.9218  -23.1478  -18.0006 C   0  0  0  0  0  0  0  0  0  0  0  0
   28.3623  -23.5272  -19.1435 O   0  0  0  0  0  0  0  0  0  0  0  0
   21.8099  -28.1840  -21.8120 O   0  0  0  0  0  0  0  0  0  0  0  0
   22.6428  -27.5193  -20.8984 C   0  0  0  0  0  0  0  0  0  0  0  0
   24.0140  -27.6798  -20.9305 C   0  0  0  0  0  0  0  0  0  0  0  0
   24.8615  -27.0436  -20.0504 C   0  0  0  0  0  0  0  0  0  0  0  0
   24.3403  -26.1921  -19.0707 C   0  0  0  0  0  0  0  0  0  0  0  0
   25.2122  -25.5121  -18.0940 C   0  0  0  0  0  0  0  0  0  0  0  0
   25.7683  -24.2598  -18.6856 C   0  0  2  0  0  0  0  0  0  0  0  0
   26.5945  -23.5424  -17.6983 N   0  0  0  0  0  0  0  0  0  0  0  0
   24.6964  -23.3671  -19.1335 C   0  0  0  0  0  0  0  0  0  0  0  0
   24.1902  -22.4630  -18.4538 O   0  0  0  0  0  0  0  0  0  0  0  0
   22.9495  -26.0413  -19.0523 C   0  0  0  0  0  0  0  0  0  0  0  0
   22.1221  -26.6829  -19.9369 C   0  0  0  0  0  0  0  0  0  0  0  0
   24.1841  -23.5239  -20.4252 O   0  0  0  0  0  0  0  0  0  0  0  0
  2  3  1  0
  2  1  1  1
  3  4  1  0
  4  5  2  0
  6  5  1  0
  7  6  1  0
  8  7  2  0
  8  4  1  0
  9  2  1  0
  9 10  2  0
 11 12  1  0
 12 14  1  0
 13 12  2  0
 14 15  1  0
 16 15  1  6
 16 17  1  0
 17  9  1  0
 18 16  1  0
 18 27  1  0
 19 18  2  0
 20 21  1  0
 21 22  2  0
 21 31  1  0
 22 23  1  0
 23 24  2  0
 24 25  1  0
 26 25  1  1
 26 27  1  0
 26 28  1  0
 28 29  2  0
 28 32  1  0
 30 24  1  0
 31 30  2  0
M  END
$$$$
