HQY.pdb
     RDKit          3D

 32 33  0  0  1  0  0  0  0  0999 V2000
   18.0800  -11.8602  -18.1677 N   0  0  0  0  0  0  0  0  0  0  0  0
   18.3664  -11.3372  -16.8545 C   0  0  1  0  0  0  0  0  0  0  0  0
   19.3962  -12.1987  -16.1553 C   0  0  0  0  0  0  0  0  0  0  0  0
   18.8616  -13.5913  -16.0253 C   0  0  0  0  0  0  0  0  0  0  0  0
   17.8193  -14.0078  -15.2159 C   0  0  0  0  0  0  0  0  0  0  0  0
   17.6344  -15.3299  -15.3747 N   0  0  0  0  0  0  0  0  0  0  0  0
   18.5471  -15.7380  -16.2709 C   0  0  0  0  0  0  0  0  0  0  0  0
   19.2931  -14.6937  -16.6694 N   0  0  0  0  0  0  0  0  0  0  0  0
   18.7892   -9.9321  -16.9559 C   0  0  0  0  0  0  0  0  0  0  0  0
   19.6853   -9.5857  -17.7917 O   0  0  0  0  0  0  0  0  0  0  0  0
   14.8741   -5.2347  -16.6306 N   0  0  0  0  0  0  0  0  0  0  0  0
   16.0894   -4.5255  -16.4883 C   0  0  0  0  0  0  0  0  0  0  0  0
   16.0700   -3.2790  -16.4121 O   0  0  0  0  0  0  0  0  0  0  0  0
   17.3738   -5.2406  -16.4298 C   0  0  0  0  0  0  0  0  0  0  0  0
   17.2505   -6.7290  -16.4349 C   0  0  0  0  0  0  0  0  0  0  0  0
   18.5471   -7.4805  -16.3376 C   0  0  2  0  0  0  0  0  0  0  0  0
   18.2202   -8.9228  -16.1351 N   0  0  0  0  0  0  0  0  0  0  0  0
   19.3981   -7.1121  -15.1951 C   0  0  0  0  0  0  0  0  0  0  0  0
   18.9992   -7.4215  -14.0163 O   0  0  0  0  0  0  0  0  0  0  0  0
   25.4366   -6.0618  -19.0024 O   0  0  0  0  0  0  0  0  0  0  0  0
   24.7609   -6.2609  -17.7883 C   0  0  0  0  0  0  0  0  0  0  0  0
   24.8523   -5.3452  -16.7587 C   0  0  0  0  0  0  0  0  0  0  0  0
   24.2033   -5.5077  -15.5545 C   0  0  0  0  0  0  0  0  0  0  0  0
   23.4102   -6.6389  -15.3355 C   0  0  0  0  0  0  0  0  0  0  0  0
   22.7193   -6.8619  -14.0512 C   0  0  0  0  0  0  0  0  0  0  0  0
   21.4130   -6.1403  -14.0379 C   0  0  2  0  0  0  0  0  0  0  0  0
   20.6435   -6.4384  -15.2589 N   0  0  0  0  0  0  0  0  0  0  0  0
   21.6122   -4.6912  -13.9541 C   0  0  0  0  0  0  0  0  0  0  0  0
   21.3009   -3.8762  -14.8342 O   0  0  0  0  0  0  0  0  0  0  0  0
   23.3291   -7.5562  -16.3888 C   0  0  0  0  0  0  0  0  0  0  0  0
   23.9823   -7.3770  -17.5803 C   0  0  0  0  0  0  0  0  0  0  0  0
   22.1974   -4.1566  -12.8021 O   0  0  0  0  0  0  0  0  0  0  0  0
  2  3  1  0
  2  1  1  6
  3  4  1  0
  4  5  2  0
  6  5  1  0
  7  6  1  0
  8  7  2  0
  8  4  1  0
  9  2  1  0
  9 10  2  0
 11 12  1  0
 12 14  1  0
 13 12  2  0
 14 15  1  0
 16 15  1  1
 16 17  1  0
 17  9  1  0
 18 16  1  0
 18 27  1  0
 19 18  2  0
 20 21  1  0
 21 22  2  0
 21 31  1  0
 22 23  1  0
 23 24  2  0
 24 25  1  0
 26 25  1  6
 26 27  1  0
 26 28  1  0
 28 29  2  0
 28 32  1  0
 30 24  1  0
 31 30  2  0
M  END
$$$$
