HQY.pdb
     RDKit          3D

 32 33  0  0  1  0  0  0  0  0999 V2000
   25.7668  -15.6905  -18.4505 N   0  0  0  0  0  0  0  0  0  0  0  0
   25.9709  -16.2626  -17.1424 C   0  0  1  0  0  0  0  0  0  0  0  0
   25.3087  -15.4085  -16.0825 C   0  0  0  0  0  0  0  0  0  0  0  0
   26.0013  -14.0824  -16.0202 C   0  0  0  0  0  0  0  0  0  0  0  0
   25.5517  -12.8857  -16.5501 C   0  0  0  0  0  0  0  0  0  0  0  0
   26.4494  -11.9194  -16.2898 N   0  0  0  0  0  0  0  0  0  0  0  0
   27.4484  -12.5006  -15.6063 C   0  0  0  0  0  0  0  0  0  0  0  0
   27.1857  -13.8079  -15.4389 N   0  0  0  0  0  0  0  0  0  0  0  0
   25.4888  -17.6520  -17.1223 C   0  0  0  0  0  0  0  0  0  0  0  0
   24.4002  -17.9666  -17.7034 O   0  0  0  0  0  0  0  0  0  0  0  0
   29.0700  -22.7644  -16.9161 N   0  0  0  0  0  0  0  0  0  0  0  0
   27.8062  -23.3178  -16.6053 C   0  0  0  0  0  0  0  0  0  0  0  0
   27.6893  -24.5550  -16.4805 O   0  0  0  0  0  0  0  0  0  0  0  0
   26.6301  -22.4518  -16.4287 C   0  0  0  0  0  0  0  0  0  0  0  0
   26.9205  -20.9905  -16.5316 C   0  0  0  0  0  0  0  0  0  0  0  0
   25.7208  -20.0907  -16.4510 C   0  0  2  0  0  0  0  0  0  0  0  0
   26.2110  -18.6808  -16.4618 N   0  0  0  0  0  0  0  0  0  0  0  0
   24.9282  -20.2157  -15.2176 C   0  0  0  0  0  0  0  0  0  0  0  0
   25.3781  -19.6686  -14.1487 O   0  0  0  0  0  0  0  0  0  0  0  0
   18.9834  -16.5354  -16.0413 O   0  0  0  0  0  0  0  0  0  0  0  0
   19.9393  -17.2925  -15.3461 C   0  0  0  0  0  0  0  0  0  0  0  0
   19.5855  -18.0752  -14.2649 C   0  0  0  0  0  0  0  0  0  0  0  0
   20.4962  -18.8308  -13.5596 C   0  0  0  0  0  0  0  0  0  0  0  0
   21.8448  -18.8254  -13.9308 C   0  0  0  0  0  0  0  0  0  0  0  0
   22.8549  -19.6010  -13.1861 C   0  0  0  0  0  0  0  0  0  0  0  0
   22.9991  -20.9623  -13.7807 C   0  0  2  0  0  0  0  0  0  0  0  0
   23.6888  -20.8896  -15.0811 N   0  0  0  0  0  0  0  0  0  0  0  0
   21.6912  -21.5914  -13.9808 C   0  0  0  0  0  0  0  0  0  0  0  0
   21.1895  -21.8598  -15.0817 O   0  0  0  0  0  0  0  0  0  0  0  0
   22.1856  -18.0269  -15.0280 C   0  0  0  0  0  0  0  0  0  0  0  0
   21.2649  -17.2818  -15.7176 C   0  0  0  0  0  0  0  0  0  0  0  0
   20.9259  -21.9270  -12.8596 O   0  0  0  0  0  0  0  0  0  0  0  0
  2  3  1  0
  2  1  1  6
  3  4  1  0
  4  5  2  0
  6  5  1  0
  7  6  1  0
  8  7  2  0
  8  4  1  0
  9  2  1  0
  9 10  2  0
 11 12  1  0
 12 14  1  0
 13 12  2  0
 14 15  1  0
 16 15  1  1
 16 17  1  0
 17  9  1  0
 18 16  1  0
 18 27  1  0
 19 18  2  0
 20 21  1  0
 21 22  2  0
 21 31  1  0
 22 23  1  0
 23 24  2  0
 24 25  1  0
 26 25  1  6
 26 27  1  0
 26 28  1  0
 28 29  2  0
 28 32  1  0
 30 24  1  0
 31 30  2  0
M  END
$$$$
