HQY.pdb
     RDKit          3D

 32 33  0  0  1  0  0  0  0  0999 V2000
   18.5584  -10.6138  -18.4501 N   0  0  0  0  0  0  0  0  0  0  0  0
   19.1833   -9.5199  -19.1521 C   0  0  1  0  0  0  0  0  0  0  0  0
   18.2289   -8.9293  -20.1678 C   0  0  0  0  0  0  0  0  0  0  0  0
   17.8617   -9.9844  -21.1649 C   0  0  0  0  0  0  0  0  0  0  0  0
   16.6023  -10.5125  -21.3883 C   0  0  0  0  0  0  0  0  0  0  0  0
   16.6743  -11.4361  -22.3625 N   0  0  0  0  0  0  0  0  0  0  0  0
   17.9601  -11.4875  -22.7455 C   0  0  0  0  0  0  0  0  0  0  0  0
   18.6849  -10.6133  -22.0268 N   0  0  0  0  0  0  0  0  0  0  0  0
   19.6660   -8.5176  -18.1899 C   0  0  0  0  0  0  0  0  0  0  0  0
   18.8999   -8.0836  -17.2700 O   0  0  0  0  0  0  0  0  0  0  0  0
   24.3855   -8.8297  -14.6907 N   0  0  0  0  0  0  0  0  0  0  0  0
   23.0318   -8.8197  -14.2813 C   0  0  0  0  0  0  0  0  0  0  0  0
   22.7157   -9.3303  -13.1862 O   0  0  0  0  0  0  0  0  0  0  0  0
   21.9945   -8.2154  -15.1317 C   0  0  0  0  0  0  0  0  0  0  0  0
   22.5069   -7.6325  -16.4076 C   0  0  0  0  0  0  0  0  0  0  0  0
   21.4703   -6.9805  -17.2770 C   0  0  2  0  0  0  0  0  0  0  0  0
   20.9883   -8.0036  -18.2512 N   0  0  0  0  0  0  0  0  0  0  0  0
   21.9586   -5.8624  -18.0995 C   0  0  0  0  0  0  0  0  0  0  0  0
   22.2858   -6.1012  -19.3161 O   0  0  0  0  0  0  0  0  0  0  0  0
   16.5022   -1.2946  -18.1350 O   0  0  0  0  0  0  0  0  0  0  0  0
   17.7356   -1.8204  -18.5502 C   0  0  0  0  0  0  0  0  0  0  0  0
   17.9481   -3.1833  -18.6157 C   0  0  0  0  0  0  0  0  0  0  0  0
   19.1447   -3.7344  -19.0185 C   0  0  0  0  0  0  0  0  0  0  0  0
   20.2089   -2.9032  -19.3831 C   0  0  0  0  0  0  0  0  0  0  0  0
   21.5138   -3.4539  -19.7961 C   0  0  0  0  0  0  0  0  0  0  0  0
   22.4602   -3.4546  -18.6421 C   0  0  2  0  0  0  0  0  0  0  0  0
   22.1069   -4.5158  -17.6825 N   0  0  0  0  0  0  0  0  0  0  0  0
   22.4395   -2.1674  -17.9426 C   0  0  0  0  0  0  0  0  0  0  0  0
   22.1030   -2.0027  -16.7614 O   0  0  0  0  0  0  0  0  0  0  0  0
   19.9764   -1.5254  -19.3107 C   0  0  0  0  0  0  0  0  0  0  0  0
   18.7784   -0.9956  -18.9074 C   0  0  0  0  0  0  0  0  0  0  0  0
   22.8248   -1.0164  -18.6371 O   0  0  0  0  0  0  0  0  0  0  0  0
  2  3  1  0
  2  1  1  1
  3  4  1  0
  4  5  2  0
  6  5  1  0
  7  6  1  0
  8  7  2  0
  8  4  1  0
  9  2  1  0
  9 10  2  0
 11 12  1  0
 12 14  1  0
 13 12  2  0
 14 15  1  0
 16 15  1  6
 16 17  1  0
 17  9  1  0
 18 16  1  0
 18 27  1  0
 19 18  2  0
 20 21  1  0
 21 22  2  0
 21 31  1  0
 22 23  1  0
 23 24  2  0
 24 25  1  0
 26 25  1  6
 26 27  1  0
 26 28  1  0
 28 29  2  0
 28 32  1  0
 30 24  1  0
 31 30  2  0
M  END
$$$$
