HQY.pdb
     RDKit          3D

 32 33  0  0  1  0  0  0  0  0999 V2000
   32.8783  -29.0523  -23.0882 N   0  0  0  0  0  0  0  0  0  0  0  0
   32.5512  -27.7674  -22.5207 C   0  0  1  0  0  0  0  0  0  0  0  0
   31.4071  -27.1300  -23.2796 C   0  0  0  0  0  0  0  0  0  0  0  0
   31.8438  -26.8598  -24.6862 C   0  0  0  0  0  0  0  0  0  0  0  0
   32.8343  -25.9836  -25.0938 C   0  0  0  0  0  0  0  0  0  0  0  0
   32.9344  -26.0185  -26.4340 N   0  0  0  0  0  0  0  0  0  0  0  0
   32.0202  -26.9037  -26.8621 C   0  0  0  0  0  0  0  0  0  0  0  0
   31.3565  -27.4171  -25.8124 N   0  0  0  0  0  0  0  0  0  0  0  0
   32.2585  -27.9128  -21.0867 C   0  0  0  0  0  0  0  0  0  0  0  0
   31.6234  -28.9294  -20.6567 O   0  0  0  0  0  0  0  0  0  0  0  0
   34.6137  -30.4762  -17.2520 N   0  0  0  0  0  0  0  0  0  0  0  0
   34.6155  -29.0844  -17.0014 C   0  0  0  0  0  0  0  0  0  0  0  0
   34.5727  -28.6705  -15.8238 O   0  0  0  0  0  0  0  0  0  0  0  0
   34.6665  -28.1213  -18.1124 C   0  0  0  0  0  0  0  0  0  0  0  0
   33.7303  -26.9665  -17.9696 C   0  0  0  0  0  0  0  0  0  0  0  0
   32.4158  -27.1146  -18.6805 C   0  0  2  0  0  0  0  0  0  0  0  0
   32.6684  -26.9363  -20.1408 N   0  0  0  0  0  0  0  0  0  0  0  0
   31.4026  -26.1046  -18.3365 C   0  0  0  0  0  0  0  0  0  0  0  0
   31.3883  -25.0081  -19.0012 O   0  0  0  0  0  0  0  0  0  0  0  0
   25.4651  -29.7661  -19.2726 O   0  0  0  0  0  0  0  0  0  0  0  0
   26.2243  -28.6032  -19.0690 C   0  0  0  0  0  0  0  0  0  0  0  0
   27.4762  -28.4566  -19.6329 C   0  0  0  0  0  0  0  0  0  0  0  0
   28.2488  -27.3301  -19.4548 C   0  0  0  0  0  0  0  0  0  0  0  0
   27.7714  -26.2721  -18.6742 C   0  0  0  0  0  0  0  0  0  0  0  0
   28.5782  -25.0596  -18.4388 C   0  0  0  0  0  0  0  0  0  0  0  0
   29.3595  -25.1990  -17.1749 C   0  0  2  0  0  0  0  0  0  0  0  0
   30.4141  -26.2171  -17.3269 N   0  0  0  0  0  0  0  0  0  0  0  0
   28.4928  -25.5880  -16.0596 C   0  0  0  0  0  0  0  0  0  0  0  0
   28.5848  -26.6452  -15.4197 O   0  0  0  0  0  0  0  0  0  0  0  0
   26.5017  -26.4374  -18.1103 C   0  0  0  0  0  0  0  0  0  0  0  0
   25.7476  -27.5662  -18.2991 C   0  0  0  0  0  0  0  0  0  0  0  0
   27.4726  -24.7176  -15.6632 O   0  0  0  0  0  0  0  0  0  0  0  0
  2  3  1  0
  2  1  1  6
  3  4  1  0
  4  5  2  0
  6  5  1  0
  7  6  1  0
  8  7  2  0
  8  4  1  0
  9  2  1  0
  9 10  2  0
 11 12  1  0
 12 14  1  0
 13 12  2  0
 14 15  1  0
 16 15  1  1
 16 17  1  0
 17  9  1  0
 18 16  1  0
 18 27  1  0
 19 18  2  0
 20 21  1  0
 21 22  2  0
 21 31  1  0
 22 23  1  0
 23 24  2  0
 24 25  1  0
 26 25  1  6
 26 27  1  0
 26 28  1  0
 28 29  2  0
 28 32  1  0
 30 24  1  0
 31 30  2  0
M  END
$$$$
