HQY.pdb
     RDKit          3D

 32 33  0  0  1  0  0  0  0  0999 V2000
   25.5830  -35.6703   -6.1356 N   0  0  0  0  0  0  0  0  0  0  0  0
   26.4207  -34.6873   -5.4938 C   0  0  1  0  0  0  0  0  0  0  0  0
   25.7559  -33.3277   -5.5203 C   0  0  0  0  0  0  0  0  0  0  0  0
   25.7321  -32.8224   -6.9297 C   0  0  0  0  0  0  0  0  0  0  0  0
   24.6362  -32.3300   -7.6163 C   0  0  0  0  0  0  0  0  0  0  0  0
   25.0122  -31.9749   -8.8572 N   0  0  0  0  0  0  0  0  0  0  0  0
   26.3252  -32.2402   -8.9488 C   0  0  0  0  0  0  0  0  0  0  0  0
   26.7685  -32.7527   -7.7883 N   0  0  0  0  0  0  0  0  0  0  0  0
   26.7480  -35.1229   -4.1276 C   0  0  0  0  0  0  0  0  0  0  0  0
   25.8987  -35.7722   -3.4356 O   0  0  0  0  0  0  0  0  0  0  0  0
   31.7436  -37.6908   -2.2459 N   0  0  0  0  0  0  0  0  0  0  0  0
   31.4354  -37.1028   -0.9972 C   0  0  0  0  0  0  0  0  0  0  0  0
   31.9706  -37.5453    0.0409 O   0  0  0  0  0  0  0  0  0  0  0  0
   30.4916  -35.9776   -0.9095 C   0  0  0  0  0  0  0  0  0  0  0  0
   29.8952  -35.5710   -2.2169 C   0  0  0  0  0  0  0  0  0  0  0  0
   28.4004  -35.4255   -2.2226 C   0  0  2  0  0  0  0  0  0  0  0  0
   28.0079  -34.8385   -3.5377 N   0  0  0  0  0  0  0  0  0  0  0  0
   27.8588  -34.5049   -1.2105 C   0  0  0  0  0  0  0  0  0  0  0  0
   27.6083  -33.2970   -1.5605 O   0  0  0  0  0  0  0  0  0  0  0  0
   23.5777  -29.6777    4.4440 O   0  0  0  0  0  0  0  0  0  0  0  0
   24.1042  -30.5636    3.4910 C   0  0  0  0  0  0  0  0  0  0  0  0
   23.5976  -31.8395    3.3416 C   0  0  0  0  0  0  0  0  0  0  0  0
   24.0890  -32.7351    2.4175 C   0  0  0  0  0  0  0  0  0  0  0  0
   25.1465  -32.3651    1.5801 C   0  0  0  0  0  0  0  0  0  0  0  0
   25.7174  -33.3033    0.5950 C   0  0  0  0  0  0  0  0  0  0  0  0
   27.0439  -33.7993    1.0659 C   0  0  2  0  0  0  0  0  0  0  0  0
   27.5741  -34.8181    0.1423 N   0  0  0  0  0  0  0  0  0  0  0  0
   26.9416  -34.3897    2.4028 C   0  0  0  0  0  0  0  0  0  0  0  0
   26.7642  -35.5931    2.6396 O   0  0  0  0  0  0  0  0  0  0  0  0
   25.6477  -31.0693    1.7451 C   0  0  0  0  0  0  0  0  0  0  0  0
   25.1453  -30.1920    2.6705 C   0  0  0  0  0  0  0  0  0  0  0  0
   27.0489  -33.5540    3.5189 O   0  0  0  0  0  0  0  0  0  0  0  0
  2  3  1  0
  2  1  1  1
  3  4  1  0
  4  5  2  0
  6  5  1  0
  7  6  1  0
  8  7  2  0
  8  4  1  0
  9  2  1  0
  9 10  2  0
 11 12  1  0
 12 14  1  0
 13 12  2  0
 14 15  1  0
 16 15  1  6
 16 17  1  0
 17  9  1  0
 18 16  1  0
 18 27  1  0
 19 18  2  0
 20 21  1  0
 21 22  2  0
 21 31  1  0
 22 23  1  0
 23 24  2  0
 24 25  1  0
 26 25  1  6
 26 27  1  0
 26 28  1  0
 28 29  2  0
 28 32  1  0
 30 24  1  0
 31 30  2  0
M  END
$$$$
