ANQ.pdb
     RDKit          3D

 23 22  0  0  1  0  0  0  0  0999 V2000
    8.2858  -14.9817   17.0659 C   0  0  0  0  0  0  0  0  0  0  0  0
    7.7597  -14.2082   18.2771 C   0  0  2  0  0  0  0  0  0  0  0  0
    7.6703  -12.8007   17.9095 N   0  0  0  0  0  0  0  0  0  0  0  0
    8.6613  -14.3688   19.4432 C   0  0  0  0  0  0  0  0  0  0  0  0
    9.5370  -13.4660   19.6769 O   0  0  0  0  0  0  0  0  0  0  0  0
    8.7755  -18.0010   20.5836 N   0  0  0  0  0  0  0  0  0  0  0  0
    8.4578  -17.7536   21.9367 C   0  0  0  0  0  0  0  0  0  0  0  0
    7.9060  -18.6412   22.6441 O   0  0  0  0  0  0  0  0  0  0  0  0
    8.7688  -16.4386   22.5544 C   0  0  0  0  0  0  0  0  0  0  0  0
    9.4207  -15.5519   21.4988 C   0  0  2  0  0  0  0  0  0  0  0  0
    8.5961  -15.4774   20.3098 N   0  0  0  0  0  0  0  0  0  0  0  0
   10.7928  -16.0273   21.2233 C   0  0  0  0  0  0  0  0  0  0  0  0
   10.9123  -17.0413   20.4974 O   0  0  0  0  0  0  0  0  0  0  0  0
   15.6979  -14.6732   18.3371 N   0  0  0  0  0  0  0  0  0  0  0  0
   14.3777  -14.7711   18.8098 C   0  0  0  0  0  0  0  0  0  0  0  0
   13.5496  -15.4686   18.1968 O   0  0  0  0  0  0  0  0  0  0  0  0
   13.9478  -14.0538   20.0360 C   0  0  0  0  0  0  0  0  0  0  0  0
   14.2985  -14.8836   21.2350 C   0  0  0  0  0  0  0  0  0  0  0  0
   13.3105  -15.9445   21.5402 C   0  0  2  0  0  0  0  0  0  0  0  0
   11.9679  -15.4200   21.7190 N   0  0  0  0  0  0  0  0  0  0  0  0
   13.6739  -16.6880   22.7595 C   0  0  0  0  0  0  0  0  0  0  0  0
   12.9147  -16.6093   23.7901 O   0  0  0  0  0  0  0  0  0  0  0  0
   14.7786  -17.4905   22.9221 O   0  0  0  0  0  0  0  0  0  0  0  0
  2  1  1  6
  2  4  1  0
  3  2  1  0
  4  5  2  0
  6  7  1  0
  7  9  1  0
  8  7  2  0
 10  9  1  1
 10 12  1  0
 11 10  1  0
 11  4  1  0
 12 13  2  0
 12 20  1  0
 15 17  1  0
 15 14  1  0
 16 15  2  0
 19 18  1  1
 18 17  1  0
 19 21  1  0
 20 19  1  0
 21 22  2  0
 21 23  1  0
M  END
$$$$
