ANQ.pdb
     RDKit          3D

 23 22  0  0  1  0  0  0  0  0999 V2000
    7.9319  -12.3384   19.5359 C   0  0  0  0  0  0  0  0  0  0  0  0
    8.2670  -13.6867   20.1776 C   0  0  2  0  0  0  0  0  0  0  0  0
    7.1864  -14.6145   19.8684 N   0  0  0  0  0  0  0  0  0  0  0  0
    8.4135  -13.5545   21.6471 C   0  0  0  0  0  0  0  0  0  0  0  0
    9.4466  -12.9624   22.1149 O   0  0  0  0  0  0  0  0  0  0  0  0
    7.0647  -12.1926   26.5098 N   0  0  0  0  0  0  0  0  0  0  0  0
    6.5532  -13.4501   26.1222 C   0  0  0  0  0  0  0  0  0  0  0  0
    6.3027  -14.3393   26.9821 O   0  0  0  0  0  0  0  0  0  0  0  0
    6.2996  -13.7501   24.6893 C   0  0  0  0  0  0  0  0  0  0  0  0
    7.6425  -13.9190   23.9869 C   0  0  2  0  0  0  0  0  0  0  0  0
    7.4605  -14.0545   22.5558 N   0  0  0  0  0  0  0  0  0  0  0  0
    8.3827  -15.0493   24.5863 C   0  0  0  0  0  0  0  0  0  0  0  0
    8.4134  -15.1142   25.8370 O   0  0  0  0  0  0  0  0  0  0  0  0
   10.2307  -18.1385   20.7558 N   0  0  0  0  0  0  0  0  0  0  0  0
    8.9368  -18.5072   21.1630 C   0  0  0  0  0  0  0  0  0  0  0  0
    8.0655  -18.7556   20.3102 O   0  0  0  0  0  0  0  0  0  0  0  0
    8.5858  -18.6076   22.6016 C   0  0  0  0  0  0  0  0  0  0  0  0
    9.8100  -18.3317   23.4229 C   0  0  0  0  0  0  0  0  0  0  0  0
    9.6307  -17.2542   24.4237 C   0  0  2  0  0  0  0  0  0  0  0  0
    9.0513  -16.0523   23.8499 N   0  0  0  0  0  0  0  0  0  0  0  0
   10.9095  -16.8848   25.0562 C   0  0  0  0  0  0  0  0  0  0  0  0
   11.3668  -15.6974   24.8962 O   0  0  0  0  0  0  0  0  0  0  0  0
   11.6978  -17.7024   25.8314 O   0  0  0  0  0  0  0  0  0  0  0  0
  2  1  1  6
  2  4  1  0
  3  2  1  0
  4  5  2  0
  6  7  1  0
  7  9  1  0
  8  7  2  0
 10  9  1  1
 10 12  1  0
 11 10  1  0
 11  4  1  0
 12 13  2  0
 12 20  1  0
 15 17  1  0
 15 14  1  0
 16 15  2  0
 19 18  1  6
 18 17  1  0
 19 21  1  0
 20 19  1  0
 21 22  2  0
 21 23  1  0
M  END
$$$$
