ANQ.pdb
     RDKit          3D

 23 22  0  0  1  0  0  0  0  0999 V2000
    7.8078  -12.6998   18.7095 C   0  0  0  0  0  0  0  0  0  0  0  0
    8.7689  -13.6630   19.4101 C   0  0  2  0  0  0  0  0  0  0  0  0
    9.2159  -14.6458   18.4311 N   0  0  0  0  0  0  0  0  0  0  0  0
    8.1029  -14.3475   20.5443 C   0  0  0  0  0  0  0  0  0  0  0  0
    7.6665  -13.6452   21.5205 O   0  0  0  0  0  0  0  0  0  0  0  0
    5.0005  -18.7203   22.7513 N   0  0  0  0  0  0  0  0  0  0  0  0
    6.3835  -18.4648   22.6275 C   0  0  0  0  0  0  0  0  0  0  0  0
    7.1834  -18.7727   23.5538 O   0  0  0  0  0  0  0  0  0  0  0  0
    6.9237  -17.8264   21.3995 C   0  0  0  0  0  0  0  0  0  0  0  0
    7.2848  -16.3813   21.7259 C   0  0  2  0  0  0  0  0  0  0  0  0
    7.9283  -15.7443   20.5947 N   0  0  0  0  0  0  0  0  0  0  0  0
    8.1001  -16.3348   22.9579 C   0  0  0  0  0  0  0  0  0  0  0  0
    9.3382  -16.4768   22.8306 O   0  0  0  0  0  0  0  0  0  0  0  0
    5.3511  -12.6520   26.9216 N   0  0  0  0  0  0  0  0  0  0  0  0
    6.6679  -12.5395   27.4006 C   0  0  0  0  0  0  0  0  0  0  0  0
    6.9392  -11.6998   28.2778 O   0  0  0  0  0  0  0  0  0  0  0  0
    7.7505  -13.4097   26.8773 C   0  0  0  0  0  0  0  0  0  0  0  0
    7.1834  -14.3134   25.8233 C   0  0  0  0  0  0  0  0  0  0  0  0
    8.1652  -15.2705   25.2620 C   0  0  2  0  0  0  0  0  0  0  0  0
    7.5812  -16.1421   24.2575 N   0  0  0  0  0  0  0  0  0  0  0  0
    8.7551  -16.1192   26.3125 C   0  0  0  0  0  0  0  0  0  0  0  0
    8.2689  -17.2877   26.5193 O   0  0  0  0  0  0  0  0  0  0  0  0
    9.8119  -15.7863   27.1268 O   0  0  0  0  0  0  0  0  0  0  0  0
  2  1  1  6
  2  4  1  0
  3  2  1  0
  4  5  2  0
  6  7  1  0
  7  9  1  0
  8  7  2  0
 10  9  1  6
 10 12  1  0
 11 10  1  0
 11  4  1  0
 12 13  2  0
 12 20  1  0
 15 17  1  0
 15 14  1  0
 16 15  2  0
 19 18  1  1
 18 17  1  0
 19 21  1  0
 20 19  1  0
 21 22  2  0
 21 23  1  0
M  END
$$$$
