ANQ.pdb
     RDKit          3D

 23 22  0  0  1  0  0  0  0  0999 V2000
    8.2519  -12.3077   20.0646 C   0  0  0  0  0  0  0  0  0  0  0  0
    8.0299  -13.5182   19.1550 C   0  0  2  0  0  0  0  0  0  0  0  0
    6.5935  -13.6998   18.9881 N   0  0  0  0  0  0  0  0  0  0  0  0
    8.6281  -14.7413   19.7421 C   0  0  0  0  0  0  0  0  0  0  0  0
    7.9135  -15.4710   20.5124 O   0  0  0  0  0  0  0  0  0  0  0  0
   10.5830  -17.6074   16.7415 N   0  0  0  0  0  0  0  0  0  0  0  0
   10.4286  -17.7841   18.1337 C   0  0  0  0  0  0  0  0  0  0  0  0
    9.5094  -18.5157   18.5947 O   0  0  0  0  0  0  0  0  0  0  0  0
   11.3495  -17.1091   19.0845 C   0  0  0  0  0  0  0  0  0  0  0  0
   10.5139  -16.3294   20.0940 C   0  0  2  0  0  0  0  0  0  0  0  0
    9.9557  -15.1376   19.4878 N   0  0  0  0  0  0  0  0  0  0  0  0
   11.3220  -16.0428   21.2980 C   0  0  0  0  0  0  0  0  0  0  0  0
   12.3123  -15.2887   21.1565 O   0  0  0  0  0  0  0  0  0  0  0  0
   10.9169  -19.0973   26.7988 N   0  0  0  0  0  0  0  0  0  0  0  0
   12.1111  -18.3756   26.9693 C   0  0  0  0  0  0  0  0  0  0  0  0
   12.8216  -18.5796   27.9702 O   0  0  0  0  0  0  0  0  0  0  0  0
   12.5457  -17.3667   25.9711 C   0  0  0  0  0  0  0  0  0  0  0  0
   11.5639  -17.3474   24.8377 C   0  0  0  0  0  0  0  0  0  0  0  0
   11.9514  -16.4512   23.7235 C   0  0  2  0  0  0  0  0  0  0  0  0
   11.0544  -16.5574   22.5860 N   0  0  0  0  0  0  0  0  0  0  0  0
   13.3186  -16.7341   23.2518 C   0  0  0  0  0  0  0  0  0  0  0  0
   14.2671  -15.9292   23.5634 O   0  0  0  0  0  0  0  0  0  0  0  0
   13.7073  -17.8083   22.4865 O   0  0  0  0  0  0  0  0  0  0  0  0
  2  1  1  1
  2  4  1  0
  3  2  1  0
  4  5  2  0
  6  7  1  0
  7  9  1  0
  8  7  2  0
 10  9  1  6
 10 12  1  0
 11 10  1  0
 11  4  1  0
 12 13  2  0
 12 20  1  0
 15 17  1  0
 15 14  1  0
 16 15  2  0
 19 18  1  1
 18 17  1  0
 19 21  1  0
 20 19  1  0
 21 22  2  0
 21 23  1  0
M  END
$$$$
