ANQ.pdb
     RDKit          3D

 23 22  0  0  1  0  0  0  0  0999 V2000
    7.9136  -12.2278   19.5254 C   0  0  0  0  0  0  0  0  0  0  0  0
    8.4142  -13.6351   19.1924 C   0  0  2  0  0  0  0  0  0  0  0  0
    7.6198  -14.1455   18.0821 N   0  0  0  0  0  0  0  0  0  0  0  0
    8.2837  -14.5366   20.3623 C   0  0  0  0  0  0  0  0  0  0  0  0
    7.1244  -14.7312   20.8670 O   0  0  0  0  0  0  0  0  0  0  0  0
    9.0265  -19.4766   22.8644 N   0  0  0  0  0  0  0  0  0  0  0  0
    9.8349  -18.3210   22.9289 C   0  0  0  0  0  0  0  0  0  0  0  0
   10.4561  -18.0245   23.9866 O   0  0  0  0  0  0  0  0  0  0  0  0
    9.9691  -17.4298   21.7476 C   0  0  0  0  0  0  0  0  0  0  0  0
    9.2107  -16.1373   22.0297 C   0  0  2  0  0  0  0  0  0  0  0  0
    9.3857  -15.1918   20.9459 N   0  0  0  0  0  0  0  0  0  0  0  0
    9.6170  -15.5947   23.3432 C   0  0  0  0  0  0  0  0  0  0  0  0
   10.8017  -15.2046   23.4596 O   0  0  0  0  0  0  0  0  0  0  0  0
    5.3050  -11.7861   25.6226 N   0  0  0  0  0  0  0  0  0  0  0  0
    6.3385  -12.4151   26.3381 C   0  0  0  0  0  0  0  0  0  0  0  0
    6.2661  -12.5112   27.5766 O   0  0  0  0  0  0  0  0  0  0  0  0
    7.5244  -12.9722   25.6407 C   0  0  0  0  0  0  0  0  0  0  0  0
    8.0013  -14.1853   26.3824 C   0  0  0  0  0  0  0  0  0  0  0  0
    9.1372  -14.8785   25.7312 C   0  0  2  0  0  0  0  0  0  0  0  0
    8.7662  -15.4872   24.4657 N   0  0  0  0  0  0  0  0  0  0  0  0
    9.6954  -15.9330   26.5962 C   0  0  0  0  0  0  0  0  0  0  0  0
   10.1882  -15.6119   27.7358 O   0  0  0  0  0  0  0  0  0  0  0  0
    9.7473  -17.2765   26.3079 O   0  0  0  0  0  0  0  0  0  0  0  0
  2  1  1  1
  2  4  1  0
  3  2  1  0
  4  5  2  0
  6  7  1  0
  7  9  1  0
  8  7  2  0
 10  9  1  6
 10 12  1  0
 11 10  1  0
 11  4  1  0
 12 13  2  0
 12 20  1  0
 15 17  1  0
 15 14  1  0
 16 15  2  0
 19 18  1  1
 18 17  1  0
 19 21  1  0
 20 19  1  0
 21 22  2  0
 21 23  1  0
M  END
$$$$
