ANQ.pdb
     RDKit          3D

 23 22  0  0  1  0  0  0  0  0999 V2000
    9.4495  -16.9423   16.1553 C   0  0  0  0  0  0  0  0  0  0  0  0
    9.7238  -17.7359   17.4348 C   0  0  2  0  0  0  0  0  0  0  0  0
    8.5728  -18.5929   17.6895 N   0  0  0  0  0  0  0  0  0  0  0  0
    9.9419  -16.8284   18.5868 C   0  0  0  0  0  0  0  0  0  0  0  0
   11.1388  -16.6003   18.9766 O   0  0  0  0  0  0  0  0  0  0  0  0
    7.8934  -12.1474   19.4384 N   0  0  0  0  0  0  0  0  0  0  0  0
    7.7298  -13.5487   19.3844 C   0  0  0  0  0  0  0  0  0  0  0  0
    7.4087  -14.1212   18.3065 O   0  0  0  0  0  0  0  0  0  0  0  0
    7.9338  -14.3774   20.6006 C   0  0  0  0  0  0  0  0  0  0  0  0
    9.1358  -15.2866   20.3688 C   0  0  2  0  0  0  0  0  0  0  0  0
    8.8839  -16.2027   19.2749 N   0  0  0  0  0  0  0  0  0  0  0  0
    9.4952  -15.9725   21.6278 C   0  0  0  0  0  0  0  0  0  0  0  0
    8.5925  -16.6236   22.2026 O   0  0  0  0  0  0  0  0  0  0  0  0
   11.1832  -19.7285   20.4494 N   0  0  0  0  0  0  0  0  0  0  0  0
   10.5974  -20.1083   21.6694 C   0  0  0  0  0  0  0  0  0  0  0  0
    9.8430  -21.0968   21.7141 O   0  0  0  0  0  0  0  0  0  0  0  0
   10.8628  -19.3480   22.9162 C   0  0  0  0  0  0  0  0  0  0  0  0
   11.7220  -18.1626   22.5912 C   0  0  0  0  0  0  0  0  0  0  0  0
   11.2562  -16.8975   23.2055 C   0  0  2  0  0  0  0  0  0  0  0  0
   10.7771  -15.9436   22.2205 N   0  0  0  0  0  0  0  0  0  0  0  0
   12.3255  -16.2481   23.9842 C   0  0  0  0  0  0  0  0  0  0  0  0
   13.0154  -15.3132   23.4414 O   0  0  0  0  0  0  0  0  0  0  0  0
   12.6793  -16.5422   25.2800 O   0  0  0  0  0  0  0  0  0  0  0  0
  2  1  1  6
  2  4  1  0
  3  2  1  0
  4  5  2  0
  6  7  1  0
  7  9  1  0
  8  7  2  0
 10  9  1  1
 10 12  1  0
 11 10  1  0
 11  4  1  0
 12 13  2  0
 12 20  1  0
 15 17  1  0
 15 14  1  0
 16 15  2  0
 19 18  1  6
 18 17  1  0
 19 21  1  0
 20 19  1  0
 21 22  2  0
 21 23  1  0
M  END
$$$$
