ANQ.pdb
     RDKit          3D

 23 22  0  0  1  0  0  0  0  0999 V2000
    8.9221  -18.7186   18.9262 C   0  0  0  0  0  0  0  0  0  0  0  0
    9.0757  -18.3475   20.4030 C   0  0  2  0  0  0  0  0  0  0  0  0
    7.8103  -18.6235   21.0714 N   0  0  0  0  0  0  0  0  0  0  0  0
    9.4260  -16.9151   20.5575 C   0  0  0  0  0  0  0  0  0  0  0  0
   10.6140  -16.5347   20.2736 O   0  0  0  0  0  0  0  0  0  0  0  0
    8.2318  -12.4967   18.5282 N   0  0  0  0  0  0  0  0  0  0  0  0
    7.7312  -13.6109   19.2362 C   0  0  0  0  0  0  0  0  0  0  0  0
    7.2508  -14.6040   18.6233 O   0  0  0  0  0  0  0  0  0  0  0  0
    7.7613  -13.6340   20.7215 C   0  0  0  0  0  0  0  0  0  0  0  0
    8.8871  -14.5613   21.1668 C   0  0  2  0  0  0  0  0  0  0  0  0
    8.5037  -15.9492   21.0056 N   0  0  0  0  0  0  0  0  0  0  0  0
    9.2926  -14.2290   22.5487 C   0  0  0  0  0  0  0  0  0  0  0  0
    9.6041  -13.0384   22.7831 O   0  0  0  0  0  0  0  0  0  0  0  0
    5.7299  -12.8058   25.9872 N   0  0  0  0  0  0  0  0  0  0  0  0
    6.6904  -12.9133   27.0079 C   0  0  0  0  0  0  0  0  0  0  0  0
    6.5034  -12.3435   28.0980 O   0  0  0  0  0  0  0  0  0  0  0  0
    7.9335  -13.6998   26.8103 C   0  0  0  0  0  0  0  0  0  0  0  0
    8.0034  -14.1511   25.3818 C   0  0  0  0  0  0  0  0  0  0  0  0
    9.2828  -14.8055   25.0213 C   0  0  2  0  0  0  0  0  0  0  0  0
    9.3515  -15.1556   23.6133 N   0  0  0  0  0  0  0  0  0  0  0  0
    9.5027  -16.0333   25.8060 C   0  0  0  0  0  0  0  0  0  0  0  0
    9.5569  -15.9573   27.0850 O   0  0  0  0  0  0  0  0  0  0  0  0
    9.6604  -17.3024   25.3006 O   0  0  0  0  0  0  0  0  0  0  0  0
  2  1  1  6
  2  4  1  0
  3  2  1  0
  4  5  2  0
  6  7  1  0
  7  9  1  0
  8  7  2  0
 10  9  1  1
 10 12  1  0
 11 10  1  0
 11  4  1  0
 12 13  2  0
 12 20  1  0
 15 17  1  0
 15 14  1  0
 16 15  2  0
 19 18  1  6
 18 17  1  0
 19 21  1  0
 20 19  1  0
 21 22  2  0
 21 23  1  0
M  END
$$$$
