ANQ.pdb
     RDKit          3D

 23 22  0  0  1  0  0  0  0  0999 V2000
    8.4692  -12.2816   19.3600 C   0  0  0  0  0  0  0  0  0  0  0  0
    8.5178  -13.7407   18.9009 C   0  0  2  0  0  0  0  0  0  0  0  0
    7.3861  -13.9719   18.0121 N   0  0  0  0  0  0  0  0  0  0  0  0
    8.4475  -14.6649   20.0582 C   0  0  0  0  0  0  0  0  0  0  0  0
    7.2998  -15.0005   20.5129 O   0  0  0  0  0  0  0  0  0  0  0  0
    9.7164  -19.3948   22.7639 N   0  0  0  0  0  0  0  0  0  0  0  0
   10.4058  -18.1630   22.7882 C   0  0  0  0  0  0  0  0  0  0  0  0
   10.9926  -17.7708   23.8344 O   0  0  0  0  0  0  0  0  0  0  0  0
   10.4530  -17.3032   21.5774 C   0  0  0  0  0  0  0  0  0  0  0  0
    9.4882  -16.1389   21.7746 C   0  0  2  0  0  0  0  0  0  0  0  0
    9.5946  -15.1927   20.6825 N   0  0  0  0  0  0  0  0  0  0  0  0
    9.7114  -15.5223   23.0992 C   0  0  0  0  0  0  0  0  0  0  0  0
   10.7888  -14.9062   23.2695 O   0  0  0  0  0  0  0  0  0  0  0  0
    5.2667  -12.7972   26.1930 N   0  0  0  0  0  0  0  0  0  0  0  0
    6.3687  -12.4359   26.9873 C   0  0  0  0  0  0  0  0  0  0  0  0
    6.2377  -11.5730   27.8741 O   0  0  0  0  0  0  0  0  0  0  0  0
    7.6967  -13.0684   26.7885 C   0  0  0  0  0  0  0  0  0  0  0  0
    7.6235  -13.9975   25.6135 C   0  0  0  0  0  0  0  0  0  0  0  0
    8.8726  -14.7558   25.3696 C   0  0  2  0  0  0  0  0  0  0  0  0
    8.7992  -15.5804   24.1761 N   0  0  0  0  0  0  0  0  0  0  0  0
    9.2049  -15.6317   26.5072 C   0  0  0  0  0  0  0  0  0  0  0  0
    8.8746  -16.8700   26.4610 O   0  0  0  0  0  0  0  0  0  0  0  0
    9.8574  -15.2557   27.6578 O   0  0  0  0  0  0  0  0  0  0  0  0
  2  1  1  1
  2  4  1  0
  3  2  1  0
  4  5  2  0
  6  7  1  0
  7  9  1  0
  8  7  2  0
 10  9  1  6
 10 12  1  0
 11 10  1  0
 11  4  1  0
 12 13  2  0
 12 20  1  0
 15 17  1  0
 15 14  1  0
 16 15  2  0
 19 18  1  1
 18 17  1  0
 19 21  1  0
 20 19  1  0
 21 22  2  0
 21 23  1  0
M  END
$$$$
