SDI.pdb
     RDKit          3D

 23 22  0  0  1  0  0  0  0  0999 V2000
    8.0148  -12.0077   19.6631 O   0  0  0  0  0  0  0  0  0  0  0  0
    9.0832  -12.7593   19.1967 C   0  0  0  0  0  0  0  0  0  0  0  0
    8.7330  -14.1947   18.8965 C   0  0  2  0  0  0  0  0  0  0  0  0
    7.6616  -14.2231   17.9032 N   0  0  0  0  0  0  0  0  0  0  0  0
    8.3349  -14.9744   20.0920 C   0  0  0  0  0  0  0  0  0  0  0  0
    7.1051  -15.2671   20.2304 O   0  0  0  0  0  0  0  0  0  0  0  0
    9.2479  -15.4107   21.0856 N   0  0  0  0  0  0  0  0  0  0  0  0
    8.8909  -16.1796   22.2555 C   0  0  1  0  0  0  0  0  0  0  0  0
    9.4487  -17.5523   22.1836 C   0  0  0  0  0  0  0  0  0  0  0  0
   10.9192  -17.5790   22.1911 C   0  0  0  0  0  0  0  0  0  0  0  0
   11.5368  -17.7715   23.2532 O   0  0  0  0  0  0  0  0  0  0  0  0
    9.2354  -15.4465   23.4912 C   0  0  0  0  0  0  0  0  0  0  0  0
   10.3480  -14.8668   23.5300 O   0  0  0  0  0  0  0  0  0  0  0  0
   11.6135  -17.3908   21.0214 O   0  0  0  0  0  0  0  0  0  0  0  0
    6.0401  -11.9777   25.7640 C   0  0  0  0  0  0  0  0  0  0  0  0
    7.2419  -12.7638   25.3279 C   0  0  0  0  0  0  0  0  0  0  0  0
    7.7061  -13.7739   26.3470 C   0  0  2  0  0  0  0  0  0  0  0  0
    8.0208  -13.1276   27.6621 C   0  0  0  0  0  0  0  0  0  0  0  0
    8.8148  -14.6645   25.8384 C   0  0  2  0  0  0  0  0  0  0  0  0
    8.4040  -15.3551   24.6230 N   0  0  0  0  0  0  0  0  0  0  0  0
    9.0530  -15.7013   26.8671 C   0  0  0  0  0  0  0  0  0  0  0  0
    9.8450  -15.4294   27.9846 O   0  0  0  0  0  0  0  0  0  0  0  0
    8.5645  -16.8412   26.7803 O   0  0  0  0  0  0  0  0  0  0  0  0
  2  1  1  0
  3  2  1  0
  3  4  1  6
  5  3  1  0
  6  5  2  0
  7  5  1  0
  8 12  1  0
  8  7  1  0
  8  9  1  6
 10 14  1  0
 10  9  1  0
 11 10  2  0
 12 20  1  0
 13 12  2  0
 16 15  1  0
 17 16  1  0
 17 18  1  1
 19 21  1  0
 19 17  1  0
 19 20  1  6
 21 22  1  0
 23 21  2  0
M  END
$$$$
