SDI.pdb
     RDKit          3D

 23 22  0  0  1  0  0  0  0  0999 V2000
    9.1474  -12.1607   20.1882 O   0  0  0  0  0  0  0  0  0  0  0  0
    9.1311  -13.1905   19.2590 C   0  0  0  0  0  0  0  0  0  0  0  0
    7.9924  -14.1608   19.4452 C   0  0  2  0  0  0  0  0  0  0  0  0
    6.7311  -13.4620   19.2083 N   0  0  0  0  0  0  0  0  0  0  0  0
    7.9701  -14.8060   20.7789 C   0  0  0  0  0  0  0  0  0  0  0  0
    7.1167  -14.3933   21.6266 O   0  0  0  0  0  0  0  0  0  0  0  0
    8.8450  -15.8554   21.1591 N   0  0  0  0  0  0  0  0  0  0  0  0
    8.7874  -16.5647   22.4164 C   0  0  1  0  0  0  0  0  0  0  0  0
    9.5829  -17.8157   22.3611 C   0  0  0  0  0  0  0  0  0  0  0  0
    9.4716  -18.6251   23.5841 C   0  0  0  0  0  0  0  0  0  0  0  0
   10.4573  -19.2498   24.0137 O   0  0  0  0  0  0  0  0  0  0  0  0
    9.1357  -15.6710   23.5402 C   0  0  0  0  0  0  0  0  0  0  0  0
   10.2702  -15.1344   23.5237 O   0  0  0  0  0  0  0  0  0  0  0  0
    8.2751  -18.6916   24.2546 O   0  0  0  0  0  0  0  0  0  0  0  0
    5.7380  -12.0706   25.5302 C   0  0  0  0  0  0  0  0  0  0  0  0
    6.9430  -12.8552   25.1003 C   0  0  0  0  0  0  0  0  0  0  0  0
    7.5587  -13.6730   26.2078 C   0  0  2  0  0  0  0  0  0  0  0  0
    7.9070  -12.8246   27.3932 C   0  0  0  0  0  0  0  0  0  0  0  0
    8.7010  -14.5430   25.7393 C   0  0  2  0  0  0  0  0  0  0  0  0
    8.2850  -15.3823   24.6234 N   0  0  0  0  0  0  0  0  0  0  0  0
    9.0511  -15.4483   26.8564 C   0  0  0  0  0  0  0  0  0  0  0  0
    8.7880  -16.8173   26.7749 O   0  0  0  0  0  0  0  0  0  0  0  0
    9.5864  -15.0333   27.8988 O   0  0  0  0  0  0  0  0  0  0  0  0
  2  1  1  0
  3  2  1  0
  3  4  1  1
  5  3  1  0
  6  5  2  0
  7  5  1  0
  8 12  1  0
  8  7  1  0
  8  9  1  6
 10 14  1  0
 10  9  1  0
 11 10  2  0
 12 20  1  0
 13 12  2  0
 16 15  1  0
 17 16  1  0
 17 18  1  1
 19 21  1  0
 19 17  1  0
 19 20  1  6
 21 22  1  0
 23 21  2  0
M  END
$$$$
