SDI.pdb
     RDKit          3D

 23 22  0  0  1  0  0  0  0  0999 V2000
    9.7612  -12.5721   20.2878 O   0  0  0  0  0  0  0  0  0  0  0  0
    9.4734  -13.3812   19.1985 C   0  0  0  0  0  0  0  0  0  0  0  0
    8.1370  -14.0729   19.2898 C   0  0  2  0  0  0  0  0  0  0  0  0
    7.0804  -13.0988   19.0253 N   0  0  0  0  0  0  0  0  0  0  0  0
    7.8970  -14.7380   20.5920 C   0  0  0  0  0  0  0  0  0  0  0  0
    6.9288  -14.3224   21.3042 O   0  0  0  0  0  0  0  0  0  0  0  0
    8.6850  -15.8094   21.0844 N   0  0  0  0  0  0  0  0  0  0  0  0
    8.4720  -16.4802   22.3461 C   0  0  1  0  0  0  0  0  0  0  0  0
    8.9999  -17.8661   22.3103 C   0  0  0  0  0  0  0  0  0  0  0  0
    8.9430  -18.5394   23.6166 C   0  0  0  0  0  0  0  0  0  0  0  0
    7.9191  -18.4606   24.3179 O   0  0  0  0  0  0  0  0  0  0  0  0
    8.9806  -15.6638   23.4676 C   0  0  0  0  0  0  0  0  0  0  0  0
   10.1848  -15.3120   23.4288 O   0  0  0  0  0  0  0  0  0  0  0  0
   10.0242  -19.2580   24.0643 O   0  0  0  0  0  0  0  0  0  0  0  0
    5.9946  -11.8082   25.7666 C   0  0  0  0  0  0  0  0  0  0  0  0
    7.1244  -12.6387   25.2315 C   0  0  0  0  0  0  0  0  0  0  0  0
    7.7407  -13.5548   26.2587 C   0  0  2  0  0  0  0  0  0  0  0  0
    8.2358  -12.7942   27.4514 C   0  0  0  0  0  0  0  0  0  0  0  0
    8.7728  -14.4913   25.6765 C   0  0  2  0  0  0  0  0  0  0  0  0
    8.2094  -15.2561   24.5719 N   0  0  0  0  0  0  0  0  0  0  0  0
    9.1345  -15.4600   26.7351 C   0  0  0  0  0  0  0  0  0  0  0  0
   10.1273  -15.1585   27.6698 O   0  0  0  0  0  0  0  0  0  0  0  0
    8.5772  -16.5668   26.8348 O   0  0  0  0  0  0  0  0  0  0  0  0
  2  1  1  0
  3  2  1  0
  3  4  1  1
  5  3  1  0
  6  5  2  0
  7  5  1  0
  8 12  1  0
  8  7  1  0
  8  9  1  6
 10 14  1  0
 10  9  1  0
 11 10  2  0
 12 20  1  0
 13 12  2  0
 16 15  1  0
 17 16  1  0
 17 18  1  1
 19 21  1  0
 19 17  1  0
 19 20  1  6
 21 22  1  0
 23 21  2  0
M  END
$$$$
