SDI.pdb
     RDKit          3D

 23 22  0  0  1  0  0  0  0  0999 V2000
    9.6304  -12.4954   19.6688 O   0  0  0  0  0  0  0  0  0  0  0  0
    9.4659  -13.6141   18.8654 C   0  0  0  0  0  0  0  0  0  0  0  0
    8.1758  -14.3550   19.1096 C   0  0  2  0  0  0  0  0  0  0  0  0
    7.0569  -13.4973   18.7250 N   0  0  0  0  0  0  0  0  0  0  0  0
    8.0053  -14.8112   20.5090 C   0  0  0  0  0  0  0  0  0  0  0  0
    7.2214  -14.1495   21.2605 O   0  0  0  0  0  0  0  0  0  0  0  0
    8.6660  -15.9422   21.0529 N   0  0  0  0  0  0  0  0  0  0  0  0
    8.4447  -16.4696   22.3796 C   0  0  1  0  0  0  0  0  0  0  0  0
    9.0059  -17.8365   22.5116 C   0  0  0  0  0  0  0  0  0  0  0  0
    8.9770  -18.5965   21.2528 C   0  0  0  0  0  0  0  0  0  0  0  0
    7.9090  -19.0793   20.8369 O   0  0  0  0  0  0  0  0  0  0  0  0
    8.9122  -15.5176   23.4082 C   0  0  0  0  0  0  0  0  0  0  0  0
   10.0223  -14.9623   23.2220 O   0  0  0  0  0  0  0  0  0  0  0  0
   10.1331  -18.7740   20.5334 O   0  0  0  0  0  0  0  0  0  0  0  0
    5.4410  -12.7227   27.0128 C   0  0  0  0  0  0  0  0  0  0  0  0
    6.3550  -13.7493   26.4101 C   0  0  0  0  0  0  0  0  0  0  0  0
    7.5998  -13.1628   25.7931 C   0  0  2  0  0  0  0  0  0  0  0  0
    7.2786  -12.3169   24.5983 C   0  0  0  0  0  0  0  0  0  0  0  0
    8.6721  -14.1923   25.5256 C   0  0  2  0  0  0  0  0  0  0  0  0
    8.2000  -15.1932   24.5778 N   0  0  0  0  0  0  0  0  0  0  0  0
    8.9364  -14.8937   26.8016 C   0  0  0  0  0  0  0  0  0  0  0  0
    8.6745  -16.2590   26.9334 O   0  0  0  0  0  0  0  0  0  0  0  0
    9.3963  -14.3046   27.7951 O   0  0  0  0  0  0  0  0  0  0  0  0
  2  1  1  0
  3  2  1  0
  3  4  1  1
  5  3  1  0
  6  5  2  0
  7  5  1  0
  8 12  1  0
  8  7  1  0
  8  9  1  6
 10 14  1  0
 10  9  1  0
 11 10  2  0
 12 20  1  0
 13 12  2  0
 16 15  1  0
 17 16  1  0
 17 18  1  6
 19 21  1  0
 19 17  1  0
 19 20  1  6
 21 22  1  0
 23 21  2  0
M  END
$$$$
