SDI.pdb
     RDKit          3D

 23 22  0  0  1  0  0  0  0  0999 V2000
    6.4072  -16.3801   19.5018 O   0  0  0  0  0  0  0  0  0  0  0  0
    6.3373  -15.0667   19.9424 C   0  0  0  0  0  0  0  0  0  0  0  0
    7.5942  -14.5840   20.6206 C   0  0  2  0  0  0  0  0  0  0  0  0
    8.7117  -14.7015   19.6863 N   0  0  0  0  0  0  0  0  0  0  0  0
    7.9083  -15.3036   21.8773 C   0  0  0  0  0  0  0  0  0  0  0  0
    7.0543  -15.2600   22.8186 O   0  0  0  0  0  0  0  0  0  0  0  0
    9.1046  -16.0362   22.0856 N   0  0  0  0  0  0  0  0  0  0  0  0
    9.4471  -16.7298   23.3058 C   0  0  1  0  0  0  0  0  0  0  0  0
   10.4952  -17.7514   23.0636 C   0  0  0  0  0  0  0  0  0  0  0  0
   10.9312  -18.4334   24.2915 C   0  0  0  0  0  0  0  0  0  0  0  0
   12.1237  -18.3913   24.6418 O   0  0  0  0  0  0  0  0  0  0  0  0
    9.7690  -15.7708   24.3826 C   0  0  0  0  0  0  0  0  0  0  0  0
   10.8233  -15.0999   24.2651 O   0  0  0  0  0  0  0  0  0  0  0  0
   10.0187  -19.1193   25.0548 O   0  0  0  0  0  0  0  0  0  0  0  0
    6.1785  -12.4002   26.0645 C   0  0  0  0  0  0  0  0  0  0  0  0
    7.4825  -13.0683   25.7395 C   0  0  0  0  0  0  0  0  0  0  0  0
    8.1254  -13.7474   26.9227 C   0  0  2  0  0  0  0  0  0  0  0  0
    8.3985  -12.7798   28.0341 C   0  0  0  0  0  0  0  0  0  0  0  0
    9.3272  -14.5818   26.5480 C   0  0  2  0  0  0  0  0  0  0  0  0
    8.9769  -15.5599   25.5265 N   0  0  0  0  0  0  0  0  0  0  0  0
    9.7301  -15.3391   27.7539 C   0  0  0  0  0  0  0  0  0  0  0  0
    9.5187  -16.7170   27.8352 O   0  0  0  0  0  0  0  0  0  0  0  0
   10.2660  -14.7876   28.7307 O   0  0  0  0  0  0  0  0  0  0  0  0
  2  1  1  0
  3  2  1  0
  3  4  1  6
  5  3  1  0
  6  5  2  0
  7  5  1  0
  8 12  1  0
  8  7  1  0
  8  9  1  6
 10 14  1  0
 10  9  1  0
 11 10  2  0
 12 20  1  0
 13 12  2  0
 16 15  1  0
 17 16  1  0
 17 18  1  1
 19 21  1  0
 19 17  1  0
 19 20  1  6
 21 22  1  0
 23 21  2  0
M  END
$$$$
