SDI.pdb
     RDKit          3D

 23 22  0  0  1  0  0  0  0  0999 V2000
    8.6158  -13.3959   20.5988 O   0  0  0  0  0  0  0  0  0  0  0  0
    8.9708  -14.5783   19.9664 C   0  0  0  0  0  0  0  0  0  0  0  0
    8.1492  -15.7680   20.3936 C   0  0  2  0  0  0  0  0  0  0  0  0
    6.7453  -15.5114   20.0796 N   0  0  0  0  0  0  0  0  0  0  0  0
    8.2923  -16.1078   21.8287 C   0  0  0  0  0  0  0  0  0  0  0  0
    7.3206  -15.8406   22.6045 O   0  0  0  0  0  0  0  0  0  0  0  0
    9.4495  -16.7134   22.3814 N   0  0  0  0  0  0  0  0  0  0  0  0
    9.6148  -17.0622   23.7736 C   0  0  1  0  0  0  0  0  0  0  0  0
   10.6607  -18.1004   23.9438 C   0  0  0  0  0  0  0  0  0  0  0  0
   10.2637  -19.4125   23.4110 C   0  0  0  0  0  0  0  0  0  0  0  0
    9.1355  -19.8737   23.6581 O   0  0  0  0  0  0  0  0  0  0  0  0
    9.8179  -15.8528   24.5976 C   0  0  0  0  0  0  0  0  0  0  0  0
   10.7552  -15.0827   24.2755 O   0  0  0  0  0  0  0  0  0  0  0  0
   11.1414  -20.1317   22.6377 O   0  0  0  0  0  0  0  0  0  0  0  0
    5.9169  -12.6454   26.1925 C   0  0  0  0  0  0  0  0  0  0  0  0
    7.2516  -13.2091   25.8010 C   0  0  0  0  0  0  0  0  0  0  0  0
    8.0937  -13.6407   26.9752 C   0  0  2  0  0  0  0  0  0  0  0  0
    8.3458  -12.5059   27.9213 C   0  0  0  0  0  0  0  0  0  0  0  0
    9.3521  -14.3699   26.5678 C   0  0  2  0  0  0  0  0  0  0  0  0
    9.0347  -15.5076   25.7148 N   0  0  0  0  0  0  0  0  0  0  0  0
    9.9661  -14.9101   27.8011 C   0  0  0  0  0  0  0  0  0  0  0  0
    9.7612  -16.2392   28.1775 O   0  0  0  0  0  0  0  0  0  0  0  0
   10.6799  -14.2129   28.5427 O   0  0  0  0  0  0  0  0  0  0  0  0
  2  1  1  0
  3  2  1  0
  3  4  1  1
  5  3  1  0
  6  5  2  0
  7  5  1  0
  8 12  1  0
  8  7  1  0
  8  9  1  6
 10 14  1  0
 10  9  1  0
 11 10  2  0
 12 20  1  0
 13 12  2  0
 16 15  1  0
 17 16  1  0
 17 18  1  6
 19 21  1  0
 19 17  1  0
 19 20  1  6
 21 22  1  0
 23 21  2  0
M  END
$$$$
