SDI.pdb
     RDKit          3D

 23 22  0  0  1  0  0  0  0  0999 V2000
    8.0134  -12.8159   18.5025 O   0  0  0  0  0  0  0  0  0  0  0  0
    8.0335  -13.4262   19.7479 C   0  0  0  0  0  0  0  0  0  0  0  0
    8.1251  -14.9298   19.6879 C   0  0  2  0  0  0  0  0  0  0  0  0
    6.9442  -15.4493   19.0016 N   0  0  0  0  0  0  0  0  0  0  0  0
    8.2618  -15.5728   21.0159 C   0  0  0  0  0  0  0  0  0  0  0  0
    7.1984  -15.8555   21.6537 O   0  0  0  0  0  0  0  0  0  0  0  0
    9.5094  -15.8895   21.6111 N   0  0  0  0  0  0  0  0  0  0  0  0
    9.6731  -16.5605   22.8800 C   0  0  1  0  0  0  0  0  0  0  0  0
   10.7398  -17.5889   22.8071 C   0  0  0  0  0  0  0  0  0  0  0  0
   10.9669  -18.2769   24.0870 C   0  0  0  0  0  0  0  0  0  0  0  0
   12.0621  -18.1749   24.6674 O   0  0  0  0  0  0  0  0  0  0  0  0
    9.8447  -15.5819   23.9735 C   0  0  0  0  0  0  0  0  0  0  0  0
   10.7750  -14.7466   23.8630 O   0  0  0  0  0  0  0  0  0  0  0  0
    9.9664  -19.0348   24.6440 O   0  0  0  0  0  0  0  0  0  0  0  0
    5.9177  -12.7113   25.8071 C   0  0  0  0  0  0  0  0  0  0  0  0
    7.2512  -13.2912   25.4355 C   0  0  0  0  0  0  0  0  0  0  0  0
    8.0007  -13.8811   26.6037 C   0  0  2  0  0  0  0  0  0  0  0  0
    8.1861  -12.8802   27.7037 C   0  0  0  0  0  0  0  0  0  0  0  0
    9.2829  -14.5699   26.2002 C   0  0  2  0  0  0  0  0  0  0  0  0
    9.0391  -15.5236   25.1260 N   0  0  0  0  0  0  0  0  0  0  0  0
    9.7528  -15.3448   27.3701 C   0  0  0  0  0  0  0  0  0  0  0  0
   10.4749  -14.7261   28.3927 O   0  0  0  0  0  0  0  0  0  0  0  0
    9.5273  -16.5615   27.4892 O   0  0  0  0  0  0  0  0  0  0  0  0
  2  1  1  0
  3  2  1  0
  3  4  1  1
  5  3  1  0
  6  5  2  0
  7  5  1  0
  8 12  1  0
  8  7  1  0
  8  9  1  6
 10 14  1  0
 10  9  1  0
 11 10  2  0
 12 20  1  0
 13 12  2  0
 16 15  1  0
 17 16  1  0
 17 18  1  1
 19 21  1  0
 19 17  1  0
 19 20  1  6
 21 22  1  0
 23 21  2  0
M  END
$$$$
