SDI.pdb
     RDKit          3D

 23 22  0  0  1  0  0  0  0  0999 V2000
    8.3467  -13.4654   18.9052 O   0  0  0  0  0  0  0  0  0  0  0  0
    8.3169  -13.9023   20.2214 C   0  0  0  0  0  0  0  0  0  0  0  0
    8.0992  -15.3871   20.3655 C   0  0  2  0  0  0  0  0  0  0  0  0
    6.7629  -15.7196   19.8766 N   0  0  0  0  0  0  0  0  0  0  0  0
    8.2684  -15.8833   21.7514 C   0  0  0  0  0  0  0  0  0  0  0  0
    7.2572  -15.8559   22.5221 O   0  0  0  0  0  0  0  0  0  0  0  0
    9.4922  -16.3861   22.2623 N   0  0  0  0  0  0  0  0  0  0  0  0
    9.6897  -16.8663   23.6105 C   0  0  1  0  0  0  0  0  0  0  0  0
   10.7421  -17.9109   23.6568 C   0  0  0  0  0  0  0  0  0  0  0  0
   10.4691  -19.0454   22.7615 C   0  0  0  0  0  0  0  0  0  0  0  0
    9.4291  -19.7137   22.8964 O   0  0  0  0  0  0  0  0  0  0  0  0
    9.9078  -15.7407   24.5424 C   0  0  0  0  0  0  0  0  0  0  0  0
   10.7259  -14.8533   24.1979 O   0  0  0  0  0  0  0  0  0  0  0  0
   11.3655  -19.3684   21.7726 O   0  0  0  0  0  0  0  0  0  0  0  0
    6.0805  -12.8412   26.4545 C   0  0  0  0  0  0  0  0  0  0  0  0
    7.4157  -13.3673   26.0154 C   0  0  0  0  0  0  0  0  0  0  0  0
    8.2891  -13.8273   27.1555 C   0  0  2  0  0  0  0  0  0  0  0  0
    8.5239  -12.7303   28.1493 C   0  0  0  0  0  0  0  0  0  0  0  0
    9.5610  -14.4996   26.6958 C   0  0  2  0  0  0  0  0  0  0  0  0
    9.2632  -15.5973   25.7851 N   0  0  0  0  0  0  0  0  0  0  0  0
   10.2035  -15.0896   27.8912 C   0  0  0  0  0  0  0  0  0  0  0  0
   10.2432  -16.4739   28.0703 O   0  0  0  0  0  0  0  0  0  0  0  0
   10.7273  -14.3871   28.7730 O   0  0  0  0  0  0  0  0  0  0  0  0
  2  1  1  0
  3  2  1  0
  3  4  1  1
  5  3  1  0
  6  5  2  0
  7  5  1  0
  8 12  1  0
  8  7  1  0
  8  9  1  6
 10 14  1  0
 10  9  1  0
 11 10  2  0
 12 20  1  0
 13 12  2  0
 16 15  1  0
 17 16  1  0
 17 18  1  6
 19 21  1  0
 19 17  1  0
 19 20  1  6
 21 22  1  0
 23 21  2  0
M  END
$$$$
