SDI.pdb
     RDKit          3D

 23 22  0  0  1  0  0  0  0  0999 V2000
    7.8951  -13.1800   20.6168 O   0  0  0  0  0  0  0  0  0  0  0  0
    8.4746  -14.1028   19.7586 C   0  0  0  0  0  0  0  0  0  0  0  0
    8.0429  -15.5249   20.0116 C   0  0  2  0  0  0  0  0  0  0  0  0
    6.6280  -15.6580   19.6712 N   0  0  0  0  0  0  0  0  0  0  0  0
    8.2730  -15.9799   21.4029 C   0  0  0  0  0  0  0  0  0  0  0  0
    7.2938  -15.9389   22.2133 O   0  0  0  0  0  0  0  0  0  0  0  0
    9.5213  -16.4576   21.8772 N   0  0  0  0  0  0  0  0  0  0  0  0
    9.7689  -16.9315   23.2193 C   0  0  1  0  0  0  0  0  0  0  0  0
   10.9165  -17.8710   23.2512 C   0  0  0  0  0  0  0  0  0  0  0  0
   10.7204  -19.0510   22.3954 C   0  0  0  0  0  0  0  0  0  0  0  0
    9.6734  -19.7172   22.4773 O   0  0  0  0  0  0  0  0  0  0  0  0
    9.8818  -15.8005   24.1633 C   0  0  0  0  0  0  0  0  0  0  0  0
   10.6836  -14.8800   23.8716 O   0  0  0  0  0  0  0  0  0  0  0  0
   11.6964  -19.4190   21.5023 O   0  0  0  0  0  0  0  0  0  0  0  0
    6.1107  -12.6846   25.6218 C   0  0  0  0  0  0  0  0  0  0  0  0
    7.4582  -13.2951   25.3690 C   0  0  0  0  0  0  0  0  0  0  0  0
    8.1051  -13.8661   26.6059 C   0  0  2  0  0  0  0  0  0  0  0  0
    8.2490  -12.8325   27.6816 C   0  0  0  0  0  0  0  0  0  0  0  0
    9.3873  -14.6099   26.3164 C   0  0  2  0  0  0  0  0  0  0  0  0
    9.1542  -15.6862   25.3625 N   0  0  0  0  0  0  0  0  0  0  0  0
    9.8262  -15.2390   27.5819 C   0  0  0  0  0  0  0  0  0  0  0  0
    9.7829  -16.6255   27.7424 O   0  0  0  0  0  0  0  0  0  0  0  0
   10.2457  -14.5685   28.5410 O   0  0  0  0  0  0  0  0  0  0  0  0
  2  1  1  0
  3  2  1  0
  3  4  1  1
  5  3  1  0
  6  5  2  0
  7  5  1  0
  8 12  1  0
  8  7  1  0
  8  9  1  6
 10 14  1  0
 10  9  1  0
 11 10  2  0
 12 20  1  0
 13 12  2  0
 16 15  1  0
 17 16  1  0
 17 18  1  1
 19 21  1  0
 19 17  1  0
 19 20  1  6
 21 22  1  0
 23 21  2  0
M  END
$$$$
