SDI.pdb
     RDKit          3D

 23 22  0  0  1  0  0  0  0  0999 V2000
    8.0855  -12.7226   19.0456 O   0  0  0  0  0  0  0  0  0  0  0  0
    8.0889  -13.3126   20.3009 C   0  0  0  0  0  0  0  0  0  0  0  0
    7.7876  -14.7897   20.2805 C   0  0  2  0  0  0  0  0  0  0  0  0
    6.4055  -14.9851   19.8481 N   0  0  0  0  0  0  0  0  0  0  0  0
    8.0101  -15.4622   21.5819 C   0  0  0  0  0  0  0  0  0  0  0  0
    7.0465  -15.4894   22.4114 O   0  0  0  0  0  0  0  0  0  0  0  0
    9.2346  -16.0755   21.9505 N   0  0  0  0  0  0  0  0  0  0  0  0
    9.4949  -16.6994   23.2273 C   0  0  1  0  0  0  0  0  0  0  0  0
   10.5600  -17.7257   23.1132 C   0  0  0  0  0  0  0  0  0  0  0  0
   10.8345  -18.4162   24.3825 C   0  0  0  0  0  0  0  0  0  0  0  0
   12.0021  -18.7054   24.6985 O   0  0  0  0  0  0  0  0  0  0  0  0
    9.7399  -15.6810   24.2694 C   0  0  0  0  0  0  0  0  0  0  0  0
   10.7117  -14.9043   24.1035 O   0  0  0  0  0  0  0  0  0  0  0  0
    9.7984  -18.7429   25.2223 O   0  0  0  0  0  0  0  0  0  0  0  0
    6.0555  -12.4501   26.0084 C   0  0  0  0  0  0  0  0  0  0  0  0
    7.3427  -13.1357   25.6541 C   0  0  0  0  0  0  0  0  0  0  0  0
    8.0456  -13.7515   26.8378 C   0  0  2  0  0  0  0  0  0  0  0  0
    8.2977  -12.7426   27.9170 C   0  0  0  0  0  0  0  0  0  0  0  0
    9.2773  -14.5372   26.4546 C   0  0  2  0  0  0  0  0  0  0  0  0
    8.9606  -15.5241   25.4307 N   0  0  0  0  0  0  0  0  0  0  0  0
    9.7145  -15.2829   27.6557 C   0  0  0  0  0  0  0  0  0  0  0  0
    9.5867  -16.6720   27.7192 O   0  0  0  0  0  0  0  0  0  0  0  0
   10.2069  -14.7115   28.6439 O   0  0  0  0  0  0  0  0  0  0  0  0
  2  1  1  0
  3  2  1  0
  3  4  1  1
  5  3  1  0
  6  5  2  0
  7  5  1  0
  8 12  1  0
  8  7  1  0
  8  9  1  6
 10 14  1  0
 10  9  1  0
 11 10  2  0
 12 20  1  0
 13 12  2  0
 16 15  1  0
 17 16  1  0
 17 18  1  1
 19 21  1  0
 19 17  1  0
 19 20  1  6
 21 22  1  0
 23 21  2  0
M  END
$$$$
