SDI.pdb
     RDKit          3D

 23 22  0  0  1  0  0  0  0  0999 V2000
    7.4218  -13.1336   17.4142 O   0  0  0  0  0  0  0  0  0  0  0  0
    8.3922  -13.0259   18.3994 C   0  0  0  0  0  0  0  0  0  0  0  0
    8.8930  -14.3534   18.9089 C   0  0  2  0  0  0  0  0  0  0  0  0
    8.7829  -15.3432   17.8395 N   0  0  0  0  0  0  0  0  0  0  0  0
    8.1843  -14.8345   20.1179 C   0  0  0  0  0  0  0  0  0  0  0  0
    6.9611  -14.5163   20.2582 O   0  0  0  0  0  0  0  0  0  0  0  0
    8.7940  -15.6284   21.1227 N   0  0  0  0  0  0  0  0  0  0  0  0
    8.1239  -16.1281   22.3010 C   0  0  1  0  0  0  0  0  0  0  0  0
    8.1507  -17.6108   22.3426 C   0  0  0  0  0  0  0  0  0  0  0  0
    7.5348  -18.1654   23.5576 C   0  0  0  0  0  0  0  0  0  0  0  0
    8.2434  -18.4915   24.5262 O   0  0  0  0  0  0  0  0  0  0  0  0
    8.6465  -15.4754   23.5191 C   0  0  0  0  0  0  0  0  0  0  0  0
    9.8891  -15.3219   23.6067 O   0  0  0  0  0  0  0  0  0  0  0  0
    6.1724  -18.3238   23.6235 O   0  0  0  0  0  0  0  0  0  0  0  0
    5.7985  -11.5689   25.9998 C   0  0  0  0  0  0  0  0  0  0  0  0
    6.9010  -12.4161   25.4348 C   0  0  0  0  0  0  0  0  0  0  0  0
    7.4309  -13.4436   26.4032 C   0  0  2  0  0  0  0  0  0  0  0  0
    7.9412  -12.8068   27.6603 C   0  0  0  0  0  0  0  0  0  0  0  0
    8.4170  -14.3994   25.7746 C   0  0  2  0  0  0  0  0  0  0  0  0
    7.8484  -15.0164   24.5835 N   0  0  0  0  0  0  0  0  0  0  0  0
    8.6611  -15.4844   26.7509 C   0  0  0  0  0  0  0  0  0  0  0  0
    9.5408  -15.2986   27.8194 O   0  0  0  0  0  0  0  0  0  0  0  0
    8.1010  -16.5907   26.6614 O   0  0  0  0  0  0  0  0  0  0  0  0
  2  1  1  0
  3  2  1  0
  3  4  1  6
  5  3  1  0
  6  5  2  0
  7  5  1  0
  8 12  1  0
  8  7  1  0
  8  9  1  1
 10 14  1  0
 10  9  1  0
 11 10  2  0
 12 20  1  0
 13 12  2  0
 16 15  1  0
 17 16  1  0
 17 18  1  1
 19 21  1  0
 19 17  1  0
 19 20  1  6
 21 22  1  0
 23 21  2  0
M  END
$$$$
