SDI.pdb
     RDKit          3D

 23 22  0  0  1  0  0  0  0  0999 V2000
    6.6463  -16.6479   19.6292 O   0  0  0  0  0  0  0  0  0  0  0  0
    6.4970  -15.3419   20.0721 C   0  0  0  0  0  0  0  0  0  0  0  0
    7.7321  -14.7752   20.7250 C   0  0  2  0  0  0  0  0  0  0  0  0
    8.8466  -14.8596   19.7837 N   0  0  0  0  0  0  0  0  0  0  0  0
    8.0937  -15.4422   21.9978 C   0  0  0  0  0  0  0  0  0  0  0  0
    7.2351  -15.4422   22.9359 O   0  0  0  0  0  0  0  0  0  0  0  0
    9.3405  -16.0790   22.2249 N   0  0  0  0  0  0  0  0  0  0  0  0
    9.7203  -16.7379   23.4532 C   0  0  1  0  0  0  0  0  0  0  0  0
   10.8318  -17.6936   23.2253 C   0  0  0  0  0  0  0  0  0  0  0  0
   11.3041  -18.3352   24.4616 C   0  0  0  0  0  0  0  0  0  0  0  0
   12.5198  -18.3782   24.7201 O   0  0  0  0  0  0  0  0  0  0  0  0
    9.9761  -15.7502   24.5218 C   0  0  0  0  0  0  0  0  0  0  0  0
   10.9423  -14.9644   24.3655 O   0  0  0  0  0  0  0  0  0  0  0  0
   10.3999  -18.8889   25.3342 O   0  0  0  0  0  0  0  0  0  0  0  0
    6.7348  -12.1633   26.1748 C   0  0  0  0  0  0  0  0  0  0  0  0
    7.9644  -12.9808   25.9063 C   0  0  0  0  0  0  0  0  0  0  0  0
    8.4232  -13.7905   27.0930 C   0  0  2  0  0  0  0  0  0  0  0  0
    8.6752  -12.9237   28.2894 C   0  0  0  0  0  0  0  0  0  0  0  0
    9.5733  -14.7154   26.7723 C   0  0  2  0  0  0  0  0  0  0  0  0
    9.2131  -15.6318   25.6984 N   0  0  0  0  0  0  0  0  0  0  0  0
    9.8263  -15.5367   27.9770 C   0  0  0  0  0  0  0  0  0  0  0  0
    9.4267  -16.8738   28.0262 O   0  0  0  0  0  0  0  0  0  0  0  0
   10.3972  -15.0767   28.9810 O   0  0  0  0  0  0  0  0  0  0  0  0
  2  1  1  0
  3  2  1  0
  3  4  1  6
  5  3  1  0
  6  5  2  0
  7  5  1  0
  8 12  1  0
  8  7  1  0
  8  9  1  6
 10 14  1  0
 10  9  1  0
 11 10  2  0
 12 20  1  0
 13 12  2  0
 16 15  1  0
 17 16  1  0
 17 18  1  1
 19 21  1  0
 19 17  1  0
 19 20  1  6
 21 22  1  0
 23 21  2  0
M  END
$$$$
