SDI.pdb
     RDKit          3D

 23 22  0  0  1  0  0  0  0  0999 V2000
    9.7356  -14.8849   19.2451 O   0  0  0  0  0  0  0  0  0  0  0  0
    9.8815  -16.2635   19.1985 C   0  0  0  0  0  0  0  0  0  0  0  0
    8.5873  -17.0189   19.3638 C   0  0  2  0  0  0  0  0  0  0  0  0
    7.6766  -16.6399   18.2857 N   0  0  0  0  0  0  0  0  0  0  0  0
    7.9342  -16.8037   20.6763 C   0  0  0  0  0  0  0  0  0  0  0  0
    6.9271  -16.0283   20.7211 O   0  0  0  0  0  0  0  0  0  0  0  0
    8.3693  -17.4141   21.8802 N   0  0  0  0  0  0  0  0  0  0  0  0
    7.7344  -17.2481   23.1673 C   0  0  1  0  0  0  0  0  0  0  0  0
    7.5615  -18.5537   23.8502 C   0  0  0  0  0  0  0  0  0  0  0  0
    6.9610  -18.4308   25.1872 C   0  0  0  0  0  0  0  0  0  0  0  0
    7.4773  -19.0063   26.1612 O   0  0  0  0  0  0  0  0  0  0  0  0
    8.4379  -16.2284   23.9725 C   0  0  0  0  0  0  0  0  0  0  0  0
    9.6920  -16.2727   23.9963 O   0  0  0  0  0  0  0  0  0  0  0  0
    5.8259  -17.6777   25.3614 O   0  0  0  0  0  0  0  0  0  0  0  0
    5.9158  -11.9109   27.0380 C   0  0  0  0  0  0  0  0  0  0  0  0
    6.4648  -13.1671   26.4272 C   0  0  0  0  0  0  0  0  0  0  0  0
    7.7118  -12.9464   25.6083 C   0  0  2  0  0  0  0  0  0  0  0  0
    7.4070  -12.2601   24.3113 C   0  0  0  0  0  0  0  0  0  0  0  0
    8.5424  -14.1968   25.4420 C   0  0  2  0  0  0  0  0  0  0  0  0
    7.7993  -15.2153   24.7117 N   0  0  0  0  0  0  0  0  0  0  0  0
    8.8017  -14.7358   26.7955 C   0  0  0  0  0  0  0  0  0  0  0  0
    9.6640  -14.0759   27.6736 O   0  0  0  0  0  0  0  0  0  0  0  0
    8.2699  -15.7837   27.2013 O   0  0  0  0  0  0  0  0  0  0  0  0
  2  1  1  0
  3  2  1  0
  3  4  1  6
  5  3  1  0
  6  5  2  0
  7  5  1  0
  8 12  1  0
  8  7  1  0
  8  9  1  1
 10 14  1  0
 10  9  1  0
 11 10  2  0
 12 20  1  0
 13 12  2  0
 16 15  1  0
 17 16  1  0
 17 18  1  6
 19 21  1  0
 19 17  1  0
 19 20  1  6
 21 22  1  0
 23 21  2  0
M  END
$$$$
