SDI.pdb
     RDKit          3D

 23 22  0  0  1  0  0  0  0  0999 V2000
    9.1392  -13.0937   20.0648 O   0  0  0  0  0  0  0  0  0  0  0  0
    7.8489  -13.4627   19.7142 C   0  0  0  0  0  0  0  0  0  0  0  0
    7.5557  -14.9265   19.9243 C   0  0  2  0  0  0  0  0  0  0  0  0
    6.1768  -15.1959   19.5223 N   0  0  0  0  0  0  0  0  0  0  0  0
    7.7753  -15.3853   21.3160 C   0  0  0  0  0  0  0  0  0  0  0  0
    6.8207  -15.2513   22.1456 O   0  0  0  0  0  0  0  0  0  0  0  0
    8.9874  -15.9644   21.7707 N   0  0  0  0  0  0  0  0  0  0  0  0
    9.1860  -16.5461   23.0781 C   0  0  1  0  0  0  0  0  0  0  0  0
   10.2445  -17.5849   23.0456 C   0  0  0  0  0  0  0  0  0  0  0  0
    9.9100  -18.7230   22.1761 C   0  0  0  0  0  0  0  0  0  0  0  0
    8.9119  -19.4242   22.4182 O   0  0  0  0  0  0  0  0  0  0  0  0
    9.3960  -15.4947   24.0946 C   0  0  0  0  0  0  0  0  0  0  0  0
   10.1985  -14.5709   23.8156 O   0  0  0  0  0  0  0  0  0  0  0  0
   10.7021  -19.0129   21.0925 O   0  0  0  0  0  0  0  0  0  0  0  0
    6.0127  -12.1962   25.9277 C   0  0  0  0  0  0  0  0  0  0  0  0
    7.3055  -12.8840   25.5989 C   0  0  0  0  0  0  0  0  0  0  0  0
    7.8868  -13.6624   26.7524 C   0  0  2  0  0  0  0  0  0  0  0  0
    8.1119  -12.7901   27.9501 C   0  0  0  0  0  0  0  0  0  0  0  0
    9.1003  -14.4757   26.3688 C   0  0  2  0  0  0  0  0  0  0  0  0
    8.7598  -15.4594   25.3494 N   0  0  0  0  0  0  0  0  0  0  0  0
    9.5248  -15.2262   27.5715 C   0  0  0  0  0  0  0  0  0  0  0  0
    9.3691  -16.6122   27.6399 O   0  0  0  0  0  0  0  0  0  0  0  0
   10.0307  -14.6616   28.5569 O   0  0  0  0  0  0  0  0  0  0  0  0
  2  1  1  0
  3  2  1  0
  3  4  1  1
  5  3  1  0
  6  5  2  0
  7  5  1  0
  8 12  1  0
  8  7  1  0
  8  9  1  6
 10 14  1  0
 10  9  1  0
 11 10  2  0
 12 20  1  0
 13 12  2  0
 16 15  1  0
 17 16  1  0
 17 18  1  1
 19 21  1  0
 19 17  1  0
 19 20  1  6
 21 22  1  0
 23 21  2  0
M  END
$$$$
