PRD.pdb
     RDKit          3D

 27 27  0  0  1  0  0  0  0  0999 V2000
    7.9711  -14.8042   18.1882 N   0  0  0  0  0  0  0  0  0  0  0  0
    6.7221  -14.1292   18.0933 C   0  0  0  0  0  0  0  0  0  0  0  0
    6.7883  -12.9717   19.0677 C   0  0  0  0  0  0  0  0  0  0  0  0
    8.2550  -12.6022   18.9868 C   0  0  0  0  0  0  0  0  0  0  0  0
    8.8699  -14.0137   18.9623 C   0  0  1  0  0  0  0  0  0  0  0  0
    8.9683  -14.4426   20.3796 C   0  0  0  0  0  0  0  0  0  0  0  0
    9.8180  -13.9061   21.1705 O   0  0  0  0  0  0  0  0  0  0  0  0
    7.7889  -17.4592   26.8140 N   0  0  0  0  0  0  0  0  0  0  0  0
    7.3032  -18.7925   26.7189 C   0  0  0  0  0  0  0  0  0  0  0  0
    7.4148  -19.6292   27.6938 N   0  0  0  0  0  0  0  0  0  0  0  0
    6.6651  -19.2569   25.5254 N   0  0  0  0  0  0  0  0  0  0  0  0
    6.2921  -18.3589   24.4559 C   0  0  0  0  0  0  0  0  0  0  0  0
    7.4432  -17.4468   24.0959 C   0  0  0  0  0  0  0  0  0  0  0  0
    7.1237  -16.7035   22.8298 C   0  0  0  0  0  0  0  0  0  0  0  0
    8.2176  -15.8670   22.3313 C   0  0  2  0  0  0  0  0  0  0  0  0
    8.1742  -15.4424   20.9850 N   0  0  0  0  0  0  0  0  0  0  0  0
    9.5135  -16.6151   22.5345 C   0  0  0  0  0  0  0  0  0  0  0  0
    9.8271  -17.4607   21.6931 O   0  0  0  0  0  0  0  0  0  0  0  0
    7.0858  -20.5949   27.6263 N   0  0  0  0  0  0  0  0  0  0  0  0
   10.3716  -16.3899   23.6347 C   0  0  1  0  0  0  0  0  0  0  0  0
   11.6364  -17.0313   23.8222 C   0  0  0  0  0  0  0  0  0  0  0  0
   12.8157  -16.1239   23.7366 C   0  0  0  0  0  0  0  0  0  0  0  0
   14.1161  -16.8326   23.7797 O   0  0  0  0  0  0  0  0  0  0  0  0
   14.2301  -18.0886   23.8275 C   0  0  0  0  0  0  0  0  0  0  0  0
   11.6462  -17.6790   25.1630 O   0  0  0  0  0  0  0  0  0  0  0  0
   12.5430  -18.6867   25.4817 O   0  0  0  0  0  0  0  0  0  0  0  0
   15.2574  -16.0085   23.7642 O   0  0  0  0  0  0  0  0  0  0  0  0
  1  2  1  0
  3  2  1  0
  4  3  1  0
  5  4  1  0
  5  1  1  0
  5  6  1  1
  7  6  2  0
  9  8  1  0
  9 10  2  0
 11  9  1  0
 12 13  1  0
 12 11  1  0
 14 13  1  0
 15 14  1  6
 15 16  1  0
 16  6  1  0
 17 15  1  0
 17 18  2  0
 19 17  1  0
 20 19  1  0
 20 21  1  1
 21 22  1  0
 22 26  1  0
 22 23  2  0
 24 20  1  0
 25 24  1  0
 27 24  2  0
M  END
$$$$
