PRD.pdb
     RDKit          3D

 27 27  0  0  1  0  0  0  0  0999 V2000
    9.1744  -14.0486   19.0567 N   0  0  0  0  0  0  0  0  0  0  0  0
    8.1315  -14.0739   18.0890 C   0  0  0  0  0  0  0  0  0  0  0  0
    6.8791  -13.6050   18.8001 C   0  0  0  0  0  0  0  0  0  0  0  0
    7.4546  -12.6048   19.7813 C   0  0  0  0  0  0  0  0  0  0  0  0
    8.7081  -13.3805   20.2263 C   0  0  1  0  0  0  0  0  0  0  0  0
    8.2599  -14.3033   21.2987 C   0  0  0  0  0  0  0  0  0  0  0  0
    7.6629  -13.8602   22.3392 O   0  0  0  0  0  0  0  0  0  0  0  0
    4.0540  -21.9054   23.2162 N   0  0  0  0  0  0  0  0  0  0  0  0
    5.2186  -21.9702   22.4025 C   0  0  0  0  0  0  0  0  0  0  0  0
    5.6519  -23.0852   21.9211 N   0  0  0  0  0  0  0  0  0  0  0  0
    5.9577  -20.7869   22.0847 N   0  0  0  0  0  0  0  0  0  0  0  0
    5.4870  -19.4686   22.4452 C   0  0  0  0  0  0  0  0  0  0  0  0
    6.6287  -18.6081   22.9377 C   0  0  0  0  0  0  0  0  0  0  0  0
    7.1121  -17.7223   21.8244 C   0  0  0  0  0  0  0  0  0  0  0  0
    7.9794  -16.6261   22.2617 C   0  0  2  0  0  0  0  0  0  0  0  0
    8.4336  -15.7056   21.2916 N   0  0  0  0  0  0  0  0  0  0  0  0
    9.1941  -17.2240   22.9305 C   0  0  0  0  0  0  0  0  0  0  0  0
    9.1530  -18.4186   23.2350 O   0  0  0  0  0  0  0  0  0  0  0  0
    6.5010  -23.1433   21.3543 N   0  0  0  0  0  0  0  0  0  0  0  0
   10.3616  -16.4817   23.2188 C   0  0  1  0  0  0  0  0  0  0  0  0
   11.4656  -16.9705   23.9859 C   0  0  0  0  0  0  0  0  0  0  0  0
   12.6764  -16.1017   23.9618 C   0  0  0  0  0  0  0  0  0  0  0  0
   13.3073  -15.9971   22.6254 O   0  0  0  0  0  0  0  0  0  0  0  0
   14.5318  -16.2122   22.4082 C   0  0  0  0  0  0  0  0  0  0  0  0
   11.0305  -17.1202   25.4021 O   0  0  0  0  0  0  0  0  0  0  0  0
   11.8047  -17.7879   26.3381 O   0  0  0  0  0  0  0  0  0  0  0  0
   12.4449  -15.6337   21.5737 O   0  0  0  0  0  0  0  0  0  0  0  0
  1  2  1  0
  3  2  1  0
  4  3  1  0
  5  4  1  0
  5  1  1  0
  5  6  1  1
  7  6  2  0
  9  8  1  0
  9 10  2  0
 11  9  1  0
 12 13  1  0
 12 11  1  0
 14 13  1  0
 15 14  1  6
 15 16  1  0
 16  6  1  0
 17 15  1  0
 17 18  2  0
 19 17  1  0
 20 19  1  0
 20 21  1  1
 21 22  1  0
 22 26  1  0
 22 23  2  0
 24 20  1  0
 25 24  1  0
 27 24  2  0
M  END
$$$$
