PRD.pdb
     RDKit          3D

 27 27  0  0  1  0  0  0  0  0999 V2000
    8.3012  -14.7144   18.2440 N   0  0  0  0  0  0  0  0  0  0  0  0
    7.0132  -14.1793   17.9622 C   0  0  0  0  0  0  0  0  0  0  0  0
    6.7356  -13.1488   19.0367 C   0  0  0  0  0  0  0  0  0  0  0  0
    8.1271  -12.6078   19.2925 C   0  0  0  0  0  0  0  0  0  0  0  0
    8.9209  -13.9268   19.2577 C   0  0  1  0  0  0  0  0  0  0  0  0
    8.8055  -14.5107   20.6172 C   0  0  0  0  0  0  0  0  0  0  0  0
    9.1836  -13.8548   21.6478 O   0  0  0  0  0  0  0  0  0  0  0  0
    3.2284  -20.7593   21.8123 N   0  0  0  0  0  0  0  0  0  0  0  0
    2.9728  -19.5059   21.1907 C   0  0  0  0  0  0  0  0  0  0  0  0
    1.8731  -19.2703   20.5597 N   0  0  0  0  0  0  0  0  0  0  0  0
    3.9369  -18.4501   21.2458 N   0  0  0  0  0  0  0  0  0  0  0  0
    5.2404  -18.6322   21.8433 C   0  0  0  0  0  0  0  0  0  0  0  0
    6.0224  -17.3380   21.8281 C   0  0  0  0  0  0  0  0  0  0  0  0
    7.4024  -17.5736   22.3740 C   0  0  0  0  0  0  0  0  0  0  0  0
    8.3336  -16.4650   22.1533 C   0  0  2  0  0  0  0  0  0  0  0  0
    8.2906  -15.7933   20.9116 N   0  0  0  0  0  0  0  0  0  0  0  0
    9.7386  -16.9840   22.3454 C   0  0  0  0  0  0  0  0  0  0  0  0
   10.2408  -17.6367   21.4271 O   0  0  0  0  0  0  0  0  0  0  0  0
    1.7074  -18.3954   20.0572 N   0  0  0  0  0  0  0  0  0  0  0  0
   10.4929  -16.7564   23.5186 C   0  0  1  0  0  0  0  0  0  0  0  0
   11.8282  -17.2246   23.7287 C   0  0  0  0  0  0  0  0  0  0  0  0
   12.8806  -16.1732   23.6371 C   0  0  0  0  0  0  0  0  0  0  0  0
   14.2559  -16.6896   23.8291 O   0  0  0  0  0  0  0  0  0  0  0  0
   14.8257  -17.4835   23.0304 C   0  0  0  0  0  0  0  0  0  0  0  0
   11.9072  -17.8430   25.0810 O   0  0  0  0  0  0  0  0  0  0  0  0
   10.8706  -17.7371   25.9950 O   0  0  0  0  0  0  0  0  0  0  0  0
   14.9189  -16.2361   24.9853 O   0  0  0  0  0  0  0  0  0  0  0  0
  1  2  1  0
  3  2  1  0
  4  3  1  0
  5  4  1  0
  5  1  1  0
  5  6  1  1
  7  6  2  0
  9  8  1  0
  9 10  2  0
 11  9  1  0
 12 13  1  0
 12 11  1  0
 14 13  1  0
 15 14  1  6
 15 16  1  0
 16  6  1  0
 17 15  1  0
 17 18  2  0
 19 17  1  0
 20 19  1  0
 20 21  1  1
 21 22  1  0
 22 26  1  0
 22 23  2  0
 24 20  1  0
 25 24  1  0
 27 24  2  0
M  END
$$$$
