PRD.pdb
     RDKit          3D

 27 27  0  0  1  0  0  0  0  0999 V2000
    9.6940  -19.3169   18.1289 N   0  0  0  0  0  0  0  0  0  0  0  0
    9.1265  -18.4455   17.1576 C   0  0  0  0  0  0  0  0  0  0  0  0
   10.1529  -17.3604   16.9072 C   0  0  0  0  0  0  0  0  0  0  0  0
   11.4450  -18.1313   17.0822 C   0  0  0  0  0  0  0  0  0  0  0  0
   11.0676  -18.9813   18.3094 C   0  0  1  0  0  0  0  0  0  0  0  0
   11.3188  -18.1242   19.4946 C   0  0  0  0  0  0  0  0  0  0  0  0
   12.4675  -17.5986   19.6932 O   0  0  0  0  0  0  0  0  0  0  0  0
    7.1138  -12.0001   18.6720 N   0  0  0  0  0  0  0  0  0  0  0  0
    7.7299  -12.7369   19.7209 C   0  0  0  0  0  0  0  0  0  0  0  0
    8.9606  -12.5463   20.0554 N   0  0  0  0  0  0  0  0  0  0  0  0
    6.9970  -13.7254   20.4510 N   0  0  0  0  0  0  0  0  0  0  0  0
    7.6097  -14.5229   21.4893 C   0  0  0  0  0  0  0  0  0  0  0  0
    8.8496  -15.2163   20.9712 C   0  0  0  0  0  0  0  0  0  0  0  0
    9.3921  -16.1389   22.0258 C   0  0  0  0  0  0  0  0  0  0  0  0
   10.5367  -16.9424   21.5907 C   0  0  2  0  0  0  0  0  0  0  0  0
   10.3648  -17.8082   20.4880 N   0  0  0  0  0  0  0  0  0  0  0  0
   10.9990  -17.7771   22.7611 C   0  0  0  0  0  0  0  0  0  0  0  0
   10.4787  -18.8842   22.9188 O   0  0  0  0  0  0  0  0  0  0  0  0
    9.4083  -13.0661   20.8137 N   0  0  0  0  0  0  0  0  0  0  0  0
   11.9906  -17.3483   23.6722 C   0  0  2  0  0  0  0  0  0  0  0  0
   12.4334  -18.1024   24.8044 C   0  0  0  0  0  0  0  0  0  0  0  0
   13.8469  -17.8542   25.2063 C   0  0  0  0  0  0  0  0  0  0  0  0
   14.8234  -18.0729   24.1137 O   0  0  0  0  0  0  0  0  0  0  0  0
   14.6818  -18.9414   23.2089 C   0  0  0  0  0  0  0  0  0  0  0  0
   11.5577  -17.7765   25.9639 O   0  0  0  0  0  0  0  0  0  0  0  0
   11.6747  -18.4370   27.1768 O   0  0  0  0  0  0  0  0  0  0  0  0
   15.9554  -17.2363   24.1346 O   0  0  0  0  0  0  0  0  0  0  0  0
  1  2  1  0
  3  2  1  0
  4  3  1  0
  5  4  1  0
  5  1  1  0
  5  6  1  1
  7  6  2  0
  9  8  1  0
  9 10  2  0
 11  9  1  0
 12 13  1  0
 12 11  1  0
 14 13  1  0
 15 14  1  1
 15 16  1  0
 16  6  1  0
 17 15  1  0
 17 18  2  0
 19 17  1  0
 20 19  1  0
 20 21  1  6
 21 22  1  0
 22 26  1  0
 22 23  2  0
 24 20  1  0
 25 24  1  0
 27 24  2  0
M  END
$$$$
