PRD.pdb
     RDKit          3D

 27 27  0  0  1  0  0  0  0  0999 V2000
    8.3003  -14.7057   22.5959 N   0  0  0  0  0  0  0  0  0  0  0  0
    7.7871  -13.6826   21.7505 C   0  0  0  0  0  0  0  0  0  0  0  0
    7.4510  -14.3481   20.4322 C   0  0  0  0  0  0  0  0  0  0  0  0
    7.0139  -15.7214   20.8985 C   0  0  0  0  0  0  0  0  0  0  0  0
    8.0813  -15.9723   21.9797 C   0  0  1  0  0  0  0  0  0  0  0  0
    9.2712  -16.4994   21.2663 C   0  0  0  0  0  0  0  0  0  0  0  0
    9.1757  -16.9481   20.0727 O   0  0  0  0  0  0  0  0  0  0  0  0
    8.1332  -13.7663   16.1506 N   0  0  0  0  0  0  0  0  0  0  0  0
    8.9152  -13.3037   17.2447 C   0  0  0  0  0  0  0  0  0  0  0  0
    8.4805  -12.4049   18.0607 N   0  0  0  0  0  0  0  0  0  0  0  0
   10.2259  -13.8265   17.4819 N   0  0  0  0  0  0  0  0  0  0  0  0
   10.4471  -15.0041   18.2904 C   0  0  0  0  0  0  0  0  0  0  0  0
   10.5958  -14.6328   19.7487 C   0  0  0  0  0  0  0  0  0  0  0  0
   11.9068  -15.1483   20.2715 C   0  0  0  0  0  0  0  0  0  0  0  0
   11.7916  -16.3438   21.1096 C   0  0  2  0  0  0  0  0  0  0  0  0
   10.5785  -16.5622   21.7991 N   0  0  0  0  0  0  0  0  0  0  0  0
   12.9011  -16.3105   22.1334 C   0  0  0  0  0  0  0  0  0  0  0  0
   13.9908  -15.8491   21.7854 O   0  0  0  0  0  0  0  0  0  0  0  0
    9.0665  -12.0052   18.7972 N   0  0  0  0  0  0  0  0  0  0  0  0
   12.7455  -16.7801   23.4572 C   0  0  1  0  0  0  0  0  0  0  0  0
   13.8176  -16.9539   24.3882 C   0  0  0  0  0  0  0  0  0  0  0  0
   13.3912  -17.2855   25.7773 C   0  0  0  0  0  0  0  0  0  0  0  0
   12.0270  -17.8575   25.8604 O   0  0  0  0  0  0  0  0  0  0  0  0
   11.3286  -18.1570   24.8527 C   0  0  0  0  0  0  0  0  0  0  0  0
   14.6979  -18.0509   23.8993 O   0  0  0  0  0  0  0  0  0  0  0  0
   15.9533  -18.2776   24.4414 O   0  0  0  0  0  0  0  0  0  0  0  0
   11.5308  -18.0576   27.1625 O   0  0  0  0  0  0  0  0  0  0  0  0
  1  2  1  0
  3  2  1  0
  4  3  1  0
  5  4  1  0
  5  1  1  0
  5  6  1  6
  7  6  2  0
  9  8  1  0
  9 10  2  0
 11  9  1  0
 12 13  1  0
 12 11  1  0
 14 13  1  0
 15 14  1  1
 15 16  1  0
 16  6  1  0
 17 15  1  0
 17 18  2  0
 19 17  1  0
 20 19  1  0
 20 21  1  1
 21 22  1  0
 22 26  1  0
 22 23  2  0
 24 20  1  0
 25 24  1  0
 27 24  2  0
M  END
$$$$
