PRD.pdb
     RDKit          3D

 27 27  0  0  1  0  0  0  0  0999 V2000
    8.3304  -14.3979   17.5484 N   0  0  0  0  0  0  0  0  0  0  0  0
    7.0210  -13.8703   17.3706 C   0  0  0  0  0  0  0  0  0  0  0  0
    6.7359  -13.0182   18.5898 C   0  0  0  0  0  0  0  0  0  0  0  0
    8.1156  -12.4748   18.8984 C   0  0  0  0  0  0  0  0  0  0  0  0
    8.9481  -13.7473   18.6562 C   0  0  1  0  0  0  0  0  0  0  0  0
    8.8801  -14.5277   19.9166 C   0  0  0  0  0  0  0  0  0  0  0  0
    9.3133  -14.0386   21.0159 O   0  0  0  0  0  0  0  0  0  0  0  0
    8.3884  -22.1697   19.3824 N   0  0  0  0  0  0  0  0  0  0  0  0
    7.4961  -21.6420   18.4087 C   0  0  0  0  0  0  0  0  0  0  0  0
    7.4254  -22.1269   17.2159 N   0  0  0  0  0  0  0  0  0  0  0  0
    6.6347  -20.5435   18.7226 N   0  0  0  0  0  0  0  0  0  0  0  0
    6.7028  -19.8534   19.9909 C   0  0  0  0  0  0  0  0  0  0  0  0
    7.5561  -18.6100   19.8794 C   0  0  0  0  0  0  0  0  0  0  0  0
    7.5348  -17.8625   21.1826 C   0  0  0  0  0  0  0  0  0  0  0  0
    8.3534  -16.6481   21.1926 C   0  0  2  0  0  0  0  0  0  0  0  0
    8.3556  -15.8342   20.0383 N   0  0  0  0  0  0  0  0  0  0  0  0
    9.7824  -17.0451   21.4764 C   0  0  0  0  0  0  0  0  0  0  0  0
   10.5408  -17.1893   20.5144 O   0  0  0  0  0  0  0  0  0  0  0  0
    6.7616  -21.7767   16.5215 N   0  0  0  0  0  0  0  0  0  0  0  0
   10.2813  -17.2557   22.7818 C   0  0  2  0  0  0  0  0  0  0  0  0
   11.6426  -17.5694   23.0897 C   0  0  0  0  0  0  0  0  0  0  0  0
   12.4971  -16.3921   23.4139 C   0  0  0  0  0  0  0  0  0  0  0  0
   13.8983  -16.7457   23.7406 O   0  0  0  0  0  0  0  0  0  0  0  0
   14.2540  -17.2693   24.8325 C   0  0  0  0  0  0  0  0  0  0  0  0
   11.6645  -18.4936   24.2571 O   0  0  0  0  0  0  0  0  0  0  0  0
   10.5124  -18.8126   24.9587 O   0  0  0  0  0  0  0  0  0  0  0  0
   14.8459  -16.4596   22.7396 O   0  0  0  0  0  0  0  0  0  0  0  0
  1  2  1  0
  3  2  1  0
  4  3  1  0
  5  4  1  0
  5  1  1  0
  5  6  1  1
  7  6  2  0
  9  8  1  0
  9 10  2  0
 11  9  1  0
 12 13  1  0
 12 11  1  0
 14 13  1  0
 15 14  1  6
 15 16  1  0
 16  6  1  0
 17 15  1  0
 17 18  2  0
 19 17  1  0
 20 19  1  0
 20 21  1  1
 21 22  1  0
 22 26  1  0
 22 23  2  0
 24 20  1  0
 25 24  1  0
 27 24  2  0
M  END
$$$$
