PRD.pdb
     RDKit          3D

 27 27  0  0  1  0  0  0  0  0999 V2000
    8.9418  -13.9183   17.6155 N   0  0  0  0  0  0  0  0  0  0  0  0
    7.6102  -13.8537   17.1182 C   0  0  0  0  0  0  0  0  0  0  0  0
    6.7297  -13.5109   18.3018 C   0  0  0  0  0  0  0  0  0  0  0  0
    7.6539  -12.6230   19.1090 C   0  0  0  0  0  0  0  0  0  0  0  0
    8.9663  -13.4120   18.9478 C   0  0  1  0  0  0  0  0  0  0  0  0
    8.9378  -14.4717   19.9865 C   0  0  0  0  0  0  0  0  0  0  0  0
    8.7317  -14.1817   21.2148 O   0  0  0  0  0  0  0  0  0  0  0  0
    8.8575  -23.5681   20.8406 N   0  0  0  0  0  0  0  0  0  0  0  0
    9.7070  -22.4879   20.4740 C   0  0  0  0  0  0  0  0  0  0  0  0
   10.9890  -22.6166   20.4235 N   0  0  0  0  0  0  0  0  0  0  0  0
    9.1625  -21.2068   20.1430 N   0  0  0  0  0  0  0  0  0  0  0  0
    8.2070  -20.5360   20.9953 C   0  0  0  0  0  0  0  0  0  0  0  0
    8.7536  -19.2095   21.4730 C   0  0  0  0  0  0  0  0  0  0  0  0
    8.6813  -18.2018   20.3608 C   0  0  0  0  0  0  0  0  0  0  0  0
    9.2073  -16.8807   20.7114 C   0  0  2  0  0  0  0  0  0  0  0  0
    9.1259  -15.8516   19.7474 N   0  0  0  0  0  0  0  0  0  0  0  0
   10.6600  -17.0376   21.0927 C   0  0  0  0  0  0  0  0  0  0  0  0
   11.4901  -17.0971   20.1824 O   0  0  0  0  0  0  0  0  0  0  0  0
   11.6072  -21.8415   20.1733 N   0  0  0  0  0  0  0  0  0  0  0  0
   11.1030  -17.1182   22.4323 C   0  0  2  0  0  0  0  0  0  0  0  0
   12.4743  -17.2067   22.8299 C   0  0  0  0  0  0  0  0  0  0  0  0
   12.7700  -16.6520   24.1813 C   0  0  0  0  0  0  0  0  0  0  0  0
   14.2065  -16.6957   24.5412 O   0  0  0  0  0  0  0  0  0  0  0  0
   15.1099  -17.1287   23.7735 C   0  0  0  0  0  0  0  0  0  0  0  0
   12.8807  -18.6393   22.8179 O   0  0  0  0  0  0  0  0  0  0  0  0
   11.9997  -19.6520   23.1636 O   0  0  0  0  0  0  0  0  0  0  0  0
   14.5257  -16.2145   25.8252 O   0  0  0  0  0  0  0  0  0  0  0  0
  1  2  1  0
  3  2  1  0
  4  3  1  0
  5  4  1  0
  5  1  1  0
  5  6  1  1
  7  6  2  0
  9  8  1  0
  9 10  2  0
 11  9  1  0
 12 13  1  0
 12 11  1  0
 14 13  1  0
 15 14  1  6
 15 16  1  0
 16  6  1  0
 17 15  1  0
 17 18  2  0
 19 17  1  0
 20 19  1  0
 20 21  1  1
 21 22  1  0
 22 26  1  0
 22 23  2  0
 24 20  1  0
 25 24  1  0
 27 24  2  0
M  END
$$$$
