PRD.pdb
     RDKit          3D

 27 27  0  0  1  0  0  0  0  0999 V2000
    8.3180  -13.8021   18.1806 N   0  0  0  0  0  0  0  0  0  0  0  0
    7.2589  -13.6571   19.1197 C   0  0  0  0  0  0  0  0  0  0  0  0
    7.8718  -13.0450   20.3620 C   0  0  0  0  0  0  0  0  0  0  0  0
    8.9433  -12.1616   19.7571 C   0  0  0  0  0  0  0  0  0  0  0  0
    9.4676  -13.1125   18.6653 C   0  0  1  0  0  0  0  0  0  0  0  0
   10.4541  -13.9982   19.3323 C   0  0  0  0  0  0  0  0  0  0  0  0
   11.4910  -13.5138   19.9028 O   0  0  0  0  0  0  0  0  0  0  0  0
   12.6872  -20.5037   16.7143 N   0  0  0  0  0  0  0  0  0  0  0  0
   12.3238  -19.8726   15.4927 C   0  0  0  0  0  0  0  0  0  0  0  0
   11.9173  -20.5475   14.4719 N   0  0  0  0  0  0  0  0  0  0  0  0
   12.3958  -18.4504   15.3526 N   0  0  0  0  0  0  0  0  0  0  0  0
   12.8783  -17.5984   16.4159 C   0  0  0  0  0  0  0  0  0  0  0  0
   11.8326  -17.4469   17.4976 C   0  0  0  0  0  0  0  0  0  0  0  0
   12.3751  -16.5961   18.6110 C   0  0  0  0  0  0  0  0  0  0  0  0
   11.4111  -16.3148   19.6771 C   0  0  2  0  0  0  0  0  0  0  0  0
   10.3637  -15.4063   19.4082 N   0  0  0  0  0  0  0  0  0  0  0  0
   12.1708  -15.7971   20.8751 C   0  0  0  0  0  0  0  0  0  0  0  0
   12.4809  -14.6033   20.8872 O   0  0  0  0  0  0  0  0  0  0  0  0
   11.6726  -20.1029   13.5843 N   0  0  0  0  0  0  0  0  0  0  0  0
   12.5370  -16.6128   21.9695 C   0  0  2  0  0  0  0  0  0  0  0  0
   13.2032  -16.1429   23.1451 C   0  0  0  0  0  0  0  0  0  0  0  0
   12.8024  -16.8283   24.4064 C   0  0  0  0  0  0  0  0  0  0  0  0
   11.3374  -16.8664   24.6234 O   0  0  0  0  0  0  0  0  0  0  0  0
   10.5867  -15.8564   24.5263 C   0  0  0  0  0  0  0  0  0  0  0  0
   14.6700  -16.3250   22.9644 O   0  0  0  0  0  0  0  0  0  0  0  0
   15.5886  -15.7820   23.8490 O   0  0  0  0  0  0  0  0  0  0  0  0
   10.8051  -18.1270   24.9544 O   0  0  0  0  0  0  0  0  0  0  0  0
  1  2  1  0
  3  2  1  0
  4  3  1  0
  5  4  1  0
  5  1  1  0
  5  6  1  1
  7  6  2  0
  9  8  1  0
  9 10  2  0
 11  9  1  0
 12 13  1  0
 12 11  1  0
 14 13  1  0
 15 14  1  6
 15 16  1  0
 16  6  1  0
 17 15  1  0
 17 18  2  0
 19 17  1  0
 20 19  1  0
 20 21  1  6
 21 22  1  0
 22 26  1  0
 22 23  2  0
 24 20  1  0
 25 24  1  0
 27 24  2  0
M  END
$$$$
