PRD.pdb
     RDKit          3D

 27 27  0  0  1  0  0  0  0  0999 V2000
    4.2368  -20.8458   23.5732 N   0  0  0  0  0  0  0  0  0  0  0  0
    3.1854  -20.7362   22.6208 C   0  0  0  0  0  0  0  0  0  0  0  0
    3.8127  -20.9794   21.2639 C   0  0  0  0  0  0  0  0  0  0  0  0
    4.8891  -21.9862   21.6133 C   0  0  0  0  0  0  0  0  0  0  0  0
    5.3965  -21.3669   22.9286 C   0  0  1  0  0  0  0  0  0  0  0  0
    6.3783  -20.3244   22.5389 C   0  0  0  0  0  0  0  0  0  0  0  0
    7.5130  -20.6436   22.0430 O   0  0  0  0  0  0  0  0  0  0  0  0
    7.7571  -11.6020   20.4745 N   0  0  0  0  0  0  0  0  0  0  0  0
    8.1725  -12.6185   19.5707 C   0  0  0  0  0  0  0  0  0  0  0  0
    8.9496  -12.3667   18.5729 N   0  0  0  0  0  0  0  0  0  0  0  0
    7.7391  -13.9716   19.7396 N   0  0  0  0  0  0  0  0  0  0  0  0
    7.0103  -14.4029   20.9111 C   0  0  0  0  0  0  0  0  0  0  0  0
    7.6526  -15.6286   21.5207 C   0  0  0  0  0  0  0  0  0  0  0  0
    6.5895  -16.6146   21.9149 C   0  0  0  0  0  0  0  0  0  0  0  0
    7.1069  -17.9075   22.3684 C   0  0  2  0  0  0  0  0  0  0  0  0
    6.1802  -18.9310   22.6657 N   0  0  0  0  0  0  0  0  0  0  0  0
    7.9434  -17.6734   23.6036 C   0  0  0  0  0  0  0  0  0  0  0  0
    7.3837  -17.2008   24.5959 O   0  0  0  0  0  0  0  0  0  0  0  0
    9.2717  -13.0960   17.9327 N   0  0  0  0  0  0  0  0  0  0  0  0
    9.3237  -17.9695   23.6697 C   0  0  1  0  0  0  0  0  0  0  0  0
   10.1561  -17.7105   24.8040 C   0  0  0  0  0  0  0  0  0  0  0  0
   10.4820  -18.9099   25.6265 C   0  0  0  0  0  0  0  0  0  0  0  0
   11.4466  -18.6388   26.7179 O   0  0  0  0  0  0  0  0  0  0  0  0
   11.5531  -17.5240   27.3000 C   0  0  0  0  0  0  0  0  0  0  0  0
   11.4345  -17.1134   24.3283 O   0  0  0  0  0  0  0  0  0  0  0  0
   11.6618  -16.8449   22.9875 O   0  0  0  0  0  0  0  0  0  0  0  0
   12.2667  -19.7221   27.0865 O   0  0  0  0  0  0  0  0  0  0  0  0
  1  2  1  0
  3  2  1  0
  4  3  1  0
  5  4  1  0
  5  1  1  0
  5  6  1  6
  7  6  2  0
  9  8  1  0
  9 10  2  0
 11  9  1  0
 12 13  1  0
 12 11  1  0
 14 13  1  0
 15 14  1  1
 15 16  1  0
 16  6  1  0
 17 15  1  0
 17 18  2  0
 19 17  1  0
 20 19  1  0
 20 21  1  6
 21 22  1  0
 22 26  1  0
 22 23  2  0
 24 20  1  0
 25 24  1  0
 27 24  2  0
M  END
$$$$
