PRD.pdb
     RDKit          3D

 27 27  0  0  1  0  0  0  0  0999 V2000
    6.2543  -20.2683   23.1809 N   0  0  0  0  0  0  0  0  0  0  0  0
    7.0648  -21.4260   23.0154 C   0  0  0  0  0  0  0  0  0  0  0  0
    8.2706  -21.2336   23.9113 C   0  0  0  0  0  0  0  0  0  0  0  0
    7.6603  -20.4656   25.0655 C   0  0  0  0  0  0  0  0  0  0  0  0
    6.7519  -19.5044   24.2768 C   0  0  1  0  0  0  0  0  0  0  0  0
    7.6150  -18.3691   23.8661 C   0  0  0  0  0  0  0  0  0  0  0  0
    8.1969  -17.6375   24.7387 O   0  0  0  0  0  0  0  0  0  0  0  0
    6.9856  -14.3967   18.2184 N   0  0  0  0  0  0  0  0  0  0  0  0
    7.5850  -13.1540   18.5637 C   0  0  0  0  0  0  0  0  0  0  0  0
    8.1896  -12.4234   17.6899 N   0  0  0  0  0  0  0  0  0  0  0  0
    7.5362  -12.6648   19.9074 N   0  0  0  0  0  0  0  0  0  0  0  0
    7.3273  -13.5430   21.0363 C   0  0  0  0  0  0  0  0  0  0  0  0
    8.3359  -14.6696   21.0326 C   0  0  0  0  0  0  0  0  0  0  0  0
    8.1185  -15.5480   22.2322 C   0  0  0  0  0  0  0  0  0  0  0  0
    8.6660  -16.8994   22.0949 C   0  0  2  0  0  0  0  0  0  0  0  0
    7.8779  -17.9872   22.5312 N   0  0  0  0  0  0  0  0  0  0  0  0
    9.9774  -16.9549   22.8415 C   0  0  0  0  0  0  0  0  0  0  0  0
   10.0067  -17.5763   23.9066 O   0  0  0  0  0  0  0  0  0  0  0  0
    8.6842  -11.5649   17.9426 N   0  0  0  0  0  0  0  0  0  0  0  0
   11.1581  -16.3324   22.3770 C   0  0  1  0  0  0  0  0  0  0  0  0
   12.4694  -16.5991   22.8828 C   0  0  0  0  0  0  0  0  0  0  0  0
   12.5591  -16.6932   24.3675 C   0  0  0  0  0  0  0  0  0  0  0  0
   13.8923  -16.3373   24.9068 O   0  0  0  0  0  0  0  0  0  0  0  0
   14.8294  -15.8635   24.2066 C   0  0  0  0  0  0  0  0  0  0  0  0
   12.9475  -17.8865   22.3070 O   0  0  0  0  0  0  0  0  0  0  0  0
   12.2740  -19.0787   22.5225 O   0  0  0  0  0  0  0  0  0  0  0  0
   14.0690  -16.5610   26.2855 O   0  0  0  0  0  0  0  0  0  0  0  0
  1  2  1  0
  3  2  1  0
  4  3  1  0
  5  4  1  0
  5  1  1  0
  5  6  1  6
  7  6  2  0
  9  8  1  0
  9 10  2  0
 11  9  1  0
 12 13  1  0
 12 11  1  0
 14 13  1  0
 15 14  1  1
 15 16  1  0
 16  6  1  0
 17 15  1  0
 17 18  2  0
 19 17  1  0
 20 19  1  0
 20 21  1  6
 21 22  1  0
 22 26  1  0
 22 23  2  0
 24 20  1  0
 25 24  1  0
 27 24  2  0
M  END
$$$$
