PRD.pdb
     RDKit          3D

 27 27  0  0  1  0  0  0  0  0999 V2000
    8.4555  -15.1099   18.5624 N   0  0  0  0  0  0  0  0  0  0  0  0
    7.1642  -14.6394   18.1940 C   0  0  0  0  0  0  0  0  0  0  0  0
    6.7874  -13.5861   19.2149 C   0  0  0  0  0  0  0  0  0  0  0  0
    8.1401  -12.9787   19.5244 C   0  0  0  0  0  0  0  0  0  0  0  0
    8.9871  -14.2634   19.5786 C   0  0  1  0  0  0  0  0  0  0  0  0
    8.8217  -14.8058   20.9501 C   0  0  0  0  0  0  0  0  0  0  0  0
    9.1594  -14.1175   21.9736 O   0  0  0  0  0  0  0  0  0  0  0  0
    1.8855  -18.4513   20.1562 N   0  0  0  0  0  0  0  0  0  0  0  0
    3.2849  -18.6306   20.3352 C   0  0  0  0  0  0  0  0  0  0  0  0
    4.0961  -18.7001   19.3353 N   0  0  0  0  0  0  0  0  0  0  0  0
    3.8483  -18.7397   21.6460 N   0  0  0  0  0  0  0  0  0  0  0  0
    5.2595  -18.9701   21.8575 C   0  0  0  0  0  0  0  0  0  0  0  0
    6.0292  -17.6697   21.8013 C   0  0  0  0  0  0  0  0  0  0  0  0
    7.2057  -17.7368   22.7335 C   0  0  0  0  0  0  0  0  0  0  0  0
    8.1835  -16.6627   22.5458 C   0  0  2  0  0  0  0  0  0  0  0  0
    8.2988  -16.0805   21.2642 N   0  0  0  0  0  0  0  0  0  0  0  0
    9.5441  -17.1908   22.9334 C   0  0  0  0  0  0  0  0  0  0  0  0
   10.0583  -18.0439   22.2059 O   0  0  0  0  0  0  0  0  0  0  0  0
    5.1041  -18.8224   19.4559 N   0  0  0  0  0  0  0  0  0  0  0  0
   10.2445  -16.7541   24.0805 C   0  0  1  0  0  0  0  0  0  0  0  0
   11.4548  -17.3426   24.5658 C   0  0  0  0  0  0  0  0  0  0  0  0
   12.6435  -16.4443   24.5322 C   0  0  0  0  0  0  0  0  0  0  0  0
   13.2380  -16.2941   23.1834 O   0  0  0  0  0  0  0  0  0  0  0  0
   12.7902  -16.8657   22.1511 C   0  0  0  0  0  0  0  0  0  0  0  0
   11.2406  -17.7756   25.9743 O   0  0  0  0  0  0  0  0  0  0  0  0
   10.0672  -17.4927   26.6558 O   0  0  0  0  0  0  0  0  0  0  0  0
   14.3651  -15.4541   23.1068 O   0  0  0  0  0  0  0  0  0  0  0  0
  1  2  1  0
  3  2  1  0
  4  3  1  0
  5  4  1  0
  5  1  1  0
  5  6  1  1
  7  6  2  0
  9  8  1  0
  9 10  2  0
 11  9  1  0
 12 13  1  0
 12 11  1  0
 14 13  1  0
 15 14  1  6
 15 16  1  0
 16  6  1  0
 17 15  1  0
 17 18  2  0
 19 17  1  0
 20 19  1  0
 20 21  1  1
 21 22  1  0
 22 26  1  0
 22 23  2  0
 24 20  1  0
 25 24  1  0
 27 24  2  0
M  END
$$$$
