CGT.pdb
     RDKit          3D

 18 17  0  0  1  0  0  0  0  0999 V2000
   25.9207  -22.0810  -11.5174 N   0  0  0  0  0  0  0  0  0  0  0  0
   25.8258  -20.6490  -11.3344 C   0  0  1  0  0  0  0  0  0  0  0  0
   25.9590  -20.2625   -9.8926 C   0  0  0  0  0  0  0  0  0  0  0  0
   24.6488  -20.9877   -8.8928 S   0  0  0  0  0  0  0  0  0  0  0  0
   26.7914  -19.9192  -12.1985 C   0  0  0  0  0  0  0  0  0  0  0  0
   27.9472  -19.6671  -11.7730 O   0  0  0  0  0  0  0  0  0  0  0  0
   26.4626  -19.4824  -13.5140 N   0  0  0  0  0  0  0  0  0  0  0  0
   27.3703  -18.7413  -14.3404 C   0  0  0  0  0  0  0  0  0  0  0  0
   26.8258  -18.4469  -15.6812 C   0  0  0  0  0  0  0  0  0  0  0  0
   27.4635  -17.7904  -16.5369 O   0  0  0  0  0  0  0  0  0  0  0  0
   26.0951  -20.5622  -18.3828 C   0  0  0  0  0  0  0  0  0  0  0  0
   24.7508  -19.9413  -18.0676 C   0  0  1  0  0  0  0  0  0  0  0  0
   23.9748  -20.8077  -17.3105 O   0  0  0  0  0  0  0  0  0  0  0  0
   24.9699  -18.6186  -17.3243 C   0  0  2  0  0  0  0  0  0  0  0  0
   25.5343  -18.9190  -16.0255 N   0  0  0  0  0  0  0  0  0  0  0  0
   23.6953  -17.8812  -17.2213 C   0  0  0  0  0  0  0  0  0  0  0  0
   23.1322  -17.6933  -16.1325 O   0  0  0  0  0  0  0  0  0  0  0  0
   23.1206  -17.3900  -18.3771 O   0  0  0  0  0  0  0  0  0  0  0  0
  2  1  1  1
  2  3  1  0
  3  4  1  0
  5  6  2  0
  5  2  1  0
  7  5  1  0
  8  7  1  0
  9  8  1  0
  9 15  1  0
 10  9  2  0
 12 14  1  0
 12 11  1  1
 13 12  1  0
 14 15  1  1
 14 16  1  0
 16 17  2  0
 16 18  1  0
M  END
$$$$
