CGT.pdb
     RDKit          3D

 18 17  0  0  1  0  0  0  0  0999 V2000
   13.2248   -8.0210  -10.5295 N   0  0  0  0  0  0  0  0  0  0  0  0
   14.4733   -8.7428  -10.4143 C   0  0  1  0  0  0  0  0  0  0  0  0
   14.2524  -10.1857  -10.0753 C   0  0  0  0  0  0  0  0  0  0  0  0
   13.5016  -10.3724   -8.4492 S   0  0  0  0  0  0  0  0  0  0  0  0
   15.3173   -8.5785  -11.6278 C   0  0  0  0  0  0  0  0  0  0  0  0
   14.8054   -8.7043  -12.7691 O   0  0  0  0  0  0  0  0  0  0  0  0
   16.7082   -8.2787  -11.5577 N   0  0  0  0  0  0  0  0  0  0  0  0
   17.5182   -8.0542  -12.7195 C   0  0  0  0  0  0  0  0  0  0  0  0
   18.8805   -7.5855  -12.3952 C   0  0  0  0  0  0  0  0  0  0  0  0
   19.3159   -7.5442  -11.2211 O   0  0  0  0  0  0  0  0  0  0  0  0
   21.9434   -9.0885  -13.3954 C   0  0  0  0  0  0  0  0  0  0  0  0
   22.0416   -7.6814  -13.9454 C   0  0  1  0  0  0  0  0  0  0  0  0
   21.7285   -7.6594  -15.2972 O   0  0  0  0  0  0  0  0  0  0  0  0
   21.0996   -6.7660  -13.1551 C   0  0  2  0  0  0  0  0  0  0  0  0
   19.7377   -7.1637  -13.4424 N   0  0  0  0  0  0  0  0  0  0  0  0
   21.3546   -5.3554  -13.5074 C   0  0  0  0  0  0  0  0  0  0  0  0
   20.6121   -4.7267  -14.2762 O   0  0  0  0  0  0  0  0  0  0  0  0
   22.4551   -4.7259  -12.9597 O   0  0  0  0  0  0  0  0  0  0  0  0
  2  1  1  6
  2  3  1  0
  3  4  1  0
  5  6  2  0
  5  2  1  0
  7  5  1  0
  8  7  1  0
  9  8  1  0
  9 15  1  0
 10  9  2  0
 12 14  1  0
 12 11  1  1
 13 12  1  0
 14 15  1  6
 14 16  1  0
 16 17  2  0
 16 18  1  0
M  END
$$$$
