CGT.pdb
     RDKit          3D

 18 17  0  0  1  0  0  0  0  0999 V2000
   16.3215  -11.9208  -15.4172 N   0  0  0  0  0  0  0  0  0  0  0  0
   16.3247  -10.4796  -15.5441 C   0  0  1  0  0  0  0  0  0  0  0  0
   14.9433   -9.9361  -15.7489 C   0  0  0  0  0  0  0  0  0  0  0  0
   14.2508  -10.4736  -17.3218 S   0  0  0  0  0  0  0  0  0  0  0  0
   17.0157   -9.8285  -14.3993 C   0  0  0  0  0  0  0  0  0  0  0  0
   16.4588   -9.7859  -13.2730 O   0  0  0  0  0  0  0  0  0  0  0  0
   18.3065   -9.2380  -14.5201 N   0  0  0  0  0  0  0  0  0  0  0  0
   18.9913   -8.6260  -13.4190 C   0  0  0  0  0  0  0  0  0  0  0  0
   20.2765   -8.0097  -13.8053 C   0  0  0  0  0  0  0  0  0  0  0  0
   21.2096   -8.6675  -14.3217 O   0  0  0  0  0  0  0  0  0  0  0  0
   21.5376   -6.9328  -16.3410 C   0  0  0  0  0  0  0  0  0  0  0  0
   21.5085   -5.6479  -15.5410 C   0  0  1  0  0  0  0  0  0  0  0  0
   20.3210   -4.9625  -15.7552 O   0  0  0  0  0  0  0  0  0  0  0  0
   21.6843   -5.9774  -14.0542 C   0  0  2  0  0  0  0  0  0  0  0  0
   20.4748   -6.6229  -13.5890 N   0  0  0  0  0  0  0  0  0  0  0  0
   21.9858   -4.7465  -13.2973 C   0  0  0  0  0  0  0  0  0  0  0  0
   21.1282   -4.1726  -12.6096 O   0  0  0  0  0  0  0  0  0  0  0  0
   23.2634   -4.2264  -13.3631 O   0  0  0  0  0  0  0  0  0  0  0  0
  2  1  1  1
  2  3  1  0
  3  4  1  0
  5  6  2  0
  5  2  1  0
  7  5  1  0
  8  7  1  0
  9  8  1  0
  9 15  1  0
 10  9  2  0
 12 14  1  0
 12 11  1  6
 13 12  1  0
 14 15  1  1
 14 16  1  0
 16 17  2  0
 16 18  1  0
M  END
$$$$
