CGT.pdb
     RDKit          3D

 18 17  0  0  1  0  0  0  0  0999 V2000
   27.7880  -19.6301  -15.9390 N   0  0  0  0  0  0  0  0  0  0  0  0
   26.6064  -18.8012  -16.0378 C   0  0  1  0  0  0  0  0  0  0  0  0
   26.5678  -18.0391  -17.3276 C   0  0  0  0  0  0  0  0  0  0  0  0
   28.0340  -17.0137  -17.5305 S   0  0  0  0  0  0  0  0  0  0  0  0
   25.3633  -19.5874  -15.8177 C   0  0  0  0  0  0  0  0  0  0  0  0
   25.4286  -20.8335  -15.6644 O   0  0  0  0  0  0  0  0  0  0  0  0
   24.0740  -18.9834  -15.7713 N   0  0  0  0  0  0  0  0  0  0  0  0
   22.8825  -19.7104  -15.4426 C   0  0  0  0  0  0  0  0  0  0  0  0
   21.6751  -18.8607  -15.4090 C   0  0  0  0  0  0  0  0  0  0  0  0
   21.7111  -17.6537  -15.0747 O   0  0  0  0  0  0  0  0  0  0  0  0
   18.9269  -19.1393  -18.2093 C   0  0  0  0  0  0  0  0  0  0  0  0
   18.2749  -19.1808  -16.8436 C   0  0  1  0  0  0  0  0  0  0  0  0
   17.9282  -20.4810  -16.5041 O   0  0  0  0  0  0  0  0  0  0  0  0
   19.2380  -18.5881  -15.8085 C   0  0  2  0  0  0  0  0  0  0  0  0
   20.4222  -19.4195  -15.7660 N   0  0  0  0  0  0  0  0  0  0  0  0
   18.5723  -18.4982  -14.4941 C   0  0  0  0  0  0  0  0  0  0  0  0
   17.6788  -17.6690  -14.2666 O   0  0  0  0  0  0  0  0  0  0  0  0
   18.9630  -19.3676  -13.4946 O   0  0  0  0  0  0  0  0  0  0  0  0
  2  1  1  6
  2  3  1  0
  3  4  1  0
  5  6  2  0
  5  2  1  0
  7  5  1  0
  8  7  1  0
  9  8  1  0
  9 15  1  0
 10  9  2  0
 12 14  1  0
 12 11  1  6
 13 12  1  0
 14 15  1  1
 14 16  1  0
 16 17  2  0
 16 18  1  0
M  END
$$$$
