CGT.pdb
     RDKit          3D

 18 17  0  0  1  0  0  0  0  0999 V2000
   26.0808  -22.0256  -11.1582 N   0  0  0  0  0  0  0  0  0  0  0  0
   25.9181  -20.5893  -11.2196 C   0  0  1  0  0  0  0  0  0  0  0  0
   26.2287  -19.9376   -9.9064 C   0  0  0  0  0  0  0  0  0  0  0  0
   25.1678  -20.5643   -8.5933 S   0  0  0  0  0  0  0  0  0  0  0  0
   26.7009  -19.9947  -12.3357 C   0  0  0  0  0  0  0  0  0  0  0  0
   27.9110  -19.6998  -12.1652 O   0  0  0  0  0  0  0  0  0  0  0  0
   26.1331  -19.7376  -13.6167 N   0  0  0  0  0  0  0  0  0  0  0  0
   26.8608  -19.1120  -14.6821 C   0  0  0  0  0  0  0  0  0  0  0  0
   26.0729  -18.9809  -15.9241 C   0  0  0  0  0  0  0  0  0  0  0  0
   26.3093  -19.6662  -16.9462 O   0  0  0  0  0  0  0  0  0  0  0  0
   22.3619  -19.3914  -15.8134 C   0  0  0  0  0  0  0  0  0  0  0  0
   22.6447  -18.0598  -16.4759 C   0  0  1  0  0  0  0  0  0  0  0  0
   22.5105  -17.0202  -15.5665 O   0  0  0  0  0  0  0  0  0  0  0  0
   24.0583  -18.0834  -17.0685 C   0  0  2  0  0  0  0  0  0  0  0  0
   25.0065  -18.0484  -15.9752 N   0  0  0  0  0  0  0  0  0  0  0  0
   24.2349  -16.9490  -17.9963 C   0  0  0  0  0  0  0  0  0  0  0  0
   23.6229  -16.8803  -19.0726 O   0  0  0  0  0  0  0  0  0  0  0  0
   25.1097  -15.9392  -17.6465 O   0  0  0  0  0  0  0  0  0  0  0  0
  2  1  1  1
  2  3  1  0
  3  4  1  0
  5  6  2  0
  5  2  1  0
  7  5  1  0
  8  7  1  0
  9  8  1  0
  9 15  1  0
 10  9  2  0
 12 14  1  0
 12 11  1  1
 13 12  1  0
 14 15  1  1
 14 16  1  0
 16 17  2  0
 16 18  1  0
M  END
$$$$
