CGT.pdb
     RDKit          3D

 18 17  0  0  1  0  0  0  0  0999 V2000
   16.4939  -26.5422   -6.9648 N   0  0  0  0  0  0  0  0  0  0  0  0
   17.5474  -25.6906   -6.4566 C   0  0  1  0  0  0  0  0  0  0  0  0
   18.3748  -25.1092   -7.5625 C   0  0  0  0  0  0  0  0  0  0  0  0
   19.0193  -26.3935   -8.6476 S   0  0  0  0  0  0  0  0  0  0  0  0
   17.0151  -24.6407   -5.5476 C   0  0  0  0  0  0  0  0  0  0  0  0
   17.8083  -23.8985   -4.9148 O   0  0  0  0  0  0  0  0  0  0  0  0
   15.6192  -24.4309   -5.3553 N   0  0  0  0  0  0  0  0  0  0  0  0
   15.0934  -23.3792   -4.5347 C   0  0  0  0  0  0  0  0  0  0  0  0
   14.6289  -23.8505   -3.2145 C   0  0  0  0  0  0  0  0  0  0  0  0
   14.3442  -25.0499   -2.9905 O   0  0  0  0  0  0  0  0  0  0  0  0
   16.2059  -24.4767   -0.3007 C   0  0  0  0  0  0  0  0  0  0  0  0
   15.2654  -23.3579    0.0940 C   0  0  1  0  0  0  0  0  0  0  0  0
   15.9148  -22.1322    0.0514 O   0  0  0  0  0  0  0  0  0  0  0  0
   14.0548  -23.3637   -0.8465 C   0  0  2  0  0  0  0  0  0  0  0  0
   14.4958  -22.9211   -2.1524 N   0  0  0  0  0  0  0  0  0  0  0  0
   12.9865  -22.5052   -0.2983 C   0  0  0  0  0  0  0  0  0  0  0  0
   12.4158  -22.7698    0.7703 O   0  0  0  0  0  0  0  0  0  0  0  0
   12.6188  -21.3761   -1.0035 O   0  0  0  0  0  0  0  0  0  0  0  0
  2  1  1  6
  2  3  1  0
  3  4  1  0
  5  6  2  0
  5  2  1  0
  7  5  1  0
  8  7  1  0
  9  8  1  0
  9 15  1  0
 10  9  2  0
 12 14  1  0
 12 11  1  6
 13 12  1  0
 14 15  1  6
 14 16  1  0
 16 17  2  0
 16 18  1  0
M  END
$$$$
