CGT.pdb
     RDKit          3D

 18 17  0  0  1  0  0  0  0  0999 V2000
   18.6129  -12.0732  -18.3035 N   0  0  0  0  0  0  0  0  0  0  0  0
   19.1584  -11.6457  -17.0334 C   0  0  1  0  0  0  0  0  0  0  0  0
   19.7116  -12.7972  -16.2499 C   0  0  0  0  0  0  0  0  0  0  0  0
   18.4000  -13.7546  -15.4717 S   0  0  0  0  0  0  0  0  0  0  0  0
   20.1563  -10.5561  -17.2026 C   0  0  0  0  0  0  0  0  0  0  0  0
   21.1501  -10.7272  -17.9534 O   0  0  0  0  0  0  0  0  0  0  0  0
   20.0378   -9.3003  -16.5405 N   0  0  0  0  0  0  0  0  0  0  0  0
   20.9643   -8.2236  -16.7366 C   0  0  0  0  0  0  0  0  0  0  0  0
   20.6059   -7.0053  -15.9830 C   0  0  0  0  0  0  0  0  0  0  0  0
   19.4274   -6.7447  -15.6466 O   0  0  0  0  0  0  0  0  0  0  0  0
   19.7451   -6.4961  -13.4666 C   0  0  0  0  0  0  0  0  0  0  0  0
   21.0114   -5.6791  -13.3211 C   0  0  1  0  0  0  0  0  0  0  0  0
   22.0605   -6.4734  -12.8803 O   0  0  0  0  0  0  0  0  0  0  0  0
   21.3497   -5.0320  -14.6689 C   0  0  2  0  0  0  0  0  0  0  0  0
   21.6240   -6.0880  -15.6203 N   0  0  0  0  0  0  0  0  0  0  0  0
   22.4929   -4.1112  -14.5131 C   0  0  0  0  0  0  0  0  0  0  0  0
   23.6014   -4.3509  -15.0146 O   0  0  0  0  0  0  0  0  0  0  0  0
   22.3127   -2.9511  -13.7857 O   0  0  0  0  0  0  0  0  0  0  0  0
  2  1  1  6
  2  3  1  0
  3  4  1  0
  5  6  2  0
  5  2  1  0
  7  5  1  0
  8  7  1  0
  9  8  1  0
  9 15  1  0
 10  9  2  0
 12 14  1  0
 12 11  1  6
 13 12  1  0
 14 15  1  6
 14 16  1  0
 16 17  2  0
 16 18  1  0
M  END
$$$$
