CGT.pdb
     RDKit          3D

 18 17  0  0  1  0  0  0  0  0999 V2000
   18.2133  -22.2677  -12.3087 N   0  0  0  0  0  0  0  0  0  0  0  0
   18.9445  -21.0201  -12.2611 C   0  0  1  0  0  0  0  0  0  0  0  0
   18.6314  -20.2389  -11.0211 C   0  0  0  0  0  0  0  0  0  0  0  0
   18.9760  -18.4855  -11.2432 S   0  0  0  0  0  0  0  0  0  0  0  0
   20.4065  -21.2330  -12.4314 C   0  0  0  0  0  0  0  0  0  0  0  0
   21.0018  -22.0875  -11.7272 O   0  0  0  0  0  0  0  0  0  0  0  0
   21.1819  -20.4991  -13.3746 N   0  0  0  0  0  0  0  0  0  0  0  0
   22.6062  -20.6259  -13.4817 C   0  0  0  0  0  0  0  0  0  0  0  0
   23.1827  -19.7989  -14.5608 C   0  0  0  0  0  0  0  0  0  0  0  0
   24.4161  -19.7315  -14.7707 O   0  0  0  0  0  0  0  0  0  0  0  0
   23.7285  -20.1463  -17.7115 C   0  0  0  0  0  0  0  0  0  0  0  0
   22.7892  -18.9602  -17.7643 C   0  0  1  0  0  0  0  0  0  0  0  0
   21.4894  -19.3739  -18.0201 O   0  0  0  0  0  0  0  0  0  0  0  0
   22.8650  -18.1994  -16.4356 C   0  0  2  0  0  0  0  0  0  0  0  0
   22.3192  -19.0483  -15.3978 N   0  0  0  0  0  0  0  0  0  0  0  0
   22.1404  -16.9182  -16.5463 C   0  0  0  0  0  0  0  0  0  0  0  0
   22.5524  -15.9910  -17.2592 O   0  0  0  0  0  0  0  0  0  0  0  0
   20.9700  -16.7568  -15.8311 O   0  0  0  0  0  0  0  0  0  0  0  0
  2  1  1  1
  2  3  1  0
  3  4  1  0
  5  6  2  0
  5  2  1  0
  7  5  1  0
  8  7  1  0
  9  8  1  0
  9 15  1  0
 10  9  2  0
 12 14  1  0
 12 11  1  1
 13 12  1  0
 14 15  1  1
 14 16  1  0
 16 17  2  0
 16 18  1  0
M  END
$$$$
