CGT.pdb
     RDKit          3D

 18 17  0  0  1  0  0  0  0  0999 V2000
   28.5423  -18.0186  -18.1601 N   0  0  0  0  0  0  0  0  0  0  0  0
   28.3632  -17.5024  -16.8205 C   0  0  1  0  0  0  0  0  0  0  0  0
   28.6223  -16.0279  -16.7534 C   0  0  0  0  0  0  0  0  0  0  0  0
   30.3584  -15.6505  -17.0464 S   0  0  0  0  0  0  0  0  0  0  0  0
   27.0296  -17.8596  -16.2675 C   0  0  0  0  0  0  0  0  0  0  0  0
   26.0083  -17.7862  -16.9969 O   0  0  0  0  0  0  0  0  0  0  0  0
   26.8498  -18.2903  -14.9215 N   0  0  0  0  0  0  0  0  0  0  0  0
   25.5622  -18.5739  -14.3578 C   0  0  0  0  0  0  0  0  0  0  0  0
   25.5878  -19.6804  -13.3802 C   0  0  0  0  0  0  0  0  0  0  0  0
   26.3450  -20.6708  -13.5049 O   0  0  0  0  0  0  0  0  0  0  0  0
   25.3087  -21.3318   -8.9676 C   0  0  0  0  0  0  0  0  0  0  0  0
   25.2917  -20.2034   -9.9767 C   0  0  1  0  0  0  0  0  0  0  0  0
   26.5684  -19.6926  -10.1640 O   0  0  0  0  0  0  0  0  0  0  0  0
   24.7147  -20.7206  -11.2994 C   0  0  2  0  0  0  0  0  0  0  0  0
   24.7283  -19.6323  -12.2539 N   0  0  0  0  0  0  0  0  0  0  0  0
   23.3558  -21.2546  -11.0820 C   0  0  0  0  0  0  0  0  0  0  0  0
   22.3457  -20.6654  -11.4947 O   0  0  0  0  0  0  0  0  0  0  0  0
   23.2154  -22.4460  -10.3978 O   0  0  0  0  0  0  0  0  0  0  0  0
  2  1  1  6
  2  3  1  0
  3  4  1  0
  5  6  2  0
  5  2  1  0
  7  5  1  0
  8  7  1  0
  9  8  1  0
  9 15  1  0
 10  9  2  0
 12 14  1  0
 12 11  1  1
 13 12  1  0
 14 15  1  6
 14 16  1  0
 16 17  2  0
 16 18  1  0
M  END
$$$$
