CGT.pdb
     RDKit          3D

 18 17  0  0  1  0  0  0  0  0999 V2000
   26.6402  -17.8307  -18.8298 N   0  0  0  0  0  0  0  0  0  0  0  0
   27.6651  -18.7745  -18.4399 C   0  0  1  0  0  0  0  0  0  0  0  0
   28.8658  -18.6923  -19.3329 C   0  0  0  0  0  0  0  0  0  0  0  0
   28.4414  -19.0651  -21.0426 S   0  0  0  0  0  0  0  0  0  0  0  0
   28.0272  -18.6309  -17.0046 C   0  0  0  0  0  0  0  0  0  0  0  0
   29.1916  -18.2820  -16.6837 O   0  0  0  0  0  0  0  0  0  0  0  0
   27.0979  -18.8749  -15.9528 N   0  0  0  0  0  0  0  0  0  0  0  0
   27.4080  -18.6553  -14.5702 C   0  0  0  0  0  0  0  0  0  0  0  0
   26.2963  -19.0057  -13.6635 C   0  0  0  0  0  0  0  0  0  0  0  0
   25.2734  -18.2917  -13.5462 O   0  0  0  0  0  0  0  0  0  0  0  0
   23.5817  -22.3047  -11.5698 C   0  0  0  0  0  0  0  0  0  0  0  0
   24.7023  -21.8855  -12.4975 C   0  0  1  0  0  0  0  0  0  0  0  0
   24.2412  -21.7630  -13.8007 O   0  0  0  0  0  0  0  0  0  0  0  0
   25.2939  -20.5600  -12.0043 C   0  0  2  0  0  0  0  0  0  0  0  0
   26.3771  -20.1916  -12.8912 N   0  0  0  0  0  0  0  0  0  0  0  0
   25.7418  -20.6978  -10.6045 C   0  0  0  0  0  0  0  0  0  0  0  0
   26.9336  -20.8748  -10.3115 O   0  0  0  0  0  0  0  0  0  0  0  0
   24.7982  -20.6262   -9.5986 O   0  0  0  0  0  0  0  0  0  0  0  0
  2  1  1  6
  2  3  1  0
  3  4  1  0
  5  6  2  0
  5  2  1  0
  7  5  1  0
  8  7  1  0
  9  8  1  0
  9 15  1  0
 10  9  2  0
 12 14  1  0
 12 11  1  1
 13 12  1  0
 14 15  1  6
 14 16  1  0
 16 17  2  0
 16 18  1  0
M  END
$$$$
