CGT.pdb
     RDKit          3D

 18 17  0  0  1  0  0  0  0  0999 V2000
   19.2314  -13.2238  -17.1143 N   0  0  0  0  0  0  0  0  0  0  0  0
   19.0834  -11.7885  -17.0091 C   0  0  1  0  0  0  0  0  0  0  0  0
   17.6886  -11.4000  -16.6227 C   0  0  0  0  0  0  0  0  0  0  0  0
   16.4810  -12.0186  -17.8066 S   0  0  0  0  0  0  0  0  0  0  0  0
   20.0993  -11.1964  -16.0985 C   0  0  0  0  0  0  0  0  0  0  0  0
   20.6886  -11.9236  -15.2593 O   0  0  0  0  0  0  0  0  0  0  0  0
   20.4444   -9.8146  -16.1323 N   0  0  0  0  0  0  0  0  0  0  0  0
   21.5000   -9.2539  -15.3402 C   0  0  0  0  0  0  0  0  0  0  0  0
   21.6922   -7.8078  -15.5697 C   0  0  0  0  0  0  0  0  0  0  0  0
   21.6159   -7.2916  -16.7089 O   0  0  0  0  0  0  0  0  0  0  0  0
   20.2126   -5.6782  -16.3336 C   0  0  0  0  0  0  0  0  0  0  0  0
   20.6246   -5.0380  -15.0250 C   0  0  1  0  0  0  0  0  0  0  0  0
   19.7133   -5.3390  -14.0225 O   0  0  0  0  0  0  0  0  0  0  0  0
   22.0280   -5.5254  -14.6469 C   0  0  2  0  0  0  0  0  0  0  0  0
   21.9743   -6.9610  -14.4685 N   0  0  0  0  0  0  0  0  0  0  0  0
   22.4926   -4.8295  -13.4308 C   0  0  0  0  0  0  0  0  0  0  0  0
   22.8041   -3.6292  -13.4404 O   0  0  0  0  0  0  0  0  0  0  0  0
   22.5796   -5.5446  -12.2525 O   0  0  0  0  0  0  0  0  0  0  0  0
  2  1  1  1
  2  3  1  0
  3  4  1  0
  5  6  2  0
  5  2  1  0
  7  5  1  0
  8  7  1  0
  9  8  1  0
  9 15  1  0
 10  9  2  0
 12 14  1  0
 12 11  1  6
 13 12  1  0
 14 15  1  1
 14 16  1  0
 16 17  2  0
 16 18  1  0
M  END
$$$$
