CGT.pdb
     RDKit          3D

 18 17  0  0  1  0  0  0  0  0999 V2000
   21.2634  -13.4578  -17.0000 N   0  0  0  0  0  0  0  0  0  0  0  0
   20.5748  -12.1952  -17.1580 C   0  0  1  0  0  0  0  0  0  0  0  0
   19.1364  -12.3891  -17.5311 C   0  0  0  0  0  0  0  0  0  0  0  0
   18.9696  -13.4255  -18.9941 S   0  0  0  0  0  0  0  0  0  0  0  0
   20.7275  -11.3318  -15.9568 C   0  0  0  0  0  0  0  0  0  0  0  0
   20.5996  -11.8270  -14.8084 O   0  0  0  0  0  0  0  0  0  0  0  0
   21.0181   -9.9400  -16.0467 N   0  0  0  0  0  0  0  0  0  0  0  0
   21.0852   -9.0807  -14.9008 C   0  0  0  0  0  0  0  0  0  0  0  0
   21.4040   -7.6802  -15.2438 C   0  0  0  0  0  0  0  0  0  0  0  0
   21.6597   -7.3159  -16.4150 O   0  0  0  0  0  0  0  0  0  0  0  0
   20.7181   -3.1090  -15.0029 C   0  0  0  0  0  0  0  0  0  0  0  0
   20.4198   -4.5719  -14.7524 C   0  0  1  0  0  0  0  0  0  0  0  0
   19.7146   -5.1185  -15.8154 O   0  0  0  0  0  0  0  0  0  0  0  0
   21.7378   -5.3231  -14.5320 C   0  0  2  0  0  0  0  0  0  0  0  0
   21.4248   -6.7013  -14.2186 N   0  0  0  0  0  0  0  0  0  0  0  0
   22.5166   -4.6710  -13.4609 C   0  0  0  0  0  0  0  0  0  0  0  0
   22.3370   -4.9382  -12.2634 O   0  0  0  0  0  0  0  0  0  0  0  0
   23.4712   -3.7370  -13.8128 O   0  0  0  0  0  0  0  0  0  0  0  0
  2  1  1  1
  2  3  1  0
  3  4  1  0
  5  6  2  0
  5  2  1  0
  7  5  1  0
  8  7  1  0
  9  8  1  0
  9 15  1  0
 10  9  2  0
 12 14  1  0
 12 11  1  6
 13 12  1  0
 14 15  1  1
 14 16  1  0
 16 17  2  0
 16 18  1  0
M  END
$$$$
