CGT.pdb
     RDKit          3D

 18 17  0  0  1  0  0  0  0  0999 V2000
   26.1897  -21.7743  -11.2946 N   0  0  0  0  0  0  0  0  0  0  0  0
   25.7159  -21.4203  -12.6149 C   0  0  1  0  0  0  0  0  0  0  0  0
   24.2563  -21.7170  -12.7802 C   0  0  0  0  0  0  0  0  0  0  0  0
   23.9571  -23.4863  -12.9310 S   0  0  0  0  0  0  0  0  0  0  0  0
   26.0397  -20.0092  -12.9551 C   0  0  0  0  0  0  0  0  0  0  0  0
   26.1886  -19.1617  -12.0386 O   0  0  0  0  0  0  0  0  0  0  0  0
   26.1926  -19.5618  -14.2989 N   0  0  0  0  0  0  0  0  0  0  0  0
   26.7634  -18.2909  -14.6386 C   0  0  0  0  0  0  0  0  0  0  0  0
   27.4508  -18.2944  -15.9456 C   0  0  0  0  0  0  0  0  0  0  0  0
   28.1154  -19.2752  -16.3535 O   0  0  0  0  0  0  0  0  0  0  0  0
   27.0396  -19.6490  -18.2119 C   0  0  0  0  0  0  0  0  0  0  0  0
   26.7470  -18.2921  -18.8163 C   0  0  1  0  0  0  0  0  0  0  0  0
   25.4183  -17.9430  -18.6198 O   0  0  0  0  0  0  0  0  0  0  0  0
   27.6803  -17.2504  -18.1886 C   0  0  2  0  0  0  0  0  0  0  0  0
   27.3635  -17.1515  -16.7796 N   0  0  0  0  0  0  0  0  0  0  0  0
   27.5334  -15.9574  -18.8852 C   0  0  0  0  0  0  0  0  0  0  0  0
   26.9576  -14.9919  -18.3617 O   0  0  0  0  0  0  0  0  0  0  0  0
   28.0559  -15.8287  -20.1572 O   0  0  0  0  0  0  0  0  0  0  0  0
  2  1  1  1
  2  3  1  0
  3  4  1  0
  5  6  2  0
  5  2  1  0
  7  5  1  0
  8  7  1  0
  9  8  1  0
  9 15  1  0
 10  9  2  0
 12 14  1  0
 12 11  1  1
 13 12  1  0
 14 15  1  1
 14 16  1  0
 16 17  2  0
 16 18  1  0
M  END
$$$$
