CGT.pdb
     RDKit          3D

 18 17  0  0  1  0  0  0  0  0999 V2000
   26.1606  -23.1618  -15.9858 N   0  0  0  0  0  0  0  0  0  0  0  0
   27.3554  -23.1822  -16.8014 C   0  0  1  0  0  0  0  0  0  0  0  0
   28.1671  -21.9341  -16.6302 C   0  0  0  0  0  0  0  0  0  0  0  0
   27.3796  -20.5227  -17.4239 S   0  0  0  0  0  0  0  0  0  0  0  0
   28.1623  -24.4087  -16.5637 C   0  0  0  0  0  0  0  0  0  0  0  0
   29.2504  -24.3319  -15.9388 O   0  0  0  0  0  0  0  0  0  0  0  0
   27.7526  -25.6945  -17.0201 N   0  0  0  0  0  0  0  0  0  0  0  0
   28.5786  -26.8616  -16.9108 C   0  0  0  0  0  0  0  0  0  0  0  0
   27.9308  -28.0817  -17.4327 C   0  0  0  0  0  0  0  0  0  0  0  0
   27.0170  -28.0444  -18.2892 O   0  0  0  0  0  0  0  0  0  0  0  0
   30.0761  -31.2176  -18.3235 C   0  0  0  0  0  0  0  0  0  0  0  0
   28.8992  -31.6425  -17.4713 C   0  0  1  0  0  0  0  0  0  0  0  0
   29.2959  -31.8607  -16.1594 O   0  0  0  0  0  0  0  0  0  0  0  0
   27.8143  -30.5615  -17.5375 C   0  0  2  0  0  0  0  0  0  0  0  0
   28.3493  -29.3490  -16.9549 N   0  0  0  0  0  0  0  0  0  0  0  0
   26.5978  -31.0248  -16.8415 C   0  0  0  0  0  0  0  0  0  0  0  0
   26.2820  -30.6008  -15.7198 O   0  0  0  0  0  0  0  0  0  0  0  0
   25.7941  -31.9583  -17.4660 O   0  0  0  0  0  0  0  0  0  0  0  0
  2  1  1  1
  2  3  1  0
  3  4  1  0
  5  6  2  0
  5  2  1  0
  7  5  1  0
  8  7  1  0
  9  8  1  0
  9 15  1  0
 10  9  2  0
 12 14  1  0
 12 11  1  6
 13 12  1  0
 14 15  1  1
 14 16  1  0
 16 17  2  0
 16 18  1  0
M  END
$$$$
