ICS.pdb
     RDKit          3D

 21 20  0  0  1  0  0  0  0  0999 V2000
   23.4190  -16.4733  -15.9824 C   0  0  0  0  0  0  0  0  0  0  0  0
   22.2881  -15.5216  -15.7892 C   0  0  0  0  0  0  0  0  0  0  0  0
   22.6433  -14.0845  -16.0077 C   0  0  2  0  0  0  0  0  0  0  0  0
   23.6767  -13.6951  -14.9731 C   0  0  0  0  0  0  0  0  0  0  0  0
   21.4596  -13.1601  -15.8563 C   0  0  2  0  0  0  0  0  0  0  0  0
   20.3877  -13.5137  -16.7484 N   0  0  0  0  0  0  0  0  0  0  0  0
   21.9461  -11.7656  -16.1526 C   0  0  0  0  0  0  0  0  0  0  0  0
   22.8885  -11.2550  -15.5026 O   0  0  0  0  0  0  0  0  0  0  0  0
   21.3245  -11.0097  -17.1917 N   0  0  0  0  0  0  0  0  0  0  0  0
   21.6378   -9.6308  -17.4237 C   0  0  1  0  0  0  0  0  0  0  0  0
   21.4210   -9.2901  -18.8746 C   0  0  0  0  0  0  0  0  0  0  0  0
   21.7811   -7.5293  -19.0906 S   0  0  0  0  0  0  0  0  0  0  0  0
   20.8462   -8.7174  -16.5502 C   0  0  0  0  0  0  0  0  0  0  0  0
   19.6034   -8.8733  -16.4968 O   0  0  0  0  0  0  0  0  0  0  0  0
   21.1369   -7.9915  -12.9811 O   0  0  0  0  0  0  0  0  0  0  0  0
   21.1755   -6.7268  -13.5636 C   0  0  0  0  0  0  0  0  0  0  0  0
   20.6737   -6.7751  -14.9957 C   0  0  2  0  0  0  0  0  0  0  0  0
   21.4538   -7.6983  -15.7949 N   0  0  0  0  0  0  0  0  0  0  0  0
   20.6657   -5.4234  -15.6037 C   0  0  0  0  0  0  0  0  0  0  0  0
   21.3290   -5.1349  -16.6290 O   0  0  0  0  0  0  0  0  0  0  0  0
   19.8982   -4.3948  -15.0411 O   0  0  0  0  0  0  0  0  0  0  0  0
  2  1  1  0
  3  2  1  0
  3  4  1  1
  5  7  1  0
  5  3  1  0
  5  6  1  6
  7  8  2  0
  9 10  1  0
  9  7  1  0
 11 12  1  0
 10 11  1  6
 13 18  1  0
 13 10  1  0
 14 13  2  0
 16 15  1  0
 17 18  1  0
 17 16  1  1
 19 17  1  0
 20 19  2  0
 21 19  1  0
M  END
$$$$
