ICS.pdb
     RDKit          3D

 21 20  0  0  1  0  0  0  0  0999 V2000
   16.9696  -12.4616  -15.8028 C   0  0  0  0  0  0  0  0  0  0  0  0
   17.7118  -11.3697  -16.4948 C   0  0  0  0  0  0  0  0  0  0  0  0
   18.1166  -10.2357  -15.6064 C   0  0  2  0  0  0  0  0  0  0  0  0
   16.8626   -9.6492  -14.9952 C   0  0  0  0  0  0  0  0  0  0  0  0
   18.8314   -9.1350  -16.3521 C   0  0  2  0  0  0  0  0  0  0  0  0
   20.0582   -9.5992  -16.9430 N   0  0  0  0  0  0  0  0  0  0  0  0
   19.1133   -8.0381  -15.3590 C   0  0  0  0  0  0  0  0  0  0  0  0
   18.1928   -7.5236  -14.6812 O   0  0  0  0  0  0  0  0  0  0  0  0
   20.4519   -7.5740  -15.1845 N   0  0  0  0  0  0  0  0  0  0  0  0
   20.7805   -6.5190  -14.2723 C   0  0  1  0  0  0  0  0  0  0  0  0
   22.2195   -6.6376  -13.8438 C   0  0  0  0  0  0  0  0  0  0  0  0
   22.5754   -5.2712  -12.7112 S   0  0  0  0  0  0  0  0  0  0  0  0
   20.5191   -5.1699  -14.8517 C   0  0  0  0  0  0  0  0  0  0  0  0
   20.9203   -4.9338  -16.0157 O   0  0  0  0  0  0  0  0  0  0  0  0
   17.2286   -3.2335  -14.6441 O   0  0  0  0  0  0  0  0  0  0  0  0
   18.2309   -2.3313  -14.2953 C   0  0  0  0  0  0  0  0  0  0  0  0
   19.5970   -2.8580  -14.6973 C   0  0  2  0  0  0  0  0  0  0  0  0
   19.8415   -4.1695  -14.1317 N   0  0  0  0  0  0  0  0  0  0  0  0
   20.6684   -1.9078  -14.3155 C   0  0  0  0  0  0  0  0  0  0  0  0
   21.6397   -2.2333  -13.5910 O   0  0  0  0  0  0  0  0  0  0  0  0
   20.6334   -0.5797  -14.7612 O   0  0  0  0  0  0  0  0  0  0  0  0
  2  1  1  0
  3  2  1  0
  3  4  1  6
  5  7  1  0
  5  3  1  0
  5  6  1  1
  7  8  2  0
  9 10  1  0
  9  7  1  0
 11 12  1  0
 10 11  1  6
 13 18  1  0
 13 10  1  0
 14 13  2  0
 16 15  1  0
 17 18  1  0
 17 16  1  1
 19 17  1  0
 20 19  2  0
 21 19  1  0
M  END
$$$$
