ICS.pdb
     RDKit          3D

 21 20  0  0  1  0  0  0  0  0999 V2000
   24.6166  -17.3063  -16.5917 C   0  0  0  0  0  0  0  0  0  0  0  0
   24.1603  -18.7242  -16.6502 C   0  0  0  0  0  0  0  0  0  0  0  0
   24.5063  -19.5369  -15.4423 C   0  0  2  0  0  0  0  0  0  0  0  0
   24.8047  -18.5831  -14.3060 C   0  0  0  0  0  0  0  0  0  0  0  0
   25.7212  -20.4079  -15.6520 C   0  0  2  0  0  0  0  0  0  0  0  0
   25.5060  -21.3857  -16.6852 N   0  0  0  0  0  0  0  0  0  0  0  0
   26.0087  -21.0901  -14.3402 C   0  0  0  0  0  0  0  0  0  0  0  0
   25.2245  -21.9466  -13.8682 O   0  0  0  0  0  0  0  0  0  0  0  0
   27.1949  -20.7571  -13.6192 N   0  0  0  0  0  0  0  0  0  0  0  0
   27.4874  -21.3156  -12.3325 C   0  0  1  0  0  0  0  0  0  0  0  0
   28.9773  -21.3597  -12.1163 C   0  0  0  0  0  0  0  0  0  0  0  0
   29.6256  -19.6902  -12.3791 S   0  0  0  0  0  0  0  0  0  0  0  0
   26.8227  -20.5663  -11.2276 C   0  0  0  0  0  0  0  0  0  0  0  0
   26.6201  -19.3384  -11.3784 O   0  0  0  0  0  0  0  0  0  0  0  0
   24.1595  -20.5577   -7.2167 O   0  0  0  0  0  0  0  0  0  0  0  0
   24.6965  -21.2507   -8.2992 C   0  0  0  0  0  0  0  0  0  0  0  0
   25.8153  -20.4563   -8.9490 C   0  0  2  0  0  0  0  0  0  0  0  0
   26.4232  -21.1973  -10.0357 N   0  0  0  0  0  0  0  0  0  0  0  0
   26.8321  -20.0516   -7.9494 C   0  0  0  0  0  0  0  0  0  0  0  0
   27.8496  -20.7411   -7.6968 O   0  0  0  0  0  0  0  0  0  0  0  0
   26.6894  -18.8554   -7.2336 O   0  0  0  0  0  0  0  0  0  0  0  0
  2  1  1  0
  3  2  1  0
  3  4  1  1
  5  7  1  0
  5  3  1  0
  5  6  1  6
  7  8  2  0
  9 10  1  0
  9  7  1  0
 11 12  1  0
 10 11  1  1
 13 18  1  0
 13 10  1  0
 14 13  2  0
 16 15  1  0
 17 18  1  0
 17 16  1  1
 19 17  1  0
 20 19  2  0
 21 19  1  0
M  END
$$$$
