ICS.pdb
     RDKit          3D

 21 20  0  0  1  0  0  0  0  0999 V2000
   19.8042  -16.6542  -17.3889 C   0  0  0  0  0  0  0  0  0  0  0  0
   20.0441  -15.3106  -17.9883 C   0  0  0  0  0  0  0  0  0  0  0  0
   20.1936  -14.2049  -16.9912 C   0  0  2  0  0  0  0  0  0  0  0  0
   18.9116  -14.1189  -16.1917 C   0  0  0  0  0  0  0  0  0  0  0  0
   20.4311  -12.8620  -17.6385 C   0  0  2  0  0  0  0  0  0  0  0  0
   21.6249  -12.8592  -18.4412 N   0  0  0  0  0  0  0  0  0  0  0  0
   20.5465  -11.8499  -16.5288 C   0  0  0  0  0  0  0  0  0  0  0  0
   19.6467  -11.7286  -15.6645 O   0  0  0  0  0  0  0  0  0  0  0  0
   21.7003  -11.0123  -16.4578 N   0  0  0  0  0  0  0  0  0  0  0  0
   21.8089   -9.9424  -15.5109 C   0  0  1  0  0  0  0  0  0  0  0  0
   23.2575   -9.5940  -15.2908 C   0  0  0  0  0  0  0  0  0  0  0  0
   23.9545  -10.8146  -14.1502 S   0  0  0  0  0  0  0  0  0  0  0  0
   21.0410   -8.7354  -15.9323 C   0  0  0  0  0  0  0  0  0  0  0  0
   21.1352   -8.3556  -17.1233 O   0  0  0  0  0  0  0  0  0  0  0  0
   17.2730   -5.8770  -15.4470 O   0  0  0  0  0  0  0  0  0  0  0  0
   17.9960   -7.0061  -15.0692 C   0  0  0  0  0  0  0  0  0  0  0  0
   19.4570   -6.8685  -15.4587 C   0  0  2  0  0  0  0  0  0  0  0  0
   20.2242   -8.0228  -15.0360 N   0  0  0  0  0  0  0  0  0  0  0  0
   20.0381   -5.6179  -14.9156 C   0  0  0  0  0  0  0  0  0  0  0  0
   19.6592   -4.4781  -15.2785 O   0  0  0  0  0  0  0  0  0  0  0  0
   21.0562   -5.6655  -13.9539 O   0  0  0  0  0  0  0  0  0  0  0  0
  2  1  1  0
  3  2  1  0
  3  4  1  6
  5  7  1  0
  5  3  1  0
  5  6  1  1
  7  8  2  0
  9 10  1  0
  9  7  1  0
 11 12  1  0
 10 11  1  6
 13 18  1  0
 13 10  1  0
 14 13  2  0
 16 15  1  0
 17 18  1  0
 17 16  1  1
 19 17  1  0
 20 19  2  0
 21 19  1  0
M  END
$$$$
