ICS.pdb
     RDKit          3D

 21 20  0  0  1  0  0  0  0  0999 V2000
   26.1028  -14.4753  -15.5609 C   0  0  0  0  0  0  0  0  0  0  0  0
   24.6346  -14.3871  -15.3186 C   0  0  0  0  0  0  0  0  0  0  0  0
   23.9952  -13.1370  -15.8358 C   0  0  2  0  0  0  0  0  0  0  0  0
   24.5581  -11.9670  -15.0585 C   0  0  0  0  0  0  0  0  0  0  0  0
   22.4954  -13.1333  -15.6643 C   0  0  2  0  0  0  0  0  0  0  0  0
   21.8821  -14.2696  -16.2987 N   0  0  0  0  0  0  0  0  0  0  0  0
   21.9831  -11.8553  -16.2752 C   0  0  0  0  0  0  0  0  0  0  0  0
   21.9210  -11.7094  -17.5187 O   0  0  0  0  0  0  0  0  0  0  0  0
   21.5599  -10.7895  -15.4251 N   0  0  0  0  0  0  0  0  0  0  0  0
   21.0438   -9.5582  -15.9453 C   0  0  1  0  0  0  0  0  0  0  0  0
   19.5391   -9.5608  -15.8782 C   0  0  0  0  0  0  0  0  0  0  0  0
   19.0602   -9.9754  -14.1825 S   0  0  0  0  0  0  0  0  0  0  0  0
   21.5948   -8.3694  -15.2332 C   0  0  0  0  0  0  0  0  0  0  0  0
   21.8945   -8.4871  -14.0215 O   0  0  0  0  0  0  0  0  0  0  0  0
   23.8683   -4.1320  -15.5389 O   0  0  0  0  0  0  0  0  0  0  0  0
   23.2800   -5.2194  -16.1804 C   0  0  0  0  0  0  0  0  0  0  0  0
   22.4195   -6.0160  -15.2160 C   0  0  2  0  0  0  0  0  0  0  0  0
   21.7836   -7.1354  -15.8811 N   0  0  0  0  0  0  0  0  0  0  0  0
   21.4135   -5.1490  -14.5581 C   0  0  0  0  0  0  0  0  0  0  0  0
   20.2630   -4.9673  -15.0247 O   0  0  0  0  0  0  0  0  0  0  0  0
   21.7193   -4.4854  -13.3624 O   0  0  0  0  0  0  0  0  0  0  0  0
  2  1  1  0
  3  2  1  0
  3  4  1  1
  5  7  1  0
  5  3  1  0
  5  6  1  6
  7  8  2  0
  9 10  1  0
  9  7  1  0
 11 12  1  0
 10 11  1  1
 13 18  1  0
 13 10  1  0
 14 13  2  0
 16 15  1  0
 17 18  1  0
 17 16  1  6
 19 17  1  0
 20 19  2  0
 21 19  1  0
M  END
$$$$
