ICS.pdb
     RDKit          3D

 21 20  0  0  1  0  0  0  0  0999 V2000
   25.0875  -11.6310  -14.8519 C   0  0  0  0  0  0  0  0  0  0  0  0
   24.6942  -10.5594  -15.8106 C   0  0  0  0  0  0  0  0  0  0  0  0
   23.5148   -9.7452  -15.3803 C   0  0  2  0  0  0  0  0  0  0  0  0
   22.3264  -10.6734  -15.2529 C   0  0  0  0  0  0  0  0  0  0  0  0
   23.1583   -8.6634  -16.3709 C   0  0  2  0  0  0  0  0  0  0  0  0
   24.2429   -7.7386  -16.5658 N   0  0  0  0  0  0  0  0  0  0  0  0
   21.9516   -7.9447  -15.8265 C   0  0  0  0  0  0  0  0  0  0  0  0
   20.8798   -8.5544  -15.6008 O   0  0  0  0  0  0  0  0  0  0  0  0
   22.0271   -6.5440  -15.5619 N   0  0  0  0  0  0  0  0  0  0  0  0
   20.8828   -5.7811  -15.1597 C   0  0  1  0  0  0  0  0  0  0  0  0
   21.2473   -4.8680  -14.0187 C   0  0  0  0  0  0  0  0  0  0  0  0
   22.7271   -5.5398  -13.2216 S   0  0  0  0  0  0  0  0  0  0  0  0
   20.3012   -4.9983  -16.2879 C   0  0  0  0  0  0  0  0  0  0  0  0
   21.0584   -4.6521  -17.2252 O   0  0  0  0  0  0  0  0  0  0  0  0
   16.2378   -3.9225  -16.3507 O   0  0  0  0  0  0  0  0  0  0  0  0
   16.8668   -4.2208  -17.5573 C   0  0  0  0  0  0  0  0  0  0  0  0
   18.3608   -3.9661  -17.4661 C   0  0  2  0  0  0  0  0  0  0  0  0
   18.9405   -4.6442  -16.3243 N   0  0  0  0  0  0  0  0  0  0  0  0
   18.6526   -2.5136  -17.4245 C   0  0  0  0  0  0  0  0  0  0  0  0
   18.9850   -1.9165  -16.3722 O   0  0  0  0  0  0  0  0  0  0  0  0
   18.5653   -1.7369  -18.5876 O   0  0  0  0  0  0  0  0  0  0  0  0
  2  1  1  0
  3  2  1  0
  3  4  1  6
  5  7  1  0
  5  3  1  0
  5  6  1  1
  7  8  2  0
  9 10  1  0
  9  7  1  0
 11 12  1  0
 10 11  1  1
 13 18  1  0
 13 10  1  0
 14 13  2  0
 16 15  1  0
 17 18  1  0
 17 16  1  1
 19 17  1  0
 20 19  2  0
 21 19  1  0
M  END
$$$$
