ICS.pdb
     RDKit          3D

 21 20  0  0  1  0  0  0  0  0999 V2000
   24.5632  -12.6493  -14.7670 C   0  0  0  0  0  0  0  0  0  0  0  0
   24.1029  -11.6726  -15.7948 C   0  0  0  0  0  0  0  0  0  0  0  0
   23.1076  -10.6722  -15.2972 C   0  0  2  0  0  0  0  0  0  0  0  0
   21.8411  -11.4145  -14.9299 C   0  0  0  0  0  0  0  0  0  0  0  0
   22.7556   -9.6325  -16.3335 C   0  0  2  0  0  0  0  0  0  0  0  0
   23.9279   -9.0948  -16.9709 N   0  0  0  0  0  0  0  0  0  0  0  0
   21.9995   -8.5393  -15.6248 C   0  0  0  0  0  0  0  0  0  0  0  0
   20.8686   -8.7498  -15.1266 O   0  0  0  0  0  0  0  0  0  0  0  0
   22.5789   -7.2391  -15.5171 N   0  0  0  0  0  0  0  0  0  0  0  0
   21.8996   -6.1522  -14.8765 C   0  0  1  0  0  0  0  0  0  0  0  0
   22.8793   -5.3280  -14.0833 C   0  0  0  0  0  0  0  0  0  0  0  0
   21.9591   -3.9896  -13.2841 S   0  0  0  0  0  0  0  0  0  0  0  0
   21.1646   -5.2938  -15.8496 C   0  0  0  0  0  0  0  0  0  0  0  0
   21.8052   -4.7914  -16.8029 O   0  0  0  0  0  0  0  0  0  0  0  0
   17.0207   -5.3007  -16.0806 O   0  0  0  0  0  0  0  0  0  0  0  0
   17.8072   -4.9052  -17.1601 C   0  0  0  0  0  0  0  0  0  0  0  0
   19.0747   -4.2186  -16.6834 C   0  0  2  0  0  0  0  0  0  0  0  0
   19.7872   -5.0384  -15.7241 N   0  0  0  0  0  0  0  0  0  0  0  0
   18.7766   -2.8808  -16.1194 C   0  0  0  0  0  0  0  0  0  0  0  0
   18.2408   -1.9646  -16.7886 O   0  0  0  0  0  0  0  0  0  0  0  0
   19.0903   -2.5848  -14.7861 O   0  0  0  0  0  0  0  0  0  0  0  0
  2  1  1  0
  3  2  1  0
  3  4  1  6
  5  7  1  0
  5  3  1  0
  5  6  1  1
  7  8  2  0
  9 10  1  0
  9  7  1  0
 11 12  1  0
 10 11  1  6
 13 18  1  0
 13 10  1  0
 14 13  2  0
 16 15  1  0
 17 18  1  0
 17 16  1  1
 19 17  1  0
 20 19  2  0
 21 19  1  0
M  END
$$$$
