ICS.pdb
     RDKit          3D

 21 20  0  0  1  0  0  0  0  0999 V2000
   15.5185  -24.9501  -12.9972 C   0  0  0  0  0  0  0  0  0  0  0  0
   16.6103  -24.3417  -12.1849 C   0  0  0  0  0  0  0  0  0  0  0  0
   17.0608  -25.1768  -11.0278 C   0  0  2  0  0  0  0  0  0  0  0  0
   15.8721  -25.3951  -10.1171 C   0  0  0  0  0  0  0  0  0  0  0  0
   18.1525  -24.5170  -10.2205 C   0  0  2  0  0  0  0  0  0  0  0  0
   19.3513  -24.3316  -10.9939 N   0  0  0  0  0  0  0  0  0  0  0  0
   18.4277  -25.4074   -9.0371 C   0  0  0  0  0  0  0  0  0  0  0  0
   19.0944  -26.4620   -9.1593 O   0  0  0  0  0  0  0  0  0  0  0  0
   17.9216  -25.0463   -7.7521 N   0  0  0  0  0  0  0  0  0  0  0  0
   18.1342  -25.8604   -6.5924 C   0  0  1  0  0  0  0  0  0  0  0  0
   18.5383  -24.9989   -5.4250 C   0  0  0  0  0  0  0  0  0  0  0  0
   18.9636  -26.0944   -4.0481 S   0  0  0  0  0  0  0  0  0  0  0  0
   16.9342  -26.6758   -6.2473 C   0  0  0  0  0  0  0  0  0  0  0  0
   15.8179  -26.1066   -6.2107 O   0  0  0  0  0  0  0  0  0  0  0  0
   17.3633  -30.5628   -4.8839 O   0  0  0  0  0  0  0  0  0  0  0  0
   16.1755  -30.3136   -5.5676 C   0  0  0  0  0  0  0  0  0  0  0  0
   15.8626  -28.8280   -5.5850 C   0  0  2  0  0  0  0  0  0  0  0  0
   17.0249  -28.0509   -5.9656 N   0  0  0  0  0  0  0  0  0  0  0  0
   15.3305  -28.3798   -4.2764 C   0  0  0  0  0  0  0  0  0  0  0  0
   15.9378  -27.5681   -3.5371 O   0  0  0  0  0  0  0  0  0  0  0  0
   14.0999  -28.8586   -3.8071 O   0  0  0  0  0  0  0  0  0  0  0  0
  2  1  1  0
  3  2  1  0
  3  4  1  1
  5  7  1  0
  5  3  1  0
  5  6  1  6
  7  8  2  0
  9 10  1  0
  9  7  1  0
 11 12  1  0
 10 11  1  1
 13 18  1  0
 13 10  1  0
 14 13  2  0
 16 15  1  0
 17 18  1  0
 17 16  1  1
 19 17  1  0
 20 19  2  0
 21 19  1  0
M  END
$$$$
