ICS.pdb
     RDKit          3D

 21 20  0  0  1  0  0  0  0  0999 V2000
   24.5700  -16.5102  -16.4519 C   0  0  0  0  0  0  0  0  0  0  0  0
   23.3196  -15.9328  -15.8817 C   0  0  0  0  0  0  0  0  0  0  0  0
   23.1215  -14.4777  -16.1693 C   0  0  2  0  0  0  0  0  0  0  0  0
   24.2266  -13.7091  -15.4779 C   0  0  0  0  0  0  0  0  0  0  0  0
   21.8001  -13.9555  -15.6595 C   0  0  2  0  0  0  0  0  0  0  0  0
   20.6927  -14.7280  -16.1562 N   0  0  0  0  0  0  0  0  0  0  0  0
   21.6839  -12.5246  -16.1153 C   0  0  0  0  0  0  0  0  0  0  0  0
   22.5579  -11.6760  -15.8196 O   0  0  0  0  0  0  0  0  0  0  0  0
   20.5593  -12.1248  -16.8983 N   0  0  0  0  0  0  0  0  0  0  0  0
   20.3872  -10.7770  -17.3533 C   0  0  1  0  0  0  0  0  0  0  0  0
   19.3409  -10.7280  -18.4356 C   0  0  0  0  0  0  0  0  0  0  0  0
   19.1383   -8.9994  -18.9333 S   0  0  0  0  0  0  0  0  0  0  0  0
   20.0316   -9.8473  -16.2427 C   0  0  0  0  0  0  0  0  0  0  0  0
   19.1375  -10.1971  -15.4365 O   0  0  0  0  0  0  0  0  0  0  0  0
   21.8089   -8.4171  -13.2948 O   0  0  0  0  0  0  0  0  0  0  0  0
   21.4978   -7.3567  -14.1428 C   0  0  0  0  0  0  0  0  0  0  0  0
   20.3012   -7.6939  -15.0143 C   0  0  2  0  0  0  0  0  0  0  0  0
   20.6680   -8.6035  -16.0810 N   0  0  0  0  0  0  0  0  0  0  0  0
   19.6740   -6.4657  -15.5572 C   0  0  0  0  0  0  0  0  0  0  0  0
   19.8615   -6.0686  -16.7326 O   0  0  0  0  0  0  0  0  0  0  0  0
   18.8285   -5.6854  -14.7571 O   0  0  0  0  0  0  0  0  0  0  0  0
  2  1  1  0
  3  2  1  0
  3  4  1  1
  5  7  1  0
  5  3  1  0
  5  6  1  6
  7  8  2  0
  9 10  1  0
  9  7  1  0
 11 12  1  0
 10 11  1  6
 13 18  1  0
 13 10  1  0
 14 13  2  0
 16 15  1  0
 17 18  1  0
 17 16  1  6
 19 17  1  0
 20 19  2  0
 21 19  1  0
M  END
$$$$
