ICS.pdb
     RDKit          3D

 21 20  0  0  1  0  0  0  0  0999 V2000
   14.5891   -6.0483   -7.0039 C   0  0  0  0  0  0  0  0  0  0  0  0
   14.2278   -6.7921   -8.2442 C   0  0  0  0  0  0  0  0  0  0  0  0
   15.3961   -7.1948   -9.0879 C   0  0  2  0  0  0  0  0  0  0  0  0
   16.1036   -5.9357   -9.5397 C   0  0  0  0  0  0  0  0  0  0  0  0
   14.9896   -7.9691  -10.3184 C   0  0  2  0  0  0  0  0  0  0  0  0
   14.6049   -9.3179   -9.9982 N   0  0  0  0  0  0  0  0  0  0  0  0
   16.1726   -7.9715  -11.2508 C   0  0  0  0  0  0  0  0  0  0  0  0
   17.0054   -8.9085  -11.2406 O   0  0  0  0  0  0  0  0  0  0  0  0
   16.3512   -6.8886  -12.1636 N   0  0  0  0  0  0  0  0  0  0  0  0
   17.3227   -6.9306  -13.2160 C   0  0  1  0  0  0  0  0  0  0  0  0
   16.6547   -6.6882  -14.5439 C   0  0  0  0  0  0  0  0  0  0  0  0
   15.3909   -7.9642  -14.7703 S   0  0  0  0  0  0  0  0  0  0  0  0
   18.4285   -5.9529  -13.0029 C   0  0  0  0  0  0  0  0  0  0  0  0
   18.1341   -4.7933  -12.6283 O   0  0  0  0  0  0  0  0  0  0  0  0
   22.3723   -6.8070  -14.1365 O   0  0  0  0  0  0  0  0  0  0  0  0
   22.2013   -6.0249  -12.9966 C   0  0  0  0  0  0  0  0  0  0  0  0
   20.8459   -5.3408  -13.0081 C   0  0  2  0  0  0  0  0  0  0  0  0
   19.7763   -6.2974  -13.2099 N   0  0  0  0  0  0  0  0  0  0  0  0
   20.7984   -4.2689  -14.0305 C   0  0  0  0  0  0  0  0  0  0  0  0
   20.2244   -4.4096  -15.1374 O   0  0  0  0  0  0  0  0  0  0  0  0
   21.4078   -3.0299  -13.7912 O   0  0  0  0  0  0  0  0  0  0  0  0
  2  1  1  0
  3  2  1  0
  3  4  1  6
  5  7  1  0
  5  3  1  0
  5  6  1  1
  7  8  2  0
  9 10  1  0
  9  7  1  0
 11 12  1  0
 10 11  1  6
 13 18  1  0
 13 10  1  0
 14 13  2  0
 16 15  1  0
 17 18  1  0
 17 16  1  6
 19 17  1  0
 20 19  2  0
 21 19  1  0
M  END
$$$$
