ICS.pdb
     RDKit          3D

 21 20  0  0  1  0  0  0  0  0999 V2000
   31.1803  -22.4677  -18.8393 C   0  0  0  0  0  0  0  0  0  0  0  0
   29.7298  -22.1310  -18.9065 C   0  0  0  0  0  0  0  0  0  0  0  0
   29.1402  -21.6689  -17.6111 C   0  0  2  0  0  0  0  0  0  0  0  0
   29.1226  -22.8448  -16.6587 C   0  0  0  0  0  0  0  0  0  0  0  0
   27.7243  -21.1668  -17.7592 C   0  0  2  0  0  0  0  0  0  0  0  0
   27.5864  -20.2805  -18.8841 N   0  0  0  0  0  0  0  0  0  0  0  0
   27.3737  -20.4479  -16.4828 C   0  0  0  0  0  0  0  0  0  0  0  0
   28.2506  -19.8605  -15.8065 O   0  0  0  0  0  0  0  0  0  0  0  0
   26.0190  -20.4335  -16.0328 N   0  0  0  0  0  0  0  0  0  0  0  0
   25.6245  -19.7763  -14.8222 C   0  0  1  0  0  0  0  0  0  0  0  0
   24.6967  -18.6321  -15.1358 C   0  0  0  0  0  0  0  0  0  0  0  0
   25.5770  -17.4872  -16.2271 S   0  0  0  0  0  0  0  0  0  0  0  0
   24.9869  -20.7134  -13.8531 C   0  0  0  0  0  0  0  0  0  0  0  0
   24.2631  -21.6332  -14.3023 O   0  0  0  0  0  0  0  0  0  0  0  0
   24.9792  -19.9130   -9.7343 O   0  0  0  0  0  0  0  0  0  0  0  0
   24.9986  -21.2533  -10.1134 C   0  0  0  0  0  0  0  0  0  0  0  0
   24.4589  -21.4251  -11.5220 C   0  0  2  0  0  0  0  0  0  0  0  0
   25.1763  -20.5907  -12.4648 N   0  0  0  0  0  0  0  0  0  0  0  0
   23.0032  -21.1511  -11.5725 C   0  0  0  0  0  0  0  0  0  0  0  0
   22.5198  -20.1461  -12.1475 O   0  0  0  0  0  0  0  0  0  0  0  0
   22.0931  -22.0265  -10.9649 O   0  0  0  0  0  0  0  0  0  0  0  0
  2  1  1  0
  3  2  1  0
  3  4  1  1
  5  7  1  0
  5  3  1  0
  5  6  1  6
  7  8  2  0
  9 10  1  0
  9  7  1  0
 11 12  1  0
 10 11  1  6
 13 18  1  0
 13 10  1  0
 14 13  2  0
 16 15  1  0
 17 18  1  0
 17 16  1  1
 19 17  1  0
 20 19  2  0
 21 19  1  0
M  END
$$$$
