ICS.pdb
     RDKit          3D

 21 20  0  0  1  0  0  0  0  0999 V2000
   15.1548  -12.9064  -18.2705 C   0  0  0  0  0  0  0  0  0  0  0  0
   16.5154  -13.0291  -17.6740 C   0  0  0  0  0  0  0  0  0  0  0  0
   16.9362  -11.8573  -16.8440 C   0  0  2  0  0  0  0  0  0  0  0  0
   17.0103  -10.6459  -17.7479 C   0  0  0  0  0  0  0  0  0  0  0  0
   18.2914  -12.0483  -16.2071 C   0  0  2  0  0  0  0  0  0  0  0  0
   18.3031  -13.1652  -15.3004 N   0  0  0  0  0  0  0  0  0  0  0  0
   18.6180  -10.7754  -15.4709 C   0  0  0  0  0  0  0  0  0  0  0  0
   17.9215  -10.3881  -14.5033 O   0  0  0  0  0  0  0  0  0  0  0  0
   19.7403   -9.9941  -15.8804 N   0  0  0  0  0  0  0  0  0  0  0  0
   20.1288   -8.7985  -15.1927 C   0  0  1  0  0  0  0  0  0  0  0  0
   21.6235   -8.6267  -15.2622 C   0  0  0  0  0  0  0  0  0  0  0  0
   22.3621   -9.6726  -13.9826 S   0  0  0  0  0  0  0  0  0  0  0  0
   19.4400   -7.5895  -15.7292 C   0  0  0  0  0  0  0  0  0  0  0  0
   19.2870   -7.4927  -16.9697 O   0  0  0  0  0  0  0  0  0  0  0  0
   16.0529   -4.3802  -15.3467 O   0  0  0  0  0  0  0  0  0  0  0  0
   16.7633   -5.4943  -14.9059 C   0  0  0  0  0  0  0  0  0  0  0  0
   18.1978   -5.4522  -15.4015 C   0  0  2  0  0  0  0  0  0  0  0  0
   18.9644   -6.5688  -14.8865 N   0  0  0  0  0  0  0  0  0  0  0  0
   18.8430   -4.1628  -15.0580 C   0  0  0  0  0  0  0  0  0  0  0  0
   19.6969   -4.0514  -14.1454 O   0  0  0  0  0  0  0  0  0  0  0  0
   18.5140   -2.9941  -15.7576 O   0  0  0  0  0  0  0  0  0  0  0  0
  2  1  1  0
  3  2  1  0
  3  4  1  6
  5  7  1  0
  5  3  1  0
  5  6  1  1
  7  8  2  0
  9 10  1  0
  9  7  1  0
 11 12  1  0
 10 11  1  6
 13 18  1  0
 13 10  1  0
 14 13  2  0
 16 15  1  0
 17 18  1  0
 17 16  1  1
 19 17  1  0
 20 19  2  0
 21 19  1  0
M  END
$$$$
