ICS.pdb
     RDKit          3D

 21 20  0  0  1  0  0  0  0  0999 V2000
   16.5900  -14.5373  -18.9116 C   0  0  0  0  0  0  0  0  0  0  0  0
   18.0570  -14.6940  -18.6986 C   0  0  0  0  0  0  0  0  0  0  0  0
   18.6319  -13.7890  -17.6547 C   0  0  2  0  0  0  0  0  0  0  0  0
   18.4806  -12.3626  -18.1370 C   0  0  0  0  0  0  0  0  0  0  0  0
   20.0983  -14.0437  -17.4031 C   0  0  2  0  0  0  0  0  0  0  0  0
   20.3327  -15.3749  -16.9105 N   0  0  0  0  0  0  0  0  0  0  0  0
   20.5576  -13.0253  -16.3927 C   0  0  0  0  0  0  0  0  0  0  0  0
   20.1417  -13.0504  -15.2105 O   0  0  0  0  0  0  0  0  0  0  0  0
   21.4833  -12.0122  -16.7859 N   0  0  0  0  0  0  0  0  0  0  0  0
   21.9542  -11.0135  -15.8727 C   0  0  1  0  0  0  0  0  0  0  0  0
   23.4359  -10.8104  -16.0501 C   0  0  0  0  0  0  0  0  0  0  0  0
   24.2835  -12.2198  -15.2938 S   0  0  0  0  0  0  0  0  0  0  0  0
   21.2288   -9.7198  -16.0278 C   0  0  0  0  0  0  0  0  0  0  0  0
   21.0618   -9.2657  -17.1843 O   0  0  0  0  0  0  0  0  0  0  0  0
   19.0905   -7.9817  -12.8278 O   0  0  0  0  0  0  0  0  0  0  0  0
   18.6911   -7.8908  -14.1591 C   0  0  0  0  0  0  0  0  0  0  0  0
   19.8949   -7.8366  -15.0827 C   0  0  2  0  0  0  0  0  0  0  0  0
   20.7342   -9.0067  -14.9209 N   0  0  0  0  0  0  0  0  0  0  0  0
   20.6731   -6.5928  -14.8721 C   0  0  0  0  0  0  0  0  0  0  0  0
   21.8681   -6.5947  -14.4898 O   0  0  0  0  0  0  0  0  0  0  0  0
   20.0870   -5.3402  -15.0980 O   0  0  0  0  0  0  0  0  0  0  0  0
  2  1  1  0
  3  2  1  0
  3  4  1  6
  5  7  1  0
  5  3  1  0
  5  6  1  1
  7  8  2  0
  9 10  1  0
  9  7  1  0
 11 12  1  0
 10 11  1  6
 13 18  1  0
 13 10  1  0
 14 13  2  0
 16 15  1  0
 17 18  1  0
 17 16  1  1
 19 17  1  0
 20 19  2  0
 21 19  1  0
M  END
$$$$
