ENP.pdb
     RDKit          3D

 25 25  0  0  1  0  0  0  0  0999 V2000
   20.4279  -18.7969  -15.5550 N   0  0  0  0  0  0  0  0  0  0  0  0
   20.9813  -19.8377  -14.7896 C   0  0  1  0  0  0  0  0  0  0  0  0
   20.8199  -21.1840  -15.4099 C   0  0  0  0  0  0  0  0  0  0  0  0
   21.2828  -21.2563  -16.8180 C   0  0  0  0  0  0  0  0  0  0  0  0
   20.2184  -21.4911  -17.7837 C   0  0  0  0  0  0  0  0  0  0  0  0
   19.7173  -20.6731  -18.5536 O   0  0  0  0  0  0  0  0  0  0  0  0
   22.4208  -19.6063  -14.3945 C   0  0  0  0  0  0  0  0  0  0  0  0
   22.9327  -18.5511  -14.8107 O   0  0  0  0  0  0  0  0  0  0  0  0
   19.6892  -22.8036  -17.8588 O   0  0  0  0  0  0  0  0  0  0  0  0
   27.0896  -20.2840  -12.1861 N   0  0  0  0  0  0  0  0  0  0  0  0
   26.2095  -21.2688  -11.6738 C   0  0  0  0  0  0  0  0  0  0  0  0
   26.6363  -22.0362  -10.7832 O   0  0  0  0  0  0  0  0  0  0  0  0
   24.8500  -21.3586  -12.1927 C   0  0  0  0  0  0  0  0  0  0  0  0
   24.5045  -20.2893  -13.2249 C   0  0  2  0  0  0  0  0  0  0  0  0
   23.1467  -20.5245  -13.6037 N   0  0  0  0  0  0  0  0  0  0  0  0
   25.4056  -20.4875  -14.3775 C   0  0  0  0  0  0  0  0  0  0  0  0
   25.2807  -21.6126  -15.0115 O   0  0  0  0  0  0  0  0  0  0  0  0
   26.3841  -19.6066  -14.8753 N   0  0  0  0  0  0  0  0  0  0  0  0
   26.8536  -18.3313  -14.3897 C   0  0  0  0  0  0  0  0  0  0  0  0
   28.1931  -18.0602  -15.0802 C   0  0  0  0  0  0  0  0  0  0  0  0
   28.0616  -18.8212  -16.3896 C   0  0  0  0  0  0  0  0  0  0  0  0
   27.1217  -19.9448  -16.1155 C   0  0  1  0  0  0  0  0  0  0  0  0
   27.8699  -21.2178  -15.8982 C   0  0  0  0  0  0  0  0  0  0  0  0
   27.9172  -21.7035  -14.7585 O   0  0  0  0  0  0  0  0  0  0  0  0
   28.5035  -21.8478  -16.9639 O   0  0  0  0  0  0  0  0  0  0  0  0
  2  1  1  6
  2  7  1  0
  2  3  1  0
  3  4  1  0
  5  6  2  0
  5  4  1  0
  7 15  1  0
  7  8  2  0
  9  5  1  0
 11 10  1  0
 12 11  2  0
 13 11  1  0
 14 13  1  1
 15 14  1  0
 16 14  1  0
 17 16  2  0
 18 16  1  0
 18 19  1  0
 20 19  1  0
 21 22  1  0
 21 20  1  0
 22 23  1  1
 22 18  1  0
 23 25  1  0
 24 23  2  0
M  END
$$$$
