ENP.pdb
     RDKit          3D

 25 25  0  0  1  0  0  0  0  0999 V2000
   26.3702  -21.5933  -17.7108 N   0  0  0  0  0  0  0  0  0  0  0  0
   27.7609  -21.7300  -17.8612 C   0  0  1  0  0  0  0  0  0  0  0  0
   28.5112  -20.4599  -17.6434 C   0  0  0  0  0  0  0  0  0  0  0  0
   28.0645  -19.3417  -18.5107 C   0  0  0  0  0  0  0  0  0  0  0  0
   26.9822  -18.5467  -17.9474 C   0  0  0  0  0  0  0  0  0  0  0  0
   25.8683  -18.3547  -18.4326 O   0  0  0  0  0  0  0  0  0  0  0  0
   28.3577  -22.8453  -17.0355 C   0  0  0  0  0  0  0  0  0  0  0  0
   27.5851  -23.3931  -16.2281 O   0  0  0  0  0  0  0  0  0  0  0  0
   27.2216  -17.9170  -16.7007 O   0  0  0  0  0  0  0  0  0  0  0  0
   29.0340  -27.4914  -15.8554 N   0  0  0  0  0  0  0  0  0  0  0  0
   29.6202  -26.9384  -17.0205 C   0  0  0  0  0  0  0  0  0  0  0  0
   30.3934  -27.6575  -17.6907 O   0  0  0  0  0  0  0  0  0  0  0  0
   29.3101  -25.5651  -17.3994 C   0  0  0  0  0  0  0  0  0  0  0  0
   30.1664  -24.5157  -16.6968 C   0  0  2  0  0  0  0  0  0  0  0  0
   29.7059  -23.2464  -17.1652 N   0  0  0  0  0  0  0  0  0  0  0  0
   31.5648  -24.7444  -17.1111 C   0  0  0  0  0  0  0  0  0  0  0  0
   31.8094  -24.6287  -18.3800 O   0  0  0  0  0  0  0  0  0  0  0  0
   32.6675  -25.0723  -16.2999 N   0  0  0  0  0  0  0  0  0  0  0  0
   32.7473  -25.4614  -14.9125 C   0  0  0  0  0  0  0  0  0  0  0  0
   34.1261  -26.0955  -14.7089 C   0  0  0  0  0  0  0  0  0  0  0  0
   34.9752  -25.4119  -15.7684 C   0  0  0  0  0  0  0  0  0  0  0  0
   34.0373  -25.0392  -16.8648 C   0  0  1  0  0  0  0  0  0  0  0  0
   34.1190  -26.0211  -17.9859 C   0  0  0  0  0  0  0  0  0  0  0  0
   33.2341  -26.8820  -18.1004 O   0  0  0  0  0  0  0  0  0  0  0  0
   35.1755  -25.9665  -18.8884 O   0  0  0  0  0  0  0  0  0  0  0  0
  2  1  1  1
  2  7  1  0
  2  3  1  0
  3  4  1  0
  5  6  2  0
  5  4  1  0
  7 15  1  0
  7  8  2  0
  9  5  1  0
 11 10  1  0
 12 11  2  0
 13 11  1  0
 14 13  1  6
 15 14  1  0
 16 14  1  0
 17 16  2  0
 18 16  1  0
 18 19  1  0
 20 19  1  0
 21 22  1  0
 21 20  1  0
 22 23  1  6
 22 18  1  0
 23 25  1  0
 24 23  2  0
M  END
$$$$
