ENP.pdb
     RDKit          3D

 25 25  0  0  1  0  0  0  0  0999 V2000
   13.5153  -23.3163   -5.7083 N   0  0  0  0  0  0  0  0  0  0  0  0
   13.9723  -23.7615   -4.4560 C   0  0  1  0  0  0  0  0  0  0  0  0
   15.3940  -24.2109   -4.4660 C   0  0  0  0  0  0  0  0  0  0  0  0
   15.6985  -25.2186   -5.5120 C   0  0  0  0  0  0  0  0  0  0  0  0
   17.0761  -25.6904   -5.5015 C   0  0  0  0  0  0  0  0  0  0  0  0
   17.5647  -26.5787   -6.1982 O   0  0  0  0  0  0  0  0  0  0  0  0
   13.7365  -22.7771   -3.3347 C   0  0  0  0  0  0  0  0  0  0  0  0
   13.1585  -21.7222   -3.6541 O   0  0  0  0  0  0  0  0  0  0  0  0
   17.9678  -25.0670   -4.5936 O   0  0  0  0  0  0  0  0  0  0  0  0
   11.4792  -19.9410   -0.0992 N   0  0  0  0  0  0  0  0  0  0  0  0
   11.6902  -21.3170    0.1634 C   0  0  0  0  0  0  0  0  0  0  0  0
   11.3820  -21.7565    1.2930 O   0  0  0  0  0  0  0  0  0  0  0  0
   12.2536  -22.1696   -0.8765 C   0  0  0  0  0  0  0  0  0  0  0  0
   13.7786  -22.1687   -0.9254 C   0  0  2  0  0  0  0  0  0  0  0  0
   14.1435  -23.0301   -2.0059 N   0  0  0  0  0  0  0  0  0  0  0  0
   14.2572  -22.7176    0.3588 C   0  0  0  0  0  0  0  0  0  0  0  0
   13.8831  -23.9286    0.6357 O   0  0  0  0  0  0  0  0  0  0  0  0
   15.0703  -22.0900    1.3214 N   0  0  0  0  0  0  0  0  0  0  0  0
   15.4841  -20.7154    1.4689 C   0  0  0  0  0  0  0  0  0  0  0  0
   15.9895  -20.5566    2.9055 C   0  0  0  0  0  0  0  0  0  0  0  0
   16.4775  -21.9541    3.2514 C   0  0  0  0  0  0  0  0  0  0  0  0
   15.6653  -22.8870    2.4201 C   0  0  1  0  0  0  0  0  0  0  0  0
   14.5645  -23.4910    3.2270 C   0  0  0  0  0  0  0  0  0  0  0  0
   13.4068  -23.0731    3.0774 O   0  0  0  0  0  0  0  0  0  0  0  0
   14.8387  -24.5097    4.1330 O   0  0  0  0  0  0  0  0  0  0  0  0
  2  1  1  6
  2  7  1  0
  2  3  1  0
  3  4  1  0
  5  6  2  0
  5  4  1  0
  7 15  1  0
  7  8  2  0
  9  5  1  0
 11 10  1  0
 12 11  2  0
 13 11  1  0
 14 13  1  1
 15 14  1  0
 16 14  1  0
 17 16  2  0
 18 16  1  0
 18 19  1  0
 20 19  1  0
 21 22  1  0
 21 20  1  0
 22 23  1  1
 22 18  1  0
 23 25  1  0
 24 23  2  0
M  END
$$$$
