ENP.pdb
     RDKit          3D

 25 25  0  0  1  0  0  0  0  0999 V2000
   20.0661  -15.2044  -17.8378 N   0  0  0  0  0  0  0  0  0  0  0  0
   19.2381  -14.0897  -17.6203 C   0  0  1  0  0  0  0  0  0  0  0  0
   18.2017  -14.3131  -16.5719 C   0  0  0  0  0  0  0  0  0  0  0  0
   17.3486  -15.5031  -16.8139 C   0  0  0  0  0  0  0  0  0  0  0  0
   16.3914  -15.7760  -15.7509 C   0  0  0  0  0  0  0  0  0  0  0  0
   16.2219  -15.1310  -14.7173 O   0  0  0  0  0  0  0  0  0  0  0  0
   19.9947  -12.8101  -17.3520 C   0  0  0  0  0  0  0  0  0  0  0  0
   21.1229  -12.9454  -16.8444 O   0  0  0  0  0  0  0  0  0  0  0  0
   15.5526  -16.9072  -15.9088 O   0  0  0  0  0  0  0  0  0  0  0  0
   21.3364   -7.7891  -17.4028 N   0  0  0  0  0  0  0  0  0  0  0  0
   20.2900   -8.0005  -18.3341 C   0  0  0  0  0  0  0  0  0  0  0  0
   19.9839   -7.0614  -19.1014 O   0  0  0  0  0  0  0  0  0  0  0  0
   19.6088   -9.2890  -18.3705 C   0  0  0  0  0  0  0  0  0  0  0  0
   20.2018  -10.3347  -17.4310 C   0  0  2  0  0  0  0  0  0  0  0  0
   19.4625  -11.5371  -17.6549 N   0  0  0  0  0  0  0  0  0  0  0  0
   19.9962   -9.8496  -16.0518 C   0  0  0  0  0  0  0  0  0  0  0  0
   18.7627   -9.7122  -15.6741 O   0  0  0  0  0  0  0  0  0  0  0  0
   20.9730   -9.5175  -15.0943 N   0  0  0  0  0  0  0  0  0  0  0  0
   22.4146   -9.5448  -15.1548 C   0  0  0  0  0  0  0  0  0  0  0  0
   22.9231   -8.6847  -13.9945 C   0  0  0  0  0  0  0  0  0  0  0  0
   21.8069   -8.8015  -12.9693 C   0  0  0  0  0  0  0  0  0  0  0  0
   20.5617   -9.0516  -13.7488 C   0  0  1  0  0  0  0  0  0  0  0  0
   19.7699   -7.7950  -13.8963 C   0  0  0  0  0  0  0  0  0  0  0  0
   19.7203   -7.2388  -15.0033 O   0  0  0  0  0  0  0  0  0  0  0  0
   19.0974   -7.2593  -12.8033 O   0  0  0  0  0  0  0  0  0  0  0  0
  2  1  1  1
  2  7  1  0
  2  3  1  0
  3  4  1  0
  5  6  2  0
  5  4  1  0
  7 15  1  0
  7  8  2  0
  9  5  1  0
 11 10  1  0
 12 11  2  0
 13 11  1  0
 14 13  1  6
 15 14  1  0
 16 14  1  0
 17 16  2  0
 18 16  1  0
 18 19  1  0
 20 19  1  0
 21 22  1  0
 21 20  1  0
 22 23  1  6
 22 18  1  0
 23 25  1  0
 24 23  2  0
M  END
$$$$
