ENP.pdb
     RDKit          3D

 25 25  0  0  1  0  0  0  0  0999 V2000
   28.6060  -24.1506  -18.2123 N   0  0  0  0  0  0  0  0  0  0  0  0
   27.6737  -23.1039  -18.1089 C   0  0  1  0  0  0  0  0  0  0  0  0
   26.3393  -23.4357  -18.6857 C   0  0  0  0  0  0  0  0  0  0  0  0
   25.4786  -24.2417  -17.7847 C   0  0  0  0  0  0  0  0  0  0  0  0
   24.2452  -24.7102  -18.4010 C   0  0  0  0  0  0  0  0  0  0  0  0
   23.3460  -25.3590  -17.8685 O   0  0  0  0  0  0  0  0  0  0  0  0
   27.5236  -22.5559  -16.7093 C   0  0  0  0  0  0  0  0  0  0  0  0
   27.8181  -23.3388  -15.7877 O   0  0  0  0  0  0  0  0  0  0  0  0
   24.0412  -24.3913  -19.7666 O   0  0  0  0  0  0  0  0  0  0  0  0
   26.8170  -17.2092  -13.9110 N   0  0  0  0  0  0  0  0  0  0  0  0
   27.5709  -18.3800  -14.1707 C   0  0  0  0  0  0  0  0  0  0  0  0
   28.4401  -18.7194  -13.3377 O   0  0  0  0  0  0  0  0  0  0  0  0
   27.3160  -19.1452  -15.3852 C   0  0  0  0  0  0  0  0  0  0  0  0
   27.1714  -20.6470  -15.1573 C   0  0  2  0  0  0  0  0  0  0  0  0
   27.0777  -21.2400  -16.4543 N   0  0  0  0  0  0  0  0  0  0  0  0
   25.9209  -20.8556  -14.4009 C   0  0  0  0  0  0  0  0  0  0  0  0
   24.8295  -20.8868  -15.1017 O   0  0  0  0  0  0  0  0  0  0  0  0
   25.7649  -21.0256  -13.0123 N   0  0  0  0  0  0  0  0  0  0  0  0
   26.7278  -21.0183  -11.9375 C   0  0  0  0  0  0  0  0  0  0  0  0
   25.9404  -20.8242  -10.6386 C   0  0  0  0  0  0  0  0  0  0  0  0
   24.5831  -21.4229  -10.9704 C   0  0  0  0  0  0  0  0  0  0  0  0
   24.4179  -21.2674  -12.4433 C   0  0  1  0  0  0  0  0  0  0  0  0
   23.5464  -20.0968  -12.7561 C   0  0  0  0  0  0  0  0  0  0  0  0
   22.3313  -20.1683  -12.5202 O   0  0  0  0  0  0  0  0  0  0  0  0
   24.0951  -18.9426  -13.3043 O   0  0  0  0  0  0  0  0  0  0  0  0
  2  1  1  1
  2  7  1  0
  2  3  1  0
  3  4  1  0
  5  6  2  0
  5  4  1  0
  7 15  1  0
  7  8  2  0
  9  5  1  0
 11 10  1  0
 12 11  2  0
 13 11  1  0
 14 13  1  6
 15 14  1  0
 16 14  1  0
 17 16  2  0
 18 16  1  0
 18 19  1  0
 20 19  1  0
 21 22  1  0
 21 20  1  0
 22 23  1  1
 22 18  1  0
 23 25  1  0
 24 23  2  0
M  END
$$$$
