ENP.pdb
     RDKit          3D

 25 25  0  0  1  0  0  0  0  0999 V2000
   20.2538  -11.8221  -16.4896 N   0  0  0  0  0  0  0  0  0  0  0  0
   21.0101  -10.6707  -16.7684 C   0  0  1  0  0  0  0  0  0  0  0  0
   21.2883  -10.4781  -18.2206 C   0  0  0  0  0  0  0  0  0  0  0  0
   20.0718  -10.4767  -19.0706 C   0  0  0  0  0  0  0  0  0  0  0  0
   20.3289  -10.2054  -20.4781 C   0  0  0  0  0  0  0  0  0  0  0  0
   19.4980   -9.9909  -21.3593 O   0  0  0  0  0  0  0  0  0  0  0  0
   20.4428   -9.4069  -16.1662 C   0  0  0  0  0  0  0  0  0  0  0  0
   19.2041   -9.3713  -16.0517 O   0  0  0  0  0  0  0  0  0  0  0  0
   21.6826  -10.1814  -20.8967 O   0  0  0  0  0  0  0  0  0  0  0  0
   19.8539   -8.4027  -12.7402 N   0  0  0  0  0  0  0  0  0  0  0  0
   21.0630   -7.6693  -12.6556 C   0  0  0  0  0  0  0  0  0  0  0  0
   21.6563   -7.6338  -11.5551 O   0  0  0  0  0  0  0  0  0  0  0  0
   21.5739   -6.9857  -13.8377 C   0  0  0  0  0  0  0  0  0  0  0  0
   20.7241   -7.1848  -15.0892 C   0  0  2  0  0  0  0  0  0  0  0  0
   21.2595   -8.3294  -15.7569 N   0  0  0  0  0  0  0  0  0  0  0  0
   20.8844   -5.9769  -15.9228 C   0  0  0  0  0  0  0  0  0  0  0  0
   22.0297   -5.8430  -16.5176 O   0  0  0  0  0  0  0  0  0  0  0  0
   19.9483   -4.9513  -16.1534 N   0  0  0  0  0  0  0  0  0  0  0  0
   18.5937   -4.7755  -15.6879 C   0  0  0  0  0  0  0  0  0  0  0  0
   18.2390   -3.3016  -15.9034 C   0  0  0  0  0  0  0  0  0  0  0  0
   19.1169   -2.9085  -17.0804 C   0  0  0  0  0  0  0  0  0  0  0  0
   20.3080   -3.8018  -17.0170 C   0  0  1  0  0  0  0  0  0  0  0  0
   21.4705   -3.0893  -16.4098 C   0  0  0  0  0  0  0  0  0  0  0  0
   21.8330   -3.3925  -15.2636 O   0  0  0  0  0  0  0  0  0  0  0  0
   22.1356   -2.0993  -17.1248 O   0  0  0  0  0  0  0  0  0  0  0  0
  2  1  1  6
  2  7  1  0
  2  3  1  0
  3  4  1  0
  5  6  2  0
  5  4  1  0
  7 15  1  0
  7  8  2  0
  9  5  1  0
 11 10  1  0
 12 11  2  0
 13 11  1  0
 14 13  1  1
 15 14  1  0
 16 14  1  0
 17 16  2  0
 18 16  1  0
 18 19  1  0
 20 19  1  0
 21 22  1  0
 21 20  1  0
 22 23  1  1
 22 18  1  0
 23 25  1  0
 24 23  2  0
M  END
$$$$
