ENP.pdb
     RDKit          3D

 25 25  0  0  1  0  0  0  0  0999 V2000
   23.2804  -13.5013  -18.0445 N   0  0  0  0  0  0  0  0  0  0  0  0
   23.2792  -12.6978  -16.8912 C   0  0  1  0  0  0  0  0  0  0  0  0
   24.6108  -12.6087  -16.2261 C   0  0  0  0  0  0  0  0  0  0  0  0
   25.6510  -11.9445  -17.0501 C   0  0  0  0  0  0  0  0  0  0  0  0
   26.9856  -11.9826  -16.4687 C   0  0  0  0  0  0  0  0  0  0  0  0
   27.3341  -12.5607  -15.4405 O   0  0  0  0  0  0  0  0  0  0  0  0
   22.7030  -11.3185  -17.1087 C   0  0  0  0  0  0  0  0  0  0  0  0
   22.9341  -10.8049  -18.2184 O   0  0  0  0  0  0  0  0  0  0  0  0
   28.0102  -11.2808  -17.1515 O   0  0  0  0  0  0  0  0  0  0  0  0
   19.3176   -7.4345  -16.7616 N   0  0  0  0  0  0  0  0  0  0  0  0
   18.8576   -8.6267  -16.1500 C   0  0  0  0  0  0  0  0  0  0  0  0
   17.6372   -8.7268  -15.8955 O   0  0  0  0  0  0  0  0  0  0  0  0
   19.8073   -9.6882  -15.8385 C   0  0  0  0  0  0  0  0  0  0  0  0
   21.2037   -9.4633  -16.4109 C   0  0  2  0  0  0  0  0  0  0  0  0
   21.9493  -10.6475  -16.1202 N   0  0  0  0  0  0  0  0  0  0  0  0
   21.7822   -8.3014  -15.7074 C   0  0  0  0  0  0  0  0  0  0  0  0
   21.9232   -8.4248  -14.4236 O   0  0  0  0  0  0  0  0  0  0  0  0
   22.2008   -7.0748  -16.2567 N   0  0  0  0  0  0  0  0  0  0  0  0
   22.2612   -6.6140  -17.6229 C   0  0  0  0  0  0  0  0  0  0  0  0
   22.3828   -5.0884  -17.5708 C   0  0  0  0  0  0  0  0  0  0  0  0
   23.0727   -4.8470  -16.2380 C   0  0  0  0  0  0  0  0  0  0  0  0
   22.6919   -5.9954  -15.3678 C   0  0  1  0  0  0  0  0  0  0  0  0
   21.5963   -5.6076  -14.4314 C   0  0  0  0  0  0  0  0  0  0  0  0
   20.4547   -6.0532  -14.6200 O   0  0  0  0  0  0  0  0  0  0  0  0
   21.8576   -4.7578  -13.3621 O   0  0  0  0  0  0  0  0  0  0  0  0
  2  1  1  6
  2  7  1  0
  2  3  1  0
  3  4  1  0
  5  6  2  0
  5  4  1  0
  7 15  1  0
  7  8  2  0
  9  5  1  0
 11 10  1  0
 12 11  2  0
 13 11  1  0
 14 13  1  1
 15 14  1  0
 16 14  1  0
 17 16  2  0
 18 16  1  0
 18 19  1  0
 20 19  1  0
 21 22  1  0
 21 20  1  0
 22 23  1  1
 22 18  1  0
 23 25  1  0
 24 23  2  0
M  END
$$$$
