ENP.pdb
     RDKit          3D

 25 25  0  0  1  0  0  0  0  0999 V2000
   26.8159  -20.7012  -18.2664 N   0  0  0  0  0  0  0  0  0  0  0  0
   26.6704  -21.9388  -17.6164 C   0  0  1  0  0  0  0  0  0  0  0  0
   27.6420  -22.9716  -18.0776 C   0  0  0  0  0  0  0  0  0  0  0  0
   29.0172  -22.7797  -17.5539 C   0  0  0  0  0  0  0  0  0  0  0  0
   29.9512  -23.8306  -17.9332 C   0  0  0  0  0  0  0  0  0  0  0  0
   30.6467  -24.5151  -17.1844 O   0  0  0  0  0  0  0  0  0  0  0  0
   26.6778  -21.8414  -16.1090 C   0  0  0  0  0  0  0  0  0  0  0  0
   26.6915  -22.9250  -15.4972 O   0  0  0  0  0  0  0  0  0  0  0  0
   30.0859  -24.1097  -19.3160 O   0  0  0  0  0  0  0  0  0  0  0  0
   29.3596  -18.3754  -14.7406 N   0  0  0  0  0  0  0  0  0  0  0  0
   28.7217  -19.1049  -13.7073 C   0  0  0  0  0  0  0  0  0  0  0  0
   29.4402  -19.6859  -12.8644 O   0  0  0  0  0  0  0  0  0  0  0  0
   27.2655  -19.1572  -13.6569 C   0  0  0  0  0  0  0  0  0  0  0  0
   26.6782  -20.5223  -14.0026 C   0  0  2  0  0  0  0  0  0  0  0  0
   26.6693  -20.6029  -15.4295 N   0  0  0  0  0  0  0  0  0  0  0  0
   25.3002  -20.5517  -13.4736 C   0  0  0  0  0  0  0  0  0  0  0  0
   24.3789  -20.0823  -14.2573 O   0  0  0  0  0  0  0  0  0  0  0  0
   24.8607  -21.0265  -12.2235 N   0  0  0  0  0  0  0  0  0  0  0  0
   25.5915  -21.5205  -11.0814 C   0  0  0  0  0  0  0  0  0  0  0  0
   24.6305  -21.4816   -9.8899 C   0  0  0  0  0  0  0  0  0  0  0  0
   23.2681  -21.6372  -10.5459 C   0  0  0  0  0  0  0  0  0  0  0  0
   23.4109  -21.0785  -11.9200 C   0  0  1  0  0  0  0  0  0  0  0  0
   22.8555  -19.6948  -11.9877 C   0  0  0  0  0  0  0  0  0  0  0  0
   23.6341  -18.7361  -12.0959 O   0  0  0  0  0  0  0  0  0  0  0  0
   21.4814  -19.4888  -11.9304 O   0  0  0  0  0  0  0  0  0  0  0  0
  2  1  1  6
  2  7  1  0
  2  3  1  0
  3  4  1  0
  5  6  2  0
  5  4  1  0
  7 15  1  0
  7  8  2  0
  9  5  1  0
 11 10  1  0
 12 11  2  0
 13 11  1  0
 14 13  1  6
 15 14  1  0
 16 14  1  0
 17 16  2  0
 18 16  1  0
 18 19  1  0
 20 19  1  0
 21 22  1  0
 21 20  1  0
 22 23  1  1
 22 18  1  0
 23 25  1  0
 24 23  2  0
M  END
$$$$
