ENP.pdb
     RDKit          3D

 25 25  0  0  1  0  0  0  0  0999 V2000
   14.7760  -21.7991    1.0289 N   0  0  0  0  0  0  0  0  0  0  0  0
   14.8922  -21.8021    2.4296 C   0  0  1  0  0  0  0  0  0  0  0  0
   15.2126  -23.1430    2.9977 C   0  0  0  0  0  0  0  0  0  0  0  0
   15.4880  -24.1800    1.9725 C   0  0  0  0  0  0  0  0  0  0  0  0
   16.5096  -25.1431    2.3589 C   0  0  0  0  0  0  0  0  0  0  0  0
   17.1877  -25.1385    3.3851 O   0  0  0  0  0  0  0  0  0  0  0  0
   15.8446  -20.7592    2.9655 C   0  0  0  0  0  0  0  0  0  0  0  0
   16.7274  -20.3766    2.1761 O   0  0  0  0  0  0  0  0  0  0  0  0
   16.7634  -26.2126    1.4645 O   0  0  0  0  0  0  0  0  0  0  0  0
   17.7166  -16.7927    5.6082 N   0  0  0  0  0  0  0  0  0  0  0  0
   16.3253  -16.9436    5.8280 C   0  0  0  0  0  0  0  0  0  0  0  0
   15.7120  -16.0107    6.3918 O   0  0  0  0  0  0  0  0  0  0  0  0
   15.6574  -18.1658    5.3970 C   0  0  0  0  0  0  0  0  0  0  0  0
   16.5841  -19.1847    4.7404 C   0  0  2  0  0  0  0  0  0  0  0  0
   15.7462  -20.2460    4.2779 N   0  0  0  0  0  0  0  0  0  0  0  0
   17.5078  -19.6714    5.7843 C   0  0  0  0  0  0  0  0  0  0  0  0
   16.9605  -20.2828    6.7893 O   0  0  0  0  0  0  0  0  0  0  0  0
   18.9100  -19.5550    5.8250 N   0  0  0  0  0  0  0  0  0  0  0  0
   19.8426  -18.9473    4.9066 C   0  0  0  0  0  0  0  0  0  0  0  0
   21.1545  -18.7523    5.6717 C   0  0  0  0  0  0  0  0  0  0  0  0
   21.1114  -19.8616    6.7101 C   0  0  0  0  0  0  0  0  0  0  0  0
   19.6670  -20.1272    6.9634 C   0  0  1  0  0  0  0  0  0  0  0  0
   19.2205  -19.4602    8.2217 C   0  0  0  0  0  0  0  0  0  0  0  0
   19.3768  -20.0452    9.3036 O   0  0  0  0  0  0  0  0  0  0  0  0
   18.6379  -18.1983    8.1762 O   0  0  0  0  0  0  0  0  0  0  0  0
  2  1  1  6
  2  7  1  0
  2  3  1  0
  3  4  1  0
  5  6  2  0
  5  4  1  0
  7 15  1  0
  7  8  2  0
  9  5  1  0
 11 10  1  0
 12 11  2  0
 13 11  1  0
 14 13  1  1
 15 14  1  0
 16 14  1  0
 17 16  2  0
 18 16  1  0
 18 19  1  0
 20 19  1  0
 21 22  1  0
 21 20  1  0
 22 23  1  1
 22 18  1  0
 23 25  1  0
 24 23  2  0
M  END
$$$$
