ENP.pdb
     RDKit          3D

 25 25  0  0  1  0  0  0  0  0999 V2000
   26.0796  -18.5240  -18.0769 N   0  0  0  0  0  0  0  0  0  0  0  0
   26.5480  -19.1619  -16.9154 C   0  0  1  0  0  0  0  0  0  0  0  0
   27.9550  -18.8102  -16.5689 C   0  0  0  0  0  0  0  0  0  0  0  0
   28.9641  -19.3953  -17.4863 C   0  0  0  0  0  0  0  0  0  0  0  0
   28.9757  -18.8013  -18.8159 C   0  0  0  0  0  0  0  0  0  0  0  0
   28.8298  -19.3798  -19.8915 O   0  0  0  0  0  0  0  0  0  0  0  0
   25.6474  -18.9839  -15.7157 C   0  0  0  0  0  0  0  0  0  0  0  0
   25.6820  -17.8635  -15.1752 O   0  0  0  0  0  0  0  0  0  0  0  0
   29.1756  -17.4008  -18.8983 O   0  0  0  0  0  0  0  0  0  0  0  0
   21.9963  -19.6700  -12.1429 N   0  0  0  0  0  0  0  0  0  0  0  0
   21.6217  -20.2365  -13.3861 C   0  0  0  0  0  0  0  0  0  0  0  0
   20.4468  -20.6442  -13.5191 O   0  0  0  0  0  0  0  0  0  0  0  0
   22.6033  -20.3271  -14.4603 C   0  0  0  0  0  0  0  0  0  0  0  0
   24.0002  -19.8532  -14.0702 C   0  0  2  0  0  0  0  0  0  0  0  0
   24.8163  -20.0186  -15.2318 N   0  0  0  0  0  0  0  0  0  0  0  0
   24.4696  -20.7292  -12.9785 C   0  0  0  0  0  0  0  0  0  0  0  0
   24.3511  -22.0052  -13.1808 O   0  0  0  0  0  0  0  0  0  0  0  0
   25.0309  -20.3520  -11.7439 N   0  0  0  0  0  0  0  0  0  0  0  0
   25.3837  -19.0570  -11.2137 C   0  0  0  0  0  0  0  0  0  0  0  0
   25.5414  -19.2261   -9.7000 C   0  0  0  0  0  0  0  0  0  0  0  0
   25.9521  -20.6831   -9.5609 C   0  0  0  0  0  0  0  0  0  0  0  0
   25.3649  -21.3863  -10.7363 C   0  0  1  0  0  0  0  0  0  0  0  0
   24.1144  -22.1043  -10.3513 C   0  0  0  0  0  0  0  0  0  0  0  0
   24.1939  -23.1167   -9.6400 O   0  0  0  0  0  0  0  0  0  0  0  0
   22.8782  -21.6392  -10.7865 O   0  0  0  0  0  0  0  0  0  0  0  0
  2  1  1  6
  2  7  1  0
  2  3  1  0
  3  4  1  0
  5  6  2  0
  5  4  1  0
  7 15  1  0
  7  8  2  0
  9  5  1  0
 11 10  1  0
 12 11  2  0
 13 11  1  0
 14 13  1  6
 15 14  1  0
 16 14  1  0
 17 16  2  0
 18 16  1  0
 18 19  1  0
 20 19  1  0
 21 22  1  0
 21 20  1  0
 22 23  1  1
 22 18  1  0
 23 25  1  0
 24 23  2  0
M  END
$$$$
