ENP.pdb
     RDKit          3D

 25 25  0  0  1  0  0  0  0  0999 V2000
   17.7624  -11.3675  -18.2478 N   0  0  0  0  0  0  0  0  0  0  0  0
   17.9805  -10.8021  -16.9797 C   0  0  1  0  0  0  0  0  0  0  0  0
   18.8749  -11.6183  -16.1094 C   0  0  0  0  0  0  0  0  0  0  0  0
   18.3638  -12.9844  -15.8357 C   0  0  0  0  0  0  0  0  0  0  0  0
   17.4226  -13.0572  -14.7269 C   0  0  0  0  0  0  0  0  0  0  0  0
   17.0664  -12.1385  -13.9905 O   0  0  0  0  0  0  0  0  0  0  0  0
   18.4507   -9.3672  -17.0235 C   0  0  0  0  0  0  0  0  0  0  0  0
   19.0750   -9.0339  -18.0472 O   0  0  0  0  0  0  0  0  0  0  0  0
   16.8419  -14.3202  -14.4516 O   0  0  0  0  0  0  0  0  0  0  0  0
   18.5673   -4.2768  -16.1296 N   0  0  0  0  0  0  0  0  0  0  0  0
   17.4139   -4.8697  -15.5596 C   0  0  0  0  0  0  0  0  0  0  0  0
   16.4981   -4.1165  -15.1618 O   0  0  0  0  0  0  0  0  0  0  0  0
   17.3288   -6.3214  -15.4539 C   0  0  0  0  0  0  0  0  0  0  0  0
   18.4987   -7.0629  -16.0939 C   0  0  2  0  0  0  0  0  0  0  0  0
   18.2020   -8.4557  -15.9734 N   0  0  0  0  0  0  0  0  0  0  0  0
   19.7083   -6.7222  -15.3190 C   0  0  0  0  0  0  0  0  0  0  0  0
   19.6635   -6.9826  -14.0488 O   0  0  0  0  0  0  0  0  0  0  0  0
   20.9059   -6.1496  -15.7873 N   0  0  0  0  0  0  0  0  0  0  0  0
   21.3374   -5.7991  -17.1190 C   0  0  0  0  0  0  0  0  0  0  0  0
   22.5207   -4.8398  -16.9632 C   0  0  0  0  0  0  0  0  0  0  0  0
   23.1158   -5.2475  -15.6251 C   0  0  0  0  0  0  0  0  0  0  0  0
   21.9874   -5.8116  -14.8319 C   0  0  1  0  0  0  0  0  0  0  0  0
   21.4716   -4.8051  -13.8580 C   0  0  0  0  0  0  0  0  0  0  0  0
   20.3707   -4.2737  -14.0647 O   0  0  0  0  0  0  0  0  0  0  0  0
   22.2196   -4.4715  -12.7341 O   0  0  0  0  0  0  0  0  0  0  0  0
  2  1  1  6
  2  7  1  0
  2  3  1  0
  3  4  1  0
  5  6  2  0
  5  4  1  0
  7 15  1  0
  7  8  2  0
  9  5  1  0
 11 10  1  0
 12 11  2  0
 13 11  1  0
 14 13  1  1
 15 14  1  0
 16 14  1  0
 17 16  2  0
 18 16  1  0
 18 19  1  0
 20 19  1  0
 21 22  1  0
 21 20  1  0
 22 23  1  1
 22 18  1  0
 23 25  1  0
 24 23  2  0
M  END
$$$$
