ENP.pdb
     RDKit          3D

 25 25  0  0  1  0  0  0  0  0999 V2000
   19.9601  -22.0636  -14.7302 N   0  0  0  0  0  0  0  0  0  0  0  0
   20.5589  -21.0430  -15.4887 C   0  0  1  0  0  0  0  0  0  0  0  0
   19.6082  -19.9702  -15.8994 C   0  0  0  0  0  0  0  0  0  0  0  0
   18.8769  -19.3495  -14.7672 C   0  0  0  0  0  0  0  0  0  0  0  0
   19.2297  -17.9582  -14.5213 C   0  0  0  0  0  0  0  0  0  0  0  0
   19.2228  -17.0334  -15.3322 O   0  0  0  0  0  0  0  0  0  0  0  0
   21.7867  -20.4437  -14.8445 C   0  0  0  0  0  0  0  0  0  0  0  0
   21.9064  -20.6410  -13.6216 O   0  0  0  0  0  0  0  0  0  0  0  0
   19.6271  -17.6132  -13.2055 O   0  0  0  0  0  0  0  0  0  0  0  0
   27.0549  -21.4149  -15.6514 N   0  0  0  0  0  0  0  0  0  0  0  0
   26.0236  -21.1686  -14.7120 C   0  0  0  0  0  0  0  0  0  0  0  0
   26.3367  -21.0626  -13.5057 O   0  0  0  0  0  0  0  0  0  0  0  0
   24.6453  -21.0478  -15.1719 C   0  0  0  0  0  0  0  0  0  0  0  0
   24.1091  -19.6193  -15.1665 C   0  0  2  0  0  0  0  0  0  0  0  0
   22.7426  -19.7048  -15.5765 N   0  0  0  0  0  0  0  0  0  0  0  0
   24.8981  -18.8528  -16.1511 C   0  0  0  0  0  0  0  0  0  0  0  0
   24.8389  -19.2703  -17.3781 O   0  0  0  0  0  0  0  0  0  0  0  0
   25.7075  -17.7236  -15.9244 N   0  0  0  0  0  0  0  0  0  0  0  0
   26.2723  -17.1846  -14.7108 C   0  0  0  0  0  0  0  0  0  0  0  0
   27.3875  -16.2228  -15.1303 C   0  0  0  0  0  0  0  0  0  0  0  0
   26.9330  -15.7519  -16.5024 C   0  0  0  0  0  0  0  0  0  0  0  0
   26.1063  -16.8592  -17.0603 C   0  0  1  0  0  0  0  0  0  0  0  0
   26.8983  -17.6729  -18.0289 C   0  0  0  0  0  0  0  0  0  0  0  0
   27.1783  -17.1901  -19.1360 O   0  0  0  0  0  0  0  0  0  0  0  0
   27.3153  -18.9553  -17.6891 O   0  0  0  0  0  0  0  0  0  0  0  0
  2  1  1  1
  2  7  1  0
  2  3  1  0
  3  4  1  0
  5  6  2  0
  5  4  1  0
  7 15  1  0
  7  8  2  0
  9  5  1  0
 11 10  1  0
 12 11  2  0
 13 11  1  0
 14 13  1  6
 15 14  1  0
 16 14  1  0
 17 16  2  0
 18 16  1  0
 18 19  1  0
 20 19  1  0
 21 22  1  0
 21 20  1  0
 22 23  1  6
 22 18  1  0
 23 25  1  0
 24 23  2  0
M  END
$$$$
