KLM.pdb
     RDKit          3D

 26 25  0  0  1  0  0  0  0  0999 V2000
    9.4260  -18.7362   19.1703 N   0  0  0  0  0  0  0  0  0  0  0  0
   10.6891  -18.0931   19.4201 C   0  0  1  0  0  0  0  0  0  0  0  0
   11.4830  -17.8041   18.1718 C   0  0  0  0  0  0  0  0  0  0  0  0
   11.8001  -19.0160   17.3866 C   0  0  0  0  0  0  0  0  0  0  0  0
   12.9389  -18.9736   16.4522 C   0  0  0  0  0  0  0  0  0  0  0  0
   13.2021  -20.2447   15.7010 C   0  0  0  0  0  0  0  0  0  0  0  0
   14.3412  -20.1152   14.7948 N   0  0  0  0  0  0  0  0  0  0  0  0
   10.5531  -16.8970   20.2841 C   0  0  0  0  0  0  0  0  0  0  0  0
   11.5530  -16.2577   20.6486 O   0  0  0  0  0  0  0  0  0  0  0  0
    8.8744  -12.8711   19.5774 C   0  0  0  0  0  0  0  0  0  0  0  0
    7.8077  -13.9738   19.6838 C   0  0  2  0  0  0  0  0  0  0  0  0
    6.5104  -13.3034   19.3274 C   0  0  0  0  0  0  0  0  0  0  0  0
    7.8760  -14.4956   21.0834 C   0  0  0  0  0  0  0  0  0  0  0  0
    9.0542  -15.2557   21.4969 C   0  0  2  0  0  0  0  0  0  0  0  0
    9.2920  -16.4578   20.7112 N   0  0  0  0  0  0  0  0  0  0  0  0
    8.9723  -15.7039   22.8989 C   0  0  0  0  0  0  0  0  0  0  0  0
    8.1726  -16.6181   23.2771 O   0  0  0  0  0  0  0  0  0  0  0  0
    5.9069  -11.2845   27.5117 C   0  0  0  0  0  0  0  0  0  0  0  0
    7.3832  -11.6435   26.4948 S   0  0  0  0  0  0  0  0  0  0  0  0
    7.4974  -13.4410   26.3254 C   0  0  0  0  0  0  0  0  0  0  0  0
    8.1145  -13.8257   25.0201 C   0  0  0  0  0  0  0  0  0  0  0  0
    9.2762  -14.7948   25.2425 C   0  0  2  0  0  0  0  0  0  0  0  0
    9.7963  -15.1497   23.9466 N   0  0  0  0  0  0  0  0  0  0  0  0
    8.7471  -16.0178   25.9174 C   0  0  0  0  0  0  0  0  0  0  0  0
    8.9374  -16.1593   27.3036 O   0  0  0  0  0  0  0  0  0  0  0  0
    8.1409  -16.9298   25.3203 O   0  0  0  0  0  0  0  0  0  0  0  0
  2  1  1  6
  2  8  1  0
  3  2  1  0
  3  4  1  0
  4  5  1  0
  5  6  1  0
  7  6  1  0
  8  9  2  0
 11 12  1  1
 11 10  1  0
 13 11  1  0
 14 13  1  6
 14 16  1  0
 15  8  1  0
 15 14  1  0
 16 17  2  0
 19 18  1  0
 19 20  1  0
 20 21  1  0
 22 21  1  6
 22 24  1  0
 23 16  1  0
 23 22  1  0
 24 25  1  0
 26 24  2  0
M  END
$$$$
