KLM.pdb
     RDKit          3D

 26 25  0  0  1  0  0  0  0  0999 V2000
    8.7330  -18.8726   18.8834 N   0  0  0  0  0  0  0  0  0  0  0  0
    9.4671  -18.7999   20.1191 C   0  0  1  0  0  0  0  0  0  0  0  0
   10.6014  -19.7882   20.2130 C   0  0  0  0  0  0  0  0  0  0  0  0
   10.2105  -21.1643   19.8395 C   0  0  0  0  0  0  0  0  0  0  0  0
   11.2044  -22.2432   19.9806 C   0  0  0  0  0  0  0  0  0  0  0  0
   10.7238  -23.6135   19.6059 C   0  0  0  0  0  0  0  0  0  0  0  0
   11.7582  -24.6263   19.8052 N   0  0  0  0  0  0  0  0  0  0  0  0
    9.9022  -17.4197   20.4376 C   0  0  0  0  0  0  0  0  0  0  0  0
   10.8950  -16.9211   19.8837 O   0  0  0  0  0  0  0  0  0  0  0  0
    8.3207  -13.2686   19.5828 C   0  0  0  0  0  0  0  0  0  0  0  0
    7.4527  -14.1653   20.4815 C   0  0  2  0  0  0  0  0  0  0  0  0
    6.1803  -13.3942   20.6967 C   0  0  0  0  0  0  0  0  0  0  0  0
    8.2470  -14.4165   21.7231 C   0  0  0  0  0  0  0  0  0  0  0  0
    9.4559  -15.2336   21.6347 C   0  0  2  0  0  0  0  0  0  0  0  0
    9.2030  -16.6428   21.3722 N   0  0  0  0  0  0  0  0  0  0  0  0
   10.2545  -15.1944   22.8733 C   0  0  0  0  0  0  0  0  0  0  0  0
   10.7511  -14.1163   23.3309 O   0  0  0  0  0  0  0  0  0  0  0  0
    9.0977  -13.5571   28.9945 C   0  0  0  0  0  0  0  0  0  0  0  0
    9.5633  -13.9707   27.2755 S   0  0  0  0  0  0  0  0  0  0  0  0
    8.9195  -15.6247   26.9253 C   0  0  0  0  0  0  0  0  0  0  0  0
    9.0091  -15.9456   25.4688 C   0  0  0  0  0  0  0  0  0  0  0  0
   10.4286  -16.3812   25.1032 C   0  0  2  0  0  0  0  0  0  0  0  0
   10.5268  -16.3698   23.6659 N   0  0  0  0  0  0  0  0  0  0  0  0
   10.6383  -17.7726   25.6044 C   0  0  0  0  0  0  0  0  0  0  0  0
   11.1645  -17.9523   26.8962 O   0  0  0  0  0  0  0  0  0  0  0  0
   10.3726  -18.7943   24.9404 O   0  0  0  0  0  0  0  0  0  0  0  0
  2  1  1  6
  2  8  1  0
  3  2  1  0
  3  4  1  0
  4  5  1  0
  5  6  1  0
  7  6  1  0
  8  9  2  0
 11 12  1  1
 11 10  1  0
 13 11  1  0
 14 13  1  1
 14 16  1  0
 15  8  1  0
 15 14  1  0
 16 17  2  0
 19 18  1  0
 19 20  1  0
 20 21  1  0
 22 21  1  6
 22 24  1  0
 23 16  1  0
 23 22  1  0
 24 25  1  0
 26 24  2  0
M  END
$$$$
