KLM.pdb
     RDKit          3D

 26 25  0  0  1  0  0  0  0  0999 V2000
    6.8361  -15.7720   21.1863 N   0  0  0  0  0  0  0  0  0  0  0  0
    8.1515  -15.1910   21.2458 C   0  0  1  0  0  0  0  0  0  0  0  0
    8.3004  -13.9348   20.4261 C   0  0  0  0  0  0  0  0  0  0  0  0
    7.8402  -14.0897   19.0297 C   0  0  0  0  0  0  0  0  0  0  0  0
    8.6648  -13.5227   17.9478 C   0  0  0  0  0  0  0  0  0  0  0  0
    8.0972  -13.6611   16.5666 C   0  0  0  0  0  0  0  0  0  0  0  0
    8.9039  -12.9548   15.5736 N   0  0  0  0  0  0  0  0  0  0  0  0
    8.6261  -15.0084   22.6376 C   0  0  0  0  0  0  0  0  0  0  0  0
    9.8270  -14.8073   22.8798 O   0  0  0  0  0  0  0  0  0  0  0  0
    8.0487  -11.8747   25.8668 C   0  0  0  0  0  0  0  0  0  0  0  0
    6.8147  -12.7152   25.4980 C   0  0  2  0  0  0  0  0  0  0  0  0
    5.6728  -12.0900   26.2495 C   0  0  0  0  0  0  0  0  0  0  0  0
    7.1265  -14.1225   25.8957 C   0  0  0  0  0  0  0  0  0  0  0  0
    8.1015  -14.8783   25.1113 C   0  0  2  0  0  0  0  0  0  0  0  0
    7.7305  -15.0579   23.7153 N   0  0  0  0  0  0  0  0  0  0  0  0
    8.3235  -16.2349   25.6440 C   0  0  0  0  0  0  0  0  0  0  0  0
    7.7478  -17.2606   25.1592 O   0  0  0  0  0  0  0  0  0  0  0  0
   11.9845  -18.6945   22.6971 C   0  0  0  0  0  0  0  0  0  0  0  0
   13.0817  -18.6490   24.1588 S   0  0  0  0  0  0  0  0  0  0  0  0
   12.0255  -18.6768   25.6272 C   0  0  0  0  0  0  0  0  0  0  0  0
   11.0791  -17.5205   25.6379 C   0  0  0  0  0  0  0  0  0  0  0  0
   10.0785  -17.6586   26.7859 C   0  0  2  0  0  0  0  0  0  0  0  0
    9.2148  -16.5062   26.7465 N   0  0  0  0  0  0  0  0  0  0  0  0
   10.8363  -17.6679   28.0731 C   0  0  0  0  0  0  0  0  0  0  0  0
   11.1433  -18.9053   28.6665 O   0  0  0  0  0  0  0  0  0  0  0  0
   11.2169  -16.6347   28.6589 O   0  0  0  0  0  0  0  0  0  0  0  0
  2  1  1  1
  2  8  1  0
  3  2  1  0
  3  4  1  0
  4  5  1  0
  5  6  1  0
  7  6  1  0
  8  9  2  0
 11 12  1  1
 11 10  1  0
 13 11  1  0
 14 13  1  1
 14 16  1  0
 15  8  1  0
 15 14  1  0
 16 17  2  0
 19 18  1  0
 19 20  1  0
 20 21  1  0
 22 21  1  6
 22 24  1  0
 23 16  1  0
 23 22  1  0
 24 25  1  0
 26 24  2  0
M  END
$$$$
