KLM.pdb
     RDKit          3D

 26 25  0  0  1  0  0  0  0  0999 V2000
    9.3289  -19.1050   20.7917 N   0  0  0  0  0  0  0  0  0  0  0  0
   10.5235  -18.4548   20.3211 C   0  0  1  0  0  0  0  0  0  0  0  0
   10.7131  -18.5352   18.8280 C   0  0  0  0  0  0  0  0  0  0  0  0
   10.9580  -19.9101   18.3427 C   0  0  0  0  0  0  0  0  0  0  0  0
   11.6647  -20.0913   17.0623 C   0  0  0  0  0  0  0  0  0  0  0  0
   11.9152  -21.5146   16.6617 C   0  0  0  0  0  0  0  0  0  0  0  0
   12.4850  -21.6098   15.3193 N   0  0  0  0  0  0  0  0  0  0  0  0
   10.6473  -17.0668   20.8251 C   0  0  0  0  0  0  0  0  0  0  0  0
   11.6847  -16.4112   20.6373 O   0  0  0  0  0  0  0  0  0  0  0  0
    8.3244  -13.1767   19.8682 C   0  0  0  0  0  0  0  0  0  0  0  0
    7.5329  -14.2626   20.6162 C   0  0  2  0  0  0  0  0  0  0  0  0
    6.1338  -13.7243   20.7281 C   0  0  0  0  0  0  0  0  0  0  0  0
    8.2281  -14.4685   21.9239 C   0  0  0  0  0  0  0  0  0  0  0  0
    9.5646  -15.0608   21.9275 C   0  0  2  0  0  0  0  0  0  0  0  0
    9.5959  -16.4598   21.5264 N   0  0  0  0  0  0  0  0  0  0  0  0
   10.1994  -15.0115   23.2571 C   0  0  0  0  0  0  0  0  0  0  0  0
   10.4386  -13.9164   23.8585 O   0  0  0  0  0  0  0  0  0  0  0  0
   10.6266  -13.4917   28.9930 C   0  0  0  0  0  0  0  0  0  0  0  0
    9.1485  -14.2034   28.1861 S   0  0  0  0  0  0  0  0  0  0  0  0
    9.6108  -15.8349   27.5559 C   0  0  0  0  0  0  0  0  0  0  0  0
    9.4559  -15.9080   26.0715 C   0  0  0  0  0  0  0  0  0  0  0  0
   10.8006  -16.2059   25.4072 C   0  0  2  0  0  0  0  0  0  0  0  0
   10.5892  -16.1973   23.9821 N   0  0  0  0  0  0  0  0  0  0  0  0
   11.2466  -17.5658   25.8351 C   0  0  0  0  0  0  0  0  0  0  0  0
   11.5118  -18.5309   24.8472 O   0  0  0  0  0  0  0  0  0  0  0  0
   11.3995  -17.9003   27.0269 O   0  0  0  0  0  0  0  0  0  0  0  0
  2  1  1  6
  2  8  1  0
  3  2  1  0
  3  4  1  0
  4  5  1  0
  5  6  1  0
  7  6  1  0
  8  9  2  0
 11 12  1  1
 11 10  1  0
 13 11  1  0
 14 13  1  1
 14 16  1  0
 15  8  1  0
 15 14  1  0
 16 17  2  0
 19 18  1  0
 19 20  1  0
 20 21  1  0
 22 21  1  1
 22 24  1  0
 23 16  1  0
 23 22  1  0
 24 25  1  0
 26 24  2  0
M  END
$$$$
