KLM.pdb
     RDKit          3D

 26 25  0  0  1  0  0  0  0  0999 V2000
    8.1559  -18.6776   20.4636 N   0  0  0  0  0  0  0  0  0  0  0  0
    9.5600  -18.4055   20.3032 C   0  0  1  0  0  0  0  0  0  0  0  0
   10.0853  -18.7065   18.9229 C   0  0  0  0  0  0  0  0  0  0  0  0
    9.3993  -19.8423   18.2709 C   0  0  0  0  0  0  0  0  0  0  0  0
    8.2497  -19.5623   17.3923 C   0  0  0  0  0  0  0  0  0  0  0  0
    7.7109  -20.7437   16.6419 C   0  0  0  0  0  0  0  0  0  0  0  0
    8.7708  -21.4870   15.9637 N   0  0  0  0  0  0  0  0  0  0  0  0
    9.9266  -17.0425   20.7546 C   0  0  0  0  0  0  0  0  0  0  0  0
   11.0819  -16.6123   20.6081 O   0  0  0  0  0  0  0  0  0  0  0  0
    8.7648  -12.9843   19.2652 C   0  0  0  0  0  0  0  0  0  0  0  0
    7.6657  -13.7859   19.9825 C   0  0  2  0  0  0  0  0  0  0  0  0
    6.4050  -12.9915   19.7841 C   0  0  0  0  0  0  0  0  0  0  0  0
    8.1003  -13.9201   21.4069 C   0  0  0  0  0  0  0  0  0  0  0  0
    9.2108  -14.8159   21.7248 C   0  0  2  0  0  0  0  0  0  0  0  0
    8.9777  -16.2052   21.3580 N   0  0  0  0  0  0  0  0  0  0  0  0
    9.5292  -14.8303   23.1642 C   0  0  0  0  0  0  0  0  0  0  0  0
   10.0802  -13.8450   23.7507 O   0  0  0  0  0  0  0  0  0  0  0  0
    6.6989  -11.5551   26.1689 C   0  0  0  0  0  0  0  0  0  0  0  0
    6.4590  -13.2170   26.8920 S   0  0  0  0  0  0  0  0  0  0  0  0
    8.0252  -14.1075   26.7290 C   0  0  0  0  0  0  0  0  0  0  0  0
    7.8694  -15.3314   25.8863 C   0  0  0  0  0  0  0  0  0  0  0  0
    9.2373  -15.8635   25.4573 C   0  0  2  0  0  0  0  0  0  0  0  0
    9.2334  -15.9549   24.0195 N   0  0  0  0  0  0  0  0  0  0  0  0
    9.4171  -17.2265   26.0413 C   0  0  0  0  0  0  0  0  0  0  0  0
    9.6754  -17.3418   27.4188 O   0  0  0  0  0  0  0  0  0  0  0  0
    9.3513  -18.2787   25.3747 O   0  0  0  0  0  0  0  0  0  0  0  0
  2  1  1  6
  2  8  1  0
  3  2  1  0
  3  4  1  0
  4  5  1  0
  5  6  1  0
  7  6  1  0
  8  9  2  0
 11 12  1  1
 11 10  1  0
 13 11  1  0
 14 13  1  1
 14 16  1  0
 15  8  1  0
 15 14  1  0
 16 17  2  0
 19 18  1  0
 19 20  1  0
 20 21  1  0
 22 21  1  1
 22 24  1  0
 23 16  1  0
 23 22  1  0
 24 25  1  0
 26 24  2  0
M  END
$$$$
