KLM.pdb
     RDKit          3D

 26 25  0  0  1  0  0  0  0  0999 V2000
    7.5885  -17.8492   21.6397 N   0  0  0  0  0  0  0  0  0  0  0  0
    8.8064  -17.2333   21.1829 C   0  0  1  0  0  0  0  0  0  0  0  0
    8.7319  -16.7088   19.7718 C   0  0  0  0  0  0  0  0  0  0  0  0
    8.2302  -17.7064   18.8028 C   0  0  0  0  0  0  0  0  0  0  0  0
    8.5566  -17.5309   17.3764 C   0  0  0  0  0  0  0  0  0  0  0  0
    7.9568  -18.5462   16.4498 C   0  0  0  0  0  0  0  0  0  0  0  0
    8.4446  -18.3891   15.0813 N   0  0  0  0  0  0  0  0  0  0  0  0
    9.3141  -16.2138   22.1309 C   0  0  0  0  0  0  0  0  0  0  0  0
   10.3942  -15.6367   21.9273 O   0  0  0  0  0  0  0  0  0  0  0  0
    7.4486  -12.1743   24.4244 C   0  0  0  0  0  0  0  0  0  0  0  0
    6.7788  -13.5265   24.7206 C   0  0  2  0  0  0  0  0  0  0  0  0
    5.7567  -13.2359   25.7839 C   0  0  0  0  0  0  0  0  0  0  0  0
    7.8706  -14.4567   25.1430 C   0  0  0  0  0  0  0  0  0  0  0  0
    8.9256  -14.7877   24.1867 C   0  0  2  0  0  0  0  0  0  0  0  0
    8.5869  -15.8757   23.2810 N   0  0  0  0  0  0  0  0  0  0  0  0
   10.1790  -15.1933   24.8483 C   0  0  0  0  0  0  0  0  0  0  0  0
   11.1176  -14.3706   25.0944 O   0  0  0  0  0  0  0  0  0  0  0  0
    9.8100  -14.0471   29.5426 C   0  0  0  0  0  0  0  0  0  0  0  0
   11.1224  -15.3094   29.7061 S   0  0  0  0  0  0  0  0  0  0  0  0
   10.4886  -16.8431   28.9859 C   0  0  0  0  0  0  0  0  0  0  0  0
    9.9367  -16.6130   27.6166 C   0  0  0  0  0  0  0  0  0  0  0  0
   11.0101  -16.8664   26.5575 C   0  0  2  0  0  0  0  0  0  0  0  0
   10.4350  -16.5482   25.2754 N   0  0  0  0  0  0  0  0  0  0  0  0
   11.3747  -18.3145   26.5929 C   0  0  0  0  0  0  0  0  0  0  0  0
   12.4461  -18.7208   27.4081 O   0  0  0  0  0  0  0  0  0  0  0  0
   10.7807  -19.1934   25.9370 O   0  0  0  0  0  0  0  0  0  0  0  0
  2  1  1  1
  2  8  1  0
  3  2  1  0
  3  4  1  0
  4  5  1  0
  5  6  1  0
  7  6  1  0
  8  9  2  0
 11 12  1  1
 11 10  1  0
 13 11  1  0
 14 13  1  1
 14 16  1  0
 15  8  1  0
 15 14  1  0
 16 17  2  0
 19 18  1  0
 19 20  1  0
 20 21  1  0
 22 21  1  1
 22 24  1  0
 23 16  1  0
 23 22  1  0
 24 25  1  0
 26 24  2  0
M  END
$$$$
