KLM.pdb
     RDKit          3D

 26 25  0  0  1  0  0  0  0  0999 V2000
   11.7187  -18.6004   18.2510 N   0  0  0  0  0  0  0  0  0  0  0  0
   10.9651  -18.7634   19.4663 C   0  0  1  0  0  0  0  0  0  0  0  0
   11.4754  -19.8678   20.3561 C   0  0  0  0  0  0  0  0  0  0  0  0
   11.0025  -21.2094   19.9530 C   0  0  0  0  0  0  0  0  0  0  0  0
   11.3355  -22.3618   20.8090 C   0  0  0  0  0  0  0  0  0  0  0  0
   10.8391  -23.6902   20.3210 C   0  0  0  0  0  0  0  0  0  0  0  0
   11.2326  -24.7791   21.2127 N   0  0  0  0  0  0  0  0  0  0  0  0
   10.7956  -17.4881   20.2015 C   0  0  0  0  0  0  0  0  0  0  0  0
   11.7141  -16.6543   20.2506 O   0  0  0  0  0  0  0  0  0  0  0  0
    6.1741  -13.8449   21.7203 C   0  0  0  0  0  0  0  0  0  0  0  0
    7.6533  -14.1119   22.0456 C   0  0  2  0  0  0  0  0  0  0  0  0
    8.4028  -12.9503   21.4551 C   0  0  0  0  0  0  0  0  0  0  0  0
    7.9865  -15.4395   21.4439 C   0  0  0  0  0  0  0  0  0  0  0  0
    9.3380  -15.9711   21.6106 C   0  0  2  0  0  0  0  0  0  0  0  0
    9.5936  -17.1915   20.8596 N   0  0  0  0  0  0  0  0  0  0  0  0
    9.6476  -16.2936   23.0154 C   0  0  0  0  0  0  0  0  0  0  0  0
    9.6546  -17.4871   23.4555 O   0  0  0  0  0  0  0  0  0  0  0  0
   10.1606  -13.8414   30.4529 C   0  0  0  0  0  0  0  0  0  0  0  0
    9.8063  -13.3355   28.7321 S   0  0  0  0  0  0  0  0  0  0  0  0
   10.3379  -14.6861   27.6524 C   0  0  0  0  0  0  0  0  0  0  0  0
    9.9556  -14.4283   26.2312 C   0  0  0  0  0  0  0  0  0  0  0  0
   10.3615  -15.6070   25.3456 C   0  0  2  0  0  0  0  0  0  0  0  0
    9.9749  -15.2856   23.9955 N   0  0  0  0  0  0  0  0  0  0  0  0
    9.6148  -16.8178   25.8013 C   0  0  0  0  0  0  0  0  0  0  0  0
    8.2928  -17.0016   25.3586 O   0  0  0  0  0  0  0  0  0  0  0  0
   10.0976  -17.6840   26.5579 O   0  0  0  0  0  0  0  0  0  0  0  0
  2  1  1  6
  2  8  1  0
  3  2  1  0
  3  4  1  0
  4  5  1  0
  5  6  1  0
  7  6  1  0
  8  9  2  0
 11 12  1  6
 11 10  1  0
 13 11  1  0
 14 13  1  1
 14 16  1  0
 15  8  1  0
 15 14  1  0
 16 17  2  0
 19 18  1  0
 19 20  1  0
 20 21  1  0
 22 21  1  1
 22 24  1  0
 23 16  1  0
 23 22  1  0
 24 25  1  0
 26 24  2  0
M  END
$$$$
