KLM.pdb
     RDKit          3D

 26 25  0  0  1  0  0  0  0  0999 V2000
    8.3886  -19.1012   20.6595 N   0  0  0  0  0  0  0  0  0  0  0  0
    9.6285  -18.7097   20.0427 C   0  0  1  0  0  0  0  0  0  0  0  0
    9.6396  -18.8666   18.5436 C   0  0  0  0  0  0  0  0  0  0  0  0
    8.7626  -19.9556   18.0631 C   0  0  0  0  0  0  0  0  0  0  0  0
    7.9097  -19.7080   16.8871 C   0  0  0  0  0  0  0  0  0  0  0  0
    7.0543  -20.8628   16.4584 C   0  0  0  0  0  0  0  0  0  0  0  0
    6.3680  -20.5927   15.1969 N   0  0  0  0  0  0  0  0  0  0  0  0
   10.0683  -17.3592   20.4654 C   0  0  0  0  0  0  0  0  0  0  0  0
   11.1272  -16.8716   20.0385 O   0  0  0  0  0  0  0  0  0  0  0  0
    8.4676  -13.0359   19.9272 C   0  0  0  0  0  0  0  0  0  0  0  0
    7.6178  -14.0195   20.7490 C   0  0  2  0  0  0  0  0  0  0  0  0
    6.3468  -13.2791   21.0590 C   0  0  0  0  0  0  0  0  0  0  0  0
    8.4338  -14.3859   21.9472 C   0  0  0  0  0  0  0  0  0  0  0  0
    9.6088  -15.2369   21.7678 C   0  0  2  0  0  0  0  0  0  0  0  0
    9.2994  -16.5989   21.3579 N   0  0  0  0  0  0  0  0  0  0  0  0
   10.4078  -15.3619   23.0004 C   0  0  0  0  0  0  0  0  0  0  0  0
   11.3395  -14.5473   23.2948 O   0  0  0  0  0  0  0  0  0  0  0  0
    9.6307  -12.3518   27.6899 C   0  0  0  0  0  0  0  0  0  0  0  0
    9.3696  -14.0068   28.4217 S   0  0  0  0  0  0  0  0  0  0  0  0
   10.3750  -15.1784   27.4788 C   0  0  0  0  0  0  0  0  0  0  0  0
    9.8339  -15.3719   26.0995 C   0  0  0  0  0  0  0  0  0  0  0  0
   10.7100  -16.3476   25.3130 C   0  0  2  0  0  0  0  0  0  0  0  0
   10.1904  -16.4084   23.9706 N   0  0  0  0  0  0  0  0  0  0  0  0
   10.6026  -17.6950   25.9488 C   0  0  0  0  0  0  0  0  0  0  0  0
   11.2309  -17.9080   27.1888 O   0  0  0  0  0  0  0  0  0  0  0  0
    9.9836  -18.6517   25.4417 O   0  0  0  0  0  0  0  0  0  0  0  0
  2  1  1  6
  2  8  1  0
  3  2  1  0
  3  4  1  0
  4  5  1  0
  5  6  1  0
  7  6  1  0
  8  9  2  0
 11 12  1  1
 11 10  1  0
 13 11  1  0
 14 13  1  1
 14 16  1  0
 15  8  1  0
 15 14  1  0
 16 17  2  0
 19 18  1  0
 19 20  1  0
 20 21  1  0
 22 21  1  1
 22 24  1  0
 23 16  1  0
 23 22  1  0
 24 25  1  0
 26 24  2  0
M  END
$$$$
