KLM.pdb
     RDKit          3D

 26 25  0  0  1  0  0  0  0  0999 V2000
    7.2740  -17.7250   21.4982 N   0  0  0  0  0  0  0  0  0  0  0  0
    8.4842  -17.0699   21.0770 C   0  0  1  0  0  0  0  0  0  0  0  0
    8.4837  -16.6636   19.6255 C   0  0  0  0  0  0  0  0  0  0  0  0
    7.9928  -17.7253   18.7212 C   0  0  0  0  0  0  0  0  0  0  0  0
    8.6307  -17.8791   17.4016 C   0  0  0  0  0  0  0  0  0  0  0  0
    8.0560  -18.9567   16.5311 C   0  0  0  0  0  0  0  0  0  0  0  0
    8.6831  -18.9823   15.2114 N   0  0  0  0  0  0  0  0  0  0  0  0
    8.8599  -15.9486   21.9699 C   0  0  0  0  0  0  0  0  0  0  0  0
    9.9376  -15.3503   21.8220 O   0  0  0  0  0  0  0  0  0  0  0  0
    5.8747  -12.7665   26.3758 C   0  0  0  0  0  0  0  0  0  0  0  0
    7.2111  -12.8542   25.6199 C   0  0  2  0  0  0  0  0  0  0  0  0
    7.4061  -11.4966   25.0047 C   0  0  0  0  0  0  0  0  0  0  0  0
    7.0683  -13.9702   24.6350 C   0  0  0  0  0  0  0  0  0  0  0  0
    8.2352  -14.3759   23.8535 C   0  0  2  0  0  0  0  0  0  0  0  0
    8.0075  -15.5356   23.0037 N   0  0  0  0  0  0  0  0  0  0  0  0
    9.3894  -14.7226   24.7025 C   0  0  0  0  0  0  0  0  0  0  0  0
   10.2715  -13.8687   25.0362 O   0  0  0  0  0  0  0  0  0  0  0  0
    9.5759  -13.9229   29.4756 C   0  0  0  0  0  0  0  0  0  0  0  0
   11.1124  -14.8525   29.1328 S   0  0  0  0  0  0  0  0  0  0  0  0
   10.6384  -16.5557   28.7496 C   0  0  0  0  0  0  0  0  0  0  0  0
    9.7502  -16.6158   27.5496 C   0  0  0  0  0  0  0  0  0  0  0  0
   10.5493  -16.3303   26.2775 C   0  0  2  0  0  0  0  0  0  0  0  0
    9.6036  -16.0501   25.2275 N   0  0  0  0  0  0  0  0  0  0  0  0
   11.3317  -17.5538   25.9280 C   0  0  0  0  0  0  0  0  0  0  0  0
   11.0776  -18.1891   24.6994 O   0  0  0  0  0  0  0  0  0  0  0  0
   12.2050  -18.0509   26.6668 O   0  0  0  0  0  0  0  0  0  0  0  0
  2  1  1  1
  2  8  1  0
  3  2  1  0
  3  4  1  0
  4  5  1  0
  5  6  1  0
  7  6  1  0
  8  9  2  0
 11 12  1  6
 11 10  1  0
 13 11  1  0
 14 13  1  1
 14 16  1  0
 15  8  1  0
 15 14  1  0
 16 17  2  0
 19 18  1  0
 19 20  1  0
 20 21  1  0
 22 21  1  1
 22 24  1  0
 23 16  1  0
 23 22  1  0
 24 25  1  0
 26 24  2  0
M  END
$$$$
