KLM.pdb
     RDKit          3D

 26 25  0  0  1  0  0  0  0  0999 V2000
    7.2852  -16.6074   20.9713 N   0  0  0  0  0  0  0  0  0  0  0  0
    8.3101  -15.6115   20.8009 C   0  0  1  0  0  0  0  0  0  0  0  0
    7.8807  -14.4316   19.9670 C   0  0  0  0  0  0  0  0  0  0  0  0
    8.0233  -14.6600   18.5133 C   0  0  0  0  0  0  0  0  0  0  0  0
    7.8253  -13.5226   17.5974 C   0  0  0  0  0  0  0  0  0  0  0  0
    7.9188  -13.8492   16.1366 C   0  0  0  0  0  0  0  0  0  0  0  0
    7.7149  -12.6679   15.3008 N   0  0  0  0  0  0  0  0  0  0  0  0
    8.9126  -15.1945   22.0889 C   0  0  0  0  0  0  0  0  0  0  0  0
    9.8893  -14.4287   22.1168 O   0  0  0  0  0  0  0  0  0  0  0  0
    7.8120  -12.3900   25.1602 C   0  0  0  0  0  0  0  0  0  0  0  0
    6.8517  -13.5910   25.1359 C   0  0  2  0  0  0  0  0  0  0  0  0
    5.7763  -13.2563   26.1315 C   0  0  0  0  0  0  0  0  0  0  0  0
    7.6693  -14.7942   25.4822 C   0  0  0  0  0  0  0  0  0  0  0  0
    8.7904  -15.1587   24.6178 C   0  0  2  0  0  0  0  0  0  0  0  0
    8.3942  -15.6544   23.3077 N   0  0  0  0  0  0  0  0  0  0  0  0
    9.6357  -16.2137   25.2058 C   0  0  0  0  0  0  0  0  0  0  0  0
    9.6655  -17.3993   24.7457 O   0  0  0  0  0  0  0  0  0  0  0  0
    9.9535  -14.0348   29.7996 C   0  0  0  0  0  0  0  0  0  0  0  0
   11.3254  -14.0044   28.5916 S   0  0  0  0  0  0  0  0  0  0  0  0
   12.2095  -15.5757   28.7397 C   0  0  0  0  0  0  0  0  0  0  0  0
   11.3078  -16.7348   28.4639 C   0  0  0  0  0  0  0  0  0  0  0  0
   11.2625  -17.0326   26.9648 C   0  0  2  0  0  0  0  0  0  0  0  0
   10.4994  -15.9829   26.3391 N   0  0  0  0  0  0  0  0  0  0  0  0
   10.5669  -18.3393   26.7647 C   0  0  0  0  0  0  0  0  0  0  0  0
    9.1691  -18.3889   26.9107 O   0  0  0  0  0  0  0  0  0  0  0  0
   11.1564  -19.3991   26.4733 O   0  0  0  0  0  0  0  0  0  0  0  0
  2  1  1  1
  2  8  1  0
  3  2  1  0
  3  4  1  0
  4  5  1  0
  5  6  1  0
  7  6  1  0
  8  9  2  0
 11 12  1  1
 11 10  1  0
 13 11  1  0
 14 13  1  1
 14 16  1  0
 15  8  1  0
 15 14  1  0
 16 17  2  0
 19 18  1  0
 19 20  1  0
 20 21  1  0
 22 21  1  1
 22 24  1  0
 23 16  1  0
 23 22  1  0
 24 25  1  0
 26 24  2  0
M  END
$$$$
