KLM.pdb
     RDKit          3D

 26 25  0  0  1  0  0  0  0  0999 V2000
    9.6844  -15.4778   20.6184 N   0  0  0  0  0  0  0  0  0  0  0  0
    8.6217  -15.7937   21.5360 C   0  0  1  0  0  0  0  0  0  0  0  0
    8.0601  -17.1818   21.3634 C   0  0  0  0  0  0  0  0  0  0  0  0
    7.5244  -17.4316   20.0082 C   0  0  0  0  0  0  0  0  0  0  0  0
    6.9940  -18.7703   19.6947 C   0  0  0  0  0  0  0  0  0  0  0  0
    6.4163  -18.9273   18.3196 C   0  0  0  0  0  0  0  0  0  0  0  0
    5.9090  -20.2791   18.0937 N   0  0  0  0  0  0  0  0  0  0  0  0
    8.9881  -15.5114   22.9438 C   0  0  0  0  0  0  0  0  0  0  0  0
   10.1733  -15.5432   23.3121 O   0  0  0  0  0  0  0  0  0  0  0  0
    8.0661  -12.0097   26.1584 C   0  0  0  0  0  0  0  0  0  0  0  0
    6.8531  -12.8261   25.6817 C   0  0  2  0  0  0  0  0  0  0  0  0
    5.6786  -12.2612   26.4308 C   0  0  0  0  0  0  0  0  0  0  0  0
    7.1586  -14.2573   25.9887 C   0  0  0  0  0  0  0  0  0  0  0  0
    8.2696  -14.9066   25.2953 C   0  0  2  0  0  0  0  0  0  0  0  0
    8.0054  -15.2011   23.8945 N   0  0  0  0  0  0  0  0  0  0  0  0
    8.6437  -16.1928   25.9108 C   0  0  0  0  0  0  0  0  0  0  0  0
    7.8442  -17.1808   25.9656 O   0  0  0  0  0  0  0  0  0  0  0  0
   13.8992  -19.3610   24.5780 C   0  0  0  0  0  0  0  0  0  0  0  0
   13.8991  -19.6925   26.3759 S   0  0  0  0  0  0  0  0  0  0  0  0
   12.2390  -19.3230   26.9925 C   0  0  0  0  0  0  0  0  0  0  0  0
   11.7462  -18.0112   26.4741 C   0  0  0  0  0  0  0  0  0  0  0  0
   10.3420  -17.7196   27.0045 C   0  0  2  0  0  0  0  0  0  0  0  0
    9.9442  -16.4344   26.4889 N   0  0  0  0  0  0  0  0  0  0  0  0
   10.4047  -17.6589   28.4957 C   0  0  0  0  0  0  0  0  0  0  0  0
   10.3973  -16.3992   29.1206 O   0  0  0  0  0  0  0  0  0  0  0  0
   10.4637  -18.6675   29.2270 O   0  0  0  0  0  0  0  0  0  0  0  0
  2  1  1  6
  2  8  1  0
  3  2  1  0
  3  4  1  0
  4  5  1  0
  5  6  1  0
  7  6  1  0
  8  9  2  0
 11 12  1  1
 11 10  1  0
 13 11  1  0
 14 13  1  1
 14 16  1  0
 15  8  1  0
 15 14  1  0
 16 17  2  0
 19 18  1  0
 19 20  1  0
 20 21  1  0
 22 21  1  6
 22 24  1  0
 23 16  1  0
 23 22  1  0
 24 25  1  0
 26 24  2  0
M  END
$$$$
