KLM.pdb
     RDKit          3D

 26 25  0  0  1  0  0  0  0  0999 V2000
    7.5578  -18.2107   22.2616 N   0  0  0  0  0  0  0  0  0  0  0  0
    8.6732  -17.6085   21.5801 C   0  0  1  0  0  0  0  0  0  0  0  0
    8.3930  -17.2630   20.1399 C   0  0  0  0  0  0  0  0  0  0  0  0
    8.6596  -18.3794   19.2081 C   0  0  0  0  0  0  0  0  0  0  0  0
    9.0913  -18.0645   17.8347 C   0  0  0  0  0  0  0  0  0  0  0  0
    9.2717  -19.2471   16.9301 C   0  0  0  0  0  0  0  0  0  0  0  0
    9.5695  -18.8422   15.5579 N   0  0  0  0  0  0  0  0  0  0  0  0
    9.2407  -16.4623   22.3284 C   0  0  0  0  0  0  0  0  0  0  0  0
   10.3161  -15.9465   21.9840 O   0  0  0  0  0  0  0  0  0  0  0  0
    7.2207  -12.3252   23.8621 C   0  0  0  0  0  0  0  0  0  0  0  0
    6.7950  -13.6383   24.5400 C   0  0  2  0  0  0  0  0  0  0  0  0
    5.7552  -13.2414   25.5504 C   0  0  0  0  0  0  0  0  0  0  0  0
    8.0355  -14.2353   25.1236 C   0  0  0  0  0  0  0  0  0  0  0  0
    9.0421  -14.7934   24.2223 C   0  0  2  0  0  0  0  0  0  0  0  0
    8.5770  -15.9321   23.4439 N   0  0  0  0  0  0  0  0  0  0  0  0
   10.2423  -15.2619   24.9386 C   0  0  0  0  0  0  0  0  0  0  0  0
   11.2453  -14.5095   25.1539 O   0  0  0  0  0  0  0  0  0  0  0  0
   10.0586  -14.0128   29.2997 C   0  0  0  0  0  0  0  0  0  0  0  0
   11.2270  -15.3298   29.7926 S   0  0  0  0  0  0  0  0  0  0  0  0
   10.5731  -16.8945   29.1627 C   0  0  0  0  0  0  0  0  0  0  0  0
    9.9551  -16.7214   27.8134 C   0  0  0  0  0  0  0  0  0  0  0  0
   11.0068  -16.8942   26.7169 C   0  0  2  0  0  0  0  0  0  0  0  0
   10.3697  -16.6027   25.4580 N   0  0  0  0  0  0  0  0  0  0  0  0
   11.4658  -18.3156   26.7240 C   0  0  0  0  0  0  0  0  0  0  0  0
   11.1754  -19.1241   25.6106 O   0  0  0  0  0  0  0  0  0  0  0  0
   12.0970  -18.8338   27.6667 O   0  0  0  0  0  0  0  0  0  0  0  0
  2  1  1  1
  2  8  1  0
  3  2  1  0
  3  4  1  0
  4  5  1  0
  5  6  1  0
  7  6  1  0
  8  9  2  0
 11 12  1  1
 11 10  1  0
 13 11  1  0
 14 13  1  1
 14 16  1  0
 15  8  1  0
 15 14  1  0
 16 17  2  0
 19 18  1  0
 19 20  1  0
 20 21  1  0
 22 21  1  1
 22 24  1  0
 23 16  1  0
 23 22  1  0
 24 25  1  0
 26 24  2  0
M  END
$$$$
