RQK.pdb
     RDKit          3D

 30 29  0  0  1  0  0  0  0  0999 V2000
    6.6354  -13.3416   21.4500 N   0  0  0  0  0  0  0  0  0  0  0  0
    7.5359  -12.7534   20.5129 C   0  0  0  0  0  0  0  0  0  0  0  0
    7.9570  -11.5610   20.6856 N   0  0  0  0  0  0  0  0  0  0  0  0
    7.9622  -13.4962   19.3948 N   0  0  0  0  0  0  0  0  0  0  0  0
    8.1038  -14.9662   19.4426 C   0  0  0  0  0  0  0  0  0  0  0  0
    9.4721  -15.2381   19.9848 C   0  0  0  0  0  0  0  0  0  0  0  0
    9.7734  -16.6828   20.0591 C   0  0  0  0  0  0  0  0  0  0  0  0
    9.0729  -17.4844   21.1136 C   0  0  2  0  0  0  0  0  0  0  0  0
    7.6422  -17.4375   21.0740 N   0  0  0  0  0  0  0  0  0  0  0  0
    9.5403  -16.9636   22.4232 C   0  0  0  0  0  0  0  0  0  0  0  0
   10.7295  -16.5992   22.5262 O   0  0  0  0  0  0  0  0  0  0  0  0
    8.5580  -11.1050   19.9805 N   0  0  0  0  0  0  0  0  0  0  0  0
    9.8344  -13.5612   26.1650 C   0  0  0  0  0  0  0  0  0  0  0  0
    9.0434  -14.1879   27.1552 O   0  0  0  0  0  0  0  0  0  0  0  0
    9.1843  -13.8099   28.3493 C   0  0  0  0  0  0  0  0  0  0  0  0
    8.0633  -15.2482   26.8689 C   0  0  0  0  0  0  0  0  0  0  0  0
    7.9429  -15.6592   25.4438 C   0  0  1  0  0  0  0  0  0  0  0  0
    9.0821  -16.3970   24.8280 N   0  0  0  0  0  0  0  0  0  0  0  0
    8.6402  -16.8976   23.4963 C   0  0  0  0  0  0  0  0  0  0  0  0
    9.5897  -17.5828   25.5234 O   0  0  0  0  0  0  0  0  0  0  0  0
    8.9642  -18.6852   25.5682 N   0  0  0  0  0  0  0  0  0  0  0  0
   10.8509  -17.5855   26.2169 C   0  0  1  0  0  0  0  0  0  0  0  0
   11.3424  -18.7765   26.8979 C   0  0  0  0  0  0  0  0  0  0  0  0
   12.7896  -19.0626   26.5527 C   0  0  0  0  0  0  0  0  0  0  0  0
   13.1933  -20.3317   27.2687 C   0  0  0  0  0  0  0  0  0  0  0  0
   14.6244  -20.7058   26.9629 C   0  0  0  0  0  0  0  0  0  0  0  0
   15.0043  -21.9979   27.6342 N   0  0  0  0  0  0  0  0  0  0  0  0
   16.3689  -22.3659   27.4205 C   0  0  0  0  0  0  0  0  0  0  0  0
   11.1602  -18.6598   28.3696 O   0  0  0  0  0  0  0  0  0  0  0  0
   11.3803  -19.6767   29.0751 O   0  0  0  0  0  0  0  0  0  0  0  0
  1  2  1  0
  2  3  2  0
  4  5  1  0
  4  2  1  0
  6  5  1  0
  7  6  1  0
  8  9  1  1
  8  7  1  0
 10 11  2  0
 10  8  1  0
 12 13  1  0
 13 14  2  0
 15 16  1  0
 15 13  1  0
 17 16  1  6
 17 19  1  0
 17 18  1  0
 18 10  1  0
 19 21  1  0
 20 19  2  0
 21 22  1  0
 22 28  1  0
 23 24  1  0
 22 23  1  1
 24 25  1  0
 25 26  1  0
 26 27  1  0
 28 29  2  0
 28 30  1  0
M  END
$$$$
