RQK.pdb
     RDKit          3D

 30 29  0  0  1  0  0  0  0  0999 V2000
    6.7645  -13.0147   19.7040 N   0  0  0  0  0  0  0  0  0  0  0  0
    7.8314  -12.9896   18.7574 C   0  0  0  0  0  0  0  0  0  0  0  0
    8.9886  -12.5758   19.1020 N   0  0  0  0  0  0  0  0  0  0  0  0
    7.6037  -13.4272   17.4381 N   0  0  0  0  0  0  0  0  0  0  0  0
    8.0170  -14.7694   16.9789 C   0  0  0  0  0  0  0  0  0  0  0  0
    7.4604  -15.7418   17.9713 C   0  0  0  0  0  0  0  0  0  0  0  0
    8.2638  -16.9786   18.0619 C   0  0  0  0  0  0  0  0  0  0  0  0
    9.5254  -17.0470   17.2563 C   0  0  2  0  0  0  0  0  0  0  0  0
    9.7099  -18.2502   16.5019 N   0  0  0  0  0  0  0  0  0  0  0  0
   10.6497  -16.8969   18.2145 C   0  0  0  0  0  0  0  0  0  0  0  0
   11.1544  -17.9285   18.7028 O   0  0  0  0  0  0  0  0  0  0  0  0
    9.7398  -12.4625   18.4027 N   0  0  0  0  0  0  0  0  0  0  0  0
   15.6542  -14.6052   18.1659 C   0  0  0  0  0  0  0  0  0  0  0  0
   15.4350  -14.0562   19.4502 O   0  0  0  0  0  0  0  0  0  0  0  0
   16.4434  -13.7911   20.1584 C   0  0  0  0  0  0  0  0  0  0  0  0
   14.0999  -13.7716   20.0010 C   0  0  0  0  0  0  0  0  0  0  0  0
   12.9443  -14.1777   19.1559 C   0  0  1  0  0  0  0  0  0  0  0  0
   12.2147  -15.4258   19.5185 N   0  0  0  0  0  0  0  0  0  0  0  0
   11.1069  -15.6119   18.5401 C   0  0  0  0  0  0  0  0  0  0  0  0
   11.5677  -15.4872   20.8319 O   0  0  0  0  0  0  0  0  0  0  0  0
   10.4105  -15.0213   21.0609 N   0  0  0  0  0  0  0  0  0  0  0  0
   12.2046  -16.0873   21.9746 C   0  0  1  0  0  0  0  0  0  0  0  0
   11.5146  -16.2120   23.2522 C   0  0  0  0  0  0  0  0  0  0  0  0
   10.2109  -16.9712   23.1135 C   0  0  0  0  0  0  0  0  0  0  0  0
   10.5300  -18.3391   22.5536 C   0  0  0  0  0  0  0  0  0  0  0  0
    9.2958  -19.2067   22.4810 C   0  0  0  0  0  0  0  0  0  0  0  0
    9.6060  -20.5435   21.8635 N   0  0  0  0  0  0  0  0  0  0  0  0
    8.4929  -21.4402   21.8682 C   0  0  0  0  0  0  0  0  0  0  0  0
   12.3935  -16.8469   24.2705 O   0  0  0  0  0  0  0  0  0  0  0  0
   11.9522  -16.9648   25.4417 O   0  0  0  0  0  0  0  0  0  0  0  0
  1  2  1  0
  2  3  2  0
  4  5  1  0
  4  2  1  0
  6  5  1  0
  7  6  1  0
  8  9  1  1
  8  7  1  0
 10 11  2  0
 10  8  1  0
 12 13  1  0
 13 14  2  0
 15 16  1  0
 15 13  1  0
 17 16  1  6
 17 19  1  0
 17 18  1  0
 18 10  1  0
 19 21  1  0
 20 19  2  0
 21 22  1  0
 22 28  1  0
 23 24  1  0
 22 23  1  1
 24 25  1  0
 25 26  1  0
 26 27  1  0
 28 29  2  0
 28 30  1  0
M  END
$$$$
