RQK.pdb
     RDKit          3D

 30 29  0  0  1  0  0  0  0  0999 V2000
    9.7466  -13.9975   18.4720 N   0  0  0  0  0  0  0  0  0  0  0  0
    8.6746  -13.0856   18.2390 C   0  0  0  0  0  0  0  0  0  0  0  0
    8.9172  -11.8816   17.8919 N   0  0  0  0  0  0  0  0  0  0  0  0
    7.3436  -13.5206   18.3910 N   0  0  0  0  0  0  0  0  0  0  0  0
    6.7679  -13.8218   19.7180 C   0  0  0  0  0  0  0  0  0  0  0  0
    6.4346  -15.2809   19.7089 C   0  0  0  0  0  0  0  0  0  0  0  0
    7.2875  -16.0608   20.6297 C   0  0  0  0  0  0  0  0  0  0  0  0
    8.0027  -17.2530   20.0708 C   0  0  2  0  0  0  0  0  0  0  0  0
    7.1607  -18.2946   19.5639 N   0  0  0  0  0  0  0  0  0  0  0  0
    8.8422  -17.7973   21.1680 C   0  0  0  0  0  0  0  0  0  0  0  0
    8.3676  -18.7020   21.8848 O   0  0  0  0  0  0  0  0  0  0  0  0
    8.1472  -11.2159   17.7179 N   0  0  0  0  0  0  0  0  0  0  0  0
   14.5159  -19.5781   20.2606 C   0  0  0  0  0  0  0  0  0  0  0  0
   13.3336  -20.3327   20.4383 O   0  0  0  0  0  0  0  0  0  0  0  0
   13.3020  -21.5001   19.9642 C   0  0  0  0  0  0  0  0  0  0  0  0
   12.1449  -19.8350   21.1497 C   0  0  0  0  0  0  0  0  0  0  0  0
   12.2261  -18.4400   21.6615 C   0  0  2  0  0  0  0  0  0  0  0  0
   11.0426  -17.8860   22.3782 N   0  0  0  0  0  0  0  0  0  0  0  0
   10.1318  -17.2831   21.3652 C   0  0  0  0  0  0  0  0  0  0  0  0
   11.2689  -16.8205   23.3585 O   0  0  0  0  0  0  0  0  0  0  0  0
   11.6995  -15.6685   23.0483 N   0  0  0  0  0  0  0  0  0  0  0  0
   11.0173  -17.0034   24.7637 C   0  0  1  0  0  0  0  0  0  0  0  0
   11.4083  -15.9984   25.7440 C   0  0  0  0  0  0  0  0  0  0  0  0
   11.0195  -16.4061   27.1504 C   0  0  0  0  0  0  0  0  0  0  0  0
   11.3767  -15.2663   28.0775 C   0  0  0  0  0  0  0  0  0  0  0  0
   11.0762  -15.6115   29.5169 C   0  0  0  0  0  0  0  0  0  0  0  0
   11.3768  -14.4526   30.4286 N   0  0  0  0  0  0  0  0  0  0  0  0
   11.0001  -14.6895   31.7869 C   0  0  0  0  0  0  0  0  0  0  0  0
   12.8652  -15.7110   25.6576 O   0  0  0  0  0  0  0  0  0  0  0  0
   13.2254  -14.5126   25.5377 O   0  0  0  0  0  0  0  0  0  0  0  0
  1  2  1  0
  2  3  2  0
  4  5  1  0
  4  2  1  0
  6  5  1  0
  7  6  1  0
  8  9  1  1
  8  7  1  0
 10 11  2  0
 10  8  1  0
 12 13  1  0
 13 14  2  0
 15 16  1  0
 15 13  1  0
 17 16  1  6
 17 19  1  0
 17 18  1  0
 18 10  1  0
 19 21  1  0
 20 19  2  0
 21 22  1  0
 22 28  1  0
 23 24  1  0
 22 23  1  1
 24 25  1  0
 25 26  1  0
 26 27  1  0
 28 29  2  0
 28 30  1  0
M  END
$$$$
