RQK.pdb
     RDKit          3D

 30 29  0  0  1  0  0  0  0  0999 V2000
   11.2944  -21.4917   16.2361 N   0  0  0  0  0  0  0  0  0  0  0  0
   10.1892  -21.1573   15.3983 C   0  0  0  0  0  0  0  0  0  0  0  0
    9.4982  -22.0774   14.8461 N   0  0  0  0  0  0  0  0  0  0  0  0
    9.8605  -19.8046   15.1844 N   0  0  0  0  0  0  0  0  0  0  0  0
    9.3720  -18.9381   16.2770 C   0  0  0  0  0  0  0  0  0  0  0  0
   10.5564  -18.1574   16.7543 C   0  0  0  0  0  0  0  0  0  0  0  0
   10.2159  -17.2295   17.8527 C   0  0  0  0  0  0  0  0  0  0  0  0
   10.4371  -17.7049   19.2564 C   0  0  2  0  0  0  0  0  0  0  0  0
    9.3895  -18.5122   19.8055 N   0  0  0  0  0  0  0  0  0  0  0  0
   10.6053  -16.4907   20.0943 C   0  0  0  0  0  0  0  0  0  0  0  0
   11.5881  -15.7525   19.8782 O   0  0  0  0  0  0  0  0  0  0  0  0
    8.6743  -21.8456   14.2683 N   0  0  0  0  0  0  0  0  0  0  0  0
    6.9729  -11.9395   20.0823 C   0  0  0  0  0  0  0  0  0  0  0  0
    6.9706  -13.3346   19.8529 O   0  0  0  0  0  0  0  0  0  0  0  0
    6.3881  -13.7616   18.8199 C   0  0  0  0  0  0  0  0  0  0  0  0
    7.6143  -14.3114   20.7463 C   0  0  0  0  0  0  0  0  0  0  0  0
    8.9415  -13.9204   21.2942 C   0  0  1  0  0  0  0  0  0  0  0  0
    9.7797  -14.9795   21.9243 N   0  0  0  0  0  0  0  0  0  0  0  0
    9.6638  -16.2119   21.0953 C   0  0  0  0  0  0  0  0  0  0  0  0
    9.4381  -15.4094   23.2829 O   0  0  0  0  0  0  0  0  0  0  0  0
    9.4061  -14.6209   24.2757 N   0  0  0  0  0  0  0  0  0  0  0  0
    9.1101  -16.7752   23.5967 C   0  0  1  0  0  0  0  0  0  0  0  0
    8.8019  -17.1900   24.9594 C   0  0  0  0  0  0  0  0  0  0  0  0
    8.1289  -18.5470   24.9935 C   0  0  0  0  0  0  0  0  0  0  0  0
    7.8402  -18.8834   26.4391 C   0  0  0  0  0  0  0  0  0  0  0  0
    7.3296  -20.2975   26.5847 C   0  0  0  0  0  0  0  0  0  0  0  0
    6.8617  -20.5651   27.9897 N   0  0  0  0  0  0  0  0  0  0  0  0
    6.2365  -21.8412   28.1438 C   0  0  0  0  0  0  0  0  0  0  0  0
   10.0246  -17.1819   25.8063 O   0  0  0  0  0  0  0  0  0  0  0  0
   11.0946  -17.6101   25.3042 O   0  0  0  0  0  0  0  0  0  0  0  0
  1  2  1  0
  2  3  2  0
  4  5  1  0
  4  2  1  0
  6  5  1  0
  7  6  1  0
  8  9  1  1
  8  7  1  0
 10 11  2  0
 10  8  1  0
 12 13  1  0
 13 14  2  0
 15 16  1  0
 15 13  1  0
 17 16  1  6
 17 19  1  0
 17 18  1  0
 18 10  1  0
 19 21  1  0
 20 19  2  0
 21 22  1  0
 22 28  1  0
 23 24  1  0
 22 23  1  1
 24 25  1  0
 25 26  1  0
 26 27  1  0
 28 29  2  0
 28 30  1  0
M  END
$$$$
