RQK.pdb
     RDKit          3D

 30 29  0  0  1  0  0  0  0  0999 V2000
    9.8623  -13.0753   18.5602 N   0  0  0  0  0  0  0  0  0  0  0  0
    8.4961  -13.2795   18.9163 C   0  0  0  0  0  0  0  0  0  0  0  0
    7.7380  -12.2820   19.1601 N   0  0  0  0  0  0  0  0  0  0  0  0
    7.9843  -14.5893   18.9953 N   0  0  0  0  0  0  0  0  0  0  0  0
    7.3434  -15.1038   20.2232 C   0  0  0  0  0  0  0  0  0  0  0  0
    5.9418  -15.4668   19.8439 C   0  0  0  0  0  0  0  0  0  0  0  0
    5.1915  -16.0700   20.9650 C   0  0  0  0  0  0  0  0  0  0  0  0
    5.6127  -17.4310   21.4291 C   0  0  2  0  0  0  0  0  0  0  0  0
    4.6778  -18.4854   21.1741 N   0  0  0  0  0  0  0  0  0  0  0  0
    5.8423  -17.3283   22.8925 C   0  0  0  0  0  0  0  0  0  0  0  0
    5.0911  -16.5883   23.5601 O   0  0  0  0  0  0  0  0  0  0  0  0
    6.7372  -12.4182   19.3746 N   0  0  0  0  0  0  0  0  0  0  0  0
    7.5039  -22.0096   26.6188 C   0  0  0  0  0  0  0  0  0  0  0  0
    7.8092  -20.8707   27.3989 O   0  0  0  0  0  0  0  0  0  0  0  0
    8.1900  -21.0538   28.5863 C   0  0  0  0  0  0  0  0  0  0  0  0
    7.7141  -19.4888   26.9007 C   0  0  0  0  0  0  0  0  0  0  0  0
    7.2929  -19.3332   25.4820 C   0  0  1  0  0  0  0  0  0  0  0  0
    7.1649  -17.9523   24.9359 N   0  0  0  0  0  0  0  0  0  0  0  0
    6.8874  -18.0587   23.4761 C   0  0  0  0  0  0  0  0  0  0  0  0
    8.3267  -17.0644   25.0318 O   0  0  0  0  0  0  0  0  0  0  0  0
    9.2584  -17.0409   24.1716 N   0  0  0  0  0  0  0  0  0  0  0  0
    8.5004  -16.1419   26.1228 C   0  0  2  0  0  0  0  0  0  0  0  0
    9.6894  -15.3061   26.2307 C   0  0  0  0  0  0  0  0  0  0  0  0
    9.6451  -14.4246   27.4621 C   0  0  0  0  0  0  0  0  0  0  0  0
   10.0495  -15.2688   28.6496 C   0  0  0  0  0  0  0  0  0  0  0  0
   10.0560  -14.4594   29.9248 C   0  0  0  0  0  0  0  0  0  0  0  0
   10.5740  -15.2707   31.0816 N   0  0  0  0  0  0  0  0  0  0  0  0
   10.5797  -14.5529   32.3177 C   0  0  0  0  0  0  0  0  0  0  0  0
   10.9243  -16.1350   26.2147 O   0  0  0  0  0  0  0  0  0  0  0  0
   10.8549  -17.3081   26.6613 O   0  0  0  0  0  0  0  0  0  0  0  0
  1  2  1  0
  2  3  2  0
  4  5  1  0
  4  2  1  0
  6  5  1  0
  7  6  1  0
  8  9  1  1
  8  7  1  0
 10 11  2  0
 10  8  1  0
 12 13  1  0
 13 14  2  0
 15 16  1  0
 15 13  1  0
 17 16  1  1
 17 19  1  0
 17 18  1  0
 18 10  1  0
 19 21  1  0
 20 19  2  0
 21 22  1  0
 22 28  1  0
 23 24  1  0
 22 23  1  1
 24 25  1  0
 25 26  1  0
 26 27  1  0
 28 29  2  0
 28 30  1  0
M  END
$$$$
