RQK.pdb
     RDKit          3D

 30 29  0  0  1  0  0  0  0  0999 V2000
    8.2376  -12.8471   20.7080 N   0  0  0  0  0  0  0  0  0  0  0  0
    7.6177  -12.8446   19.4231 C   0  0  0  0  0  0  0  0  0  0  0  0
    7.0436  -11.7913   18.9870 N   0  0  0  0  0  0  0  0  0  0  0  0
    7.6441  -14.0108   18.6339 N   0  0  0  0  0  0  0  0  0  0  0  0
    8.6418  -15.0786   18.8526 C   0  0  0  0  0  0  0  0  0  0  0  0
    9.6953  -14.8886   17.8066 C   0  0  0  0  0  0  0  0  0  0  0  0
   10.7505  -15.9209   17.8736 C   0  0  0  0  0  0  0  0  0  0  0  0
   11.8372  -15.8702   16.8433 C   0  0  2  0  0  0  0  0  0  0  0  0
   11.7276  -16.8287   15.7849 N   0  0  0  0  0  0  0  0  0  0  0  0
   13.1168  -16.0868   17.5647 C   0  0  0  0  0  0  0  0  0  0  0  0
   13.4890  -17.2597   17.7729 O   0  0  0  0  0  0  0  0  0  0  0  0
    6.5383  -11.7986   18.0866 N   0  0  0  0  0  0  0  0  0  0  0  0
   17.0217  -11.5499   16.3268 C   0  0  0  0  0  0  0  0  0  0  0  0
   17.3625  -12.9211   16.2774 O   0  0  0  0  0  0  0  0  0  0  0  0
   18.5142  -13.2284   15.8678 C   0  0  0  0  0  0  0  0  0  0  0  0
   16.4528  -14.0050   16.6829 C   0  0  0  0  0  0  0  0  0  0  0  0
   16.0798  -14.0406   18.1231 C   0  0  2  0  0  0  0  0  0  0  0  0
   15.2109  -15.1558   18.5951 N   0  0  0  0  0  0  0  0  0  0  0  0
   13.8624  -14.9772   17.9877 C   0  0  0  0  0  0  0  0  0  0  0  0
   14.9604  -15.2706   20.0344 O   0  0  0  0  0  0  0  0  0  0  0  0
   14.4379  -14.3450   20.7265 N   0  0  0  0  0  0  0  0  0  0  0  0
   15.2932  -16.4559   20.7799 C   0  0  1  0  0  0  0  0  0  0  0  0
   15.1582  -16.5057   22.2301 C   0  0  0  0  0  0  0  0  0  0  0  0
   15.0205  -17.9287   22.7317 C   0  0  0  0  0  0  0  0  0  0  0  0
   14.8171  -17.8733   24.2289 C   0  0  0  0  0  0  0  0  0  0  0  0
   14.6388  -19.2550   24.8126 C   0  0  0  0  0  0  0  0  0  0  0  0
   14.2975  -19.1873   26.2766 N   0  0  0  0  0  0  0  0  0  0  0  0
   14.1295  -20.4732   26.8778 C   0  0  0  0  0  0  0  0  0  0  0  0
   16.2974  -15.8164   22.8933 O   0  0  0  0  0  0  0  0  0  0  0  0
   16.1546  -15.4545   24.0887 O   0  0  0  0  0  0  0  0  0  0  0  0
  1  2  1  0
  2  3  2  0
  4  5  1  0
  4  2  1  0
  6  5  1  0
  7  6  1  0
  8  9  1  6
  8  7  1  0
 10 11  2  0
 10  8  1  0
 12 13  1  0
 13 14  2  0
 15 16  1  0
 15 13  1  0
 17 16  1  6
 17 19  1  0
 17 18  1  0
 18 10  1  0
 19 21  1  0
 20 19  2  0
 21 22  1  0
 22 28  1  0
 23 24  1  0
 22 23  1  1
 24 25  1  0
 25 26  1  0
 26 27  1  0
 28 29  2  0
 28 30  1  0
M  END
$$$$
