RQK.pdb
     RDKit          3D

 30 29  0  0  1  0  0  0  0  0999 V2000
    8.2447  -11.7820   20.6468 N   0  0  0  0  0  0  0  0  0  0  0  0
    8.0737  -12.6252   19.5090 C   0  0  0  0  0  0  0  0  0  0  0  0
    8.7534  -12.4212   18.4481 N   0  0  0  0  0  0  0  0  0  0  0  0
    7.1516  -13.6886   19.5613 N   0  0  0  0  0  0  0  0  0  0  0  0
    7.2092  -14.7200   20.6178 C   0  0  0  0  0  0  0  0  0  0  0  0
    8.6529  -15.0849   20.7690 C   0  0  0  0  0  0  0  0  0  0  0  0
    8.8954  -16.5278   20.5623 C   0  0  0  0  0  0  0  0  0  0  0  0
    8.7135  -17.4375   21.7390 C   0  0  2  0  0  0  0  0  0  0  0  0
    7.4054  -17.4366   22.3218 N   0  0  0  0  0  0  0  0  0  0  0  0
    9.7017  -17.0112   22.7620 C   0  0  0  0  0  0  0  0  0  0  0  0
   10.8451  -16.6853   22.3823 O   0  0  0  0  0  0  0  0  0  0  0  0
    8.5679  -12.9627   17.5887 N   0  0  0  0  0  0  0  0  0  0  0  0
    8.0077  -14.7286   28.5510 C   0  0  0  0  0  0  0  0  0  0  0  0
    9.3983  -14.5428   28.3758 O   0  0  0  0  0  0  0  0  0  0  0  0
    9.9753  -13.6889   29.1014 C   0  0  0  0  0  0  0  0  0  0  0  0
   10.2073  -15.2934   27.4018 C   0  0  0  0  0  0  0  0  0  0  0  0
    9.4864  -15.7907   26.1987 C   0  0  1  0  0  0  0  0  0  0  0  0
   10.2734  -16.5095   25.1568 N   0  0  0  0  0  0  0  0  0  0  0  0
    9.3250  -16.9881   24.1124 C   0  0  0  0  0  0  0  0  0  0  0  0
   11.0190  -17.7047   25.5607 O   0  0  0  0  0  0  0  0  0  0  0  0
   10.4616  -18.7968   25.8851 N   0  0  0  0  0  0  0  0  0  0  0  0
   12.4567  -17.7291   25.6212 C   0  0  1  0  0  0  0  0  0  0  0  0
   13.1760  -18.8718   26.1697 C   0  0  0  0  0  0  0  0  0  0  0  0
   14.5668  -18.9936   25.5813 C   0  0  0  0  0  0  0  0  0  0  0  0
   14.4203  -19.2576   24.0997 C   0  0  0  0  0  0  0  0  0  0  0  0
   15.7666  -19.3746   23.4248 C   0  0  0  0  0  0  0  0  0  0  0  0
   15.6172  -19.5240   21.9349 N   0  0  0  0  0  0  0  0  0  0  0  0
   16.8667  -19.6377   21.2501 C   0  0  0  0  0  0  0  0  0  0  0  0
   13.2315  -18.8013   27.6544 O   0  0  0  0  0  0  0  0  0  0  0  0
   13.8204  -19.7266   28.2688 O   0  0  0  0  0  0  0  0  0  0  0  0
  1  2  1  0
  2  3  2  0
  4  5  1  0
  4  2  1  0
  6  5  1  0
  7  6  1  0
  8  9  1  1
  8  7  1  0
 10 11  2  0
 10  8  1  0
 12 13  1  0
 13 14  2  0
 15 16  1  0
 15 13  1  0
 17 16  1  6
 17 19  1  0
 17 18  1  0
 18 10  1  0
 19 21  1  0
 20 19  2  0
 21 22  1  0
 22 28  1  0
 23 24  1  0
 22 23  1  1
 24 25  1  0
 25 26  1  0
 26 27  1  0
 28 29  2  0
 28 30  1  0
M  END
$$$$
