RQK.pdb
     RDKit          3D

 30 29  0  0  1  0  0  0  0  0999 V2000
    8.3291  -12.3843   17.4265 N   0  0  0  0  0  0  0  0  0  0  0  0
    8.0277  -13.7244   17.0416 C   0  0  0  0  0  0  0  0  0  0  0  0
    7.7582  -13.9999   15.8248 N   0  0  0  0  0  0  0  0  0  0  0  0
    8.0313  -14.7460   18.0112 N   0  0  0  0  0  0  0  0  0  0  0  0
    8.2996  -14.4672   19.4372 C   0  0  0  0  0  0  0  0  0  0  0  0
    6.9717  -14.4967   20.1271 C   0  0  0  0  0  0  0  0  0  0  0  0
    6.8946  -15.5515   21.1591 C   0  0  0  0  0  0  0  0  0  0  0  0
    7.6756  -16.8088   20.9258 C   0  0  2  0  0  0  0  0  0  0  0  0
    6.8960  -17.9697   20.6168 N   0  0  0  0  0  0  0  0  0  0  0  0
    8.4536  -17.0614   22.1651 C   0  0  0  0  0  0  0  0  0  0  0  0
    7.8308  -17.3454   23.2087 O   0  0  0  0  0  0  0  0  0  0  0  0
    7.5959  -14.9751   15.5267 N   0  0  0  0  0  0  0  0  0  0  0  0
   15.3754  -15.5414   22.7307 C   0  0  0  0  0  0  0  0  0  0  0  0
   14.3715  -16.5142   22.5193 O   0  0  0  0  0  0  0  0  0  0  0  0
   14.7358  -17.6789   22.2040 C   0  0  0  0  0  0  0  0  0  0  0  0
   12.9306  -16.2450   22.6537 C   0  0  0  0  0  0  0  0  0  0  0  0
   12.0714  -17.4218   22.9563 C   0  0  1  0  0  0  0  0  0  0  0  0
   10.6594  -17.1729   23.3633 N   0  0  0  0  0  0  0  0  0  0  0  0
    9.8525  -16.9737   22.1270 C   0  0  0  0  0  0  0  0  0  0  0  0
   10.3787  -15.9938   24.1869 O   0  0  0  0  0  0  0  0  0  0  0  0
   10.2981  -14.8187   23.7165 N   0  0  0  0  0  0  0  0  0  0  0  0
   10.1717  -16.0814   25.6085 C   0  0  1  0  0  0  0  0  0  0  0  0
    9.8308  -14.9074   26.4017 C   0  0  0  0  0  0  0  0  0  0  0  0
    8.4102  -14.4490   26.1425 C   0  0  0  0  0  0  0  0  0  0  0  0
    8.1356  -13.2643   27.0411 C   0  0  0  0  0  0  0  0  0  0  0  0
    6.7160  -12.7722   26.8861 C   0  0  0  0  0  0  0  0  0  0  0  0
    6.4780  -11.5315   27.7038 N   0  0  0  0  0  0  0  0  0  0  0  0
    5.1819  -10.9628   27.5038 C   0  0  0  0  0  0  0  0  0  0  0  0
   10.0506  -15.1633   27.8504 O   0  0  0  0  0  0  0  0  0  0  0  0
   10.0506  -16.3563   28.2468 O   0  0  0  0  0  0  0  0  0  0  0  0
  1  2  1  0
  2  3  2  0
  4  5  1  0
  4  2  1  0
  6  5  1  0
  7  6  1  0
  8  9  1  1
  8  7  1  0
 10 11  2  0
 10  8  1  0
 12 13  1  0
 13 14  2  0
 15 16  1  0
 15 13  1  0
 17 16  1  6
 17 19  1  0
 17 18  1  0
 18 10  1  0
 19 21  1  0
 20 19  2  0
 21 22  1  0
 22 28  1  0
 23 24  1  0
 22 23  1  1
 24 25  1  0
 25 26  1  0
 26 27  1  0
 28 29  2  0
 28 30  1  0
M  END
$$$$
