RQK.pdb
     RDKit          3D

 30 29  0  0  1  0  0  0  0  0999 V2000
    8.7991  -12.0557   18.3469 N   0  0  0  0  0  0  0  0  0  0  0  0
    9.6905  -13.1632   18.2287 C   0  0  0  0  0  0  0  0  0  0  0  0
   10.6795  -13.2820   19.0267 N   0  0  0  0  0  0  0  0  0  0  0  0
    9.4732  -14.1294   17.2272 N   0  0  0  0  0  0  0  0  0  0  0  0
    8.9181  -15.4632   17.5372 C   0  0  0  0  0  0  0  0  0  0  0  0
    7.7378  -15.2295   18.4273 C   0  0  0  0  0  0  0  0  0  0  0  0
    7.9212  -15.8115   19.7731 C   0  0  0  0  0  0  0  0  0  0  0  0
    8.2166  -17.2779   19.8605 C   0  0  2  0  0  0  0  0  0  0  0  0
    7.1808  -18.1443   19.3837 N   0  0  0  0  0  0  0  0  0  0  0  0
    8.4774  -17.5739   21.2920 C   0  0  0  0  0  0  0  0  0  0  0  0
    7.5005  -17.7262   22.0536 O   0  0  0  0  0  0  0  0  0  0  0  0
   11.3619  -14.0485   18.9128 N   0  0  0  0  0  0  0  0  0  0  0  0
   14.1746  -19.5932   23.4699 C   0  0  0  0  0  0  0  0  0  0  0  0
   13.3640  -19.4515   24.6196 O   0  0  0  0  0  0  0  0  0  0  0  0
   13.8600  -19.7693   25.7339 C   0  0  0  0  0  0  0  0  0  0  0  0
   11.9809  -18.9487   24.5882 C   0  0  0  0  0  0  0  0  0  0  0  0
   11.4436  -18.5976   23.2456 C   0  0  1  0  0  0  0  0  0  0  0  0
   10.0972  -17.9623   23.1733 N   0  0  0  0  0  0  0  0  0  0  0  0
    9.8017  -17.6721   21.7423 C   0  0  0  0  0  0  0  0  0  0  0  0
    9.9022  -16.6837   23.8620 O   0  0  0  0  0  0  0  0  0  0  0  0
   10.3779  -15.5859   23.4409 N   0  0  0  0  0  0  0  0  0  0  0  0
    9.1480  -16.5762   25.0831 C   0  0  1  0  0  0  0  0  0  0  0  0
    9.0501  -15.3161   25.8087 C   0  0  0  0  0  0  0  0  0  0  0  0
    7.6798  -14.6876   25.6580 C   0  0  0  0  0  0  0  0  0  0  0  0
    7.6673  -13.4078   26.4632 C   0  0  0  0  0  0  0  0  0  0  0  0
    6.3402  -12.6958   26.3462 C   0  0  0  0  0  0  0  0  0  0  0  0
    6.3565  -11.3888   27.0918 N   0  0  0  0  0  0  0  0  0  0  0  0
    5.1142  -10.6849   27.0255 C   0  0  0  0  0  0  0  0  0  0  0  0
    9.3947  -15.5015   27.2437 O   0  0  0  0  0  0  0  0  0  0  0  0
    9.3250  -14.5017   28.0026 O   0  0  0  0  0  0  0  0  0  0  0  0
  1  2  1  0
  2  3  2  0
  4  5  1  0
  4  2  1  0
  6  5  1  0
  7  6  1  0
  8  9  1  1
  8  7  1  0
 10 11  2  0
 10  8  1  0
 12 13  1  0
 13 14  2  0
 15 16  1  0
 15 13  1  0
 17 16  1  6
 17 19  1  0
 17 18  1  0
 18 10  1  0
 19 21  1  0
 20 19  2  0
 21 22  1  0
 22 28  1  0
 23 24  1  0
 22 23  1  1
 24 25  1  0
 25 26  1  0
 26 27  1  0
 28 29  2  0
 28 30  1  0
M  END
$$$$
