RQK.pdb
     RDKit          3D

 30 29  0  0  1  0  0  0  0  0999 V2000
    9.2199  -12.7271   19.1362 N   0  0  0  0  0  0  0  0  0  0  0  0
    7.9305  -12.9730   18.5775 C   0  0  0  0  0  0  0  0  0  0  0  0
    7.7159  -12.7645   17.3368 N   0  0  0  0  0  0  0  0  0  0  0  0
    6.8931  -13.4507   19.4016 N   0  0  0  0  0  0  0  0  0  0  0  0
    7.1647  -14.2567   20.6099 C   0  0  0  0  0  0  0  0  0  0  0  0
    7.3010  -15.6734   20.1469 C   0  0  0  0  0  0  0  0  0  0  0  0
    8.6746  -16.1922   20.3128 C   0  0  0  0  0  0  0  0  0  0  0  0
    9.5062  -16.3616   19.0779 C   0  0  2  0  0  0  0  0  0  0  0  0
    9.1404  -17.4600   18.2349 N   0  0  0  0  0  0  0  0  0  0  0  0
   10.9083  -16.5429   19.5317 C   0  0  0  0  0  0  0  0  0  0  0  0
   11.3717  -17.7008   19.5774 O   0  0  0  0  0  0  0  0  0  0  0  0
    6.7658  -12.8533   16.9422 N   0  0  0  0  0  0  0  0  0  0  0  0
   16.2902  -14.8490   18.6541 C   0  0  0  0  0  0  0  0  0  0  0  0
   15.2485  -14.1965   17.9554 O   0  0  0  0  0  0  0  0  0  0  0  0
   15.4335  -13.9260   16.7384 C   0  0  0  0  0  0  0  0  0  0  0  0
   13.9624  -13.8235   18.5665 C   0  0  0  0  0  0  0  0  0  0  0  0
   13.7656  -14.2409   19.9813 C   0  0  2  0  0  0  0  0  0  0  0  0
   13.1061  -15.5521   20.2403 N   0  0  0  0  0  0  0  0  0  0  0  0
   11.6636  -15.4181   19.8930 C   0  0  0  0  0  0  0  0  0  0  0  0
   13.1140  -16.0669   21.6123 O   0  0  0  0  0  0  0  0  0  0  0  0
   12.4127  -15.5720   22.5460 N   0  0  0  0  0  0  0  0  0  0  0  0
   13.9285  -17.1854   22.0083 C   0  0  1  0  0  0  0  0  0  0  0  0
   13.9254  -17.6817   23.3785 C   0  0  0  0  0  0  0  0  0  0  0  0
   14.3295  -19.1403   23.4473 C   0  0  0  0  0  0  0  0  0  0  0  0
   14.1594  -19.6000   24.8777 C   0  0  0  0  0  0  0  0  0  0  0  0
   14.5925  -21.0367   25.0502 C   0  0  0  0  0  0  0  0  0  0  0  0
   14.3605  -21.5094   26.4599 N   0  0  0  0  0  0  0  0  0  0  0  0
   14.6233  -22.9030   26.6392 C   0  0  0  0  0  0  0  0  0  0  0  0
   14.7977  -16.8471   24.2475 O   0  0  0  0  0  0  0  0  0  0  0  0
   15.6891  -16.1521   23.6973 O   0  0  0  0  0  0  0  0  0  0  0  0
  1  2  1  0
  2  3  2  0
  4  5  1  0
  4  2  1  0
  6  5  1  0
  7  6  1  0
  8  9  1  1
  8  7  1  0
 10 11  2  0
 10  8  1  0
 12 13  1  0
 13 14  2  0
 15 16  1  0
 15 13  1  0
 17 16  1  6
 17 19  1  0
 17 18  1  0
 18 10  1  0
 19 21  1  0
 20 19  2  0
 21 22  1  0
 22 28  1  0
 23 24  1  0
 22 23  1  1
 24 25  1  0
 25 26  1  0
 26 27  1  0
 28 29  2  0
 28 30  1  0
M  END
$$$$
