RQK.pdb
     RDKit          3D

 30 29  0  0  1  0  0  0  0  0999 V2000
   15.4255  -20.1108   15.6337 N   0  0  0  0  0  0  0  0  0  0  0  0
   15.4691  -19.2918   14.4664 C   0  0  0  0  0  0  0  0  0  0  0  0
   16.5686  -19.1185   13.8420 N   0  0  0  0  0  0  0  0  0  0  0  0
   14.2906  -18.6758   14.0024 N   0  0  0  0  0  0  0  0  0  0  0  0
   13.0008  -18.8287   14.7070 C   0  0  0  0  0  0  0  0  0  0  0  0
   13.1507  -18.1166   16.0149 C   0  0  0  0  0  0  0  0  0  0  0  0
   11.9381  -18.2148   16.8537 C   0  0  0  0  0  0  0  0  0  0  0  0
   10.9228  -17.1191   16.7366 C   0  0  2  0  0  0  0  0  0  0  0  0
   11.1358  -16.1941   15.6643 N   0  0  0  0  0  0  0  0  0  0  0  0
   10.9430  -16.3821   18.0255 C   0  0  0  0  0  0  0  0  0  0  0  0
   12.0478  -16.0477   18.5001 O   0  0  0  0  0  0  0  0  0  0  0  0
   16.6310  -18.4522   13.0556 N   0  0  0  0  0  0  0  0  0  0  0  0
    6.7032  -11.8667   19.7813 C   0  0  0  0  0  0  0  0  0  0  0  0
    6.9200  -12.8996   18.8405 O   0  0  0  0  0  0  0  0  0  0  0  0
    6.0029  -13.1445   18.0114 C   0  0  0  0  0  0  0  0  0  0  0  0
    8.1556  -13.6967   18.7715 C   0  0  0  0  0  0  0  0  0  0  0  0
    8.4858  -14.4963   19.9823 C   0  0  2  0  0  0  0  0  0  0  0  0
    9.7163  -15.3369   19.9534 N   0  0  0  0  0  0  0  0  0  0  0  0
    9.7312  -16.0867   18.6662 C   0  0  0  0  0  0  0  0  0  0  0  0
    9.8716  -16.3646   20.9864 O   0  0  0  0  0  0  0  0  0  0  0  0
    9.7913  -17.6080   20.7496 N   0  0  0  0  0  0  0  0  0  0  0  0
   10.1290  -16.0363   22.3639 C   0  0  1  0  0  0  0  0  0  0  0  0
   10.7545  -16.9914   23.2697 C   0  0  0  0  0  0  0  0  0  0  0  0
   12.0493  -17.5366   22.7026 C   0  0  0  0  0  0  0  0  0  0  0  0
   12.5379  -18.6256   23.6307 C   0  0  0  0  0  0  0  0  0  0  0  0
   13.8108  -19.2570   23.1180 C   0  0  0  0  0  0  0  0  0  0  0  0
   14.2755  -20.3612   24.0285 N   0  0  0  0  0  0  0  0  0  0  0  0
   15.4402  -21.0369   23.5486 C   0  0  0  0  0  0  0  0  0  0  0  0
   10.9749  -16.3857   24.6103 O   0  0  0  0  0  0  0  0  0  0  0  0
   11.4200  -15.2111   24.6626 O   0  0  0  0  0  0  0  0  0  0  0  0
  1  2  1  0
  2  3  2  0
  4  5  1  0
  4  2  1  0
  6  5  1  0
  7  6  1  0
  8  9  1  6
  8  7  1  0
 10 11  2  0
 10  8  1  0
 12 13  1  0
 13 14  2  0
 15 16  1  0
 15 13  1  0
 17 16  1  6
 17 19  1  0
 17 18  1  0
 18 10  1  0
 19 21  1  0
 20 19  2  0
 21 22  1  0
 22 28  1  0
 23 24  1  0
 22 23  1  1
 24 25  1  0
 25 26  1  0
 26 27  1  0
 28 29  2  0
 28 30  1  0
M  END
$$$$
