RQK.pdb
     RDKit          3D

 30 29  0  0  1  0  0  0  0  0999 V2000
    7.7952  -12.6092   20.6078 N   0  0  0  0  0  0  0  0  0  0  0  0
    7.2964  -12.6030   19.2713 C   0  0  0  0  0  0  0  0  0  0  0  0
    7.0898  -11.4984   18.6661 N   0  0  0  0  0  0  0  0  0  0  0  0
    7.0347  -13.8235   18.6189 N   0  0  0  0  0  0  0  0  0  0  0  0
    7.7498  -15.0669   18.9739 C   0  0  0  0  0  0  0  0  0  0  0  0
    8.6835  -15.3519   17.8394 C   0  0  0  0  0  0  0  0  0  0  0  0
   10.0611  -15.6275   18.2973 C   0  0  0  0  0  0  0  0  0  0  0  0
   11.0999  -15.8937   17.2508 C   0  0  2  0  0  0  0  0  0  0  0  0
   10.9311  -17.1076   16.5101 N   0  0  0  0  0  0  0  0  0  0  0  0
   12.4087  -15.9296   17.9512 C   0  0  0  0  0  0  0  0  0  0  0  0
   12.8035  -17.0190   18.4147 O   0  0  0  0  0  0  0  0  0  0  0  0
    6.6872  -11.4834   17.7153 N   0  0  0  0  0  0  0  0  0  0  0  0
   17.5295  -12.7317   16.4742 C   0  0  0  0  0  0  0  0  0  0  0  0
   17.7031  -13.2086   17.7938 O   0  0  0  0  0  0  0  0  0  0  0  0
   18.8626  -13.5515   18.1493 C   0  0  0  0  0  0  0  0  0  0  0  0
   16.6102  -13.3194   18.7736 C   0  0  0  0  0  0  0  0  0  0  0  0
   15.2542  -13.5709   18.2145 C   0  0  1  0  0  0  0  0  0  0  0  0
   14.5065  -14.7658   18.6988 N   0  0  0  0  0  0  0  0  0  0  0  0
   13.1557  -14.7490   18.0708 C   0  0  0  0  0  0  0  0  0  0  0  0
   14.2488  -14.8795   20.1369 O   0  0  0  0  0  0  0  0  0  0  0  0
   13.4382  -14.1296   20.7607 N   0  0  0  0  0  0  0  0  0  0  0  0
   14.9045  -15.8618   20.9594 C   0  0  1  0  0  0  0  0  0  0  0  0
   14.6533  -15.9444   22.3925 C   0  0  0  0  0  0  0  0  0  0  0  0
   13.9819  -17.2491   22.7697 C   0  0  0  0  0  0  0  0  0  0  0  0
   13.8462  -17.2807   24.2753 C   0  0  0  0  0  0  0  0  0  0  0  0
   13.2414  -18.5819   24.7472 C   0  0  0  0  0  0  0  0  0  0  0  0
   13.0904  -18.6004   26.2443 N   0  0  0  0  0  0  0  0  0  0  0  0
   12.4843  -19.7977   26.7365 C   0  0  0  0  0  0  0  0  0  0  0  0
   15.9105  -15.7514   23.1638 O   0  0  0  0  0  0  0  0  0  0  0  0
   15.8360  -15.7224   24.4184 O   0  0  0  0  0  0  0  0  0  0  0  0
  1  2  1  0
  2  3  2  0
  4  5  1  0
  4  2  1  0
  6  5  1  0
  7  6  1  0
  8  9  1  1
  8  7  1  0
 10 11  2  0
 10  8  1  0
 12 13  1  0
 13 14  2  0
 15 16  1  0
 15 13  1  0
 17 16  1  6
 17 19  1  0
 17 18  1  0
 18 10  1  0
 19 21  1  0
 20 19  2  0
 21 22  1  0
 22 28  1  0
 23 24  1  0
 22 23  1  1
 24 25  1  0
 25 26  1  0
 26 27  1  0
 28 29  2  0
 28 30  1  0
M  END
$$$$
