RQK.pdb
     RDKit          3D

 30 29  0  0  1  0  0  0  0  0999 V2000
   14.3532  -14.6932   15.8831 N   0  0  0  0  0  0  0  0  0  0  0  0
   13.5693  -14.8440   17.0654 C   0  0  0  0  0  0  0  0  0  0  0  0
   12.7217  -15.7936   17.1595 N   0  0  0  0  0  0  0  0  0  0  0  0
   13.7365  -13.9405   18.1329 N   0  0  0  0  0  0  0  0  0  0  0  0
   12.9673  -14.0651   19.3883 C   0  0  0  0  0  0  0  0  0  0  0  0
   11.6221  -14.5974   19.0046 C   0  0  0  0  0  0  0  0  0  0  0  0
   10.5377  -13.6252   19.2544 C   0  0  0  0  0  0  0  0  0  0  0  0
    9.1349  -14.0586   18.9555 C   0  0  2  0  0  0  0  0  0  0  0  0
    8.2826  -13.0486   18.4038 N   0  0  0  0  0  0  0  0  0  0  0  0
    8.5561  -14.5365   20.2367 C   0  0  0  0  0  0  0  0  0  0  0  0
    8.0538  -13.6959   21.0105 O   0  0  0  0  0  0  0  0  0  0  0  0
   12.1312  -15.8942   18.0006 N   0  0  0  0  0  0  0  0  0  0  0  0
    4.6077  -18.2612   21.7403 C   0  0  0  0  0  0  0  0  0  0  0  0
    5.4858  -18.6723   22.7694 O   0  0  0  0  0  0  0  0  0  0  0  0
    4.9798  -19.1410   23.8244 C   0  0  0  0  0  0  0  0  0  0  0  0
    6.9524  -18.5902   22.6744 C   0  0  0  0  0  0  0  0  0  0  0  0
    7.4902  -17.8076   21.5286 C   0  0  1  0  0  0  0  0  0  0  0  0
    7.9763  -16.4234   21.7915 N   0  0  0  0  0  0  0  0  0  0  0  0
    8.5911  -15.9056   20.5372 C   0  0  0  0  0  0  0  0  0  0  0  0
    9.0072  -16.2396   22.8166 O   0  0  0  0  0  0  0  0  0  0  0  0
   10.2342  -16.4969   22.6246 N   0  0  0  0  0  0  0  0  0  0  0  0
    8.7012  -15.7483   24.1343 C   0  0  2  0  0  0  0  0  0  0  0  0
    9.7357  -15.5980   25.1497 C   0  0  0  0  0  0  0  0  0  0  0  0
    9.1846  -14.9970   26.4267 C   0  0  0  0  0  0  0  0  0  0  0  0
    9.9877  -15.5506   27.5821 C   0  0  0  0  0  0  0  0  0  0  0  0
    9.5335  -14.9666   28.8990 C   0  0  0  0  0  0  0  0  0  0  0  0
   10.3961  -15.4484   30.0341 N   0  0  0  0  0  0  0  0  0  0  0  0
   10.0455  -14.8721   31.2943 C   0  0  0  0  0  0  0  0  0  0  0  0
   10.4067  -16.8976   25.4205 O   0  0  0  0  0  0  0  0  0  0  0  0
   11.6479  -16.8919   25.6201 O   0  0  0  0  0  0  0  0  0  0  0  0
  1  2  1  0
  2  3  2  0
  4  5  1  0
  4  2  1  0
  6  5  1  0
  7  6  1  0
  8  9  1  1
  8  7  1  0
 10 11  2  0
 10  8  1  0
 12 13  1  0
 13 14  2  0
 15 16  1  0
 15 13  1  0
 17 16  1  6
 17 19  1  0
 17 18  1  0
 18 10  1  0
 19 21  1  0
 20 19  2  0
 21 22  1  0
 22 28  1  0
 23 24  1  0
 22 23  1  1
 24 25  1  0
 25 26  1  0
 26 27  1  0
 28 29  2  0
 28 30  1  0
M  END
$$$$
