RQK.pdb
     RDKit          3D

 30 29  0  0  1  0  0  0  0  0999 V2000
    7.5306  -14.3962   14.2965 N   0  0  0  0  0  0  0  0  0  0  0  0
    8.1968  -13.8795   15.4472 C   0  0  0  0  0  0  0  0  0  0  0  0
    8.2713  -12.6195   15.6367 N   0  0  0  0  0  0  0  0  0  0  0  0
    8.7712  -14.7672   16.3777 N   0  0  0  0  0  0  0  0  0  0  0  0
    8.0614  -15.1751   17.6078 C   0  0  0  0  0  0  0  0  0  0  0  0
    7.6609  -13.9098   18.2997 C   0  0  0  0  0  0  0  0  0  0  0  0
    8.2431  -13.7976   19.6532 C   0  0  0  0  0  0  0  0  0  0  0  0
    8.3093  -15.0419   20.4854 C   0  0  2  0  0  0  0  0  0  0  0  0
    7.0690  -15.7382   20.6518 N   0  0  0  0  0  0  0  0  0  0  0  0
    8.8207  -14.6345   21.8185 C   0  0  0  0  0  0  0  0  0  0  0  0
    9.9205  -14.0474   21.8776 O   0  0  0  0  0  0  0  0  0  0  0  0
    8.7131  -12.2379   16.4885 N   0  0  0  0  0  0  0  0  0  0  0  0
    5.8241  -11.7351   26.2371 C   0  0  0  0  0  0  0  0  0  0  0  0
    6.9459  -12.2432   26.9317 O   0  0  0  0  0  0  0  0  0  0  0  0
    7.1508  -11.8293   28.1044 C   0  0  0  0  0  0  0  0  0  0  0  0
    7.8798  -13.2304   26.3659 C   0  0  0  0  0  0  0  0  0  0  0  0
    7.6157  -13.6505   24.9629 C   0  0  1  0  0  0  0  0  0  0  0  0
    8.5778  -14.5892   24.3191 N   0  0  0  0  0  0  0  0  0  0  0  0
    8.0603  -14.9192   22.9617 C   0  0  0  0  0  0  0  0  0  0  0  0
    8.8041  -15.8881   24.9588 O   0  0  0  0  0  0  0  0  0  0  0  0
    7.9293  -16.8054   25.0014 N   0  0  0  0  0  0  0  0  0  0  0  0
   10.0505  -16.2241   25.5952 C   0  0  1  0  0  0  0  0  0  0  0  0
   10.2606  -17.5249   26.2179 C   0  0  0  0  0  0  0  0  0  0  0  0
   11.2749  -18.3536   25.4565 C   0  0  0  0  0  0  0  0  0  0  0  0
   11.4490  -19.6624   26.1933 C   0  0  0  0  0  0  0  0  0  0  0  0
   12.4869  -20.5355   25.5285 C   0  0  0  0  0  0  0  0  0  0  0  0
   12.6182  -21.8581   26.2343 N   0  0  0  0  0  0  0  0  0  0  0  0
   13.6629  -22.6789   25.7070 C   0  0  0  0  0  0  0  0  0  0  0  0
   10.6604  -17.3731   27.6426 O   0  0  0  0  0  0  0  0  0  0  0  0
   11.2237  -16.3036   27.9879 O   0  0  0  0  0  0  0  0  0  0  0  0
  1  2  1  0
  2  3  2  0
  4  5  1  0
  4  2  1  0
  6  5  1  0
  7  6  1  0
  8  9  1  1
  8  7  1  0
 10 11  2  0
 10  8  1  0
 12 13  1  0
 13 14  2  0
 15 16  1  0
 15 13  1  0
 17 16  1  6
 17 19  1  0
 17 18  1  0
 18 10  1  0
 19 21  1  0
 20 19  2  0
 21 22  1  0
 22 28  1  0
 23 24  1  0
 22 23  1  1
 24 25  1  0
 25 26  1  0
 26 27  1  0
 28 29  2  0
 28 30  1  0
M  END
$$$$
