IQG.pdb
     RDKit          3D

 22 21  0  0  1  0  0  0  0  0999 V2000
   15.8557  -22.8637    2.6120 C   0  0  0  0  0  0  0  0  0  0  0  0
   15.7132  -21.4109    2.3127 C   0  0  0  0  0  0  0  0  0  0  0  0
   16.5162  -20.4961    3.1715 C   0  0  2  0  0  0  0  0  0  0  0  0
   16.0462  -20.6900    4.6117 C   0  0  0  0  0  0  0  0  0  0  0  0
   16.4413  -19.0374    2.7723 C   0  0  2  0  0  0  0  0  0  0  0  0
   16.6494  -18.7689    1.4204 N   0  0  0  0  0  0  0  0  0  0  0  0
   17.3579  -18.3066    3.7098 C   0  0  0  0  0  0  0  0  0  0  0  0
   18.6030  -18.2967    3.5320 O   0  0  0  0  0  0  0  0  0  0  0  0
   15.4093  -13.5344    5.3554 N   0  0  0  0  0  0  0  0  0  0  0  0
   16.6310  -13.5072    4.6213 C   0  0  0  0  0  0  0  0  0  0  0  0
   16.7377  -12.6363    3.7217 O   0  0  0  0  0  0  0  0  0  0  0  0
   17.7416  -14.4538    4.8882 C   0  0  0  0  0  0  0  0  0  0  0  0
   17.3116  -15.4225    5.9319 C   0  0  0  0  0  0  0  0  0  0  0  0
   17.7928  -16.8294    5.6919 C   0  0  2  0  0  0  0  0  0  0  0  0
   16.8892  -17.5836    4.8500 N   0  0  0  0  0  0  0  0  0  0  0  0
   18.0327  -17.5768    6.9312 C   0  0  0  0  0  0  0  0  0  0  0  0
   17.1724  -18.3103    7.4870 O   0  0  0  0  0  0  0  0  0  0  0  0
   19.3023  -17.4804    7.5557 N   0  0  0  0  0  0  0  0  0  0  0  0
   19.6740  -18.2404    8.7212 C   0  0  0  0  0  0  0  0  0  0  0  0
   21.0252  -17.9568    9.2004 C   0  0  0  0  0  0  0  0  0  0  0  0
   21.4931  -18.5778   10.3421 O   0  0  0  0  0  0  0  0  0  0  0  0
   21.7657  -17.1557    8.5872 O   0  0  0  0  0  0  0  0  0  0  0  0
  2  3  1  0
  2  1  1  0
  3  5  1  0
  3  4  1  1
  5  7  1  0
  5  6  1  6
  7  8  2  0
  9 10  1  0
 10 12  1  0
 10 11  2  0
 12 13  1  0
 14 13  1  1
 15 14  1  0
 15  7  1  0
 16 17  2  0
 16 14  1  0
 18 16  1  0
 19 20  1  0
 19 18  1  0
 20 21  1  0
 22 20  2  0
M  END
$$$$
