IQG.pdb
     RDKit          3D

 22 21  0  0  1  0  0  0  0  0999 V2000
   14.9032  -11.5569  -16.6050 C   0  0  0  0  0  0  0  0  0  0  0  0
   16.3787  -11.5208  -16.8105 C   0  0  0  0  0  0  0  0  0  0  0  0
   17.1026  -10.4413  -16.0826 C   0  0  2  0  0  0  0  0  0  0  0  0
   16.5222   -9.1071  -16.5471 C   0  0  0  0  0  0  0  0  0  0  0  0
   18.6060  -10.4661  -16.2614 C   0  0  2  0  0  0  0  0  0  0  0  0
   19.2231  -11.6933  -16.0242 N   0  0  0  0  0  0  0  0  0  0  0  0
   19.1365   -9.3240  -15.4446 C   0  0  0  0  0  0  0  0  0  0  0  0
   19.5886   -9.5040  -14.2846 O   0  0  0  0  0  0  0  0  0  0  0  0
   21.1508   -7.2062  -12.3087 N   0  0  0  0  0  0  0  0  0  0  0  0
   22.0342   -6.3049  -12.9716 C   0  0  0  0  0  0  0  0  0  0  0  0
   22.6503   -5.4775  -12.2541 O   0  0  0  0  0  0  0  0  0  0  0  0
   22.2345   -6.3229  -14.4414 C   0  0  0  0  0  0  0  0  0  0  0  0
   21.3750   -7.3824  -15.0341 C   0  0  0  0  0  0  0  0  0  0  0  0
   19.9471   -6.9563  -15.2530 C   0  0  2  0  0  0  0  0  0  0  0  0
   19.1648   -7.9759  -15.9182 N   0  0  0  0  0  0  0  0  0  0  0  0
   19.8279   -5.6970  -15.9960 C   0  0  0  0  0  0  0  0  0  0  0  0
   20.3338   -5.5016  -17.1330 O   0  0  0  0  0  0  0  0  0  0  0  0
   19.1040   -4.6242  -15.4162 N   0  0  0  0  0  0  0  0  0  0  0  0
   18.9269   -3.3470  -16.0577 C   0  0  0  0  0  0  0  0  0  0  0  0
   18.1912   -2.3795  -15.2461 C   0  0  0  0  0  0  0  0  0  0  0  0
   17.6429   -2.7711  -14.0403 O   0  0  0  0  0  0  0  0  0  0  0  0
   18.0516   -1.1972  -15.6315 O   0  0  0  0  0  0  0  0  0  0  0  0
  2  3  1  0
  2  1  1  0
  3  5  1  0
  3  4  1  6
  5  7  1  0
  5  6  1  1
  7  8  2  0
  9 10  1  0
 10 12  1  0
 10 11  2  0
 12 13  1  0
 14 13  1  6
 15 14  1  0
 15  7  1  0
 16 17  2  0
 16 14  1  0
 18 16  1  0
 19 20  1  0
 19 18  1  0
 20 21  1  0
 22 20  2  0
M  END
$$$$
