IQG.pdb
     RDKit          3D

 22 21  0  0  1  0  0  0  0  0999 V2000
   25.0269  -14.1550  -18.0028 C   0  0  0  0  0  0  0  0  0  0  0  0
   24.7323  -13.3390  -16.7911 C   0  0  0  0  0  0  0  0  0  0  0  0
   23.9607  -12.0876  -17.0312 C   0  0  2  0  0  0  0  0  0  0  0  0
   24.6684  -11.3202  -18.1462 C   0  0  0  0  0  0  0  0  0  0  0  0
   23.7851  -11.2163  -15.8053 C   0  0  2  0  0  0  0  0  0  0  0  0
   23.3721  -11.8759  -14.6488 N   0  0  0  0  0  0  0  0  0  0  0  0
   22.9044  -10.0782  -16.2320 C   0  0  0  0  0  0  0  0  0  0  0  0
   23.1935   -9.3649  -17.2269 O   0  0  0  0  0  0  0  0  0  0  0  0
   17.6622  -10.9867  -15.6523 N   0  0  0  0  0  0  0  0  0  0  0  0
   18.3136  -11.0190  -16.9199 C   0  0  0  0  0  0  0  0  0  0  0  0
   18.0170  -11.9662  -17.6906 O   0  0  0  0  0  0  0  0  0  0  0  0
   19.3011   -9.9924  -17.3342 C   0  0  0  0  0  0  0  0  0  0  0  0
   19.4577   -9.0008  -16.2366 C   0  0  0  0  0  0  0  0  0  0  0  0
   20.8872   -8.6076  -15.9708 C   0  0  2  0  0  0  0  0  0  0  0  0
   21.6972   -9.7307  -15.5505 N   0  0  0  0  0  0  0  0  0  0  0  0
   21.0153   -7.5269  -14.9872 C   0  0  0  0  0  0  0  0  0  0  0  0
   21.2396   -7.7150  -13.7620 O   0  0  0  0  0  0  0  0  0  0  0  0
   20.8818   -6.1838  -15.4224 N   0  0  0  0  0  0  0  0  0  0  0  0
   20.9496   -5.0510  -14.5357 C   0  0  0  0  0  0  0  0  0  0  0  0
   22.2645   -4.4142  -14.4965 C   0  0  0  0  0  0  0  0  0  0  0  0
   22.4191   -3.1971  -13.8618 O   0  0  0  0  0  0  0  0  0  0  0  0
   23.2549   -4.9598  -15.0327 O   0  0  0  0  0  0  0  0  0  0  0  0
  2  3  1  0
  2  1  1  0
  3  5  1  0
  3  4  1  6
  5  7  1  0
  5  6  1  1
  7  8  2  0
  9 10  1  0
 10 12  1  0
 10 11  2  0
 12 13  1  0
 14 13  1  1
 15 14  1  0
 15  7  1  0
 16 17  2  0
 16 14  1  0
 18 16  1  0
 19 20  1  0
 19 18  1  0
 20 21  1  0
 22 20  2  0
M  END
$$$$
