IQG.pdb
     RDKit          3D

 22 21  0  0  1  0  0  0  0  0999 V2000
   36.2238  -10.4564  -14.9623 C   0  0  0  0  0  0  0  0  0  0  0  0
   34.8225  -10.2334  -15.4176 C   0  0  0  0  0  0  0  0  0  0  0  0
   34.5665   -8.9313  -16.0945 C   0  0  2  0  0  0  0  0  0  0  0  0
   34.8189   -7.8259  -15.0711 C   0  0  0  0  0  0  0  0  0  0  0  0
   33.1836   -8.8014  -16.6975 C   0  0  2  0  0  0  0  0  0  0  0  0
   32.7594   -9.8777  -17.4751 N   0  0  0  0  0  0  0  0  0  0  0  0
   33.1614   -7.4717  -17.3935 C   0  0  0  0  0  0  0  0  0  0  0  0
   33.6277   -7.3327  -18.5535 O   0  0  0  0  0  0  0  0  0  0  0  0
   30.0635   -5.5159  -21.0466 N   0  0  0  0  0  0  0  0  0  0  0  0
   31.4662   -5.7436  -21.1592 C   0  0  0  0  0  0  0  0  0  0  0  0
   31.8983   -6.1012  -22.2836 O   0  0  0  0  0  0  0  0  0  0  0  0
   32.3950   -5.5729  -20.0151 C   0  0  0  0  0  0  0  0  0  0  0  0
   31.6047   -5.2787  -18.7898 C   0  0  0  0  0  0  0  0  0  0  0  0
   32.4462   -5.0714  -17.5579 C   0  0  2  0  0  0  0  0  0  0  0  0
   32.6189   -6.2909  -16.7984 N   0  0  0  0  0  0  0  0  0  0  0  0
   31.9261   -4.0230  -16.6734 C   0  0  0  0  0  0  0  0  0  0  0  0
   30.8741   -4.1384  -15.9901 O   0  0  0  0  0  0  0  0  0  0  0  0
   32.6360   -2.7999  -16.5679 N   0  0  0  0  0  0  0  0  0  0  0  0
   32.2277   -1.7157  -15.7124 C   0  0  0  0  0  0  0  0  0  0  0  0
   32.4420   -1.9772  -14.2905 C   0  0  0  0  0  0  0  0  0  0  0  0
   32.1224   -1.0090  -13.3587 O   0  0  0  0  0  0  0  0  0  0  0  0
   32.9130   -3.0710  -13.9060 O   0  0  0  0  0  0  0  0  0  0  0  0
  2  3  1  0
  2  1  1  0
  3  5  1  0
  3  4  1  1
  5  7  1  0
  5  6  1  6
  7  8  2  0
  9 10  1  0
 10 12  1  0
 10 11  2  0
 12 13  1  0
 14 13  1  6
 15 14  1  0
 15  7  1  0
 16 17  2  0
 16 14  1  0
 18 16  1  0
 19 20  1  0
 19 18  1  0
 20 21  1  0
 22 20  2  0
M  END
$$$$
