IQG.pdb
     RDKit          3D

 22 21  0  0  1  0  0  0  0  0999 V2000
   22.6929  -20.4889   -7.3316 C   0  0  0  0  0  0  0  0  0  0  0  0
   23.8831  -20.9893   -8.0756 C   0  0  0  0  0  0  0  0  0  0  0  0
   24.0367  -20.4726   -9.4644 C   0  0  2  0  0  0  0  0  0  0  0  0
   22.7579  -20.8173  -10.2251 C   0  0  0  0  0  0  0  0  0  0  0  0
   25.2555  -20.9957  -10.1949 C   0  0  2  0  0  0  0  0  0  0  0  0
   26.4743  -20.8180   -9.5423 N   0  0  0  0  0  0  0  0  0  0  0  0
   25.1882  -20.4137  -11.5769 C   0  0  0  0  0  0  0  0  0  0  0  0
   25.4687  -19.2067  -11.7926 O   0  0  0  0  0  0  0  0  0  0  0  0
   26.8036  -22.8466  -16.9301 N   0  0  0  0  0  0  0  0  0  0  0  0
   27.5494  -22.2664  -15.8628 C   0  0  0  0  0  0  0  0  0  0  0  0
   28.7819  -22.5089  -15.8291 O   0  0  0  0  0  0  0  0  0  0  0  0
   26.9218  -21.4110  -14.8258 C   0  0  0  0  0  0  0  0  0  0  0  0
   25.4593  -21.3309  -15.0845 C   0  0  0  0  0  0  0  0  0  0  0  0
   24.6959  -20.5689  -14.0332 C   0  0  2  0  0  0  0  0  0  0  0  0
   24.8075  -21.1759  -12.7244 N   0  0  0  0  0  0  0  0  0  0  0  0
   23.2773  -20.3938  -14.3632 C   0  0  0  0  0  0  0  0  0  0  0  0
   22.3920  -21.2621  -14.1414 O   0  0  0  0  0  0  0  0  0  0  0  0
   22.8583  -19.1816  -14.9684 N   0  0  0  0  0  0  0  0  0  0  0  0
   21.4764  -18.8041  -15.1168 C   0  0  0  0  0  0  0  0  0  0  0  0
   20.8353  -19.3763  -16.2990 C   0  0  0  0  0  0  0  0  0  0  0  0
   21.5069  -20.3154  -17.0573 O   0  0  0  0  0  0  0  0  0  0  0  0
   19.6819  -19.0246  -16.6337 O   0  0  0  0  0  0  0  0  0  0  0  0
  2  3  1  0
  2  1  1  0
  3  5  1  0
  3  4  1  6
  5  7  1  0
  5  6  1  1
  7  8  2  0
  9 10  1  0
 10 12  1  0
 10 11  2  0
 12 13  1  0
 14 13  1  6
 15 14  1  0
 15  7  1  0
 16 17  2  0
 16 14  1  0
 18 16  1  0
 19 20  1  0
 19 18  1  0
 20 21  1  0
 22 20  2  0
M  END
$$$$
