IQG.pdb
     RDKit          3D

 22 21  0  0  1  0  0  0  0  0999 V2000
   17.4159  -22.6468  -11.3659 C   0  0  0  0  0  0  0  0  0  0  0  0
   17.4500  -21.1620  -11.4887 C   0  0  0  0  0  0  0  0  0  0  0  0
   18.7314  -20.5878  -11.9861 C   0  0  2  0  0  0  0  0  0  0  0  0
   19.0765  -21.3012  -13.2918 C   0  0  0  0  0  0  0  0  0  0  0  0
   19.8800  -20.6775  -11.0035 C   0  0  2  0  0  0  0  0  0  0  0  0
   19.6587  -20.0895   -9.7592 N   0  0  0  0  0  0  0  0  0  0  0  0
   21.0885  -20.1708  -11.7356 C   0  0  0  0  0  0  0  0  0  0  0  0
   21.2241  -18.9503  -12.0080 O   0  0  0  0  0  0  0  0  0  0  0  0
   26.8823  -22.2917  -11.3169 N   0  0  0  0  0  0  0  0  0  0  0  0
   27.0139  -21.2604  -12.2922 C   0  0  0  0  0  0  0  0  0  0  0  0
   28.1799  -20.9572  -12.6493 O   0  0  0  0  0  0  0  0  0  0  0  0
   25.8423  -20.5612  -12.8748 C   0  0  0  0  0  0  0  0  0  0  0  0
   24.5988  -21.1314  -12.2908 C   0  0  0  0  0  0  0  0  0  0  0  0
   23.3358  -20.4926  -12.8061 C   0  0  2  0  0  0  0  0  0  0  0  0
   22.1509  -21.0237  -12.1673 N   0  0  0  0  0  0  0  0  0  0  0  0
   23.1870  -20.5996  -14.2615 C   0  0  0  0  0  0  0  0  0  0  0  0
   22.8071  -21.6445  -14.8539 O   0  0  0  0  0  0  0  0  0  0  0  0
   23.4838  -19.4703  -15.0664 N   0  0  0  0  0  0  0  0  0  0  0  0
   23.3768  -19.4683  -16.5026 C   0  0  0  0  0  0  0  0  0  0  0  0
   21.9992  -19.4228  -16.9884 C   0  0  0  0  0  0  0  0  0  0  0  0
   21.7047  -19.8733  -18.2605 O   0  0  0  0  0  0  0  0  0  0  0  0
   21.0804  -18.9792  -16.2637 O   0  0  0  0  0  0  0  0  0  0  0  0
  2  3  1  0
  2  1  1  0
  3  5  1  0
  3  4  1  6
  5  7  1  0
  5  6  1  1
  7  8  2  0
  9 10  1  0
 10 12  1  0
 10 11  2  0
 12 13  1  0
 14 13  1  1
 15 14  1  0
 15  7  1  0
 16 17  2  0
 16 14  1  0
 18 16  1  0
 19 20  1  0
 19 18  1  0
 20 21  1  0
 22 20  2  0
M  END
$$$$
