IQG.pdb
     RDKit          3D

 22 21  0  0  1  0  0  0  0  0999 V2000
   28.6004  -19.9749  -14.3443 C   0  0  0  0  0  0  0  0  0  0  0  0
   27.9137  -20.2210  -13.0448 C   0  0  0  0  0  0  0  0  0  0  0  0
   26.4300  -20.3345  -13.1136 C   0  0  2  0  0  0  0  0  0  0  0  0
   25.9006  -19.0446  -13.7369 C   0  0  0  0  0  0  0  0  0  0  0  0
   25.7611  -20.6033  -11.7820 C   0  0  2  0  0  0  0  0  0  0  0  0
   26.3137  -21.6350  -11.0249 N   0  0  0  0  0  0  0  0  0  0  0  0
   24.2973  -20.7520  -12.0793 C   0  0  0  0  0  0  0  0  0  0  0  0
   23.8321  -21.8184  -12.5572 O   0  0  0  0  0  0  0  0  0  0  0  0
   19.7428  -21.6986  -10.7875 N   0  0  0  0  0  0  0  0  0  0  0  0
   20.4914  -21.1988   -9.6821 C   0  0  0  0  0  0  0  0  0  0  0  0
   20.4953  -21.8925   -8.6343 O   0  0  0  0  0  0  0  0  0  0  0  0
   21.2407  -19.9198   -9.7410 C   0  0  0  0  0  0  0  0  0  0  0  0
   21.0491  -19.3080  -11.0831 C   0  0  0  0  0  0  0  0  0  0  0  0
   21.9423  -19.8866  -12.1490 C   0  0  2  0  0  0  0  0  0  0  0  0
   23.3461  -19.7114  -11.8448 N   0  0  0  0  0  0  0  0  0  0  0  0
   21.6688  -19.3486  -13.4861 C   0  0  0  0  0  0  0  0  0  0  0  0
   21.9464  -18.1720  -13.8402 O   0  0  0  0  0  0  0  0  0  0  0  0
   21.0558  -20.1878  -14.4511 N   0  0  0  0  0  0  0  0  0  0  0  0
   20.8308  -19.7940  -15.8180 C   0  0  0  0  0  0  0  0  0  0  0  0
   19.4529  -19.3924  -16.0939 C   0  0  0  0  0  0  0  0  0  0  0  0
   19.0921  -19.0095  -17.3710 O   0  0  0  0  0  0  0  0  0  0  0  0
   18.5934  -19.3912  -15.1843 O   0  0  0  0  0  0  0  0  0  0  0  0
  2  3  1  0
  2  1  1  0
  3  5  1  0
  3  4  1  1
  5  7  1  0
  5  6  1  6
  7  8  2  0
  9 10  1  0
 10 12  1  0
 10 11  2  0
 12 13  1  0
 14 13  1  1
 15 14  1  0
 15  7  1  0
 16 17  2  0
 16 14  1  0
 18 16  1  0
 19 20  1  0
 19 18  1  0
 20 21  1  0
 22 20  2  0
M  END
$$$$
