IQG.pdb
     RDKit          3D

 22 21  0  0  1  0  0  0  0  0999 V2000
   22.9636  -18.3233  -18.4416 C   0  0  0  0  0  0  0  0  0  0  0  0
   24.3871  -18.1140  -18.0537 C   0  0  0  0  0  0  0  0  0  0  0  0
   24.9263  -19.0713  -17.0477 C   0  0  2  0  0  0  0  0  0  0  0  0
   24.0330  -18.9879  -15.8116 C   0  0  0  0  0  0  0  0  0  0  0  0
   26.3771  -18.8410  -16.6803 C   0  0  2  0  0  0  0  0  0  0  0  0
   27.2849  -18.8984  -17.7365 N   0  0  0  0  0  0  0  0  0  0  0  0
   26.6682  -19.7794  -15.5455 C   0  0  0  0  0  0  0  0  0  0  0  0
   26.6176  -21.0268  -15.6989 O   0  0  0  0  0  0  0  0  0  0  0  0
   30.2271  -21.8255  -12.9500 N   0  0  0  0  0  0  0  0  0  0  0  0
   29.8456  -21.6193  -11.5921 C   0  0  0  0  0  0  0  0  0  0  0  0
   30.3580  -22.3797  -10.7329 O   0  0  0  0  0  0  0  0  0  0  0  0
   28.8884  -20.5612  -11.1858 C   0  0  0  0  0  0  0  0  0  0  0  0
   28.5629  -19.7223  -12.3702 C   0  0  0  0  0  0  0  0  0  0  0  0
   27.4256  -20.2566  -13.2006 C   0  0  2  0  0  0  0  0  0  0  0  0
   27.0169  -19.3301  -14.2343 N   0  0  0  0  0  0  0  0  0  0  0  0
   26.2545  -20.6333  -12.4014 C   0  0  0  0  0  0  0  0  0  0  0  0
   26.2226  -21.6261  -11.6267 O   0  0  0  0  0  0  0  0  0  0  0  0
   25.0791  -19.8452  -12.4930 N   0  0  0  0  0  0  0  0  0  0  0  0
   23.9145  -20.0576  -11.6728 C   0  0  0  0  0  0  0  0  0  0  0  0
   22.8343  -20.7636  -12.3589 C   0  0  0  0  0  0  0  0  0  0  0  0
   21.5967  -20.8768  -11.7561 O   0  0  0  0  0  0  0  0  0  0  0  0
   23.0177  -21.2684  -13.4892 O   0  0  0  0  0  0  0  0  0  0  0  0
  2  3  1  0
  2  1  1  0
  3  5  1  0
  3  4  1  1
  5  7  1  0
  5  6  1  6
  7  8  2  0
  9 10  1  0
 10 12  1  0
 10 11  2  0
 12 13  1  0
 14 13  1  1
 15 14  1  0
 15  7  1  0
 16 17  2  0
 16 14  1  0
 18 16  1  0
 19 20  1  0
 19 18  1  0
 20 21  1  0
 22 20  2  0
M  END
$$$$
