IQG.pdb
     RDKit          3D

 22 21  0  0  1  0  0  0  0  0999 V2000
   21.3147  -16.4872  -18.4639 C   0  0  0  0  0  0  0  0  0  0  0  0
   22.5906  -17.0395  -17.9273 C   0  0  0  0  0  0  0  0  0  0  0  0
   22.4497  -18.1925  -16.9947 C   0  0  2  0  0  0  0  0  0  0  0  0
   21.5236  -17.7545  -15.8618 C   0  0  0  0  0  0  0  0  0  0  0  0
   23.7601  -18.7172  -16.4467 C   0  0  2  0  0  0  0  0  0  0  0  0
   24.7596  -18.9512  -17.3898 N   0  0  0  0  0  0  0  0  0  0  0  0
   23.4054  -19.9014  -15.5952 C   0  0  0  0  0  0  0  0  0  0  0  0
   22.9454  -20.9569  -16.1016 O   0  0  0  0  0  0  0  0  0  0  0  0
   24.7959  -23.8970  -13.8286 N   0  0  0  0  0  0  0  0  0  0  0  0
   25.8302  -22.9297  -13.9916 C   0  0  0  0  0  0  0  0  0  0  0  0
   26.7949  -23.2442  -14.7328 O   0  0  0  0  0  0  0  0  0  0  0  0
   25.7925  -21.6040  -13.3268 C   0  0  0  0  0  0  0  0  0  0  0  0
   24.5260  -21.4848  -12.5560 C   0  0  0  0  0  0  0  0  0  0  0  0
   23.3338  -21.1124  -13.3979 C   0  0  2  0  0  0  0  0  0  0  0  0
   23.5623  -19.9131  -14.1747 N   0  0  0  0  0  0  0  0  0  0  0  0
   22.1027  -20.9525  -12.6164 C   0  0  0  0  0  0  0  0  0  0  0  0
   21.7623  -19.8780  -12.0538 O   0  0  0  0  0  0  0  0  0  0  0  0
   21.2310  -22.0621  -12.4747 N   0  0  0  0  0  0  0  0  0  0  0  0
   20.0007  -22.0154  -11.7276 C   0  0  0  0  0  0  0  0  0  0  0  0
   18.8830  -21.4396  -12.4728 C   0  0  0  0  0  0  0  0  0  0  0  0
   17.6071  -21.4928  -11.9465 O   0  0  0  0  0  0  0  0  0  0  0  0
   19.0686  -20.8973  -13.5853 O   0  0  0  0  0  0  0  0  0  0  0  0
  2  3  1  0
  2  1  1  0
  3  5  1  0
  3  4  1  1
  5  7  1  0
  5  6  1  6
  7  8  2  0
  9 10  1  0
 10 12  1  0
 10 11  2  0
 12 13  1  0
 14 13  1  1
 15 14  1  0
 15  7  1  0
 16 17  2  0
 16 14  1  0
 18 16  1  0
 19 20  1  0
 19 18  1  0
 20 21  1  0
 22 20  2  0
M  END
$$$$
