IQG.pdb
     RDKit          3D

 22 21  0  0  1  0  0  0  0  0999 V2000
   19.2349  -12.4517  -17.5025 C   0  0  0  0  0  0  0  0  0  0  0  0
   18.4649  -12.7933  -16.2733 C   0  0  0  0  0  0  0  0  0  0  0  0
   17.7214  -11.6648  -15.6465 C   0  0  2  0  0  0  0  0  0  0  0  0
   18.7335  -10.5615  -15.3444 C   0  0  0  0  0  0  0  0  0  0  0  0
   16.9474  -12.0413  -14.4007 C   0  0  2  0  0  0  0  0  0  0  0  0
   16.1404  -13.1728  -14.5090 N   0  0  0  0  0  0  0  0  0  0  0  0
   16.2323  -10.7946  -13.9679 C   0  0  0  0  0  0  0  0  0  0  0  0
   15.2344  -10.3605  -14.5988 O   0  0  0  0  0  0  0  0  0  0  0  0
   14.4616   -8.8879   -8.5844 N   0  0  0  0  0  0  0  0  0  0  0  0
   13.6541   -9.4061   -9.6388 C   0  0  0  0  0  0  0  0  0  0  0  0
   12.5496   -9.9114   -9.3169 O   0  0  0  0  0  0  0  0  0  0  0  0
   14.0765   -9.3627  -11.0602 C   0  0  0  0  0  0  0  0  0  0  0  0
   15.4129   -8.7156  -11.1485 C   0  0  0  0  0  0  0  0  0  0  0  0
   16.0159   -8.7500  -12.5283 C   0  0  2  0  0  0  0  0  0  0  0  0
   16.6275  -10.0264  -12.8294 N   0  0  0  0  0  0  0  0  0  0  0  0
   16.9945   -7.6814  -12.7573 C   0  0  0  0  0  0  0  0  0  0  0  0
   18.1753   -7.7042  -12.3188 O   0  0  0  0  0  0  0  0  0  0  0  0
   16.6070   -6.5471  -13.5151 N   0  0  0  0  0  0  0  0  0  0  0  0
   17.4813   -5.4347  -13.7837 C   0  0  0  0  0  0  0  0  0  0  0  0
   18.0884   -5.4728  -15.1126 C   0  0  0  0  0  0  0  0  0  0  0  0
   18.9130   -4.4425  -15.5204 O   0  0  0  0  0  0  0  0  0  0  0  0
   17.8695   -6.4306  -15.8878 O   0  0  0  0  0  0  0  0  0  0  0  0
  2  3  1  0
  2  1  1  0
  3  5  1  0
  3  4  1  1
  5  7  1  0
  5  6  1  6
  7  8  2  0
  9 10  1  0
 10 12  1  0
 10 11  2  0
 12 13  1  0
 14 13  1  1
 15 14  1  0
 15  7  1  0
 16 17  2  0
 16 14  1  0
 18 16  1  0
 19 20  1  0
 19 18  1  0
 20 21  1  0
 22 20  2  0
M  END
$$$$
