IQG.pdb
     RDKit          3D

 22 21  0  0  1  0  0  0  0  0999 V2000
   29.3527  -17.8626  -16.7465 C   0  0  0  0  0  0  0  0  0  0  0  0
   28.3157  -17.6352  -15.7007 C   0  0  0  0  0  0  0  0  0  0  0  0
   27.0442  -18.3900  -15.8819 C   0  0  2  0  0  0  0  0  0  0  0  0
   26.0240  -17.8097  -14.9044 C   0  0  0  0  0  0  0  0  0  0  0  0
   27.1743  -19.8874  -15.6986 C   0  0  2  0  0  0  0  0  0  0  0  0
   28.2405  -20.4880  -16.3662 N   0  0  0  0  0  0  0  0  0  0  0  0
   25.8246  -20.4602  -16.0198 C   0  0  0  0  0  0  0  0  0  0  0  0
   25.6047  -21.0431  -17.1125 O   0  0  0  0  0  0  0  0  0  0  0  0
   24.6433  -25.2878  -15.9057 N   0  0  0  0  0  0  0  0  0  0  0  0
   23.2552  -24.9769  -15.8139 C   0  0  0  0  0  0  0  0  0  0  0  0
   22.4474  -25.9339  -15.9164 O   0  0  0  0  0  0  0  0  0  0  0  0
   22.7610  -23.5935  -15.6068 C   0  0  0  0  0  0  0  0  0  0  0  0
   23.9232  -22.6933  -15.3801 C   0  0  0  0  0  0  0  0  0  0  0  0
   23.5546  -21.2362  -15.2817 C   0  0  2  0  0  0  0  0  0  0  0  0
   24.7141  -20.3851  -15.1232 N   0  0  0  0  0  0  0  0  0  0  0  0
   22.5995  -20.9539  -14.2047 C   0  0  0  0  0  0  0  0  0  0  0  0
   22.8926  -20.9844  -12.9799 O   0  0  0  0  0  0  0  0  0  0  0  0
   21.2619  -20.6251  -14.5424 N   0  0  0  0  0  0  0  0  0  0  0  0
   20.2216  -20.4280  -13.5662 C   0  0  0  0  0  0  0  0  0  0  0  0
   18.9073  -20.1732  -14.1524 C   0  0  0  0  0  0  0  0  0  0  0  0
   17.8041  -20.0392  -13.3321 O   0  0  0  0  0  0  0  0  0  0  0  0
   18.7689  -20.0747  -15.3923 O   0  0  0  0  0  0  0  0  0  0  0  0
  2  3  1  0
  2  1  1  0
  3  5  1  0
  3  4  1  1
  5  7  1  0
  5  6  1  6
  7  8  2  0
  9 10  1  0
 10 12  1  0
 10 11  2  0
 12 13  1  0
 14 13  1  1
 15 14  1  0
 15  7  1  0
 16 17  2  0
 16 14  1  0
 18 16  1  0
 19 20  1  0
 19 18  1  0
 20 21  1  0
 22 20  2  0
M  END
$$$$
