PES.pdb
     RDKit          3D

 23 23  0  0  1  0  0  0  0  0999 V2000
   16.7572  -13.0037    4.7011 N   0  0  0  0  0  0  0  0  0  0  0  0
   17.3246  -11.7341    5.0483 C   0  0  0  0  0  0  0  0  0  0  0  0
   18.8217  -11.8751    4.9981 C   0  0  0  0  0  0  0  0  0  0  0  0
   19.0331  -13.3465    5.1687 C   0  0  0  0  0  0  0  0  0  0  0  0
   17.8068  -13.9598    4.5511 C   0  0  1  0  0  0  0  0  0  0  0  0
   17.4335  -15.1958    5.2916 C   0  0  0  0  0  0  0  0  0  0  0  0
   16.4555  -15.2026    6.0808 O   0  0  0  0  0  0  0  0  0  0  0  0
   18.1835  -16.4177    5.1235 N   0  0  0  0  0  0  0  0  0  0  0  0
   17.8239  -17.5734    5.8994 C   0  0  1  0  0  0  0  0  0  0  0  0
   17.5089  -18.7343    5.0359 C   0  0  0  0  0  0  0  0  0  0  0  0
   16.4620  -18.5950    4.0068 C   0  0  0  0  0  0  0  0  0  0  0  0
   16.2942  -19.7468    3.1145 C   0  0  0  0  0  0  0  0  0  0  0  0
   16.2080  -20.9086    3.6101 O   0  0  0  0  0  0  0  0  0  0  0  0
   18.8240  -17.8723    6.9544 C   0  0  0  0  0  0  0  0  0  0  0  0
   20.0399  -17.6631    6.7469 O   0  0  0  0  0  0  0  0  0  0  0  0
   16.2229  -19.6387    1.7373 O   0  0  0  0  0  0  0  0  0  0  0  0
   19.6133  -18.5585   11.6301 O   0  0  0  0  0  0  0  0  0  0  0  0
   18.6993  -18.5363   10.5874 C   0  0  0  0  0  0  0  0  0  0  0  0
   19.4236  -18.5615    9.2573 C   0  0  2  0  0  0  0  0  0  0  0  0
   18.4523  -18.3978    8.2174 N   0  0  0  0  0  0  0  0  0  0  0  0
   20.1601  -19.8512    9.0994 C   0  0  0  0  0  0  0  0  0  0  0  0
   21.3700  -20.0563    9.7254 O   0  0  0  0  0  0  0  0  0  0  0  0
   19.6680  -20.7566    8.3874 O   0  0  0  0  0  0  0  0  0  0  0  0
  1  5  1  0
  1  2  1  0
  2  3  1  0
  4  3  1  0
  5  6  1  1
  5  4  1  0
  6  8  1  0
  6  7  2  0
  8  9  1  0
  9 14  1  0
  9 10  1  6
 11 10  1  0
 12 16  1  0
 12 11  1  0
 13 12  2  0
 14 15  2  0
 14 20  1  0
 17 18  1  0
 19 18  1  1
 19 21  1  0
 20 19  1  0
 21 22  1  0
 23 21  2  0
M  END
$$$$
