PES.pdb
     RDKit          3D

 23 23  0  0  1  0  0  0  0  0999 V2000
   24.4357  -11.8196  -15.9547 N   0  0  0  0  0  0  0  0  0  0  0  0
   24.2961  -13.2342  -16.1387 C   0  0  0  0  0  0  0  0  0  0  0  0
   24.3436  -13.5083  -17.6173 C   0  0  0  0  0  0  0  0  0  0  0  0
   23.9505  -12.1971  -18.2215 C   0  0  0  0  0  0  0  0  0  0  0  0
   24.4499  -11.1811  -17.2316 C   0  0  1  0  0  0  0  0  0  0  0  0
   23.5226  -10.0176  -17.1918 C   0  0  0  0  0  0  0  0  0  0  0  0
   23.4707   -9.2030  -18.1473 O   0  0  0  0  0  0  0  0  0  0  0  0
   22.6596   -9.7938  -16.0564 N   0  0  0  0  0  0  0  0  0  0  0  0
   21.6789   -8.7442  -16.1173 C   0  0  1  0  0  0  0  0  0  0  0  0
   20.3413   -9.2219  -15.6990 C   0  0  0  0  0  0  0  0  0  0  0  0
   19.1898   -8.3076  -15.8112 C   0  0  0  0  0  0  0  0  0  0  0  0
   17.9042   -8.8504  -15.3599 C   0  0  0  0  0  0  0  0  0  0  0  0
   17.8209  -10.0761  -15.0539 O   0  0  0  0  0  0  0  0  0  0  0  0
   22.1229   -7.5216  -15.4028 C   0  0  0  0  0  0  0  0  0  0  0  0
   22.7448   -7.6150  -14.3213 O   0  0  0  0  0  0  0  0  0  0  0  0
   16.7547   -8.0894  -15.2456 O   0  0  0  0  0  0  0  0  0  0  0  0
   22.6576   -2.7168  -15.5542 O   0  0  0  0  0  0  0  0  0  0  0  0
   22.0641   -3.8496  -16.0907 C   0  0  0  0  0  0  0  0  0  0  0  0
   22.4070   -5.0650  -15.2542 C   0  0  2  0  0  0  0  0  0  0  0  0
   21.8661   -6.2209  -15.9045 N   0  0  0  0  0  0  0  0  0  0  0  0
   21.8438   -4.9157  -13.8790 C   0  0  0  0  0  0  0  0  0  0  0  0
   20.5561   -5.3143  -13.5946 O   0  0  0  0  0  0  0  0  0  0  0  0
   22.5547   -4.4210  -12.9742 O   0  0  0  0  0  0  0  0  0  0  0  0
  1  5  1  0
  1  2  1  0
  2  3  1  0
  4  3  1  0
  5  6  1  1
  5  4  1  0
  6  8  1  0
  6  7  2  0
  8  9  1  0
  9 14  1  0
  9 10  1  1
 11 10  1  0
 12 16  1  0
 12 11  1  0
 13 12  2  0
 14 15  2  0
 14 20  1  0
 17 18  1  0
 19 18  1  6
 19 21  1  0
 20 19  1  0
 21 22  1  0
 23 21  2  0
M  END
$$$$
