PES.pdb
     RDKit          3D

 23 23  0  0  1  0  0  0  0  0999 V2000
   25.5747  -17.0041  -16.0655 N   0  0  0  0  0  0  0  0  0  0  0  0
   26.9230  -17.2253  -16.4986 C   0  0  0  0  0  0  0  0  0  0  0  0
   27.7870  -16.1765  -15.8527 C   0  0  0  0  0  0  0  0  0  0  0  0
   26.8168  -15.0836  -15.5318 C   0  0  0  0  0  0  0  0  0  0  0  0
   25.5249  -15.8117  -15.2821 C   0  0  1  0  0  0  0  0  0  0  0  0
   24.3804  -14.9830  -15.7497 C   0  0  0  0  0  0  0  0  0  0  0  0
   24.1611  -13.8496  -15.2531 O   0  0  0  0  0  0  0  0  0  0  0  0
   23.4929  -15.4582  -16.7844 N   0  0  0  0  0  0  0  0  0  0  0  0
   22.4089  -14.6191  -17.2181 C   0  0  1  0  0  0  0  0  0  0  0  0
   22.4164  -14.4332  -18.6871 C   0  0  0  0  0  0  0  0  0  0  0  0
   21.4024  -13.5556  -19.3004 C   0  0  0  0  0  0  0  0  0  0  0  0
   21.5485  -13.3310  -20.7423 C   0  0  0  0  0  0  0  0  0  0  0  0
   22.1107  -12.2732  -21.1521 O   0  0  0  0  0  0  0  0  0  0  0  0
   21.1011  -15.0739  -16.6838 C   0  0  0  0  0  0  0  0  0  0  0  0
   20.9368  -16.2696  -16.3546 O   0  0  0  0  0  0  0  0  0  0  0  0
   21.1009  -14.2225  -21.7007 O   0  0  0  0  0  0  0  0  0  0  0  0
   18.5068  -12.6529  -14.6670 O   0  0  0  0  0  0  0  0  0  0  0  0
   17.9169  -13.4314  -15.6515 C   0  0  0  0  0  0  0  0  0  0  0  0
   18.7763  -14.6440  -15.9435 C   0  0  2  0  0  0  0  0  0  0  0  0
   20.0033  -14.1909  -16.5272 N   0  0  0  0  0  0  0  0  0  0  0  0
   18.0574  -15.5707  -16.8682 C   0  0  0  0  0  0  0  0  0  0  0  0
   17.1002  -16.4410  -16.3946 O   0  0  0  0  0  0  0  0  0  0  0  0
   18.3310  -15.5537  -18.0903 O   0  0  0  0  0  0  0  0  0  0  0  0
  1  5  1  0
  1  2  1  0
  2  3  1  0
  4  3  1  0
  5  6  1  6
  5  4  1  0
  6  8  1  0
  6  7  2  0
  8  9  1  0
  9 14  1  0
  9 10  1  6
 11 10  1  0
 12 16  1  0
 12 11  1  0
 13 12  2  0
 14 15  2  0
 14 20  1  0
 17 18  1  0
 19 18  1  6
 19 21  1  0
 20 19  1  0
 21 22  1  0
 23 21  2  0
M  END
$$$$
