PES.pdb
     RDKit          3D

 23 23  0  0  1  0  0  0  0  0999 V2000
   24.3975  -12.2869  -15.6861 N   0  0  0  0  0  0  0  0  0  0  0  0
   24.2794  -13.7056  -15.5192 C   0  0  0  0  0  0  0  0  0  0  0  0
   23.9943  -14.3013  -16.8711 C   0  0  0  0  0  0  0  0  0  0  0  0
   23.4165  -13.1528  -17.6365 C   0  0  0  0  0  0  0  0  0  0  0  0
   24.0881  -11.9478  -17.0380 C   0  0  1  0  0  0  0  0  0  0  0  0
   23.1467  -10.7949  -17.0354 C   0  0  0  0  0  0  0  0  0  0  0  0
   22.7843  -10.2575  -18.1121 O   0  0  0  0  0  0  0  0  0  0  0  0
   22.6258  -10.2639  -15.7982 N   0  0  0  0  0  0  0  0  0  0  0  0
   21.6828   -9.1795  -15.8428 C   0  0  1  0  0  0  0  0  0  0  0  0
   20.3535   -9.5908  -15.3364 C   0  0  0  0  0  0  0  0  0  0  0  0
   19.2474   -8.6158  -15.3615 C   0  0  0  0  0  0  0  0  0  0  0  0
   17.9319   -9.1412  -14.9819 C   0  0  0  0  0  0  0  0  0  0  0  0
   17.0044   -9.1741  -15.8430 O   0  0  0  0  0  0  0  0  0  0  0  0
   22.2106   -7.9522  -15.1964 C   0  0  0  0  0  0  0  0  0  0  0  0
   22.8492   -8.0304  -14.1235 O   0  0  0  0  0  0  0  0  0  0  0  0
   17.6371   -9.6126  -13.7152 O   0  0  0  0  0  0  0  0  0  0  0  0
   23.5047   -4.7695  -17.2232 O   0  0  0  0  0  0  0  0  0  0  0  0
   22.6586   -4.4057  -16.1865 C   0  0  0  0  0  0  0  0  0  0  0  0
   22.6023   -5.5064  -15.1474 C   0  0  2  0  0  0  0  0  0  0  0  0
   22.0172   -6.6639  -15.7554 N   0  0  0  0  0  0  0  0  0  0  0  0
   21.7983   -5.0595  -13.9708 C   0  0  0  0  0  0  0  0  0  0  0  0
   22.3824   -4.3544  -12.9414 O   0  0  0  0  0  0  0  0  0  0  0  0
   20.5765   -5.3311  -13.9225 O   0  0  0  0  0  0  0  0  0  0  0  0
  1  5  1  0
  1  2  1  0
  2  3  1  0
  4  3  1  0
  5  6  1  1
  5  4  1  0
  6  8  1  0
  6  7  2  0
  8  9  1  0
  9 14  1  0
  9 10  1  1
 11 10  1  0
 12 16  1  0
 12 11  1  0
 13 12  2  0
 14 15  2  0
 14 20  1  0
 17 18  1  0
 19 18  1  6
 19 21  1  0
 20 19  1  0
 21 22  1  0
 23 21  2  0
M  END
$$$$
