PES.pdb
     RDKit          3D

 23 23  0  0  1  0  0  0  0  0999 V2000
   13.9136  -10.0305  -11.0833 N   0  0  0  0  0  0  0  0  0  0  0  0
   13.6837  -11.4422  -11.1778 C   0  0  0  0  0  0  0  0  0  0  0  0
   13.4712  -11.9636   -9.7825 C   0  0  0  0  0  0  0  0  0  0  0  0
   14.1375  -10.9330   -8.9266 C   0  0  0  0  0  0  0  0  0  0  0  0
   13.9740   -9.6577   -9.7065 C   0  0  1  0  0  0  0  0  0  0  0  0
   15.1626   -8.7854   -9.5019 C   0  0  0  0  0  0  0  0  0  0  0  0
   15.4620   -8.3639   -8.3564 O   0  0  0  0  0  0  0  0  0  0  0  0
   16.0017   -8.4007  -10.6117 N   0  0  0  0  0  0  0  0  0  0  0  0
   17.0290   -7.4162  -10.4056 C   0  0  1  0  0  0  0  0  0  0  0  0
   18.1936   -7.6488  -11.2900 C   0  0  0  0  0  0  0  0  0  0  0  0
   19.3073   -6.6824  -11.2724 C   0  0  0  0  0  0  0  0  0  0  0  0
   20.4614   -7.0315  -12.1073 C   0  0  0  0  0  0  0  0  0  0  0  0
   21.2906   -6.1303  -12.4284 O   0  0  0  0  0  0  0  0  0  0  0  0
   16.4988   -6.0317  -10.4740 C   0  0  0  0  0  0  0  0  0  0  0  0
   15.8668   -5.6485  -11.4834 O   0  0  0  0  0  0  0  0  0  0  0  0
   20.7039   -8.3109  -12.5742 O   0  0  0  0  0  0  0  0  0  0  0  0
   15.2252   -2.0824   -8.0861 O   0  0  0  0  0  0  0  0  0  0  0  0
   15.6704   -3.3957   -8.0927 C   0  0  0  0  0  0  0  0  0  0  0  0
   16.1044   -3.7932   -9.4884 C   0  0  2  0  0  0  0  0  0  0  0  0
   16.6826   -5.1019   -9.4199 N   0  0  0  0  0  0  0  0  0  0  0  0
   17.0887   -2.8037  -10.0201 C   0  0  0  0  0  0  0  0  0  0  0  0
   16.6681   -1.6890  -10.7117 O   0  0  0  0  0  0  0  0  0  0  0  0
   18.3126   -2.9930   -9.8327 O   0  0  0  0  0  0  0  0  0  0  0  0
  1  5  1  0
  1  2  1  0
  2  3  1  0
  4  3  1  0
  5  6  1  6
  5  4  1  0
  6  8  1  0
  6  7  2  0
  8  9  1  0
  9 14  1  0
  9 10  1  6
 11 10  1  0
 12 16  1  0
 12 11  1  0
 13 12  2  0
 14 15  2  0
 14 20  1  0
 17 18  1  0
 19 18  1  1
 19 21  1  0
 20 19  1  0
 21 22  1  0
 23 21  2  0
M  END
$$$$
