PES.pdb
     RDKit          3D

 23 23  0  0  1  0  0  0  0  0999 V2000
   17.6045  -10.3827  -15.9383 N   0  0  0  0  0  0  0  0  0  0  0  0
   18.2728  -11.2852  -16.8290 C   0  0  0  0  0  0  0  0  0  0  0  0
   18.2967  -12.6389  -16.1726 C   0  0  0  0  0  0  0  0  0  0  0  0
   18.1395  -12.3178  -14.7197 C   0  0  0  0  0  0  0  0  0  0  0  0
   17.3132  -11.0614  -14.7166 C   0  0  1  0  0  0  0  0  0  0  0  0
   17.7223  -10.1915  -13.5802 C   0  0  0  0  0  0  0  0  0  0  0  0
   17.5818  -10.5763  -12.3921 O   0  0  0  0  0  0  0  0  0  0  0  0
   18.2901   -8.8847  -13.8119 N   0  0  0  0  0  0  0  0  0  0  0  0
   18.7176   -8.0968  -12.6878 C   0  0  1  0  0  0  0  0  0  0  0  0
   19.8225   -7.1807  -13.0517 C   0  0  0  0  0  0  0  0  0  0  0  0
   20.3426   -6.2499  -12.0330 C   0  0  0  0  0  0  0  0  0  0  0  0
   21.3827   -5.3242  -12.4937 C   0  0  0  0  0  0  0  0  0  0  0  0
   22.5463   -5.7645  -12.7282 O   0  0  0  0  0  0  0  0  0  0  0  0
   17.5814   -7.4188  -12.0154 C   0  0  0  0  0  0  0  0  0  0  0  0
   16.7879   -6.7136  -12.6774 O   0  0  0  0  0  0  0  0  0  0  0  0
   21.1651   -3.9725  -12.6919 O   0  0  0  0  0  0  0  0  0  0  0  0
   14.9128   -8.7728   -9.8810 O   0  0  0  0  0  0  0  0  0  0  0  0
   15.5240   -7.7970   -9.1082 C   0  0  0  0  0  0  0  0  0  0  0  0
   16.2788   -6.8265   -9.9930 C   0  0  2  0  0  0  0  0  0  0  0  0
   17.3513   -7.5380  -10.6217 N   0  0  0  0  0  0  0  0  0  0  0  0
   16.8005   -5.6892   -9.1775 C   0  0  0  0  0  0  0  0  0  0  0  0
   15.9407   -4.7923   -8.5824 O   0  0  0  0  0  0  0  0  0  0  0  0
   18.0373   -5.5520   -9.0348 O   0  0  0  0  0  0  0  0  0  0  0  0
  1  5  1  0
  1  2  1  0
  2  3  1  0
  4  3  1  0
  5  6  1  1
  5  4  1  0
  6  8  1  0
  6  7  2  0
  8  9  1  0
  9 14  1  0
  9 10  1  6
 11 10  1  0
 12 16  1  0
 12 11  1  0
 13 12  2  0
 14 15  2  0
 14 20  1  0
 17 18  1  0
 19 18  1  1
 19 21  1  0
 20 19  1  0
 21 22  1  0
 23 21  2  0
M  END
$$$$
