PES.pdb
     RDKit          3D

 23 23  0  0  1  0  0  0  0  0999 V2000
   32.7209  -25.3645  -17.5352 N   0  0  0  0  0  0  0  0  0  0  0  0
   34.0259  -24.7909  -17.3859 C   0  0  0  0  0  0  0  0  0  0  0  0
   34.5488  -25.1938  -16.0338 C   0  0  0  0  0  0  0  0  0  0  0  0
   33.3041  -25.5065  -15.2646 C   0  0  0  0  0  0  0  0  0  0  0  0
   32.3482  -26.0031  -16.3139 C   0  0  1  0  0  0  0  0  0  0  0  0
   30.9603  -25.5924  -15.9668 C   0  0  0  0  0  0  0  0  0  0  0  0
   30.4853  -25.8280  -14.8274 O   0  0  0  0  0  0  0  0  0  0  0  0
   30.1240  -24.9137  -16.9280 N   0  0  0  0  0  0  0  0  0  0  0  0
   28.7915  -24.5287  -16.5497 C   0  0  1  0  0  0  0  0  0  0  0  0
   28.5986  -23.0637  -16.6448 C   0  0  0  0  0  0  0  0  0  0  0  0
   29.3125  -22.3168  -17.6971 C   0  0  0  0  0  0  0  0  0  0  0  0
   29.0552  -20.8735  -17.7340 C   0  0  0  0  0  0  0  0  0  0  0  0
   28.3277  -20.3494  -16.8402 O   0  0  0  0  0  0  0  0  0  0  0  0
   27.7570  -25.3117  -17.2704 C   0  0  0  0  0  0  0  0  0  0  0  0
   27.9677  -25.7092  -18.4378 O   0  0  0  0  0  0  0  0  0  0  0  0
   29.5696  -20.0333  -18.7051 O   0  0  0  0  0  0  0  0  0  0  0  0
   25.5485  -29.0063  -17.5478 O   0  0  0  0  0  0  0  0  0  0  0  0
   26.3065  -27.9957  -16.9758 C   0  0  0  0  0  0  0  0  0  0  0  0
   25.6710  -26.6480  -17.2481 C   0  0  2  0  0  0  0  0  0  0  0  0
   26.5101  -25.6361  -16.6792 N   0  0  0  0  0  0  0  0  0  0  0  0
   24.3010  -26.5985  -16.6552 C   0  0  0  0  0  0  0  0  0  0  0  0
   23.2224  -27.1391  -17.3201 O   0  0  0  0  0  0  0  0  0  0  0  0
   24.1342  -26.0574  -15.5380 O   0  0  0  0  0  0  0  0  0  0  0  0
  1  5  1  0
  1  2  1  0
  2  3  1  0
  4  3  1  0
  5  6  1  1
  5  4  1  0
  6  8  1  0
  6  7  2  0
  8  9  1  0
  9 14  1  0
  9 10  1  6
 11 10  1  0
 12 16  1  0
 12 11  1  0
 13 12  2  0
 14 15  2  0
 14 20  1  0
 17 18  1  0
 19 18  1  1
 19 21  1  0
 20 19  1  0
 21 22  1  0
 23 21  2  0
M  END
$$$$
