PES.pdb
     RDKit          3D

 23 23  0  0  1  0  0  0  0  0999 V2000
   17.7940  -15.1121  -16.5607 N   0  0  0  0  0  0  0  0  0  0  0  0
   17.6616  -16.3963  -17.1834 C   0  0  0  0  0  0  0  0  0  0  0  0
   18.9584  -16.6992  -17.8836 C   0  0  0  0  0  0  0  0  0  0  0  0
   19.5594  -15.3449  -18.0922 C   0  0  0  0  0  0  0  0  0  0  0  0
   19.0511  -14.5426  -16.9262 C   0  0  1  0  0  0  0  0  0  0  0  0
   18.8303  -13.1310  -17.3433 C   0  0  0  0  0  0  0  0  0  0  0  0
   19.7947  -12.4045  -17.6919 O   0  0  0  0  0  0  0  0  0  0  0  0
   17.5048  -12.5594  -17.3584 N   0  0  0  0  0  0  0  0  0  0  0  0
   17.3463  -11.1644  -17.6681 C   0  0  1  0  0  0  0  0  0  0  0  0
   16.3034  -10.9486  -18.6968 C   0  0  0  0  0  0  0  0  0  0  0  0
   16.0294   -9.5749  -19.1579 C   0  0  0  0  0  0  0  0  0  0  0  0
   15.0010   -9.4490  -20.1959 C   0  0  0  0  0  0  0  0  0  0  0  0
   13.7791   -9.4682  -19.8649 O   0  0  0  0  0  0  0  0  0  0  0  0
   17.1580  -10.3386  -16.4495 C   0  0  0  0  0  0  0  0  0  0  0  0
   16.5774  -10.8155  -15.4492 O   0  0  0  0  0  0  0  0  0  0  0  0
   15.2907   -9.3075  -21.5412 O   0  0  0  0  0  0  0  0  0  0  0  0
   18.4702   -8.2814  -12.9338 O   0  0  0  0  0  0  0  0  0  0  0  0
   18.4584   -8.9759  -14.1341 C   0  0  0  0  0  0  0  0  0  0  0  0
   17.5572   -8.2787  -15.1322 C   0  0  2  0  0  0  0  0  0  0  0  0
   17.6182   -9.0003  -16.3680 N   0  0  0  0  0  0  0  0  0  0  0  0
   17.9982   -6.8641  -15.3196 C   0  0  0  0  0  0  0  0  0  0  0  0
   17.6272   -5.8831  -14.4264 O   0  0  0  0  0  0  0  0  0  0  0  0
   18.7151   -6.5692  -16.3034 O   0  0  0  0  0  0  0  0  0  0  0  0
  1  5  1  0
  1  2  1  0
  2  3  1  0
  4  3  1  0
  5  6  1  6
  5  4  1  0
  6  8  1  0
  6  7  2  0
  8  9  1  0
  9 14  1  0
  9 10  1  6
 11 10  1  0
 12 16  1  0
 12 11  1  0
 13 12  2  0
 14 15  2  0
 14 20  1  0
 17 18  1  0
 19 18  1  1
 19 21  1  0
 20 19  1  0
 21 22  1  0
 23 21  2  0
M  END
$$$$
