PES.pdb
     RDKit          3D

 23 23  0  0  1  0  0  0  0  0999 V2000
   23.4742  -12.9389  -17.0804 N   0  0  0  0  0  0  0  0  0  0  0  0
   24.8387  -13.3723  -17.1490 C   0  0  0  0  0  0  0  0  0  0  0  0
   25.5153  -12.9513  -15.8728 C   0  0  0  0  0  0  0  0  0  0  0  0
   24.6603  -11.8232  -15.3879 C   0  0  0  0  0  0  0  0  0  0  0  0
   23.2866  -12.1711  -15.8914 C   0  0  1  0  0  0  0  0  0  0  0  0
   22.5473  -10.9273  -16.2403 C   0  0  0  0  0  0  0  0  0  0  0  0
   22.5046  -10.5154  -17.4269 O   0  0  0  0  0  0  0  0  0  0  0  0
   21.8609  -10.1620  -15.2269 N   0  0  0  0  0  0  0  0  0  0  0  0
   21.1672   -8.9609  -15.6053 C   0  0  1  0  0  0  0  0  0  0  0  0
   19.7153   -9.0596  -15.3316 C   0  0  0  0  0  0  0  0  0  0  0  0
   18.8342   -7.9520  -15.7456 C   0  0  0  0  0  0  0  0  0  0  0  0
   17.4009   -8.1649  -15.5193 C   0  0  0  0  0  0  0  0  0  0  0  0
   16.7279   -8.8162  -16.3712 O   0  0  0  0  0  0  0  0  0  0  0  0
   21.7981   -7.7462  -15.0318 C   0  0  0  0  0  0  0  0  0  0  0  0
   22.3106   -7.7816  -13.8910 O   0  0  0  0  0  0  0  0  0  0  0  0
   16.7264   -7.6884  -14.4095 O   0  0  0  0  0  0  0  0  0  0  0  0
   23.2963   -3.2108  -15.7411 O   0  0  0  0  0  0  0  0  0  0  0  0
   22.6846   -4.3440  -16.2557 C   0  0  0  0  0  0  0  0  0  0  0  0
   22.4644   -5.3633  -15.1571 C   0  0  2  0  0  0  0  0  0  0  0  0
   21.8459   -6.5176  -15.7373 N   0  0  0  0  0  0  0  0  0  0  0  0
   21.6043   -4.7817  -14.0835 C   0  0  0  0  0  0  0  0  0  0  0  0
   22.1627   -4.1474  -12.9955 O   0  0  0  0  0  0  0  0  0  0  0  0
   20.3587   -4.8736  -14.1769 O   0  0  0  0  0  0  0  0  0  0  0  0
  1  5  1  0
  1  2  1  0
  2  3  1  0
  4  3  1  0
  5  6  1  6
  5  4  1  0
  6  8  1  0
  6  7  2  0
  8  9  1  0
  9 14  1  0
  9 10  1  1
 11 10  1  0
 12 16  1  0
 12 11  1  0
 13 12  2  0
 14 15  2  0
 14 20  1  0
 17 18  1  0
 19 18  1  6
 19 21  1  0
 20 19  1  0
 21 22  1  0
 23 21  2  0
M  END
$$$$
