PES.pdb
     RDKit          3D

 23 23  0  0  1  0  0  0  0  0999 V2000
   27.3351  -20.3571  -10.8706 N   0  0  0  0  0  0  0  0  0  0  0  0
   28.3889  -21.0755  -10.2164 C   0  0  0  0  0  0  0  0  0  0  0  0
   29.6343  -20.9117  -11.0446 C   0  0  0  0  0  0  0  0  0  0  0  0
   29.1013  -20.5792  -12.4026 C   0  0  0  0  0  0  0  0  0  0  0  0
   27.8163  -19.8524  -12.1163 C   0  0  1  0  0  0  0  0  0  0  0  0
   26.8153  -20.1621  -13.1734 C   0  0  0  0  0  0  0  0  0  0  0  0
   27.0535  -19.9053  -14.3803 O   0  0  0  0  0  0  0  0  0  0  0  0
   25.5462  -20.7644  -12.8412 N   0  0  0  0  0  0  0  0  0  0  0  0
   24.6501  -21.1407  -13.9007 C   0  0  1  0  0  0  0  0  0  0  0  0
   24.7853  -22.5740  -14.2470 C   0  0  0  0  0  0  0  0  0  0  0  0
   23.9796  -23.1194  -15.3552 C   0  0  0  0  0  0  0  0  0  0  0  0
   24.1883  -24.5410  -15.6494 C   0  0  0  0  0  0  0  0  0  0  0  0
   23.4939  -25.0970  -16.5503 O   0  0  0  0  0  0  0  0  0  0  0  0
   23.2520  -20.7260  -13.6247 C   0  0  0  0  0  0  0  0  0  0  0  0
   22.7753  -20.8454  -12.4742 O   0  0  0  0  0  0  0  0  0  0  0  0
   25.1162  -25.3266  -14.9897 O   0  0  0  0  0  0  0  0  0  0  0  0
   20.9046  -19.3633  -16.6684 O   0  0  0  0  0  0  0  0  0  0  0  0
   20.6070  -18.8401  -15.4190 C   0  0  0  0  0  0  0  0  0  0  0  0
   21.0712  -19.7874  -14.3320 C   0  0  2  0  0  0  0  0  0  0  0  0
   22.4131  -20.1880  -14.6327 N   0  0  0  0  0  0  0  0  0  0  0  0
   20.1646  -20.9723  -14.2637 C   0  0  0  0  0  0  0  0  0  0  0  0
   18.9107  -20.8724  -13.7020 O   0  0  0  0  0  0  0  0  0  0  0  0
   20.5529  -22.0704  -14.7245 O   0  0  0  0  0  0  0  0  0  0  0  0
  1  5  1  0
  1  2  1  0
  2  3  1  0
  4  3  1  0
  5  6  1  6
  5  4  1  0
  6  8  1  0
  6  7  2  0
  8  9  1  0
  9 14  1  0
  9 10  1  1
 11 10  1  0
 12 16  1  0
 12 11  1  0
 13 12  2  0
 14 15  2  0
 14 20  1  0
 17 18  1  0
 19 18  1  6
 19 21  1  0
 20 19  1  0
 21 22  1  0
 23 21  2  0
M  END
$$$$
