PES.pdb
     RDKit          3D

 23 23  0  0  1  0  0  0  0  0999 V2000
   26.6301  -20.5751  -15.7481 N   0  0  0  0  0  0  0  0  0  0  0  0
   27.9468  -20.5385  -16.3132 C   0  0  0  0  0  0  0  0  0  0  0  0
   28.7372  -19.5030  -15.5603 C   0  0  0  0  0  0  0  0  0  0  0  0
   27.6785  -18.6184  -14.9812 C   0  0  0  0  0  0  0  0  0  0  0  0
   26.5137  -19.5449  -14.7665 C   0  0  1  0  0  0  0  0  0  0  0  0
   25.2380  -18.8128  -14.9947 C   0  0  0  0  0  0  0  0  0  0  0  0
   24.9272  -17.8244  -14.2835 O   0  0  0  0  0  0  0  0  0  0  0  0
   24.3251  -19.2178  -16.0370 N   0  0  0  0  0  0  0  0  0  0  0  0
   23.0837  -18.5101  -16.1957 C   0  0  1  0  0  0  0  0  0  0  0  0
   22.8996  -18.0355  -17.5862 C   0  0  0  0  0  0  0  0  0  0  0  0
   23.7902  -16.9803  -18.1038 C   0  0  0  0  0  0  0  0  0  0  0  0
   23.5967  -16.6240  -19.5133 C   0  0  0  0  0  0  0  0  0  0  0  0
   24.6074  -16.4881  -20.2637 O   0  0  0  0  0  0  0  0  0  0  0  0
   21.9287  -19.2826  -15.6742 C   0  0  0  0  0  0  0  0  0  0  0  0
   21.8485  -20.5135  -15.8832 O   0  0  0  0  0  0  0  0  0  0  0  0
   22.3526  -16.4237  -20.0839 O   0  0  0  0  0  0  0  0  0  0  0  0
   19.1710  -17.6401  -12.9791 O   0  0  0  0  0  0  0  0  0  0  0  0
   19.5791  -18.9653  -12.9575 C   0  0  0  0  0  0  0  0  0  0  0  0
   19.8311  -19.4574  -14.3677 C   0  0  2  0  0  0  0  0  0  0  0  0
   20.8871  -18.6713  -14.9322 N   0  0  0  0  0  0  0  0  0  0  0  0
   18.5849  -19.3380  -15.1822 C   0  0  0  0  0  0  0  0  0  0  0  0
   17.5305  -20.2043  -14.9933 O   0  0  0  0  0  0  0  0  0  0  0  0
   18.5007  -18.4369  -16.0480 O   0  0  0  0  0  0  0  0  0  0  0  0
  1  5  1  0
  1  2  1  0
  2  3  1  0
  4  3  1  0
  5  6  1  6
  5  4  1  0
  6  8  1  0
  6  7  2  0
  8  9  1  0
  9 14  1  0
  9 10  1  6
 11 10  1  0
 12 16  1  0
 12 11  1  0
 13 12  2  0
 14 15  2  0
 14 20  1  0
 17 18  1  0
 19 18  1  1
 19 21  1  0
 20 19  1  0
 21 22  1  0
 23 21  2  0
M  END
$$$$
