PES.pdb
     RDKit          3D

 23 23  0  0  1  0  0  0  0  0999 V2000
   15.6955  -21.5982    0.9487 N   0  0  0  0  0  0  0  0  0  0  0  0
   15.3800  -22.9959    0.9840 C   0  0  0  0  0  0  0  0  0  0  0  0
   14.4549  -23.2250    2.1482 C   0  0  0  0  0  0  0  0  0  0  0  0
   14.7321  -22.0568    3.0410 C   0  0  0  0  0  0  0  0  0  0  0  0
   15.1185  -20.9596    2.0878 C   0  0  1  0  0  0  0  0  0  0  0  0
   16.1472  -20.0857    2.7149 C   0  0  0  0  0  0  0  0  0  0  0  0
   17.3701  -20.2670    2.4889 O   0  0  0  0  0  0  0  0  0  0  0  0
   15.7686  -19.0084    3.5981 N   0  0  0  0  0  0  0  0  0  0  0  0
   16.7843  -18.1224    4.0986 C   0  0  1  0  0  0  0  0  0  0  0  0
   16.3721  -16.7041    3.9928 C   0  0  0  0  0  0  0  0  0  0  0  0
   17.3258  -15.6522    4.3910 C   0  0  0  0  0  0  0  0  0  0  0  0
   16.9344  -14.2808    4.0494 C   0  0  0  0  0  0  0  0  0  0  0  0
   15.7983  -14.0700    3.5319 O   0  0  0  0  0  0  0  0  0  0  0  0
   17.2431  -18.5076    5.4565 C   0  0  0  0  0  0  0  0  0  0  0  0
   16.4795  -19.1330    6.2253 O   0  0  0  0  0  0  0  0  0  0  0  0
   17.7469  -13.1818    4.2627 O   0  0  0  0  0  0  0  0  0  0  0  0
   20.5536  -20.2664    7.0978 O   0  0  0  0  0  0  0  0  0  0  0  0
   20.4046  -18.8954    7.2439 C   0  0  0  0  0  0  0  0  0  0  0  0
   18.9350  -18.5290    7.2660 C   0  0  2  0  0  0  0  0  0  0  0  0
   18.5401  -18.1893    5.9317 N   0  0  0  0  0  0  0  0  0  0  0  0
   18.7067  -17.3833    8.1966 C   0  0  0  0  0  0  0  0  0  0  0  0
   18.8841  -17.5290    9.5550 O   0  0  0  0  0  0  0  0  0  0  0  0
   18.3491  -16.2764    7.7322 O   0  0  0  0  0  0  0  0  0  0  0  0
  1  5  1  0
  1  2  1  0
  2  3  1  0
  4  3  1  0
  5  6  1  1
  5  4  1  0
  6  8  1  0
  6  7  2  0
  8  9  1  0
  9 14  1  0
  9 10  1  1
 11 10  1  0
 12 16  1  0
 12 11  1  0
 13 12  2  0
 14 15  2  0
 14 20  1  0
 17 18  1  0
 19 18  1  6
 19 21  1  0
 20 19  1  0
 21 22  1  0
 23 21  2  0
M  END
$$$$
