HAG.pdb
     RDKit          3D

 20 20  0  0  1  0  0  0  0  0999 V2000
   10.9375  -13.1563   17.4110 N   0  0  0  0  0  0  0  0  0  0  0  0
   10.1453  -14.1737   18.0381 C   0  0  1  0  0  0  0  0  0  0  0  0
   10.8438  -15.5111   18.0026 C   0  0  0  0  0  0  0  0  0  0  0  0
   10.9979  -15.9027   16.5785 C   0  0  0  0  0  0  0  0  0  0  0  0
   10.0640  -15.5970   15.6099 C   0  0  0  0  0  0  0  0  0  0  0  0
   10.4987  -16.0834   14.4461 N   0  0  0  0  0  0  0  0  0  0  0  0
   11.6727  -16.6755   14.6886 C   0  0  0  0  0  0  0  0  0  0  0  0
   11.9988  -16.5773   15.9885 N   0  0  0  0  0  0  0  0  0  0  0  0
    9.6982  -13.7952   19.3970 C   0  0  0  0  0  0  0  0  0  0  0  0
   10.4636  -13.0834   20.0965 O   0  0  0  0  0  0  0  0  0  0  0  0
    6.5129  -14.1233   21.3185 C   0  0  0  0  0  0  0  0  0  0  0  0
    7.9883  -13.7777   21.2561 C   0  0  2  0  0  0  0  0  0  0  0  0
    8.4663  -14.1825   19.9585 N   0  0  0  0  0  0  0  0  0  0  0  0
    8.6752  -14.4765   22.3616 C   0  0  0  0  0  0  0  0  0  0  0  0
    8.3445  -14.2511   23.5396 O   0  0  0  0  0  0  0  0  0  0  0  0
    9.7056  -15.3947   22.0172 N   0  0  0  0  0  0  0  0  0  0  0  0
   10.2619  -16.2394   23.0520 C   0  0  0  0  0  0  0  0  0  0  0  0
   11.3567  -17.0661   22.5035 C   0  0  0  0  0  0  0  0  0  0  0  0
   11.6960  -17.0162   21.1669 O   0  0  0  0  0  0  0  0  0  0  0  0
   11.9863  -17.8258   23.2718 O   0  0  0  0  0  0  0  0  0  0  0  0
  2  3  1  0
  2  1  1  1
  4  8  1  0
  4  3  1  0
  5  4  2  0
  6  5  1  0
  6  7  1  0
  7  8  2  0
  9  2  1  0
 10  9  2  0
 12 11  1  6
 12 13  1  0
 13  9  1  0
 14 12  1  0
 14 15  2  0
 16 14  1  0
 17 16  1  0
 17 18  1  0
 18 19  1  0
 20 18  2  0
M  END
$$$$
