HAG.pdb
     RDKit          3D

 20 20  0  0  1  0  0  0  0  0999 V2000
    8.7873  -15.9957   21.4664 N   0  0  0  0  0  0  0  0  0  0  0  0
    7.7113  -15.2108   21.9974 C   0  0  1  0  0  0  0  0  0  0  0  0
    6.8515  -14.6433   20.8945 C   0  0  0  0  0  0  0  0  0  0  0  0
    7.7473  -13.9484   19.9354 C   0  0  0  0  0  0  0  0  0  0  0  0
    7.9168  -12.5792   19.9223 C   0  0  0  0  0  0  0  0  0  0  0  0
    8.7811  -12.2771   18.9518 N   0  0  0  0  0  0  0  0  0  0  0  0
    9.1376  -13.4312   18.3785 C   0  0  0  0  0  0  0  0  0  0  0  0
    8.5168  -14.4688   18.9647 N   0  0  0  0  0  0  0  0  0  0  0  0
    6.9267  -15.9338   23.0229 C   0  0  0  0  0  0  0  0  0  0  0  0
    5.7055  -16.1372   22.8012 O   0  0  0  0  0  0  0  0  0  0  0  0
    6.3352  -18.4836   24.5489 C   0  0  0  0  0  0  0  0  0  0  0  0
    6.7343  -17.1793   25.2119 C   0  0  2  0  0  0  0  0  0  0  0  0
    7.4623  -16.4100   24.2351 N   0  0  0  0  0  0  0  0  0  0  0  0
    7.5421  -17.4954   26.4077 C   0  0  0  0  0  0  0  0  0  0  0  0
    7.0350  -18.1301   27.3499 O   0  0  0  0  0  0  0  0  0  0  0  0
    8.8924  -17.0481   26.4239 N   0  0  0  0  0  0  0  0  0  0  0  0
    9.6872  -17.2718   27.6121 C   0  0  0  0  0  0  0  0  0  0  0  0
   10.3655  -18.5820   27.5344 C   0  0  0  0  0  0  0  0  0  0  0  0
   11.2102  -19.0158   28.5357 O   0  0  0  0  0  0  0  0  0  0  0  0
   10.1662  -19.3098   26.5372 O   0  0  0  0  0  0  0  0  0  0  0  0
  2  3  1  0
  2  1  1  6
  4  8  1  0
  4  3  1  0
  5  4  2  0
  6  5  1  0
  6  7  1  0
  7  8  2  0
  9  2  1  0
 10  9  2  0
 12 11  1  6
 12 13  1  0
 13  9  1  0
 14 12  1  0
 14 15  2  0
 16 14  1  0
 17 16  1  0
 17 18  1  0
 18 19  1  0
 20 18  2  0
M  END
$$$$
