HAG.pdb
     RDKit          3D

 20 20  0  0  1  0  0  0  0  0999 V2000
    7.2361  -13.7672   22.4742 N   0  0  0  0  0  0  0  0  0  0  0  0
    7.5134  -15.1372   22.1545 C   0  0  1  0  0  0  0  0  0  0  0  0
    8.7157  -15.2557   21.2500 C   0  0  0  0  0  0  0  0  0  0  0  0
    8.3895  -14.5716   19.9729 C   0  0  0  0  0  0  0  0  0  0  0  0
    7.3839  -13.6338   19.8584 C   0  0  0  0  0  0  0  0  0  0  0  0
    7.3514  -13.2126   18.5929 N   0  0  0  0  0  0  0  0  0  0  0  0
    8.3132  -13.8735   17.9404 C   0  0  0  0  0  0  0  0  0  0  0  0
    8.9625  -14.7118   18.7658 N   0  0  0  0  0  0  0  0  0  0  0  0
    7.6108  -15.9971   23.3549 C   0  0  0  0  0  0  0  0  0  0  0  0
    8.1713  -15.5264   24.3778 O   0  0  0  0  0  0  0  0  0  0  0  0
    6.4838  -19.4537   24.2544 C   0  0  0  0  0  0  0  0  0  0  0  0
    7.2820  -18.1983   24.5492 C   0  0  2  0  0  0  0  0  0  0  0  0
    7.1144  -17.3129   23.4249 N   0  0  0  0  0  0  0  0  0  0  0  0
    8.6910  -18.5854   24.7665 C   0  0  0  0  0  0  0  0  0  0  0  0
    9.4534  -18.7271   23.7937 O   0  0  0  0  0  0  0  0  0  0  0  0
    9.1174  -18.7818   26.1093 N   0  0  0  0  0  0  0  0  0  0  0  0
   10.4985  -19.1348   26.3582 C   0  0  0  0  0  0  0  0  0  0  0  0
   10.7257  -19.3206   27.8062 C   0  0  0  0  0  0  0  0  0  0  0  0
   11.9714  -19.6451   28.3035 O   0  0  0  0  0  0  0  0  0  0  0  0
    9.7648  -19.1795   28.5939 O   0  0  0  0  0  0  0  0  0  0  0  0
  2  3  1  0
  2  1  1  1
  4  8  1  0
  4  3  1  0
  5  4  2  0
  6  5  1  0
  6  7  1  0
  7  8  2  0
  9  2  1  0
 10  9  2  0
 12 11  1  6
 12 13  1  0
 13  9  1  0
 14 12  1  0
 14 15  2  0
 16 14  1  0
 17 16  1  0
 17 18  1  0
 18 19  1  0
 20 18  2  0
M  END
$$$$
