HAG.pdb
     RDKit          3D

 20 20  0  0  1  0  0  0  0  0999 V2000
   13.8438  -14.1643   18.0828 N   0  0  0  0  0  0  0  0  0  0  0  0
   12.5138  -14.6979   18.0328 C   0  0  1  0  0  0  0  0  0  0  0  0
   12.5298  -16.2068   18.0098 C   0  0  0  0  0  0  0  0  0  0  0  0
   13.3176  -16.6323   16.8251 C   0  0  0  0  0  0  0  0  0  0  0  0
   13.9335  -15.7395   15.9722 C   0  0  0  0  0  0  0  0  0  0  0  0
   14.5560  -16.4370   15.0203 N   0  0  0  0  0  0  0  0  0  0  0  0
   14.3308  -17.7295   15.2779 C   0  0  0  0  0  0  0  0  0  0  0  0
   13.5743  -17.8734   16.3791 N   0  0  0  0  0  0  0  0  0  0  0  0
   11.6363  -14.1488   19.0904 C   0  0  0  0  0  0  0  0  0  0  0  0
   12.1335  -13.9462   20.2278 O   0  0  0  0  0  0  0  0  0  0  0  0
    8.0792  -12.9892   19.2554 C   0  0  0  0  0  0  0  0  0  0  0  0
    9.4049  -13.3055   19.9207 C   0  0  2  0  0  0  0  0  0  0  0  0
   10.2757  -13.8379   18.9037 N   0  0  0  0  0  0  0  0  0  0  0  0
    9.1560  -14.2626   21.0181 C   0  0  0  0  0  0  0  0  0  0  0  0
    8.4790  -13.9163   22.0028 O   0  0  0  0  0  0  0  0  0  0  0  0
    9.7158  -15.5642   20.8925 N   0  0  0  0  0  0  0  0  0  0  0  0
    9.4290  -16.5486   21.9137 C   0  0  0  0  0  0  0  0  0  0  0  0
   10.5132  -16.5753   22.9169 C   0  0  0  0  0  0  0  0  0  0  0  0
   11.3317  -17.6767   23.0630 O   0  0  0  0  0  0  0  0  0  0  0  0
   10.6887  -15.5753   23.6471 O   0  0  0  0  0  0  0  0  0  0  0  0
  2  3  1  0
  2  1  1  1
  4  8  1  0
  4  3  1  0
  5  4  2  0
  6  5  1  0
  6  7  1  0
  7  8  2  0
  9  2  1  0
 10  9  2  0
 12 11  1  6
 12 13  1  0
 13  9  1  0
 14 12  1  0
 14 15  2  0
 16 14  1  0
 17 16  1  0
 17 18  1  0
 18 19  1  0
 20 18  2  0
M  END
$$$$
