HAG.pdb
     RDKit          3D

 20 20  0  0  1  0  0  0  0  0999 V2000
    6.2547  -15.9604   20.0171 N   0  0  0  0  0  0  0  0  0  0  0  0
    7.6350  -15.7460   20.3406 C   0  0  1  0  0  0  0  0  0  0  0  0
    8.0683  -14.3437   19.9894 C   0  0  0  0  0  0  0  0  0  0  0  0
    7.9318  -14.1835   18.5194 C   0  0  0  0  0  0  0  0  0  0  0  0
    8.5625  -15.0094   17.6118 C   0  0  0  0  0  0  0  0  0  0  0  0
    8.2344  -14.6038   16.3838 N   0  0  0  0  0  0  0  0  0  0  0  0
    7.4207  -13.5528   16.5281 C   0  0  0  0  0  0  0  0  0  0  0  0
    7.2210  -13.2769   17.8280 N   0  0  0  0  0  0  0  0  0  0  0  0
    7.9602  -16.1150   21.7363 C   0  0  0  0  0  0  0  0  0  0  0  0
    7.2670  -15.6149   22.6589 O   0  0  0  0  0  0  0  0  0  0  0  0
    9.5306  -18.8760   23.4556 C   0  0  0  0  0  0  0  0  0  0  0  0
    9.3245  -17.3735   23.4496 C   0  0  2  0  0  0  0  0  0  0  0  0
    8.9997  -16.9933   22.0983 N   0  0  0  0  0  0  0  0  0  0  0  0
   10.5620  -16.7339   23.9413 C   0  0  0  0  0  0  0  0  0  0  0  0
   10.9321  -16.9174   25.1148 O   0  0  0  0  0  0  0  0  0  0  0  0
   11.2872  -15.9200   23.0274 N   0  0  0  0  0  0  0  0  0  0  0  0
   12.5655  -15.3796   23.4371 C   0  0  0  0  0  0  0  0  0  0  0  0
   13.6654  -16.2156   22.9138 C   0  0  0  0  0  0  0  0  0  0  0  0
   14.5282  -15.7457   21.9447 O   0  0  0  0  0  0  0  0  0  0  0  0
   13.8134  -17.3735   23.3623 O   0  0  0  0  0  0  0  0  0  0  0  0
  2  3  1  0
  2  1  1  1
  4  8  1  0
  4  3  1  0
  5  4  2  0
  6  5  1  0
  6  7  1  0
  7  8  2  0
  9  2  1  0
 10  9  2  0
 12 11  1  6
 12 13  1  0
 13  9  1  0
 14 12  1  0
 14 15  2  0
 16 14  1  0
 17 16  1  0
 17 18  1  0
 18 19  1  0
 20 18  2  0
M  END
$$$$
