HAG.pdb
     RDKit          3D

 20 20  0  0  1  0  0  0  0  0999 V2000
    6.4773  -14.6088   19.3090 N   0  0  0  0  0  0  0  0  0  0  0  0
    7.8897  -14.8362   19.4057 C   0  0  1  0  0  0  0  0  0  0  0  0
    8.6653  -13.8033   18.6250 C   0  0  0  0  0  0  0  0  0  0  0  0
    8.2903  -13.9425   17.1949 C   0  0  0  0  0  0  0  0  0  0  0  0
    7.4545  -14.9373   16.7306 C   0  0  0  0  0  0  0  0  0  0  0  0
    7.3176  -14.7827   15.4125 N   0  0  0  0  0  0  0  0  0  0  0  0
    8.0507  -13.7184   15.0697 C   0  0  0  0  0  0  0  0  0  0  0  0
    8.6558  -13.1873   16.1455 N   0  0  0  0  0  0  0  0  0  0  0  0
    8.3544  -14.9671   20.8045 C   0  0  0  0  0  0  0  0  0  0  0  0
    7.6960  -14.3862   21.7051 O   0  0  0  0  0  0  0  0  0  0  0  0
    8.4768  -17.1985   22.7434 C   0  0  0  0  0  0  0  0  0  0  0  0
    9.6776  -16.3085   22.4867 C   0  0  2  0  0  0  0  0  0  0  0  0
    9.4905  -15.7030   21.1927 N   0  0  0  0  0  0  0  0  0  0  0  0
   10.8955  -17.1417   22.5568 C   0  0  0  0  0  0  0  0  0  0  0  0
   11.2552  -17.6257   23.6450 O   0  0  0  0  0  0  0  0  0  0  0  0
   11.6146  -17.3550   21.3481 N   0  0  0  0  0  0  0  0  0  0  0  0
   12.8806  -16.6797   21.1610 C   0  0  0  0  0  0  0  0  0  0  0  0
   13.9893  -17.5295   21.6419 C   0  0  0  0  0  0  0  0  0  0  0  0
   15.1693  -17.6412   20.9353 O   0  0  0  0  0  0  0  0  0  0  0  0
   13.8501  -18.1592   22.7133 O   0  0  0  0  0  0  0  0  0  0  0  0
  2  3  1  0
  2  1  1  1
  4  8  1  0
  4  3  1  0
  5  4  2  0
  6  5  1  0
  6  7  1  0
  7  8  2  0
  9  2  1  0
 10  9  2  0
 12 11  1  6
 12 13  1  0
 13  9  1  0
 14 12  1  0
 14 15  2  0
 16 14  1  0
 17 16  1  0
 17 18  1  0
 18 19  1  0
 20 18  2  0
M  END
$$$$
