HAG.pdb
     RDKit          3D

 20 20  0  0  1  0  0  0  0  0999 V2000
   13.0928  -21.5412   26.1826 N   0  0  0  0  0  0  0  0  0  0  0  0
   13.4582  -22.1602   27.4233 C   0  0  1  0  0  0  0  0  0  0  0  0
   14.9409  -22.0414   27.6786 C   0  0  0  0  0  0  0  0  0  0  0  0
   15.6487  -22.6116   26.5041 C   0  0  0  0  0  0  0  0  0  0  0  0
   15.3354  -23.8412   25.9623 C   0  0  0  0  0  0  0  0  0  0  0  0
   16.1465  -24.0565   24.9251 N   0  0  0  0  0  0  0  0  0  0  0  0
   16.9421  -22.9864   24.8276 C   0  0  0  0  0  0  0  0  0  0  0  0
   16.6553  -22.0879   25.7848 N   0  0  0  0  0  0  0  0  0  0  0  0
   12.6397  -21.6876   28.5620 C   0  0  0  0  0  0  0  0  0  0  0  0
   12.4500  -20.4502   28.6830 O   0  0  0  0  0  0  0  0  0  0  0  0
   10.3515  -23.2739   31.0101 C   0  0  0  0  0  0  0  0  0  0  0  0
   11.2279  -22.1008   30.6153 C   0  0  2  0  0  0  0  0  0  0  0  0
   12.0580  -22.5381   29.5218 N   0  0  0  0  0  0  0  0  0  0  0  0
   12.0113  -21.6889   31.7981 C   0  0  0  0  0  0  0  0  0  0  0  0
   11.4320  -21.2216   32.7950 O   0  0  0  0  0  0  0  0  0  0  0  0
   13.4234  -21.8505   31.7381 N   0  0  0  0  0  0  0  0  0  0  0  0
   14.2170  -21.4854   32.8916 C   0  0  0  0  0  0  0  0  0  0  0  0
   15.4156  -20.7317   32.4697 C   0  0  0  0  0  0  0  0  0  0  0  0
   16.2997  -20.2104   33.3922 O   0  0  0  0  0  0  0  0  0  0  0  0
   15.6290  -20.5656   31.2488 O   0  0  0  0  0  0  0  0  0  0  0  0
  2  3  1  0
  2  1  1  6
  4  8  1  0
  4  3  1  0
  5  4  2  0
  6  5  1  0
  6  7  1  0
  7  8  2  0
  9  2  1  0
 10  9  2  0
 12 11  1  1
 12 13  1  0
 13  9  1  0
 14 12  1  0
 14 15  2  0
 16 14  1  0
 17 16  1  0
 17 18  1  0
 18 19  1  0
 20 18  2  0
M  END
$$$$
