HAG.pdb
     RDKit          3D

 20 20  0  0  1  0  0  0  0  0999 V2000
    5.0176  -17.9648   23.5435 N   0  0  0  0  0  0  0  0  0  0  0  0
    6.0218  -17.9512   22.5201 C   0  0  1  0  0  0  0  0  0  0  0  0
    5.4020  -17.8831   21.1457 C   0  0  0  0  0  0  0  0  0  0  0  0
    4.1141  -18.6208   21.1939 C   0  0  0  0  0  0  0  0  0  0  0  0
    3.7483  -19.4255   22.2532 C   0  0  0  0  0  0  0  0  0  0  0  0
    2.5440  -19.9359   21.9901 N   0  0  0  0  0  0  0  0  0  0  0  0
    2.1738  -19.4587   20.7973 C   0  0  0  0  0  0  0  0  0  0  0  0
    3.1202  -18.6506   20.2903 N   0  0  0  0  0  0  0  0  0  0  0  0
    7.0488  -16.9085   22.7393 C   0  0  0  0  0  0  0  0  0  0  0  0
    8.0461  -16.8879   21.9733 O   0  0  0  0  0  0  0  0  0  0  0  0
    7.2922  -13.6519   24.3538 C   0  0  0  0  0  0  0  0  0  0  0  0
    7.9991  -14.9526   24.0244 C   0  0  2  0  0  0  0  0  0  0  0  0
    6.9801  -15.9348   23.7543 N   0  0  0  0  0  0  0  0  0  0  0  0
    8.8553  -15.3181   25.1714 C   0  0  0  0  0  0  0  0  0  0  0  0
    9.7779  -14.5616   25.5238 O   0  0  0  0  0  0  0  0  0  0  0  0
    8.5765  -16.5464   25.8326 N   0  0  0  0  0  0  0  0  0  0  0  0
    9.3304  -16.8864   27.0200 C   0  0  0  0  0  0  0  0  0  0  0  0
   10.3936  -17.8576   26.6898 C   0  0  0  0  0  0  0  0  0  0  0  0
   11.0934  -18.5218   27.6765 O   0  0  0  0  0  0  0  0  0  0  0  0
   10.6613  -18.0789   25.4885 O   0  0  0  0  0  0  0  0  0  0  0  0
  2  3  1  0
  2  1  1  1
  4  8  1  0
  4  3  1  0
  5  4  2  0
  6  5  1  0
  6  7  1  0
  7  8  2  0
  9  2  1  0
 10  9  2  0
 12 11  1  1
 12 13  1  0
 13  9  1  0
 14 12  1  0
 14 15  2  0
 16 14  1  0
 17 16  1  0
 17 18  1  0
 18 19  1  0
 20 18  2  0
M  END
$$$$
