HAG.pdb
     RDKit          3D

 20 20  0  0  1  0  0  0  0  0999 V2000
    2.9287  -22.5158   21.8590 N   0  0  0  0  0  0  0  0  0  0  0  0
    1.8299  -21.6077   22.0134 C   0  0  1  0  0  0  0  0  0  0  0  0
    1.1179  -21.3818   20.7020 C   0  0  0  0  0  0  0  0  0  0  0  0
    2.1204  -20.8912   19.7223 C   0  0  0  0  0  0  0  0  0  0  0  0
    2.6657  -19.6250   19.7755 C   0  0  0  0  0  0  0  0  0  0  0  0
    3.5272  -19.5013   18.7642 N   0  0  0  0  0  0  0  0  0  0  0  0
    3.5152  -20.6626   18.1017 C   0  0  0  0  0  0  0  0  0  0  0  0
    2.6605  -21.5295   18.6707 N   0  0  0  0  0  0  0  0  0  0  0  0
    0.9114  -22.0002   23.1053 C   0  0  0  0  0  0  0  0  0  0  0  0
    0.9528  -23.1879   23.5171 O   0  0  0  0  0  0  0  0  0  0  0  0
   -1.3519  -20.1982   25.4480 C   0  0  0  0  0  0  0  0  0  0  0  0
   -0.9047  -21.4863   24.7839 C   0  0  2  0  0  0  0  0  0  0  0  0
   -0.0088  -21.1257   23.7146 N   0  0  0  0  0  0  0  0  0  0  0  0
   -2.1052  -22.2025   24.3063 C   0  0  0  0  0  0  0  0  0  0  0  0
   -2.9805  -22.5567   25.1164 O   0  0  0  0  0  0  0  0  0  0  0  0
   -2.2042  -22.4584   22.9105 N   0  0  0  0  0  0  0  0  0  0  0  0
   -3.3893  -23.1164   22.4042 C   0  0  0  0  0  0  0  0  0  0  0  0
   -3.2453  -24.5828   22.5119 C   0  0  0  0  0  0  0  0  0  0  0  0
   -4.2404  -25.4372   22.0827 O   0  0  0  0  0  0  0  0  0  0  0  0
   -2.1969  -25.0548   23.0036 O   0  0  0  0  0  0  0  0  0  0  0  0
  2  3  1  0
  2  1  1  6
  4  8  1  0
  4  3  1  0
  5  4  2  0
  6  5  1  0
  6  7  1  0
  7  8  2  0
  9  2  1  0
 10  9  2  0
 12 11  1  6
 12 13  1  0
 13  9  1  0
 14 12  1  0
 14 15  2  0
 16 14  1  0
 17 16  1  0
 17 18  1  0
 18 19  1  0
 20 18  2  0
M  END
$$$$
