HAG.pdb
     RDKit          3D

 20 20  0  0  1  0  0  0  0  0999 V2000
   10.0977  -15.7363   21.0268 N   0  0  0  0  0  0  0  0  0  0  0  0
    8.9563  -15.1105   21.6281 C   0  0  1  0  0  0  0  0  0  0  0  0
    7.6889  -15.4516   20.8831 C   0  0  0  0  0  0  0  0  0  0  0  0
    7.6203  -14.5775   19.6845 C   0  0  0  0  0  0  0  0  0  0  0  0
    8.5917  -13.6475   19.3762 C   0  0  0  0  0  0  0  0  0  0  0  0
    8.2360  -13.0350   18.2455 N   0  0  0  0  0  0  0  0  0  0  0  0
    7.0729  -13.5728   17.8637 C   0  0  0  0  0  0  0  0  0  0  0  0
    6.6763  -14.5202   18.7302 N   0  0  0  0  0  0  0  0  0  0  0  0
    8.8573  -15.3747   23.0808 C   0  0  0  0  0  0  0  0  0  0  0  0
    9.4615  -16.3757   23.5442 O   0  0  0  0  0  0  0  0  0  0  0  0
    7.0495  -13.7772   25.9480 C   0  0  0  0  0  0  0  0  0  0  0  0
    7.9218  -14.8770   25.3737 C   0  0  2  0  0  0  0  0  0  0  0  0
    8.1273  -14.5739   23.9802 N   0  0  0  0  0  0  0  0  0  0  0  0
    7.2364  -16.1688   25.5824 C   0  0  0  0  0  0  0  0  0  0  0  0
    6.0870  -16.3410   25.1386 O   0  0  0  0  0  0  0  0  0  0  0  0
    7.9406  -17.1767   26.2978 N   0  0  0  0  0  0  0  0  0  0  0  0
    7.2642  -18.4197   26.5999 C   0  0  0  0  0  0  0  0  0  0  0  0
    7.9866  -19.1500   27.6617 C   0  0  0  0  0  0  0  0  0  0  0  0
    7.4899  -20.3218   28.1951 O   0  0  0  0  0  0  0  0  0  0  0  0
    9.0714  -18.6918   28.0826 O   0  0  0  0  0  0  0  0  0  0  0  0
  2  3  1  0
  2  1  1  6
  4  8  1  0
  4  3  1  0
  5  4  2  0
  6  5  1  0
  6  7  1  0
  7  8  2  0
  9  2  1  0
 10  9  2  0
 12 11  1  6
 12 13  1  0
 13  9  1  0
 14 12  1  0
 14 15  2  0
 16 14  1  0
 17 16  1  0
 17 18  1  0
 18 19  1  0
 20 18  2  0
M  END
$$$$
