HAG.pdb
     RDKit          3D

 20 20  0  0  1  0  0  0  0  0999 V2000
    5.4315  -18.9773   20.5842 N   0  0  0  0  0  0  0  0  0  0  0  0
    5.3983  -17.9781   21.6120 C   0  0  1  0  0  0  0  0  0  0  0  0
    4.9357  -18.5592   22.9258 C   0  0  0  0  0  0  0  0  0  0  0  0
    3.5756  -19.1183   22.7187 C   0  0  0  0  0  0  0  0  0  0  0  0
    2.7468  -18.7170   21.6912 C   0  0  0  0  0  0  0  0  0  0  0  0
    1.6086  -19.4072   21.7825 N   0  0  0  0  0  0  0  0  0  0  0  0
    1.7303  -20.2156   22.8405 C   0  0  0  0  0  0  0  0  0  0  0  0
    2.9273  -20.0559   23.4298 N   0  0  0  0  0  0  0  0  0  0  0  0
    6.6725  -17.2349   21.7296 C   0  0  0  0  0  0  0  0  0  0  0  0
    7.7472  -17.8798   21.6253 O   0  0  0  0  0  0  0  0  0  0  0  0
    7.6195  -13.6380   22.1700 C   0  0  0  0  0  0  0  0  0  0  0  0
    7.9884  -15.1054   22.0669 C   0  0  2  0  0  0  0  0  0  0  0  0
    6.7585  -15.8470   21.9517 N   0  0  0  0  0  0  0  0  0  0  0  0
    8.7670  -15.4730   23.2674 C   0  0  0  0  0  0  0  0  0  0  0  0
    8.2118  -15.5114   24.3801 O   0  0  0  0  0  0  0  0  0  0  0  0
   10.1461  -15.7723   23.0883 N   0  0  0  0  0  0  0  0  0  0  0  0
   10.9458  -16.0978   24.2494 C   0  0  0  0  0  0  0  0  0  0  0  0
   12.3256  -16.4337   23.8420 C   0  0  0  0  0  0  0  0  0  0  0  0
   13.3257  -16.6222   24.7740 O   0  0  0  0  0  0  0  0  0  0  0  0
   12.5876  -16.5485   22.6246 O   0  0  0  0  0  0  0  0  0  0  0  0
  2  3  1  0
  2  1  1  6
  4  8  1  0
  4  3  1  0
  5  4  2  0
  6  5  1  0
  6  7  1  0
  7  8  2  0
  9  2  1  0
 10  9  2  0
 12 11  1  1
 12 13  1  0
 13  9  1  0
 14 12  1  0
 14 15  2  0
 16 14  1  0
 17 16  1  0
 17 18  1  0
 18 19  1  0
 20 18  2  0
M  END
$$$$
