HCG.pdb
     RDKit          3D

 21 21  0  0  1  0  0  0  0  0999 V2000
    5.8585  -18.9470   19.8229 N   0  0  0  0  0  0  0  0  0  0  0  0
    5.6650  -17.8287   20.7157 C   0  0  1  0  0  0  0  0  0  0  0  0
    5.2943  -18.3988   22.0838 C   0  0  0  0  0  0  0  0  0  0  0  0
    3.8900  -18.8625   21.9870 C   0  0  0  0  0  0  0  0  0  0  0  0
    2.9631  -18.4723   21.0623 C   0  0  0  0  0  0  0  0  0  0  0  0
    1.8212  -19.1328   21.3340 N   0  0  0  0  0  0  0  0  0  0  0  0
    2.0355  -19.9119   22.3994 C   0  0  0  0  0  0  0  0  0  0  0  0
    3.3100  -19.7497   22.8071 N   0  0  0  0  0  0  0  0  0  0  0  0
    6.9347  -17.0767   20.8322 C   0  0  0  0  0  0  0  0  0  0  0  0
    8.0246  -17.7167   20.7717 O   0  0  0  0  0  0  0  0  0  0  0  0
    6.9645  -15.6623   21.0093 N   0  0  0  0  0  0  0  0  0  0  0  0
    8.2453  -15.0232   21.1357 C   0  0  1  0  0  0  0  0  0  0  0  0
    8.0378  -13.5095   20.9884 C   0  0  0  0  0  0  0  0  0  0  0  0
    7.4727  -13.1228   19.3000 S   0  0  0  0  0  0  0  0  0  0  0  0
    8.8658  -15.2966   22.4701 C   0  0  0  0  0  0  0  0  0  0  0  0
    8.0866  -15.2907   23.4549 O   0  0  0  0  0  0  0  0  0  0  0  0
   10.2431  -15.5511   22.6542 N   0  0  0  0  0  0  0  0  0  0  0  0
   10.7364  -15.8571   23.9737 C   0  0  0  0  0  0  0  0  0  0  0  0
   12.2047  -16.0348   23.9424 C   0  0  0  0  0  0  0  0  0  0  0  0
   12.8000  -15.9683   22.8481 O   0  0  0  0  0  0  0  0  0  0  0  0
   12.9195  -16.2719   25.1028 O   0  0  0  0  0  0  0  0  0  0  0  0
  2  3  1  0
  2  1  1  6
  3  4  1  0
  4  5  2  0
  5  6  1  0
  7  6  1  0
  8  4  1  0
  8  7  2  0
  9  2  1  0
 10  9  2  0
 11  9  1  0
 12 13  1  1
 12 11  1  0
 13 14  1  0
 15 17  1  0
 15 12  1  0
 16 15  2  0
 18 17  1  0
 19 18  1  0
 20 19  2  0
 21 19  1  0
M  END
$$$$
