HCG.pdb
     RDKit          3D

 21 21  0  0  1  0  0  0  0  0999 V2000
    9.2831  -15.6719   20.7513 N   0  0  0  0  0  0  0  0  0  0  0  0
    8.1040  -15.6409   21.5844 C   0  0  1  0  0  0  0  0  0  0  0  0
    7.5724  -17.0706   21.6720 C   0  0  0  0  0  0  0  0  0  0  0  0
    7.2185  -17.4800   20.2923 C   0  0  0  0  0  0  0  0  0  0  0  0
    7.4542  -16.7755   19.1457 C   0  0  0  0  0  0  0  0  0  0  0  0
    6.9755  -17.5052   18.1198 N   0  0  0  0  0  0  0  0  0  0  0  0
    6.4568  -18.6323   18.6183 C   0  0  0  0  0  0  0  0  0  0  0  0
    6.6036  -18.6229   19.9581 N   0  0  0  0  0  0  0  0  0  0  0  0
    8.4807  -15.1803   22.9398 C   0  0  0  0  0  0  0  0  0  0  0  0
    9.6912  -15.2739   23.2959 O   0  0  0  0  0  0  0  0  0  0  0  0
    7.5254  -14.6383   23.8489 N   0  0  0  0  0  0  0  0  0  0  0  0
    7.9489  -14.3716   25.1959 C   0  0  1  0  0  0  0  0  0  0  0  0
    7.1089  -13.2062   25.7363 C   0  0  0  0  0  0  0  0  0  0  0  0
    5.3496  -13.6780   25.7799 S   0  0  0  0  0  0  0  0  0  0  0  0
    7.7467  -15.5619   26.0807 C   0  0  0  0  0  0  0  0  0  0  0  0
    6.8549  -16.3713   25.7248 O   0  0  0  0  0  0  0  0  0  0  0  0
    8.4940  -15.7981   27.2559 N   0  0  0  0  0  0  0  0  0  0  0  0
    8.2478  -16.9933   28.0233 C   0  0  0  0  0  0  0  0  0  0  0  0
    9.3417  -17.9677   27.8175 C   0  0  0  0  0  0  0  0  0  0  0  0
    9.9110  -18.0145   26.7083 O   0  0  0  0  0  0  0  0  0  0  0  0
    9.7376  -18.8208   28.8320 O   0  0  0  0  0  0  0  0  0  0  0  0
  2  3  1  0
  2  1  1  6
  3  4  1  0
  4  5  2  0
  5  6  1  0
  7  6  1  0
  8  4  1  0
  8  7  2  0
  9  2  1  0
 10  9  2  0
 11  9  1  0
 12 13  1  1
 12 11  1  0
 13 14  1  0
 15 17  1  0
 15 12  1  0
 16 15  2  0
 18 17  1  0
 19 18  1  0
 20 19  2  0
 21 19  1  0
M  END
$$$$
