HCG.pdb
     RDKit          3D

 21 21  0  0  1  0  0  0  0  0999 V2000
    9.5065  -15.2928   21.1503 N   0  0  0  0  0  0  0  0  0  0  0  0
    8.2880  -15.4102   21.9163 C   0  0  1  0  0  0  0  0  0  0  0  0
    8.0403  -16.8996   22.1496 C   0  0  0  0  0  0  0  0  0  0  0  0
    7.4499  -17.4353   20.9003 C   0  0  0  0  0  0  0  0  0  0  0  0
    7.2459  -16.7519   19.7351 C   0  0  0  0  0  0  0  0  0  0  0  0
    6.6903  -17.6096   18.8577 N   0  0  0  0  0  0  0  0  0  0  0  0
    6.5537  -18.7935   19.4640 C   0  0  0  0  0  0  0  0  0  0  0  0
    7.0205  -18.6926   20.7245 N   0  0  0  0  0  0  0  0  0  0  0  0
    8.4708  -14.7391   23.2230 C   0  0  0  0  0  0  0  0  0  0  0  0
    9.6424  -14.6291   23.6880 O   0  0  0  0  0  0  0  0  0  0  0  0
    7.3724  -14.2169   23.9670 N   0  0  0  0  0  0  0  0  0  0  0  0
    7.6534  -13.5407   25.2035 C   0  0  1  0  0  0  0  0  0  0  0  0
    6.4196  -12.7097   25.5818 C   0  0  0  0  0  0  0  0  0  0  0  0
    6.6892  -11.8964   27.1897 S   0  0  0  0  0  0  0  0  0  0  0  0
    7.9374  -14.5109   26.3073 C   0  0  0  0  0  0  0  0  0  0  0  0
    8.2049  -14.0117   27.4282 O   0  0  0  0  0  0  0  0  0  0  0  0
    7.9162  -15.9134   26.1399 N   0  0  0  0  0  0  0  0  0  0  0  0
    8.0994  -16.7663   27.2875 C   0  0  0  0  0  0  0  0  0  0  0  0
    9.5305  -17.1031   27.4514 C   0  0  0  0  0  0  0  0  0  0  0  0
   10.3581  -16.6442   26.6383 O   0  0  0  0  0  0  0  0  0  0  0  0
    9.9586  -17.9142   28.4870 O   0  0  0  0  0  0  0  0  0  0  0  0
  2  3  1  0
  2  1  1  6
  3  4  1  0
  4  5  2  0
  5  6  1  0
  7  6  1  0
  8  4  1  0
  8  7  2  0
  9  2  1  0
 10  9  2  0
 11  9  1  0
 12 13  1  1
 12 11  1  0
 13 14  1  0
 15 17  1  0
 15 12  1  0
 16 15  2  0
 18 17  1  0
 19 18  1  0
 20 19  2  0
 21 19  1  0
M  END
$$$$
