HCG.pdb
     RDKit          3D

 21 21  0  0  1  0  0  0  0  0999 V2000
   10.6347  -14.4792   19.6066 N   0  0  0  0  0  0  0  0  0  0  0  0
    9.2699  -14.3445   20.0587 C   0  0  1  0  0  0  0  0  0  0  0  0
    8.4512  -15.4291   19.3605 C   0  0  0  0  0  0  0  0  0  0  0  0
    8.2078  -14.9565   17.9771 C   0  0  0  0  0  0  0  0  0  0  0  0
    8.6686  -13.7989   17.4167 C   0  0  0  0  0  0  0  0  0  0  0  0
    8.2177  -13.7588   16.1482 N   0  0  0  0  0  0  0  0  0  0  0  0
    7.4963  -14.8630   15.9288 C   0  0  0  0  0  0  0  0  0  0  0  0
    7.4863  -15.6062   17.0532 N   0  0  0  0  0  0  0  0  0  0  0  0
    9.2201  -14.5663   21.5214 C   0  0  0  0  0  0  0  0  0  0  0  0
   10.1663  -15.2032   22.0693 O   0  0  0  0  0  0  0  0  0  0  0  0
    8.1444  -14.0862   22.3246 N   0  0  0  0  0  0  0  0  0  0  0  0
    8.1768  -14.3632   23.7343 C   0  0  1  0  0  0  0  0  0  0  0  0
    7.1761  -13.4271   24.4258 C   0  0  0  0  0  0  0  0  0  0  0  0
    7.7381  -11.7003   24.2775 S   0  0  0  0  0  0  0  0  0  0  0  0
    7.7906  -15.7799   24.0243 C   0  0  0  0  0  0  0  0  0  0  0  0
    6.7827  -16.2151   23.4146 O   0  0  0  0  0  0  0  0  0  0  0  0
    8.4921  -16.6126   24.9244 N   0  0  0  0  0  0  0  0  0  0  0  0
    8.0836  -17.9859   25.0834 C   0  0  0  0  0  0  0  0  0  0  0  0
    8.8720  -18.6333   26.1548 C   0  0  0  0  0  0  0  0  0  0  0  0
    9.7736  -17.9830   26.7211 O   0  0  0  0  0  0  0  0  0  0  0  0
    8.6233  -19.9405   26.5330 O   0  0  0  0  0  0  0  0  0  0  0  0
  2  3  1  0
  2  1  1  6
  3  4  1  0
  4  5  2  0
  5  6  1  0
  7  6  1  0
  8  4  1  0
  8  7  2  0
  9  2  1  0
 10  9  2  0
 11  9  1  0
 12 13  1  1
 12 11  1  0
 13 14  1  0
 15 17  1  0
 15 12  1  0
 16 15  2  0
 18 17  1  0
 19 18  1  0
 20 19  2  0
 21 19  1  0
M  END
$$$$
