HCG.pdb
     RDKit          3D

 21 21  0  0  1  0  0  0  0  0999 V2000
    9.8271  -14.8001   21.5218 N   0  0  0  0  0  0  0  0  0  0  0  0
    8.6543  -14.1651   22.0755 C   0  0  1  0  0  0  0  0  0  0  0  0
    7.4465  -14.6853   21.2977 C   0  0  0  0  0  0  0  0  0  0  0  0
    7.6622  -14.3183   19.8782 C   0  0  0  0  0  0  0  0  0  0  0  0
    7.9799  -13.0810   19.3938 C   0  0  0  0  0  0  0  0  0  0  0  0
    8.0839  -13.1877   18.0552 N   0  0  0  0  0  0  0  0  0  0  0  0
    7.8370  -14.4581   17.7194 C   0  0  0  0  0  0  0  0  0  0  0  0
    7.5761  -15.1609   18.8396 N   0  0  0  0  0  0  0  0  0  0  0  0
    8.5189  -14.5537   23.4973 C   0  0  0  0  0  0  0  0  0  0  0  0
    9.2537  -15.4822   23.9434 O   0  0  0  0  0  0  0  0  0  0  0  0
    7.5908  -13.9164   24.3721 N   0  0  0  0  0  0  0  0  0  0  0  0
    7.5216  -14.3721   25.7333 C   0  0  1  0  0  0  0  0  0  0  0  0
    6.6148  -13.4088   26.5115 C   0  0  0  0  0  0  0  0  0  0  0  0
    7.4447  -11.7988   26.7084 S   0  0  0  0  0  0  0  0  0  0  0  0
    6.9475  -15.7515   25.8218 C   0  0  0  0  0  0  0  0  0  0  0  0
    6.0463  -16.0306   24.9929 O   0  0  0  0  0  0  0  0  0  0  0  0
    7.3667  -16.7134   26.7676 N   0  0  0  0  0  0  0  0  0  0  0  0
    6.8808  -18.0666   26.6644 C   0  0  0  0  0  0  0  0  0  0  0  0
    7.9816  -19.0252   26.9045 C   0  0  0  0  0  0  0  0  0  0  0  0
    7.7693  -20.0251   27.6198 O   0  0  0  0  0  0  0  0  0  0  0  0
    9.2334  -18.8277   26.3499 O   0  0  0  0  0  0  0  0  0  0  0  0
  2  3  1  0
  2  1  1  6
  3  4  1  0
  4  5  2  0
  5  6  1  0
  7  6  1  0
  8  4  1  0
  8  7  2  0
  9  2  1  0
 10  9  2  0
 11  9  1  0
 12 13  1  1
 12 11  1  0
 13 14  1  0
 15 17  1  0
 15 12  1  0
 16 15  2  0
 18 17  1  0
 19 18  1  0
 20 19  2  0
 21 19  1  0
M  END
$$$$
