HCG.pdb
     RDKit          3D

 21 21  0  0  1  0  0  0  0  0999 V2000
    9.3237  -12.4662   20.3162 N   0  0  0  0  0  0  0  0  0  0  0  0
    8.4179  -13.3471   21.0154 C   0  0  1  0  0  0  0  0  0  0  0  0
    8.5364  -14.7262   20.3688 C   0  0  0  0  0  0  0  0  0  0  0  0
    8.3116  -14.5378   18.9162 C   0  0  0  0  0  0  0  0  0  0  0  0
    8.2503  -13.3483   18.2470 C   0  0  0  0  0  0  0  0  0  0  0  0
    8.0321  -13.6285   16.9478 N   0  0  0  0  0  0  0  0  0  0  0  0
    7.9602  -14.9572   16.8159 C   0  0  0  0  0  0  0  0  0  0  0  0
    8.1318  -15.5240   18.0267 N   0  0  0  0  0  0  0  0  0  0  0  0
    8.8310  -13.4399   22.4338 C   0  0  0  0  0  0  0  0  0  0  0  0
    9.5520  -12.5183   22.9155 O   0  0  0  0  0  0  0  0  0  0  0  0
    8.4427  -14.5301   23.2665 N   0  0  0  0  0  0  0  0  0  0  0  0
    7.9188  -14.2318   24.5710 C   0  0  1  0  0  0  0  0  0  0  0  0
    6.6964  -13.3204   24.3953 C   0  0  0  0  0  0  0  0  0  0  0  0
    6.0113  -12.8810   26.0254 S   0  0  0  0  0  0  0  0  0  0  0  0
    7.4940  -15.4744   25.2891 C   0  0  0  0  0  0  0  0  0  0  0  0
    6.8839  -15.3059   26.3739 O   0  0  0  0  0  0  0  0  0  0  0  0
    7.7449  -16.7790   24.8091 N   0  0  0  0  0  0  0  0  0  0  0  0
    9.1025  -17.1898   24.5518 C   0  0  0  0  0  0  0  0  0  0  0  0
    9.7585  -17.6057   25.8108 C   0  0  0  0  0  0  0  0  0  0  0  0
    9.5774  -16.9265   26.8416 O   0  0  0  0  0  0  0  0  0  0  0  0
   10.5639  -18.7295   25.8583 O   0  0  0  0  0  0  0  0  0  0  0  0
  2  3  1  0
  2  1  1  6
  3  4  1  0
  4  5  2  0
  5  6  1  0
  7  6  1  0
  8  4  1  0
  8  7  2  0
  9  2  1  0
 10  9  2  0
 11  9  1  0
 12 13  1  6
 12 11  1  0
 13 14  1  0
 15 17  1  0
 15 12  1  0
 16 15  2  0
 18 17  1  0
 19 18  1  0
 20 19  2  0
 21 19  1  0
M  END
$$$$
