HCG.pdb
     RDKit          3D

 21 21  0  0  1  0  0  0  0  0999 V2000
   11.1590  -13.7636   17.0396 N   0  0  0  0  0  0  0  0  0  0  0  0
    9.8969  -14.0341   17.6869 C   0  0  1  0  0  0  0  0  0  0  0  0
    9.4426  -15.4209   17.2343 C   0  0  0  0  0  0  0  0  0  0  0  0
    8.7814  -15.2458   15.9196 C   0  0  0  0  0  0  0  0  0  0  0  0
    8.6679  -14.0832   15.2110 C   0  0  0  0  0  0  0  0  0  0  0  0
    7.9987  -14.3670   14.0772 N   0  0  0  0  0  0  0  0  0  0  0  0
    7.7053  -15.6715   14.0834 C   0  0  0  0  0  0  0  0  0  0  0  0
    8.1855  -16.2195   15.2175 N   0  0  0  0  0  0  0  0  0  0  0  0
   10.0973  -14.0448   19.1535 C   0  0  0  0  0  0  0  0  0  0  0  0
   11.2677  -14.2151   19.6030 O   0  0  0  0  0  0  0  0  0  0  0  0
    9.0170  -13.8699   20.0673 N   0  0  0  0  0  0  0  0  0  0  0  0
    9.3175  -13.8404   21.4723 C   0  0  1  0  0  0  0  0  0  0  0  0
    8.1582  -13.1371   22.1916 C   0  0  0  0  0  0  0  0  0  0  0  0
    6.6548  -14.1618   22.0934 S   0  0  0  0  0  0  0  0  0  0  0  0
    9.4644  -15.2211   22.0313 C   0  0  0  0  0  0  0  0  0  0  0  0
    8.9796  -16.1522   21.3419 O   0  0  0  0  0  0  0  0  0  0  0  0
   10.1039  -15.5034   23.2588 N   0  0  0  0  0  0  0  0  0  0  0  0
   10.1014  -16.8533   23.7645 C   0  0  0  0  0  0  0  0  0  0  0  0
   11.3813  -17.5221   23.4438 C   0  0  0  0  0  0  0  0  0  0  0  0
   12.0534  -17.1122   22.4759 O   0  0  0  0  0  0  0  0  0  0  0  0
   11.8381  -18.5879   24.1982 O   0  0  0  0  0  0  0  0  0  0  0  0
  2  3  1  0
  2  1  1  6
  3  4  1  0
  4  5  2  0
  5  6  1  0
  7  6  1  0
  8  4  1  0
  8  7  2  0
  9  2  1  0
 10  9  2  0
 11  9  1  0
 12 13  1  1
 12 11  1  0
 13 14  1  0
 15 17  1  0
 15 12  1  0
 16 15  2  0
 18 17  1  0
 19 18  1  0
 20 19  2  0
 21 19  1  0
M  END
$$$$
