HCG.pdb
     RDKit          3D

 21 21  0  0  1  0  0  0  0  0999 V2000
    6.4483  -13.7715   20.8795 N   0  0  0  0  0  0  0  0  0  0  0  0
    7.6707  -14.5378   20.9414 C   0  0  1  0  0  0  0  0  0  0  0  0
    8.7267  -13.7730   20.1452 C   0  0  0  0  0  0  0  0  0  0  0  0
    8.5134  -14.1111   18.7181 C   0  0  0  0  0  0  0  0  0  0  0  0
    7.5085  -14.8795   18.2023 C   0  0  0  0  0  0  0  0  0  0  0  0
    7.6868  -14.9324   16.8684 N   0  0  0  0  0  0  0  0  0  0  0  0
    8.7740  -14.2153   16.5659 C   0  0  0  0  0  0  0  0  0  0  0  0
    9.2887  -13.7059   17.7028 N   0  0  0  0  0  0  0  0  0  0  0  0
    8.1074  -14.6397   22.3521 C   0  0  0  0  0  0  0  0  0  0  0  0
    8.0534  -13.6050   23.0785 O   0  0  0  0  0  0  0  0  0  0  0  0
    8.5837  -15.8615   22.9117 N   0  0  0  0  0  0  0  0  0  0  0  0
    8.9445  -15.8732   24.3026 C   0  0  1  0  0  0  0  0  0  0  0  0
    7.6644  -15.6815   25.1274 C   0  0  0  0  0  0  0  0  0  0  0  0
    6.4203  -16.9193   24.6379 S   0  0  0  0  0  0  0  0  0  0  0  0
    9.5798  -17.1708   24.6939 C   0  0  0  0  0  0  0  0  0  0  0  0
    9.2502  -18.1754   24.0162 O   0  0  0  0  0  0  0  0  0  0  0  0
   10.5009  -17.3008   25.7570 N   0  0  0  0  0  0  0  0  0  0  0  0
   11.0713  -18.5929   26.0456 C   0  0  0  0  0  0  0  0  0  0  0  0
   11.0333  -18.8554   27.5009 C   0  0  0  0  0  0  0  0  0  0  0  0
    9.9982  -18.5785   28.1398 O   0  0  0  0  0  0  0  0  0  0  0  0
   12.1231  -19.3998   28.1564 O   0  0  0  0  0  0  0  0  0  0  0  0
  2  3  1  0
  2  1  1  1
  3  4  1  0
  4  5  2  0
  5  6  1  0
  7  6  1  0
  8  4  1  0
  8  7  2  0
  9  2  1  0
 10  9  2  0
 11  9  1  0
 12 13  1  1
 12 11  1  0
 13 14  1  0
 15 17  1  0
 15 12  1  0
 16 15  2  0
 18 17  1  0
 19 18  1  0
 20 19  2  0
 21 19  1  0
M  END
$$$$
