HCG.pdb
     RDKit          3D

 21 21  0  0  1  0  0  0  0  0999 V2000
    9.1214  -14.8688   21.0556 N   0  0  0  0  0  0  0  0  0  0  0  0
    7.9570  -15.1588   21.8589 C   0  0  1  0  0  0  0  0  0  0  0  0
    7.7179  -16.6659   21.7843 C   0  0  0  0  0  0  0  0  0  0  0  0
    7.2811  -16.9610   20.3992 C   0  0  0  0  0  0  0  0  0  0  0  0
    7.9655  -16.6817   19.2502 C   0  0  0  0  0  0  0  0  0  0  0  0
    7.2145  -17.1147   18.2194 N   0  0  0  0  0  0  0  0  0  0  0  0
    6.0941  -17.6483   18.7171 C   0  0  0  0  0  0  0  0  0  0  0  0
    6.1290  -17.5566   20.0615 N   0  0  0  0  0  0  0  0  0  0  0  0
    8.2314  -14.7809   23.2636 C   0  0  0  0  0  0  0  0  0  0  0  0
    9.4243  -14.8333   23.6823 O   0  0  0  0  0  0  0  0  0  0  0  0
    7.1975  -14.3626   24.1517 N   0  0  0  0  0  0  0  0  0  0  0  0
    7.5307  -14.1741   25.5368 C   0  0  1  0  0  0  0  0  0  0  0  0
    6.4257  -13.3249   26.1801 C   0  0  0  0  0  0  0  0  0  0  0  0
    6.3520  -11.6914   25.3764 S   0  0  0  0  0  0  0  0  0  0  0  0
    7.6187  -15.4800   26.2629 C   0  0  0  0  0  0  0  0  0  0  0  0
    6.7532  -16.3394   25.9638 O   0  0  0  0  0  0  0  0  0  0  0  0
    8.6023  -15.7691   27.2347 N   0  0  0  0  0  0  0  0  0  0  0  0
    8.5799  -17.0440   27.9072 C   0  0  0  0  0  0  0  0  0  0  0  0
    9.6329  -17.9285   27.3620 C   0  0  0  0  0  0  0  0  0  0  0  0
   10.2971  -17.5449   26.3780 O   0  0  0  0  0  0  0  0  0  0  0  0
    9.8876  -19.1660   27.9255 O   0  0  0  0  0  0  0  0  0  0  0  0
  2  3  1  0
  2  1  1  6
  3  4  1  0
  4  5  2  0
  5  6  1  0
  7  6  1  0
  8  4  1  0
  8  7  2  0
  9  2  1  0
 10  9  2  0
 11  9  1  0
 12 13  1  1
 12 11  1  0
 13 14  1  0
 15 17  1  0
 15 12  1  0
 16 15  2  0
 18 17  1  0
 19 18  1  0
 20 19  2  0
 21 19  1  0
M  END
$$$$
