HCG.pdb
     RDKit          3D

 21 21  0  0  1  0  0  0  0  0999 V2000
    9.8193  -15.8268   20.3634 N   0  0  0  0  0  0  0  0  0  0  0  0
    8.5158  -15.7013   20.9719 C   0  0  1  0  0  0  0  0  0  0  0  0
    7.8496  -17.0746   20.9053 C   0  0  0  0  0  0  0  0  0  0  0  0
    7.3787  -17.2538   19.5116 C   0  0  0  0  0  0  0  0  0  0  0  0
    7.5575  -16.3863   18.4714 C   0  0  0  0  0  0  0  0  0  0  0  0
    6.9753  -16.9332   17.3870 N   0  0  0  0  0  0  0  0  0  0  0  0
    6.4495  -18.1090   17.7464 C   0  0  0  0  0  0  0  0  0  0  0  0
    6.6950  -18.3126   19.0560 N   0  0  0  0  0  0  0  0  0  0  0  0
    8.6790  -15.3104   22.3903 C   0  0  0  0  0  0  0  0  0  0  0  0
    9.7178  -15.6882   23.0063 O   0  0  0  0  0  0  0  0  0  0  0  0
    7.7064  -14.5262   23.0771 N   0  0  0  0  0  0  0  0  0  0  0  0
    7.9333  -14.2304   24.4649 C   0  0  1  0  0  0  0  0  0  0  0  0
    6.9339  -13.1455   24.8892 C   0  0  0  0  0  0  0  0  0  0  0  0
    7.1011  -12.8118   26.6725 S   0  0  0  0  0  0  0  0  0  0  0  0
    7.7267  -15.4382   25.3245 C   0  0  0  0  0  0  0  0  0  0  0  0
    6.5636  -15.9115   25.3443 O   0  0  0  0  0  0  0  0  0  0  0  0
    8.7533  -16.0413   26.0847 N   0  0  0  0  0  0  0  0  0  0  0  0
    8.4788  -17.2600   26.8041 C   0  0  0  0  0  0  0  0  0  0  0  0
    9.6389  -17.6306   27.6440 C   0  0  0  0  0  0  0  0  0  0  0  0
   10.6801  -18.0404   27.0923 O   0  0  0  0  0  0  0  0  0  0  0  0
    9.5832  -17.5289   29.0225 O   0  0  0  0  0  0  0  0  0  0  0  0
  2  3  1  0
  2  1  1  1
  3  4  1  0
  4  5  2  0
  5  6  1  0
  7  6  1  0
  8  4  1  0
  8  7  2  0
  9  2  1  0
 10  9  2  0
 11  9  1  0
 12 13  1  1
 12 11  1  0
 13 14  1  0
 15 17  1  0
 15 12  1  0
 16 15  2  0
 18 17  1  0
 19 18  1  0
 20 19  2  0
 21 19  1  0
M  END
$$$$
