HCG.pdb
     RDKit          3D

 21 21  0  0  1  0  0  0  0  0999 V2000
    9.2128  -17.4867   17.7361 N   0  0  0  0  0  0  0  0  0  0  0  0
    9.2685  -18.1153   19.0349 C   0  0  1  0  0  0  0  0  0  0  0  0
   10.2384  -19.2910   18.9290 C   0  0  0  0  0  0  0  0  0  0  0  0
    9.5576  -20.3355   18.1280 C   0  0  0  0  0  0  0  0  0  0  0  0
    8.2409  -20.3568   17.7641 C   0  0  0  0  0  0  0  0  0  0  0  0
    8.0403  -21.4782   17.0455 N   0  0  0  0  0  0  0  0  0  0  0  0
    9.2026  -22.1343   16.9665 C   0  0  0  0  0  0  0  0  0  0  0  0
   10.1428  -21.4346   17.6323 N   0  0  0  0  0  0  0  0  0  0  0  0
    9.7915  -17.1433   20.0213 C   0  0  0  0  0  0  0  0  0  0  0  0
   10.6174  -16.2686   19.6294 O   0  0  0  0  0  0  0  0  0  0  0  0
    9.3940  -17.1646   21.3904 N   0  0  0  0  0  0  0  0  0  0  0  0
    9.9389  -16.1662   22.2686 C   0  0  1  0  0  0  0  0  0  0  0  0
    8.8390  -15.7491   23.2546 C   0  0  0  0  0  0  0  0  0  0  0  0
    9.5337  -14.6472   24.5284 S   0  0  0  0  0  0  0  0  0  0  0  0
   11.1053  -16.6945   23.0436 C   0  0  0  0  0  0  0  0  0  0  0  0
   10.8607  -17.6327   23.8418 O   0  0  0  0  0  0  0  0  0  0  0  0
   12.4204  -16.1950   22.9143 N   0  0  0  0  0  0  0  0  0  0  0  0
   13.4758  -16.7642   23.7144 C   0  0  0  0  0  0  0  0  0  0  0  0
   14.7797  -16.1795   23.3319 C   0  0  0  0  0  0  0  0  0  0  0  0
   14.8261  -15.3696   22.3841 O   0  0  0  0  0  0  0  0  0  0  0  0
   15.9388  -16.5176   24.0072 O   0  0  0  0  0  0  0  0  0  0  0  0
  2  3  1  0
  2  1  1  6
  3  4  1  0
  4  5  2  0
  5  6  1  0
  7  6  1  0
  8  4  1  0
  8  7  2  0
  9  2  1  0
 10  9  2  0
 11  9  1  0
 12 13  1  1
 12 11  1  0
 13 14  1  0
 15 17  1  0
 15 12  1  0
 16 15  2  0
 18 17  1  0
 19 18  1  0
 20 19  2  0
 21 19  1  0
M  END
$$$$
