HCG.pdb
     RDKit          3D

 21 21  0  0  1  0  0  0  0  0999 V2000
    8.8250  -17.9038   17.0495 N   0  0  0  0  0  0  0  0  0  0  0  0
    7.9574  -17.6423   18.1739 C   0  0  1  0  0  0  0  0  0  0  0  0
    7.7277  -18.9727   18.8891 C   0  0  0  0  0  0  0  0  0  0  0  0
    6.7594  -19.7374   18.0681 C   0  0  0  0  0  0  0  0  0  0  0  0
    5.4023  -19.5818   18.0498 C   0  0  0  0  0  0  0  0  0  0  0  0
    4.9071  -20.4724   17.1691 N   0  0  0  0  0  0  0  0  0  0  0  0
    5.9312  -21.1617   16.6552 C   0  0  0  0  0  0  0  0  0  0  0  0
    7.0768  -20.7130   17.2058 N   0  0  0  0  0  0  0  0  0  0  0  0
    8.6331  -16.7053   19.0993 C   0  0  0  0  0  0  0  0  0  0  0  0
    9.8755  -16.8410   19.2974 O   0  0  0  0  0  0  0  0  0  0  0  0
    7.9292  -15.6618   19.7690 N   0  0  0  0  0  0  0  0  0  0  0  0
    8.6801  -14.7705   20.6097 C   0  0  1  0  0  0  0  0  0  0  0  0
    7.8124  -13.5353   20.8876 C   0  0  0  0  0  0  0  0  0  0  0  0
    7.5711  -12.5885   19.3497 S   0  0  0  0  0  0  0  0  0  0  0  0
    9.0337  -15.4139   21.9141 C   0  0  0  0  0  0  0  0  0  0  0  0
    8.0800  -15.9096   22.5636 O   0  0  0  0  0  0  0  0  0  0  0  0
   10.3506  -15.4809   22.4209 N   0  0  0  0  0  0  0  0  0  0  0  0
   10.5877  -16.1127   23.6948 C   0  0  0  0  0  0  0  0  0  0  0  0
   12.0131  -15.9879   24.0702 C   0  0  0  0  0  0  0  0  0  0  0  0
   12.8128  -15.4856   23.2549 O   0  0  0  0  0  0  0  0  0  0  0  0
   12.4661  -16.4180   25.3045 O   0  0  0  0  0  0  0  0  0  0  0  0
  2  3  1  0
  2  1  1  6
  3  4  1  0
  4  5  2  0
  5  6  1  0
  7  6  1  0
  8  4  1  0
  8  7  2  0
  9  2  1  0
 10  9  2  0
 11  9  1  0
 12 13  1  1
 12 11  1  0
 13 14  1  0
 15 17  1  0
 15 12  1  0
 16 15  2  0
 18 17  1  0
 19 18  1  0
 20 19  2  0
 21 19  1  0
M  END
$$$$
