HCG.pdb
     RDKit          3D

 21 21  0  0  1  0  0  0  0  0999 V2000
    8.9123  -12.3953   19.7602 N   0  0  0  0  0  0  0  0  0  0  0  0
    8.2367  -13.4544   20.4723 C   0  0  1  0  0  0  0  0  0  0  0  0
    8.6766  -14.7760   19.8446 C   0  0  0  0  0  0  0  0  0  0  0  0
    8.1706  -14.7766   18.4516 C   0  0  0  0  0  0  0  0  0  0  0  0
    7.5473  -13.7448   17.8088 C   0  0  0  0  0  0  0  0  0  0  0  0
    7.2536  -14.1654   16.5635 N   0  0  0  0  0  0  0  0  0  0  0  0
    7.6839  -15.4252   16.4384 C   0  0  0  0  0  0  0  0  0  0  0  0
    8.2507  -15.8082   17.5998 N   0  0  0  0  0  0  0  0  0  0  0  0
    8.6569  -13.4286   21.8914 C   0  0  0  0  0  0  0  0  0  0  0  0
    9.8190  -13.0133   22.1709 O   0  0  0  0  0  0  0  0  0  0  0  0
    7.7959  -13.8553   22.9447 N   0  0  0  0  0  0  0  0  0  0  0  0
    8.3229  -13.8799   24.2813 C   0  0  1  0  0  0  0  0  0  0  0  0
    7.2789  -13.2528   25.2155 C   0  0  0  0  0  0  0  0  0  0  0  0
    5.6967  -14.1434   25.0638 S   0  0  0  0  0  0  0  0  0  0  0  0
    8.5985  -15.2787   24.7370 C   0  0  0  0  0  0  0  0  0  0  0  0
    7.8676  -16.1749   24.2472 O   0  0  0  0  0  0  0  0  0  0  0  0
    9.6118  -15.6139   25.6624 N   0  0  0  0  0  0  0  0  0  0  0  0
    9.7442  -16.9800   26.1034 C   0  0  0  0  0  0  0  0  0  0  0  0
   10.9752  -17.5808   25.5448 C   0  0  0  0  0  0  0  0  0  0  0  0
   11.6401  -16.9347   24.7100 O   0  0  0  0  0  0  0  0  0  0  0  0
   11.3944  -18.8404   25.9340 O   0  0  0  0  0  0  0  0  0  0  0  0
  2  3  1  0
  2  1  1  6
  3  4  1  0
  4  5  2  0
  5  6  1  0
  7  6  1  0
  8  4  1  0
  8  7  2  0
  9  2  1  0
 10  9  2  0
 11  9  1  0
 12 13  1  1
 12 11  1  0
 13 14  1  0
 15 17  1  0
 15 12  1  0
 16 15  2  0
 18 17  1  0
 19 18  1  0
 20 19  2  0
 21 19  1  0
M  END
$$$$
