HCG.pdb
     RDKit          3D

 21 21  0  0  1  0  0  0  0  0999 V2000
   10.2430  -15.1691   21.5410 N   0  0  0  0  0  0  0  0  0  0  0  0
    9.0538  -14.4998   22.0132 C   0  0  1  0  0  0  0  0  0  0  0  0
    7.8642  -15.1159   21.2787 C   0  0  0  0  0  0  0  0  0  0  0  0
    7.6983  -14.3529   20.0190 C   0  0  0  0  0  0  0  0  0  0  0  0
    8.4849  -13.3276   19.5757 C   0  0  0  0  0  0  0  0  0  0  0  0
    7.9853  -12.9196   18.3934 N   0  0  0  0  0  0  0  0  0  0  0  0
    6.9170  -13.6728   18.1117 C   0  0  0  0  0  0  0  0  0  0  0  0
    6.7346  -14.5591   19.1108 N   0  0  0  0  0  0  0  0  0  0  0  0
    8.9053  -14.7435   23.4657 C   0  0  0  0  0  0  0  0  0  0  0  0
    9.5303  -15.7143   23.9833 O   0  0  0  0  0  0  0  0  0  0  0  0
    8.0840  -13.9216   24.2920 N   0  0  0  0  0  0  0  0  0  0  0  0
    8.0365  -14.2102   25.6990 C   0  0  1  0  0  0  0  0  0  0  0  0
    7.2111  -13.1110   26.3820 C   0  0  0  0  0  0  0  0  0  0  0  0
    7.1991  -13.3745   28.1847 S   0  0  0  0  0  0  0  0  0  0  0  0
    7.3908  -15.5337   25.9663 C   0  0  0  0  0  0  0  0  0  0  0  0
    6.1466  -15.5860   25.8031 O   0  0  0  0  0  0  0  0  0  0  0  0
    8.1030  -16.6816   26.3796 N   0  0  0  0  0  0  0  0  0  0  0  0
    7.3755  -17.8545   26.7955 C   0  0  0  0  0  0  0  0  0  0  0  0
    8.0207  -18.4636   27.9792 C   0  0  0  0  0  0  0  0  0  0  0  0
    8.9561  -17.8567   28.5390 O   0  0  0  0  0  0  0  0  0  0  0  0
    7.6027  -19.6881   28.4688 O   0  0  0  0  0  0  0  0  0  0  0  0
  2  3  1  0
  2  1  1  6
  3  4  1  0
  4  5  2  0
  5  6  1  0
  7  6  1  0
  8  4  1  0
  8  7  2  0
  9  2  1  0
 10  9  2  0
 11  9  1  0
 12 13  1  1
 12 11  1  0
 13 14  1  0
 15 17  1  0
 15 12  1  0
 16 15  2  0
 18 17  1  0
 19 18  1  0
 20 19  2  0
 21 19  1  0
M  END
$$$$
