MKL.pdb
     RDKit          3D

 26 25  0  0  1  0  0  0  0  0999 V2000
   11.5400  -11.3159  -11.9879 C   0  0  0  0  0  0  0  0  0  0  0  0
   12.1531  -13.0029  -11.6750 S   0  0  0  0  0  0  0  0  0  0  0  0
   13.9484  -12.9735  -11.9251 C   0  0  0  0  0  0  0  0  0  0  0  0
   14.5082  -11.7070  -11.3136 C   0  0  0  0  0  0  0  0  0  0  0  0
   15.9970  -11.6985  -11.5867 C   0  0  2  0  0  0  0  0  0  0  0  0
   16.6021  -12.7900  -10.8744 N   0  0  0  0  0  0  0  0  0  0  0  0
   16.5272  -10.4151  -11.0724 C   0  0  0  0  0  0  0  0  0  0  0  0
   16.7901  -10.3304   -9.8343 O   0  0  0  0  0  0  0  0  0  0  0  0
   16.7307   -9.3167  -11.9539 N   0  0  0  0  0  0  0  0  0  0  0  0
   17.2135   -8.0675  -11.4150 C   0  0  1  0  0  0  0  0  0  0  0  0
   18.0866   -7.4413  -12.4643 C   0  0  0  0  0  0  0  0  0  0  0  0
   19.3734   -8.1593  -12.7006 C   0  0  0  0  0  0  0  0  0  0  0  0
   20.2186   -7.2539  -13.6094 C   0  0  0  0  0  0  0  0  0  0  0  0
   21.5732   -7.9279  -13.8353 C   0  0  0  0  0  0  0  0  0  0  0  0
   22.3783   -7.0341  -14.6453 N   0  0  0  0  0  0  0  0  0  0  0  0
   16.1218   -7.1937  -10.9571 C   0  0  0  0  0  0  0  0  0  0  0  0
   14.9787   -7.1409  -11.4643 O   0  0  0  0  0  0  0  0  0  0  0  0
   14.0623   -5.0643   -5.7183 C   0  0  0  0  0  0  0  0  0  0  0  0
   13.9772   -4.9789   -7.2212 C   0  0  2  0  0  0  0  0  0  0  0  0
   12.5794   -5.0701   -7.7156 C   0  0  0  0  0  0  0  0  0  0  0  0
   14.9720   -5.7578   -7.9659 C   0  0  0  0  0  0  0  0  0  0  0  0
   15.3044   -5.4200   -9.3609 C   0  0  2  0  0  0  0  0  0  0  0  0
   16.3659   -6.3363   -9.8548 N   0  0  0  0  0  0  0  0  0  0  0  0
   15.7605   -4.0647   -9.6630 C   0  0  0  0  0  0  0  0  0  0  0  0
   14.9638   -2.9665   -9.9359 O   0  0  0  0  0  0  0  0  0  0  0  0
   17.0089   -3.8228   -9.6924 O   0  0  0  0  0  0  0  0  0  0  0  0
  2  1  1  0
  3  2  1  0
  4  5  1  0
  4  3  1  0
  5  7  1  0
  5  6  1  1
  7  8  2  0
  9 10  1  0
  9  7  1  0
 11 12  1  0
 10 11  1  6
 13 12  1  0
 13 14  1  0
 15 14  1  0
 16 10  1  0
 16 17  2  0
 19 18  1  1
 19 21  1  0
 20 19  1  0
 22 21  1  1
 22 24  1  0
 22 23  1  0
 23 16  1  0
 24 25  1  0
 26 24  2  0
M  END
$$$$
