MKL.pdb
     RDKit          3D

 26 25  0  0  1  0  0  0  0  0999 V2000
   26.3608  -16.0169  -19.0144 C   0  0  0  0  0  0  0  0  0  0  0  0
   28.1692  -15.9467  -19.2253 S   0  0  0  0  0  0  0  0  0  0  0  0
   28.8721  -17.3157  -18.2668 C   0  0  0  0  0  0  0  0  0  0  0  0
   27.7747  -17.9489  -17.4386 C   0  0  0  0  0  0  0  0  0  0  0  0
   28.4241  -18.9993  -16.5635 C   0  0  2  0  0  0  0  0  0  0  0  0
   29.0856  -19.9565  -17.4068 N   0  0  0  0  0  0  0  0  0  0  0  0
   27.3403  -19.6683  -15.8082 C   0  0  0  0  0  0  0  0  0  0  0  0
   26.5662  -20.4500  -16.4399 O   0  0  0  0  0  0  0  0  0  0  0  0
   27.1838  -19.4313  -14.4138 N   0  0  0  0  0  0  0  0  0  0  0  0
   26.1056  -20.0841  -13.7100 C   0  0  1  0  0  0  0  0  0  0  0  0
   26.4079  -19.9795  -12.2427 C   0  0  0  0  0  0  0  0  0  0  0  0
   25.3566  -20.5596  -11.3565 C   0  0  0  0  0  0  0  0  0  0  0  0
   25.8777  -20.4297   -9.9173 C   0  0  0  0  0  0  0  0  0  0  0  0
   24.8908  -21.1313   -8.9825 C   0  0  0  0  0  0  0  0  0  0  0  0
   25.3858  -20.9795   -7.6278 N   0  0  0  0  0  0  0  0  0  0  0  0
   24.7865  -19.5477  -14.0807 C   0  0  0  0  0  0  0  0  0  0  0  0
   24.4492  -18.3448  -14.0042 O   0  0  0  0  0  0  0  0  0  0  0  0
   20.1563  -20.8677  -17.8440 C   0  0  0  0  0  0  0  0  0  0  0  0
   20.7846  -19.9633  -16.8141 C   0  0  2  0  0  0  0  0  0  0  0  0
   20.8096  -18.5427  -17.2474 C   0  0  0  0  0  0  0  0  0  0  0  0
   22.0114  -20.4625  -16.1844 C   0  0  0  0  0  0  0  0  0  0  0  0
   22.4256  -19.9830  -14.8542 C   0  0  2  0  0  0  0  0  0  0  0  0
   23.8069  -20.4507  -14.5652 N   0  0  0  0  0  0  0  0  0  0  0  0
   21.6170  -20.3528  -13.6942 C   0  0  0  0  0  0  0  0  0  0  0  0
   21.6260  -21.5694  -13.0348 O   0  0  0  0  0  0  0  0  0  0  0  0
   20.8052  -19.5028  -13.2081 O   0  0  0  0  0  0  0  0  0  0  0  0
  2  1  1  0
  3  2  1  0
  4  5  1  0
  4  3  1  0
  5  7  1  0
  5  6  1  6
  7  8  2  0
  9 10  1  0
  9  7  1  0
 11 12  1  0
 10 11  1  1
 13 12  1  0
 13 14  1  0
 15 14  1  0
 16 10  1  0
 16 17  2  0
 19 18  1  6
 19 21  1  0
 20 19  1  0
 22 21  1  6
 22 24  1  0
 22 23  1  0
 23 16  1  0
 24 25  1  0
 26 24  2  0
M  END
$$$$
