MKL.pdb
     RDKit          3D

 26 25  0  0  1  0  0  0  0  0999 V2000
   33.0333  -21.3942  -11.1992 C   0  0  0  0  0  0  0  0  0  0  0  0
   32.0882  -22.8517  -11.7491 S   0  0  0  0  0  0  0  0  0  0  0  0
   30.8304  -22.2638  -12.9149 C   0  0  0  0  0  0  0  0  0  0  0  0
   30.0428  -21.1466  -12.2646 C   0  0  0  0  0  0  0  0  0  0  0  0
   29.0110  -20.6825  -13.2701 C   0  0  2  0  0  0  0  0  0  0  0  0
   29.5880  -19.6410  -14.0747 N   0  0  0  0  0  0  0  0  0  0  0  0
   27.8669  -20.1405  -12.5020 C   0  0  0  0  0  0  0  0  0  0  0  0
   27.9200  -18.9305  -12.1247 O   0  0  0  0  0  0  0  0  0  0  0  0
   26.7465  -20.9655  -12.2032 N   0  0  0  0  0  0  0  0  0  0  0  0
   25.8011  -20.5263  -11.2045 C   0  0  1  0  0  0  0  0  0  0  0  0
   24.4315  -20.8889  -11.7024 C   0  0  0  0  0  0  0  0  0  0  0  0
   23.9500  -20.0511  -12.8397 C   0  0  0  0  0  0  0  0  0  0  0  0
   22.5345  -20.5435  -13.1767 C   0  0  0  0  0  0  0  0  0  0  0  0
   22.0154  -19.7379  -14.3691 C   0  0  0  0  0  0  0  0  0  0  0  0
   20.6524  -20.1621  -14.6253 N   0  0  0  0  0  0  0  0  0  0  0  0
   26.1049  -21.0632   -9.8686 C   0  0  0  0  0  0  0  0  0  0  0  0
   26.3904  -22.2558   -9.6180 O   0  0  0  0  0  0  0  0  0  0  0  0
   26.7139  -20.3225   -4.3783 C   0  0  0  0  0  0  0  0  0  0  0  0
   27.7650  -19.8851   -5.3668 C   0  0  2  0  0  0  0  0  0  0  0  0
   28.6603  -18.8361   -4.8148 C   0  0  0  0  0  0  0  0  0  0  0  0
   27.3039  -19.6743   -6.7430 C   0  0  0  0  0  0  0  0  0  0  0  0
   26.4186  -20.6517   -7.4000 C   0  0  2  0  0  0  0  0  0  0  0  0
   26.0766  -20.1733   -8.7654 N   0  0  0  0  0  0  0  0  0  0  0  0
   25.1514  -20.9916   -6.7558 C   0  0  0  0  0  0  0  0  0  0  0  0
   24.9301  -22.0245   -5.8618 O   0  0  0  0  0  0  0  0  0  0  0  0
   24.1181  -20.2970   -7.0155 O   0  0  0  0  0  0  0  0  0  0  0  0
  2  1  1  0
  3  2  1  0
  4  5  1  0
  4  3  1  0
  5  7  1  0
  5  6  1  6
  7  8  2  0
  9 10  1  0
  9  7  1  0
 11 12  1  0
 10 11  1  6
 13 12  1  0
 13 14  1  0
 15 14  1  0
 16 10  1  0
 16 17  2  0
 19 18  1  1
 19 21  1  0
 20 19  1  0
 22 21  1  1
 22 24  1  0
 22 23  1  0
 23 16  1  0
 24 25  1  0
 26 24  2  0
M  END
$$$$
