MKL.pdb
     RDKit          3D

 26 25  0  0  1  0  0  0  0  0999 V2000
   29.3063  -15.3478  -17.5191 C   0  0  0  0  0  0  0  0  0  0  0  0
   30.6227  -16.6045  -17.4322 S   0  0  0  0  0  0  0  0  0  0  0  0
   29.8457  -18.2138  -17.7377 C   0  0  0  0  0  0  0  0  0  0  0  0
   28.4467  -18.2006  -17.1599 C   0  0  0  0  0  0  0  0  0  0  0  0
   27.8541  -19.5740  -17.3913 C   0  0  2  0  0  0  0  0  0  0  0  0
   27.6904  -19.7727  -18.8051 N   0  0  0  0  0  0  0  0  0  0  0  0
   26.5291  -19.5941  -16.7303 C   0  0  0  0  0  0  0  0  0  0  0  0
   25.8228  -18.5413  -16.7755 O   0  0  0  0  0  0  0  0  0  0  0  0
   26.0744  -20.7682  -16.0672 N   0  0  0  0  0  0  0  0  0  0  0  0
   24.7830  -20.7516  -15.4223 C   0  0  1  0  0  0  0  0  0  0  0  0
   23.8266  -21.4714  -16.3291 C   0  0  0  0  0  0  0  0  0  0  0  0
   22.4490  -21.6202  -15.7746 C   0  0  0  0  0  0  0  0  0  0  0  0
   21.5195  -20.8087  -16.6897 C   0  0  0  0  0  0  0  0  0  0  0  0
   20.0946  -20.9126  -16.1431 C   0  0  0  0  0  0  0  0  0  0  0  0
   19.2633  -20.0042  -16.9093 N   0  0  0  0  0  0  0  0  0  0  0  0
   24.8292  -21.3004  -14.0578 C   0  0  0  0  0  0  0  0  0  0  0  0
   25.3124  -22.4113  -13.7428 O   0  0  0  0  0  0  0  0  0  0  0  0
   26.6988  -22.0609  -10.5363 C   0  0  0  0  0  0  0  0  0  0  0  0
   26.2261  -20.6295  -10.5035 C   0  0  2  0  0  0  0  0  0  0  0  0
   26.8960  -19.8359   -9.4414 C   0  0  0  0  0  0  0  0  0  0  0  0
   24.7797  -20.4278  -10.6377 C   0  0  0  0  0  0  0  0  0  0  0  0
   24.0125  -21.1362  -11.6770 C   0  0  2  0  0  0  0  0  0  0  0  0
   24.2881  -20.5230  -13.0030 N   0  0  0  0  0  0  0  0  0  0  0  0
   22.5579  -21.2016  -11.5506 C   0  0  0  0  0  0  0  0  0  0  0  0
   21.8342  -22.1071  -10.7947 O   0  0  0  0  0  0  0  0  0  0  0  0
   21.8422  -20.3626  -12.1844 O   0  0  0  0  0  0  0  0  0  0  0  0
  2  1  1  0
  3  2  1  0
  4  5  1  0
  4  3  1  0
  5  7  1  0
  5  6  1  6
  7  8  2  0
  9 10  1  0
  9  7  1  0
 11 12  1  0
 10 11  1  6
 13 12  1  0
 13 14  1  0
 15 14  1  0
 16 10  1  0
 16 17  2  0
 19 18  1  1
 19 21  1  0
 20 19  1  0
 22 21  1  1
 22 24  1  0
 22 23  1  0
 23 16  1  0
 24 25  1  0
 26 24  2  0
M  END
$$$$
