MKL.pdb
     RDKit          3D

 26 25  0  0  1  0  0  0  0  0999 V2000
   18.3421  -33.6905   -1.0102 C   0  0  0  0  0  0  0  0  0  0  0  0
   18.8647  -34.7424   -2.4032 S   0  0  0  0  0  0  0  0  0  0  0  0
   18.7320  -33.7402   -3.9081 C   0  0  0  0  0  0  0  0  0  0  0  0
   19.4238  -32.4139   -3.6769 C   0  0  0  0  0  0  0  0  0  0  0  0
   19.0335  -31.5006   -4.8190 C   0  0  2  0  0  0  0  0  0  0  0  0
   19.8751  -31.7889   -5.9476 N   0  0  0  0  0  0  0  0  0  0  0  0
   19.2693  -30.1107   -4.3659 C   0  0  0  0  0  0  0  0  0  0  0  0
   20.4677  -29.7372   -4.1824 O   0  0  0  0  0  0  0  0  0  0  0  0
   18.1729  -29.2304   -4.1466 N   0  0  0  0  0  0  0  0  0  0  0  0
   18.4319  -27.9025   -3.6431 C   0  0  1  0  0  0  0  0  0  0  0  0
   17.4175  -26.9874   -4.2668 C   0  0  0  0  0  0  0  0  0  0  0  0
   17.8444  -26.3935   -5.5676 C   0  0  0  0  0  0  0  0  0  0  0  0
   16.6818  -25.5116   -6.0479 C   0  0  0  0  0  0  0  0  0  0  0  0
   17.0797  -24.8734   -7.3799 C   0  0  0  0  0  0  0  0  0  0  0  0
   15.9602  -24.0710   -7.8339 N   0  0  0  0  0  0  0  0  0  0  0  0
   18.4471  -27.8522   -2.1726 C   0  0  0  0  0  0  0  0  0  0  0  0
   17.8561  -28.6561   -1.4169 O   0  0  0  0  0  0  0  0  0  0  0  0
   21.4959  -24.3415    1.9792 C   0  0  0  0  0  0  0  0  0  0  0  0
   20.6590  -25.5713    1.7334 C   0  0  2  0  0  0  0  0  0  0  0  0
   21.0360  -26.7001    2.6223 C   0  0  0  0  0  0  0  0  0  0  0  0
   20.4206  -25.9151    0.3277 C   0  0  0  0  0  0  0  0  0  0  0  0
   19.2625  -26.7384   -0.0615 C   0  0  2  0  0  0  0  0  0  0  0  0
   19.1847  -26.8175   -1.5441 N   0  0  0  0  0  0  0  0  0  0  0  0
   17.9338  -26.3385    0.3974 C   0  0  0  0  0  0  0  0  0  0  0  0
   17.2723  -26.8050    1.5199 O   0  0  0  0  0  0  0  0  0  0  0  0
   17.2791  -25.4787   -0.2732 O   0  0  0  0  0  0  0  0  0  0  0  0
  2  1  1  0
  3  2  1  0
  4  5  1  0
  4  3  1  0
  5  7  1  0
  5  6  1  6
  7  8  2  0
  9 10  1  0
  9  7  1  0
 11 12  1  0
 10 11  1  1
 13 12  1  0
 13 14  1  0
 15 14  1  0
 16 10  1  0
 16 17  2  0
 19 18  1  6
 19 21  1  0
 20 19  1  0
 22 21  1  6
 22 24  1  0
 22 23  1  0
 23 16  1  0
 24 25  1  0
 26 24  2  0
M  END
$$$$
