MKL.pdb
     RDKit          3D

 26 25  0  0  1  0  0  0  0  0999 V2000
   31.2289  -21.2865  -10.2465 C   0  0  0  0  0  0  0  0  0  0  0  0
   30.8601  -22.4455  -11.6031 S   0  0  0  0  0  0  0  0  0  0  0  0
   30.7342  -21.4656  -13.1232 C   0  0  0  0  0  0  0  0  0  0  0  0
   29.8381  -20.2732  -12.8653 C   0  0  0  0  0  0  0  0  0  0  0  0
   28.4770  -20.6041  -13.4387 C   0  0  2  0  0  0  0  0  0  0  0  0
   28.3189  -19.9036  -14.6834 N   0  0  0  0  0  0  0  0  0  0  0  0
   27.4668  -20.1252  -12.4676 C   0  0  0  0  0  0  0  0  0  0  0  0
   27.3487  -18.8738  -12.2963 O   0  0  0  0  0  0  0  0  0  0  0  0
   26.6587  -21.0542  -11.7542 N   0  0  0  0  0  0  0  0  0  0  0  0
   25.7619  -20.5630  -10.7351 C   0  0  1  0  0  0  0  0  0  0  0  0
   24.3673  -20.9162  -11.1656 C   0  0  0  0  0  0  0  0  0  0  0  0
   23.8888  -20.1719  -12.3674 C   0  0  0  0  0  0  0  0  0  0  0  0
   22.4305  -20.5987  -12.5939 C   0  0  0  0  0  0  0  0  0  0  0  0
   21.8727  -19.8004  -13.7736 C   0  0  0  0  0  0  0  0  0  0  0  0
   20.4767  -20.1622  -13.9273 N   0  0  0  0  0  0  0  0  0  0  0  0
   26.1093  -21.0593   -9.3942 C   0  0  0  0  0  0  0  0  0  0  0  0
   26.3162  -22.2581   -9.0997 O   0  0  0  0  0  0  0  0  0  0  0  0
   29.0400  -20.7873   -5.3768 C   0  0  0  0  0  0  0  0  0  0  0  0
   28.4567  -19.4751   -5.8363 C   0  0  2  0  0  0  0  0  0  0  0  0
   28.9373  -18.3268   -5.0257 C   0  0  0  0  0  0  0  0  0  0  0  0
   27.0238  -19.4836   -6.1482 C   0  0  0  0  0  0  0  0  0  0  0  0
   26.4305  -20.5756   -6.9396 C   0  0  2  0  0  0  0  0  0  0  0  0
   26.2231  -20.1192   -8.3393 N   0  0  0  0  0  0  0  0  0  0  0  0
   25.1577  -21.1453   -6.5020 C   0  0  0  0  0  0  0  0  0  0  0  0
   24.9759  -22.1067   -5.5233 O   0  0  0  0  0  0  0  0  0  0  0  0
   24.0803  -20.7501   -7.0504 O   0  0  0  0  0  0  0  0  0  0  0  0
  2  1  1  0
  3  2  1  0
  4  5  1  0
  4  3  1  0
  5  7  1  0
  5  6  1  6
  7  8  2  0
  9 10  1  0
  9  7  1  0
 11 12  1  0
 10 11  1  6
 13 12  1  0
 13 14  1  0
 15 14  1  0
 16 10  1  0
 16 17  2  0
 19 18  1  1
 19 21  1  0
 20 19  1  0
 22 21  1  1
 22 24  1  0
 22 23  1  0
 23 16  1  0
 24 25  1  0
 26 24  2  0
M  END
$$$$
