MKL.pdb
     RDKit          3D

 26 25  0  0  1  0  0  0  0  0999 V2000
   29.4763  -19.8729  -16.2266 C   0  0  0  0  0  0  0  0  0  0  0  0
   28.8849  -18.1525  -16.1233 S   0  0  0  0  0  0  0  0  0  0  0  0
   27.0925  -18.2191  -15.8592 C   0  0  0  0  0  0  0  0  0  0  0  0
   26.6232  -19.6472  -16.0365 C   0  0  0  0  0  0  0  0  0  0  0  0
   25.1296  -19.6610  -15.7918 C   0  0  2  0  0  0  0  0  0  0  0  0
   24.5257  -18.6152  -16.5707 N   0  0  0  0  0  0  0  0  0  0  0  0
   24.9214  -19.3905  -14.3509 C   0  0  0  0  0  0  0  0  0  0  0  0
   24.8067  -18.1827  -13.9802 O   0  0  0  0  0  0  0  0  0  0  0  0
   24.8539  -20.4649  -13.4203 N   0  0  0  0  0  0  0  0  0  0  0  0
   24.4163  -20.1955  -12.0713 C   0  0  1  0  0  0  0  0  0  0  0  0
   23.0453  -20.7903  -11.9240 C   0  0  0  0  0  0  0  0  0  0  0  0
   22.3066  -20.9559  -13.2101 C   0  0  0  0  0  0  0  0  0  0  0  0
   20.9008  -21.4563  -12.8453 C   0  0  0  0  0  0  0  0  0  0  0  0
   20.1270  -21.7058  -14.1411 C   0  0  0  0  0  0  0  0  0  0  0  0
   19.9272  -20.4227  -14.7869 N   0  0  0  0  0  0  0  0  0  0  0  0
   25.3773  -20.6705  -11.0634 C   0  0  0  0  0  0  0  0  0  0  0  0
   25.9177  -21.7995  -11.0572 O   0  0  0  0  0  0  0  0  0  0  0  0
   29.3207  -20.4674   -7.3065 C   0  0  0  0  0  0  0  0  0  0  0  0
   28.3132  -19.3471   -7.2505 C   0  0  2  0  0  0  0  0  0  0  0  0
   27.6158  -19.2773   -5.9408 C   0  0  0  0  0  0  0  0  0  0  0  0
   27.4659  -19.1859   -8.4366 C   0  0  0  0  0  0  0  0  0  0  0  0
   26.5719  -20.2706   -8.8782 C   0  0  2  0  0  0  0  0  0  0  0  0
   25.7313  -19.7931  -10.0076 N   0  0  0  0  0  0  0  0  0  0  0  0
   25.6542  -20.8605   -7.9056 C   0  0  0  0  0  0  0  0  0  0  0  0
   25.8936  -21.9666   -7.1091 O   0  0  0  0  0  0  0  0  0  0  0  0
   24.5052  -20.3400   -7.7425 O   0  0  0  0  0  0  0  0  0  0  0  0
  2  1  1  0
  3  2  1  0
  4  5  1  0
  4  3  1  0
  5  7  1  0
  5  6  1  6
  7  8  2  0
  9 10  1  0
  9  7  1  0
 11 12  1  0
 10 11  1  1
 13 12  1  0
 13 14  1  0
 15 14  1  0
 16 10  1  0
 16 17  2  0
 19 18  1  6
 19 21  1  0
 20 19  1  0
 22 21  1  1
 22 24  1  0
 22 23  1  0
 23 16  1  0
 24 25  1  0
 26 24  2  0
M  END
$$$$
