MKL.pdb
     RDKit          3D

 26 25  0  0  1  0  0  0  0  0999 V2000
   21.8707  -38.5546  -14.6810 C   0  0  0  0  0  0  0  0  0  0  0  0
   23.2688  -37.6605  -13.9288 S   0  0  0  0  0  0  0  0  0  0  0  0
   23.0407  -35.9013  -14.3027 C   0  0  0  0  0  0  0  0  0  0  0  0
   24.1874  -35.1189  -13.6990 C   0  0  0  0  0  0  0  0  0  0  0  0
   23.9023  -33.6516  -13.9374 C   0  0  2  0  0  0  0  0  0  0  0  0
   24.7506  -33.1841  -14.9990 N   0  0  0  0  0  0  0  0  0  0  0  0
   24.2330  -32.9341  -12.6850 C   0  0  0  0  0  0  0  0  0  0  0  0
   25.4559  -32.7191  -12.4246 O   0  0  0  0  0  0  0  0  0  0  0  0
   23.1980  -32.5042  -11.8081 N   0  0  0  0  0  0  0  0  0  0  0  0
   23.5556  -31.8625  -10.5654 C   0  0  1  0  0  0  0  0  0  0  0  0
   22.3787  -31.0311  -10.1424 C   0  0  0  0  0  0  0  0  0  0  0  0
   22.1438  -29.8243  -10.9883 C   0  0  0  0  0  0  0  0  0  0  0  0
   20.8239  -29.2032  -10.5068 C   0  0  0  0  0  0  0  0  0  0  0  0
   20.5109  -27.9932  -11.3889 C   0  0  0  0  0  0  0  0  0  0  0  0
   19.2936  -27.3865  -10.8857 N   0  0  0  0  0  0  0  0  0  0  0  0
   23.9970  -32.8242   -9.5430 C   0  0  0  0  0  0  0  0  0  0  0  0
   23.5582  -33.9889   -9.4106 O   0  0  0  0  0  0  0  0  0  0  0  0
   27.4369  -35.4979   -6.5573 C   0  0  0  0  0  0  0  0  0  0  0  0
   27.8583  -34.3430   -7.4303 C   0  0  2  0  0  0  0  0  0  0  0  0
   29.3074  -34.0400   -7.3083 C   0  0  0  0  0  0  0  0  0  0  0  0
   26.9601  -33.1838   -7.4390 C   0  0  0  0  0  0  0  0  0  0  0  0
   25.5052  -33.3579   -7.5930 C   0  0  2  0  0  0  0  0  0  0  0  0
   24.9985  -32.4166   -8.6261 N   0  0  0  0  0  0  0  0  0  0  0  0
   24.6510  -33.1778   -6.4207 C   0  0  0  0  0  0  0  0  0  0  0  0
   24.4615  -34.0814   -5.3899 O   0  0  0  0  0  0  0  0  0  0  0  0
   23.9925  -32.0970   -6.2938 O   0  0  0  0  0  0  0  0  0  0  0  0
  2  1  1  0
  3  2  1  0
  4  5  1  0
  4  3  1  0
  5  7  1  0
  5  6  1  6
  7  8  2  0
  9 10  1  0
  9  7  1  0
 11 12  1  0
 10 11  1  1
 13 12  1  0
 13 14  1  0
 15 14  1  0
 16 10  1  0
 16 17  2  0
 19 18  1  1
 19 21  1  0
 20 19  1  0
 22 21  1  1
 22 24  1  0
 22 23  1  0
 23 16  1  0
 24 25  1  0
 26 24  2  0
M  END
$$$$
