MKL.pdb
     RDKit          3D

 26 25  0  0  1  0  0  0  0  0999 V2000
   13.6381  -12.4172  -21.5970 C   0  0  0  0  0  0  0  0  0  0  0  0
   14.4932  -11.2696  -20.4694 S   0  0  0  0  0  0  0  0  0  0  0  0
   15.9145  -12.1588  -19.7795 C   0  0  0  0  0  0  0  0  0  0  0  0
   16.6100  -11.2668  -18.7735 C   0  0  0  0  0  0  0  0  0  0  0  0
   17.8304  -12.0144  -18.2811 C   0  0  2  0  0  0  0  0  0  0  0  0
   17.3970  -13.1376  -17.4965 N   0  0  0  0  0  0  0  0  0  0  0  0
   18.5994  -11.0798  -17.4280 C   0  0  0  0  0  0  0  0  0  0  0  0
   18.1685  -10.8467  -16.2579 O   0  0  0  0  0  0  0  0  0  0  0  0
   19.7862  -10.4680  -17.9204 N   0  0  0  0  0  0  0  0  0  0  0  0
   20.5037   -9.5484  -17.0700 C   0  0  1  0  0  0  0  0  0  0  0  0
   21.9556   -9.9266  -17.1353 C   0  0  0  0  0  0  0  0  0  0  0  0
   22.3200  -11.1092  -16.3012 C   0  0  0  0  0  0  0  0  0  0  0  0
   23.8120  -11.3767  -16.5503 C   0  0  0  0  0  0  0  0  0  0  0  0
   24.1793  -12.7077  -15.8918 C   0  0  0  0  0  0  0  0  0  0  0  0
   25.5888  -12.9448  -16.1376 N   0  0  0  0  0  0  0  0  0  0  0  0
   20.2438   -8.1423  -17.4172 C   0  0  0  0  0  0  0  0  0  0  0  0
   20.2657   -7.6693  -18.5759 O   0  0  0  0  0  0  0  0  0  0  0  0
   17.8090   -4.9078  -18.9691 C   0  0  0  0  0  0  0  0  0  0  0  0
   17.3717   -5.6609  -17.7382 C   0  0  2  0  0  0  0  0  0  0  0  0
   15.9138   -5.5332  -17.4839 C   0  0  0  0  0  0  0  0  0  0  0  0
   18.2405   -5.5310  -16.5638 C   0  0  0  0  0  0  0  0  0  0  0  0
   19.6854   -5.8018  -16.6607 C   0  0  2  0  0  0  0  0  0  0  0  0
   19.9429   -7.2367  -16.3689 N   0  0  0  0  0  0  0  0  0  0  0  0
   20.5985   -5.0408  -15.8102 C   0  0  0  0  0  0  0  0  0  0  0  0
   20.9174   -3.6998  -15.9327 O   0  0  0  0  0  0  0  0  0  0  0  0
   21.1859   -5.6302  -14.8482 O   0  0  0  0  0  0  0  0  0  0  0  0
  2  1  1  0
  3  2  1  0
  4  5  1  0
  4  3  1  0
  5  7  1  0
  5  6  1  1
  7  8  2  0
  9 10  1  0
  9  7  1  0
 11 12  1  0
 10 11  1  6
 13 12  1  0
 13 14  1  0
 15 14  1  0
 16 10  1  0
 16 17  2  0
 19 18  1  6
 19 21  1  0
 20 19  1  0
 22 21  1  1
 22 24  1  0
 22 23  1  0
 23 16  1  0
 24 25  1  0
 26 24  2  0
M  END
$$$$
