MKL.pdb
     RDKit          3D

 26 25  0  0  1  0  0  0  0  0999 V2000
   10.4474  -10.3498   -9.0526 C   0  0  0  0  0  0  0  0  0  0  0  0
   11.5355   -9.2954  -10.0646 S   0  0  0  0  0  0  0  0  0  0  0  0
   13.1291  -10.1488  -10.2016 C   0  0  0  0  0  0  0  0  0  0  0  0
   14.0603   -9.3150  -11.0553 C   0  0  0  0  0  0  0  0  0  0  0  0
   15.3517  -10.0915  -11.1984 C   0  0  2  0  0  0  0  0  0  0  0  0
   15.8673  -10.3735   -9.8871 N   0  0  0  0  0  0  0  0  0  0  0  0
   16.3030   -9.2242  -11.9302 C   0  0  0  0  0  0  0  0  0  0  0  0
   16.8737   -8.2895  -11.2897 O   0  0  0  0  0  0  0  0  0  0  0  0
   16.5598   -9.4449  -13.3123 N   0  0  0  0  0  0  0  0  0  0  0  0
   17.4940   -8.5828  -13.9966 C   0  0  1  0  0  0  0  0  0  0  0  0
   17.9757   -9.3266  -15.2090 C   0  0  0  0  0  0  0  0  0  0  0  0
   18.7463  -10.5672  -14.9021 C   0  0  0  0  0  0  0  0  0  0  0  0
   18.9699  -11.2854  -16.2416 C   0  0  0  0  0  0  0  0  0  0  0  0
   19.6416  -12.6307  -15.9605 C   0  0  0  0  0  0  0  0  0  0  0  0
   19.7921  -13.3194  -17.2280 N   0  0  0  0  0  0  0  0  0  0  0  0
   16.9201   -7.2631  -14.3030 C   0  0  0  0  0  0  0  0  0  0  0  0
   15.7558   -7.0606  -14.7155 O   0  0  0  0  0  0  0  0  0  0  0  0
   15.4907   -2.2972  -14.7499 C   0  0  0  0  0  0  0  0  0  0  0  0
   15.1768   -3.4136  -13.7863 C   0  0  2  0  0  0  0  0  0  0  0  0
   14.3368   -2.9602  -12.6482 C   0  0  0  0  0  0  0  0  0  0  0  0
   16.2943   -4.2997  -13.4445 C   0  0  0  0  0  0  0  0  0  0  0  0
   17.2314   -4.7664  -14.4812 C   0  0  2  0  0  0  0  0  0  0  0  0
   17.7362   -6.1180  -14.1227 N   0  0  0  0  0  0  0  0  0  0  0  0
   18.4101   -3.9539  -14.7758 C   0  0  0  0  0  0  0  0  0  0  0  0
   18.4514   -2.8091  -15.5521 O   0  0  0  0  0  0  0  0  0  0  0  0
   19.5359   -4.2973  -14.2937 O   0  0  0  0  0  0  0  0  0  0  0  0
  2  1  1  0
  3  2  1  0
  4  5  1  0
  4  3  1  0
  5  7  1  0
  5  6  1  1
  7  8  2  0
  9 10  1  0
  9  7  1  0
 11 12  1  0
 10 11  1  6
 13 12  1  0
 13 14  1  0
 15 14  1  0
 16 10  1  0
 16 17  2  0
 19 18  1  1
 19 21  1  0
 20 19  1  0
 22 21  1  1
 22 24  1  0
 22 23  1  0
 23 16  1  0
 24 25  1  0
 26 24  2  0
M  END
$$$$
