MKL.pdb
     RDKit          3D

 26 25  0  0  1  0  0  0  0  0999 V2000
   16.0565  -13.8492  -15.7710 C   0  0  0  0  0  0  0  0  0  0  0  0
   16.8210  -15.4674  -16.1126 S   0  0  0  0  0  0  0  0  0  0  0  0
   17.9738  -15.2329  -17.4920 C   0  0  0  0  0  0  0  0  0  0  0  0
   18.8408  -14.0253  -17.2068 C   0  0  0  0  0  0  0  0  0  0  0  0
   19.7609  -13.8446  -18.3949 C   0  0  2  0  0  0  0  0  0  0  0  0
   20.8573  -14.7655  -18.2726 N   0  0  0  0  0  0  0  0  0  0  0  0
   20.2712  -12.4554  -18.3438 C   0  0  0  0  0  0  0  0  0  0  0  0
   21.2808  -12.2162  -17.6138 O   0  0  0  0  0  0  0  0  0  0  0  0
   19.6368  -11.4285  -19.0974 N   0  0  0  0  0  0  0  0  0  0  0  0
   20.1200  -10.0733  -18.9784 C   0  0  1  0  0  0  0  0  0  0  0  0
   19.6732   -9.3350  -20.2074 C   0  0  0  0  0  0  0  0  0  0  0  0
   20.2467   -9.8599  -21.4813 C   0  0  0  0  0  0  0  0  0  0  0  0
   19.5943   -9.0579  -22.6175 C   0  0  0  0  0  0  0  0  0  0  0  0
   20.0515   -9.6523  -23.9508 C   0  0  0  0  0  0  0  0  0  0  0  0
   19.3235   -8.9743  -25.0062 N   0  0  0  0  0  0  0  0  0  0  0  0
   19.6997   -9.4352  -17.7210 C   0  0  0  0  0  0  0  0  0  0  0  0
   18.6091   -9.6345  -17.1400 O   0  0  0  0  0  0  0  0  0  0  0  0
   20.4628   -7.4141  -12.8130 C   0  0  0  0  0  0  0  0  0  0  0  0
   19.8094   -8.6486  -13.3806 C   0  0  2  0  0  0  0  0  0  0  0  0
   19.8245   -9.7871  -12.4266 C   0  0  0  0  0  0  0  0  0  0  0  0
   20.1479   -8.9729  -14.7702 C   0  0  0  0  0  0  0  0  0  0  0  0
   20.2543   -7.9128  -15.7879 C   0  0  2  0  0  0  0  0  0  0  0  0
   20.5879   -8.5187  -17.1038 N   0  0  0  0  0  0  0  0  0  0  0  0
   21.2185   -6.8349  -15.5772 C   0  0  0  0  0  0  0  0  0  0  0  0
   21.0069   -5.6633  -14.8716 O   0  0  0  0  0  0  0  0  0  0  0  0
   22.3833   -6.9385  -16.0774 O   0  0  0  0  0  0  0  0  0  0  0  0
  2  1  1  0
  3  2  1  0
  4  5  1  0
  4  3  1  0
  5  7  1  0
  5  6  1  1
  7  8  2  0
  9 10  1  0
  9  7  1  0
 11 12  1  0
 10 11  1  6
 13 12  1  0
 13 14  1  0
 15 14  1  0
 16 10  1  0
 16 17  2  0
 19 18  1  1
 19 21  1  0
 20 19  1  0
 22 21  1  1
 22 24  1  0
 22 23  1  0
 23 16  1  0
 24 25  1  0
 26 24  2  0
M  END
$$$$
