MKL.pdb
     RDKit          3D

 26 25  0  0  1  0  0  0  0  0999 V2000
   24.1186  -20.4519   -8.9561 C   0  0  0  0  0  0  0  0  0  0  0  0
   25.8437  -20.9452   -9.2733 S   0  0  0  0  0  0  0  0  0  0  0  0
   25.8727  -21.7817  -10.8815 C   0  0  0  0  0  0  0  0  0  0  0  0
   25.2091  -20.8909  -11.9098 C   0  0  0  0  0  0  0  0  0  0  0  0
   25.1008  -21.6900  -13.1907 C   0  0  2  0  0  0  0  0  0  0  0  0
   26.4198  -22.0910  -13.5963 N   0  0  0  0  0  0  0  0  0  0  0  0
   24.5170  -20.7943  -14.2153 C   0  0  0  0  0  0  0  0  0  0  0  0
   25.3049  -20.2263  -15.0312 O   0  0  0  0  0  0  0  0  0  0  0  0
   23.1103  -20.5863  -14.2707 N   0  0  0  0  0  0  0  0  0  0  0  0
   22.5603  -19.8100  -15.3564 C   0  0  1  0  0  0  0  0  0  0  0  0
   21.6145  -20.7046  -16.1049 C   0  0  0  0  0  0  0  0  0  0  0  0
   20.9430  -20.0526  -17.2673 C   0  0  0  0  0  0  0  0  0  0  0  0
   19.9960  -21.1014  -17.8697 C   0  0  0  0  0  0  0  0  0  0  0  0
   19.3369  -20.4986  -19.1116 C   0  0  0  0  0  0  0  0  0  0  0  0
   18.5654  -21.5467  -19.7516 N   0  0  0  0  0  0  0  0  0  0  0  0
   21.9456  -18.5553  -14.8950 C   0  0  0  0  0  0  0  0  0  0  0  0
   21.1219  -18.4573  -13.9576 O   0  0  0  0  0  0  0  0  0  0  0  0
   22.9245  -12.4828  -15.9638 C   0  0  0  0  0  0  0  0  0  0  0  0
   22.0660  -13.5588  -15.3485 C   0  0  2  0  0  0  0  0  0  0  0  0
   21.7070  -13.2599  -13.9384 C   0  0  0  0  0  0  0  0  0  0  0  0
   22.4706  -14.9405  -15.6273 C   0  0  0  0  0  0  0  0  0  0  0  0
   21.6263  -16.0730  -15.2085 C   0  0  2  0  0  0  0  0  0  0  0  0
   22.3028  -17.3513  -15.5527 N   0  0  0  0  0  0  0  0  0  0  0  0
   20.2700  -16.1702  -15.7444 C   0  0  0  0  0  0  0  0  0  0  0  0
   19.0958  -15.8555  -15.0830 O   0  0  0  0  0  0  0  0  0  0  0  0
   20.1022  -16.5848  -16.9351 O   0  0  0  0  0  0  0  0  0  0  0  0
  2  1  1  0
  3  2  1  0
  4  5  1  0
  4  3  1  0
  5  7  1  0
  5  6  1  6
  7  8  2  0
  9 10  1  0
  9  7  1  0
 11 12  1  0
 10 11  1  1
 13 12  1  0
 13 14  1  0
 15 14  1  0
 16 10  1  0
 16 17  2  0
 19 18  1  1
 19 21  1  0
 20 19  1  0
 22 21  1  6
 22 24  1  0
 22 23  1  0
 23 16  1  0
 24 25  1  0
 26 24  2  0
M  END
$$$$
