MKL.pdb
     RDKit          3D

 26 25  0  0  1  0  0  0  0  0999 V2000
   28.6669  -20.1984  -17.6190 C   0  0  0  0  0  0  0  0  0  0  0  0
   29.8738  -19.2322  -16.6547 S   0  0  0  0  0  0  0  0  0  0  0  0
   29.0048  -17.7729  -16.0204 C   0  0  0  0  0  0  0  0  0  0  0  0
   28.2983  -18.1433  -14.7340 C   0  0  0  0  0  0  0  0  0  0  0  0
   27.1475  -19.0550  -15.1021 C   0  0  2  0  0  0  0  0  0  0  0  0
   26.4296  -18.4698  -16.2008 N   0  0  0  0  0  0  0  0  0  0  0  0
   26.2618  -19.1387  -13.9184 C   0  0  0  0  0  0  0  0  0  0  0  0
   25.6439  -18.0906  -13.5592 O   0  0  0  0  0  0  0  0  0  0  0  0
   26.1178  -20.3666  -13.2138 N   0  0  0  0  0  0  0  0  0  0  0  0
   25.2044  -20.4297  -12.0977 C   0  0  1  0  0  0  0  0  0  0  0  0
   24.0727  -21.3299  -12.5028 C   0  0  0  0  0  0  0  0  0  0  0  0
   22.7434  -20.9293  -11.9552 C   0  0  0  0  0  0  0  0  0  0  0  0
   21.7493  -21.0020  -13.1241 C   0  0  0  0  0  0  0  0  0  0  0  0
   20.3716  -20.5782  -12.6118 C   0  0  0  0  0  0  0  0  0  0  0  0
   19.4337  -20.7163  -13.7093 N   0  0  0  0  0  0  0  0  0  0  0  0
   25.8684  -20.8410  -10.8507 C   0  0  0  0  0  0  0  0  0  0  0  0
   26.7486  -21.7263  -10.7599 O   0  0  0  0  0  0  0  0  0  0  0  0
   28.7610  -20.8628   -7.1510 C   0  0  0  0  0  0  0  0  0  0  0  0
   28.0985  -19.5372   -7.4287 C   0  0  2  0  0  0  0  0  0  0  0  0
   28.6164  -18.4513   -6.5574 C   0  0  0  0  0  0  0  0  0  0  0  0
   26.6438  -19.5724   -7.6120 C   0  0  0  0  0  0  0  0  0  0  0  0
   26.0015  -20.6826   -8.3369 C   0  0  2  0  0  0  0  0  0  0  0  0
   25.4942  -20.1939   -9.6462 N   0  0  0  0  0  0  0  0  0  0  0  0
   24.8864  -21.3813   -7.7008 C   0  0  0  0  0  0  0  0  0  0  0  0
   24.9725  -22.3571   -6.7233 O   0  0  0  0  0  0  0  0  0  0  0  0
   23.6969  -21.0990   -8.0517 O   0  0  0  0  0  0  0  0  0  0  0  0
  2  1  1  0
  3  2  1  0
  4  5  1  0
  4  3  1  0
  5  7  1  0
  5  6  1  6
  7  8  2  0
  9 10  1  0
  9  7  1  0
 11 12  1  0
 10 11  1  6
 13 12  1  0
 13 14  1  0
 15 14  1  0
 16 10  1  0
 16 17  2  0
 19 18  1  1
 19 21  1  0
 20 19  1  0
 22 21  1  1
 22 24  1  0
 22 23  1  0
 23 16  1  0
 24 25  1  0
 26 24  2  0
M  END
$$$$
