MKL.pdb
     RDKit          3D

 26 25  0  0  1  0  0  0  0  0999 V2000
   33.7422  -22.5896  -10.0265 C   0  0  0  0  0  0  0  0  0  0  0  0
   34.2298  -22.9320  -11.7484 S   0  0  0  0  0  0  0  0  0  0  0  0
   32.7178  -23.3460  -12.6592 C   0  0  0  0  0  0  0  0  0  0  0  0
   31.7807  -22.1579  -12.6199 C   0  0  0  0  0  0  0  0  0  0  0  0
   30.4743  -22.5977  -13.2453 C   0  0  2  0  0  0  0  0  0  0  0  0
   30.7113  -22.9259  -14.6242 N   0  0  0  0  0  0  0  0  0  0  0  0
   29.5425  -21.4500  -13.1611 C   0  0  0  0  0  0  0  0  0  0  0  0
   29.5200  -20.7763  -12.0864 O   0  0  0  0  0  0  0  0  0  0  0  0
   28.7023  -21.1240  -14.2623 N   0  0  0  0  0  0  0  0  0  0  0  0
   27.6432  -20.1614  -14.0732 C   0  0  1  0  0  0  0  0  0  0  0  0
   27.1640  -19.7573  -15.4379 C   0  0  0  0  0  0  0  0  0  0  0  0
   28.2059  -19.1091  -16.2873 C   0  0  0  0  0  0  0  0  0  0  0  0
   27.5308  -18.7708  -17.6251 C   0  0  0  0  0  0  0  0  0  0  0  0
   28.5222  -17.9770  -18.4777 C   0  0  0  0  0  0  0  0  0  0  0  0
   27.8561  -17.6331  -19.7193 N   0  0  0  0  0  0  0  0  0  0  0  0
   26.5740  -20.6671  -13.1979 C   0  0  0  0  0  0  0  0  0  0  0  0
   26.0454  -21.7984  -13.2841 O   0  0  0  0  0  0  0  0  0  0  0  0
   25.7869  -19.2365   -7.2924 C   0  0  0  0  0  0  0  0  0  0  0  0
   25.3760  -20.1198   -8.4432 C   0  0  2  0  0  0  0  0  0  0  0  0
   25.4514  -21.5640   -8.1039 C   0  0  0  0  0  0  0  0  0  0  0  0
   25.8997  -19.7432   -9.7603 C   0  0  0  0  0  0  0  0  0  0  0  0
   25.3958  -20.3885  -10.9852 C   0  0  2  0  0  0  0  0  0  0  0  0
   26.0915  -19.8192  -12.1693 N   0  0  0  0  0  0  0  0  0  0  0  0
   23.9654  -20.3157  -11.2766 C   0  0  0  0  0  0  0  0  0  0  0  0
   22.9879  -21.1935  -10.8417 O   0  0  0  0  0  0  0  0  0  0  0  0
   23.5283  -19.3676  -12.0031 O   0  0  0  0  0  0  0  0  0  0  0  0
  2  1  1  0
  3  2  1  0
  4  5  1  0
  4  3  1  0
  5  7  1  0
  5  6  1  6
  7  8  2  0
  9 10  1  0
  9  7  1  0
 11 12  1  0
 10 11  1  6
 13 12  1  0
 13 14  1  0
 15 14  1  0
 16 10  1  0
 16 17  2  0
 19 18  1  1
 19 21  1  0
 20 19  1  0
 22 21  1  1
 22 24  1  0
 22 23  1  0
 23 16  1  0
 24 25  1  0
 26 24  2  0
M  END
$$$$
