MKL.pdb
     RDKit          3D

 26 25  0  0  1  0  0  0  0  0999 V2000
   27.5820  -18.3342   -5.9188 C   0  0  0  0  0  0  0  0  0  0  0  0
   27.5265  -20.1079   -5.5056 S   0  0  0  0  0  0  0  0  0  0  0  0
   27.7271  -21.0241   -7.0571 C   0  0  0  0  0  0  0  0  0  0  0  0
   26.8427  -20.3983   -8.1142 C   0  0  0  0  0  0  0  0  0  0  0  0
   26.9543  -21.2562   -9.3562 C   0  0  2  0  0  0  0  0  0  0  0  0
   28.3053  -21.1905   -9.8414 N   0  0  0  0  0  0  0  0  0  0  0  0
   26.0355  -20.6828  -10.3661 C   0  0  0  0  0  0  0  0  0  0  0  0
   26.1241  -19.4428  -10.6188 O   0  0  0  0  0  0  0  0  0  0  0  0
   25.0855  -21.5116  -11.0261 N   0  0  0  0  0  0  0  0  0  0  0  0
   24.5251  -21.0706  -12.2813 C   0  0  1  0  0  0  0  0  0  0  0  0
   24.8336  -22.1301  -13.2999 C   0  0  0  0  0  0  0  0  0  0  0  0
   25.9049  -21.7562  -14.2692 C   0  0  0  0  0  0  0  0  0  0  0  0
   25.9633  -22.8827  -15.3121 C   0  0  0  0  0  0  0  0  0  0  0  0
   27.0039  -22.5076  -16.3687 C   0  0  0  0  0  0  0  0  0  0  0  0
   27.1582  -23.6445  -17.2557 N   0  0  0  0  0  0  0  0  0  0  0  0
   23.0924  -20.7522  -12.1761 C   0  0  0  0  0  0  0  0  0  0  0  0
   22.2707  -21.3551  -11.4494 O   0  0  0  0  0  0  0  0  0  0  0  0
   18.8871  -17.5985  -12.0261 C   0  0  0  0  0  0  0  0  0  0  0  0
   19.7211  -17.1965  -13.2160 C   0  0  2  0  0  0  0  0  0  0  0  0
   18.9054  -17.0149  -14.4442 C   0  0  0  0  0  0  0  0  0  0  0  0
   20.9851  -17.9201  -13.3879 C   0  0  0  0  0  0  0  0  0  0  0  0
   21.1574  -19.2777  -12.8423 C   0  0  2  0  0  0  0  0  0  0  0  0
   22.5843  -19.6803  -12.9523 N   0  0  0  0  0  0  0  0  0  0  0  0
   20.3781  -20.3693  -13.4230 C   0  0  0  0  0  0  0  0  0  0  0  0
   20.7257  -21.1413  -14.5177 O   0  0  0  0  0  0  0  0  0  0  0  0
   19.2575  -20.6750  -12.9047 O   0  0  0  0  0  0  0  0  0  0  0  0
  2  1  1  0
  3  2  1  0
  4  5  1  0
  4  3  1  0
  5  7  1  0
  5  6  1  6
  7  8  2  0
  9 10  1  0
  9  7  1  0
 11 12  1  0
 10 11  1  6
 13 12  1  0
 13 14  1  0
 15 14  1  0
 16 10  1  0
 16 17  2  0
 19 18  1  1
 19 21  1  0
 20 19  1  0
 22 21  1  6
 22 24  1  0
 22 23  1  0
 23 16  1  0
 24 25  1  0
 26 24  2  0
M  END
$$$$
