KEQ.pdb
     RDKit          3D

 28 27  0  0  1  0  0  0  0  0999 V2000
   26.1661  -22.8607  -15.8667 N   0  0  0  0  0  0  0  0  0  0  0  0
   25.0441  -22.4861  -16.6315 C   0  0  1  0  0  0  0  0  0  0  0  0
   23.8573  -23.3484  -16.6037 C   0  0  0  0  0  0  0  0  0  0  0  0
   23.9592  -24.7313  -17.0473 C   0  0  0  0  0  0  0  0  0  0  0  0
   24.9849  -25.6946  -16.6741 C   0  0  0  0  0  0  0  0  0  0  0  0
   24.9895  -27.0822  -17.1488 C   0  0  0  0  0  0  0  0  0  0  0  0
   26.1735  -27.8551  -16.8464 N   0  0  0  0  0  0  0  0  0  0  0  0
   24.7055  -21.0568  -16.2693 C   0  0  0  0  0  0  0  0  0  0  0  0
   24.7254  -20.7444  -15.0658 O   0  0  0  0  0  0  0  0  0  0  0  0
   24.3833  -20.1230  -17.2447 N   0  0  0  0  0  0  0  0  0  0  0  0
   24.0214  -18.7272  -16.9592 C   0  0  1  0  0  0  0  0  0  0  0  0
   24.1898  -17.8730  -18.1509 C   0  0  0  0  0  0  0  0  0  0  0  0
   23.8877  -16.4304  -17.9015 C   0  0  0  0  0  0  0  0  0  0  0  0
   23.9715  -15.5584  -19.0811 C   0  0  0  0  0  0  0  0  0  0  0  0
   22.9767  -15.5362  -19.8503 O   0  0  0  0  0  0  0  0  0  0  0  0
   22.6155  -18.7116  -16.4737 C   0  0  0  0  0  0  0  0  0  0  0  0
   21.7790  -19.5268  -16.9083 O   0  0  0  0  0  0  0  0  0  0  0  0
   25.0454  -14.7582  -19.4252 O   0  0  0  0  0  0  0  0  0  0  0  0
   20.5249  -21.0904  -12.6630 N   0  0  0  0  0  0  0  0  0  0  0  0
   19.5817  -20.0535  -12.3869 C   0  0  0  0  0  0  0  0  0  0  0  0
   18.5098  -20.3885  -11.7877 O   0  0  0  0  0  0  0  0  0  0  0  0
   19.7941  -18.6501  -12.7501 C   0  0  0  0  0  0  0  0  0  0  0  0
   21.0268  -18.4300  -13.5263 C   0  0  0  0  0  0  0  0  0  0  0  0
   20.8227  -17.9160  -14.9001 C   0  0  2  0  0  0  0  0  0  0  0  0
   22.1769  -17.7810  -15.5098 N   0  0  0  0  0  0  0  0  0  0  0  0
   20.0980  -16.6878  -15.1027 C   0  0  0  0  0  0  0  0  0  0  0  0
   20.6933  -15.5194  -15.6077 O   0  0  0  0  0  0  0  0  0  0  0  0
   18.8681  -16.6320  -14.8107 O   0  0  0  0  0  0  0  0  0  0  0  0
  2  1  1  1
  2  3  1  0
  4  3  1  0
  4  5  1  0
  6  5  1  0
  7  6  1  0
  8  2  1  0
  8  9  2  0
 10  8  1  0
 11 10  1  0
 11 12  1  6
 13 12  1  0
 13 14  1  0
 14 15  2  0
 16 11  1  0
 17 16  2  0
 18 14  1  0
 19 20  1  0
 20 21  2  0
 22 20  1  0
 22 23  1  0
 24 23  1  1
 24 25  1  0
 24 26  1  0
 25 16  1  0
 26 27  1  0
 28 26  2  0
M  END
$$$$
