KEQ.pdb
     RDKit          3D

 28 27  0  0  1  0  0  0  0  0999 V2000
   13.7603  -12.7969  -15.0570 N   0  0  0  0  0  0  0  0  0  0  0  0
   13.6026  -12.5965  -13.6717 C   0  0  1  0  0  0  0  0  0  0  0  0
   13.4328  -13.7709  -12.8086 C   0  0  0  0  0  0  0  0  0  0  0  0
   12.7742  -14.9603  -13.3292 C   0  0  0  0  0  0  0  0  0  0  0  0
   13.2801  -15.8596  -14.3561 C   0  0  0  0  0  0  0  0  0  0  0  0
   12.5587  -17.0587  -14.7951 C   0  0  0  0  0  0  0  0  0  0  0  0
   12.2002  -18.0015  -13.7591 N   0  0  0  0  0  0  0  0  0  0  0  0
   14.7461  -11.7217  -13.2072 C   0  0  0  0  0  0  0  0  0  0  0  0
   14.9210  -11.5997  -11.9821 O   0  0  0  0  0  0  0  0  0  0  0  0
   15.5742  -11.0758  -14.1150 N   0  0  0  0  0  0  0  0  0  0  0  0
   16.7446  -10.2724  -13.7332 C   0  0  1  0  0  0  0  0  0  0  0  0
   17.7081  -10.1626  -14.8457 C   0  0  0  0  0  0  0  0  0  0  0  0
   18.9303   -9.3727  -14.5039 C   0  0  0  0  0  0  0  0  0  0  0  0
   19.9311   -9.2699  -15.5747 C   0  0  0  0  0  0  0  0  0  0  0  0
   19.9424   -8.2089  -16.2500 O   0  0  0  0  0  0  0  0  0  0  0  0
   16.2574   -8.9346  -13.3023 C   0  0  0  0  0  0  0  0  0  0  0  0
   15.3899   -8.3271  -13.9591 O   0  0  0  0  0  0  0  0  0  0  0  0
   20.8639  -10.2339  -15.9102 O   0  0  0  0  0  0  0  0  0  0  0  0
   15.3920   -7.2336   -7.4793 N   0  0  0  0  0  0  0  0  0  0  0  0
   15.2188   -6.0031   -8.1842 C   0  0  0  0  0  0  0  0  0  0  0  0
   14.8328   -4.9963   -7.5078 O   0  0  0  0  0  0  0  0  0  0  0  0
   15.4678   -5.8523   -9.6200 C   0  0  0  0  0  0  0  0  0  0  0  0
   15.9197   -7.0968  -10.2662 C   0  0  0  0  0  0  0  0  0  0  0  0
   16.2091   -6.9855  -11.7143 C   0  0  2  0  0  0  0  0  0  0  0  0
   16.7540   -8.3059  -12.1423 N   0  0  0  0  0  0  0  0  0  0  0  0
   17.0851   -5.9456  -12.1896 C   0  0  0  0  0  0  0  0  0  0  0  0
   16.6198   -4.7113  -12.6736 O   0  0  0  0  0  0  0  0  0  0  0  0
   18.3364   -6.1335  -12.1891 O   0  0  0  0  0  0  0  0  0  0  0  0
  2  1  1  6
  2  3  1  0
  4  3  1  0
  4  5  1  0
  6  5  1  0
  7  6  1  0
  8  2  1  0
  8  9  2  0
 10  8  1  0
 11 10  1  0
 11 12  1  6
 13 12  1  0
 13 14  1  0
 14 15  2  0
 16 11  1  0
 17 16  2  0
 18 14  1  0
 19 20  1  0
 20 21  2  0
 22 20  1  0
 22 23  1  0
 24 23  1  1
 24 25  1  0
 24 26  1  0
 25 16  1  0
 26 27  1  0
 28 26  2  0
M  END
$$$$
