KEQ.pdb
     RDKit          3D

 28 27  0  0  1  0  0  0  0  0999 V2000
   13.1397  -11.3573  -10.7996 N   0  0  0  0  0  0  0  0  0  0  0  0
   14.4838  -10.9699  -10.9645 C   0  0  1  0  0  0  0  0  0  0  0  0
   15.2436  -11.5348  -12.0854 C   0  0  0  0  0  0  0  0  0  0  0  0
   15.2934  -12.9782  -12.2692 C   0  0  0  0  0  0  0  0  0  0  0  0
   16.0463  -13.7038  -13.2820 C   0  0  0  0  0  0  0  0  0  0  0  0
   15.9476  -15.1557  -13.4646 C   0  0  0  0  0  0  0  0  0  0  0  0
   16.7570  -15.7214  -14.5207 N   0  0  0  0  0  0  0  0  0  0  0  0
   14.5224   -9.4575  -10.9685 C   0  0  0  0  0  0  0  0  0  0  0  0
   13.6206   -8.8571  -11.5790 O   0  0  0  0  0  0  0  0  0  0  0  0
   15.5286   -8.7604  -10.3137 N   0  0  0  0  0  0  0  0  0  0  0  0
   15.6582   -7.2962  -10.3283 C   0  0  1  0  0  0  0  0  0  0  0  0
   15.2422   -6.7062   -9.0411 C   0  0  0  0  0  0  0  0  0  0  0  0
   15.3615   -5.2168   -8.9984 C   0  0  0  0  0  0  0  0  0  0  0  0
   14.9357   -4.5887   -7.7402 C   0  0  0  0  0  0  0  0  0  0  0  0
   14.4913   -5.3479   -6.8413 O   0  0  0  0  0  0  0  0  0  0  0  0
   17.0741   -6.9678  -10.6443 C   0  0  0  0  0  0  0  0  0  0  0  0
   18.0111   -7.5792  -10.0954 O   0  0  0  0  0  0  0  0  0  0  0  0
   14.9777   -3.2370   -7.4520 O   0  0  0  0  0  0  0  0  0  0  0  0
   20.1291   -9.6882  -13.4307 N   0  0  0  0  0  0  0  0  0  0  0  0
   20.9673   -8.5401  -13.5730 C   0  0  0  0  0  0  0  0  0  0  0  0
   22.1106   -8.7184  -14.1033 O   0  0  0  0  0  0  0  0  0  0  0  0
   20.5726   -7.1940  -13.1502 C   0  0  0  0  0  0  0  0  0  0  0  0
   19.2503   -7.1518  -12.5021 C   0  0  0  0  0  0  0  0  0  0  0  0
   18.8170   -5.8128  -12.0413 C   0  0  2  0  0  0  0  0  0  0  0  0
   17.4097   -5.9593  -11.5705 N   0  0  0  0  0  0  0  0  0  0  0  0
   18.8913   -4.6897  -12.9401 C   0  0  0  0  0  0  0  0  0  0  0  0
   20.0672   -3.9491  -13.1479 O   0  0  0  0  0  0  0  0  0  0  0  0
   17.8590   -4.3290  -13.5768 O   0  0  0  0  0  0  0  0  0  0  0  0
  2  1  1  6
  2  3  1  0
  4  3  1  0
  4  5  1  0
  6  5  1  0
  7  6  1  0
  8  2  1  0
  8  9  2  0
 10  8  1  0
 11 10  1  0
 11 12  1  1
 13 12  1  0
 13 14  1  0
 14 15  2  0
 16 11  1  0
 17 16  2  0
 18 14  1  0
 19 20  1  0
 20 21  2  0
 22 20  1  0
 22 23  1  0
 24 23  1  6
 24 25  1  0
 24 26  1  0
 25 16  1  0
 26 27  1  0
 28 26  2  0
M  END
$$$$
