KEQ.pdb
     RDKit          3D

 28 27  0  0  1  0  0  0  0  0999 V2000
   28.2014  -21.0040  -16.6544 N   0  0  0  0  0  0  0  0  0  0  0  0
   27.8222  -20.0735  -15.6673 C   0  0  1  0  0  0  0  0  0  0  0  0
   27.4843  -18.7079  -16.0842 C   0  0  0  0  0  0  0  0  0  0  0  0
   27.6931  -18.3027  -17.4670 C   0  0  0  0  0  0  0  0  0  0  0  0
   26.8671  -18.6527  -18.6135 C   0  0  0  0  0  0  0  0  0  0  0  0
   27.0973  -18.1157  -19.9587 C   0  0  0  0  0  0  0  0  0  0  0  0
   27.2819  -16.6846  -20.0504 N   0  0  0  0  0  0  0  0  0  0  0  0
   26.7109  -20.7015  -14.8555 C   0  0  0  0  0  0  0  0  0  0  0  0
   25.9363  -21.4797  -15.4392 O   0  0  0  0  0  0  0  0  0  0  0  0
   26.5581  -20.4211  -13.5045 N   0  0  0  0  0  0  0  0  0  0  0  0
   25.4856  -20.9752  -12.6658 C   0  0  1  0  0  0  0  0  0  0  0  0
   25.7843  -20.8084  -11.2302 C   0  0  0  0  0  0  0  0  0  0  0  0
   24.7289  -21.3653  -10.3300 C   0  0  0  0  0  0  0  0  0  0  0  0
   25.0068  -21.2522   -8.8916 C   0  0  0  0  0  0  0  0  0  0  0  0
   24.0909  -21.5962   -8.1012 O   0  0  0  0  0  0  0  0  0  0  0  0
   24.2173  -20.2937  -13.0397 C   0  0  0  0  0  0  0  0  0  0  0  0
   24.1693  -19.0548  -13.1655 O   0  0  0  0  0  0  0  0  0  0  0  0
   26.1846  -20.8010   -8.3247 O   0  0  0  0  0  0  0  0  0  0  0  0
   21.5392  -18.3695  -16.7971 N   0  0  0  0  0  0  0  0  0  0  0  0
   20.2895  -18.9427  -16.4093 C   0  0  0  0  0  0  0  0  0  0  0  0
   19.2357  -18.4210  -16.8965 O   0  0  0  0  0  0  0  0  0  0  0  0
   20.1720  -20.0852  -15.4997 C   0  0  0  0  0  0  0  0  0  0  0  0
   21.4726  -20.5801  -15.0160 C   0  0  0  0  0  0  0  0  0  0  0  0
   21.7641  -20.2971  -13.5918 C   0  0  2  0  0  0  0  0  0  0  0  0
   23.0284  -21.0171  -13.2648 N   0  0  0  0  0  0  0  0  0  0  0  0
   20.7803  -20.6066  -12.5864 C   0  0  0  0  0  0  0  0  0  0  0  0
   19.6458  -19.8113  -12.3518 O   0  0  0  0  0  0  0  0  0  0  0  0
   20.9283  -21.6333  -11.8618 O   0  0  0  0  0  0  0  0  0  0  0  0
  2  1  1  6
  2  3  1  0
  4  3  1  0
  4  5  1  0
  6  5  1  0
  7  6  1  0
  8  2  1  0
  8  9  2  0
 10  8  1  0
 11 10  1  0
 11 12  1  1
 13 12  1  0
 13 14  1  0
 14 15  2  0
 16 11  1  0
 17 16  2  0
 18 14  1  0
 19 20  1  0
 20 21  2  0
 22 20  1  0
 22 23  1  0
 24 23  1  6
 24 25  1  0
 24 26  1  0
 25 16  1  0
 26 27  1  0
 28 26  2  0
M  END
$$$$
