KEQ.pdb
     RDKit          3D

 28 27  0  0  1  0  0  0  0  0999 V2000
   21.5293  -15.9932  -16.8004 N   0  0  0  0  0  0  0  0  0  0  0  0
   21.2678  -14.7148  -17.3309 C   0  0  1  0  0  0  0  0  0  0  0  0
   19.8827  -14.3648  -17.6654 C   0  0  0  0  0  0  0  0  0  0  0  0
   19.1159  -15.2242  -18.5560 C   0  0  0  0  0  0  0  0  0  0  0  0
   17.7950  -14.9550  -19.1056 C   0  0  0  0  0  0  0  0  0  0  0  0
   17.0877  -15.8931  -19.9833 C   0  0  0  0  0  0  0  0  0  0  0  0
   15.7923  -15.4647  -20.4619 N   0  0  0  0  0  0  0  0  0  0  0  0
   21.8911  -13.7006  -16.3973 C   0  0  0  0  0  0  0  0  0  0  0  0
   21.6405  -13.8005  -15.1834 O   0  0  0  0  0  0  0  0  0  0  0  0
   22.7155  -12.6915  -16.8761 N   0  0  0  0  0  0  0  0  0  0  0  0
   23.3455  -11.6714  -16.0255 C   0  0  1  0  0  0  0  0  0  0  0  0
   24.8135  -11.6769  -16.1761 C   0  0  0  0  0  0  0  0  0  0  0  0
   25.5039  -10.6358  -15.3551 C   0  0  0  0  0  0  0  0  0  0  0  0
   26.9633  -10.5767  -15.5141 C   0  0  0  0  0  0  0  0  0  0  0  0
   27.5748   -9.6833  -14.8738 O   0  0  0  0  0  0  0  0  0  0  0  0
   22.7664  -10.3515  -16.3931 C   0  0  0  0  0  0  0  0  0  0  0  0
   22.7205   -9.9812  -17.5821 O   0  0  0  0  0  0  0  0  0  0  0  0
   27.7291  -11.4139  -16.3046 O   0  0  0  0  0  0  0  0  0  0  0  0
   17.3864   -8.4680  -15.7402 N   0  0  0  0  0  0  0  0  0  0  0  0
   18.0204   -7.2019  -15.9295 C   0  0  0  0  0  0  0  0  0  0  0  0
   17.2630   -6.1866  -16.0546 O   0  0  0  0  0  0  0  0  0  0  0  0
   19.4740   -7.0253  -15.9778 C   0  0  0  0  0  0  0  0  0  0  0  0
   20.2198   -8.2800  -15.7784 C   0  0  0  0  0  0  0  0  0  0  0  0
   21.6944   -8.1500  -15.8209 C   0  0  2  0  0  0  0  0  0  0  0  0
   22.2503   -9.4737  -15.4180 N   0  0  0  0  0  0  0  0  0  0  0  0
   22.3429   -7.1202  -15.0504 C   0  0  0  0  0  0  0  0  0  0  0  0
   22.6434   -5.8487  -15.5676 O   0  0  0  0  0  0  0  0  0  0  0  0
   22.6753   -7.3517  -13.8517 O   0  0  0  0  0  0  0  0  0  0  0  0
  2  1  1  1
  2  3  1  0
  4  3  1  0
  4  5  1  0
  6  5  1  0
  7  6  1  0
  8  2  1  0
  8  9  2  0
 10  8  1  0
 11 10  1  0
 11 12  1  6
 13 12  1  0
 13 14  1  0
 14 15  2  0
 16 11  1  0
 17 16  2  0
 18 14  1  0
 19 20  1  0
 20 21  2  0
 22 20  1  0
 22 23  1  0
 24 23  1  1
 24 25  1  0
 24 26  1  0
 25 16  1  0
 26 27  1  0
 28 26  2  0
M  END
$$$$
