KEQ.pdb
     RDKit          3D

 28 27  0  0  1  0  0  0  0  0999 V2000
   28.3472  -21.4603  -16.4866 N   0  0  0  0  0  0  0  0  0  0  0  0
   27.6958  -20.3440  -15.9266 C   0  0  1  0  0  0  0  0  0  0  0  0
   27.2775  -19.2565  -16.8182 C   0  0  0  0  0  0  0  0  0  0  0  0
   27.6572  -19.2885  -18.2234 C   0  0  0  0  0  0  0  0  0  0  0  0
   28.6374  -18.4376  -18.8825 C   0  0  0  0  0  0  0  0  0  0  0  0
   28.9052  -18.4939  -20.3233 C   0  0  0  0  0  0  0  0  0  0  0  0
   29.9409  -17.6122  -20.8138 N   0  0  0  0  0  0  0  0  0  0  0  0
   26.5419  -20.8618  -15.0965 C   0  0  0  0  0  0  0  0  0  0  0  0
   25.6844  -21.5580  -15.6678 O   0  0  0  0  0  0  0  0  0  0  0  0
   26.4408  -20.5719  -13.7426 N   0  0  0  0  0  0  0  0  0  0  0  0
   25.3195  -20.9968  -12.8923 C   0  0  1  0  0  0  0  0  0  0  0  0
   25.5867  -20.7145  -11.4686 C   0  0  0  0  0  0  0  0  0  0  0  0
   24.4432  -21.0505  -10.5663 C   0  0  0  0  0  0  0  0  0  0  0  0
   24.7034  -20.8747   -9.1310 C   0  0  0  0  0  0  0  0  0  0  0  0
   25.7553  -20.2652   -8.8087 O   0  0  0  0  0  0  0  0  0  0  0  0
   24.0973  -20.2934  -13.3656 C   0  0  0  0  0  0  0  0  0  0  0  0
   24.1754  -19.1904  -13.9404 O   0  0  0  0  0  0  0  0  0  0  0  0
   23.8974  -21.3187   -8.0988 O   0  0  0  0  0  0  0  0  0  0  0  0
   19.2463  -20.1518  -16.5082 N   0  0  0  0  0  0  0  0  0  0  0  0
   20.2114  -21.1998  -16.6138 C   0  0  0  0  0  0  0  0  0  0  0  0
   19.9442  -22.1568  -17.4093 O   0  0  0  0  0  0  0  0  0  0  0  0
   21.4716  -21.2161  -15.8667 C   0  0  0  0  0  0  0  0  0  0  0  0
   21.7185  -19.9735  -15.1148 C   0  0  0  0  0  0  0  0  0  0  0  0
   21.6059  -20.0948  -13.6431 C   0  0  2  0  0  0  0  0  0  0  0  0
   22.8116  -20.8427  -13.1841 N   0  0  0  0  0  0  0  0  0  0  0  0
   20.4350  -20.7017  -13.0641 C   0  0  0  0  0  0  0  0  0  0  0  0
   19.1458  -20.1571  -13.1904 O   0  0  0  0  0  0  0  0  0  0  0  0
   20.5495  -21.7716  -12.3983 O   0  0  0  0  0  0  0  0  0  0  0  0
  2  1  1  6
  2  3  1  0
  4  3  1  0
  4  5  1  0
  6  5  1  0
  7  6  1  0
  8  2  1  0
  8  9  2  0
 10  8  1  0
 11 10  1  0
 11 12  1  1
 13 12  1  0
 13 14  1  0
 14 15  2  0
 16 11  1  0
 17 16  2  0
 18 14  1  0
 19 20  1  0
 20 21  2  0
 22 20  1  0
 22 23  1  0
 24 23  1  6
 24 25  1  0
 24 26  1  0
 25 16  1  0
 26 27  1  0
 28 26  2  0
M  END
$$$$
