KEQ.pdb
     RDKit          3D

 28 27  0  0  1  0  0  0  0  0999 V2000
   27.7732  -20.3999  -15.8266 N   0  0  0  0  0  0  0  0  0  0  0  0
   26.8047  -19.8606  -16.6957 C   0  0  1  0  0  0  0  0  0  0  0  0
   26.3822  -20.6558  -17.8542 C   0  0  0  0  0  0  0  0  0  0  0  0
   26.3841  -22.1094  -17.7715 C   0  0  0  0  0  0  0  0  0  0  0  0
   27.2426  -23.0247  -18.5093 C   0  0  0  0  0  0  0  0  0  0  0  0
   27.0989  -24.4828  -18.4455 C   0  0  0  0  0  0  0  0  0  0  0  0
   28.0863  -25.2526  -19.1687 N   0  0  0  0  0  0  0  0  0  0  0  0
   25.6251  -19.4332  -15.8505 C   0  0  0  0  0  0  0  0  0  0  0  0
   25.7487  -19.4875  -14.6143 O   0  0  0  0  0  0  0  0  0  0  0  0
   24.4433  -18.9944  -16.4318 N   0  0  0  0  0  0  0  0  0  0  0  0
   23.2743  -18.5319  -15.6699 C   0  0  1  0  0  0  0  0  0  0  0  0
   22.2971  -17.8530  -16.5429 C   0  0  0  0  0  0  0  0  0  0  0  0
   21.1106  -17.3155  -15.8096 C   0  0  0  0  0  0  0  0  0  0  0  0
   20.0533  -16.7474  -16.6569 C   0  0  0  0  0  0  0  0  0  0  0  0
   18.8631  -16.9697  -16.3163 O   0  0  0  0  0  0  0  0  0  0  0  0
   22.6726  -19.7142  -14.9972 C   0  0  0  0  0  0  0  0  0  0  0  0
   23.0202  -20.8711  -15.3038 O   0  0  0  0  0  0  0  0  0  0  0  0
   20.2454  -15.9894  -17.7974 O   0  0  0  0  0  0  0  0  0  0  0  0
   24.5985  -20.5895   -9.8137 N   0  0  0  0  0  0  0  0  0  0  0  0
   24.6136  -21.6150  -10.8082 C   0  0  0  0  0  0  0  0  0  0  0  0
   25.3441  -22.6325  -10.5815 O   0  0  0  0  0  0  0  0  0  0  0  0
   23.8356  -21.5500  -12.0479 C   0  0  0  0  0  0  0  0  0  0  0  0
   23.0663  -20.3014  -12.1874 C   0  0  0  0  0  0  0  0  0  0  0  0
   21.7220  -20.4537  -12.7897 C   0  0  2  0  0  0  0  0  0  0  0  0
   21.6926  -19.5739  -13.9934 N   0  0  0  0  0  0  0  0  0  0  0  0
   20.5496  -20.1921  -11.9949 C   0  0  0  0  0  0  0  0  0  0  0  0
   19.9826  -21.1412  -11.1276 O   0  0  0  0  0  0  0  0  0  0  0  0
   19.9810  -19.0644  -12.0716 O   0  0  0  0  0  0  0  0  0  0  0  0
  2  1  1  1
  2  3  1  0
  4  3  1  0
  4  5  1  0
  6  5  1  0
  7  6  1  0
  8  2  1  0
  8  9  2  0
 10  8  1  0
 11 10  1  0
 11 12  1  6
 13 12  1  0
 13 14  1  0
 14 15  2  0
 16 11  1  0
 17 16  2  0
 18 14  1  0
 19 20  1  0
 20 21  2  0
 22 20  1  0
 22 23  1  0
 24 23  1  1
 24 25  1  0
 24 26  1  0
 25 16  1  0
 26 27  1  0
 28 26  2  0
M  END
$$$$
