KEQ.pdb
     RDKit          3D

 28 27  0  0  1  0  0  0  0  0999 V2000
   17.0709  -12.3652  -14.4122 N   0  0  0  0  0  0  0  0  0  0  0  0
   17.1235  -11.3706  -15.4082 C   0  0  1  0  0  0  0  0  0  0  0  0
   16.0044  -11.2631  -16.3511 C   0  0  0  0  0  0  0  0  0  0  0  0
   15.2971  -12.4640  -16.7720 C   0  0  0  0  0  0  0  0  0  0  0  0
   14.2443  -12.5512  -17.7736 C   0  0  0  0  0  0  0  0  0  0  0  0
   13.6155  -13.8171  -18.1647 C   0  0  0  0  0  0  0  0  0  0  0  0
   12.6723  -13.7487  -19.2585 N   0  0  0  0  0  0  0  0  0  0  0  0
   17.4027  -10.0532  -14.7190 C   0  0  0  0  0  0  0  0  0  0  0  0
   16.6819   -9.7399  -13.7554 O   0  0  0  0  0  0  0  0  0  0  0  0
   18.4282   -9.2200  -15.1450 N   0  0  0  0  0  0  0  0  0  0  0  0
   18.7792   -7.9494  -14.4944 C   0  0  1  0  0  0  0  0  0  0  0  0
   20.1999   -7.6107  -14.7063 C   0  0  0  0  0  0  0  0  0  0  0  0
   20.6471   -6.4023  -13.9486 C   0  0  0  0  0  0  0  0  0  0  0  0
   22.0680   -6.0587  -14.0967 C   0  0  0  0  0  0  0  0  0  0  0  0
   22.7638   -6.8004  -14.8368 O   0  0  0  0  0  0  0  0  0  0  0  0
   17.8821   -6.8957  -15.0401 C   0  0  0  0  0  0  0  0  0  0  0  0
   17.6604   -6.8143  -16.2637 O   0  0  0  0  0  0  0  0  0  0  0  0
   22.7131   -4.9933  -13.4962 O   0  0  0  0  0  0  0  0  0  0  0  0
   12.7977   -6.0342  -15.6926 N   0  0  0  0  0  0  0  0  0  0  0  0
   12.8645   -4.6912  -15.2101 C   0  0  0  0  0  0  0  0  0  0  0  0
   11.9085   -3.9127  -15.5265 O   0  0  0  0  0  0  0  0  0  0  0  0
   13.9594   -4.1848  -14.3787 C   0  0  0  0  0  0  0  0  0  0  0  0
   14.9956   -5.1949  -14.1024 C   0  0  0  0  0  0  0  0  0  0  0  0
   16.2959   -4.9630  -14.7723 C   0  0  2  0  0  0  0  0  0  0  0  0
   17.2520   -5.9544  -14.2008 N   0  0  0  0  0  0  0  0  0  0  0  0
   16.8996   -3.6561  -14.7265 C   0  0  0  0  0  0  0  0  0  0  0  0
   18.1369   -3.4031  -14.1103 O   0  0  0  0  0  0  0  0  0  0  0  0
   16.3017   -2.6723  -15.2515 O   0  0  0  0  0  0  0  0  0  0  0  0
  2  1  1  1
  2  3  1  0
  4  3  1  0
  4  5  1  0
  6  5  1  0
  7  6  1  0
  8  2  1  0
  8  9  2  0
 10  8  1  0
 11 10  1  0
 11 12  1  6
 13 12  1  0
 13 14  1  0
 14 15  2  0
 16 11  1  0
 17 16  2  0
 18 14  1  0
 19 20  1  0
 20 21  2  0
 22 20  1  0
 22 23  1  0
 24 23  1  1
 24 25  1  0
 24 26  1  0
 25 16  1  0
 26 27  1  0
 28 26  2  0
M  END
$$$$
