KEQ.pdb
     RDKit          3D

 28 27  0  0  1  0  0  0  0  0999 V2000
   21.6005  -13.5449  -16.0460 N   0  0  0  0  0  0  0  0  0  0  0  0
   21.3515  -13.1725  -17.3814 C   0  0  1  0  0  0  0  0  0  0  0  0
   20.6514  -14.1212  -18.2547 C   0  0  0  0  0  0  0  0  0  0  0  0
   20.4360  -15.4900  -17.8079 C   0  0  0  0  0  0  0  0  0  0  0  0
   21.1476  -16.1834  -16.7439 C   0  0  0  0  0  0  0  0  0  0  0  0
   20.8687  -17.5735  -16.3691 C   0  0  0  0  0  0  0  0  0  0  0  0
   19.4774  -17.9127  -16.1698 N   0  0  0  0  0  0  0  0  0  0  0  0
   20.6648  -11.8247  -17.3555 C   0  0  0  0  0  0  0  0  0  0  0  0
   20.3492  -11.3149  -18.4450 O   0  0  0  0  0  0  0  0  0  0  0  0
   20.3944  -11.1764  -16.1582 N   0  0  0  0  0  0  0  0  0  0  0  0
   19.7647   -9.8514  -16.0644 C   0  0  1  0  0  0  0  0  0  0  0  0
   18.5293   -9.8985  -15.2585 C   0  0  0  0  0  0  0  0  0  0  0  0
   17.3108  -10.2500  -16.0498 C   0  0  0  0  0  0  0  0  0  0  0  0
   16.0679  -10.3587  -15.2738 C   0  0  0  0  0  0  0  0  0  0  0  0
   15.6425  -11.5170  -15.0305 O   0  0  0  0  0  0  0  0  0  0  0  0
   20.7605   -8.9146  -15.4783 C   0  0  0  0  0  0  0  0  0  0  0  0
   21.4921   -9.2671  -14.5331 O   0  0  0  0  0  0  0  0  0  0  0  0
   15.3202   -9.3031  -14.7852 O   0  0  0  0  0  0  0  0  0  0  0  0
   24.0271   -4.9018  -18.7576 N   0  0  0  0  0  0  0  0  0  0  0  0
   24.3742   -4.5556  -17.4158 C   0  0  0  0  0  0  0  0  0  0  0  0
   25.3080   -3.7049  -17.2590 O   0  0  0  0  0  0  0  0  0  0  0  0
   23.7106   -5.1205  -16.2380 C   0  0  0  0  0  0  0  0  0  0  0  0
   22.6614   -6.0984  -16.5743 C   0  0  0  0  0  0  0  0  0  0  0  0
   21.9819   -6.7176  -15.4131 C   0  0  2  0  0  0  0  0  0  0  0  0
   20.9148   -7.6007  -15.9654 N   0  0  0  0  0  0  0  0  0  0  0  0
   21.4085   -5.8800  -14.3912 C   0  0  0  0  0  0  0  0  0  0  0  0
   22.1582   -5.3351  -13.3350 O   0  0  0  0  0  0  0  0  0  0  0  0
   20.1714   -5.6161  -14.4203 O   0  0  0  0  0  0  0  0  0  0  0  0
  2  1  1  1
  2  3  1  0
  4  3  1  0
  4  5  1  0
  6  5  1  0
  7  6  1  0
  8  2  1  0
  8  9  2  0
 10  8  1  0
 11 10  1  0
 11 12  1  1
 13 12  1  0
 13 14  1  0
 14 15  2  0
 16 11  1  0
 17 16  2  0
 18 14  1  0
 19 20  1  0
 20 21  2  0
 22 20  1  0
 22 23  1  0
 24 23  1  6
 24 25  1  0
 24 26  1  0
 25 16  1  0
 26 27  1  0
 28 26  2  0
M  END
$$$$
