KEQ.pdb
     RDKit          3D

 28 27  0  0  1  0  0  0  0  0999 V2000
   16.4610  -14.2366  -14.9322 N   0  0  0  0  0  0  0  0  0  0  0  0
   16.5255  -13.1565  -15.8340 C   0  0  1  0  0  0  0  0  0  0  0  0
   15.2915  -12.4243  -16.1399 C   0  0  0  0  0  0  0  0  0  0  0  0
   14.0967  -13.1563  -16.5353 C   0  0  0  0  0  0  0  0  0  0  0  0
   12.9859  -13.5429  -15.6774 C   0  0  0  0  0  0  0  0  0  0  0  0
   11.7789  -14.2058  -16.1820 C   0  0  0  0  0  0  0  0  0  0  0  0
   10.7998  -14.5884  -15.1892 N   0  0  0  0  0  0  0  0  0  0  0  0
   17.6211  -12.2302  -15.3541 C   0  0  0  0  0  0  0  0  0  0  0  0
   17.7209  -12.0372  -14.1297 O   0  0  0  0  0  0  0  0  0  0  0  0
   18.4877  -11.6152  -16.2474 N   0  0  0  0  0  0  0  0  0  0  0  0
   19.6681  -10.8373  -15.8445 C   0  0  1  0  0  0  0  0  0  0  0  0
   20.8765  -11.2796  -16.5673 C   0  0  0  0  0  0  0  0  0  0  0  0
   22.1117  -10.5303  -16.1839 C   0  0  0  0  0  0  0  0  0  0  0  0
   23.3475  -10.9797  -16.8394 C   0  0  0  0  0  0  0  0  0  0  0  0
   23.3060  -12.0778  -17.4514 O   0  0  0  0  0  0  0  0  0  0  0  0
   19.3764   -9.4015  -16.1014 C   0  0  0  0  0  0  0  0  0  0  0  0
   18.8104   -9.0411  -17.1515 O   0  0  0  0  0  0  0  0  0  0  0  0
   24.5552  -10.3063  -16.8456 O   0  0  0  0  0  0  0  0  0  0  0  0
   16.5471   -5.8402  -17.2637 N   0  0  0  0  0  0  0  0  0  0  0  0
   16.9351   -4.8732  -16.2863 C   0  0  0  0  0  0  0  0  0  0  0  0
   16.4675   -3.6966  -16.4167 O   0  0  0  0  0  0  0  0  0  0  0  0
   17.8236   -5.1736  -15.1608 C   0  0  0  0  0  0  0  0  0  0  0  0
   18.1652   -6.6027  -15.0542 C   0  0  0  0  0  0  0  0  0  0  0  0
   19.5265   -6.9610  -15.5143 C   0  0  2  0  0  0  0  0  0  0  0  0
   19.7262   -8.3990  -15.1739 N   0  0  0  0  0  0  0  0  0  0  0  0
   20.6609   -6.2101  -15.0412 C   0  0  0  0  0  0  0  0  0  0  0  0
   21.6864   -6.7759  -14.2648 O   0  0  0  0  0  0  0  0  0  0  0  0
   20.7553   -4.9790  -15.3178 O   0  0  0  0  0  0  0  0  0  0  0  0
  2  1  1  1
  2  3  1  0
  4  3  1  0
  4  5  1  0
  6  5  1  0
  7  6  1  0
  8  2  1  0
  8  9  2  0
 10  8  1  0
 11 10  1  0
 11 12  1  6
 13 12  1  0
 13 14  1  0
 14 15  2  0
 16 11  1  0
 17 16  2  0
 18 14  1  0
 19 20  1  0
 20 21  2  0
 22 20  1  0
 22 23  1  0
 24 23  1  1
 24 25  1  0
 24 26  1  0
 25 16  1  0
 26 27  1  0
 28 26  2  0
M  END
$$$$
