KEQ.pdb
     RDKit          3D

 28 27  0  0  1  0  0  0  0  0999 V2000
   18.6803  -13.4575  -15.6448 N   0  0  0  0  0  0  0  0  0  0  0  0
   18.0734  -12.2655  -16.0861 C   0  0  1  0  0  0  0  0  0  0  0  0
   16.6319  -12.0928  -15.8739 C   0  0  0  0  0  0  0  0  0  0  0  0
   15.7018  -13.0858  -16.3923 C   0  0  0  0  0  0  0  0  0  0  0  0
   14.2479  -13.0192  -16.3632 C   0  0  0  0  0  0  0  0  0  0  0  0
   13.3880  -14.0656  -16.9258 C   0  0  0  0  0  0  0  0  0  0  0  0
   11.9631  -13.8405  -16.8275 N   0  0  0  0  0  0  0  0  0  0  0  0
   18.8656  -11.1130  -15.5092 C   0  0  0  0  0  0  0  0  0  0  0  0
   18.3935  -10.5230  -14.5216 O   0  0  0  0  0  0  0  0  0  0  0  0
   20.0789  -10.7247  -16.0609 N   0  0  0  0  0  0  0  0  0  0  0  0
   20.8602   -9.5687  -15.5981 C   0  0  1  0  0  0  0  0  0  0  0  0
   22.2922   -9.7234  -15.9199 C   0  0  0  0  0  0  0  0  0  0  0  0
   23.1344   -8.5723  -15.4725 C   0  0  0  0  0  0  0  0  0  0  0  0
   24.5649   -8.6802  -15.7902 C   0  0  0  0  0  0  0  0  0  0  0  0
   25.0939   -7.7109  -16.3924 O   0  0  0  0  0  0  0  0  0  0  0  0
   20.2893   -8.3502  -16.2322 C   0  0  0  0  0  0  0  0  0  0  0  0
   19.7331   -8.4088  -17.3459 O   0  0  0  0  0  0  0  0  0  0  0  0
   25.3856   -9.7514  -15.4884 O   0  0  0  0  0  0  0  0  0  0  0  0
   15.5006   -6.9449  -16.6383 N   0  0  0  0  0  0  0  0  0  0  0  0
   15.9578   -5.6247  -16.9362 C   0  0  0  0  0  0  0  0  0  0  0  0
   15.0825   -4.7765  -17.3032 O   0  0  0  0  0  0  0  0  0  0  0  0
   17.3599   -5.2125  -16.8329 C   0  0  0  0  0  0  0  0  0  0  0  0
   18.2589   -6.3047  -16.4216 C   0  0  0  0  0  0  0  0  0  0  0  0
   19.6715   -5.9128  -16.2121 C   0  0  2  0  0  0  0  0  0  0  0  0
   20.3543   -7.0904  -15.6030 N   0  0  0  0  0  0  0  0  0  0  0  0
   19.9796   -4.7424  -15.4311 C   0  0  0  0  0  0  0  0  0  0  0  0
   20.7628   -4.7818  -14.2651 O   0  0  0  0  0  0  0  0  0  0  0  0
   19.5270   -3.6158  -15.7875 O   0  0  0  0  0  0  0  0  0  0  0  0
  2  1  1  1
  2  3  1  0
  4  3  1  0
  4  5  1  0
  6  5  1  0
  7  6  1  0
  8  2  1  0
  8  9  2  0
 10  8  1  0
 11 10  1  0
 11 12  1  6
 13 12  1  0
 13 14  1  0
 14 15  2  0
 16 11  1  0
 17 16  2  0
 18 14  1  0
 19 20  1  0
 20 21  2  0
 22 20  1  0
 22 23  1  0
 24 23  1  1
 24 25  1  0
 24 26  1  0
 25 16  1  0
 26 27  1  0
 28 26  2  0
M  END
$$$$
