KEQ.pdb
     RDKit          3D

 28 27  0  0  1  0  0  0  0  0999 V2000
   25.8741  -21.1048  -17.9269 N   0  0  0  0  0  0  0  0  0  0  0  0
   25.6885  -19.9766  -17.1043 C   0  0  1  0  0  0  0  0  0  0  0  0
   26.5973  -18.8358  -17.2636 C   0  0  0  0  0  0  0  0  0  0  0  0
   26.6209  -18.1016  -18.5207 C   0  0  0  0  0  0  0  0  0  0  0  0
   27.5152  -17.0097  -18.8773 C   0  0  0  0  0  0  0  0  0  0  0  0
   27.4965  -16.3572  -20.1906 C   0  0  0  0  0  0  0  0  0  0  0  0
   28.4978  -15.3375  -20.4097 N   0  0  0  0  0  0  0  0  0  0  0  0
   24.2397  -19.5589  -17.2279 C   0  0  0  0  0  0  0  0  0  0  0  0
   23.8205  -19.2507  -18.3574 O   0  0  0  0  0  0  0  0  0  0  0  0
   23.4037  -19.5202  -16.1203 N   0  0  0  0  0  0  0  0  0  0  0  0
   22.0038  -19.0737  -16.1620 C   0  0  1  0  0  0  0  0  0  0  0  0
   21.1891  -19.7610  -15.1412 C   0  0  0  0  0  0  0  0  0  0  0  0
   19.7527  -19.3471  -15.1428 C   0  0  0  0  0  0  0  0  0  0  0  0
   18.8979  -20.0422  -14.1707 C   0  0  0  0  0  0  0  0  0  0  0  0
   17.7234  -19.6149  -14.0303 O   0  0  0  0  0  0  0  0  0  0  0  0
   21.9902  -17.5993  -15.9657 C   0  0  0  0  0  0  0  0  0  0  0  0
   22.5483  -17.0795  -14.9801 O   0  0  0  0  0  0  0  0  0  0  0  0
   19.2659  -21.1250  -13.3934 O   0  0  0  0  0  0  0  0  0  0  0  0
   23.8272  -13.6897  -19.9370 N   0  0  0  0  0  0  0  0  0  0  0  0
   23.1710  -12.8091  -19.0234 C   0  0  0  0  0  0  0  0  0  0  0  0
   23.3239  -11.5594  -19.2107 O   0  0  0  0  0  0  0  0  0  0  0  0
   22.3418  -13.2731  -17.9082 C   0  0  0  0  0  0  0  0  0  0  0  0
   22.1876  -14.7376  -17.8676 C   0  0  0  0  0  0  0  0  0  0  0  0
   21.4365  -15.2599  -16.7030 C   0  0  2  0  0  0  0  0  0  0  0  0
   21.3502  -16.7380  -16.8801 N   0  0  0  0  0  0  0  0  0  0  0  0
   20.1209  -14.7494  -16.4145 C   0  0  0  0  0  0  0  0  0  0  0  0
   19.8985  -13.5227  -15.7661 O   0  0  0  0  0  0  0  0  0  0  0  0
   19.1023  -15.4243  -16.7431 O   0  0  0  0  0  0  0  0  0  0  0  0
  2  1  1  6
  2  3  1  0
  4  3  1  0
  4  5  1  0
  6  5  1  0
  7  6  1  0
  8  2  1  0
  8  9  2  0
 10  8  1  0
 11 10  1  0
 11 12  1  1
 13 12  1  0
 13 14  1  0
 14 15  2  0
 16 11  1  0
 17 16  2  0
 18 14  1  0
 19 20  1  0
 20 21  2  0
 22 20  1  0
 22 23  1  0
 24 23  1  6
 24 25  1  0
 24 26  1  0
 25 16  1  0
 26 27  1  0
 28 26  2  0
M  END
$$$$
