KEQ.pdb
     RDKit          3D

 28 27  0  0  1  0  0  0  0  0999 V2000
   24.3008  -15.9978  -20.2408 N   0  0  0  0  0  0  0  0  0  0  0  0
   23.4767  -15.9506  -19.0995 C   0  0  1  0  0  0  0  0  0  0  0  0
   22.1629  -15.3067  -19.2098 C   0  0  0  0  0  0  0  0  0  0  0  0
   22.0666  -13.8542  -19.1872 C   0  0  0  0  0  0  0  0  0  0  0  0
   21.8026  -13.0147  -18.0275 C   0  0  0  0  0  0  0  0  0  0  0  0
   21.6445  -11.5592  -18.1133 C   0  0  0  0  0  0  0  0  0  0  0  0
   21.2891  -10.8835  -16.8854 N   0  0  0  0  0  0  0  0  0  0  0  0
   23.3652  -17.3604  -18.5623 C   0  0  0  0  0  0  0  0  0  0  0  0
   22.5671  -18.1320  -19.1227 O   0  0  0  0  0  0  0  0  0  0  0  0
   24.1268  -17.7820  -17.4808 N   0  0  0  0  0  0  0  0  0  0  0  0
   24.0925  -19.1455  -16.9327 C   0  0  1  0  0  0  0  0  0  0  0  0
   25.4533  -19.6604  -16.6852 C   0  0  0  0  0  0  0  0  0  0  0  0
   25.4844  -21.0969  -16.2728 C   0  0  0  0  0  0  0  0  0  0  0  0
   26.8209  -21.6426  -15.9989 C   0  0  0  0  0  0  0  0  0  0  0  0
   27.7813  -20.8305  -15.9881 O   0  0  0  0  0  0  0  0  0  0  0  0
   23.2880  -19.1132  -15.6820 C   0  0  0  0  0  0  0  0  0  0  0  0
   23.3728  -18.1542  -14.8907 O   0  0  0  0  0  0  0  0  0  0  0  0
   27.1218  -22.9694  -15.7519 O   0  0  0  0  0  0  0  0  0  0  0  0
   17.7804  -21.9642  -15.0342 N   0  0  0  0  0  0  0  0  0  0  0  0
   18.0126  -21.3835  -13.7498 C   0  0  0  0  0  0  0  0  0  0  0  0
   17.0682  -21.4585  -12.8997 O   0  0  0  0  0  0  0  0  0  0  0  0
   19.2669  -20.7256  -13.3752 C   0  0  0  0  0  0  0  0  0  0  0  0
   20.2436  -20.6644  -14.4765 C   0  0  0  0  0  0  0  0  0  0  0  0
   21.5464  -20.0516  -14.1297 C   0  0  2  0  0  0  0  0  0  0  0  0
   22.4041  -20.1585  -15.3449 N   0  0  0  0  0  0  0  0  0  0  0  0
   22.2862  -20.5409  -12.9948 C   0  0  0  0  0  0  0  0  0  0  0  0
   22.1050  -20.0501  -11.6906 O   0  0  0  0  0  0  0  0  0  0  0  0
   23.1520  -21.4492  -13.1572 O   0  0  0  0  0  0  0  0  0  0  0  0
  2  1  1  6
  2  3  1  0
  4  3  1  0
  4  5  1  0
  6  5  1  0
  7  6  1  0
  8  2  1  0
  8  9  2  0
 10  8  1  0
 11 10  1  0
 11 12  1  1
 13 12  1  0
 13 14  1  0
 14 15  2  0
 16 11  1  0
 17 16  2  0
 18 14  1  0
 19 20  1  0
 20 21  2  0
 22 20  1  0
 22 23  1  0
 24 23  1  6
 24 25  1  0
 24 26  1  0
 25 16  1  0
 26 27  1  0
 28 26  2  0
M  END
$$$$
