KEQ.pdb
     RDKit          3D

 28 27  0  0  1  0  0  0  0  0999 V2000
   25.6960  -35.3131   -9.5746 N   0  0  0  0  0  0  0  0  0  0  0  0
   25.4487  -34.6087   -8.3802 C   0  0  1  0  0  0  0  0  0  0  0  0
   24.0569  -34.3959   -7.9674 C   0  0  0  0  0  0  0  0  0  0  0  0
   23.1593  -33.6315   -8.8216 C   0  0  0  0  0  0  0  0  0  0  0  0
   21.8093  -33.1929   -8.4985 C   0  0  0  0  0  0  0  0  0  0  0  0
   20.9739  -32.4253   -9.4279 C   0  0  0  0  0  0  0  0  0  0  0  0
   19.7392  -31.8998   -8.8894 N   0  0  0  0  0  0  0  0  0  0  0  0
   26.2613  -35.2688   -7.2882 C   0  0  0  0  0  0  0  0  0  0  0  0
   26.2920  -36.5116   -7.2604 O   0  0  0  0  0  0  0  0  0  0  0  0
   26.9507  -34.5158   -6.3475 N   0  0  0  0  0  0  0  0  0  0  0  0
   27.5349  -35.0706   -5.1180 C   0  0  1  0  0  0  0  0  0  0  0  0
   28.5145  -34.1421   -4.5210 C   0  0  0  0  0  0  0  0  0  0  0  0
   29.1412  -34.6581   -3.2659 C   0  0  0  0  0  0  0  0  0  0  0  0
   30.1837  -33.8003   -2.6860 C   0  0  0  0  0  0  0  0  0  0  0  0
   31.2051  -34.3707   -2.2241 O   0  0  0  0  0  0  0  0  0  0  0  0
   26.4209  -35.3640   -4.1770 C   0  0  0  0  0  0  0  0  0  0  0  0
   25.2444  -35.0728   -4.4669 O   0  0  0  0  0  0  0  0  0  0  0  0
   30.1459  -32.4207   -2.6003 O   0  0  0  0  0  0  0  0  0  0  0  0
   21.0605  -36.9694   -2.1986 N   0  0  0  0  0  0  0  0  0  0  0  0
   22.1840  -37.5988   -2.8170 C   0  0  0  0  0  0  0  0  0  0  0  0
   22.0385  -37.9961   -4.0175 O   0  0  0  0  0  0  0  0  0  0  0  0
   23.4709  -37.7960   -2.1451 C   0  0  0  0  0  0  0  0  0  0  0  0
   24.6046  -37.1993   -2.8725 C   0  0  0  0  0  0  0  0  0  0  0  0
   25.5010  -36.3503   -2.0546 C   0  0  2  0  0  0  0  0  0  0  0  0
   26.6503  -35.9787   -2.9291 N   0  0  0  0  0  0  0  0  0  0  0  0
   26.0119  -36.8491   -0.8037 C   0  0  0  0  0  0  0  0  0  0  0  0
   27.3844  -36.9827   -0.5334 O   0  0  0  0  0  0  0  0  0  0  0  0
   25.2053  -37.1982    0.1066 O   0  0  0  0  0  0  0  0  0  0  0  0
  2  1  1  6
  2  3  1  0
  4  3  1  0
  4  5  1  0
  6  5  1  0
  7  6  1  0
  8  2  1  0
  8  9  2  0
 10  8  1  0
 11 10  1  0
 11 12  1  1
 13 12  1  0
 13 14  1  0
 14 15  2  0
 16 11  1  0
 17 16  2  0
 18 14  1  0
 19 20  1  0
 20 21  2  0
 22 20  1  0
 22 23  1  0
 24 23  1  6
 24 25  1  0
 24 26  1  0
 25 16  1  0
 26 27  1  0
 28 26  2  0
M  END
$$$$
