KEQ.pdb
     RDKit          3D

 28 27  0  0  1  0  0  0  0  0999 V2000
   35.1172  -34.9750   -0.6175 N   0  0  0  0  0  0  0  0  0  0  0  0
   33.7231  -34.9914   -0.8177 C   0  0  1  0  0  0  0  0  0  0  0  0
   33.1642  -35.9492   -1.7784 C   0  0  0  0  0  0  0  0  0  0  0  0
   32.9619  -35.5481   -3.1633 C   0  0  0  0  0  0  0  0  0  0  0  0
   31.9028  -34.6926   -3.6786 C   0  0  0  0  0  0  0  0  0  0  0  0
   31.6712  -34.4815   -5.1113 C   0  0  0  0  0  0  0  0  0  0  0  0
   30.6027  -33.5706   -5.4566 N   0  0  0  0  0  0  0  0  0  0  0  0
   33.0715  -35.1181    0.5418 C   0  0  0  0  0  0  0  0  0  0  0  0
   33.3699  -36.1050    1.2370 O   0  0  0  0  0  0  0  0  0  0  0  0
   32.1709  -34.1666    1.0008 N   0  0  0  0  0  0  0  0  0  0  0  0
   31.5786  -34.1766    2.3462 C   0  0  1  0  0  0  0  0  0  0  0  0
   31.1442  -32.8261    2.7530 C   0  0  0  0  0  0  0  0  0  0  0  0
   30.4922  -32.7862    4.0976 C   0  0  0  0  0  0  0  0  0  0  0  0
   30.1180  -31.4478    4.5744 C   0  0  0  0  0  0  0  0  0  0  0  0
   28.8914  -31.2151    4.7273 O   0  0  0  0  0  0  0  0  0  0  0  0
   30.4398  -35.1334    2.3351 C   0  0  0  0  0  0  0  0  0  0  0  0
   29.7469  -35.2922    1.3115 O   0  0  0  0  0  0  0  0  0  0  0  0
   30.9911  -30.4173    4.8709 O   0  0  0  0  0  0  0  0  0  0  0  0
   30.1295  -40.1024    6.1284 N   0  0  0  0  0  0  0  0  0  0  0  0
   28.9290  -40.1826    5.3583 C   0  0  0  0  0  0  0  0  0  0  0  0
   28.1667  -41.1789    5.5740 O   0  0  0  0  0  0  0  0  0  0  0  0
   28.5427  -39.1849    4.3575 C   0  0  0  0  0  0  0  0  0  0  0  0
   29.4655  -38.0383    4.2924 C   0  0  0  0  0  0  0  0  0  0  0  0
   29.0469  -36.9434    3.3873 C   0  0  2  0  0  0  0  0  0  0  0  0
   30.1017  -35.8929    3.4737 N   0  0  0  0  0  0  0  0  0  0  0  0
   27.7588  -36.3237    3.5643 C   0  0  0  0  0  0  0  0  0  0  0  0
   26.5733  -36.8486    3.0226 O   0  0  0  0  0  0  0  0  0  0  0  0
   27.6673  -35.2501    4.2277 O   0  0  0  0  0  0  0  0  0  0  0  0
  2  1  1  1
  2  3  1  0
  4  3  1  0
  4  5  1  0
  6  5  1  0
  7  6  1  0
  8  2  1  0
  8  9  2  0
 10  8  1  0
 11 10  1  0
 11 12  1  6
 13 12  1  0
 13 14  1  0
 14 15  2  0
 16 11  1  0
 17 16  2  0
 18 14  1  0
 19 20  1  0
 20 21  2  0
 22 20  1  0
 22 23  1  0
 24 23  1  1
 24 25  1  0
 24 26  1  0
 25 16  1  0
 26 27  1  0
 28 26  2  0
M  END
$$$$
