GSC.pdb
     RDKit          3D

 17 16  0  0  1  0  0  0  0  0999 V2000
   -7.2007  -24.1106   21.1768 N   0  0  0  0  0  0  0  0  0  0  0  0
   -7.7129  -24.6505   22.3944 C   0  0  0  0  0  0  0  0  0  0  0  0
   -7.3741  -23.7851   23.5716 C   0  0  0  0  0  0  0  0  0  0  0  0
   -6.1906  -23.6679   23.9695 O   0  0  0  0  0  0  0  0  0  0  0  0
  -10.2187  -22.1503   26.3160 O   0  0  0  0  0  0  0  0  0  0  0  0
   -9.2058  -21.3522   25.8163 C   0  0  0  0  0  0  0  0  0  0  0  0
   -8.0305  -22.2290   25.4428 C   0  0  2  0  0  0  0  0  0  0  0  0
   -8.3632  -23.0643   24.2857 N   0  0  0  0  0  0  0  0  0  0  0  0
   -7.5054  -23.0376   26.5532 C   0  0  0  0  0  0  0  0  0  0  0  0
   -8.0093  -24.2023   26.7247 O   0  0  0  0  0  0  0  0  0  0  0  0
   -6.5013  -22.6790   27.4614 N   0  0  0  0  0  0  0  0  0  0  0  0
   -6.0546  -23.4980   28.5634 C   0  0  1  0  0  0  0  0  0  0  0  0
   -4.7155  -23.0115   29.1091 C   0  0  0  0  0  0  0  0  0  0  0  0
   -4.2090  -24.1921   30.3903 S   0  0  0  0  0  0  0  0  0  0  0  0
   -6.9912  -23.5691   29.6725 C   0  0  0  0  0  0  0  0  0  0  0  0
   -7.5469  -22.5382   30.1018 O   0  0  0  0  0  0  0  0  0  0  0  0
   -7.2852  -24.7732   30.2727 O   0  0  0  0  0  0  0  0  0  0  0  0
  1  2  1  0
  2  3  1  0
  3  8  1  0
  3  4  2  0
  5  6  1  0
  7  6  1  1
  7  9  1  0
  8  7  1  0
  9 10  2  0
  9 11  1  0
 11 12  1  0
 12 13  1  1
 14 13  1  0
 15 12  1  0
 15 17  1  0
 16 15  2  0
M  END
$$$$
