GSC.pdb
     RDKit          3D

 17 16  0  0  1  0  0  0  0  0999 V2000
    8.3374  -17.2630   19.3156 N   0  0  0  0  0  0  0  0  0  0  0  0
    8.8566  -17.4901   20.6253 C   0  0  0  0  0  0  0  0  0  0  0  0
    7.9968  -16.8603   21.6805 C   0  0  0  0  0  0  0  0  0  0  0  0
    7.3385  -15.8196   21.4430 O   0  0  0  0  0  0  0  0  0  0  0  0
    7.6489  -18.0920   25.8871 O   0  0  0  0  0  0  0  0  0  0  0  0
    6.6048  -17.7883   25.0325 C   0  0  0  0  0  0  0  0  0  0  0  0
    7.0782  -16.7627   24.0258 C   0  0  2  0  0  0  0  0  0  0  0  0
    7.8861  -17.4033   22.9846 N   0  0  0  0  0  0  0  0  0  0  0  0
    7.7820  -15.6162   24.6196 C   0  0  0  0  0  0  0  0  0  0  0  0
    9.0615  -15.6589   24.6465 O   0  0  0  0  0  0  0  0  0  0  0  0
    7.2089  -14.4621   25.1685 N   0  0  0  0  0  0  0  0  0  0  0  0
    7.9479  -13.3921   25.7960 C   0  0  1  0  0  0  0  0  0  0  0  0
    7.0681  -12.1655   26.0174 C   0  0  0  0  0  0  0  0  0  0  0  0
    5.4869  -12.7641   26.6760 S   0  0  0  0  0  0  0  0  0  0  0  0
    8.5484  -13.7487   27.0707 C   0  0  0  0  0  0  0  0  0  0  0  0
    9.3396  -12.9705   27.6401 O   0  0  0  0  0  0  0  0  0  0  0  0
    8.2579  -14.9507   27.6765 O   0  0  0  0  0  0  0  0  0  0  0  0
  1  2  1  0
  2  3  1  0
  3  8  1  0
  3  4  2  0
  5  6  1  0
  7  6  1  1
  7  9  1  0
  8  7  1  0
  9 10  2  0
  9 11  1  0
 11 12  1  0
 12 13  1  1
 14 13  1  0
 15 12  1  0
 15 17  1  0
 16 15  2  0
M  END
$$$$
