GSC.pdb
     RDKit          3D

 17 16  0  0  1  0  0  0  0  0999 V2000
   10.1956  -17.6291   19.7454 N   0  0  0  0  0  0  0  0  0  0  0  0
   10.1179  -18.3343   20.9835 C   0  0  0  0  0  0  0  0  0  0  0  0
    9.1223  -17.7111   21.9161 C   0  0  0  0  0  0  0  0  0  0  0  0
    8.5481  -16.6349   21.6248 O   0  0  0  0  0  0  0  0  0  0  0  0
    8.0493  -19.3639   25.7108 O   0  0  0  0  0  0  0  0  0  0  0  0
    7.1232  -18.7286   24.9037 C   0  0  0  0  0  0  0  0  0  0  0  0
    7.8315  -17.6748   24.0810 C   0  0  2  0  0  0  0  0  0  0  0  0
    8.7840  -18.3003   23.1595 N   0  0  0  0  0  0  0  0  0  0  0  0
    8.4731  -16.6188   24.8783 C   0  0  0  0  0  0  0  0  0  0  0  0
    9.7403  -16.6941   25.0465 O   0  0  0  0  0  0  0  0  0  0  0  0
    7.8518  -15.5204   25.4858 N   0  0  0  0  0  0  0  0  0  0  0  0
    8.5093  -14.5826   26.3652 C   0  0  1  0  0  0  0  0  0  0  0  0
    7.5795  -13.4352   26.7478 C   0  0  0  0  0  0  0  0  0  0  0  0
    8.5596  -12.2703   27.7349 S   0  0  0  0  0  0  0  0  0  0  0  0
    9.0215  -15.1720   27.5910 C   0  0  0  0  0  0  0  0  0  0  0  0
    8.5121  -16.2104   28.0579 O   0  0  0  0  0  0  0  0  0  0  0  0
   10.0781  -14.5984   28.2627 O   0  0  0  0  0  0  0  0  0  0  0  0
  1  2  1  0
  2  3  1  0
  3  8  1  0
  3  4  2  0
  5  6  1  0
  7  6  1  1
  7  9  1  0
  8  7  1  0
  9 10  2  0
  9 11  1  0
 11 12  1  0
 12 13  1  1
 14 13  1  0
 15 12  1  0
 15 17  1  0
 16 15  2  0
M  END
$$$$
