GSC.pdb
     RDKit          3D

 17 16  0  0  1  0  0  0  0  0999 V2000
    7.3333  -17.0950   19.1348 N   0  0  0  0  0  0  0  0  0  0  0  0
    8.1406  -17.1714   20.3089 C   0  0  0  0  0  0  0  0  0  0  0  0
    7.3785  -16.7635   21.5345 C   0  0  0  0  0  0  0  0  0  0  0  0
    6.2536  -16.2163   21.4450 O   0  0  0  0  0  0  0  0  0  0  0  0
    7.9942  -18.3954   25.3025 O   0  0  0  0  0  0  0  0  0  0  0  0
    6.8083  -17.8382   24.8600 C   0  0  0  0  0  0  0  0  0  0  0  0
    7.1222  -16.6077   24.0373 C   0  0  2  0  0  0  0  0  0  0  0  0
    7.8853  -16.9735   22.8410 N   0  0  0  0  0  0  0  0  0  0  0  0
    7.7885  -15.5341   24.7896 C   0  0  0  0  0  0  0  0  0  0  0  0
    9.0448  -15.3733   24.6006 O   0  0  0  0  0  0  0  0  0  0  0  0
    7.2017  -14.6504   25.7041 N   0  0  0  0  0  0  0  0  0  0  0  0
    7.9199  -13.6616   26.4731 C   0  0  1  0  0  0  0  0  0  0  0  0
    6.9660  -12.6632   27.1219 C   0  0  0  0  0  0  0  0  0  0  0  0
    5.8247  -12.1071   25.8256 S   0  0  0  0  0  0  0  0  0  0  0  0
    8.7660  -14.2160   27.5168 C   0  0  0  0  0  0  0  0  0  0  0  0
    8.7720  -15.4422   27.7453 O   0  0  0  0  0  0  0  0  0  0  0  0
    9.5779  -13.4018   28.2746 O   0  0  0  0  0  0  0  0  0  0  0  0
  1  2  1  0
  2  3  1  0
  3  8  1  0
  3  4  2  0
  5  6  1  0
  7  6  1  1
  7  9  1  0
  8  7  1  0
  9 10  2  0
  9 11  1  0
 11 12  1  0
 12 13  1  1
 14 13  1  0
 15 12  1  0
 15 17  1  0
 16 15  2  0
M  END
$$$$
