GSC.pdb
     RDKit          3D

 17 16  0  0  1  0  0  0  0  0999 V2000
   10.3533  -19.9774   19.5172 N   0  0  0  0  0  0  0  0  0  0  0  0
   10.2175  -18.6056   19.8859 C   0  0  0  0  0  0  0  0  0  0  0  0
   11.5494  -17.9245   19.9920 C   0  0  0  0  0  0  0  0  0  0  0  0
   12.6176  -18.5662   19.8509 O   0  0  0  0  0  0  0  0  0  0  0  0
   11.7554  -13.8832   20.1722 O   0  0  0  0  0  0  0  0  0  0  0  0
   12.9488  -14.4960   19.8359 C   0  0  0  0  0  0  0  0  0  0  0  0
   12.9689  -15.8878   20.4290 C   0  0  2  0  0  0  0  0  0  0  0  0
   11.6668  -16.5369   20.2542 N   0  0  0  0  0  0  0  0  0  0  0  0
   13.4081  -15.9385   21.8315 C   0  0  0  0  0  0  0  0  0  0  0  0
   12.6112  -15.4683   22.7167 O   0  0  0  0  0  0  0  0  0  0  0  0
   14.6159  -16.4498   22.3230 N   0  0  0  0  0  0  0  0  0  0  0  0
   14.9873  -16.4921   23.7177 C   0  0  1  0  0  0  0  0  0  0  0  0
   15.3724  -17.9046   24.1467 C   0  0  0  0  0  0  0  0  0  0  0  0
   13.8322  -18.8558   24.2691 S   0  0  0  0  0  0  0  0  0  0  0  0
   16.0810  -15.6026   24.0715 C   0  0  0  0  0  0  0  0  0  0  0  0
   16.4215  -15.4568   25.2626 O   0  0  0  0  0  0  0  0  0  0  0  0
   16.7639  -14.9026   23.1019 O   0  0  0  0  0  0  0  0  0  0  0  0
  1  2  1  0
  2  3  1  0
  3  8  1  0
  3  4  2  0
  5  6  1  0
  7  6  1  1
  7  9  1  0
  8  7  1  0
  9 10  2  0
  9 11  1  0
 11 12  1  0
 12 13  1  6
 14 13  1  0
 15 12  1  0
 15 17  1  0
 16 15  2  0
M  END
$$$$
