GSC.pdb
     RDKit          3D

 17 16  0  0  1  0  0  0  0  0999 V2000
    7.9279  -13.0726   18.1256 N   0  0  0  0  0  0  0  0  0  0  0  0
    8.6604  -13.8344   19.0844 C   0  0  0  0  0  0  0  0  0  0  0  0
    7.8824  -14.0275   20.3520 C   0  0  0  0  0  0  0  0  0  0  0  0
    6.8784  -13.3213   20.6092 O   0  0  0  0  0  0  0  0  0  0  0  0
    8.1151  -17.5301   22.6247 O   0  0  0  0  0  0  0  0  0  0  0  0
    6.9851  -16.7434   22.4942 C   0  0  0  0  0  0  0  0  0  0  0  0
    7.4001  -15.2884   22.4807 C   0  0  2  0  0  0  0  0  0  0  0  0
    8.2384  -15.0066   21.3123 N   0  0  0  0  0  0  0  0  0  0  0  0
    8.0429  -14.8339   23.7227 C   0  0  0  0  0  0  0  0  0  0  0  0
    9.3230  -14.8271   23.7562 O   0  0  0  0  0  0  0  0  0  0  0  0
    7.4101  -14.3992   24.8941 N   0  0  0  0  0  0  0  0  0  0  0  0
    8.0905  -14.0523   26.1196 C   0  0  1  0  0  0  0  0  0  0  0  0
    7.1582  -13.3279   27.0859 C   0  0  0  0  0  0  0  0  0  0  0  0
    6.6226  -11.8048   26.2581 S   0  0  0  0  0  0  0  0  0  0  0  0
    8.6710  -15.1849   26.8214 C   0  0  0  0  0  0  0  0  0  0  0  0
    8.4820  -16.3489   26.4149 O   0  0  0  0  0  0  0  0  0  0  0  0
    9.4408  -14.9986   27.9479 O   0  0  0  0  0  0  0  0  0  0  0  0
  1  2  1  0
  2  3  1  0
  3  8  1  0
  3  4  2  0
  5  6  1  0
  7  6  1  1
  7  9  1  0
  8  7  1  0
  9 10  2  0
  9 11  1  0
 11 12  1  0
 12 13  1  1
 14 13  1  0
 15 12  1  0
 15 17  1  0
 16 15  2  0
M  END
$$$$
