GSC.pdb
     RDKit          3D

 17 16  0  0  1  0  0  0  0  0999 V2000
    4.2972  -18.8052   21.6867 N   0  0  0  0  0  0  0  0  0  0  0  0
    4.3603  -17.3960   21.9024 C   0  0  0  0  0  0  0  0  0  0  0  0
    5.7764  -16.9122   22.0018 C   0  0  0  0  0  0  0  0  0  0  0  0
    6.6407  -17.5653   22.6336 O   0  0  0  0  0  0  0  0  0  0  0  0
    7.6948  -14.7743   19.2498 O   0  0  0  0  0  0  0  0  0  0  0  0
    7.8895  -14.1832   20.4849 C   0  0  0  0  0  0  0  0  0  0  0  0
    7.5652  -15.1904   21.5665 C   0  0  2  0  0  0  0  0  0  0  0  0
    6.2046  -15.7062   21.3935 N   0  0  0  0  0  0  0  0  0  0  0  0
    7.7800  -14.6953   22.9344 C   0  0  0  0  0  0  0  0  0  0  0  0
    7.5853  -13.4477   23.1477 O   0  0  0  0  0  0  0  0  0  0  0  0
    8.1786  -15.4396   24.0519 N   0  0  0  0  0  0  0  0  0  0  0  0
    8.4198  -14.8909   25.3656 C   0  0  1  0  0  0  0  0  0  0  0  0
    7.1911  -15.0302   26.2592 C   0  0  0  0  0  0  0  0  0  0  0  0
    6.1482  -13.5781   25.9500 S   0  0  0  0  0  0  0  0  0  0  0  0
    9.5497  -15.4834   26.0618 C   0  0  0  0  0  0  0  0  0  0  0  0
    9.7882  -15.1902   27.2505 O   0  0  0  0  0  0  0  0  0  0  0  0
   10.3801  -16.3793   25.4261 O   0  0  0  0  0  0  0  0  0  0  0  0
  1  2  1  0
  2  3  1  0
  3  8  1  0
  3  4  2  0
  5  6  1  0
  7  6  1  6
  7  9  1  0
  8  7  1  0
  9 10  2  0
  9 11  1  0
 11 12  1  0
 12 13  1  1
 14 13  1  0
 15 12  1  0
 15 17  1  0
 16 15  2  0
M  END
$$$$
