GSC.pdb
     RDKit          3D

 17 16  0  0  1  0  0  0  0  0999 V2000
    8.1356  -14.9948   13.7179 N   0  0  0  0  0  0  0  0  0  0  0  0
    7.5827  -15.0135   15.0333 C   0  0  0  0  0  0  0  0  0  0  0  0
    8.4867  -14.3442   16.0254 C   0  0  0  0  0  0  0  0  0  0  0  0
    9.6594  -14.0228   15.7185 O   0  0  0  0  0  0  0  0  0  0  0  0
    7.4517  -13.7642   20.1229 O   0  0  0  0  0  0  0  0  0  0  0  0
    8.2265  -12.8288   19.4615 C   0  0  0  0  0  0  0  0  0  0  0  0
    8.9907  -13.5208   18.3539 C   0  0  2  0  0  0  0  0  0  0  0  0
    8.0661  -14.0447   17.3449 N   0  0  0  0  0  0  0  0  0  0  0  0
    9.9184  -14.5615   18.8213 C   0  0  0  0  0  0  0  0  0  0  0  0
    9.4526  -15.7456   18.9656 O   0  0  0  0  0  0  0  0  0  0  0  0
   11.2754  -14.4090   19.1325 N   0  0  0  0  0  0  0  0  0  0  0  0
   12.1296  -15.4586   19.6363 C   0  0  1  0  0  0  0  0  0  0  0  0
   13.5443  -15.3386   19.0779 C   0  0  0  0  0  0  0  0  0  0  0  0
   14.1246  -13.6649   19.4701 S   0  0  0  0  0  0  0  0  0  0  0  0
   12.2227  -15.5084   21.0858 C   0  0  0  0  0  0  0  0  0  0  0  0
   11.6661  -14.6409   21.7884 O   0  0  0  0  0  0  0  0  0  0  0  0
   12.9259  -16.5118   21.7144 O   0  0  0  0  0  0  0  0  0  0  0  0
  1  2  1  0
  2  3  1  0
  3  8  1  0
  3  4  2  0
  5  6  1  0
  7  6  1  1
  7  9  1  0
  8  7  1  0
  9 10  2  0
  9 11  1  0
 11 12  1  0
 12 13  1  6
 14 13  1  0
 15 12  1  0
 15 17  1  0
 16 15  2  0
M  END
$$$$
