GSC.pdb
     RDKit          3D

 17 16  0  0  1  0  0  0  0  0999 V2000
   10.7467  -17.0309   15.3449 N   0  0  0  0  0  0  0  0  0  0  0  0
   10.9881  -17.8468   16.4905 C   0  0  0  0  0  0  0  0  0  0  0  0
   10.0292  -17.5408   17.6023 C   0  0  0  0  0  0  0  0  0  0  0  0
    9.3180  -16.5082   17.5779 O   0  0  0  0  0  0  0  0  0  0  0  0
    9.4057  -20.0637   21.0036 O   0  0  0  0  0  0  0  0  0  0  0  0
    8.4102  -19.2615   20.4762 C   0  0  0  0  0  0  0  0  0  0  0  0
    9.0442  -18.0282   19.8708 C   0  0  2  0  0  0  0  0  0  0  0  0
    9.8801  -18.3936   18.7240 N   0  0  0  0  0  0  0  0  0  0  0  0
    9.7870  -17.1994   20.8320 C   0  0  0  0  0  0  0  0  0  0  0  0
   11.0629  -17.3074   20.8417 O   0  0  0  0  0  0  0  0  0  0  0  0
    9.2552  -16.2890   21.7539 N   0  0  0  0  0  0  0  0  0  0  0  0
   10.0334  -15.5156   22.6927 C   0  0  1  0  0  0  0  0  0  0  0  0
    9.2092  -14.3820   23.2954 C   0  0  0  0  0  0  0  0  0  0  0  0
    7.7313  -15.1378   24.0280 S   0  0  0  0  0  0  0  0  0  0  0  0
   10.5942  -16.2921   23.7858 C   0  0  0  0  0  0  0  0  0  0  0  0
   11.5023  -15.8209   24.4994 O   0  0  0  0  0  0  0  0  0  0  0  0
   10.1365  -17.5622   24.0575 O   0  0  0  0  0  0  0  0  0  0  0  0
  1  2  1  0
  2  3  1  0
  3  8  1  0
  3  4  2  0
  5  6  1  0
  7  6  1  1
  7  9  1  0
  8  7  1  0
  9 10  2  0
  9 11  1  0
 11 12  1  0
 12 13  1  1
 14 13  1  0
 15 12  1  0
 15 17  1  0
 16 15  2  0
M  END
$$$$
