GSC.pdb
     RDKit          3D

 17 16  0  0  1  0  0  0  0  0999 V2000
    8.8913  -15.7147   19.3523 N   0  0  0  0  0  0  0  0  0  0  0  0
    9.0585  -16.5626   20.4878 C   0  0  0  0  0  0  0  0  0  0  0  0
    8.2368  -16.0985   21.6534 C   0  0  0  0  0  0  0  0  0  0  0  0
    7.6752  -14.9772   21.6438 O   0  0  0  0  0  0  0  0  0  0  0  0
    7.6414  -18.4207   25.1630 O   0  0  0  0  0  0  0  0  0  0  0  0
    6.6048  -17.6879   24.6142 C   0  0  0  0  0  0  0  0  0  0  0  0
    7.1793  -16.4783   23.9098 C   0  0  2  0  0  0  0  0  0  0  0  0
    8.0555  -16.8946   22.8115 N   0  0  0  0  0  0  0  0  0  0  0  0
    7.8562  -15.5263   24.8030 C   0  0  0  0  0  0  0  0  0  0  0  0
    9.1365  -15.5442   24.8232 O   0  0  0  0  0  0  0  0  0  0  0  0
    7.2564  -14.5849   25.6489 N   0  0  0  0  0  0  0  0  0  0  0  0
    7.9664  -13.7473   26.5866 C   0  0  1  0  0  0  0  0  0  0  0  0
    7.0446  -12.6992   27.2027 C   0  0  0  0  0  0  0  0  0  0  0  0
    6.0826  -11.9799   25.8429 S   0  0  0  0  0  0  0  0  0  0  0  0
    8.6062  -14.4740   27.6706 C   0  0  0  0  0  0  0  0  0  0  0  0
    8.3955  -15.6931   27.8296 O   0  0  0  0  0  0  0  0  0  0  0  0
    9.4572  -13.8343   28.5441 O   0  0  0  0  0  0  0  0  0  0  0  0
  1  2  1  0
  2  3  1  0
  3  8  1  0
  3  4  2  0
  5  6  1  0
  7  6  1  1
  7  9  1  0
  8  7  1  0
  9 10  2  0
  9 11  1  0
 11 12  1  0
 12 13  1  1
 14 13  1  0
 15 12  1  0
 15 17  1  0
 16 15  2  0
M  END
$$$$
