GSC.pdb
     RDKit          3D

 17 16  0  0  1  0  0  0  0  0999 V2000
    5.3722  -19.9600   22.9343 N   0  0  0  0  0  0  0  0  0  0  0  0
    5.8362  -19.2789   24.0993 C   0  0  0  0  0  0  0  0  0  0  0  0
    6.7151  -18.1152   23.7491 C   0  0  0  0  0  0  0  0  0  0  0  0
    7.0359  -17.8812   22.5595 O   0  0  0  0  0  0  0  0  0  0  0  0
    8.2247  -15.5295   26.6737 O   0  0  0  0  0  0  0  0  0  0  0  0
    8.0457  -15.0259   25.3981 C   0  0  0  0  0  0  0  0  0  0  0  0
    8.1646  -16.1593   24.4028 C   0  0  2  0  0  0  0  0  0  0  0  0
    7.2220  -17.2313   24.7338 N   0  0  0  0  0  0  0  0  0  0  0  0
    9.5309  -16.6788   24.2421 C   0  0  0  0  0  0  0  0  0  0  0  0
    9.8865  -17.6480   24.9997 O   0  0  0  0  0  0  0  0  0  0  0  0
   10.5067  -16.2320   23.3422 N   0  0  0  0  0  0  0  0  0  0  0  0
   11.8618  -16.7269   23.2816 C   0  0  1  0  0  0  0  0  0  0  0  0
   12.7014  -15.9253   22.2916 C   0  0  0  0  0  0  0  0  0  0  0  0
   14.2806  -16.8004   22.1114 S   0  0  0  0  0  0  0  0  0  0  0  0
   12.5548  -16.7276   24.5592 C   0  0  0  0  0  0  0  0  0  0  0  0
   12.4860  -15.7414   25.3198 O   0  0  0  0  0  0  0  0  0  0  0  0
   13.3009  -17.8144   24.9574 O   0  0  0  0  0  0  0  0  0  0  0  0
  1  2  1  0
  2  3  1  0
  3  8  1  0
  3  4  2  0
  5  6  1  0
  7  6  1  1
  7  9  1  0
  8  7  1  0
  9 10  2  0
  9 11  1  0
 11 12  1  0
 12 13  1  6
 14 13  1  0
 15 12  1  0
 15 17  1  0
 16 15  2  0
M  END
$$$$
