GSC.pdb
     RDKit          3D

 17 16  0  0  1  0  0  0  0  0999 V2000
   11.7819  -16.5640   19.6181 N   0  0  0  0  0  0  0  0  0  0  0  0
   11.3321  -17.3565   20.7163 C   0  0  0  0  0  0  0  0  0  0  0  0
   10.5481  -16.5439   21.7033 C   0  0  0  0  0  0  0  0  0  0  0  0
   10.5393  -15.2910   21.6485 O   0  0  0  0  0  0  0  0  0  0  0  0
    7.9345  -18.2709   24.5800 O   0  0  0  0  0  0  0  0  0  0  0  0
    7.6352  -17.1039   23.9007 C   0  0  0  0  0  0  0  0  0  0  0  0
    8.9209  -16.3574   23.6194 C   0  0  2  0  0  0  0  0  0  0  0  0
    9.7861  -17.1440   22.7363 N   0  0  0  0  0  0  0  0  0  0  0  0
    9.6410  -15.9225   24.8255 C   0  0  0  0  0  0  0  0  0  0  0  0
   10.6365  -16.6322   25.2063 O   0  0  0  0  0  0  0  0  0  0  0  0
    9.3629  -14.8038   25.6210 N   0  0  0  0  0  0  0  0  0  0  0  0
   10.0524  -14.4695   26.8449 C   0  0  1  0  0  0  0  0  0  0  0  0
    9.5950  -13.1193   27.3884 C   0  0  0  0  0  0  0  0  0  0  0  0
    7.7814  -13.1185   27.3371 S   0  0  0  0  0  0  0  0  0  0  0  0
    9.9004  -15.4535   27.9037 C   0  0  0  0  0  0  0  0  0  0  0  0
    9.0419  -16.3541   27.8156 O   0  0  0  0  0  0  0  0  0  0  0  0
   10.6989  -15.4135   29.0250 O   0  0  0  0  0  0  0  0  0  0  0  0
  1  2  1  0
  2  3  1  0
  3  8  1  0
  3  4  2  0
  5  6  1  0
  7  6  1  1
  7  9  1  0
  8  7  1  0
  9 10  2  0
  9 11  1  0
 11 12  1  0
 12 13  1  1
 14 13  1  0
 15 12  1  0
 15 17  1  0
 16 15  2  0
M  END
$$$$
