KMC.pdb
     RDKit          3D

 24 23  0  0  1  0  0  0  0  0999 V2000
   28.0422  -21.6263  -15.8242 N   0  0  0  0  0  0  0  0  0  0  0  0
   28.1725  -20.7049  -14.7222 C   0  0  1  0  0  0  0  0  0  0  0  0
   28.0403  -19.2667  -15.0696 C   0  0  0  0  0  0  0  0  0  0  0  0
   27.3891  -18.9301  -16.3555 C   0  0  0  0  0  0  0  0  0  0  0  0
   25.9246  -18.6688  -16.3076 C   0  0  0  0  0  0  0  0  0  0  0  0
   25.4027  -18.3429  -17.7179 C   0  0  0  0  0  0  0  0  0  0  0  0
   23.9607  -18.2055  -17.6332 N   0  0  0  0  0  0  0  0  0  0  0  0
   27.1288  -21.0293  -13.7222 C   0  0  0  0  0  0  0  0  0  0  0  0
   26.2154  -21.8366  -14.0180 O   0  0  0  0  0  0  0  0  0  0  0  0
   27.3285  -19.5617   -7.1800 C   0  0  0  0  0  0  0  0  0  0  0  0
   25.7212  -20.3329   -7.3957 S   0  0  0  0  0  0  0  0  0  0  0  0
   25.4274  -20.8910   -9.0849 C   0  0  0  0  0  0  0  0  0  0  0  0
   26.4865  -20.4146  -10.0561 C   0  0  0  0  0  0  0  0  0  0  0  0
   26.1185  -20.8591  -11.4408 C   0  0  2  0  0  0  0  0  0  0  0  0
   27.1013  -20.4701  -12.4253 N   0  0  0  0  0  0  0  0  0  0  0  0
   24.7925  -20.4374  -11.8811 C   0  0  0  0  0  0  0  0  0  0  0  0
   24.6408  -19.2658  -12.3121 O   0  0  0  0  0  0  0  0  0  0  0  0
   23.6409  -21.2744  -11.8561 N   0  0  0  0  0  0  0  0  0  0  0  0
   22.3935  -20.7662  -12.3373 C   0  0  1  0  0  0  0  0  0  0  0  0
   22.0201  -21.4925  -13.6105 C   0  0  0  0  0  0  0  0  0  0  0  0
   21.5747  -20.3345  -14.9327 S   0  0  0  0  0  0  0  0  0  0  0  0
   21.3100  -20.8619  -11.3202 C   0  0  0  0  0  0  0  0  0  0  0  0
   21.5232  -21.4387  -10.2393 O   0  0  0  0  0  0  0  0  0  0  0  0
   20.0839  -20.2910  -11.6301 O   0  0  0  0  0  0  0  0  0  0  0  0
  2  1  1  6
  2  8  1  0
  2  3  1  0
  4  3  1  0
  4  5  1  0
  5  6  1  0
  6  7  1  0
  8  9  2  0
 10 11  1  0
 11 12  1  0
 13 12  1  0
 14 13  1  1
 15 14  1  0
 15  8  1  0
 16 14  1  0
 17 16  2  0
 18 16  1  0
 19 18  1  0
 19 22  1  0
 19 20  1  6
 21 20  1  0
 22 24  1  0
 23 22  2  0
M  END
$$$$
