KMC.pdb
     RDKit          3D

 24 23  0  0  1  0  0  0  0  0999 V2000
   27.7272  -19.2619  -14.8967 N   0  0  0  0  0  0  0  0  0  0  0  0
   27.1542  -20.5332  -15.2653 C   0  0  1  0  0  0  0  0  0  0  0  0
   28.1285  -21.5979  -15.6171 C   0  0  0  0  0  0  0  0  0  0  0  0
   28.7258  -21.5592  -16.9708 C   0  0  0  0  0  0  0  0  0  0  0  0
   27.9220  -20.8909  -18.0303 C   0  0  0  0  0  0  0  0  0  0  0  0
   28.6579  -20.9741  -19.3790 C   0  0  0  0  0  0  0  0  0  0  0  0
   27.8303  -20.3174  -20.3737 N   0  0  0  0  0  0  0  0  0  0  0  0
   26.3389  -21.0201  -14.1282 C   0  0  0  0  0  0  0  0  0  0  0  0
   25.6963  -22.0917  -14.2392 O   0  0  0  0  0  0  0  0  0  0  0  0
   26.6025  -19.3009   -7.6282 C   0  0  0  0  0  0  0  0  0  0  0  0
   25.5740  -20.7684   -7.7439 S   0  0  0  0  0  0  0  0  0  0  0  0
   25.0272  -21.1159   -9.4266 C   0  0  0  0  0  0  0  0  0  0  0  0
   25.9835  -20.5931  -10.4773 C   0  0  0  0  0  0  0  0  0  0  0  0
   25.3720  -20.7802  -11.8344 C   0  0  2  0  0  0  0  0  0  0  0  0
   26.2405  -20.3326  -12.8981 N   0  0  0  0  0  0  0  0  0  0  0  0
   24.0529  -20.1765  -11.9939 C   0  0  0  0  0  0  0  0  0  0  0  0
   23.9210  -19.2080  -12.7851 O   0  0  0  0  0  0  0  0  0  0  0  0
   22.8868  -20.6157  -11.3049 N   0  0  0  0  0  0  0  0  0  0  0  0
   21.6399  -20.6750  -12.0030 C   0  0  1  0  0  0  0  0  0  0  0  0
   21.7854  -21.5862  -13.2016 C   0  0  0  0  0  0  0  0  0  0  0  0
   20.9889  -20.8858  -14.6722 S   0  0  0  0  0  0  0  0  0  0  0  0
   20.5170  -21.1075  -11.1257 C   0  0  0  0  0  0  0  0  0  0  0  0
   20.7270  -21.9110  -10.2001 O   0  0  0  0  0  0  0  0  0  0  0  0
   19.2586  -20.5836  -11.3854 O   0  0  0  0  0  0  0  0  0  0  0  0
  2  1  1  1
  2  8  1  0
  2  3  1  0
  4  3  1  0
  4  5  1  0
  5  6  1  0
  6  7  1  0
  8  9  2  0
 10 11  1  0
 11 12  1  0
 13 12  1  0
 14 13  1  1
 15 14  1  0
 15  8  1  0
 16 14  1  0
 17 16  2  0
 18 16  1  0
 19 18  1  0
 19 22  1  0
 19 20  1  6
 21 20  1  0
 22 24  1  0
 23 22  2  0
M  END
$$$$
