KMC.pdb
     RDKit          3D

 24 23  0  0  1  0  0  0  0  0999 V2000
   27.9174  -22.2533  -15.8613 N   0  0  0  0  0  0  0  0  0  0  0  0
   27.8007  -21.0549  -15.0672 C   0  0  1  0  0  0  0  0  0  0  0  0
   27.3227  -19.8494  -15.7919 C   0  0  0  0  0  0  0  0  0  0  0  0
   28.3094  -19.1028  -16.6042 C   0  0  0  0  0  0  0  0  0  0  0  0
   29.2812  -19.9198  -17.3810 C   0  0  0  0  0  0  0  0  0  0  0  0
   29.1936  -19.5609  -18.8747 C   0  0  0  0  0  0  0  0  0  0  0  0
   30.0884  -18.4438  -19.1126 N   0  0  0  0  0  0  0  0  0  0  0  0
   26.8550  -21.3246  -13.9592 C   0  0  0  0  0  0  0  0  0  0  0  0
   25.9502  -22.1802  -14.1100 O   0  0  0  0  0  0  0  0  0  0  0  0
   27.7245  -20.3669   -7.3861 C   0  0  0  0  0  0  0  0  0  0  0  0
   25.9414  -20.4076   -7.5954 S   0  0  0  0  0  0  0  0  0  0  0  0
   25.4373  -20.8689   -9.2641 C   0  0  0  0  0  0  0  0  0  0  0  0
   26.4574  -20.4863  -10.3153 C   0  0  0  0  0  0  0  0  0  0  0  0
   25.9534  -20.9067  -11.6643 C   0  0  2  0  0  0  0  0  0  0  0  0
   26.9138  -20.6595  -12.7144 N   0  0  0  0  0  0  0  0  0  0  0  0
   24.6642  -20.3327  -12.0363 C   0  0  0  0  0  0  0  0  0  0  0  0
   24.6448  -19.2730  -12.7130 O   0  0  0  0  0  0  0  0  0  0  0  0
   23.4072  -20.8990  -11.6804 N   0  0  0  0  0  0  0  0  0  0  0  0
   22.2196  -20.4342  -12.3279 C   0  0  1  0  0  0  0  0  0  0  0  0
   22.3171  -20.7230  -13.8096 C   0  0  0  0  0  0  0  0  0  0  0  0
   20.7311  -20.4560  -14.6467 S   0  0  0  0  0  0  0  0  0  0  0  0
   20.9841  -21.0226  -11.7405 C   0  0  0  0  0  0  0  0  0  0  0  0
   21.0523  -22.0702  -11.0739 O   0  0  0  0  0  0  0  0  0  0  0  0
   19.7854  -20.3616  -11.9678 O   0  0  0  0  0  0  0  0  0  0  0  0
  2  1  1  6
  2  8  1  0
  2  3  1  0
  4  3  1  0
  4  5  1  0
  5  6  1  0
  6  7  1  0
  8  9  2  0
 10 11  1  0
 11 12  1  0
 13 12  1  0
 14 13  1  1
 15 14  1  0
 15  8  1  0
 16 14  1  0
 17 16  2  0
 18 16  1  0
 19 18  1  0
 19 22  1  0
 19 20  1  6
 21 20  1  0
 22 24  1  0
 23 22  2  0
M  END
$$$$
