KMC.pdb
     RDKit          3D

 24 23  0  0  1  0  0  0  0  0999 V2000
   28.5499  -21.6872  -15.0950 N   0  0  0  0  0  0  0  0  0  0  0  0
   28.2532  -20.8039  -13.9941 C   0  0  1  0  0  0  0  0  0  0  0  0
   28.0715  -19.3733  -14.3506 C   0  0  0  0  0  0  0  0  0  0  0  0
   27.4885  -19.0668  -15.6761 C   0  0  0  0  0  0  0  0  0  0  0  0
   27.4523  -17.6313  -16.0676 C   0  0  0  0  0  0  0  0  0  0  0  0
   26.7826  -17.4790  -17.4445 C   0  0  0  0  0  0  0  0  0  0  0  0
   26.8327  -16.0747  -17.8059 N   0  0  0  0  0  0  0  0  0  0  0  0
   27.0057  -21.2736  -13.3475 C   0  0  0  0  0  0  0  0  0  0  0  0
   26.1291  -21.8497  -14.0354 O   0  0  0  0  0  0  0  0  0  0  0  0
   27.1269  -18.8036   -6.9354 C   0  0  0  0  0  0  0  0  0  0  0  0
   26.4560  -20.3453   -7.5662 S   0  0  0  0  0  0  0  0  0  0  0  0
   26.2468  -20.3432   -9.3573 C   0  0  0  0  0  0  0  0  0  0  0  0
   25.5739  -21.5971   -9.8739 C   0  0  0  0  0  0  0  0  0  0  0  0
   25.4960  -21.5314  -11.3706 C   0  0  2  0  0  0  0  0  0  0  0  0
   26.7396  -21.1071  -11.9703 N   0  0  0  0  0  0  0  0  0  0  0  0
   24.4015  -20.7150  -11.8859 C   0  0  0  0  0  0  0  0  0  0  0  0
   24.5683  -19.4729  -11.9898 O   0  0  0  0  0  0  0  0  0  0  0  0
   23.1382  -21.2363  -12.2855 N   0  0  0  0  0  0  0  0  0  0  0  0
   22.1119  -20.3371  -12.7142 C   0  0  1  0  0  0  0  0  0  0  0  0
   21.6708  -20.7171  -14.1103 C   0  0  0  0  0  0  0  0  0  0  0  0
   23.0752  -20.7998  -15.2541 S   0  0  0  0  0  0  0  0  0  0  0  0
   20.9591  -20.2991  -11.7723 C   0  0  0  0  0  0  0  0  0  0  0  0
   20.9635  -21.0178  -10.7575 O   0  0  0  0  0  0  0  0  0  0  0  0
   19.9082  -19.4451  -12.0751 O   0  0  0  0  0  0  0  0  0  0  0  0
  2  1  1  6
  2  8  1  0
  2  3  1  0
  4  3  1  0
  4  5  1  0
  5  6  1  0
  6  7  1  0
  8  9  2  0
 10 11  1  0
 11 12  1  0
 13 12  1  0
 14 13  1  1
 15 14  1  0
 15  8  1  0
 16 14  1  0
 17 16  2  0
 18 16  1  0
 19 18  1  0
 19 22  1  0
 19 20  1  6
 21 20  1  0
 22 24  1  0
 23 22  2  0
M  END
$$$$
