KMC.pdb
     RDKit          3D

 24 23  0  0  1  0  0  0  0  0999 V2000
   25.6308  -21.6957  -17.4464 N   0  0  0  0  0  0  0  0  0  0  0  0
   24.7985  -21.9324  -16.2925 C   0  0  1  0  0  0  0  0  0  0  0  0
   25.4751  -22.5695  -15.1335 C   0  0  0  0  0  0  0  0  0  0  0  0
   26.0829  -23.9026  -15.3436 C   0  0  0  0  0  0  0  0  0  0  0  0
   26.7807  -24.1151  -16.6410 C   0  0  0  0  0  0  0  0  0  0  0  0
   27.2975  -25.5617  -16.7287 C   0  0  0  0  0  0  0  0  0  0  0  0
   27.8599  -25.7491  -18.0531 N   0  0  0  0  0  0  0  0  0  0  0  0
   24.2521  -20.6313  -15.8416 C   0  0  0  0  0  0  0  0  0  0  0  0
   23.5391  -20.5814  -14.8107 O   0  0  0  0  0  0  0  0  0  0  0  0
   28.4230  -16.3440  -16.1841 C   0  0  0  0  0  0  0  0  0  0  0  0
   27.3668  -16.3054  -14.7323 S   0  0  0  0  0  0  0  0  0  0  0  0
   25.9729  -17.4440  -14.8434 C   0  0  0  0  0  0  0  0  0  0  0  0
   25.0096  -17.0901  -15.9564 C   0  0  0  0  0  0  0  0  0  0  0  0
   23.9594  -18.1568  -16.0543 C   0  0  2  0  0  0  0  0  0  0  0  0
   24.4926  -19.4159  -16.5199 N   0  0  0  0  0  0  0  0  0  0  0  0
   22.7967  -17.7918  -16.8574 C   0  0  0  0  0  0  0  0  0  0  0  0
   22.8367  -17.9755  -18.1007 O   0  0  0  0  0  0  0  0  0  0  0  0
   21.6015  -17.2334  -16.3214 N   0  0  0  0  0  0  0  0  0  0  0  0
   20.5313  -16.8870  -17.2048 C   0  0  1  0  0  0  0  0  0  0  0  0
   19.2134  -17.2258  -16.5441 C   0  0  0  0  0  0  0  0  0  0  0  0
   19.0884  -18.9965  -16.1749 S   0  0  0  0  0  0  0  0  0  0  0  0
   20.5779  -15.4581  -17.6216 C   0  0  0  0  0  0  0  0  0  0  0  0
   21.4344  -14.6981  -17.1365 O   0  0  0  0  0  0  0  0  0  0  0  0
   19.6434  -15.0284  -18.5530 O   0  0  0  0  0  0  0  0  0  0  0  0
  2  1  1  6
  2  8  1  0
  2  3  1  0
  4  3  1  0
  4  5  1  0
  5  6  1  0
  6  7  1  0
  8  9  2  0
 10 11  1  0
 11 12  1  0
 13 12  1  0
 14 13  1  6
 15 14  1  0
 15  8  1  0
 16 14  1  0
 17 16  2  0
 18 16  1  0
 19 18  1  0
 19 22  1  0
 19 20  1  1
 21 20  1  0
 22 24  1  0
 23 22  2  0
M  END
$$$$
