KMC.pdb
     RDKit          3D

 24 23  0  0  1  0  0  0  0  0999 V2000
   25.6327  -17.4506  -14.8485 N   0  0  0  0  0  0  0  0  0  0  0  0
   26.3321  -18.6027  -15.3621 C   0  0  1  0  0  0  0  0  0  0  0  0
   27.7679  -18.3924  -15.6798 C   0  0  0  0  0  0  0  0  0  0  0  0
   28.1223  -17.2099  -16.4964 C   0  0  0  0  0  0  0  0  0  0  0  0
   27.3404  -17.0105  -17.7470 C   0  0  0  0  0  0  0  0  0  0  0  0
   27.8349  -15.7516  -18.4807 C   0  0  0  0  0  0  0  0  0  0  0  0
   26.9349  -15.5074  -19.5922 N   0  0  0  0  0  0  0  0  0  0  0  0
   26.2428  -19.6851  -14.3544 C   0  0  0  0  0  0  0  0  0  0  0  0
   26.7607  -20.8018  -14.5956 O   0  0  0  0  0  0  0  0  0  0  0  0
   26.4264  -19.4792   -7.8546 C   0  0  0  0  0  0  0  0  0  0  0  0
   25.9727  -21.1865   -8.1767 S   0  0  0  0  0  0  0  0  0  0  0  0
   25.5330  -21.4868   -9.8995 C   0  0  0  0  0  0  0  0  0  0  0  0
   25.7552  -20.2784  -10.7841 C   0  0  0  0  0  0  0  0  0  0  0  0
   25.4033  -20.6341  -12.1983 C   0  0  2  0  0  0  0  0  0  0  0  0
   25.5940  -19.5295  -13.1094 N   0  0  0  0  0  0  0  0  0  0  0  0
   24.0620  -21.1832  -12.3702 C   0  0  0  0  0  0  0  0  0  0  0  0
   23.7261  -22.1867  -11.6910 O   0  0  0  0  0  0  0  0  0  0  0  0
   23.0926  -20.6523  -13.2678 N   0  0  0  0  0  0  0  0  0  0  0  0
   21.7709  -21.1988  -13.2765 C   0  0  1  0  0  0  0  0  0  0  0  0
   21.1382  -20.9886  -11.9187 C   0  0  0  0  0  0  0  0  0  0  0  0
   19.6380  -21.9873  -11.7202 S   0  0  0  0  0  0  0  0  0  0  0  0
   20.9267  -20.6284  -14.3627 C   0  0  0  0  0  0  0  0  0  0  0  0
   21.1257  -19.4660  -14.7572 O   0  0  0  0  0  0  0  0  0  0  0  0
   19.9339  -21.4365  -14.8981 O   0  0  0  0  0  0  0  0  0  0  0  0
  2  1  1  1
  2  8  1  0
  2  3  1  0
  4  3  1  0
  4  5  1  0
  5  6  1  0
  6  7  1  0
  8  9  2  0
 10 11  1  0
 11 12  1  0
 13 12  1  0
 14 13  1  1
 15 14  1  0
 15  8  1  0
 16 14  1  0
 17 16  2  0
 18 16  1  0
 19 18  1  0
 19 22  1  0
 19 20  1  1
 21 20  1  0
 22 24  1  0
 23 22  2  0
M  END
$$$$
