KMC.pdb
     RDKit          3D

 24 23  0  0  1  0  0  0  0  0999 V2000
   26.5465  -21.8114  -13.4557 N   0  0  0  0  0  0  0  0  0  0  0  0
   26.0371  -20.6097  -12.8419 C   0  0  1  0  0  0  0  0  0  0  0  0
   24.7371  -20.1215  -13.3696 C   0  0  0  0  0  0  0  0  0  0  0  0
   24.6435  -19.8591  -14.8233 C   0  0  0  0  0  0  0  0  0  0  0  0
   24.7044  -18.4327  -15.2438 C   0  0  0  0  0  0  0  0  0  0  0  0
   24.5324  -18.3269  -16.7692 C   0  0  0  0  0  0  0  0  0  0  0  0
   23.2890  -18.9878  -17.1193 N   0  0  0  0  0  0  0  0  0  0  0  0
   25.8726  -20.8650  -11.3919 C   0  0  0  0  0  0  0  0  0  0  0  0
   25.3288  -21.9278  -11.0067 O   0  0  0  0  0  0  0  0  0  0  0  0
   28.0063  -20.1398   -4.0277 C   0  0  0  0  0  0  0  0  0  0  0  0
   28.1946  -19.5899   -5.7268 S   0  0  0  0  0  0  0  0  0  0  0  0
   26.6576  -19.6642   -6.6668 C   0  0  0  0  0  0  0  0  0  0  0  0
   26.8299  -19.2495   -8.1127 C   0  0  0  0  0  0  0  0  0  0  0  0
   26.0667  -20.1977   -8.9896 C   0  0  2  0  0  0  0  0  0  0  0  0
   26.3021  -19.9612  -10.3950 N   0  0  0  0  0  0  0  0  0  0  0  0
   24.6303  -20.2372   -8.7347 C   0  0  0  0  0  0  0  0  0  0  0  0
   23.9301  -19.2428   -9.0545 O   0  0  0  0  0  0  0  0  0  0  0  0
   23.9566  -21.3416   -8.1397 N   0  0  0  0  0  0  0  0  0  0  0  0
   22.5882  -21.2007   -7.7484 C   0  0  1  0  0  0  0  0  0  0  0  0
   21.7260  -22.0689   -8.6379 C   0  0  0  0  0  0  0  0  0  0  0  0
   21.9966  -21.7017  -10.3927 S   0  0  0  0  0  0  0  0  0  0  0  0
   22.3729  -21.5159   -6.3090 C   0  0  0  0  0  0  0  0  0  0  0  0
   23.3349  -21.8551   -5.5978 O   0  0  0  0  0  0  0  0  0  0  0  0
   21.0804  -21.4153   -5.8143 O   0  0  0  0  0  0  0  0  0  0  0  0
  2  1  1  6
  2  8  1  0
  2  3  1  0
  4  3  1  0
  4  5  1  0
  5  6  1  0
  6  7  1  0
  8  9  2  0
 10 11  1  0
 11 12  1  0
 13 12  1  0
 14 13  1  1
 15 14  1  0
 15  8  1  0
 16 14  1  0
 17 16  2  0
 18 16  1  0
 19 18  1  0
 19 22  1  0
 19 20  1  6
 21 20  1  0
 22 24  1  0
 23 22  2  0
M  END
$$$$
