KMC.pdb
     RDKit          3D

 24 23  0  0  1  0  0  0  0  0999 V2000
   22.7129  -14.4479  -18.0741 N   0  0  0  0  0  0  0  0  0  0  0  0
   22.4009  -13.1802  -18.6874 C   0  0  1  0  0  0  0  0  0  0  0  0
   21.0721  -13.0963  -19.3462 C   0  0  0  0  0  0  0  0  0  0  0  0
   20.7065  -14.1761  -20.2902 C   0  0  0  0  0  0  0  0  0  0  0  0
   19.6631  -15.1325  -19.8302 C   0  0  0  0  0  0  0  0  0  0  0  0
   19.4187  -16.2022  -20.9089 C   0  0  0  0  0  0  0  0  0  0  0  0
   18.3585  -17.0720  -20.4348 N   0  0  0  0  0  0  0  0  0  0  0  0
   22.4565  -12.1337  -17.6402 C   0  0  0  0  0  0  0  0  0  0  0  0
   21.9772  -12.3661  -16.5046 O   0  0  0  0  0  0  0  0  0  0  0  0
   27.8256  -12.2964  -15.0881 C   0  0  0  0  0  0  0  0  0  0  0  0
   27.0803  -10.7507  -15.6175 S   0  0  0  0  0  0  0  0  0  0  0  0
   25.2878  -10.8525  -15.7844 C   0  0  0  0  0  0  0  0  0  0  0  0
   24.6947   -9.6640  -16.5109 C   0  0  0  0  0  0  0  0  0  0  0  0
   23.2403   -9.9236  -16.7713 C   0  0  2  0  0  0  0  0  0  0  0  0
   23.0310  -10.8605  -17.8505 N   0  0  0  0  0  0  0  0  0  0  0  0
   22.4420   -8.7242  -17.0038 C   0  0  0  0  0  0  0  0  0  0  0  0
   22.4054   -8.2352  -18.1618 O   0  0  0  0  0  0  0  0  0  0  0  0
   21.6899   -8.0594  -15.9940 N   0  0  0  0  0  0  0  0  0  0  0  0
   20.9977   -6.8500  -16.3164 C   0  0  1  0  0  0  0  0  0  0  0  0
   19.5271   -7.1538  -16.4991 C   0  0  0  0  0  0  0  0  0  0  0  0
   18.5398   -5.6361  -16.5965 S   0  0  0  0  0  0  0  0  0  0  0  0
   21.2092   -5.7847  -15.2976 C   0  0  0  0  0  0  0  0  0  0  0  0
   21.3451   -6.0902  -14.0998 O   0  0  0  0  0  0  0  0  0  0  0  0
   21.2461   -4.4698  -15.7392 O   0  0  0  0  0  0  0  0  0  0  0  0
  2  1  1  1
  2  8  1  0
  2  3  1  0
  4  3  1  0
  4  5  1  0
  5  6  1  0
  6  7  1  0
  8  9  2  0
 10 11  1  0
 11 12  1  0
 13 12  1  0
 14 13  1  6
 15 14  1  0
 15  8  1  0
 16 14  1  0
 17 16  2  0
 18 16  1  0
 19 18  1  0
 19 22  1  0
 19 20  1  1
 21 20  1  0
 22 24  1  0
 23 22  2  0
M  END
$$$$
