KMC.pdb
     RDKit          3D

 24 23  0  0  1  0  0  0  0  0999 V2000
   21.4140  -14.7497  -18.2011 N   0  0  0  0  0  0  0  0  0  0  0  0
   20.5743  -13.5776  -18.1649 C   0  0  1  0  0  0  0  0  0  0  0  0
   19.1566  -13.8156  -17.7905 C   0  0  0  0  0  0  0  0  0  0  0  0
   18.3679  -14.7329  -18.6435 C   0  0  0  0  0  0  0  0  0  0  0  0
   16.9607  -14.9792  -18.2263 C   0  0  0  0  0  0  0  0  0  0  0  0
   16.2767  -15.9321  -19.2221 C   0  0  0  0  0  0  0  0  0  0  0  0
   14.9824  -16.2893  -18.6721 N   0  0  0  0  0  0  0  0  0  0  0  0
   21.1499  -12.6263  -17.1859 C   0  0  0  0  0  0  0  0  0  0  0  0
   20.7491  -12.6405  -15.9974 O   0  0  0  0  0  0  0  0  0  0  0  0
   27.3285  -10.7257  -15.7362 C   0  0  0  0  0  0  0  0  0  0  0  0
   25.9744  -10.1258  -14.7208 S   0  0  0  0  0  0  0  0  0  0  0  0
   24.5930   -9.4908  -15.6904 C   0  0  0  0  0  0  0  0  0  0  0  0
   24.1249  -10.4600  -16.7551 C   0  0  0  0  0  0  0  0  0  0  0  0
   22.6638  -10.7372  -16.5584 C   0  0  2  0  0  0  0  0  0  0  0  0
   22.1466  -11.6828  -17.5201 N   0  0  0  0  0  0  0  0  0  0  0  0
   21.8179   -9.5481  -16.5388 C   0  0  0  0  0  0  0  0  0  0  0  0
   21.4028   -9.0811  -17.6301 O   0  0  0  0  0  0  0  0  0  0  0  0
   21.4238   -8.8700  -15.3503 N   0  0  0  0  0  0  0  0  0  0  0  0
   20.6533   -7.6692  -15.4503 C   0  0  1  0  0  0  0  0  0  0  0  0
   19.2634   -7.9253  -14.9112 C   0  0  0  0  0  0  0  0  0  0  0  0
   18.3327   -6.3827  -14.7069 S   0  0  0  0  0  0  0  0  0  0  0  0
   21.3000   -6.5194  -14.7594 C   0  0  0  0  0  0  0  0  0  0  0  0
   21.8966   -6.6984  -13.6831 O   0  0  0  0  0  0  0  0  0  0  0  0
   21.2063   -5.2720  -15.3601 O   0  0  0  0  0  0  0  0  0  0  0  0
  2  1  1  1
  2  8  1  0
  2  3  1  0
  4  3  1  0
  4  5  1  0
  5  6  1  0
  6  7  1  0
  8  9  2  0
 10 11  1  0
 11 12  1  0
 13 12  1  0
 14 13  1  6
 15 14  1  0
 15  8  1  0
 16 14  1  0
 17 16  2  0
 18 16  1  0
 19 18  1  0
 19 22  1  0
 19 20  1  1
 21 20  1  0
 22 24  1  0
 23 22  2  0
M  END
$$$$
