KMC.pdb
     RDKit          3D

 24 23  0  0  1  0  0  0  0  0999 V2000
   28.1492  -21.4769  -16.5419 N   0  0  0  0  0  0  0  0  0  0  0  0
   27.7535  -20.4214  -15.6420 C   0  0  1  0  0  0  0  0  0  0  0  0
   27.1113  -19.2429  -16.2787 C   0  0  0  0  0  0  0  0  0  0  0  0
   27.8960  -18.4980  -17.2887 C   0  0  0  0  0  0  0  0  0  0  0  0
   29.2683  -18.0843  -16.8876 C   0  0  0  0  0  0  0  0  0  0  0  0
   29.9575  -17.3515  -18.0519 C   0  0  0  0  0  0  0  0  0  0  0  0
   30.3727  -16.0481  -17.5680 N   0  0  0  0  0  0  0  0  0  0  0  0
   26.7982  -20.9850  -14.6599 C   0  0  0  0  0  0  0  0  0  0  0  0
   25.9693  -21.8519  -15.0274 O   0  0  0  0  0  0  0  0  0  0  0  0
   25.7897  -19.4453   -7.9341 C   0  0  0  0  0  0  0  0  0  0  0  0
   25.4274  -21.1672   -8.2923 S   0  0  0  0  0  0  0  0  0  0  0  0
   25.1140  -21.4732  -10.0415 C   0  0  0  0  0  0  0  0  0  0  0  0
   26.1518  -20.8426  -10.9457 C   0  0  0  0  0  0  0  0  0  0  0  0
   25.7900  -21.1185  -12.3752 C   0  0  2  0  0  0  0  0  0  0  0  0
   26.7653  -20.5945  -13.3028 N   0  0  0  0  0  0  0  0  0  0  0  0
   24.4568  -20.6677  -12.7616 C   0  0  0  0  0  0  0  0  0  0  0  0
   24.2868  -19.4560  -13.0517 O   0  0  0  0  0  0  0  0  0  0  0  0
   23.3176  -21.5189  -12.8340 N   0  0  0  0  0  0  0  0  0  0  0  0
   22.0601  -20.9748  -13.2443 C   0  0  1  0  0  0  0  0  0  0  0  0
   21.5662  -21.7286  -14.4592 C   0  0  0  0  0  0  0  0  0  0  0  0
   21.4050  -23.5030  -14.1229 S   0  0  0  0  0  0  0  0  0  0  0  0
   21.0504  -20.9881  -12.1498 C   0  0  0  0  0  0  0  0  0  0  0  0
   21.3296  -21.5069  -11.0547 O   0  0  0  0  0  0  0  0  0  0  0  0
   19.8159  -20.4086  -12.4058 O   0  0  0  0  0  0  0  0  0  0  0  0
  2  1  1  6
  2  8  1  0
  2  3  1  0
  4  3  1  0
  4  5  1  0
  5  6  1  0
  6  7  1  0
  8  9  2  0
 10 11  1  0
 11 12  1  0
 13 12  1  0
 14 13  1  1
 15 14  1  0
 15  8  1  0
 16 14  1  0
 17 16  2  0
 18 16  1  0
 19 18  1  0
 19 22  1  0
 19 20  1  6
 21 20  1  0
 22 24  1  0
 23 22  2  0
M  END
$$$$
