KMC.pdb
     RDKit          3D

 24 23  0  0  1  0  0  0  0  0999 V2000
   26.9736  -18.5835  -16.6690 N   0  0  0  0  0  0  0  0  0  0  0  0
   26.5333  -18.3197  -15.3211 C   0  0  1  0  0  0  0  0  0  0  0  0
   25.3324  -17.4542  -15.1966 C   0  0  0  0  0  0  0  0  0  0  0  0
   25.5355  -15.9891  -15.2542 C   0  0  0  0  0  0  0  0  0  0  0  0
   26.7998  -15.5203  -15.8843 C   0  0  0  0  0  0  0  0  0  0  0  0
   26.9013  -13.9884  -15.7816 C   0  0  0  0  0  0  0  0  0  0  0  0
   28.1867  -13.5944  -16.3272 N   0  0  0  0  0  0  0  0  0  0  0  0
   26.2290  -19.6161  -14.6719 C   0  0  0  0  0  0  0  0  0  0  0  0
   25.7901  -20.5676  -15.3615 O   0  0  0  0  0  0  0  0  0  0  0  0
   29.3533  -20.9671   -9.3268 C   0  0  0  0  0  0  0  0  0  0  0  0
   29.8635  -21.5176  -10.9582 S   0  0  0  0  0  0  0  0  0  0  0  0
   28.5703  -21.3336  -12.2013 C   0  0  0  0  0  0  0  0  0  0  0  0
   27.1764  -21.4735  -11.6274 C   0  0  0  0  0  0  0  0  0  0  0  0
   26.1720  -21.1418  -12.6912 C   0  0  2  0  0  0  0  0  0  0  0  0
   26.4086  -19.8489  -13.2903 N   0  0  0  0  0  0  0  0  0  0  0  0
   24.7803  -21.2339  -12.2616 C   0  0  0  0  0  0  0  0  0  0  0  0
   24.5088  -21.0665  -11.0452 O   0  0  0  0  0  0  0  0  0  0  0  0
   23.6917  -21.5042  -13.1388 N   0  0  0  0  0  0  0  0  0  0  0  0
   22.3629  -21.5576  -12.6123 C   0  0  1  0  0  0  0  0  0  0  0  0
   21.9606  -20.1779  -12.1402 C   0  0  0  0  0  0  0  0  0  0  0  0
   20.4510  -19.6048  -12.9649 S   0  0  0  0  0  0  0  0  0  0  0  0
   21.3839  -22.1023  -13.5933 C   0  0  0  0  0  0  0  0  0  0  0  0
   21.7162  -22.2542  -14.7820 O   0  0  0  0  0  0  0  0  0  0  0  0
   20.1168  -22.4233  -13.1278 O   0  0  0  0  0  0  0  0  0  0  0  0
  2  1  1  6
  2  8  1  0
  2  3  1  0
  4  3  1  0
  4  5  1  0
  5  6  1  0
  6  7  1  0
  8  9  2  0
 10 11  1  0
 11 12  1  0
 13 12  1  0
 14 13  1  1
 15 14  1  0
 15  8  1  0
 16 14  1  0
 17 16  2  0
 18 16  1  0
 19 18  1  0
 19 22  1  0
 19 20  1  6
 21 20  1  0
 22 24  1  0
 23 22  2  0
M  END
$$$$
