KMC.pdb
     RDKit          3D

 24 23  0  0  1  0  0  0  0  0999 V2000
   25.4733  -19.4856  -17.1029 N   0  0  0  0  0  0  0  0  0  0  0  0
   24.2656  -20.2300  -17.3634 C   0  0  1  0  0  0  0  0  0  0  0  0
   24.3530  -21.2317  -18.4568 C   0  0  0  0  0  0  0  0  0  0  0  0
   24.0445  -20.7745  -19.8304 C   0  0  0  0  0  0  0  0  0  0  0  0
   22.6564  -20.2953  -20.0726 C   0  0  0  0  0  0  0  0  0  0  0  0
   22.5046  -19.8429  -21.5354 C   0  0  0  0  0  0  0  0  0  0  0  0
   21.1458  -19.3649  -21.7101 N   0  0  0  0  0  0  0  0  0  0  0  0
   23.8854  -20.9435  -16.1219 C   0  0  0  0  0  0  0  0  0  0  0  0
   23.6990  -22.1836  -16.1512 O   0  0  0  0  0  0  0  0  0  0  0  0
   25.8547  -21.2003   -9.4201 C   0  0  0  0  0  0  0  0  0  0  0  0
   24.1791  -20.6143   -9.6917 S   0  0  0  0  0  0  0  0  0  0  0  0
   23.4673  -21.2049  -11.2396 C   0  0  0  0  0  0  0  0  0  0  0  0
   23.9567  -20.4328  -12.4463 C   0  0  0  0  0  0  0  0  0  0  0  0
   23.3342  -21.0093  -13.6835 C   0  0  2  0  0  0  0  0  0  0  0  0
   23.7166  -20.2942  -14.8788 N   0  0  0  0  0  0  0  0  0  0  0  0
   21.8808  -21.1314  -13.6311 C   0  0  0  0  0  0  0  0  0  0  0  0
   21.1783  -20.1133  -13.8575 O   0  0  0  0  0  0  0  0  0  0  0  0
   21.1930  -22.3429  -13.3369 N   0  0  0  0  0  0  0  0  0  0  0  0
   19.7631  -22.3481  -13.3056 C   0  0  1  0  0  0  0  0  0  0  0  0
   19.2721  -23.7788  -13.3090 C   0  0  0  0  0  0  0  0  0  0  0  0
   19.7164  -24.6399  -11.7765 S   0  0  0  0  0  0  0  0  0  0  0  0
   19.2168  -21.5896  -12.1463 C   0  0  0  0  0  0  0  0  0  0  0  0
   19.9679  -21.2591  -11.2119 O   0  0  0  0  0  0  0  0  0  0  0  0
   17.8646  -21.2785  -12.1601 O   0  0  0  0  0  0  0  0  0  0  0  0
  2  1  1  1
  2  8  1  0
  2  3  1  0
  4  3  1  0
  4  5  1  0
  5  6  1  0
  6  7  1  0
  8  9  2  0
 10 11  1  0
 11 12  1  0
 13 12  1  0
 14 13  1  1
 15 14  1  0
 15  8  1  0
 16 14  1  0
 17 16  2  0
 18 16  1  0
 19 18  1  0
 19 22  1  0
 19 20  1  1
 21 20  1  0
 22 24  1  0
 23 22  2  0
M  END
$$$$
