KMC.pdb
     RDKit          3D

 24 23  0  0  1  0  0  0  0  0999 V2000
   28.3163  -20.9812  -15.8922 N   0  0  0  0  0  0  0  0  0  0  0  0
   26.9528  -21.0176  -16.3612 C   0  0  1  0  0  0  0  0  0  0  0  0
   26.6992  -21.9015  -17.5278 C   0  0  0  0  0  0  0  0  0  0  0  0
   26.1249  -21.2827  -18.7436 C   0  0  0  0  0  0  0  0  0  0  0  0
   25.2642  -20.0867  -18.5343 C   0  0  0  0  0  0  0  0  0  0  0  0
   24.0577  -20.1343  -19.4881 C   0  0  0  0  0  0  0  0  0  0  0  0
   24.5015  -19.6564  -20.7842 N   0  0  0  0  0  0  0  0  0  0  0  0
   26.0924  -21.4775  -15.2463 C   0  0  0  0  0  0  0  0  0  0  0  0
   25.1934  -22.3245  -15.4649 O   0  0  0  0  0  0  0  0  0  0  0  0
   26.8510  -20.6041   -8.5056 C   0  0  0  0  0  0  0  0  0  0  0  0
   25.0887  -20.6900   -8.8396 S   0  0  0  0  0  0  0  0  0  0  0  0
   24.7130  -21.3040  -10.4928 C   0  0  0  0  0  0  0  0  0  0  0  0
   25.7202  -20.8570  -11.5310 C   0  0  0  0  0  0  0  0  0  0  0  0
   25.3063  -21.3814  -12.8742 C   0  0  2  0  0  0  0  0  0  0  0  0
   26.2283  -21.0073  -13.9212 N   0  0  0  0  0  0  0  0  0  0  0  0
   23.9469  -21.0282  -13.2709 C   0  0  0  0  0  0  0  0  0  0  0  0
   23.7067  -19.8460  -13.6258 O   0  0  0  0  0  0  0  0  0  0  0  0
   22.8571  -21.9445  -13.2842 N   0  0  0  0  0  0  0  0  0  0  0  0
   21.5580  -21.4840  -13.6660 C   0  0  1  0  0  0  0  0  0  0  0  0
   20.7128  -22.6691  -14.0777 C   0  0  0  0  0  0  0  0  0  0  0  0
   18.9795  -22.1981  -14.3251 S   0  0  0  0  0  0  0  0  0  0  0  0
   20.8965  -20.6928  -12.5917 C   0  0  0  0  0  0  0  0  0  0  0  0
   21.0742  -20.9965  -11.3990 O   0  0  0  0  0  0  0  0  0  0  0  0
   20.0936  -19.6288  -12.9772 O   0  0  0  0  0  0  0  0  0  0  0  0
  2  1  1  1
  2  8  1  0
  2  3  1  0
  4  3  1  0
  4  5  1  0
  5  6  1  0
  6  7  1  0
  8  9  2  0
 10 11  1  0
 11 12  1  0
 13 12  1  0
 14 13  1  1
 15 14  1  0
 15  8  1  0
 16 14  1  0
 17 16  2  0
 18 16  1  0
 19 18  1  0
 19 22  1  0
 19 20  1  1
 21 20  1  0
 22 24  1  0
 23 22  2  0
M  END
$$$$
