KMC.pdb
     RDKit          3D

 24 23  0  0  1  0  0  0  0  0999 V2000
   19.9160  -23.0665  -13.6255 N   0  0  0  0  0  0  0  0  0  0  0  0
   19.5513  -21.7342  -13.2103 C   0  0  1  0  0  0  0  0  0  0  0  0
   18.8595  -21.6379  -11.8993 C   0  0  0  0  0  0  0  0  0  0  0  0
   17.6646  -22.4864  -11.6918 C   0  0  0  0  0  0  0  0  0  0  0  0
   17.9165  -23.9183  -11.3736 C   0  0  0  0  0  0  0  0  0  0  0  0
   17.3764  -24.2477   -9.9710 C   0  0  0  0  0  0  0  0  0  0  0  0
   15.9470  -23.9985   -9.9796 N   0  0  0  0  0  0  0  0  0  0  0  0
   20.7861  -20.9192  -13.1342 C   0  0  0  0  0  0  0  0  0  0  0  0
   20.7077  -19.6980  -12.8585 O   0  0  0  0  0  0  0  0  0  0  0  0
   26.4858  -21.3257  -10.0912 C   0  0  0  0  0  0  0  0  0  0  0  0
   24.7949  -20.9987   -9.5826 S   0  0  0  0  0  0  0  0  0  0  0  0
   23.7242  -20.5269  -10.9546 C   0  0  0  0  0  0  0  0  0  0  0  0
   24.2368  -21.0082  -12.2954 C   0  0  0  0  0  0  0  0  0  0  0  0
   23.2582  -20.6188  -13.3636 C   0  0  2  0  0  0  0  0  0  0  0  0
   22.0762  -21.4489  -13.3590 N   0  0  0  0  0  0  0  0  0  0  0  0
   23.8173  -20.5723  -14.7109 C   0  0  0  0  0  0  0  0  0  0  0  0
   24.4328  -21.5784  -15.1471 O   0  0  0  0  0  0  0  0  0  0  0  0
   23.7119  -19.4487  -15.5791 N   0  0  0  0  0  0  0  0  0  0  0  0
   24.1327  -19.5720  -16.9405 C   0  0  1  0  0  0  0  0  0  0  0  0
   23.3392  -20.6739  -17.6071 C   0  0  0  0  0  0  0  0  0  0  0  0
   23.6327  -20.7186  -19.3958 S   0  0  0  0  0  0  0  0  0  0  0  0
   24.0169  -18.2903  -17.6899 C   0  0  0  0  0  0  0  0  0  0  0  0
   23.3904  -17.3369  -17.1949 O   0  0  0  0  0  0  0  0  0  0  0  0
   24.6261  -18.2149  -18.9343 O   0  0  0  0  0  0  0  0  0  0  0  0
  2  1  1  1
  2  8  1  0
  2  3  1  0
  4  3  1  0
  4  5  1  0
  5  6  1  0
  6  7  1  0
  8  9  2  0
 10 11  1  0
 11 12  1  0
 13 12  1  0
 14 13  1  1
 15 14  1  0
 15  8  1  0
 16 14  1  0
 17 16  2  0
 18 16  1  0
 19 18  1  0
 19 22  1  0
 19 20  1  6
 21 20  1  0
 22 24  1  0
 23 22  2  0
M  END
$$$$
