KMC.pdb
     RDKit          3D

 24 23  0  0  1  0  0  0  0  0999 V2000
   19.2425  -15.0761  -16.6586 N   0  0  0  0  0  0  0  0  0  0  0  0
   18.9447  -13.7345  -17.0963 C   0  0  1  0  0  0  0  0  0  0  0  0
   17.5392  -13.2939  -16.9030 C   0  0  0  0  0  0  0  0  0  0  0  0
   16.5645  -14.3025  -16.4301 C   0  0  0  0  0  0  0  0  0  0  0  0
   15.1475  -13.8582  -16.3310 C   0  0  0  0  0  0  0  0  0  0  0  0
   14.2628  -15.0252  -15.8590 C   0  0  0  0  0  0  0  0  0  0  0  0
   12.8845  -14.5726  -15.8870 N   0  0  0  0  0  0  0  0  0  0  0  0
   19.8209  -12.8000  -16.3522 C   0  0  0  0  0  0  0  0  0  0  0  0
   19.7512  -12.7473  -15.1008 O   0  0  0  0  0  0  0  0  0  0  0  0
   26.8760  -10.2209  -14.8022 C   0  0  0  0  0  0  0  0  0  0  0  0
   25.7833  -10.9610  -16.0200 S   0  0  0  0  0  0  0  0  0  0  0  0
   24.0374  -10.7028  -15.6507 C   0  0  0  0  0  0  0  0  0  0  0  0
   23.1187  -11.4681  -16.5793 C   0  0  0  0  0  0  0  0  0  0  0  0
   21.6943  -11.1476  -16.2346 C   0  0  2  0  0  0  0  0  0  0  0  0
   20.7517  -11.9456  -16.9836 N   0  0  0  0  0  0  0  0  0  0  0  0
   21.3437   -9.7360  -16.3551 C   0  0  0  0  0  0  0  0  0  0  0  0
   21.1006   -9.2669  -17.4962 O   0  0  0  0  0  0  0  0  0  0  0  0
   21.2564   -8.8396  -15.2523 N   0  0  0  0  0  0  0  0  0  0  0  0
   21.0276   -7.4488  -15.4950 C   0  0  1  0  0  0  0  0  0  0  0  0
   19.6524   -7.0762  -14.9869 C   0  0  0  0  0  0  0  0  0  0  0  0
   19.4351   -5.2778  -14.9086 S   0  0  0  0  0  0  0  0  0  0  0  0
   22.0810   -6.5855  -14.8925 C   0  0  0  0  0  0  0  0  0  0  0  0
   22.6812   -5.7557  -15.5979 O   0  0  0  0  0  0  0  0  0  0  0  0
   22.3522   -6.7488  -13.5416 O   0  0  0  0  0  0  0  0  0  0  0  0
  2  1  1  1
  2  8  1  0
  2  3  1  0
  4  3  1  0
  4  5  1  0
  5  6  1  0
  6  7  1  0
  8  9  2  0
 10 11  1  0
 11 12  1  0
 13 12  1  0
 14 13  1  6
 15 14  1  0
 15  8  1  0
 16 14  1  0
 17 16  2  0
 18 16  1  0
 19 18  1  0
 19 22  1  0
 19 20  1  1
 21 20  1  0
 22 24  1  0
 23 22  2  0
M  END
$$$$
