IGI.pdb
     RDKit          3D

 21 20  0  0  1  0  0  0  0  0999 V2000
    3.0569  -21.2860   21.7259 C   0  0  0  0  0  0  0  0  0  0  0  0
    4.4737  -20.8465   21.8879 C   0  0  0  0  0  0  0  0  0  0  0  0
    4.6537  -19.3396   21.9264 C   0  0  2  0  0  0  0  0  0  0  0  0
    4.0463  -18.8203   20.6401 C   0  0  0  0  0  0  0  0  0  0  0  0
    6.1275  -18.9675   22.0440 C   0  0  2  0  0  0  0  0  0  0  0  0
    6.5779  -19.6322   23.2713 N   0  0  0  0  0  0  0  0  0  0  0  0
    6.2136  -17.5026   22.2540 C   0  0  0  0  0  0  0  0  0  0  0  0
    5.7213  -17.0286   23.3344 O   0  0  0  0  0  0  0  0  0  0  0  0
    6.8001  -16.5933   21.3505 N   0  0  0  0  0  0  0  0  0  0  0  0
    6.7432  -15.1754   21.6418 C   0  0  0  0  0  0  0  0  0  0  0  0
    7.6376  -14.8473   22.7978 C   0  0  0  0  0  0  0  0  0  0  0  0
    8.8617  -14.6922   22.5873 O   0  0  0  0  0  0  0  0  0  0  0  0
    7.3326  -11.0796   27.4059 C   0  0  0  0  0  0  0  0  0  0  0  0
    8.0633  -12.2247   26.7970 C   0  0  0  0  0  0  0  0  0  0  0  0
    7.3353  -13.0154   25.7744 C   0  0  2  0  0  0  0  0  0  0  0  0
    5.8690  -13.2276   26.0892 C   0  0  0  0  0  0  0  0  0  0  0  0
    8.0328  -14.1886   25.1933 C   0  0  2  0  0  0  0  0  0  0  0  0
    7.1598  -14.7058   24.1121 N   0  0  0  0  0  0  0  0  0  0  0  0
    8.4499  -15.2586   26.0844 C   0  0  0  0  0  0  0  0  0  0  0  0
    7.7486  -16.3122   26.2856 O   0  0  0  0  0  0  0  0  0  0  0  0
    9.6402  -15.2312   26.7881 O   0  0  0  0  0  0  0  0  0  0  0  0
  1  2  1  0
  2  3  1  0
  3  5  1  0
  3  4  1  6
  5  6  1  1
  7  8  2  0
  7  5  1  0
  9  7  1  0
 10 11  1  0
 10  9  1  0
 11 18  1  0
 12 11  2  0
 14 13  1  0
 15 14  1  0
 15 16  1  1
 17 15  1  0
 17 18  1  6
 19 17  1  0
 19 21  1  0
 20 19  2  0
M  END
$$$$
