IGI.pdb
     RDKit          3D

 21 20  0  0  1  0  0  0  0  0999 V2000
    8.0225  -12.0695   19.2092 C   0  0  0  0  0  0  0  0  0  0  0  0
    7.6035  -13.5005   19.1506 C   0  0  0  0  0  0  0  0  0  0  0  0
    8.7481  -14.4716   18.9238 C   0  0  2  0  0  0  0  0  0  0  0  0
    9.2796  -14.1642   17.5395 C   0  0  0  0  0  0  0  0  0  0  0  0
    8.2711  -15.9153   19.0364 C   0  0  2  0  0  0  0  0  0  0  0  0
    7.2201  -16.0358   18.0205 N   0  0  0  0  0  0  0  0  0  0  0  0
    7.6463  -16.0875   20.3697 C   0  0  0  0  0  0  0  0  0  0  0  0
    6.4938  -15.5668   20.5561 O   0  0  0  0  0  0  0  0  0  0  0  0
    8.2292  -16.7848   21.4474 N   0  0  0  0  0  0  0  0  0  0  0  0
    7.5423  -16.8117   22.7226 C   0  0  0  0  0  0  0  0  0  0  0  0
    8.1628  -15.8279   23.6665 C   0  0  0  0  0  0  0  0  0  0  0  0
    9.2591  -15.3077   23.3595 O   0  0  0  0  0  0  0  0  0  0  0  0
    6.6791  -11.3573   27.4025 C   0  0  0  0  0  0  0  0  0  0  0  0
    7.6924  -12.3927   27.0602 C   0  0  0  0  0  0  0  0  0  0  0  0
    7.2290  -13.5356   26.2357 C   0  0  2  0  0  0  0  0  0  0  0  0
    5.8962  -14.1085   26.6711 C   0  0  0  0  0  0  0  0  0  0  0  0
    8.2429  -14.5372   25.8243 C   0  0  2  0  0  0  0  0  0  0  0  0
    7.5651  -15.4630   24.8852 N   0  0  0  0  0  0  0  0  0  0  0  0
    8.9526  -15.2707   26.8595 C   0  0  0  0  0  0  0  0  0  0  0  0
    8.6410  -16.4642   27.2071 O   0  0  0  0  0  0  0  0  0  0  0  0
   10.0258  -14.7434   27.5544 O   0  0  0  0  0  0  0  0  0  0  0  0
  1  2  1  0
  2  3  1  0
  3  5  1  0
  3  4  1  6
  5  6  1  6
  7  8  2  0
  7  5  1  0
  9  7  1  0
 10 11  1  0
 10  9  1  0
 11 18  1  0
 12 11  2  0
 14 13  1  0
 15 14  1  0
 15 16  1  1
 17 15  1  0
 17 18  1  6
 19 17  1  0
 19 21  1  0
 20 19  2  0
M  END
$$$$
