IGI.pdb
     RDKit          3D

 21 20  0  0  1  0  0  0  0  0999 V2000
    7.5406  -13.7845   16.0908 C   0  0  0  0  0  0  0  0  0  0  0  0
    8.5184  -13.9300   17.2087 C   0  0  0  0  0  0  0  0  0  0  0  0
    7.8838  -14.2669   18.5459 C   0  0  2  0  0  0  0  0  0  0  0  0
    7.1175  -13.0284   18.9607 C   0  0  0  0  0  0  0  0  0  0  0  0
    8.9437  -14.6446   19.5747 C   0  0  2  0  0  0  0  0  0  0  0  0
    9.5544  -15.8670   19.0419 N   0  0  0  0  0  0  0  0  0  0  0  0
    8.2511  -14.9879   20.8396 C   0  0  0  0  0  0  0  0  0  0  0  0
    7.8596  -14.0234   21.5817 O   0  0  0  0  0  0  0  0  0  0  0  0
    7.9909  -16.3002   21.2840 N   0  0  0  0  0  0  0  0  0  0  0  0
    7.2949  -16.4934   22.5397 C   0  0  0  0  0  0  0  0  0  0  0  0
    8.0666  -15.8692   23.6616 C   0  0  0  0  0  0  0  0  0  0  0  0
    9.3160  -15.9448   23.6485 O   0  0  0  0  0  0  0  0  0  0  0  0
    7.1860  -11.1547   27.4723 C   0  0  0  0  0  0  0  0  0  0  0  0
    7.9823  -12.3738   27.1629 C   0  0  0  0  0  0  0  0  0  0  0  0
    7.3836  -13.3401   26.2096 C   0  0  2  0  0  0  0  0  0  0  0  0
    5.9560  -13.7250   26.5382 C   0  0  0  0  0  0  0  0  0  0  0  0
    8.2431  -14.4505   25.7315 C   0  0  2  0  0  0  0  0  0  0  0  0
    7.4462  -15.2006   24.7311 N   0  0  0  0  0  0  0  0  0  0  0  0
    8.8258  -15.3488   26.7147 C   0  0  0  0  0  0  0  0  0  0  0  0
    9.7488  -14.9891   27.5278 O   0  0  0  0  0  0  0  0  0  0  0  0
    8.4310  -16.6666   26.8577 O   0  0  0  0  0  0  0  0  0  0  0  0
  1  2  1  0
  2  3  1  0
  3  5  1  0
  3  4  1  1
  5  6  1  6
  7  8  2  0
  7  5  1  0
  9  7  1  0
 10 11  1  0
 10  9  1  0
 11 18  1  0
 12 11  2  0
 14 13  1  0
 15 14  1  0
 15 16  1  1
 17 15  1  0
 17 18  1  6
 19 17  1  0
 19 21  1  0
 20 19  2  0
M  END
$$$$
