IGI.pdb
     RDKit          3D

 21 20  0  0  1  0  0  0  0  0999 V2000
    7.6728  -20.0660   28.5001 C   0  0  0  0  0  0  0  0  0  0  0  0
    6.8949  -20.2606   27.2416 C   0  0  0  0  0  0  0  0  0  0  0  0
    7.3111  -19.3403   26.1082 C   0  0  2  0  0  0  0  0  0  0  0  0
    7.1079  -17.9321   26.6267 C   0  0  0  0  0  0  0  0  0  0  0  0
    6.4822  -19.6049   24.8563 C   0  0  2  0  0  0  0  0  0  0  0  0
    6.7633  -21.0040   24.5178 N   0  0  0  0  0  0  0  0  0  0  0  0
    7.0135  -18.7507   23.7674 C   0  0  0  0  0  0  0  0  0  0  0  0
    8.1769  -19.0242   23.3135 O   0  0  0  0  0  0  0  0  0  0  0  0
    6.3295  -17.6594   23.1943 N   0  0  0  0  0  0  0  0  0  0  0  0
    7.0135  -16.8319   22.2217 C   0  0  0  0  0  0  0  0  0  0  0  0
    7.6827  -15.6774   22.9022 C   0  0  0  0  0  0  0  0  0  0  0  0
    8.3918  -14.9044   22.2193 O   0  0  0  0  0  0  0  0  0  0  0  0
    6.2522  -12.3806   27.3778 C   0  0  0  0  0  0  0  0  0  0  0  0
    6.5715  -13.5524   26.5171 C   0  0  0  0  0  0  0  0  0  0  0  0
    7.4599  -13.3066   25.3547 C   0  0  2  0  0  0  0  0  0  0  0  0
    6.7883  -12.5766   24.2100 C   0  0  0  0  0  0  0  0  0  0  0  0
    8.3795  -14.3994   24.9539 C   0  0  2  0  0  0  0  0  0  0  0  0
    7.5480  -15.4244   24.2783 N   0  0  0  0  0  0  0  0  0  0  0  0
    9.2259  -15.0012   25.9711 C   0  0  0  0  0  0  0  0  0  0  0  0
    8.9969  -16.1572   26.4747 O   0  0  0  0  0  0  0  0  0  0  0  0
   10.3514  -14.3782   26.4789 O   0  0  0  0  0  0  0  0  0  0  0  0
  1  2  1  0
  2  3  1  0
  3  5  1  0
  3  4  1  1
  5  6  1  6
  7  8  2  0
  7  5  1  0
  9  7  1  0
 10 11  1  0
 10  9  1  0
 11 18  1  0
 12 11  2  0
 14 13  1  0
 15 14  1  0
 15 16  1  6
 17 15  1  0
 17 18  1  1
 19 17  1  0
 19 21  1  0
 20 19  2  0
M  END
$$$$
