IGI.pdb
     RDKit          3D

 21 20  0  0  1  0  0  0  0  0999 V2000
    7.7155  -12.1718   18.4280 C   0  0  0  0  0  0  0  0  0  0  0  0
    7.7663  -13.6588   18.5414 C   0  0  0  0  0  0  0  0  0  0  0  0
    7.6610  -14.1748   19.9652 C   0  0  2  0  0  0  0  0  0  0  0  0
    8.8653  -13.6169   20.6945 C   0  0  0  0  0  0  0  0  0  0  0  0
    7.6408  -15.6990   19.9946 C   0  0  2  0  0  0  0  0  0  0  0  0
    6.4942  -16.0679   19.1578 N   0  0  0  0  0  0  0  0  0  0  0  0
    7.3539  -16.1256   21.3850 C   0  0  0  0  0  0  0  0  0  0  0  0
    6.2408  -15.7629   21.8986 O   0  0  0  0  0  0  0  0  0  0  0  0
    8.2178  -16.9033   22.1826 N   0  0  0  0  0  0  0  0  0  0  0  0
    7.8383  -17.2003   23.5487 C   0  0  0  0  0  0  0  0  0  0  0  0
    8.5076  -16.2479   24.4915 C   0  0  0  0  0  0  0  0  0  0  0  0
    9.7584  -16.2046   24.5168 O   0  0  0  0  0  0  0  0  0  0  0  0
    5.8881  -11.9118   27.5493 C   0  0  0  0  0  0  0  0  0  0  0  0
    6.5353  -13.2295   27.3031 C   0  0  0  0  0  0  0  0  0  0  0  0
    7.6777  -13.2476   26.3567 C   0  0  2  0  0  0  0  0  0  0  0  0
    7.3815  -12.5961   25.0217 C   0  0  0  0  0  0  0  0  0  0  0  0
    8.4892  -14.4873   26.2883 C   0  0  2  0  0  0  0  0  0  0  0  0
    7.7896  -15.3988   25.3512 N   0  0  0  0  0  0  0  0  0  0  0  0
    8.8207  -15.1682   27.5291 C   0  0  0  0  0  0  0  0  0  0  0  0
    8.2863  -16.2790   27.8796 O   0  0  0  0  0  0  0  0  0  0  0  0
    9.7431  -14.6763   28.4346 O   0  0  0  0  0  0  0  0  0  0  0  0
  1  2  1  0
  2  3  1  0
  3  5  1  0
  3  4  1  1
  5  6  1  6
  7  8  2  0
  7  5  1  0
  9  7  1  0
 10 11  1  0
 10  9  1  0
 11 18  1  0
 12 11  2  0
 14 13  1  0
 15 14  1  0
 15 16  1  6
 17 15  1  0
 17 18  1  6
 19 17  1  0
 19 21  1  0
 20 19  2  0
M  END
$$$$
