IGI.pdb
     RDKit          3D

 21 20  0  0  1  0  0  0  0  0999 V2000
   11.1665  -14.1542   29.8467 C   0  0  0  0  0  0  0  0  0  0  0  0
   11.1530  -15.6191   29.5621 C   0  0  0  0  0  0  0  0  0  0  0  0
    9.9588  -16.0800   28.7461 C   0  0  2  0  0  0  0  0  0  0  0  0
    8.7363  -15.5983   29.4989 C   0  0  0  0  0  0  0  0  0  0  0  0
    9.9594  -17.5959   28.5838 C   0  0  2  0  0  0  0  0  0  0  0  0
   11.1250  -17.8749   27.7385 N   0  0  0  0  0  0  0  0  0  0  0  0
    8.7408  -17.9754   27.8298 C   0  0  0  0  0  0  0  0  0  0  0  0
    7.6351  -18.0132   28.4703 O   0  0  0  0  0  0  0  0  0  0  0  0
    8.7111  -18.2964   26.4574 N   0  0  0  0  0  0  0  0  0  0  0  0
    7.4340  -18.5414   25.8191 C   0  0  0  0  0  0  0  0  0  0  0  0
    6.9905  -17.3265   25.0634 C   0  0  0  0  0  0  0  0  0  0  0  0
    5.9948  -17.4158   24.3102 O   0  0  0  0  0  0  0  0  0  0  0  0
    7.1766  -11.7883   26.3214 C   0  0  0  0  0  0  0  0  0  0  0  0
    7.7551  -13.0044   25.6871 C   0  0  0  0  0  0  0  0  0  0  0  0
    6.8217  -13.8705   24.9258 C   0  0  2  0  0  0  0  0  0  0  0  0
    5.5287  -14.1723   25.6547 C   0  0  0  0  0  0  0  0  0  0  0  0
    7.4042  -15.0096   24.1751 C   0  0  2  0  0  0  0  0  0  0  0  0
    7.6463  -16.0873   25.1642 N   0  0  0  0  0  0  0  0  0  0  0  0
    8.5856  -14.7722   23.3619 C   0  0  0  0  0  0  0  0  0  0  0  0
    8.5828  -14.0064   22.3344 O   0  0  0  0  0  0  0  0  0  0  0  0
    9.8129  -15.3505   23.6304 O   0  0  0  0  0  0  0  0  0  0  0  0
  1  2  1  0
  2  3  1  0
  3  5  1  0
  3  4  1  1
  5  6  1  6
  7  8  2  0
  7  5  1  0
  9  7  1  0
 10 11  1  0
 10  9  1  0
 11 18  1  0
 12 11  2  0
 14 13  1  0
 15 14  1  0
 15 16  1  1
 17 15  1  0
 17 18  1  1
 19 17  1  0
 19 21  1  0
 20 19  2  0
M  END
$$$$
