IGI.pdb
     RDKit          3D

 21 20  0  0  1  0  0  0  0  0999 V2000
    7.9235  -12.4231   18.8619 C   0  0  0  0  0  0  0  0  0  0  0  0
    7.6893  -13.8884   19.0191 C   0  0  0  0  0  0  0  0  0  0  0  0
    7.6357  -14.3552   20.4627 C   0  0  2  0  0  0  0  0  0  0  0  0
    8.9901  -14.0221   21.0527 C   0  0  0  0  0  0  0  0  0  0  0  0
    7.3374  -15.8481   20.5441 C   0  0  2  0  0  0  0  0  0  0  0  0
    6.1150  -16.0227   19.7527 N   0  0  0  0  0  0  0  0  0  0  0  0
    7.0242  -16.1752   21.9557 C   0  0  0  0  0  0  0  0  0  0  0  0
    6.0366  -15.5721   22.4989 O   0  0  0  0  0  0  0  0  0  0  0  0
    7.7346  -17.1039   22.7431 N   0  0  0  0  0  0  0  0  0  0  0  0
    7.4660  -17.1728   24.1650 C   0  0  0  0  0  0  0  0  0  0  0  0
    8.4601  -16.3459   24.9212 C   0  0  0  0  0  0  0  0  0  0  0  0
    9.5633  -16.0925   24.3868 O   0  0  0  0  0  0  0  0  0  0  0  0
    6.9213  -11.9039   26.8515 C   0  0  0  0  0  0  0  0  0  0  0  0
    7.7123  -13.0663   26.3625 C   0  0  0  0  0  0  0  0  0  0  0  0
    8.5284  -13.7908   27.3675 C   0  0  2  0  0  0  0  0  0  0  0  0
    9.3431  -12.8852   28.2676 C   0  0  0  0  0  0  0  0  0  0  0  0
    9.2176  -15.0277   26.9253 C   0  0  2  0  0  0  0  0  0  0  0  0
    8.2065  -15.8411   26.2082 N   0  0  0  0  0  0  0  0  0  0  0  0
    9.9187  -15.8237   27.9193 C   0  0  0  0  0  0  0  0  0  0  0  0
   11.1230  -15.5812   28.2844 O   0  0  0  0  0  0  0  0  0  0  0  0
    9.3442  -16.9082   28.5570 O   0  0  0  0  0  0  0  0  0  0  0  0
  1  2  1  0
  2  3  1  0
  3  5  1  0
  3  4  1  6
  5  6  1  6
  7  8  2  0
  7  5  1  0
  9  7  1  0
 10 11  1  0
 10  9  1  0
 11 18  1  0
 12 11  2  0
 14 13  1  0
 15 14  1  0
 15 16  1  6
 17 15  1  0
 17 18  1  1
 19 17  1  0
 19 21  1  0
 20 19  2  0
M  END
$$$$
