IGI.pdb
     RDKit          3D

 21 20  0  0  1  0  0  0  0  0999 V2000
    7.8057  -12.4334   18.0092 C   0  0  0  0  0  0  0  0  0  0  0  0
    8.5383  -13.5410   18.6898 C   0  0  0  0  0  0  0  0  0  0  0  0
    7.6646  -14.4046   19.5816 C   0  0  2  0  0  0  0  0  0  0  0  0
    7.1053  -13.4724   20.6358 C   0  0  0  0  0  0  0  0  0  0  0  0
    8.4706  -15.5395   20.2034 C   0  0  2  0  0  0  0  0  0  0  0  0
    8.9296  -16.3345   19.0596 N   0  0  0  0  0  0  0  0  0  0  0  0
    7.5428  -16.3743   21.0033 C   0  0  0  0  0  0  0  0  0  0  0  0
    7.4136  -17.6019   20.6710 O   0  0  0  0  0  0  0  0  0  0  0  0
    6.7930  -15.9143   22.1049 N   0  0  0  0  0  0  0  0  0  0  0  0
    6.5010  -16.8292   23.1894 C   0  0  0  0  0  0  0  0  0  0  0  0
    7.5016  -16.6630   24.2917 C   0  0  0  0  0  0  0  0  0  0  0  0
    8.6603  -17.1065   24.1253 O   0  0  0  0  0  0  0  0  0  0  0  0
    6.2820  -12.1970   27.5419 C   0  0  0  0  0  0  0  0  0  0  0  0
    6.5563  -13.6174   27.1909 C   0  0  0  0  0  0  0  0  0  0  0  0
    7.7561  -13.8815   26.3593 C   0  0  2  0  0  0  0  0  0  0  0  0
    7.7884  -13.1031   25.0603 C   0  0  0  0  0  0  0  0  0  0  0  0
    8.2283  -15.2846   26.2666 C   0  0  2  0  0  0  0  0  0  0  0  0
    7.1944  -16.0288   25.5078 N   0  0  0  0  0  0  0  0  0  0  0  0
    8.5776  -15.9810   27.4939 C   0  0  0  0  0  0  0  0  0  0  0  0
    7.9067  -16.9742   27.9476 O   0  0  0  0  0  0  0  0  0  0  0  0
    9.6652  -15.6323   28.2738 O   0  0  0  0  0  0  0  0  0  0  0  0
  1  2  1  0
  2  3  1  0
  3  5  1  0
  3  4  1  1
  5  6  1  6
  7  8  2  0
  7  5  1  0
  9  7  1  0
 10 11  1  0
 10  9  1  0
 11 18  1  0
 12 11  2  0
 14 13  1  0
 15 14  1  0
 15 16  1  6
 17 15  1  0
 17 18  1  1
 19 17  1  0
 19 21  1  0
 20 19  2  0
M  END
$$$$
