IGI.pdb
     RDKit          3D

 21 20  0  0  1  0  0  0  0  0999 V2000
    7.6747  -13.1443   19.2989 C   0  0  0  0  0  0  0  0  0  0  0  0
    7.0195  -14.4421   19.6351 C   0  0  0  0  0  0  0  0  0  0  0  0
    7.9264  -15.6503   19.4853 C   0  0  2  0  0  0  0  0  0  0  0  0
    8.3064  -15.6997   18.0202 C   0  0  0  0  0  0  0  0  0  0  0  0
    7.2163  -16.9253   19.9265 C   0  0  2  0  0  0  0  0  0  0  0  0
    6.0609  -17.0321   19.0295 N   0  0  0  0  0  0  0  0  0  0  0  0
    6.7130  -16.7146   21.3048 C   0  0  0  0  0  0  0  0  0  0  0  0
    5.7681  -15.8692   21.4681 O   0  0  0  0  0  0  0  0  0  0  0  0
    7.1987  -17.3791   22.4492 N   0  0  0  0  0  0  0  0  0  0  0  0
    6.7135  -16.9799   23.7545 C   0  0  0  0  0  0  0  0  0  0  0  0
    7.6661  -16.0130   24.3883 C   0  0  0  0  0  0  0  0  0  0  0  0
    8.7755  -15.8156   23.8433 O   0  0  0  0  0  0  0  0  0  0  0  0
    6.1761  -11.7145   27.9622 C   0  0  0  0  0  0  0  0  0  0  0  0
    6.5205  -13.0452   27.3909 C   0  0  0  0  0  0  0  0  0  0  0  0
    7.5522  -13.0692   26.3251 C   0  0  2  0  0  0  0  0  0  0  0  0
    7.1320  -12.3756   25.0458 C   0  0  0  0  0  0  0  0  0  0  0  0
    8.3147  -14.3280   26.1399 C   0  0  2  0  0  0  0  0  0  0  0  0
    7.3666  -15.3162   25.5717 N   0  0  0  0  0  0  0  0  0  0  0  0
    9.0253  -14.8822   27.2806 C   0  0  0  0  0  0  0  0  0  0  0  0
    8.6402  -15.9380   27.8966 O   0  0  0  0  0  0  0  0  0  0  0  0
   10.1787  -14.3186   27.7953 O   0  0  0  0  0  0  0  0  0  0  0  0
  1  2  1  0
  2  3  1  0
  3  5  1  0
  3  4  1  6
  5  6  1  6
  7  8  2  0
  7  5  1  0
  9  7  1  0
 10 11  1  0
 10  9  1  0
 11 18  1  0
 12 11  2  0
 14 13  1  0
 15 14  1  0
 15 16  1  6
 17 15  1  0
 17 18  1  1
 19 17  1  0
 19 21  1  0
 20 19  2  0
M  END
$$$$
