IGI.pdb
     RDKit          3D

 21 20  0  0  1  0  0  0  0  0999 V2000
    8.9109  -20.2098   17.2269 C   0  0  0  0  0  0  0  0  0  0  0  0
    9.5948  -19.1378   18.0080 C   0  0  0  0  0  0  0  0  0  0  0  0
    8.7084  -18.4613   19.0381 C   0  0  2  0  0  0  0  0  0  0  0  0
    7.5660  -17.8466   18.2569 C   0  0  0  0  0  0  0  0  0  0  0  0
    9.4853  -17.4095   19.8220 C   0  0  2  0  0  0  0  0  0  0  0  0
   10.5726  -18.1568   20.4626 N   0  0  0  0  0  0  0  0  0  0  0  0
    8.5969  -16.8838   20.8859 C   0  0  0  0  0  0  0  0  0  0  0  0
    8.3284  -17.6556   21.8691 O   0  0  0  0  0  0  0  0  0  0  0  0
    8.0272  -15.5944   20.8943 N   0  0  0  0  0  0  0  0  0  0  0  0
    7.0959  -15.2428   21.9467 C   0  0  0  0  0  0  0  0  0  0  0  0
    7.8391  -14.8288   23.1797 C   0  0  0  0  0  0  0  0  0  0  0  0
    9.0900  -14.8724   23.1721 O   0  0  0  0  0  0  0  0  0  0  0  0
    5.6193  -11.2662   27.0605 C   0  0  0  0  0  0  0  0  0  0  0  0
    6.0428  -12.5460   26.4290 C   0  0  0  0  0  0  0  0  0  0  0  0
    7.4259  -12.6034   25.8953 C   0  0  2  0  0  0  0  0  0  0  0  0
    7.7597  -11.4858   24.9289 C   0  0  0  0  0  0  0  0  0  0  0  0
    7.9623  -13.9368   25.5286 C   0  0  2  0  0  0  0  0  0  0  0  0
    7.1902  -14.3923   24.3476 N   0  0  0  0  0  0  0  0  0  0  0  0
    8.0109  -14.9695   26.5506 C   0  0  0  0  0  0  0  0  0  0  0  0
    7.2217  -15.9792   26.5602 O   0  0  0  0  0  0  0  0  0  0  0  0
    8.9151  -14.9510   27.5970 O   0  0  0  0  0  0  0  0  0  0  0  0
  1  2  1  0
  2  3  1  0
  3  5  1  0
  3  4  1  6
  5  6  1  1
  7  8  2  0
  7  5  1  0
  9  7  1  0
 10 11  1  0
 10  9  1  0
 11 18  1  0
 12 11  2  0
 14 13  1  0
 15 14  1  0
 15 16  1  6
 17 15  1  0
 17 18  1  6
 19 17  1  0
 19 21  1  0
 20 19  2  0
M  END
$$$$
