IGI.pdb
     RDKit          3D

 21 20  0  0  1  0  0  0  0  0999 V2000
    4.4501  -22.5834   23.9444 C   0  0  0  0  0  0  0  0  0  0  0  0
    5.4914  -21.8709   24.7413 C   0  0  0  0  0  0  0  0  0  0  0  0
    6.0658  -20.6454   24.0538 C   0  0  2  0  0  0  0  0  0  0  0  0
    6.5668  -21.1261   22.7081 C   0  0  0  0  0  0  0  0  0  0  0  0
    7.1853  -20.0270   24.8837 C   0  0  2  0  0  0  0  0  0  0  0  0
    6.5398  -19.6414   26.1430 N   0  0  0  0  0  0  0  0  0  0  0  0
    7.6341  -18.7919   24.1977 C   0  0  0  0  0  0  0  0  0  0  0  0
    8.6983  -18.8587   23.4927 O   0  0  0  0  0  0  0  0  0  0  0  0
    6.9726  -17.5488   24.2645 N   0  0  0  0  0  0  0  0  0  0  0  0
    7.4781  -16.4393   23.4821 C   0  0  0  0  0  0  0  0  0  0  0  0
    8.5418  -15.7098   24.2439 C   0  0  0  0  0  0  0  0  0  0  0  0
    9.1883  -14.8090   23.6630 O   0  0  0  0  0  0  0  0  0  0  0  0
    7.7522  -12.7400   28.0434 C   0  0  0  0  0  0  0  0  0  0  0  0
    8.3606  -13.5434   26.9478 C   0  0  0  0  0  0  0  0  0  0  0  0
    9.4361  -14.4908   27.3306 C   0  0  2  0  0  0  0  0  0  0  0  0
   10.4511  -13.9130   28.2951 C   0  0  0  0  0  0  0  0  0  0  0  0
    9.9990  -15.3536   26.2633 C   0  0  2  0  0  0  0  0  0  0  0  0
    8.8459  -15.9943   25.5864 N   0  0  0  0  0  0  0  0  0  0  0  0
   11.0045  -16.3387   26.6264 C   0  0  0  0  0  0  0  0  0  0  0  0
   10.7108  -17.5171   27.0357 O   0  0  0  0  0  0  0  0  0  0  0  0
   12.3629  -16.0882   26.5578 O   0  0  0  0  0  0  0  0  0  0  0  0
  1  2  1  0
  2  3  1  0
  3  5  1  0
  3  4  1  6
  5  6  1  1
  7  8  2  0
  7  5  1  0
  9  7  1  0
 10 11  1  0
 10  9  1  0
 11 18  1  0
 12 11  2  0
 14 13  1  0
 15 14  1  0
 15 16  1  6
 17 15  1  0
 17 18  1  1
 19 17  1  0
 19 21  1  0
 20 19  2  0
M  END
$$$$
