IGI.pdb
     RDKit          3D

 21 20  0  0  1  0  0  0  0  0999 V2000
    1.7602  -19.0843   21.4964 C   0  0  0  0  0  0  0  0  0  0  0  0
    3.0880  -19.0288   22.1751 C   0  0  0  0  0  0  0  0  0  0  0  0
    4.2674  -19.2579   21.2473 C   0  0  2  0  0  0  0  0  0  0  0  0
    4.1053  -20.6671   20.7170 C   0  0  0  0  0  0  0  0  0  0  0  0
    5.5884  -19.0832   21.9882 C   0  0  2  0  0  0  0  0  0  0  0  0
    5.4094  -19.8268   23.2396 N   0  0  0  0  0  0  0  0  0  0  0  0
    5.7385  -17.6467   22.3221 C   0  0  0  0  0  0  0  0  0  0  0  0
    5.2490  -17.2416   23.4314 O   0  0  0  0  0  0  0  0  0  0  0  0
    6.3830  -16.6941   21.5069 N   0  0  0  0  0  0  0  0  0  0  0  0
    6.3879  -15.3046   21.9167 C   0  0  0  0  0  0  0  0  0  0  0  0
    7.3813  -15.0923   23.0176 C   0  0  0  0  0  0  0  0  0  0  0  0
    8.6020  -15.1506   22.7469 O   0  0  0  0  0  0  0  0  0  0  0  0
    5.9448  -11.4168   26.4805 C   0  0  0  0  0  0  0  0  0  0  0  0
    6.7041  -12.3442   25.5977 C   0  0  0  0  0  0  0  0  0  0  0  0
    7.4011  -13.4757   26.2573 C   0  0  2  0  0  0  0  0  0  0  0  0
    8.2367  -13.0706   27.4539 C   0  0  0  0  0  0  0  0  0  0  0  0
    8.0094  -14.5074   25.3823 C   0  0  2  0  0  0  0  0  0  0  0  0
    7.0003  -14.8295   24.3448 N   0  0  0  0  0  0  0  0  0  0  0  0
    8.5313  -15.7172   25.9964 C   0  0  0  0  0  0  0  0  0  0  0  0
    9.6940  -15.7823   26.5315 O   0  0  0  0  0  0  0  0  0  0  0  0
    7.8159  -16.8993   26.0577 O   0  0  0  0  0  0  0  0  0  0  0  0
  1  2  1  0
  2  3  1  0
  3  5  1  0
  3  4  1  1
  5  6  1  1
  7  8  2  0
  7  5  1  0
  9  7  1  0
 10 11  1  0
 10  9  1  0
 11 18  1  0
 12 11  2  0
 14 13  1  0
 15 14  1  0
 15 16  1  6
 17 15  1  0
 17 18  1  6
 19 17  1  0
 19 21  1  0
 20 19  2  0
M  END
$$$$
