IGI.pdb
     RDKit          3D

 21 20  0  0  1  0  0  0  0  0999 V2000
    7.1941  -13.0013   17.2783 C   0  0  0  0  0  0  0  0  0  0  0  0
    8.0882  -13.8567   18.1123 C   0  0  0  0  0  0  0  0  0  0  0  0
    7.5325  -14.1753   19.4886 C   0  0  2  0  0  0  0  0  0  0  0  0
    7.4017  -12.8434   20.1973 C   0  0  0  0  0  0  0  0  0  0  0  0
    8.4536  -15.1272   20.2435 C   0  0  2  0  0  0  0  0  0  0  0  0
    8.3697  -16.3881   19.4991 N   0  0  0  0  0  0  0  0  0  0  0  0
    7.8775  -15.3476   21.5915 C   0  0  0  0  0  0  0  0  0  0  0  0
    7.9725  -14.3959   22.4397 O   0  0  0  0  0  0  0  0  0  0  0  0
    7.2311  -16.5295   22.0069 N   0  0  0  0  0  0  0  0  0  0  0  0
    6.6192  -16.5735   23.3192 C   0  0  0  0  0  0  0  0  0  0  0  0
    7.6420  -16.2956   24.3778 C   0  0  0  0  0  0  0  0  0  0  0  0
    8.8415  -16.5646   24.1417 O   0  0  0  0  0  0  0  0  0  0  0  0
    6.4586  -11.7475   26.3731 C   0  0  0  0  0  0  0  0  0  0  0  0
    7.0629  -13.0265   25.9093 C   0  0  0  0  0  0  0  0  0  0  0  0
    7.8213  -13.8114   26.9142 C   0  0  2  0  0  0  0  0  0  0  0  0
    8.7639  -12.9809   27.7604 C   0  0  0  0  0  0  0  0  0  0  0  0
    8.3481  -15.1327   26.4937 C   0  0  2  0  0  0  0  0  0  0  0  0
    7.3116  -15.7445   25.6279 N   0  0  0  0  0  0  0  0  0  0  0  0
    8.7859  -16.0633   27.5211 C   0  0  0  0  0  0  0  0  0  0  0  0
    8.0090  -16.9343   28.0503 O   0  0  0  0  0  0  0  0  0  0  0  0
   10.0787  -16.0892   28.0120 O   0  0  0  0  0  0  0  0  0  0  0  0
  1  2  1  0
  2  3  1  0
  3  5  1  0
  3  4  1  1
  5  6  1  6
  7  8  2  0
  7  5  1  0
  9  7  1  0
 10 11  1  0
 10  9  1  0
 11 18  1  0
 12 11  2  0
 14 13  1  0
 15 14  1  0
 15 16  1  6
 17 15  1  0
 17 18  1  1
 19 17  1  0
 19 21  1  0
 20 19  2  0
M  END
$$$$
