HVK.pdb
     RDKit          3D

 27 27  0  0  1  0  0  0  0  0999 V2000
   19.5293  -13.9027  -17.6163 N   0  0  0  0  0  0  0  0  0  0  0  0
   20.0291  -12.6223  -18.0817 C   0  0  1  0  0  0  0  0  0  0  0  0
   19.0502  -12.1173  -19.1215 C   0  0  0  0  0  0  0  0  0  0  0  0
   19.1214  -12.9498  -20.3502 C   0  0  0  0  0  0  0  0  0  0  0  0
   20.2893  -13.4166  -20.9170 C   0  0  0  0  0  0  0  0  0  0  0  0
   20.0233  -14.1365  -22.0148 N   0  0  0  0  0  0  0  0  0  0  0  0
   18.6812  -14.1226  -22.1394 C   0  0  0  0  0  0  0  0  0  0  0  0
   18.1353  -13.4002  -21.1256 N   0  0  0  0  0  0  0  0  0  0  0  0
   20.1038  -11.6386  -16.9655 C   0  0  0  0  0  0  0  0  0  0  0  0
   19.2504  -11.6406  -16.0487 O   0  0  0  0  0  0  0  0  0  0  0  0
   22.5832   -8.7069  -14.0409 C   0  0  0  0  0  0  0  0  0  0  0  0
   22.5522   -9.8482  -15.0484 C   0  0  1  0  0  0  0  0  0  0  0  0
   22.8850  -11.1470  -14.4365 C   0  0  0  0  0  0  0  0  0  0  0  0
   21.3069   -9.7316  -15.8389 C   0  0  2  0  0  0  0  0  0  0  0  0
   21.1500  -10.6749  -16.9199 N   0  0  0  0  0  0  0  0  0  0  0  0
   20.8928   -8.3468  -16.1763 C   0  0  0  0  0  0  0  0  0  0  0  0
   21.5649   -7.7565  -17.0597 O   0  0  0  0  0  0  0  0  0  0  0  0
   19.8170   -7.6385  -15.5916 N   0  0  0  0  0  0  0  0  0  0  0  0
   19.5241   -6.2440  -15.9818 C   0  0  1  0  0  0  0  0  0  0  0  0
   18.0905   -5.9568  -15.6873 C   0  0  0  0  0  0  0  0  0  0  0  0
   17.1441   -6.6532  -16.6412 C   0  0  0  0  0  0  0  0  0  0  0  0
   15.7125   -6.3319  -16.3629 C   0  0  0  0  0  0  0  0  0  0  0  0
   14.7636   -6.8947  -17.3748 C   0  0  0  0  0  0  0  0  0  0  0  0
   13.4114   -6.4818  -16.9730 N   0  0  0  0  0  0  0  0  0  0  0  0
   20.3884   -5.3929  -15.1223 C   0  0  0  0  0  0  0  0  0  0  0  0
   20.5120   -4.1671  -15.3777 O   0  0  0  0  0  0  0  0  0  0  0  0
   21.0882   -5.8755  -14.0248 O   0  0  0  0  0  0  0  0  0  0  0  0
  2  3  1  0
  2  1  1  1
  4  3  1  0
  5  4  2  0
  6  5  1  0
  7  6  1  0
  7  8  2  0
  8  4  1  0
  9  2  1  0
 10  9  2  0
 12 11  1  1
 12 14  1  0
 13 12  1  0
 14 15  1  6
 15  9  1  0
 16 17  2  0
 16 14  1  0
 18 16  1  0
 19 20  1  1
 19 18  1  0
 20 21  1  0
 21 22  1  0
 23 22  1  0
 24 23  1  0
 25 27  1  0
 25 19  1  0
 26 25  2  0
M  END
$$$$
