HVK.pdb
     RDKit          3D

 27 27  0  0  1  0  0  0  0  0999 V2000
   26.4876  -19.9414  -12.9865 N   0  0  0  0  0  0  0  0  0  0  0  0
   25.7838  -20.8032  -12.0551 C   0  0  1  0  0  0  0  0  0  0  0  0
   26.3932  -20.5680  -10.6884 C   0  0  0  0  0  0  0  0  0  0  0  0
   27.8383  -20.9134  -10.6970 C   0  0  0  0  0  0  0  0  0  0  0  0
   28.5248  -21.3957  -11.7922 C   0  0  0  0  0  0  0  0  0  0  0  0
   29.8102  -21.6105  -11.4831 N   0  0  0  0  0  0  0  0  0  0  0  0
   29.9333  -21.2616  -10.1869 C   0  0  0  0  0  0  0  0  0  0  0  0
   28.7323  -20.8380   -9.7115 N   0  0  0  0  0  0  0  0  0  0  0  0
   24.3334  -20.4671  -12.0056 C   0  0  0  0  0  0  0  0  0  0  0  0
   23.9421  -19.2856  -12.1468 O   0  0  0  0  0  0  0  0  0  0  0  0
   22.3815  -19.3484  -13.3947 C   0  0  0  0  0  0  0  0  0  0  0  0
   21.5408  -20.6076  -13.2330 C   0  0  1  0  0  0  0  0  0  0  0  0
   21.4802  -21.4055  -14.4706 C   0  0  0  0  0  0  0  0  0  0  0  0
   21.9455  -21.2737  -11.9752 C   0  0  2  0  0  0  0  0  0  0  0  0
   23.3618  -21.4858  -11.7961 N   0  0  0  0  0  0  0  0  0  0  0  0
   21.1022  -22.4230  -11.5620 C   0  0  0  0  0  0  0  0  0  0  0  0
   21.3378  -23.5248  -12.1197 O   0  0  0  0  0  0  0  0  0  0  0  0
   20.0622  -22.3847  -10.6041 N   0  0  0  0  0  0  0  0  0  0  0  0
   19.3586  -23.6184  -10.1967 C   0  0  1  0  0  0  0  0  0  0  0  0
   18.8124  -23.4251   -8.8224 C   0  0  0  0  0  0  0  0  0  0  0  0
   18.0315  -24.6230   -8.3271 C   0  0  0  0  0  0  0  0  0  0  0  0
   17.4870  -24.4216   -6.9511 C   0  0  0  0  0  0  0  0  0  0  0  0
   16.6600  -25.5684   -6.4592 C   0  0  0  0  0  0  0  0  0  0  0  0
   16.2228  -25.2307   -5.0972 N   0  0  0  0  0  0  0  0  0  0  0  0
   18.2373  -23.7817  -11.1591 C   0  0  0  0  0  0  0  0  0  0  0  0
   17.7010  -22.7664  -11.6734 O   0  0  0  0  0  0  0  0  0  0  0  0
   17.7284  -25.0163  -11.5385 O   0  0  0  0  0  0  0  0  0  0  0  0
  2  3  1  0
  2  1  1  6
  4  3  1  0
  5  4  2  0
  6  5  1  0
  7  6  1  0
  7  8  2  0
  8  4  1  0
  9  2  1  0
 10  9  2  0
 12 11  1  6
 12 14  1  0
 13 12  1  0
 14 15  1  6
 15  9  1  0
 16 17  2  0
 16 14  1  0
 18 16  1  0
 19 20  1  1
 19 18  1  0
 20 21  1  0
 21 22  1  0
 23 22  1  0
 24 23  1  0
 25 27  1  0
 25 19  1  0
 26 25  2  0
M  END
$$$$
