HVK.pdb
     RDKit          3D

 27 27  0  0  1  0  0  0  0  0999 V2000
   20.1137  -12.7791  -17.7374 N   0  0  0  0  0  0  0  0  0  0  0  0
   21.0686  -11.6865  -17.7291 C   0  0  1  0  0  0  0  0  0  0  0  0
   21.3191  -11.3074  -19.1741 C   0  0  0  0  0  0  0  0  0  0  0  0
   22.0168  -12.4086  -19.8871 C   0  0  0  0  0  0  0  0  0  0  0  0
   21.4230  -13.2529  -20.8025 C   0  0  0  0  0  0  0  0  0  0  0  0
   22.3122  -14.1391  -21.2693 N   0  0  0  0  0  0  0  0  0  0  0  0
   23.4714  -13.8511  -20.6445 C   0  0  0  0  0  0  0  0  0  0  0  0
   23.2887  -12.7982  -19.8044 N   0  0  0  0  0  0  0  0  0  0  0  0
   20.5243  -10.5049  -17.0034 C   0  0  0  0  0  0  0  0  0  0  0  0
   19.2951  -10.2646  -16.9971 O   0  0  0  0  0  0  0  0  0  0  0  0
   20.6077   -7.3275  -13.4155 C   0  0  0  0  0  0  0  0  0  0  0  0
   21.0690   -8.6321  -14.0511 C   0  0  1  0  0  0  0  0  0  0  0  0
   20.5030   -9.8154  -13.3792 C   0  0  0  0  0  0  0  0  0  0  0  0
   20.9215   -8.5075  -15.5181 C   0  0  2  0  0  0  0  0  0  0  0  0
   21.3940   -9.6241  -16.3011 N   0  0  0  0  0  0  0  0  0  0  0  0
   21.2675   -7.1795  -16.0835 C   0  0  0  0  0  0  0  0  0  0  0  0
   22.4844   -6.8639  -16.0780 O   0  0  0  0  0  0  0  0  0  0  0  0
   20.3523   -6.2445  -16.6211 N   0  0  0  0  0  0  0  0  0  0  0  0
   20.8256   -4.9998  -17.2611 C   0  0  1  0  0  0  0  0  0  0  0  0
   19.7288   -4.4529  -18.1110 C   0  0  0  0  0  0  0  0  0  0  0  0
   20.0359   -3.0722  -18.6493 C   0  0  0  0  0  0  0  0  0  0  0  0
   19.9544   -3.0080  -20.1391 C   0  0  0  0  0  0  0  0  0  0  0  0
   20.2964   -1.6635  -20.7014 C   0  0  0  0  0  0  0  0  0  0  0  0
   20.2661   -1.7889  -22.1655 N   0  0  0  0  0  0  0  0  0  0  0  0
   21.1107   -4.0556  -16.1488 C   0  0  0  0  0  0  0  0  0  0  0  0
   20.3253   -3.9880  -15.1683 O   0  0  0  0  0  0  0  0  0  0  0  0
   22.2185   -3.2195  -16.1199 O   0  0  0  0  0  0  0  0  0  0  0  0
  2  3  1  0
  2  1  1  6
  4  3  1  0
  5  4  2  0
  6  5  1  0
  7  6  1  0
  7  8  2  0
  8  4  1  0
  9  2  1  0
 10  9  2  0
 12 11  1  1
 12 14  1  0
 13 12  1  0
 14 15  1  6
 15  9  1  0
 16 17  2  0
 16 14  1  0
 18 16  1  0
 19 20  1  6
 19 18  1  0
 20 21  1  0
 21 22  1  0
 23 22  1  0
 24 23  1  0
 25 27  1  0
 25 19  1  0
 26 25  2  0
M  END
$$$$
