HVK.pdb
     RDKit          3D

 27 27  0  0  1  0  0  0  0  0999 V2000
   22.1134  -20.9966  -16.4725 N   0  0  0  0  0  0  0  0  0  0  0  0
   21.2840  -20.3493  -15.4732 C   0  0  1  0  0  0  0  0  0  0  0  0
   19.8636  -20.3667  -15.9991 C   0  0  0  0  0  0  0  0  0  0  0  0
   19.7260  -19.4443  -17.1558 C   0  0  0  0  0  0  0  0  0  0  0  0
   20.7445  -18.6664  -17.6664 C   0  0  0  0  0  0  0  0  0  0  0  0
   20.3074  -17.9446  -18.7067 N   0  0  0  0  0  0  0  0  0  0  0  0
   19.0073  -18.2699  -18.8513 C   0  0  0  0  0  0  0  0  0  0  0  0
   18.6565  -19.1823  -17.9067 N   0  0  0  0  0  0  0  0  0  0  0  0
   21.3326  -21.0845  -14.1786 C   0  0  0  0  0  0  0  0  0  0  0  0
   21.7440  -22.2664  -14.1256 O   0  0  0  0  0  0  0  0  0  0  0  0
   23.0191  -19.8947  -11.0030 C   0  0  0  0  0  0  0  0  0  0  0  0
   21.5984  -20.2638  -10.5980 C   0  0  1  0  0  0  0  0  0  0  0  0
   20.8391  -19.1058  -10.0936 C   0  0  0  0  0  0  0  0  0  0  0  0
   21.0099  -21.0855  -11.6787 C   0  0  2  0  0  0  0  0  0  0  0  0
   20.9111  -20.4556  -12.9735 N   0  0  0  0  0  0  0  0  0  0  0  0
   19.8160  -21.8806  -11.2974 C   0  0  0  0  0  0  0  0  0  0  0  0
   18.7279  -21.5592  -11.8388 O   0  0  0  0  0  0  0  0  0  0  0  0
   19.7971  -22.9588  -10.3820 N   0  0  0  0  0  0  0  0  0  0  0  0
   18.5256  -23.4471   -9.8094 C   0  0  1  0  0  0  0  0  0  0  0  0
   18.8250  -24.2114   -8.5642 C   0  0  0  0  0  0  0  0  0  0  0  0
   17.5828  -24.7725   -7.9067 C   0  0  0  0  0  0  0  0  0  0  0  0
   17.9010  -25.6938   -6.7751 C   0  0  0  0  0  0  0  0  0  0  0  0
   16.7017  -26.3932   -6.2153 C   0  0  0  0  0  0  0  0  0  0  0  0
   17.1956  -27.4052   -5.2707 N   0  0  0  0  0  0  0  0  0  0  0  0
   17.7409  -22.2309   -9.4698 C   0  0  0  0  0  0  0  0  0  0  0  0
   18.3146  -21.2425   -8.9437 O   0  0  0  0  0  0  0  0  0  0  0  0
   16.3775  -22.1106   -9.7017 O   0  0  0  0  0  0  0  0  0  0  0  0
  2  3  1  0
  2  1  1  6
  4  3  1  0
  5  4  2  0
  6  5  1  0
  7  6  1  0
  7  8  2  0
  8  4  1  0
  9  2  1  0
 10  9  2  0
 12 11  1  6
 12 14  1  0
 13 12  1  0
 14 15  1  6
 15  9  1  0
 16 17  2  0
 16 14  1  0
 18 16  1  0
 19 20  1  1
 19 18  1  0
 20 21  1  0
 21 22  1  0
 23 22  1  0
 24 23  1  0
 25 27  1  0
 25 19  1  0
 26 25  2  0
M  END
$$$$
