HVK.pdb
     RDKit          3D

 27 27  0  0  1  0  0  0  0  0999 V2000
   25.5378  -21.7926  -17.1346 N   0  0  0  0  0  0  0  0  0  0  0  0
   25.8851  -21.8712  -15.7279 C   0  0  1  0  0  0  0  0  0  0  0  0
   27.2205  -21.1757  -15.5629 C   0  0  0  0  0  0  0  0  0  0  0  0
   28.2554  -21.8307  -16.4041 C   0  0  0  0  0  0  0  0  0  0  0  0
   28.7505  -23.1012  -16.1944 C   0  0  0  0  0  0  0  0  0  0  0  0
   29.6700  -23.4053  -17.1196 N   0  0  0  0  0  0  0  0  0  0  0  0
   29.7541  -22.3207  -17.9156 C   0  0  0  0  0  0  0  0  0  0  0  0
   28.8925  -21.3646  -17.4780 N   0  0  0  0  0  0  0  0  0  0  0  0
   24.8691  -21.1800  -14.8859 C   0  0  0  0  0  0  0  0  0  0  0  0
   25.0535  -21.0204  -13.6573 O   0  0  0  0  0  0  0  0  0  0  0  0
   21.7699  -18.8127  -16.5903 C   0  0  0  0  0  0  0  0  0  0  0  0
   22.1828  -18.7270  -15.1271 C   0  0  1  0  0  0  0  0  0  0  0  0
   21.2002  -17.9953  -14.3079 C   0  0  0  0  0  0  0  0  0  0  0  0
   22.6128  -20.0736  -14.6899 C   0  0  2  0  0  0  0  0  0  0  0  0
   23.6658  -20.6864  -15.4637 N   0  0  0  0  0  0  0  0  0  0  0  0
   21.5178  -21.0016  -14.3121 C   0  0  0  0  0  0  0  0  0  0  0  0
   21.0197  -21.6924  -15.2369 O   0  0  0  0  0  0  0  0  0  0  0  0
   20.9886  -21.1719  -13.0115 N   0  0  0  0  0  0  0  0  0  0  0  0
   19.8945  -22.1314  -12.7561 C   0  0  1  0  0  0  0  0  0  0  0  0
   19.9583  -22.5597  -11.3288 C   0  0  0  0  0  0  0  0  0  0  0  0
   18.9293  -23.6150  -10.9858 C   0  0  0  0  0  0  0  0  0  0  0  0
   19.0464  -24.0909   -9.5751 C   0  0  0  0  0  0  0  0  0  0  0  0
   18.1640  -25.2585   -9.2605 C   0  0  0  0  0  0  0  0  0  0  0  0
   18.3549  -25.5711   -7.8371 N   0  0  0  0  0  0  0  0  0  0  0  0
   18.6336  -21.3805  -12.9939 C   0  0  0  0  0  0  0  0  0  0  0  0
   18.5645  -20.1614  -12.6909 O   0  0  0  0  0  0  0  0  0  0  0  0
   17.4947  -21.9525  -13.5443 O   0  0  0  0  0  0  0  0  0  0  0  0
  2  3  1  0
  2  1  1  6
  4  3  1  0
  5  4  2  0
  6  5  1  0
  7  6  1  0
  7  8  2  0
  8  4  1  0
  9  2  1  0
 10  9  2  0
 12 11  1  6
 12 14  1  0
 13 12  1  0
 14 15  1  6
 15  9  1  0
 16 17  2  0
 16 14  1  0
 18 16  1  0
 19 20  1  1
 19 18  1  0
 20 21  1  0
 21 22  1  0
 23 22  1  0
 24 23  1  0
 25 27  1  0
 25 19  1  0
 26 25  2  0
M  END
$$$$
