HVK.pdb
     RDKit          3D

 27 27  0  0  1  0  0  0  0  0999 V2000
   14.2500  -24.6304   -6.9971 N   0  0  0  0  0  0  0  0  0  0  0  0
   14.5879  -24.1052   -5.6872 C   0  0  1  0  0  0  0  0  0  0  0  0
   13.3119  -23.5462   -5.0926 C   0  0  0  0  0  0  0  0  0  0  0  0
   12.8529  -22.3629   -5.8652 C   0  0  0  0  0  0  0  0  0  0  0  0
   13.6235  -21.2495   -6.1295 C   0  0  0  0  0  0  0  0  0  0  0  0
   12.9282  -20.3570   -6.8466 N   0  0  0  0  0  0  0  0  0  0  0  0
   11.7140  -20.9116   -7.0345 C   0  0  0  0  0  0  0  0  0  0  0  0
   11.6712  -22.1315   -6.4364 N   0  0  0  0  0  0  0  0  0  0  0  0
   15.1094  -25.1800   -4.7974 C   0  0  0  0  0  0  0  0  0  0  0  0
   14.6002  -26.3243   -4.8049 O   0  0  0  0  0  0  0  0  0  0  0  0
   18.6557  -27.3231   -2.3694 C   0  0  0  0  0  0  0  0  0  0  0  0
   18.1117  -26.4463   -3.4891 C   0  0  1  0  0  0  0  0  0  0  0  0
   18.2472  -27.0781   -4.8137 C   0  0  0  0  0  0  0  0  0  0  0  0
   16.7851  -25.9391   -3.0742 C   0  0  2  0  0  0  0  0  0  0  0  0
   16.2000  -24.9257   -3.9190 N   0  0  0  0  0  0  0  0  0  0  0  0
   16.6255  -25.6847   -1.6207 C   0  0  0  0  0  0  0  0  0  0  0  0
   17.1699  -24.6465   -1.1667 O   0  0  0  0  0  0  0  0  0  0  0  0
   15.9212  -26.5054   -0.7089 N   0  0  0  0  0  0  0  0  0  0  0  0
   15.9420  -26.2219    0.7409 C   0  0  1  0  0  0  0  0  0  0  0  0
   14.5379  -26.0528    1.2146 C   0  0  0  0  0  0  0  0  0  0  0  0
   14.1745  -24.6060    1.4700 C   0  0  0  0  0  0  0  0  0  0  0  0
   12.7662  -24.4443    1.9398 C   0  0  0  0  0  0  0  0  0  0  0  0
   12.3946  -23.0268    2.2458 C   0  0  0  0  0  0  0  0  0  0  0  0
   10.9756  -23.0269    2.6287 N   0  0  0  0  0  0  0  0  0  0  0  0
   16.5411  -27.4231    1.3800 C   0  0  0  0  0  0  0  0  0  0  0  0
   16.5748  -28.5139    0.7540 O   0  0  0  0  0  0  0  0  0  0  0  0
   17.0813  -27.4202    2.6588 O   0  0  0  0  0  0  0  0  0  0  0  0
  2  3  1  0
  2  1  1  6
  4  3  1  0
  5  4  2  0
  6  5  1  0
  7  6  1  0
  7  8  2  0
  8  4  1  0
  9  2  1  0
 10  9  2  0
 12 11  1  1
 12 14  1  0
 13 12  1  0
 14 15  1  6
 15  9  1  0
 16 17  2  0
 16 14  1  0
 18 16  1  0
 19 20  1  1
 19 18  1  0
 20 21  1  0
 21 22  1  0
 23 22  1  0
 24 23  1  0
 25 27  1  0
 25 19  1  0
 26 25  2  0
M  END
$$$$
