HVK.pdb
     RDKit          3D

 27 27  0  0  1  0  0  0  0  0999 V2000
   24.2884  -14.3265  -20.0822 N   0  0  0  0  0  0  0  0  0  0  0  0
   24.5434  -12.8981  -20.0969 C   0  0  1  0  0  0  0  0  0  0  0  0
   23.6219  -12.2953  -21.1369 C   0  0  0  0  0  0  0  0  0  0  0  0
   24.0207  -12.7311  -22.5002 C   0  0  0  0  0  0  0  0  0  0  0  0
   24.7431  -11.9642  -23.3909 C   0  0  0  0  0  0  0  0  0  0  0  0
   24.9431  -12.6346  -24.5330 N   0  0  0  0  0  0  0  0  0  0  0  0
   24.3435  -13.8295  -24.3603 C   0  0  0  0  0  0  0  0  0  0  0  0
   23.7834  -13.8853  -23.1230 N   0  0  0  0  0  0  0  0  0  0  0  0
   24.2466  -12.2873  -18.7710 C   0  0  0  0  0  0  0  0  0  0  0  0
   23.3014  -12.7095  -18.0660 O   0  0  0  0  0  0  0  0  0  0  0  0
   25.6049   -9.7285  -14.8596 C   0  0  0  0  0  0  0  0  0  0  0  0
   25.9979  -10.5193  -16.1002 C   0  0  1  0  0  0  0  0  0  0  0  0
   26.7216  -11.7599  -15.7697 C   0  0  0  0  0  0  0  0  0  0  0  0
   24.8179  -10.5984  -16.9894 C   0  0  2  0  0  0  0  0  0  0  0  0
   25.0343  -11.2089  -18.2791 N   0  0  0  0  0  0  0  0  0  0  0  0
   23.9654   -9.3839  -17.0276 C   0  0  0  0  0  0  0  0  0  0  0  0
   24.3723   -8.4314  -17.7400 O   0  0  0  0  0  0  0  0  0  0  0  0
   22.7454   -9.2066  -16.3342 N   0  0  0  0  0  0  0  0  0  0  0  0
   21.9689   -7.9571  -16.4702 C   0  0  1  0  0  0  0  0  0  0  0  0
   20.5309   -8.3063  -16.6568 C   0  0  0  0  0  0  0  0  0  0  0  0
   19.6258   -7.0934  -16.6451 C   0  0  0  0  0  0  0  0  0  0  0  0
   18.1946   -7.4454  -16.8863 C   0  0  0  0  0  0  0  0  0  0  0  0
   17.3134   -6.2559  -17.1086 C   0  0  0  0  0  0  0  0  0  0  0  0
   15.9273   -6.7444  -17.1256 N   0  0  0  0  0  0  0  0  0  0  0  0
   22.1414   -7.2311  -15.1843 C   0  0  0  0  0  0  0  0  0  0  0  0
   22.3244   -7.8772  -14.1204 O   0  0  0  0  0  0  0  0  0  0  0  0
   22.1130   -5.8473  -15.0773 O   0  0  0  0  0  0  0  0  0  0  0  0
  2  3  1  0
  2  1  1  1
  4  3  1  0
  5  4  2  0
  6  5  1  0
  7  6  1  0
  7  8  2  0
  8  4  1  0
  9  2  1  0
 10  9  2  0
 12 11  1  1
 12 14  1  0
 13 12  1  0
 14 15  1  6
 15  9  1  0
 16 17  2  0
 16 14  1  0
 18 16  1  0
 19 20  1  1
 19 18  1  0
 20 21  1  0
 21 22  1  0
 23 22  1  0
 24 23  1  0
 25 27  1  0
 25 19  1  0
 26 25  2  0
M  END
$$$$
