HVK.pdb
     RDKit          3D

 27 27  0  0  1  0  0  0  0  0999 V2000
   22.0838  -15.5492  -18.0862 N   0  0  0  0  0  0  0  0  0  0  0  0
   22.6202  -14.2996  -18.5925 C   0  0  1  0  0  0  0  0  0  0  0  0
   21.6803  -13.8241  -19.6811 C   0  0  0  0  0  0  0  0  0  0  0  0
   21.7320  -14.7405  -20.8495 C   0  0  0  0  0  0  0  0  0  0  0  0
   20.7701  -15.6814  -21.1538 C   0  0  0  0  0  0  0  0  0  0  0  0
   21.1025  -16.3498  -22.2660 N   0  0  0  0  0  0  0  0  0  0  0  0
   22.2795  -15.8267  -22.6636 C   0  0  0  0  0  0  0  0  0  0  0  0
   22.6599  -14.8482  -21.8002 N   0  0  0  0  0  0  0  0  0  0  0  0
   22.6821  -13.2690  -17.5187 C   0  0  0  0  0  0  0  0  0  0  0  0
   21.7169  -13.0931  -16.7401 O   0  0  0  0  0  0  0  0  0  0  0  0
   26.3533  -11.3074  -16.7811 C   0  0  0  0  0  0  0  0  0  0  0  0
   25.2979  -11.3493  -15.6843 C   0  0  1  0  0  0  0  0  0  0  0  0
   25.5078  -10.3082  -14.6626 C   0  0  0  0  0  0  0  0  0  0  0  0
   23.9696  -11.4592  -16.3269 C   0  0  2  0  0  0  0  0  0  0  0  0
   23.8433  -12.4622  -17.3569 N   0  0  0  0  0  0  0  0  0  0  0  0
   23.3086  -10.1701  -16.6500 C   0  0  0  0  0  0  0  0  0  0  0  0
   23.5550   -9.6778  -17.7802 O   0  0  0  0  0  0  0  0  0  0  0  0
   22.4344   -9.4522  -15.8008 N   0  0  0  0  0  0  0  0  0  0  0  0
   21.8197   -8.1829  -16.2413 C   0  0  1  0  0  0  0  0  0  0  0  0
   20.3567   -8.4016  -16.4316 C   0  0  0  0  0  0  0  0  0  0  0  0
   19.6348   -7.1607  -16.9104 C   0  0  0  0  0  0  0  0  0  0  0  0
   18.1616   -7.3695  -17.0386 C   0  0  0  0  0  0  0  0  0  0  0  0
   17.4442   -6.2150  -17.6658 C   0  0  0  0  0  0  0  0  0  0  0  0
   16.0325   -6.6035  -17.7933 N   0  0  0  0  0  0  0  0  0  0  0  0
   22.0381   -7.2200  -15.1299 C   0  0  0  0  0  0  0  0  0  0  0  0
   22.2416   -7.6459  -13.9636 O   0  0  0  0  0  0  0  0  0  0  0  0
   22.0320   -5.8421  -15.2990 O   0  0  0  0  0  0  0  0  0  0  0  0
  2  3  1  0
  2  1  1  1
  4  3  1  0
  5  4  2  0
  6  5  1  0
  7  6  1  0
  7  8  2  0
  8  4  1  0
  9  2  1  0
 10  9  2  0
 12 11  1  6
 12 14  1  0
 13 12  1  0
 14 15  1  6
 15  9  1  0
 16 17  2  0
 16 14  1  0
 18 16  1  0
 19 20  1  1
 19 18  1  0
 20 21  1  0
 21 22  1  0
 23 22  1  0
 24 23  1  0
 25 27  1  0
 25 19  1  0
 26 25  2  0
M  END
$$$$
