HVK.pdb
     RDKit          3D

 27 27  0  0  1  0  0  0  0  0999 V2000
   18.3517  -13.3139  -16.9962 N   0  0  0  0  0  0  0  0  0  0  0  0
   19.0467  -12.1167  -17.4313 C   0  0  1  0  0  0  0  0  0  0  0  0
   17.9942  -11.1579  -17.9482 C   0  0  0  0  0  0  0  0  0  0  0  0
   17.4039  -11.6665  -19.2133 C   0  0  0  0  0  0  0  0  0  0  0  0
   16.1142  -12.1384  -19.3451 C   0  0  0  0  0  0  0  0  0  0  0  0
   15.8820  -12.5239  -20.6066 N   0  0  0  0  0  0  0  0  0  0  0  0
   17.0314  -12.2936  -21.2721 C   0  0  0  0  0  0  0  0  0  0  0  0
   17.9552  -11.7721  -20.4221 N   0  0  0  0  0  0  0  0  0  0  0  0
   19.7732  -11.4776  -16.2987 C   0  0  0  0  0  0  0  0  0  0  0  0
   19.2604  -11.4190  -15.1575 O   0  0  0  0  0  0  0  0  0  0  0  0
   23.9482  -10.9276  -16.2391 C   0  0  0  0  0  0  0  0  0  0  0  0
   23.0553  -10.7432  -15.0196 C   0  0  1  0  0  0  0  0  0  0  0  0
   23.7609  -10.0959  -13.8993 C   0  0  0  0  0  0  0  0  0  0  0  0
   21.7668  -10.1746  -15.4735 C   0  0  2  0  0  0  0  0  0  0  0  0
   21.0679  -10.9196  -16.4931 N   0  0  0  0  0  0  0  0  0  0  0  0
   21.7555   -8.7048  -15.6798 C   0  0  0  0  0  0  0  0  0  0  0  0
   22.1535   -8.2891  -16.7975 O   0  0  0  0  0  0  0  0  0  0  0  0
   21.3413   -7.7390  -14.7330 N   0  0  0  0  0  0  0  0  0  0  0  0
   21.3871   -6.2965  -15.0494 C   0  0  1  0  0  0  0  0  0  0  0  0
   19.9897   -5.7909  -15.1763 C   0  0  0  0  0  0  0  0  0  0  0  0
   19.9248   -4.2976  -15.4136 C   0  0  0  0  0  0  0  0  0  0  0  0
   18.5234   -3.7818  -15.4325 C   0  0  0  0  0  0  0  0  0  0  0  0
   18.4292   -2.3097  -15.6874 C   0  0  0  0  0  0  0  0  0  0  0  0
   17.0116   -1.9415  -15.5649 N   0  0  0  0  0  0  0  0  0  0  0  0
   22.0470   -5.6474  -13.8861 C   0  0  0  0  0  0  0  0  0  0  0  0
   22.0099   -6.2005  -12.7566 O   0  0  0  0  0  0  0  0  0  0  0  0
   22.7210   -4.4364  -13.9664 O   0  0  0  0  0  0  0  0  0  0  0  0
  2  3  1  0
  2  1  1  1
  4  3  1  0
  5  4  2  0
  6  5  1  0
  7  6  1  0
  7  8  2  0
  8  4  1  0
  9  2  1  0
 10  9  2  0
 12 11  1  6
 12 14  1  0
 13 12  1  0
 14 15  1  6
 15  9  1  0
 16 17  2  0
 16 14  1  0
 18 16  1  0
 19 20  1  1
 19 18  1  0
 20 21  1  0
 21 22  1  0
 23 22  1  0
 24 23  1  0
 25 27  1  0
 25 19  1  0
 26 25  2  0
M  END
$$$$
