HVK.pdb
     RDKit          3D

 27 27  0  0  1  0  0  0  0  0999 V2000
   23.8852  -11.2871  -16.7188 N   0  0  0  0  0  0  0  0  0  0  0  0
   24.2805  -10.0460  -16.0793 C   0  0  1  0  0  0  0  0  0  0  0  0
   25.4940   -9.5312  -16.8256 C   0  0  0  0  0  0  0  0  0  0  0  0
   26.6435  -10.4560  -16.6497 C   0  0  0  0  0  0  0  0  0  0  0  0
   26.6604  -11.5346  -15.7896 C   0  0  0  0  0  0  0  0  0  0  0  0
   27.8366  -12.1717  -15.8587 N   0  0  0  0  0  0  0  0  0  0  0  0
   28.5635  -11.4907  -16.7669 C   0  0  0  0  0  0  0  0  0  0  0  0
   27.8353  -10.4478  -17.2463 N   0  0  0  0  0  0  0  0  0  0  0  0
   23.1928   -9.0314  -16.1603 C   0  0  0  0  0  0  0  0  0  0  0  0
   22.3994   -9.0157  -17.1294 O   0  0  0  0  0  0  0  0  0  0  0  0
   19.9992   -6.2093  -13.9131 C   0  0  0  0  0  0  0  0  0  0  0  0
   20.8934   -7.4343  -14.0486 C   0  0  1  0  0  0  0  0  0  0  0  0
   20.1210   -8.6856  -14.1467 C   0  0  0  0  0  0  0  0  0  0  0  0
   21.9166   -7.1464  -15.0779 C   0  0  2  0  0  0  0  0  0  0  0  0
   23.0344   -8.0576  -15.1346 N   0  0  0  0  0  0  0  0  0  0  0  0
   22.2899   -5.7173  -15.2241 C   0  0  0  0  0  0  0  0  0  0  0  0
   23.1370   -5.2696  -14.4103 O   0  0  0  0  0  0  0  0  0  0  0  0
   21.7760   -4.8221  -16.1913 N   0  0  0  0  0  0  0  0  0  0  0  0
   22.1944   -3.4053  -16.2133 C   0  0  1  0  0  0  0  0  0  0  0  0
   21.6831   -2.7758  -17.4650 C   0  0  0  0  0  0  0  0  0  0  0  0
   22.0518   -1.3125  -17.5792 C   0  0  0  0  0  0  0  0  0  0  0  0
   21.6325   -0.7170  -18.8831 C   0  0  0  0  0  0  0  0  0  0  0  0
   22.0855    0.6974  -19.0702 C   0  0  0  0  0  0  0  0  0  0  0  0
   21.5718    1.4684  -17.9293 N   0  0  0  0  0  0  0  0  0  0  0  0
   21.5430   -2.7724  -15.0363 C   0  0  0  0  0  0  0  0  0  0  0  0
   20.3568   -3.0709  -14.7417 O   0  0  0  0  0  0  0  0  0  0  0  0
   22.1756   -1.8469  -14.2175 O   0  0  0  0  0  0  0  0  0  0  0  0
  2  3  1  0
  2  1  1  6
  4  3  1  0
  5  4  2  0
  6  5  1  0
  7  6  1  0
  7  8  2  0
  8  4  1  0
  9  2  1  0
 10  9  2  0
 12 11  1  6
 12 14  1  0
 13 12  1  0
 14 15  1  1
 15  9  1  0
 16 17  2  0
 16 14  1  0
 18 16  1  0
 19 20  1  6
 19 18  1  0
 20 21  1  0
 21 22  1  0
 23 22  1  0
 24 23  1  0
 25 27  1  0
 25 19  1  0
 26 25  2  0
M  END
$$$$
