HVK.pdb
     RDKit          3D

 27 27  0  0  1  0  0  0  0  0999 V2000
   26.8591  -18.8470  -18.7540 N   0  0  0  0  0  0  0  0  0  0  0  0
   26.3869  -18.2142  -17.5365 C   0  0  1  0  0  0  0  0  0  0  0  0
   25.1789  -17.3808  -17.9114 C   0  0  0  0  0  0  0  0  0  0  0  0
   25.5957  -16.1715  -18.6673 C   0  0  0  0  0  0  0  0  0  0  0  0
   26.8441  -15.5891  -18.5923 C   0  0  0  0  0  0  0  0  0  0  0  0
   26.9100  -14.5157  -19.3908 N   0  0  0  0  0  0  0  0  0  0  0  0
   25.6970  -14.4221  -19.9712 C   0  0  0  0  0  0  0  0  0  0  0  0
   24.8997  -15.4305  -19.5292 N   0  0  0  0  0  0  0  0  0  0  0  0
   25.9819  -19.2315  -16.5265 C   0  0  0  0  0  0  0  0  0  0  0  0
   25.3816  -20.2756  -16.8707 O   0  0  0  0  0  0  0  0  0  0  0  0
   26.3041  -21.2129  -12.0678 C   0  0  0  0  0  0  0  0  0  0  0  0
   26.9113  -20.2566  -13.0853 C   0  0  1  0  0  0  0  0  0  0  0  0
   28.2594  -20.6719  -13.5120 C   0  0  0  0  0  0  0  0  0  0  0  0
   25.8915  -19.9763  -14.1202 C   0  0  2  0  0  0  0  0  0  0  0  0
   26.2704  -19.0353  -15.1467 N   0  0  0  0  0  0  0  0  0  0  0  0
   24.5052  -19.8032  -13.6192 C   0  0  0  0  0  0  0  0  0  0  0  0
   24.2110  -18.6736  -13.1525 O   0  0  0  0  0  0  0  0  0  0  0  0
   23.4951  -20.7935  -13.6192 N   0  0  0  0  0  0  0  0  0  0  0  0
   22.1576  -20.5144  -13.0571 C   0  0  1  0  0  0  0  0  0  0  0  0
   21.1836  -21.4827  -13.6388 C   0  0  0  0  0  0  0  0  0  0  0  0
   19.7933  -21.3369  -13.0591 C   0  0  0  0  0  0  0  0  0  0  0  0
   18.7517  -21.1457  -14.1121 C   0  0  0  0  0  0  0  0  0  0  0  0
   17.3709  -20.9618  -13.5639 C   0  0  0  0  0  0  0  0  0  0  0  0
   16.4773  -20.7481  -14.7111 N   0  0  0  0  0  0  0  0  0  0  0  0
   22.2766  -20.7474  -11.5936 C   0  0  0  0  0  0  0  0  0  0  0  0
   23.0843  -21.6094  -11.1607 O   0  0  0  0  0  0  0  0  0  0  0  0
   21.5336  -20.0565  -10.6460 O   0  0  0  0  0  0  0  0  0  0  0  0
  2  3  1  0
  2  1  1  6
  4  3  1  0
  5  4  2  0
  6  5  1  0
  7  6  1  0
  7  8  2  0
  8  4  1  0
  9  2  1  0
 10  9  2  0
 12 11  1  1
 12 14  1  0
 13 12  1  0
 14 15  1  1
 15  9  1  0
 16 17  2  0
 16 14  1  0
 18 16  1  0
 19 20  1  6
 19 18  1  0
 20 21  1  0
 21 22  1  0
 23 22  1  0
 24 23  1  0
 25 27  1  0
 25 19  1  0
 26 25  2  0
M  END
$$$$
