HVK.pdb
     RDKit          3D

 27 27  0  0  1  0  0  0  0  0999 V2000
   21.5921  -13.9825  -19.3889 N   0  0  0  0  0  0  0  0  0  0  0  0
   21.8305  -12.5511  -19.3868 C   0  0  1  0  0  0  0  0  0  0  0  0
   20.9312  -11.9517  -20.4481 C   0  0  0  0  0  0  0  0  0  0  0  0
   21.3827  -12.3601  -21.8035 C   0  0  0  0  0  0  0  0  0  0  0  0
   21.7380  -11.4863  -22.8102 C   0  0  0  0  0  0  0  0  0  0  0  0
   22.0988  -12.1596  -23.9105 N   0  0  0  0  0  0  0  0  0  0  0  0
   21.9697  -13.4637  -23.5946 C   0  0  0  0  0  0  0  0  0  0  0  0
   21.5340  -13.5826  -22.3125 N   0  0  0  0  0  0  0  0  0  0  0  0
   21.4897  -11.9532  -18.0657 C   0  0  0  0  0  0  0  0  0  0  0  0
   20.5160  -12.3758  -17.4008 O   0  0  0  0  0  0  0  0  0  0  0  0
   24.3500   -9.9046  -15.8102 C   0  0  0  0  0  0  0  0  0  0  0  0
   23.0369  -10.4060  -15.2244 C   0  0  1  0  0  0  0  0  0  0  0  0
   22.7802   -9.8660  -13.8774 C   0  0  0  0  0  0  0  0  0  0  0  0
   21.9882  -10.2678  -16.2590 C   0  0  2  0  0  0  0  0  0  0  0  0
   22.2669  -10.8868  -17.5326 N   0  0  0  0  0  0  0  0  0  0  0  0
   21.3647   -8.9247  -16.3599 C   0  0  0  0  0  0  0  0  0  0  0  0
   21.9443   -8.0877  -17.0974 O   0  0  0  0  0  0  0  0  0  0  0  0
   20.1849   -8.5078  -15.7002 N   0  0  0  0  0  0  0  0  0  0  0  0
   19.7300   -7.1039  -15.7718 C   0  0  1  0  0  0  0  0  0  0  0  0
   18.2567   -7.0670  -15.5428 C   0  0  0  0  0  0  0  0  0  0  0  0
   17.6899   -5.6646  -15.5908 C   0  0  0  0  0  0  0  0  0  0  0  0
   16.2107   -5.6382  -15.3869 C   0  0  0  0  0  0  0  0  0  0  0  0
   15.6065   -4.2784  -15.5505 C   0  0  0  0  0  0  0  0  0  0  0  0
   14.1672   -4.4121  -15.2848 N   0  0  0  0  0  0  0  0  0  0  0  0
   20.4234   -6.3964  -14.6633 C   0  0  0  0  0  0  0  0  0  0  0  0
   20.6424   -6.9952  -13.5787 O   0  0  0  0  0  0  0  0  0  0  0  0
   20.8577   -5.0807  -14.7487 O   0  0  0  0  0  0  0  0  0  0  0  0
  2  3  1  0
  2  1  1  1
  4  3  1  0
  5  4  2  0
  6  5  1  0
  7  6  1  0
  7  8  2  0
  8  4  1  0
  9  2  1  0
 10  9  2  0
 12 11  1  6
 12 14  1  0
 13 12  1  0
 14 15  1  6
 15  9  1  0
 16 17  2  0
 16 14  1  0
 18 16  1  0
 19 20  1  1
 19 18  1  0
 20 21  1  0
 21 22  1  0
 23 22  1  0
 24 23  1  0
 25 27  1  0
 25 19  1  0
 26 25  2  0
M  END
$$$$
