KEK.pdb
     RDKit          3D

 28 27  0  0  1  0  0  0  0  0999 V2000
   22.3395  -12.1559  -17.6618 N   0  0  0  0  0  0  0  0  0  0  0  0
   21.1686  -11.4715  -18.0293 C   0  0  1  0  0  0  0  0  0  0  0  0
   20.0478  -12.3753  -18.5322 C   0  0  0  0  0  0  0  0  0  0  0  0
   20.5660  -13.5666  -19.2420 C   0  0  0  0  0  0  0  0  0  0  0  0
   20.1575  -14.8981  -18.7209 C   0  0  0  0  0  0  0  0  0  0  0  0
   20.7451  -16.0511  -19.4991 C   0  0  0  0  0  0  0  0  0  0  0  0
   20.3379  -17.2992  -18.8707 N   0  0  0  0  0  0  0  0  0  0  0  0
   20.6744  -10.5061  -17.0448 C   0  0  0  0  0  0  0  0  0  0  0  0
   19.9138  -10.9571  -16.1192 O   0  0  0  0  0  0  0  0  0  0  0  0
   20.9477   -9.1496  -17.0154 N   0  0  0  0  0  0  0  0  0  0  0  0
   20.3990   -8.2385  -15.9645 C   0  0  1  0  0  0  0  0  0  0  0  0
   21.4776   -7.2450  -15.7456 C   0  0  0  0  0  0  0  0  0  0  0  0
   21.2122   -6.0962  -14.8530 C   0  0  0  0  0  0  0  0  0  0  0  0
   22.4411   -5.2978  -14.6588 C   0  0  0  0  0  0  0  0  0  0  0  0
   22.3010   -4.0297  -14.5651 O   0  0  0  0  0  0  0  0  0  0  0  0
   19.0882   -7.7995  -16.3917 C   0  0  0  0  0  0  0  0  0  0  0  0
   18.8551   -7.5651  -17.6291 O   0  0  0  0  0  0  0  0  0  0  0  0
   23.7087   -5.8434  -14.5755 O   0  0  0  0  0  0  0  0  0  0  0  0
   18.0071   -7.6037  -15.5044 N   0  0  0  0  0  0  0  0  0  0  0  0
   16.7176   -7.1421  -15.9738 C   0  0  1  0  0  0  0  0  0  0  0  0
   15.6760   -7.9953  -15.2956 C   0  0  0  0  0  0  0  0  0  0  0  0
   14.2762   -7.6496  -15.6863 C   0  0  0  0  0  0  0  0  0  0  0  0
   13.2383   -8.5736  -15.1375 C   0  0  0  0  0  0  0  0  0  0  0  0
   11.8524   -8.2771  -15.6696 C   0  0  0  0  0  0  0  0  0  0  0  0
   10.9522   -9.3004  -15.1230 N   0  0  0  0  0  0  0  0  0  0  0  0
   16.5581   -5.7100  -15.6874 C   0  0  0  0  0  0  0  0  0  0  0  0
   17.1430   -5.1842  -14.5478 O   0  0  0  0  0  0  0  0  0  0  0  0
   15.9169   -4.9131  -16.4164 O   0  0  0  0  0  0  0  0  0  0  0  0
  2  3  1  0
  2  1  1  1
  3  4  1  0
  5  4  1  0
  5  6  1  0
  7  6  1  0
  8  2  1  0
  8  9  2  0
 10  8  1  0
 11 10  1  0
 11 12  1  6
 13 12  1  0
 13 14  1  0
 14 15  2  0
 16 17  2  0
 16 11  1  0
 18 14  1  0
 19 16  1  0
 20 19  1  0
 20 21  1  1
 22 23  1  0
 22 21  1  0
 23 24  1  0
 24 25  1  0
 26 20  1  0
 27 26  1  0
 28 26  2  0
M  END
$$$$
