KEK.pdb
     RDKit          3D

 28 27  0  0  1  0  0  0  0  0999 V2000
   21.6054  -19.8185  -17.5858 N   0  0  0  0  0  0  0  0  0  0  0  0
   21.2320  -21.1721  -17.6383 C   0  0  1  0  0  0  0  0  0  0  0  0
   22.2940  -22.0911  -18.2328 C   0  0  0  0  0  0  0  0  0  0  0  0
   23.2036  -21.3723  -19.1534 C   0  0  0  0  0  0  0  0  0  0  0  0
   24.5473  -21.0068  -18.6317 C   0  0  0  0  0  0  0  0  0  0  0  0
   25.3736  -20.2100  -19.6128 C   0  0  0  0  0  0  0  0  0  0  0  0
   26.7218  -20.0649  -19.0840 N   0  0  0  0  0  0  0  0  0  0  0  0
   20.6897  -21.7192  -16.3924 C   0  0  0  0  0  0  0  0  0  0  0  0
   20.3395  -22.9504  -16.4018 O   0  0  0  0  0  0  0  0  0  0  0  0
   20.5166  -21.0354  -15.2015 N   0  0  0  0  0  0  0  0  0  0  0  0
   19.9497  -21.6788  -13.9767 C   0  0  1  0  0  0  0  0  0  0  0  0
   20.6684  -21.0247  -12.8568 C   0  0  0  0  0  0  0  0  0  0  0  0
   20.2552  -21.3364  -11.4716 C   0  0  0  0  0  0  0  0  0  0  0  0
   21.0959  -20.6006  -10.5035 C   0  0  0  0  0  0  0  0  0  0  0  0
   21.9983  -19.8319  -10.9846 O   0  0  0  0  0  0  0  0  0  0  0  0
   18.5072  -21.5980  -14.0546 C   0  0  0  0  0  0  0  0  0  0  0  0
   17.9433  -20.5755  -14.5810 O   0  0  0  0  0  0  0  0  0  0  0  0
   20.9576  -20.7006   -9.1315 O   0  0  0  0  0  0  0  0  0  0  0  0
   17.6454  -22.6071  -13.5716 N   0  0  0  0  0  0  0  0  0  0  0  0
   16.2157  -22.3988  -13.4763 C   0  0  1  0  0  0  0  0  0  0  0  0
   15.5983  -23.7424  -13.1824 C   0  0  0  0  0  0  0  0  0  0  0  0
   14.1054  -23.7146  -13.1359 C   0  0  0  0  0  0  0  0  0  0  0  0
   13.4692  -25.0587  -12.9924 C   0  0  0  0  0  0  0  0  0  0  0  0
   11.9631  -25.0104  -13.1371 C   0  0  0  0  0  0  0  0  0  0  0  0
   11.4693  -26.3833  -12.9707 N   0  0  0  0  0  0  0  0  0  0  0  0
   15.9184  -21.3954  -12.4452 C   0  0  0  0  0  0  0  0  0  0  0  0
   16.7249  -21.3282  -11.3217 O   0  0  0  0  0  0  0  0  0  0  0  0
   14.9668  -20.5784  -12.5111 O   0  0  0  0  0  0  0  0  0  0  0  0
  2  3  1  0
  2  1  1  1
  3  4  1  0
  5  4  1  0
  5  6  1  0
  7  6  1  0
  8  2  1  0
  8  9  2  0
 10  8  1  0
 11 10  1  0
 11 12  1  1
 13 12  1  0
 13 14  1  0
 14 15  2  0
 16 17  2  0
 16 11  1  0
 18 14  1  0
 19 16  1  0
 20 19  1  0
 20 21  1  1
 22 23  1  0
 22 21  1  0
 23 24  1  0
 24 25  1  0
 26 20  1  0
 27 26  1  0
 28 26  2  0
M  END
$$$$
