KEK.pdb
     RDKit          3D

 28 27  0  0  1  0  0  0  0  0999 V2000
   21.4289  -10.9663  -17.2390 N   0  0  0  0  0  0  0  0  0  0  0  0
   20.0857  -10.9877  -16.8269 C   0  0  1  0  0  0  0  0  0  0  0  0
   19.6585  -12.2883  -16.1547 C   0  0  0  0  0  0  0  0  0  0  0  0
   19.9877  -13.4760  -16.9747 C   0  0  0  0  0  0  0  0  0  0  0  0
   18.8644  -14.1420  -17.6862 C   0  0  0  0  0  0  0  0  0  0  0  0
   19.2860  -15.3763  -18.4469 C   0  0  0  0  0  0  0  0  0  0  0  0
   18.1210  -15.9392  -19.1136 N   0  0  0  0  0  0  0  0  0  0  0  0
   19.6501   -9.8206  -16.0564 C   0  0  0  0  0  0  0  0  0  0  0  0
   18.4313   -9.8039  -15.6653 O   0  0  0  0  0  0  0  0  0  0  0  0
   20.4271   -8.7295  -15.7080 N   0  0  0  0  0  0  0  0  0  0  0  0
   19.9008   -7.5912  -14.8939 C   0  0  1  0  0  0  0  0  0  0  0  0
   21.1178   -6.8781  -14.4367 C   0  0  0  0  0  0  0  0  0  0  0  0
   20.9577   -5.6405  -13.6433 C   0  0  0  0  0  0  0  0  0  0  0  0
   22.2765   -5.0397  -13.3512 C   0  0  0  0  0  0  0  0  0  0  0  0
   22.6737   -5.0736  -12.1356 O   0  0  0  0  0  0  0  0  0  0  0  0
   18.9099   -6.8946  -15.6853 C   0  0  0  0  0  0  0  0  0  0  0  0
   19.1458   -6.6057  -16.9106 O   0  0  0  0  0  0  0  0  0  0  0  0
   23.0850   -4.4546  -14.3080 O   0  0  0  0  0  0  0  0  0  0  0  0
   17.6527   -6.4957  -15.1803 N   0  0  0  0  0  0  0  0  0  0  0  0
   16.7085   -5.7615  -15.9962 C   0  0  1  0  0  0  0  0  0  0  0  0
   15.3705   -6.4354  -15.8274 C   0  0  0  0  0  0  0  0  0  0  0  0
   14.2563   -5.7327  -16.5320 C   0  0  0  0  0  0  0  0  0  0  0  0
   12.9131   -6.3560  -16.3343 C   0  0  0  0  0  0  0  0  0  0  0  0
   11.8378   -5.7066  -17.1790 C   0  0  0  0  0  0  0  0  0  0  0  0
   10.5820   -6.4137  -16.8975 N   0  0  0  0  0  0  0  0  0  0  0  0
   16.6900   -4.3470  -15.5994 C   0  0  0  0  0  0  0  0  0  0  0  0
   17.0763   -4.0054  -14.3144 O   0  0  0  0  0  0  0  0  0  0  0  0
   16.3422   -3.4076  -16.3569 O   0  0  0  0  0  0  0  0  0  0  0  0
  2  3  1  0
  2  1  1  1
  3  4  1  0
  5  4  1  0
  5  6  1  0
  7  6  1  0
  8  2  1  0
  8  9  2  0
 10  8  1  0
 11 10  1  0
 11 12  1  6
 13 12  1  0
 13 14  1  0
 14 15  2  0
 16 17  2  0
 16 11  1  0
 18 14  1  0
 19 16  1  0
 20 19  1  0
 20 21  1  1
 22 23  1  0
 22 21  1  0
 23 24  1  0
 24 25  1  0
 26 20  1  0
 27 26  1  0
 28 26  2  0
M  END
$$$$
