KEK.pdb
     RDKit          3D

 28 27  0  0  1  0  0  0  0  0999 V2000
   17.2295  -12.2159  -14.5554 N   0  0  0  0  0  0  0  0  0  0  0  0
   16.7528  -10.9048  -14.3871 C   0  0  1  0  0  0  0  0  0  0  0  0
   15.2334  -10.7813  -14.4322 C   0  0  0  0  0  0  0  0  0  0  0  0
   14.6543  -11.4373  -15.6262 C   0  0  0  0  0  0  0  0  0  0  0  0
   13.1741  -11.4085  -15.7656 C   0  0  0  0  0  0  0  0  0  0  0  0
   12.6755  -12.1189  -17.0014 C   0  0  0  0  0  0  0  0  0  0  0  0
   11.2215  -12.1712  -16.9599 N   0  0  0  0  0  0  0  0  0  0  0  0
   17.3135  -10.1781  -13.2456 C   0  0  0  0  0  0  0  0  0  0  0  0
   17.0243  -10.6165  -12.0782 O   0  0  0  0  0  0  0  0  0  0  0  0
   18.1272   -9.0599  -13.3029 N   0  0  0  0  0  0  0  0  0  0  0  0
   18.5221   -8.2862  -12.0859 C   0  0  1  0  0  0  0  0  0  0  0  0
   19.7364   -7.5454  -12.5044 C   0  0  0  0  0  0  0  0  0  0  0  0
   20.3258   -6.5643  -11.5680 C   0  0  0  0  0  0  0  0  0  0  0  0
   21.5682   -5.9944  -12.1309 C   0  0  0  0  0  0  0  0  0  0  0  0
   22.1384   -5.0672  -11.4586 O   0  0  0  0  0  0  0  0  0  0  0  0
   17.3598   -7.5624  -11.6181 C   0  0  0  0  0  0  0  0  0  0  0  0
   16.5982   -6.9538  -12.4488 O   0  0  0  0  0  0  0  0  0  0  0  0
   22.1326   -6.4058  -13.3240 O   0  0  0  0  0  0  0  0  0  0  0  0
   16.9936   -7.4774  -10.2569 N   0  0  0  0  0  0  0  0  0  0  0  0
   15.9217   -6.6103   -9.8149 C   0  0  1  0  0  0  0  0  0  0  0  0
   14.8767   -7.4957   -9.1848 C   0  0  0  0  0  0  0  0  0  0  0  0
   13.7317   -6.7390   -8.5949 C   0  0  0  0  0  0  0  0  0  0  0  0
   12.6947   -7.5980   -7.9477 C   0  0  0  0  0  0  0  0  0  0  0  0
   11.5279   -6.7986   -7.4082 C   0  0  0  0  0  0  0  0  0  0  0  0
   10.5663   -7.7595   -6.8530 N   0  0  0  0  0  0  0  0  0  0  0  0
   16.4420   -5.5936   -8.8907 C   0  0  0  0  0  0  0  0  0  0  0  0
   17.7245   -5.7363   -8.3890 O   0  0  0  0  0  0  0  0  0  0  0  0
   15.7941   -4.5850   -8.5161 O   0  0  0  0  0  0  0  0  0  0  0  0
  2  3  1  0
  2  1  1  1
  3  4  1  0
  5  4  1  0
  5  6  1  0
  7  6  1  0
  8  2  1  0
  8  9  2  0
 10  8  1  0
 11 10  1  0
 11 12  1  6
 13 12  1  0
 13 14  1  0
 14 15  2  0
 16 17  2  0
 16 11  1  0
 18 14  1  0
 19 16  1  0
 20 19  1  0
 20 21  1  1
 22 23  1  0
 22 21  1  0
 23 24  1  0
 24 25  1  0
 26 20  1  0
 27 26  1  0
 28 26  2  0
M  END
$$$$
