KEK.pdb
     RDKit          3D

 28 27  0  0  1  0  0  0  0  0999 V2000
   25.8003  -18.3580  -17.3210 N   0  0  0  0  0  0  0  0  0  0  0  0
   25.1625  -18.6316  -16.0991 C   0  0  1  0  0  0  0  0  0  0  0  0
   26.0924  -18.6126  -14.8904 C   0  0  0  0  0  0  0  0  0  0  0  0
   27.3802  -19.2889  -15.1650 C   0  0  0  0  0  0  0  0  0  0  0  0
   27.3183  -20.6731  -15.7050 C   0  0  0  0  0  0  0  0  0  0  0  0
   28.6774  -21.3048  -15.8893 C   0  0  0  0  0  0  0  0  0  0  0  0
   28.5063  -22.6291  -16.4684 N   0  0  0  0  0  0  0  0  0  0  0  0
   23.9421  -17.8623  -15.8456 C   0  0  0  0  0  0  0  0  0  0  0  0
   23.3531  -18.0584  -14.7262 O   0  0  0  0  0  0  0  0  0  0  0  0
   23.3591  -16.9416  -16.6990 N   0  0  0  0  0  0  0  0  0  0  0  0
   22.1083  -16.1994  -16.3523 C   0  0  1  0  0  0  0  0  0  0  0  0
   22.3673  -14.8147  -16.8148 C   0  0  0  0  0  0  0  0  0  0  0  0
   23.7203  -14.2473  -16.6295 C   0  0  0  0  0  0  0  0  0  0  0  0
   23.7668  -12.8521  -17.1162 C   0  0  0  0  0  0  0  0  0  0  0  0
   24.9215  -12.3113  -17.2193 O   0  0  0  0  0  0  0  0  0  0  0  0
   20.9853  -16.9405  -16.8844 C   0  0  0  0  0  0  0  0  0  0  0  0
   21.0590  -17.4868  -18.0405 O   0  0  0  0  0  0  0  0  0  0  0  0
   22.6462  -12.1182  -17.4583 O   0  0  0  0  0  0  0  0  0  0  0  0
   19.7669  -17.1091  -16.1904 N   0  0  0  0  0  0  0  0  0  0  0  0
   18.6868  -17.9013  -16.7402 C   0  0  1  0  0  0  0  0  0  0  0  0
   18.6595  -19.1961  -15.9685 C   0  0  0  0  0  0  0  0  0  0  0  0
   17.5987  -20.1418  -16.4287 C   0  0  0  0  0  0  0  0  0  0  0  0
   17.4431  -21.3561  -15.5724 C   0  0  0  0  0  0  0  0  0  0  0  0
   16.4641  -22.3561  -16.1494 C   0  0  0  0  0  0  0  0  0  0  0  0
   16.4560  -23.5189  -15.2526 N   0  0  0  0  0  0  0  0  0  0  0  0
   17.4217  -17.1591  -16.6561 C   0  0  0  0  0  0  0  0  0  0  0  0
   16.5128  -17.2622  -17.6956 O   0  0  0  0  0  0  0  0  0  0  0  0
   17.0994  -16.4238  -15.6903 O   0  0  0  0  0  0  0  0  0  0  0  0
  2  3  1  0
  2  1  1  6
  3  4  1  0
  5  4  1  0
  5  6  1  0
  7  6  1  0
  8  2  1  0
  8  9  2  0
 10  8  1  0
 11 10  1  0
 11 12  1  6
 13 12  1  0
 13 14  1  0
 14 15  2  0
 16 17  2  0
 16 11  1  0
 18 14  1  0
 19 16  1  0
 20 19  1  0
 20 21  1  1
 22 23  1  0
 22 21  1  0
 23 24  1  0
 24 25  1  0
 26 20  1  0
 27 26  1  0
 28 26  2  0
M  END
$$$$
