KEK.pdb
     RDKit          3D

 28 27  0  0  1  0  0  0  0  0999 V2000
   19.9205  -12.2557  -15.9356 N   0  0  0  0  0  0  0  0  0  0  0  0
   19.4981  -11.0613  -16.5437 C   0  0  1  0  0  0  0  0  0  0  0  0
   18.3701  -11.2394  -17.5546 C   0  0  0  0  0  0  0  0  0  0  0  0
   18.5618  -12.4388  -18.4008 C   0  0  0  0  0  0  0  0  0  0  0  0
   17.4849  -13.4641  -18.3786 C   0  0  0  0  0  0  0  0  0  0  0  0
   17.7292  -14.6091  -19.3322 C   0  0  0  0  0  0  0  0  0  0  0  0
   18.8424  -15.4052  -18.8365 N   0  0  0  0  0  0  0  0  0  0  0  0
   19.2204   -9.9561  -15.6234 C   0  0  0  0  0  0  0  0  0  0  0  0
   18.4470  -10.2037  -14.6339 O   0  0  0  0  0  0  0  0  0  0  0  0
   19.7117   -8.6656  -15.7174 N   0  0  0  0  0  0  0  0  0  0  0  0
   19.4188   -7.6144  -14.6953 C   0  0  1  0  0  0  0  0  0  0  0  0
   20.7389   -6.9985  -14.4188 C   0  0  0  0  0  0  0  0  0  0  0  0
   20.7932   -5.7922  -13.5651 C   0  0  0  0  0  0  0  0  0  0  0  0
   22.1696   -5.2552  -13.5160 C   0  0  0  0  0  0  0  0  0  0  0  0
   22.5456   -4.5302  -14.5007 O   0  0  0  0  0  0  0  0  0  0  0  0
   18.3307   -6.7990  -15.1898 C   0  0  0  0  0  0  0  0  0  0  0  0
   18.3179   -6.4062  -16.4089 O   0  0  0  0  0  0  0  0  0  0  0  0
   23.0526   -5.4934  -12.4792 O   0  0  0  0  0  0  0  0  0  0  0  0
   17.2404   -6.3906  -14.3905 N   0  0  0  0  0  0  0  0  0  0  0  0
   16.1470   -5.6174  -14.9408 C   0  0  1  0  0  0  0  0  0  0  0  0
   14.9111   -5.9972  -14.1655 C   0  0  0  0  0  0  0  0  0  0  0  0
   13.6844   -5.2663  -14.6043 C   0  0  0  0  0  0  0  0  0  0  0  0
   12.4361   -5.6772  -13.8936 C   0  0  0  0  0  0  0  0  0  0  0  0
   11.1924   -5.0530  -14.4896 C   0  0  0  0  0  0  0  0  0  0  0  0
   10.0431   -5.5903  -13.7503 N   0  0  0  0  0  0  0  0  0  0  0  0
   16.4524   -4.1825  -14.8623 C   0  0  0  0  0  0  0  0  0  0  0  0
   15.8616   -3.3199  -15.7701 O   0  0  0  0  0  0  0  0  0  0  0  0
   17.2260   -3.6725  -14.0144 O   0  0  0  0  0  0  0  0  0  0  0  0
  2  3  1  0
  2  1  1  1
  3  4  1  0
  5  4  1  0
  5  6  1  0
  7  6  1  0
  8  2  1  0
  8  9  2  0
 10  8  1  0
 11 10  1  0
 11 12  1  6
 13 12  1  0
 13 14  1  0
 14 15  2  0
 16 17  2  0
 16 11  1  0
 18 14  1  0
 19 16  1  0
 20 19  1  0
 20 21  1  1
 22 23  1  0
 22 21  1  0
 23 24  1  0
 24 25  1  0
 26 20  1  0
 27 26  1  0
 28 26  2  0
M  END
$$$$
