KEK.pdb
     RDKit          3D

 28 27  0  0  1  0  0  0  0  0999 V2000
   28.0771  -22.1744  -16.1142 N   0  0  0  0  0  0  0  0  0  0  0  0
   27.4889  -21.0056  -15.6017 C   0  0  1  0  0  0  0  0  0  0  0  0
   27.2260  -19.9275  -16.6479 C   0  0  0  0  0  0  0  0  0  0  0  0
   28.0930  -20.0799  -17.8380 C   0  0  0  0  0  0  0  0  0  0  0  0
   28.7736  -18.8578  -18.3428 C   0  0  0  0  0  0  0  0  0  0  0  0
   29.5520  -19.0892  -19.6158 C   0  0  0  0  0  0  0  0  0  0  0  0
   30.2875  -17.8770  -19.9448 N   0  0  0  0  0  0  0  0  0  0  0  0
   26.3173  -21.2184  -14.7486 C   0  0  0  0  0  0  0  0  0  0  0  0
   25.4639  -22.0888  -15.1393 O   0  0  0  0  0  0  0  0  0  0  0  0
   26.0391  -20.5694  -13.5582 N   0  0  0  0  0  0  0  0  0  0  0  0
   24.8533  -20.9079  -12.7127 C   0  0  1  0  0  0  0  0  0  0  0  0
   25.2679  -20.5343  -11.3390 C   0  0  0  0  0  0  0  0  0  0  0  0
   25.2629  -21.5760  -10.2895 C   0  0  0  0  0  0  0  0  0  0  0  0
   25.7171  -21.0130   -9.0002 C   0  0  0  0  0  0  0  0  0  0  0  0
   25.9724  -19.7598   -8.9716 O   0  0  0  0  0  0  0  0  0  0  0  0
   23.6876  -20.2917  -13.3082 C   0  0  0  0  0  0  0  0  0  0  0  0
   23.7657  -19.1221  -13.8245 O   0  0  0  0  0  0  0  0  0  0  0  0
   25.8765  -21.7594   -7.8475 O   0  0  0  0  0  0  0  0  0  0  0  0
   22.4212  -20.9144  -13.3611 N   0  0  0  0  0  0  0  0  0  0  0  0
   21.2845  -20.2653  -13.9799 C   0  0  1  0  0  0  0  0  0  0  0  0
   20.7542  -21.2161  -15.0228 C   0  0  0  0  0  0  0  0  0  0  0  0
   19.5317  -20.7146  -15.7196 C   0  0  0  0  0  0  0  0  0  0  0  0
   18.9065  -21.7008  -16.6516 C   0  0  0  0  0  0  0  0  0  0  0  0
   17.6877  -21.1459  -17.3574 C   0  0  0  0  0  0  0  0  0  0  0  0
   17.2142  -22.1841  -18.2817 N   0  0  0  0  0  0  0  0  0  0  0  0
   20.2841  -19.9182  -12.9615 C   0  0  0  0  0  0  0  0  0  0  0  0
   19.2971  -18.9995  -13.2759 O   0  0  0  0  0  0  0  0  0  0  0  0
   20.2596  -20.4046  -11.8038 O   0  0  0  0  0  0  0  0  0  0  0  0
  2  3  1  0
  2  1  1  6
  3  4  1  0
  5  4  1  0
  5  6  1  0
  7  6  1  0
  8  2  1  0
  8  9  2  0
 10  8  1  0
 11 10  1  0
 11 12  1  1
 13 12  1  0
 13 14  1  0
 14 15  2  0
 16 17  2  0
 16 11  1  0
 18 14  1  0
 19 16  1  0
 20 19  1  0
 20 21  1  6
 22 23  1  0
 22 21  1  0
 23 24  1  0
 24 25  1  0
 26 20  1  0
 27 26  1  0
 28 26  2  0
M  END
$$$$
