KEK.pdb
     RDKit          3D

 28 27  0  0  1  0  0  0  0  0999 V2000
   24.6342  -16.0029  -20.1084 N   0  0  0  0  0  0  0  0  0  0  0  0
   23.8091  -16.0344  -18.9714 C   0  0  1  0  0  0  0  0  0  0  0  0
   22.4899  -15.2867  -19.1353 C   0  0  0  0  0  0  0  0  0  0  0  0
   22.6923  -13.8359  -19.3491 C   0  0  0  0  0  0  0  0  0  0  0  0
   23.1912  -13.0428  -18.1943 C   0  0  0  0  0  0  0  0  0  0  0  0
   22.3318  -11.8425  -17.8769 C   0  0  0  0  0  0  0  0  0  0  0  0
   22.9287  -11.1169  -16.7653 N   0  0  0  0  0  0  0  0  0  0  0  0
   23.6012  -17.3614  -18.3871 C   0  0  0  0  0  0  0  0  0  0  0  0
   22.9260  -18.2015  -19.0775 O   0  0  0  0  0  0  0  0  0  0  0  0
   24.0629  -17.7993  -17.1579 N   0  0  0  0  0  0  0  0  0  0  0  0
   23.8705  -19.2018  -16.6769 C   0  0  1  0  0  0  0  0  0  0  0  0
   25.2487  -19.7033  -16.4585 C   0  0  0  0  0  0  0  0  0  0  0  0
   25.4284  -21.0569  -15.8908 C   0  0  0  0  0  0  0  0  0  0  0  0
   26.8636  -21.4065  -15.8325 C   0  0  0  0  0  0  0  0  0  0  0  0
   27.1605  -22.5692  -15.3890 O   0  0  0  0  0  0  0  0  0  0  0  0
   22.9295  -19.1739  -15.5783 C   0  0  0  0  0  0  0  0  0  0  0  0
   22.9374  -18.2028  -14.7432 O   0  0  0  0  0  0  0  0  0  0  0  0
   27.8800  -20.5558  -16.2256 O   0  0  0  0  0  0  0  0  0  0  0  0
   21.9663  -20.1822  -15.3546 N   0  0  0  0  0  0  0  0  0  0  0  0
   21.0989  -20.1557  -14.1956 C   0  0  1  0  0  0  0  0  0  0  0  0
   19.7540  -20.6669  -14.6460 C   0  0  0  0  0  0  0  0  0  0  0  0
   18.7453  -20.7389  -13.5465 C   0  0  0  0  0  0  0  0  0  0  0  0
   17.4782  -21.4375  -13.9189 C   0  0  0  0  0  0  0  0  0  0  0  0
   16.4024  -21.2977  -12.8631 C   0  0  0  0  0  0  0  0  0  0  0  0
   15.2088  -21.9873  -13.3692 N   0  0  0  0  0  0  0  0  0  0  0  0
   21.6805  -20.9569  -13.1101 C   0  0  0  0  0  0  0  0  0  0  0  0
   22.6115  -21.9334  -13.4214 O   0  0  0  0  0  0  0  0  0  0  0  0
   21.3881  -20.8167  -11.8968 O   0  0  0  0  0  0  0  0  0  0  0  0
  2  3  1  0
  2  1  1  6
  3  4  1  0
  5  4  1  0
  5  6  1  0
  7  6  1  0
  8  2  1  0
  8  9  2  0
 10  8  1  0
 11 10  1  0
 11 12  1  1
 13 12  1  0
 13 14  1  0
 14 15  2  0
 16 17  2  0
 16 11  1  0
 18 14  1  0
 19 16  1  0
 20 19  1  0
 20 21  1  6
 22 23  1  0
 22 21  1  0
 23 24  1  0
 24 25  1  0
 26 20  1  0
 27 26  1  0
 28 26  2  0
M  END
$$$$
