KEK.pdb
     RDKit          3D

 28 27  0  0  1  0  0  0  0  0999 V2000
   23.0684  -12.1339  -17.6515 N   0  0  0  0  0  0  0  0  0  0  0  0
   22.4891  -11.3739  -18.6818 C   0  0  1  0  0  0  0  0  0  0  0  0
   21.7422  -12.1998  -19.7239 C   0  0  0  0  0  0  0  0  0  0  0  0
   22.5913  -13.2621  -20.3088 C   0  0  0  0  0  0  0  0  0  0  0  0
   22.4666  -14.6262  -19.7300 C   0  0  0  0  0  0  0  0  0  0  0  0
   23.2741  -15.6660  -20.4696 C   0  0  0  0  0  0  0  0  0  0  0  0
   23.1783  -16.9312  -19.7563 N   0  0  0  0  0  0  0  0  0  0  0  0
   21.6931  -10.2266  -18.2396 C   0  0  0  0  0  0  0  0  0  0  0  0
   21.1944   -9.4790  -19.1512 O   0  0  0  0  0  0  0  0  0  0  0  0
   21.4257   -9.8680  -16.9298 N   0  0  0  0  0  0  0  0  0  0  0  0
   20.5189   -8.7340  -16.5728 C   0  0  1  0  0  0  0  0  0  0  0  0
   19.4069   -9.3772  -15.8324 C   0  0  0  0  0  0  0  0  0  0  0  0
   18.4054   -8.5150  -15.1688 C   0  0  0  0  0  0  0  0  0  0  0  0
   17.3386   -9.3369  -14.5590 C   0  0  0  0  0  0  0  0  0  0  0  0
   16.1308   -9.0205  -14.8376 O   0  0  0  0  0  0  0  0  0  0  0  0
   21.3142   -7.7081  -15.9337 C   0  0  0  0  0  0  0  0  0  0  0  0
   22.1256   -8.0114  -14.9902 O   0  0  0  0  0  0  0  0  0  0  0  0
   17.5775  -10.4090  -13.7194 O   0  0  0  0  0  0  0  0  0  0  0  0
   21.2549   -6.3434  -16.2919 N   0  0  0  0  0  0  0  0  0  0  0  0
   22.0394   -5.3443  -15.5971 C   0  0  1  0  0  0  0  0  0  0  0  0
   21.6829   -4.0110  -16.2036 C   0  0  0  0  0  0  0  0  0  0  0  0
   22.3671   -2.8562  -15.5479 C   0  0  0  0  0  0  0  0  0  0  0  0
   22.0165   -1.5241  -16.1264 C   0  0  0  0  0  0  0  0  0  0  0  0
   22.7377   -0.3823  -15.4424 C   0  0  0  0  0  0  0  0  0  0  0  0
   22.3986    0.8436  -16.1762 N   0  0  0  0  0  0  0  0  0  0  0  0
   21.7723   -5.4054  -14.1537 C   0  0  0  0  0  0  0  0  0  0  0  0
   20.4967   -5.7248  -13.7202 O   0  0  0  0  0  0  0  0  0  0  0  0
   22.6348   -5.1843  -13.2679 O   0  0  0  0  0  0  0  0  0  0  0  0
  2  3  1  0
  2  1  1  1
  3  4  1  0
  5  4  1  0
  5  6  1  0
  7  6  1  0
  8  2  1  0
  8  9  2  0
 10  8  1  0
 11 10  1  0
 11 12  1  1
 13 12  1  0
 13 14  1  0
 14 15  2  0
 16 17  2  0
 16 11  1  0
 18 14  1  0
 19 16  1  0
 20 19  1  0
 20 21  1  6
 22 23  1  0
 22 21  1  0
 23 24  1  0
 24 25  1  0
 26 20  1  0
 27 26  1  0
 28 26  2  0
M  END
$$$$
