KEK.pdb
     RDKit          3D

 28 27  0  0  1  0  0  0  0  0999 V2000
   16.8452  -12.4877  -15.3663 N   0  0  0  0  0  0  0  0  0  0  0  0
   16.3802  -11.1714  -15.2059 C   0  0  1  0  0  0  0  0  0  0  0  0
   14.8608  -11.0457  -15.1652 C   0  0  0  0  0  0  0  0  0  0  0  0
   14.2115  -11.7418  -16.2988 C   0  0  0  0  0  0  0  0  0  0  0  0
   12.7257  -11.7117  -16.3526 C   0  0  0  0  0  0  0  0  0  0  0  0
   12.1806  -11.5585  -17.7524 C   0  0  0  0  0  0  0  0  0  0  0  0
   12.6544  -12.6685  -18.5661 N   0  0  0  0  0  0  0  0  0  0  0  0
   17.0075  -10.4154  -14.1194 C   0  0  0  0  0  0  0  0  0  0  0  0
   17.2522  -11.0502  -13.0351 O   0  0  0  0  0  0  0  0  0  0  0  0
   17.3627   -9.0780  -14.1475 N   0  0  0  0  0  0  0  0  0  0  0  0
   18.0450   -8.4002  -13.0026 C   0  0  1  0  0  0  0  0  0  0  0  0
   19.1310   -7.6167  -13.6391 C   0  0  0  0  0  0  0  0  0  0  0  0
   19.9494   -6.7223  -12.7923 C   0  0  0  0  0  0  0  0  0  0  0  0
   20.9935   -7.4933  -12.0846 C   0  0  0  0  0  0  0  0  0  0  0  0
   21.8117   -8.1612  -12.8063 O   0  0  0  0  0  0  0  0  0  0  0  0
   17.0357   -7.7274  -12.2139 C   0  0  0  0  0  0  0  0  0  0  0  0
   16.1534   -6.9927  -12.7815 O   0  0  0  0  0  0  0  0  0  0  0  0
   21.1263   -7.5272  -10.7089 O   0  0  0  0  0  0  0  0  0  0  0  0
   16.9535   -7.8286  -10.8077 N   0  0  0  0  0  0  0  0  0  0  0  0
   16.0108   -7.0362  -10.0463 C   0  0  1  0  0  0  0  0  0  0  0  0
   15.0590   -8.0033   -9.3895 C   0  0  0  0  0  0  0  0  0  0  0  0
   13.9936   -7.3357   -8.5827 C   0  0  0  0  0  0  0  0  0  0  0  0
   13.0328   -8.2773   -7.9329 C   0  0  0  0  0  0  0  0  0  0  0  0
   11.9538   -7.5616   -7.1486 C   0  0  0  0  0  0  0  0  0  0  0  0
   11.1188   -8.5943   -6.5220 N   0  0  0  0  0  0  0  0  0  0  0  0
   16.7251   -6.1916   -9.0793 C   0  0  0  0  0  0  0  0  0  0  0  0
   16.0801   -5.0880   -8.5472 O   0  0  0  0  0  0  0  0  0  0  0  0
   17.9014   -6.4031   -8.6934 O   0  0  0  0  0  0  0  0  0  0  0  0
  2  3  1  0
  2  1  1  1
  3  4  1  0
  5  4  1  0
  5  6  1  0
  7  6  1  0
  8  2  1  0
  8  9  2  0
 10  8  1  0
 11 10  1  0
 11 12  1  6
 13 12  1  0
 13 14  1  0
 14 15  2  0
 16 17  2  0
 16 11  1  0
 18 14  1  0
 19 16  1  0
 20 19  1  0
 20 21  1  1
 22 23  1  0
 22 21  1  0
 23 24  1  0
 24 25  1  0
 26 20  1  0
 27 26  1  0
 28 26  2  0
M  END
$$$$
