KEK.pdb
     RDKit          3D

 28 27  0  0  1  0  0  0  0  0999 V2000
   24.0492  -22.0939  -15.2564 N   0  0  0  0  0  0  0  0  0  0  0  0
   24.2330  -21.4288  -14.0323 C   0  0  1  0  0  0  0  0  0  0  0  0
   25.1700  -20.2278  -14.1078 C   0  0  0  0  0  0  0  0  0  0  0  0
   26.5519  -20.6185  -14.4671 C   0  0  0  0  0  0  0  0  0  0  0  0
   26.7571  -21.2334  -15.8055 C   0  0  0  0  0  0  0  0  0  0  0  0
   28.1805  -21.6744  -16.0494 C   0  0  0  0  0  0  0  0  0  0  0  0
   28.2299  -22.4439  -17.2838 N   0  0  0  0  0  0  0  0  0  0  0  0
   23.0023  -21.1008  -13.3088 C   0  0  0  0  0  0  0  0  0  0  0  0
   23.1281  -20.4579  -12.2091 O   0  0  0  0  0  0  0  0  0  0  0  0
   21.7121  -21.4183  -13.6962 N   0  0  0  0  0  0  0  0  0  0  0  0
   20.5218  -21.1550  -12.8305 C   0  0  1  0  0  0  0  0  0  0  0  0
   19.6543  -20.2847  -13.6603 C   0  0  0  0  0  0  0  0  0  0  0  0
   20.0084  -18.8556  -13.7976 C   0  0  0  0  0  0  0  0  0  0  0  0
   18.7875  -18.0247  -13.8643 C   0  0  0  0  0  0  0  0  0  0  0  0
   18.9506  -16.7586  -13.9482 O   0  0  0  0  0  0  0  0  0  0  0  0
   20.0241  -22.4270  -12.3535 C   0  0  0  0  0  0  0  0  0  0  0  0
   20.0850  -23.4669  -13.0988 O   0  0  0  0  0  0  0  0  0  0  0  0
   17.5042  -18.5384  -13.8405 O   0  0  0  0  0  0  0  0  0  0  0  0
   19.4539  -22.6079  -11.0743 N   0  0  0  0  0  0  0  0  0  0  0  0
   18.9634  -23.8992  -10.6406 C   0  0  1  0  0  0  0  0  0  0  0  0
   18.8730  -23.8484   -9.1366 C   0  0  0  0  0  0  0  0  0  0  0  0
   18.3723  -25.1168   -8.5266 C   0  0  0  0  0  0  0  0  0  0  0  0
   18.2727  -25.0854   -7.0362 C   0  0  0  0  0  0  0  0  0  0  0  0
   17.6564  -26.3447   -6.4655 C   0  0  0  0  0  0  0  0  0  0  0  0
   17.5671  -26.1608   -5.0114 N   0  0  0  0  0  0  0  0  0  0  0  0
   17.6739  -24.1916  -11.2811 C   0  0  0  0  0  0  0  0  0  0  0  0
   17.3817  -25.4977  -11.6358 O   0  0  0  0  0  0  0  0  0  0  0  0
   16.8010  -23.3250  -11.5348 O   0  0  0  0  0  0  0  0  0  0  0  0
  2  3  1  0
  2  1  1  6
  3  4  1  0
  5  4  1  0
  5  6  1  0
  7  6  1  0
  8  2  1  0
  8  9  2  0
 10  8  1  0
 11 10  1  0
 11 12  1  6
 13 12  1  0
 13 14  1  0
 14 15  2  0
 16 17  2  0
 16 11  1  0
 18 14  1  0
 19 16  1  0
 20 19  1  0
 20 21  1  1
 22 23  1  0
 22 21  1  0
 23 24  1  0
 24 25  1  0
 26 20  1  0
 27 26  1  0
 28 26  2  0
M  END
$$$$
