ANC.pdb
     RDKit          3D

 20 19  0  0  1  0  0  0  0  0999 V2000
    7.3386  -12.8201   19.0129 C   0  0  0  0  0  0  0  0  0  0  0  0
    8.5271  -13.1878   19.8704 C   0  0  2  0  0  0  0  0  0  0  0  0
    9.4408  -14.0876   19.1968 N   0  0  0  0  0  0  0  0  0  0  0  0
    8.0620  -13.8347   21.1039 C   0  0  0  0  0  0  0  0  0  0  0  0
    7.1370  -13.3449   21.7910 O   0  0  0  0  0  0  0  0  0  0  0  0
    9.1806  -18.5383   20.8446 N   0  0  0  0  0  0  0  0  0  0  0  0
    8.3816  -17.9792   21.8659 C   0  0  0  0  0  0  0  0  0  0  0  0
    7.1596  -18.2939   21.8779 O   0  0  0  0  0  0  0  0  0  0  0  0
    8.8344  -17.0641   22.9195 C   0  0  0  0  0  0  0  0  0  0  0  0
    8.2377  -15.6787   22.8416 C   0  0  2  0  0  0  0  0  0  0  0  0
    8.6346  -15.0619   21.5971 N   0  0  0  0  0  0  0  0  0  0  0  0
    8.7719  -14.8980   24.0164 C   0  0  0  0  0  0  0  0  0  0  0  0
   10.0105  -14.7773   24.1746 O   0  0  0  0  0  0  0  0  0  0  0  0
    7.9277  -14.2783   24.9744 N   0  0  0  0  0  0  0  0  0  0  0  0
    8.4394  -13.4684   26.0626 C   0  0  1  0  0  0  0  0  0  0  0  0
    7.4619  -12.3782   26.4458 C   0  0  0  0  0  0  0  0  0  0  0  0
    5.8149  -13.0378   26.7718 S   0  0  0  0  0  0  0  0  0  0  0  0
    8.7658  -14.3400   27.2274 C   0  0  0  0  0  0  0  0  0  0  0  0
    9.5052  -13.8674   28.3036 O   0  0  0  0  0  0  0  0  0  0  0  0
    8.3821  -15.5362   27.2766 O   0  0  0  0  0  0  0  0  0  0  0  0
  2  1  1  6
  2  4  1  0
  3  2  1  0
  4  5  2  0
  6  7  1  0
  7  9  1  0
  8  7  2  0
 10  9  1  6
 11 10  1  0
 11  4  1  0
 12 10  1  0
 12 14  1  0
 13 12  2  0
 15 14  1  0
 15 16  1  1
 17 16  1  0
 18 15  1  0
 19 18  1  0
 20 18  2  0
M  END
$$$$
