ANC.pdb
     RDKit          3D

 20 19  0  0  1  0  0  0  0  0999 V2000
    7.3459  -13.3830   18.5678 C   0  0  0  0  0  0  0  0  0  0  0  0
    8.4523  -13.2622   19.5897 C   0  0  2  0  0  0  0  0  0  0  0  0
    9.7490  -13.6146   19.0486 N   0  0  0  0  0  0  0  0  0  0  0  0
    8.1682  -14.1448   20.7285 C   0  0  0  0  0  0  0  0  0  0  0  0
    7.0220  -14.2218   21.2266 O   0  0  0  0  0  0  0  0  0  0  0  0
    9.9960  -19.2723   21.9567 N   0  0  0  0  0  0  0  0  0  0  0  0
    9.9730  -17.8901   21.6679 C   0  0  0  0  0  0  0  0  0  0  0  0
    9.8808  -17.5572   20.4542 O   0  0  0  0  0  0  0  0  0  0  0  0
   10.0460  -16.7979   22.6448 C   0  0  0  0  0  0  0  0  0  0  0  0
    8.9449  -15.7720   22.5172 C   0  0  2  0  0  0  0  0  0  0  0  0
    9.1799  -14.9698   21.3391 N   0  0  0  0  0  0  0  0  0  0  0  0
    8.9873  -14.9177   23.7596 C   0  0  0  0  0  0  0  0  0  0  0  0
   10.0346  -14.2919   24.0515 O   0  0  0  0  0  0  0  0  0  0  0  0
    7.8792  -14.7813   24.6360 N   0  0  0  0  0  0  0  0  0  0  0  0
    7.9026  -13.9181   25.8006 C   0  0  1  0  0  0  0  0  0  0  0  0
    6.6112  -13.1407   25.9370 C   0  0  0  0  0  0  0  0  0  0  0  0
    6.6044  -12.1045   27.4134 S   0  0  0  0  0  0  0  0  0  0  0  0
    8.1811  -14.7281   27.0210 C   0  0  0  0  0  0  0  0  0  0  0  0
    8.6883  -14.1493   28.1768 O   0  0  0  0  0  0  0  0  0  0  0  0
    7.9660  -15.9665   27.0468 O   0  0  0  0  0  0  0  0  0  0  0  0
  2  1  1  6
  2  4  1  0
  3  2  1  0
  4  5  2  0
  6  7  1  0
  7  9  1  0
  8  7  2  0
 10  9  1  1
 11 10  1  0
 11  4  1  0
 12 10  1  0
 12 14  1  0
 13 12  2  0
 15 14  1  0
 15 16  1  1
 17 16  1  0
 18 15  1  0
 19 18  1  0
 20 18  2  0
M  END
$$$$
