ANC.pdb
     RDKit          3D

 20 19  0  0  1  0  0  0  0  0999 V2000
    8.6164  -18.9070   17.3353 C   0  0  0  0  0  0  0  0  0  0  0  0
    8.3676  -18.4429   18.7515 C   0  0  2  0  0  0  0  0  0  0  0  0
    6.9593  -18.4239   19.0903 N   0  0  0  0  0  0  0  0  0  0  0  0
    8.9064  -17.0881   18.9267 C   0  0  0  0  0  0  0  0  0  0  0  0
   10.1284  -16.8481   18.7970 O   0  0  0  0  0  0  0  0  0  0  0  0
    8.4179  -12.6853   16.5855 N   0  0  0  0  0  0  0  0  0  0  0  0
    7.6116  -13.5547   17.3524 C   0  0  0  0  0  0  0  0  0  0  0  0
    6.8418  -14.3312   16.7224 O   0  0  0  0  0  0  0  0  0  0  0  0
    7.5805  -13.6444   18.8165 C   0  0  0  0  0  0  0  0  0  0  0  0
    8.5776  -14.6152   19.4034 C   0  0  2  0  0  0  0  0  0  0  0  0
    8.0717  -15.9602   19.2558 N   0  0  0  0  0  0  0  0  0  0  0  0
    8.7352  -14.2632   20.8616 C   0  0  0  0  0  0  0  0  0  0  0  0
    8.1861  -13.2316   21.3178 O   0  0  0  0  0  0  0  0  0  0  0  0
    9.4892  -15.0558   21.7659 N   0  0  0  0  0  0  0  0  0  0  0  0
    9.2965  -15.0046   23.2019 C   0  0  1  0  0  0  0  0  0  0  0  0
    7.8393  -15.1832   23.5696 C   0  0  0  0  0  0  0  0  0  0  0  0
    7.5315  -14.7903   25.3030 S   0  0  0  0  0  0  0  0  0  0  0  0
   10.1534  -16.0315   23.8609 C   0  0  0  0  0  0  0  0  0  0  0  0
   10.7526  -15.7965   25.0913 O   0  0  0  0  0  0  0  0  0  0  0  0
   10.3641  -17.1489   23.3247 O   0  0  0  0  0  0  0  0  0  0  0  0
  2  1  1  6
  2  4  1  0
  3  2  1  0
  4  5  2  0
  6  7  1  0
  7  9  1  0
  8  7  2  0
 10  9  1  1
 11 10  1  0
 11  4  1  0
 12 10  1  0
 12 14  1  0
 13 12  2  0
 15 14  1  0
 15 16  1  6
 17 16  1  0
 18 15  1  0
 19 18  1  0
 20 18  2  0
M  END
$$$$
