ANC.pdb
     RDKit          3D

 20 19  0  0  1  0  0  0  0  0999 V2000
   -2.6937  -28.9514   27.4214 C   0  0  0  0  0  0  0  0  0  0  0  0
   -2.6588  -27.5669   28.0255 C   0  0  2  0  0  0  0  0  0  0  0  0
   -1.9888  -27.5380   29.3095 N   0  0  0  0  0  0  0  0  0  0  0  0
   -4.0305  -27.0743   28.2054 C   0  0  0  0  0  0  0  0  0  0  0  0
   -4.6774  -26.5781   27.2551 O   0  0  0  0  0  0  0  0  0  0  0  0
   -9.2781  -27.5863   30.8422 N   0  0  0  0  0  0  0  0  0  0  0  0
   -8.0458  -26.9749   31.1612 C   0  0  0  0  0  0  0  0  0  0  0  0
   -8.0891  -25.9158   31.8460 O   0  0  0  0  0  0  0  0  0  0  0  0
   -6.7139  -27.4519   30.7729 C   0  0  0  0  0  0  0  0  0  0  0  0
   -6.0606  -26.6508   29.6717 C   0  0  2  0  0  0  0  0  0  0  0  0
   -4.7123  -27.1301   29.4739 N   0  0  0  0  0  0  0  0  0  0  0  0
   -6.0531  -25.2092   30.1152 C   0  0  0  0  0  0  0  0  0  0  0  0
   -5.2750  -24.8409   31.0277 O   0  0  0  0  0  0  0  0  0  0  0  0
   -6.8993  -24.2247   29.5416 N   0  0  0  0  0  0  0  0  0  0  0  0
   -6.7323  -22.8062   29.7902 C   0  0  1  0  0  0  0  0  0  0  0  0
   -5.8783  -22.1559   28.7232 C   0  0  0  0  0  0  0  0  0  0  0  0
   -4.8552  -20.8319   29.3971 S   0  0  0  0  0  0  0  0  0  0  0  0
   -8.0687  -22.1527   29.8902 C   0  0  0  0  0  0  0  0  0  0  0  0
   -8.3183  -21.1474   30.8149 O   0  0  0  0  0  0  0  0  0  0  0  0
   -9.0189  -22.4896   29.1390 O   0  0  0  0  0  0  0  0  0  0  0  0
  2  1  1  1
  2  4  1  0
  3  2  1  0
  4  5  2  0
  6  7  1  0
  7  9  1  0
  8  7  2  0
 10  9  1  1
 11 10  1  0
 11  4  1  0
 12 10  1  0
 12 14  1  0
 13 12  2  0
 15 14  1  0
 15 16  1  6
 17 16  1  0
 18 15  1  0
 19 18  1  0
 20 18  2  0
M  END
$$$$
