ANC.pdb
     RDKit          3D

 20 19  0  0  1  0  0  0  0  0999 V2000
    7.9744  -17.8826   19.7098 C   0  0  0  0  0  0  0  0  0  0  0  0
    8.5694  -16.6335   20.3171 C   0  0  2  0  0  0  0  0  0  0  0  0
    9.8467  -16.2845   19.7296 N   0  0  0  0  0  0  0  0  0  0  0  0
    8.7595  -16.8308   21.7598 C   0  0  0  0  0  0  0  0  0  0  0  0
    7.8226  -17.2141   22.4968 O   0  0  0  0  0  0  0  0  0  0  0  0
   13.8003  -16.0113   24.2650 N   0  0  0  0  0  0  0  0  0  0  0  0
   12.7070  -16.5036   23.5190 C   0  0  0  0  0  0  0  0  0  0  0  0
   12.6365  -16.1607   22.3066 O   0  0  0  0  0  0  0  0  0  0  0  0
   11.6400  -17.3787   24.0170 C   0  0  0  0  0  0  0  0  0  0  0  0
   10.2445  -16.8353   23.8203 C   0  0  2  0  0  0  0  0  0  0  0  0
   10.0232  -16.5983   22.4126 N   0  0  0  0  0  0  0  0  0  0  0  0
   10.1562  -15.5455   24.5972 C   0  0  0  0  0  0  0  0  0  0  0  0
   10.1637  -14.4485   23.9888 O   0  0  0  0  0  0  0  0  0  0  0  0
   10.0628  -15.5065   26.0129 N   0  0  0  0  0  0  0  0  0  0  0  0
    9.6657  -14.3167   26.7398 C   0  0  1  0  0  0  0  0  0  0  0  0
    8.2717  -13.8728   26.3520 C   0  0  0  0  0  0  0  0  0  0  0  0
    7.7173  -12.4660   27.3355 S   0  0  0  0  0  0  0  0  0  0  0  0
    9.7687  -14.5657   28.2062 C   0  0  0  0  0  0  0  0  0  0  0  0
    9.9703  -13.5282   29.1068 O   0  0  0  0  0  0  0  0  0  0  0  0
    9.6765  -15.7266   28.6802 O   0  0  0  0  0  0  0  0  0  0  0  0
  2  1  1  6
  2  4  1  0
  3  2  1  0
  4  5  2  0
  6  7  1  0
  7  9  1  0
  8  7  2  0
 10  9  1  6
 11 10  1  0
 11  4  1  0
 12 10  1  0
 12 14  1  0
 13 12  2  0
 15 14  1  0
 15 16  1  1
 17 16  1  0
 18 15  1  0
 19 18  1  0
 20 18  2  0
M  END
$$$$
