ANC.pdb
     RDKit          3D

 20 19  0  0  1  0  0  0  0  0999 V2000
    8.2002  -12.4314   19.6022 C   0  0  0  0  0  0  0  0  0  0  0  0
    8.3168  -13.9379   19.5968 C   0  0  2  0  0  0  0  0  0  0  0  0
    7.7680  -14.5330   18.3955 N   0  0  0  0  0  0  0  0  0  0  0  0
    7.6051  -14.4902   20.7565 C   0  0  0  0  0  0  0  0  0  0  0  0
    6.3880  -14.7787   20.7006 O   0  0  0  0  0  0  0  0  0  0  0  0
    7.4438  -18.7459   24.7869 N   0  0  0  0  0  0  0  0  0  0  0  0
    7.0793  -17.4856   24.2647 C   0  0  0  0  0  0  0  0  0  0  0  0
    6.1138  -16.8906   24.8182 O   0  0  0  0  0  0  0  0  0  0  0  0
    7.7156  -16.7964   23.1365 C   0  0  0  0  0  0  0  0  0  0  0  0
    7.5779  -15.2926   23.1661 C   0  0  2  0  0  0  0  0  0  0  0  0
    8.2554  -14.7329   22.0195 N   0  0  0  0  0  0  0  0  0  0  0  0
    8.2146  -14.8131   24.4466 C   0  0  0  0  0  0  0  0  0  0  0  0
    9.4504  -14.9454   24.6171 O   0  0  0  0  0  0  0  0  0  0  0  0
    7.4723  -14.2059   25.4930 N   0  0  0  0  0  0  0  0  0  0  0  0
    8.0960  -13.6641   26.6843 C   0  0  1  0  0  0  0  0  0  0  0  0
    7.1580  -12.7350   27.4242 C   0  0  0  0  0  0  0  0  0  0  0  0
    6.3956  -11.5309   26.3184 S   0  0  0  0  0  0  0  0  0  0  0  0
    8.5602  -14.7783   27.5597 C   0  0  0  0  0  0  0  0  0  0  0  0
    9.2745  -14.5367   28.7256 O   0  0  0  0  0  0  0  0  0  0  0  0
    8.3205  -15.9786   27.2724 O   0  0  0  0  0  0  0  0  0  0  0  0
  2  1  1  6
  2  4  1  0
  3  2  1  0
  4  5  2  0
  6  7  1  0
  7  9  1  0
  8  7  2  0
 10  9  1  6
 11 10  1  0
 11  4  1  0
 12 10  1  0
 12 14  1  0
 13 12  2  0
 15 14  1  0
 15 16  1  1
 17 16  1  0
 18 15  1  0
 19 18  1  0
 20 18  2  0
M  END
$$$$
