ANC.pdb
     RDKit          3D

 20 19  0  0  1  0  0  0  0  0999 V2000
    8.1211  -12.3060   19.8796 C   0  0  0  0  0  0  0  0  0  0  0  0
    8.6190  -13.1932   18.7626 C   0  0  2  0  0  0  0  0  0  0  0  0
    7.5404  -13.7428   17.9671 N   0  0  0  0  0  0  0  0  0  0  0  0
    9.3945  -14.3054   19.3266 C   0  0  0  0  0  0  0  0  0  0  0  0
    8.8612  -15.4069   19.5912 O   0  0  0  0  0  0  0  0  0  0  0  0
   13.8724  -14.0025   17.7198 N   0  0  0  0  0  0  0  0  0  0  0  0
   13.4080  -15.0824   18.5023 C   0  0  0  0  0  0  0  0  0  0  0  0
   13.2949  -16.2013   17.9297 O   0  0  0  0  0  0  0  0  0  0  0  0
   13.0421  -15.0314   19.9221 C   0  0  0  0  0  0  0  0  0  0  0  0
   11.5764  -15.2701   20.1978 C   0  0  2  0  0  0  0  0  0  0  0  0
   10.8040  -14.2010   19.6086 N   0  0  0  0  0  0  0  0  0  0  0  0
   11.4032  -15.2882   21.6961 C   0  0  0  0  0  0  0  0  0  0  0  0
   11.6802  -14.2664   22.3690 O   0  0  0  0  0  0  0  0  0  0  0  0
   10.9324  -16.4266   22.4010 N   0  0  0  0  0  0  0  0  0  0  0  0
   10.7768  -16.4470   23.8423 C   0  0  1  0  0  0  0  0  0  0  0  0
    9.3197  -16.5504   24.2384 C   0  0  0  0  0  0  0  0  0  0  0  0
    9.1174  -16.6714   26.0267 S   0  0  0  0  0  0  0  0  0  0  0  0
   11.5774  -17.5651   24.4184 C   0  0  0  0  0  0  0  0  0  0  0  0
   12.1450  -17.4758   25.6825 O   0  0  0  0  0  0  0  0  0  0  0  0
   11.7674  -18.6305   23.7786 O   0  0  0  0  0  0  0  0  0  0  0  0
  2  1  1  1
  2  4  1  0
  3  2  1  0
  4  5  2  0
  6  7  1  0
  7  9  1  0
  8  7  2  0
 10  9  1  1
 11 10  1  0
 11  4  1  0
 12 10  1  0
 12 14  1  0
 13 12  2  0
 15 14  1  0
 15 16  1  6
 17 16  1  0
 18 15  1  0
 19 18  1  0
 20 18  2  0
M  END
$$$$
