ANC.pdb
     RDKit          3D

 20 19  0  0  1  0  0  0  0  0999 V2000
    8.2971  -12.4256   19.3979 C   0  0  0  0  0  0  0  0  0  0  0  0
    8.5689  -13.6894   18.6156 C   0  0  2  0  0  0  0  0  0  0  0  0
    7.5356  -13.9720   17.6404 N   0  0  0  0  0  0  0  0  0  0  0  0
    8.6616  -14.8282   19.5381 C   0  0  0  0  0  0  0  0  0  0  0  0
    7.6590  -15.5210   19.8252 O   0  0  0  0  0  0  0  0  0  0  0  0
   11.9218  -17.7304   18.2978 N   0  0  0  0  0  0  0  0  0  0  0  0
   11.1371  -17.9031   19.4591 C   0  0  0  0  0  0  0  0  0  0  0  0
   10.2525  -18.8025   19.4274 O   0  0  0  0  0  0  0  0  0  0  0  0
   11.2496  -17.1362   20.7048 C   0  0  0  0  0  0  0  0  0  0  0  0
   10.0152  -16.3429   21.0627 C   0  0  2  0  0  0  0  0  0  0  0  0
    9.8997  -15.2169   20.1651 N   0  0  0  0  0  0  0  0  0  0  0  0
   10.1858  -15.8734   22.4859 C   0  0  0  0  0  0  0  0  0  0  0  0
   11.2013  -15.2106   22.8072 O   0  0  0  0  0  0  0  0  0  0  0  0
    9.2361  -16.1481   23.5043 N   0  0  0  0  0  0  0  0  0  0  0  0
    9.4044  -15.7030   24.8737 C   0  0  1  0  0  0  0  0  0  0  0  0
    8.0865  -15.2704   25.4791 C   0  0  0  0  0  0  0  0  0  0  0  0
    7.2521  -14.0381   24.4598 S   0  0  0  0  0  0  0  0  0  0  0  0
   10.0438  -16.7832   25.6784 C   0  0  0  0  0  0  0  0  0  0  0  0
   10.3677  -16.5978   27.0159 O   0  0  0  0  0  0  0  0  0  0  0  0
   10.3129  -17.9025   25.1732 O   0  0  0  0  0  0  0  0  0  0  0  0
  2  1  1  1
  2  4  1  0
  3  2  1  0
  4  5  2  0
  6  7  1  0
  7  9  1  0
  8  7  2  0
 10  9  1  6
 11 10  1  0
 11  4  1  0
 12 10  1  0
 12 14  1  0
 13 12  2  0
 15 14  1  0
 15 16  1  1
 17 16  1  0
 18 15  1  0
 19 18  1  0
 20 18  2  0
M  END
$$$$
