ANC.pdb
     RDKit          3D

 20 19  0  0  1  0  0  0  0  0999 V2000
    7.3129  -12.8408   19.2335 C   0  0  0  0  0  0  0  0  0  0  0  0
    8.3690  -13.4799   20.1049 C   0  0  2  0  0  0  0  0  0  0  0  0
    8.9954  -14.6219   19.4710 N   0  0  0  0  0  0  0  0  0  0  0  0
    7.7629  -13.9228   21.3670 C   0  0  0  0  0  0  0  0  0  0  0  0
    6.9885  -13.1833   22.0159 O   0  0  0  0  0  0  0  0  0  0  0  0
    5.5444  -18.3125   22.2154 N   0  0  0  0  0  0  0  0  0  0  0  0
    6.8971  -17.9070   22.2147 C   0  0  0  0  0  0  0  0  0  0  0  0
    7.5867  -18.2050   21.2007 O   0  0  0  0  0  0  0  0  0  0  0  0
    7.5829  -17.1699   23.2818 C   0  0  0  0  0  0  0  0  0  0  0  0
    7.4529  -15.6682   23.1859 C   0  0  2  0  0  0  0  0  0  0  0  0
    8.0182  -15.2234   21.9332 N   0  0  0  0  0  0  0  0  0  0  0  0
    8.2114  -15.0811   24.3500 C   0  0  0  0  0  0  0  0  0  0  0  0
    9.4656  -15.1050   24.3538 O   0  0  0  0  0  0  0  0  0  0  0  0
    7.5661  -14.4894   25.4671 N   0  0  0  0  0  0  0  0  0  0  0  0
    8.2960  -13.9004   26.5726 C   0  0  1  0  0  0  0  0  0  0  0  0
    7.4596  -12.8690   27.2988 C   0  0  0  0  0  0  0  0  0  0  0  0
    6.5414  -11.8217   26.1525 S   0  0  0  0  0  0  0  0  0  0  0  0
    8.7593  -14.9739   27.4978 C   0  0  0  0  0  0  0  0  0  0  0  0
    9.6185  -14.7017   28.5541 O   0  0  0  0  0  0  0  0  0  0  0  0
    8.3875  -16.1663   27.3539 O   0  0  0  0  0  0  0  0  0  0  0  0
  2  1  1  6
  2  4  1  0
  3  2  1  0
  4  5  2  0
  6  7  1  0
  7  9  1  0
  8  7  2  0
 10  9  1  6
 11 10  1  0
 11  4  1  0
 12 10  1  0
 12 14  1  0
 13 12  2  0
 15 14  1  0
 15 16  1  1
 17 16  1  0
 18 15  1  0
 19 18  1  0
 20 18  2  0
M  END
$$$$
