ANC.pdb
     RDKit          3D

 20 19  0  0  1  0  0  0  0  0999 V2000
    8.2976  -12.1820   19.5677 C   0  0  0  0  0  0  0  0  0  0  0  0
    8.4826  -13.6495   19.2592 C   0  0  2  0  0  0  0  0  0  0  0  0
    7.7165  -14.0755   18.1059 N   0  0  0  0  0  0  0  0  0  0  0  0
    8.0658  -14.4515   20.4165 C   0  0  0  0  0  0  0  0  0  0  0  0
    6.8850  -14.8469   20.5474 O   0  0  0  0  0  0  0  0  0  0  0  0
   10.1549  -18.2399   20.6955 N   0  0  0  0  0  0  0  0  0  0  0  0
    9.3016  -17.8754   21.7600 C   0  0  0  0  0  0  0  0  0  0  0  0
    8.2334  -18.5340   21.8928 O   0  0  0  0  0  0  0  0  0  0  0  0
    9.5359  -16.8011   22.7314 C   0  0  0  0  0  0  0  0  0  0  0  0
    8.5924  -15.6286   22.6047 C   0  0  2  0  0  0  0  0  0  0  0  0
    8.9797  -14.8307   21.4644 N   0  0  0  0  0  0  0  0  0  0  0  0
    8.7055  -14.8274   23.8776 C   0  0  0  0  0  0  0  0  0  0  0  0
    9.8115  -14.3384   24.2113 O   0  0  0  0  0  0  0  0  0  0  0  0
    7.6013  -14.5920   24.7377 N   0  0  0  0  0  0  0  0  0  0  0  0
    7.7070  -13.8076   25.9523 C   0  0  1  0  0  0  0  0  0  0  0  0
    6.3706  -13.2152   26.3445 C   0  0  0  0  0  0  0  0  0  0  0  0
    6.5172  -11.4789   26.8110 S   0  0  0  0  0  0  0  0  0  0  0  0
    8.2708  -14.6490   27.0465 C   0  0  0  0  0  0  0  0  0  0  0  0
    8.9902  -14.0908   28.0948 O   0  0  0  0  0  0  0  0  0  0  0  0
    8.1144  -15.8964   27.0586 O   0  0  0  0  0  0  0  0  0  0  0  0
  2  1  1  1
  2  4  1  0
  3  2  1  0
  4  5  2  0
  6  7  1  0
  7  9  1  0
  8  7  2  0
 10  9  1  1
 11 10  1  0
 11  4  1  0
 12 10  1  0
 12 14  1  0
 13 12  2  0
 15 14  1  0
 15 16  1  1
 17 16  1  0
 18 15  1  0
 19 18  1  0
 20 18  2  0
M  END
$$$$
