ANC.pdb
     RDKit          3D

 20 19  0  0  1  0  0  0  0  0999 V2000
    6.9835  -18.6357   16.8417 C   0  0  0  0  0  0  0  0  0  0  0  0
    7.6743  -17.5108   17.5770 C   0  0  2  0  0  0  0  0  0  0  0  0
    9.0549  -17.3468   17.1702 N   0  0  0  0  0  0  0  0  0  0  0  0
    7.6431  -17.7752   19.0211 C   0  0  0  0  0  0  0  0  0  0  0  0
    6.5709  -18.0250   19.6176 O   0  0  0  0  0  0  0  0  0  0  0  0
    7.9227  -20.7804   20.6127 N   0  0  0  0  0  0  0  0  0  0  0  0
    9.2212  -20.5255   21.1056 C   0  0  0  0  0  0  0  0  0  0  0  0
   10.0031  -21.5111   21.2043 O   0  0  0  0  0  0  0  0  0  0  0  0
    9.7534  -19.2214   21.5162 C   0  0  0  0  0  0  0  0  0  0  0  0
    8.8280  -18.0579   21.2498 C   0  0  2  0  0  0  0  0  0  0  0  0
    8.8322  -17.7642   19.8354 N   0  0  0  0  0  0  0  0  0  0  0  0
    9.3518  -16.8837   22.0383 C   0  0  0  0  0  0  0  0  0  0  0  0
   10.5028  -16.4407   21.8084 O   0  0  0  0  0  0  0  0  0  0  0  0
    8.5939  -16.2385   23.0502 N   0  0  0  0  0  0  0  0  0  0  0  0
    9.1085  -15.1278   23.8270 C   0  0  1  0  0  0  0  0  0  0  0  0
    7.9876  -14.3260   24.4526 C   0  0  0  0  0  0  0  0  0  0  0  0
    6.8700  -13.6505   23.2082 S   0  0  0  0  0  0  0  0  0  0  0  0
   10.0572  -15.6337   24.8599 C   0  0  0  0  0  0  0  0  0  0  0  0
   10.8224  -14.7677   25.6297 O   0  0  0  0  0  0  0  0  0  0  0  0
   10.1983  -16.8651   25.0708 O   0  0  0  0  0  0  0  0  0  0  0  0
  2  1  1  6
  2  4  1  0
  3  2  1  0
  4  5  2  0
  6  7  1  0
  7  9  1  0
  8  7  2  0
 10  9  1  6
 11 10  1  0
 11  4  1  0
 12 10  1  0
 12 14  1  0
 13 12  2  0
 15 14  1  0
 15 16  1  1
 17 16  1  0
 18 15  1  0
 19 18  1  0
 20 18  2  0
M  END
$$$$
