MAF.pdb
     RDKit          3D

 25 25  0  0  1  0  0  0  0  0999 V2000
    8.3831  -12.2670   19.0372 C   0  0  0  0  0  0  0  0  0  0  0  0
    6.9629  -13.3911   19.2591 S   0  0  0  0  0  0  0  0  0  0  0  0
    7.3840  -15.0688   18.6763 C   0  0  0  0  0  0  0  0  0  0  0  0
    8.8354  -15.3035   18.9819 C   0  0  0  0  0  0  0  0  0  0  0  0
    9.1337  -16.5393   19.7575 C   0  0  2  0  0  0  0  0  0  0  0  0
    8.4654  -17.7033   19.1922 N   0  0  0  0  0  0  0  0  0  0  0  0
    8.7601  -16.3454   21.1771 C   0  0  0  0  0  0  0  0  0  0  0  0
    9.1735  -15.4193   21.9151 O   0  0  0  0  0  0  0  0  0  0  0  0
    6.7252  -18.3579   23.7233 C   0  0  0  0  0  0  0  0  0  0  0  0
    7.4974  -17.1341   23.2132 C   0  0  2  0  0  0  0  0  0  0  0  0
    7.8484  -17.2574   21.8372 N   0  0  0  0  0  0  0  0  0  0  0  0
    8.6369  -16.9459   24.1178 C   0  0  0  0  0  0  0  0  0  0  0  0
    9.7999  -17.3442   23.9181 O   0  0  0  0  0  0  0  0  0  0  0  0
    8.4219  -16.2498   25.3389 N   0  0  0  0  0  0  0  0  0  0  0  0
    9.5011  -15.9875   26.2773 C   0  0  1  0  0  0  0  0  0  0  0  0
    9.8276  -14.5558   26.4098 C   0  0  0  0  0  0  0  0  0  0  0  0
    8.6012  -13.7545   26.5185 C   0  0  0  0  0  0  0  0  0  0  0  0
    8.1508  -13.2668   27.7212 C   0  0  0  0  0  0  0  0  0  0  0  0
    7.0126  -12.5072   27.8586 C   0  0  0  0  0  0  0  0  0  0  0  0
    6.2646  -12.2085   26.7210 C   0  0  0  0  0  0  0  0  0  0  0  0
    6.6906  -12.6835   25.5018 C   0  0  0  0  0  0  0  0  0  0  0  0
    7.8380  -13.4426   25.4023 C   0  0  0  0  0  0  0  0  0  0  0  0
    9.1296  -16.5738   27.5706 C   0  0  0  0  0  0  0  0  0  0  0  0
   10.0724  -16.5332   28.6088 O   0  0  0  0  0  0  0  0  0  0  0  0
    8.0437  -17.1192   27.8631 O   0  0  0  0  0  0  0  0  0  0  0  0
  2  3  1  0
  2  1  1  0
  4  3  1  0
  5  4  1  0
  5  7  1  0
  5  6  1  6
  7 11  1  0
  7  8  2  0
 10  9  1  1
 10 12  1  0
 11 10  1  0
 12 14  1  0
 12 13  2  0
 14 15  1  0
 15 23  1  0
 15 16  1  1
 17 22  2  0
 17 16  1  0
 18 17  1  0
 19 20  1  0
 19 18  2  0
 20 21  2  0
 21 22  1  0
 23 24  1  0
 25 23  2  0
M  END
$$$$
