MAF.pdb
     RDKit          3D

 25 25  0  0  1  0  0  0  0  0999 V2000
    7.8769  -11.4011   20.8294 C   0  0  0  0  0  0  0  0  0  0  0  0
    7.8689  -12.6623   19.5106 S   0  0  0  0  0  0  0  0  0  0  0  0
    6.6233  -13.9475   19.8687 C   0  0  0  0  0  0  0  0  0  0  0  0
    7.0349  -14.6360   21.1382 C   0  0  0  0  0  0  0  0  0  0  0  0
    7.9537  -15.7956   20.9677 C   0  0  2  0  0  0  0  0  0  0  0  0
    7.3980  -16.7936   20.0643 N   0  0  0  0  0  0  0  0  0  0  0  0
    8.2691  -16.3866   22.2882 C   0  0  0  0  0  0  0  0  0  0  0  0
    7.4236  -16.7982   23.1183 O   0  0  0  0  0  0  0  0  0  0  0  0
   11.2282  -18.0235   23.8660 C   0  0  0  0  0  0  0  0  0  0  0  0
    9.9904  -17.1239   23.9780 C   0  0  2  0  0  0  0  0  0  0  0  0
    9.6414  -16.5347   22.7279 N   0  0  0  0  0  0  0  0  0  0  0  0
   10.2633  -16.1606   25.0502 C   0  0  0  0  0  0  0  0  0  0  0  0
   10.9219  -15.1098   24.9360 O   0  0  0  0  0  0  0  0  0  0  0  0
    9.7411  -16.4263   26.3458 N   0  0  0  0  0  0  0  0  0  0  0  0
   10.0415  -15.5773   27.4873 C   0  0  1  0  0  0  0  0  0  0  0  0
    8.8415  -15.0013   28.1215 C   0  0  0  0  0  0  0  0  0  0  0  0
    8.2409  -13.9777   27.2556 C   0  0  0  0  0  0  0  0  0  0  0  0
    7.1214  -14.2253   26.4992 C   0  0  0  0  0  0  0  0  0  0  0  0
    6.5283  -13.2892   25.6847 C   0  0  0  0  0  0  0  0  0  0  0  0
    7.0852  -12.0134   25.6137 C   0  0  0  0  0  0  0  0  0  0  0  0
    8.2074  -11.7355   26.3600 C   0  0  0  0  0  0  0  0  0  0  0  0
    8.7749  -12.7001   27.1663 C   0  0  0  0  0  0  0  0  0  0  0  0
   10.8266  -16.3659   28.4444 C   0  0  0  0  0  0  0  0  0  0  0  0
   11.4311  -15.6918   29.5161 O   0  0  0  0  0  0  0  0  0  0  0  0
   11.0250  -17.5997   28.4159 O   0  0  0  0  0  0  0  0  0  0  0  0
  2  3  1  0
  2  1  1  0
  4  3  1  0
  5  4  1  0
  5  7  1  0
  5  6  1  6
  7 11  1  0
  7  8  2  0
 10  9  1  6
 10 12  1  0
 11 10  1  0
 12 14  1  0
 12 13  2  0
 14 15  1  0
 15 23  1  0
 15 16  1  1
 17 22  2  0
 17 16  1  0
 18 17  1  0
 19 20  1  0
 19 18  2  0
 20 21  2  0
 21 22  1  0
 23 24  1  0
 25 23  2  0
M  END
$$$$
