MAF.pdb
     RDKit          3D

 25 25  0  0  1  0  0  0  0  0999 V2000
    4.4841  -21.6620   23.9076 C   0  0  0  0  0  0  0  0  0  0  0  0
    5.9184  -20.5508   23.7133 S   0  0  0  0  0  0  0  0  0  0  0  0
    6.0424  -19.9699   21.9874 C   0  0  0  0  0  0  0  0  0  0  0  0
    7.1482  -18.9557   21.9291 C   0  0  0  0  0  0  0  0  0  0  0  0
    7.2116  -18.1500   20.6783 C   0  0  2  0  0  0  0  0  0  0  0  0
    7.7029  -18.9373   19.5559 N   0  0  0  0  0  0  0  0  0  0  0  0
    8.0489  -16.9481   20.8953 C   0  0  0  0  0  0  0  0  0  0  0  0
    9.3013  -16.9173   20.8355 O   0  0  0  0  0  0  0  0  0  0  0  0
    7.3935  -13.2165   21.3363 C   0  0  0  0  0  0  0  0  0  0  0  0
    8.2158  -14.5027   21.4900 C   0  0  2  0  0  0  0  0  0  0  0  0
    7.4459  -15.6680   21.2057 N   0  0  0  0  0  0  0  0  0  0  0  0
    8.8006  -14.4724   22.8351 C   0  0  0  0  0  0  0  0  0  0  0  0
    9.5932  -13.6139   23.2663 O   0  0  0  0  0  0  0  0  0  0  0  0
    8.4480  -15.5037   23.7482 N   0  0  0  0  0  0  0  0  0  0  0  0
    8.9585  -15.5365   25.1092 C   0  0  1  0  0  0  0  0  0  0  0  0
    7.9018  -15.4520   26.1340 C   0  0  0  0  0  0  0  0  0  0  0  0
    7.4136  -14.0722   26.2596 C   0  0  0  0  0  0  0  0  0  0  0  0
    6.1238  -13.7214   25.9430 C   0  0  0  0  0  0  0  0  0  0  0  0
    5.6311  -12.4424   26.0562 C   0  0  0  0  0  0  0  0  0  0  0  0
    6.4784  -11.4360   26.5167 C   0  0  0  0  0  0  0  0  0  0  0  0
    7.7764  -11.7568   26.8416 C   0  0  0  0  0  0  0  0  0  0  0  0
    8.2357  -13.0514   26.7153 C   0  0  0  0  0  0  0  0  0  0  0  0
    9.7580  -16.7576   25.2640 C   0  0  0  0  0  0  0  0  0  0  0  0
    9.8274  -17.6431   24.1780 O   0  0  0  0  0  0  0  0  0  0  0  0
   10.4009  -17.1104   26.2762 O   0  0  0  0  0  0  0  0  0  0  0  0
  2  3  1  0
  2  1  1  0
  4  3  1  0
  5  4  1  0
  5  7  1  0
  5  6  1  6
  7 11  1  0
  7  8  2  0
 10  9  1  1
 10 12  1  0
 11 10  1  0
 12 14  1  0
 12 13  2  0
 14 15  1  0
 15 23  1  0
 15 16  1  1
 17 22  2  0
 17 16  1  0
 18 17  1  0
 19 20  1  0
 19 18  2  0
 20 21  2  0
 21 22  1  0
 23 24  1  0
 25 23  2  0
M  END
$$$$
