MAF.pdb
     RDKit          3D

 25 25  0  0  1  0  0  0  0  0999 V2000
    8.4944  -11.3803   19.0260 C   0  0  0  0  0  0  0  0  0  0  0  0
    8.2455  -12.3315   20.5633 S   0  0  0  0  0  0  0  0  0  0  0  0
    7.2753  -13.8404   20.2261 C   0  0  0  0  0  0  0  0  0  0  0  0
    7.1854  -14.6171   21.5081 C   0  0  0  0  0  0  0  0  0  0  0  0
    7.1372  -16.0978   21.3565 C   0  0  2  0  0  0  0  0  0  0  0  0
    5.8145  -16.5540   20.9522 N   0  0  0  0  0  0  0  0  0  0  0  0
    7.5644  -16.7473   22.6168 C   0  0  0  0  0  0  0  0  0  0  0  0
    6.8867  -16.7993   23.6709 O   0  0  0  0  0  0  0  0  0  0  0  0
   10.0874  -19.2629   23.7319 C   0  0  0  0  0  0  0  0  0  0  0  0
    9.3547  -17.9312   23.9415 C   0  0  2  0  0  0  0  0  0  0  0  0
    8.8557  -17.3960   22.7183 N   0  0  0  0  0  0  0  0  0  0  0  0
   10.2799  -17.0482   24.6601 C   0  0  0  0  0  0  0  0  0  0  0  0
   11.2878  -16.4993   24.1764 O   0  0  0  0  0  0  0  0  0  0  0  0
   10.0265  -16.7781   26.0330 N   0  0  0  0  0  0  0  0  0  0  0  0
   10.9242  -15.9649   26.8373 C   0  0  1  0  0  0  0  0  0  0  0  0
   10.8855  -14.5321   26.4917 C   0  0  0  0  0  0  0  0  0  0  0  0
    9.5126  -14.0167   26.5801 C   0  0  0  0  0  0  0  0  0  0  0  0
    8.5926  -14.2119   25.5788 C   0  0  0  0  0  0  0  0  0  0  0  0
    7.2980  -13.7511   25.6316 C   0  0  0  0  0  0  0  0  0  0  0  0
    6.8835  -13.0443   26.7593 C   0  0  0  0  0  0  0  0  0  0  0  0
    7.7829  -12.8326   27.7788 C   0  0  0  0  0  0  0  0  0  0  0  0
    9.0740  -13.3101   27.6909 C   0  0  0  0  0  0  0  0  0  0  0  0
   10.5911  -16.1841   28.2499 C   0  0  0  0  0  0  0  0  0  0  0  0
   11.4342  -15.6241   29.2214 O   0  0  0  0  0  0  0  0  0  0  0  0
    9.6192  -16.8281   28.7005 O   0  0  0  0  0  0  0  0  0  0  0  0
  2  3  1  0
  2  1  1  0
  4  3  1  0
  5  4  1  0
  5  7  1  0
  5  6  1  1
  7 11  1  0
  7  8  2  0
 10  9  1  6
 10 12  1  0
 11 10  1  0
 12 14  1  0
 12 13  2  0
 14 15  1  0
 15 23  1  0
 15 16  1  6
 17 22  2  0
 17 16  1  0
 18 17  1  0
 19 20  1  0
 19 18  2  0
 20 21  2  0
 21 22  1  0
 23 24  1  0
 25 23  2  0
M  END
$$$$
