MAF.pdb
     RDKit          3D

 25 25  0  0  1  0  0  0  0  0999 V2000
   13.4934  -18.5116   24.4223 C   0  0  0  0  0  0  0  0  0  0  0  0
   13.0029  -20.0393   23.5529 S   0  0  0  0  0  0  0  0  0  0  0  0
   11.7067  -19.6794   22.3194 C   0  0  0  0  0  0  0  0  0  0  0  0
   12.3813  -19.1010   21.1089 C   0  0  0  0  0  0  0  0  0  0  0  0
   11.4785  -18.7642   19.9734 C   0  0  2  0  0  0  0  0  0  0  0  0
   12.2287  -18.3775   18.7865 N   0  0  0  0  0  0  0  0  0  0  0  0
   10.5344  -17.6983   20.3798 C   0  0  0  0  0  0  0  0  0  0  0  0
   10.8534  -16.5216   20.6743 O   0  0  0  0  0  0  0  0  0  0  0  0
    6.7201  -17.4136   20.5752 C   0  0  0  0  0  0  0  0  0  0  0  0
    8.1641  -16.9505   20.8091 C   0  0  2  0  0  0  0  0  0  0  0  0
    9.1120  -17.9587   20.4676 N   0  0  0  0  0  0  0  0  0  0  0  0
    8.2401  -16.4890   22.1995 C   0  0  0  0  0  0  0  0  0  0  0  0
    8.7465  -17.1158   23.1491 O   0  0  0  0  0  0  0  0  0  0  0  0
    7.6944  -15.2154   22.5192 N   0  0  0  0  0  0  0  0  0  0  0  0
    7.6171  -14.7312   23.8880 C   0  0  1  0  0  0  0  0  0  0  0  0
    7.1510  -13.3361   23.9908 C   0  0  0  0  0  0  0  0  0  0  0  0
    7.0939  -12.9132   25.3965 C   0  0  0  0  0  0  0  0  0  0  0  0
    5.9122  -12.5787   26.0118 C   0  0  0  0  0  0  0  0  0  0  0  0
    5.8207  -12.1868   27.3269 C   0  0  0  0  0  0  0  0  0  0  0  0
    6.9859  -12.1208   28.0892 C   0  0  0  0  0  0  0  0  0  0  0  0
    8.1851  -12.4497   27.5002 C   0  0  0  0  0  0  0  0  0  0  0  0
    8.2382  -12.8388   26.1779 C   0  0  0  0  0  0  0  0  0  0  0  0
    6.7489  -15.6427   24.6428 C   0  0  0  0  0  0  0  0  0  0  0  0
    7.1819  -16.0714   25.9065 O   0  0  0  0  0  0  0  0  0  0  0  0
    5.6403  -16.0937   24.2822 O   0  0  0  0  0  0  0  0  0  0  0  0
  2  3  1  0
  2  1  1  0
  4  3  1  0
  5  4  1  0
  5  7  1  0
  5  6  1  6
  7 11  1  0
  7  8  2  0
 10  9  1  1
 10 12  1  0
 11 10  1  0
 12 14  1  0
 12 13  2  0
 14 15  1  0
 15 23  1  0
 15 16  1  6
 17 22  2  0
 17 16  1  0
 18 17  1  0
 19 20  1  0
 19 18  2  0
 20 21  2  0
 21 22  1  0
 23 24  1  0
 25 23  2  0
M  END
$$$$
