MAF.pdb
     RDKit          3D

 25 25  0  0  1  0  0  0  0  0999 V2000
    5.3330  -12.9489   25.8944 C   0  0  0  0  0  0  0  0  0  0  0  0
    5.9608  -14.4040   26.7993 S   0  0  0  0  0  0  0  0  0  0  0  0
    5.8466  -15.8978   25.7567 C   0  0  0  0  0  0  0  0  0  0  0  0
    6.6747  -15.6566   24.5274 C   0  0  0  0  0  0  0  0  0  0  0  0
    7.1026  -16.8803   23.7945 C   0  0  2  0  0  0  0  0  0  0  0  0
    6.2683  -18.0264   24.1285 N   0  0  0  0  0  0  0  0  0  0  0  0
    8.5302  -17.1597   24.0713 C   0  0  0  0  0  0  0  0  0  0  0  0
    8.9702  -18.1869   24.6408 O   0  0  0  0  0  0  0  0  0  0  0  0
   11.7589  -15.5959   22.7828 C   0  0  0  0  0  0  0  0  0  0  0  0
   10.9446  -16.5595   23.6559 C   0  0  2  0  0  0  0  0  0  0  0  0
    9.5608  -16.2186   23.6831 N   0  0  0  0  0  0  0  0  0  0  0  0
   11.5911  -16.5862   24.9725 C   0  0  0  0  0  0  0  0  0  0  0  0
   12.7920  -16.8345   25.1901 O   0  0  0  0  0  0  0  0  0  0  0  0
   10.7988  -16.3073   26.1198 N   0  0  0  0  0  0  0  0  0  0  0  0
   11.3110  -16.4753   27.4701 C   0  0  1  0  0  0  0  0  0  0  0  0
   11.1068  -15.2922   28.3260 C   0  0  0  0  0  0  0  0  0  0  0  0
   10.2388  -14.3143   27.6565 C   0  0  0  0  0  0  0  0  0  0  0  0
   10.7133  -13.4496   26.7003 C   0  0  0  0  0  0  0  0  0  0  0  0
    9.9283  -12.5279   26.0479 C   0  0  0  0  0  0  0  0  0  0  0  0
    8.5731  -12.4568   26.3660 C   0  0  0  0  0  0  0  0  0  0  0  0
    8.0686  -13.3101   27.3204 C   0  0  0  0  0  0  0  0  0  0  0  0
    8.8865  -14.2223   27.9541 C   0  0  0  0  0  0  0  0  0  0  0  0
   10.6823  -17.6691   28.0480 C   0  0  0  0  0  0  0  0  0  0  0  0
   11.0468  -18.0421   29.3504 O   0  0  0  0  0  0  0  0  0  0  0  0
    9.8385  -18.4118   27.5015 O   0  0  0  0  0  0  0  0  0  0  0  0
  2  3  1  0
  2  1  1  0
  4  3  1  0
  5  4  1  0
  5  7  1  0
  5  6  1  1
  7 11  1  0
  7  8  2  0
 10  9  1  6
 10 12  1  0
 11 10  1  0
 12 14  1  0
 12 13  2  0
 14 15  1  0
 15 23  1  0
 15 16  1  1
 17 22  2  0
 17 16  1  0
 18 17  1  0
 19 20  1  0
 19 18  2  0
 20 21  2  0
 21 22  1  0
 23 24  1  0
 25 23  2  0
M  END
$$$$
