MAF.pdb
     RDKit          3D

 25 25  0  0  1  0  0  0  0  0999 V2000
    0.4185  -19.5651   22.2118 C   0  0  0  0  0  0  0  0  0  0  0  0
    2.0575  -18.7726   22.3373 S   0  0  0  0  0  0  0  0  0  0  0  0
    3.3634  -19.9252   21.7914 C   0  0  0  0  0  0  0  0  0  0  0  0
    4.6830  -19.2306   21.9672 C   0  0  0  0  0  0  0  0  0  0  0  0
    4.6421  -17.7453   21.8669 C   0  0  2  0  0  0  0  0  0  0  0  0
    3.9824  -17.3070   20.6447 N   0  0  0  0  0  0  0  0  0  0  0  0
    6.0142  -17.1963   21.9600 C   0  0  0  0  0  0  0  0  0  0  0  0
    6.9626  -17.7198   22.5922 O   0  0  0  0  0  0  0  0  0  0  0  0
    7.7990  -14.1186   20.5251 C   0  0  0  0  0  0  0  0  0  0  0  0
    7.6500  -15.3525   21.4248 C   0  0  2  0  0  0  0  0  0  0  0  0
    6.3666  -15.9587   21.2945 N   0  0  0  0  0  0  0  0  0  0  0  0
    7.9864  -14.9254   22.7874 C   0  0  0  0  0  0  0  0  0  0  0  0
    7.6368  -13.8572   23.3238 O   0  0  0  0  0  0  0  0  0  0  0  0
    8.7818  -15.7896   23.5889 N   0  0  0  0  0  0  0  0  0  0  0  0
    9.0245  -15.5276   24.9984 C   0  0  1  0  0  0  0  0  0  0  0  0
    7.7928  -15.4875   25.8078 C   0  0  0  0  0  0  0  0  0  0  0  0
    7.4117  -14.0991   26.0996 C   0  0  0  0  0  0  0  0  0  0  0  0
    6.5559  -13.3908   25.2915 C   0  0  0  0  0  0  0  0  0  0  0  0
    6.1715  -12.0936   25.5384 C   0  0  0  0  0  0  0  0  0  0  0  0
    6.6717  -11.4499   26.6690 C   0  0  0  0  0  0  0  0  0  0  0  0
    7.5315  -12.1338   27.4975 C   0  0  0  0  0  0  0  0  0  0  0  0
    7.8949  -13.4347   27.2179 C   0  0  0  0  0  0  0  0  0  0  0  0
    9.9582  -16.5458   25.4943 C   0  0  0  0  0  0  0  0  0  0  0  0
   10.7603  -16.2234   26.5993 O   0  0  0  0  0  0  0  0  0  0  0  0
   10.1270  -17.6962   25.0356 O   0  0  0  0  0  0  0  0  0  0  0  0
  2  3  1  0
  2  1  1  0
  4  3  1  0
  5  4  1  0
  5  7  1  0
  5  6  1  6
  7 11  1  0
  7  8  2  0
 10  9  1  6
 10 12  1  0
 11 10  1  0
 12 14  1  0
 12 13  2  0
 14 15  1  0
 15 23  1  0
 15 16  1  1
 17 22  2  0
 17 16  1  0
 18 17  1  0
 19 20  1  0
 19 18  2  0
 20 21  2  0
 21 22  1  0
 23 24  1  0
 25 23  2  0
M  END
$$$$
