MAF.pdb
     RDKit          3D

 25 25  0  0  1  0  0  0  0  0999 V2000
    1.8613  -20.9628   20.8629 C   0  0  0  0  0  0  0  0  0  0  0  0
    2.2419  -19.2986   20.2181 S   0  0  0  0  0  0  0  0  0  0  0  0
    3.3715  -18.4215   21.3522 C   0  0  0  0  0  0  0  0  0  0  0  0
    4.4304  -19.3963   21.7806 C   0  0  0  0  0  0  0  0  0  0  0  0
    5.4506  -18.8590   22.7230 C   0  0  2  0  0  0  0  0  0  0  0  0
    4.8335  -18.1663   23.8457 N   0  0  0  0  0  0  0  0  0  0  0  0
    6.3884  -17.9717   21.9977 C   0  0  0  0  0  0  0  0  0  0  0  0
    7.2800  -18.3547   21.2031 O   0  0  0  0  0  0  0  0  0  0  0  0
    6.7648  -14.2529   21.3676 C   0  0  0  0  0  0  0  0  0  0  0  0
    7.3225  -15.6573   21.6338 C   0  0  2  0  0  0  0  0  0  0  0  0
    6.3336  -16.5341   22.1676 N   0  0  0  0  0  0  0  0  0  0  0  0
    8.5076  -15.4878   22.4817 C   0  0  0  0  0  0  0  0  0  0  0  0
    9.6511  -15.1928   22.0859 O   0  0  0  0  0  0  0  0  0  0  0  0
    8.3661  -15.6712   23.8846 N   0  0  0  0  0  0  0  0  0  0  0  0
    9.4967  -15.5703   24.7934 C   0  0  1  0  0  0  0  0  0  0  0  0
    9.7502  -14.1959   25.2633 C   0  0  0  0  0  0  0  0  0  0  0  0
    8.5278  -13.6102   25.8295 C   0  0  0  0  0  0  0  0  0  0  0  0
    8.4534  -13.1960   27.1372 C   0  0  0  0  0  0  0  0  0  0  0  0
    7.3292  -12.6364   27.6977 C   0  0  0  0  0  0  0  0  0  0  0  0
    6.1941  -12.4752   26.9048 C   0  0  0  0  0  0  0  0  0  0  0  0
    6.2382  -12.8810   25.5908 C   0  0  0  0  0  0  0  0  0  0  0  0
    7.3841  -13.4383   25.0627 C   0  0  0  0  0  0  0  0  0  0  0  0
    9.2582  -16.4847   25.9165 C   0  0  0  0  0  0  0  0  0  0  0  0
    8.1000  -17.2759   25.8889 O   0  0  0  0  0  0  0  0  0  0  0  0
    9.9848  -16.6452   26.9208 O   0  0  0  0  0  0  0  0  0  0  0  0
  2  3  1  0
  2  1  1  0
  4  3  1  0
  5  4  1  0
  5  7  1  0
  5  6  1  1
  7 11  1  0
  7  8  2  0
 10  9  1  1
 10 12  1  0
 11 10  1  0
 12 14  1  0
 12 13  2  0
 14 15  1  0
 15 23  1  0
 15 16  1  1
 17 22  2  0
 17 16  1  0
 18 17  1  0
 19 20  1  0
 19 18  2  0
 20 21  2  0
 21 22  1  0
 23 24  1  0
 25 23  2  0
M  END
$$$$
