FEW.pdb
     RDKit          3D

 35 37  0  0  1  0  0  0  0  0999 V2000
   32.2854  -23.7172  -17.2175 N   0  0  0  0  0  0  0  0  0  0  0  0
   31.1488  -24.1723  -16.4561 C   0  0  1  0  0  0  0  0  0  0  0  0
   31.5031  -24.3026  -14.9718 C   0  0  0  0  0  0  0  0  0  0  0  0
   32.6860  -25.1855  -14.7977 C   0  0  0  0  0  0  0  0  0  0  0  0
   32.7350  -26.4295  -15.3910 C   0  0  0  0  0  0  0  0  0  0  0  0
   33.8371  -27.2500  -15.2287 C   0  0  0  0  0  0  0  0  0  0  0  0
   34.9250  -26.8457  -14.4646 C   0  0  0  0  0  0  0  0  0  0  0  0
   34.8896  -25.6154  -13.8710 C   0  0  0  0  0  0  0  0  0  0  0  0
   33.7881  -24.8099  -14.0405 C   0  0  0  0  0  0  0  0  0  0  0  0
   30.0864  -23.1093  -16.5097 C   0  0  0  0  0  0  0  0  0  0  0  0
   30.4140  -21.8895  -16.5680 O   0  0  0  0  0  0  0  0  0  0  0  0
   28.7105  -23.4378  -16.4969 N   0  0  0  0  0  0  0  0  0  0  0  0
   27.6920  -22.3547  -16.5527 C   0  0  1  0  0  0  0  0  0  0  0  0
   27.2162  -22.2517  -17.9720 C   0  0  0  0  0  0  0  0  0  0  0  0
   26.2838  -23.2857  -18.4576 C   0  0  0  0  0  0  0  0  0  0  0  0
   26.4120  -23.3739  -19.9625 C   0  0  0  0  0  0  0  0  0  0  0  0
   26.2707  -22.3761  -20.7093 O   0  0  0  0  0  0  0  0  0  0  0  0
   26.6524  -22.6466  -15.5586 C   0  0  0  0  0  0  0  0  0  0  0  0
   26.2413  -23.8443  -15.3546 O   0  0  0  0  0  0  0  0  0  0  0  0
   26.6947  -24.5947  -20.5413 O   0  0  0  0  0  0  0  0  0  0  0  0
   26.0309  -21.6684  -14.7561 N   0  0  0  0  0  0  0  0  0  0  0  0
   25.0108  -22.0113  -13.7587 C   0  0  1  0  0  0  0  0  0  0  0  0
   25.6035  -21.8028  -12.3583 C   0  0  0  0  0  0  0  0  0  0  0  0
   26.6088  -20.7103  -12.3915 C   0  0  0  0  0  0  0  0  0  0  0  0
   26.4695  -19.4298  -12.9395 C   0  0  0  0  0  0  0  0  0  0  0  0
   27.6207  -18.7524  -12.7568 N   0  0  0  0  0  0  0  0  0  0  0  0
   28.5151  -19.5228  -12.1143 C   0  0  0  0  0  0  0  0  0  0  0  0
   29.8103  -19.2857  -11.7062 C   0  0  0  0  0  0  0  0  0  0  0  0
   30.5235  -20.2751  -11.0494 C   0  0  0  0  0  0  0  0  0  0  0  0
   29.8918  -21.4662  -10.8334 C   0  0  0  0  0  0  0  0  0  0  0  0
   28.6117  -21.6998  -11.2369 C   0  0  0  0  0  0  0  0  0  0  0  0
   27.8939  -20.7299  -11.8880 C   0  0  0  0  0  0  0  0  0  0  0  0
   23.8686  -21.0688  -13.8754 C   0  0  0  0  0  0  0  0  0  0  0  0
   22.6887  -21.2311  -13.1758 O   0  0  0  0  0  0  0  0  0  0  0  0
   23.9323  -20.0655  -14.6314 O   0  0  0  0  0  0  0  0  0  0  0  0
  2  1  1  6
  2  3  1  0
  3  4  1  0
  4  9  1  0
  5  4  2  0
  5  6  1  0
  6  7  2  0
  7  8  1  0
  9  8  2  0
 10 11  2  0
 10  2  1  0
 12 10  1  0
 13 12  1  0
 13 14  1  6
 15 14  1  0
 16 15  1  0
 17 16  2  0
 18 13  1  0
 19 18  2  0
 20 16  1  0
 21 18  1  0
 22 21  1  0
 22 23  1  1
 23 24  1  0
 24 25  2  0
 24 32  1  0
 25 26  1  0
 26 27  1  0
 27 28  2  0
 28 29  1  0
 30 29  2  0
 31 30  1  0
 32 31  2  0
 32 27  1  0
 33 22  1  0
 34 33  1  0
 35 33  2  0
M  END
$$$$
