FEW.pdb
     RDKit          3D

 35 37  0  0  1  0  0  0  0  0999 V2000
   25.5128  -16.6918  -16.5770 N   0  0  0  0  0  0  0  0  0  0  0  0
   26.4579  -17.6721  -16.1033 C   0  0  1  0  0  0  0  0  0  0  0  0
   27.4578  -17.0404  -15.1302 C   0  0  0  0  0  0  0  0  0  0  0  0
   28.4110  -16.1663  -15.8627 C   0  0  0  0  0  0  0  0  0  0  0  0
   29.5053  -16.6986  -16.5115 C   0  0  0  0  0  0  0  0  0  0  0  0
   30.3913  -15.8837  -17.1935 C   0  0  0  0  0  0  0  0  0  0  0  0
   30.2051  -14.5077  -17.2448 C   0  0  0  0  0  0  0  0  0  0  0  0
   29.1248  -13.9670  -16.6063 C   0  0  0  0  0  0  0  0  0  0  0  0
   28.2520  -14.7883  -15.9321 C   0  0  0  0  0  0  0  0  0  0  0  0
   25.7132  -18.6921  -15.2868 C   0  0  0  0  0  0  0  0  0  0  0  0
   24.6945  -18.3487  -14.6213 O   0  0  0  0  0  0  0  0  0  0  0  0
   26.1242  -20.0449  -15.2402 N   0  0  0  0  0  0  0  0  0  0  0  0
   25.2651  -21.0550  -14.5655 C   0  0  1  0  0  0  0  0  0  0  0  0
   25.2838  -22.2995  -15.4037 C   0  0  0  0  0  0  0  0  0  0  0  0
   26.4453  -23.1978  -15.2685 C   0  0  0  0  0  0  0  0  0  0  0  0
   27.1209  -23.3093  -16.6176 C   0  0  0  0  0  0  0  0  0  0  0  0
   28.1637  -23.9836  -16.7941 O   0  0  0  0  0  0  0  0  0  0  0  0
   25.7389  -21.2168  -13.1858 C   0  0  0  0  0  0  0  0  0  0  0  0
   26.9654  -21.4909  -12.9290 O   0  0  0  0  0  0  0  0  0  0  0  0
   26.5744  -22.6468  -17.6982 O   0  0  0  0  0  0  0  0  0  0  0  0
   24.9167  -21.0851  -12.0484 N   0  0  0  0  0  0  0  0  0  0  0  0
   25.3897  -21.4228  -10.7011 C   0  0  1  0  0  0  0  0  0  0  0  0
   26.5709  -20.5071  -10.3514 C   0  0  0  0  0  0  0  0  0  0  0  0
   26.5966  -20.2501   -8.8891 C   0  0  0  0  0  0  0  0  0  0  0  0
   25.5174  -19.9498   -8.0496 C   0  0  0  0  0  0  0  0  0  0  0  0
   25.9775  -19.7894   -6.7926 N   0  0  0  0  0  0  0  0  0  0  0  0
   27.3091  -19.9690   -6.7596 C   0  0  0  0  0  0  0  0  0  0  0  0
   28.2211  -19.9114   -5.7275 C   0  0  0  0  0  0  0  0  0  0  0  0
   29.5645  -20.1424   -5.9743 C   0  0  0  0  0  0  0  0  0  0  0  0
   29.9274  -20.4226   -7.2605 C   0  0  0  0  0  0  0  0  0  0  0  0
   29.0256  -20.4794   -8.2800 C   0  0  0  0  0  0  0  0  0  0  0  0
   27.6929  -20.2530   -8.0504 C   0  0  0  0  0  0  0  0  0  0  0  0
   24.3213  -21.1252   -9.7130 C   0  0  0  0  0  0  0  0  0  0  0  0
   23.1551  -20.4641  -10.0464 O   0  0  0  0  0  0  0  0  0  0  0  0
   24.4390  -21.4705   -8.5092 O   0  0  0  0  0  0  0  0  0  0  0  0
  2  1  1  1
  2  3  1  0
  3  4  1  0
  4  9  1  0
  5  4  2  0
  5  6  1  0
  6  7  2  0
  7  8  1  0
  9  8  2  0
 10 11  2  0
 10  2  1  0
 12 10  1  0
 13 12  1  0
 13 14  1  6
 15 14  1  0
 16 15  1  0
 17 16  2  0
 18 13  1  0
 19 18  2  0
 20 16  1  0
 21 18  1  0
 22 21  1  0
 22 23  1  1
 23 24  1  0
 24 25  2  0
 24 32  1  0
 25 26  1  0
 26 27  1  0
 27 28  2  0
 28 29  1  0
 30 29  2  0
 31 30  1  0
 32 31  2  0
 32 27  1  0
 33 22  1  0
 34 33  1  0
 35 33  2  0
M  END
$$$$
