FEW.pdb
     RDKit          3D

 35 37  0  0  1  0  0  0  0  0999 V2000
   17.7691  -21.8752  -16.2953 N   0  0  0  0  0  0  0  0  0  0  0  0
   18.6517  -22.4594  -15.3164 C   0  0  1  0  0  0  0  0  0  0  0  0
   19.9753  -21.6919  -15.2479 C   0  0  0  0  0  0  0  0  0  0  0  0
   20.7225  -21.8341  -16.5248 C   0  0  0  0  0  0  0  0  0  0  0  0
   21.4031  -22.9962  -16.8217 C   0  0  0  0  0  0  0  0  0  0  0  0
   22.0977  -23.1274  -18.0111 C   0  0  0  0  0  0  0  0  0  0  0  0
   22.1300  -22.0942  -18.9397 C   0  0  0  0  0  0  0  0  0  0  0  0
   21.4599  -20.9371  -18.6582 C   0  0  0  0  0  0  0  0  0  0  0  0
   20.7735  -20.8199  -17.4724 C   0  0  0  0  0  0  0  0  0  0  0  0
   18.0320  -22.2866  -13.9570 C   0  0  0  0  0  0  0  0  0  0  0  0
   17.8827  -21.1285  -13.4722 O   0  0  0  0  0  0  0  0  0  0  0  0
   17.6045  -23.3976  -13.1928 N   0  0  0  0  0  0  0  0  0  0  0  0
   16.8588  -23.1784  -11.9241 C   0  0  1  0  0  0  0  0  0  0  0  0
   15.3938  -23.2550  -12.2395 C   0  0  0  0  0  0  0  0  0  0  0  0
   14.8606  -22.3172  -13.2448 C   0  0  0  0  0  0  0  0  0  0  0  0
   13.9797  -21.3108  -12.5375 C   0  0  0  0  0  0  0  0  0  0  0  0
   13.3525  -21.5869  -11.4870 O   0  0  0  0  0  0  0  0  0  0  0  0
   17.3416  -24.1457  -10.9315 C   0  0  0  0  0  0  0  0  0  0  0  0
   17.4974  -25.3841  -11.2271 O   0  0  0  0  0  0  0  0  0  0  0  0
   13.8575  -20.0402  -13.0627 O   0  0  0  0  0  0  0  0  0  0  0  0
   17.6739  -23.8136   -9.6024 N   0  0  0  0  0  0  0  0  0  0  0  0
   18.0561  -24.8311   -8.6168 C   0  0  1  0  0  0  0  0  0  0  0  0
   18.2529  -24.1478   -7.2565 C   0  0  0  0  0  0  0  0  0  0  0  0
   18.2784  -25.1670   -6.1769 C   0  0  0  0  0  0  0  0  0  0  0  0
   19.2493  -26.1479   -5.9429 C   0  0  0  0  0  0  0  0  0  0  0  0
   18.8881  -26.8660   -4.8606 N   0  0  0  0  0  0  0  0  0  0  0  0
   17.7250  -26.4077   -4.3671 C   0  0  0  0  0  0  0  0  0  0  0  0
   16.9613  -26.8044   -3.2902 C   0  0  0  0  0  0  0  0  0  0  0  0
   15.7786  -26.1453   -2.9973 C   0  0  0  0  0  0  0  0  0  0  0  0
   15.4192  -25.1091   -3.8108 C   0  0  0  0  0  0  0  0  0  0  0  0
   16.1745  -24.7176   -4.8748 C   0  0  0  0  0  0  0  0  0  0  0  0
   17.3473  -25.3607   -5.1765 C   0  0  0  0  0  0  0  0  0  0  0  0
   16.9400  -25.7960   -8.4440 C   0  0  0  0  0  0  0  0  0  0  0  0
   17.1418  -27.1498   -8.2582 O   0  0  0  0  0  0  0  0  0  0  0  0
   15.7429  -25.4103   -8.4605 O   0  0  0  0  0  0  0  0  0  0  0  0
  2  1  1  6
  2  3  1  0
  3  4  1  0
  4  9  1  0
  5  4  2  0
  5  6  1  0
  6  7  2  0
  7  8  1  0
  9  8  2  0
 10 11  2  0
 10  2  1  0
 12 10  1  0
 13 12  1  0
 13 14  1  6
 15 14  1  0
 16 15  1  0
 17 16  2  0
 18 13  1  0
 19 18  2  0
 20 16  1  0
 21 18  1  0
 22 21  1  0
 22 23  1  1
 23 24  1  0
 24 25  2  0
 24 32  1  0
 25 26  1  0
 26 27  1  0
 27 28  2  0
 28 29  1  0
 30 29  2  0
 31 30  1  0
 32 31  2  0
 32 27  1  0
 33 22  1  0
 34 33  1  0
 35 33  2  0
M  END
$$$$
