FEW.pdb
     RDKit          3D

 35 37  0  0  1  0  0  0  0  0999 V2000
   28.7569  -21.2681   -9.1282 N   0  0  0  0  0  0  0  0  0  0  0  0
   27.3466  -20.9703   -9.0995 C   0  0  1  0  0  0  0  0  0  0  0  0
   27.0831  -19.6451   -8.3783 C   0  0  0  0  0  0  0  0  0  0  0  0
   27.5498  -19.7212   -6.9692 C   0  0  0  0  0  0  0  0  0  0  0  0
   28.6379  -18.9891   -6.5428 C   0  0  0  0  0  0  0  0  0  0  0  0
   29.0707  -19.0603   -5.2306 C   0  0  0  0  0  0  0  0  0  0  0  0
   28.4231  -19.8699   -4.3055 C   0  0  0  0  0  0  0  0  0  0  0  0
   27.3434  -20.6007   -4.7146 C   0  0  0  0  0  0  0  0  0  0  0  0
   26.9237  -20.5207   -6.0216 C   0  0  0  0  0  0  0  0  0  0  0  0
   26.8817  -20.7429  -10.5115 C   0  0  0  0  0  0  0  0  0  0  0  0
   27.5775  -20.0431  -11.3019 O   0  0  0  0  0  0  0  0  0  0  0  0
   25.6710  -21.2968  -10.9895 N   0  0  0  0  0  0  0  0  0  0  0  0
   25.3896  -21.3074  -12.4505 C   0  0  1  0  0  0  0  0  0  0  0  0
   25.3886  -22.7383  -12.9022 C   0  0  0  0  0  0  0  0  0  0  0  0
   25.0162  -23.0134  -14.3022 C   0  0  0  0  0  0  0  0  0  0  0  0
   25.0754  -24.5085  -14.5259 C   0  0  0  0  0  0  0  0  0  0  0  0
   24.8606  -25.0301  -15.6462 O   0  0  0  0  0  0  0  0  0  0  0  0
   24.1423  -20.5708  -12.6861 C   0  0  0  0  0  0  0  0  0  0  0  0
   23.1560  -20.6497  -11.8698 O   0  0  0  0  0  0  0  0  0  0  0  0
   25.3765  -25.3345  -13.4619 O   0  0  0  0  0  0  0  0  0  0  0  0
   23.9199  -19.7293  -13.7950 N   0  0  0  0  0  0  0  0  0  0  0  0
   22.5993  -19.1628  -14.0915 C   0  0  1  0  0  0  0  0  0  0  0  0
   22.6657  -18.4451  -15.4466 C   0  0  0  0  0  0  0  0  0  0  0  0
   21.3601  -17.8036  -15.7444 C   0  0  0  0  0  0  0  0  0  0  0  0
   20.5788  -17.0095  -14.8967 C   0  0  0  0  0  0  0  0  0  0  0  0
   19.4687  -16.6289  -15.5602 N   0  0  0  0  0  0  0  0  0  0  0  0
   19.4775  -17.1329  -16.8062 C   0  0  0  0  0  0  0  0  0  0  0  0
   18.5812  -17.0287  -17.8483 C   0  0  0  0  0  0  0  0  0  0  0  0
   18.8401  -17.6619  -19.0529 C   0  0  0  0  0  0  0  0  0  0  0  0
   19.9999  -18.3760  -19.1501 C   0  0  0  0  0  0  0  0  0  0  0  0
   20.8853  -18.4786  -18.1199 C   0  0  0  0  0  0  0  0  0  0  0  0
   20.6421  -17.8572  -16.9220 C   0  0  0  0  0  0  0  0  0  0  0  0
   21.6131  -20.2627  -14.2472 C   0  0  0  0  0  0  0  0  0  0  0  0
   20.3149  -20.1763  -13.7831 O   0  0  0  0  0  0  0  0  0  0  0  0
   21.9279  -21.3378  -14.8191 O   0  0  0  0  0  0  0  0  0  0  0  0
  2  1  1  6
  2  3  1  0
  3  4  1  0
  4  9  1  0
  5  4  2  0
  5  6  1  0
  6  7  2  0
  7  8  1  0
  9  8  2  0
 10 11  2  0
 10  2  1  0
 12 10  1  0
 13 12  1  0
 13 14  1  1
 15 14  1  0
 16 15  1  0
 17 16  2  0
 18 13  1  0
 19 18  2  0
 20 16  1  0
 21 18  1  0
 22 21  1  0
 22 23  1  6
 23 24  1  0
 24 25  2  0
 24 32  1  0
 25 26  1  0
 26 27  1  0
 27 28  2  0
 28 29  1  0
 30 29  2  0
 31 30  1  0
 32 31  2  0
 32 27  1  0
 33 22  1  0
 34 33  1  0
 35 33  2  0
M  END
$$$$
