FEW.pdb
     RDKit          3D

 35 37  0  0  1  0  0  0  0  0999 V2000
   23.0704  -23.9466  -17.6399 N   0  0  0  0  0  0  0  0  0  0  0  0
   22.8116  -22.7806  -16.8324 C   0  0  1  0  0  0  0  0  0  0  0  0
   21.6411  -23.0279  -15.8761 C   0  0  0  0  0  0  0  0  0  0  0  0
   20.3481  -22.9103  -16.5995 C   0  0  0  0  0  0  0  0  0  0  0  0
   19.8278  -23.9790  -17.2988 C   0  0  0  0  0  0  0  0  0  0  0  0
   18.6236  -23.8683  -17.9711 C   0  0  0  0  0  0  0  0  0  0  0  0
   17.9045  -22.6793  -17.9617 C   0  0  0  0  0  0  0  0  0  0  0  0
   18.4086  -21.6124  -17.2728 C   0  0  0  0  0  0  0  0  0  0  0  0
   19.6065  -21.7360  -16.6088 C   0  0  0  0  0  0  0  0  0  0  0  0
   23.9998  -22.5493  -15.9399 C   0  0  0  0  0  0  0  0  0  0  0  0
   24.7162  -23.5249  -15.5745 O   0  0  0  0  0  0  0  0  0  0  0  0
   24.3454  -21.2534  -15.4902 N   0  0  0  0  0  0  0  0  0  0  0  0
   25.5769  -21.0572  -14.6786 C   0  0  1  0  0  0  0  0  0  0  0  0
   26.1938  -19.7551  -15.0972 C   0  0  0  0  0  0  0  0  0  0  0  0
   27.4100  -19.3153  -14.3887 C   0  0  0  0  0  0  0  0  0  0  0  0
   28.6049  -19.9812  -15.0350 C   0  0  0  0  0  0  0  0  0  0  0  0
   28.8300  -19.9102  -16.2669 O   0  0  0  0  0  0  0  0  0  0  0  0
   25.2155  -21.1565  -13.2596 C   0  0  0  0  0  0  0  0  0  0  0  0
   24.1052  -20.6892  -12.8192 O   0  0  0  0  0  0  0  0  0  0  0  0
   29.4836  -20.6948  -14.2452 O   0  0  0  0  0  0  0  0  0  0  0  0
   26.0279  -21.7607  -12.2786 N   0  0  0  0  0  0  0  0  0  0  0  0
   25.7023  -21.6970  -10.8494 C   0  0  1  0  0  0  0  0  0  0  0  0
   26.9711  -22.0054  -10.0425 C   0  0  0  0  0  0  0  0  0  0  0  0
   27.1470  -20.9941   -8.9694 C   0  0  0  0  0  0  0  0  0  0  0  0
   26.2074  -20.0713   -8.4949 C   0  0  0  0  0  0  0  0  0  0  0  0
   26.7754  -19.3386   -7.5161 N   0  0  0  0  0  0  0  0  0  0  0  0
   28.0456  -19.7319   -7.3200 C   0  0  0  0  0  0  0  0  0  0  0  0
   29.0202  -19.2970   -6.4474 C   0  0  0  0  0  0  0  0  0  0  0  0
   30.2727  -19.8889   -6.4545 C   0  0  0  0  0  0  0  0  0  0  0  0
   30.4846  -20.8992   -7.3482 C   0  0  0  0  0  0  0  0  0  0  0  0
   29.5210  -21.3285   -8.2102 C   0  0  0  0  0  0  0  0  0  0  0  0
   28.2769  -20.7520   -8.2144 C   0  0  0  0  0  0  0  0  0  0  0  0
   25.3059  -20.3103  -10.4939 C   0  0  0  0  0  0  0  0  0  0  0  0
   25.7892  -19.1993  -11.1575 O   0  0  0  0  0  0  0  0  0  0  0  0
   24.4981  -20.0887   -9.5555 O   0  0  0  0  0  0  0  0  0  0  0  0
  2  1  1  6
  2  3  1  0
  3  4  1  0
  4  9  1  0
  5  4  2  0
  5  6  1  0
  6  7  2  0
  7  8  1  0
  9  8  2  0
 10 11  2  0
 10  2  1  0
 12 10  1  0
 13 12  1  0
 13 14  1  1
 15 14  1  0
 16 15  1  0
 17 16  2  0
 18 13  1  0
 19 18  2  0
 20 16  1  0
 21 18  1  0
 22 21  1  0
 22 23  1  1
 23 24  1  0
 24 25  2  0
 24 32  1  0
 25 26  1  0
 26 27  1  0
 27 28  2  0
 28 29  1  0
 30 29  2  0
 31 30  1  0
 32 31  2  0
 32 27  1  0
 33 22  1  0
 34 33  1  0
 35 33  2  0
M  END
$$$$
