FEW.pdb
     RDKit          3D

 35 37  0  0  1  0  0  0  0  0999 V2000
   27.5818  -20.1267  -20.2943 N   0  0  0  0  0  0  0  0  0  0  0  0
   26.4620  -20.6897  -19.5818 C   0  0  1  0  0  0  0  0  0  0  0  0
   26.5002  -22.2201  -19.6268 C   0  0  0  0  0  0  0  0  0  0  0  0
   26.1934  -22.7052  -20.9978 C   0  0  0  0  0  0  0  0  0  0  0  0
   27.1756  -23.2651  -21.7876 C   0  0  0  0  0  0  0  0  0  0  0  0
   26.8884  -23.7170  -23.0633 C   0  0  0  0  0  0  0  0  0  0  0  0
   25.6044  -23.6202  -23.5855 C   0  0  0  0  0  0  0  0  0  0  0  0
   24.6215  -23.0675  -22.8137 C   0  0  0  0  0  0  0  0  0  0  0  0
   24.9206  -22.6224  -21.5475 C   0  0  0  0  0  0  0  0  0  0  0  0
   26.6032  -20.3407  -18.1257 C   0  0  0  0  0  0  0  0  0  0  0  0
   27.7458  -20.1012  -17.6403 O   0  0  0  0  0  0  0  0  0  0  0  0
   25.4791  -20.2710  -17.2699 N   0  0  0  0  0  0  0  0  0  0  0  0
   25.4670  -19.2983  -16.1441 C   0  0  1  0  0  0  0  0  0  0  0  0
   24.4651  -18.2318  -16.4764 C   0  0  0  0  0  0  0  0  0  0  0  0
   23.0403  -18.6113  -16.4873 C   0  0  0  0  0  0  0  0  0  0  0  0
   22.3364  -17.8510  -15.3848 C   0  0  0  0  0  0  0  0  0  0  0  0
   22.9157  -16.9804  -14.6922 O   0  0  0  0  0  0  0  0  0  0  0  0
   25.2148  -20.0348  -14.8999 C   0  0  0  0  0  0  0  0  0  0  0  0
   24.2302  -20.8501  -14.7946 O   0  0  0  0  0  0  0  0  0  0  0  0
   21.0076  -18.1209  -15.1266 O   0  0  0  0  0  0  0  0  0  0  0  0
   26.0096  -19.9222  -13.7411 N   0  0  0  0  0  0  0  0  0  0  0  0
   25.5933  -20.4865  -12.4523 C   0  0  1  0  0  0  0  0  0  0  0  0
   26.5892  -20.0365  -11.3745 C   0  0  0  0  0  0  0  0  0  0  0  0
   26.1070  -20.4541  -10.0336 C   0  0  0  0  0  0  0  0  0  0  0  0
   25.1398  -21.4193   -9.7295 C   0  0  0  0  0  0  0  0  0  0  0  0
   25.0013  -21.4874   -8.3903 N   0  0  0  0  0  0  0  0  0  0  0  0
   25.8301  -20.6140   -7.7932 C   0  0  0  0  0  0  0  0  0  0  0  0
   26.0532  -20.3155   -6.4660 C   0  0  0  0  0  0  0  0  0  0  0  0
   26.9847  -19.3509   -6.1183 C   0  0  0  0  0  0  0  0  0  0  0  0
   27.6525  -18.7281   -7.1336 C   0  0  0  0  0  0  0  0  0  0  0  0
   27.4315  -19.0236   -8.4450 C   0  0  0  0  0  0  0  0  0  0  0  0
   26.5126  -19.9760   -8.8038 C   0  0  0  0  0  0  0  0  0  0  0  0
   24.2748  -19.9207  -12.0676 C   0  0  0  0  0  0  0  0  0  0  0  0
   23.2816  -20.6732  -11.4715 O   0  0  0  0  0  0  0  0  0  0  0  0
   24.0054  -18.7095  -12.2739 O   0  0  0  0  0  0  0  0  0  0  0  0
  2  1  1  6
  2  3  1  0
  3  4  1  0
  4  9  1  0
  5  4  2  0
  5  6  1  0
  6  7  2  0
  7  8  1  0
  9  8  2  0
 10 11  2  0
 10  2  1  0
 12 10  1  0
 13 12  1  0
 13 14  1  6
 15 14  1  0
 16 15  1  0
 17 16  2  0
 18 13  1  0
 19 18  2  0
 20 16  1  0
 21 18  1  0
 22 21  1  0
 22 23  1  1
 23 24  1  0
 24 25  2  0
 24 32  1  0
 25 26  1  0
 26 27  1  0
 27 28  2  0
 28 29  1  0
 30 29  2  0
 31 30  1  0
 32 31  2  0
 32 27  1  0
 33 22  1  0
 34 33  1  0
 35 33  2  0
M  END
$$$$
