FEW.pdb
     RDKit          3D

 35 37  0  0  1  0  0  0  0  0999 V2000
   30.4502  -20.8258  -12.1196 N   0  0  0  0  0  0  0  0  0  0  0  0
   29.2011  -21.5170  -11.9180 C   0  0  1  0  0  0  0  0  0  0  0  0
   28.4719  -20.9775  -10.6839 C   0  0  0  0  0  0  0  0  0  0  0  0
   29.3676  -21.0101   -9.4982 C   0  0  0  0  0  0  0  0  0  0  0  0
   29.0956  -20.2449   -8.3836 C   0  0  0  0  0  0  0  0  0  0  0  0
   29.9298  -20.2769   -7.2803 C   0  0  0  0  0  0  0  0  0  0  0  0
   31.0641  -21.0793   -7.2627 C   0  0  0  0  0  0  0  0  0  0  0  0
   31.3455  -21.8427   -8.3606 C   0  0  0  0  0  0  0  0  0  0  0  0
   30.5080  -21.8015   -9.4504 C   0  0  0  0  0  0  0  0  0  0  0  0
   28.2930  -21.2010  -13.0743 C   0  0  0  0  0  0  0  0  0  0  0  0
   28.1471  -20.0045  -13.4559 O   0  0  0  0  0  0  0  0  0  0  0  0
   27.5863  -22.2176  -13.7586 N   0  0  0  0  0  0  0  0  0  0  0  0
   26.5493  -21.8503  -14.7603 C   0  0  1  0  0  0  0  0  0  0  0  0
   26.7609  -22.7129  -15.9698 C   0  0  0  0  0  0  0  0  0  0  0  0
   25.7988  -22.5825  -17.0797 C   0  0  0  0  0  0  0  0  0  0  0  0
   26.1585  -23.5964  -18.1435 C   0  0  0  0  0  0  0  0  0  0  0  0
   25.3634  -23.9245  -19.0564 O   0  0  0  0  0  0  0  0  0  0  0  0
   25.2315  -21.9673  -14.1250 C   0  0  0  0  0  0  0  0  0  0  0  0
   24.8962  -23.0191  -13.4719 O   0  0  0  0  0  0  0  0  0  0  0  0
   27.4063  -24.1856  -18.1138 O   0  0  0  0  0  0  0  0  0  0  0  0
   24.2428  -20.9633  -14.1676 N   0  0  0  0  0  0  0  0  0  0  0  0
   22.8878  -21.1810  -13.6488 C   0  0  1  0  0  0  0  0  0  0  0  0
   22.6455  -20.2096  -12.4853 C   0  0  0  0  0  0  0  0  0  0  0  0
   23.8557  -20.1342  -11.6282 C   0  0  0  0  0  0  0  0  0  0  0  0
   25.1015  -19.5806  -11.9460 C   0  0  0  0  0  0  0  0  0  0  0  0
   25.9215  -19.7206  -10.8851 N   0  0  0  0  0  0  0  0  0  0  0  0
   25.2786  -20.3402   -9.8806 C   0  0  0  0  0  0  0  0  0  0  0  0
   25.6830  -20.7048   -8.6142 C   0  0  0  0  0  0  0  0  0  0  0  0
   24.8002  -21.3467   -7.7612 C   0  0  0  0  0  0  0  0  0  0  0  0
   23.5414  -21.5926   -8.2295 C   0  0  0  0  0  0  0  0  0  0  0  0
   23.1424  -21.2321   -9.4811 C   0  0  0  0  0  0  0  0  0  0  0  0
   24.0053  -20.5961  -10.3361 C   0  0  0  0  0  0  0  0  0  0  0  0
   21.8950  -20.8347  -14.6981 C   0  0  0  0  0  0  0  0  0  0  0  0
   20.5428  -21.0818  -14.5610 O   0  0  0  0  0  0  0  0  0  0  0  0
   22.2539  -20.2920  -15.7745 O   0  0  0  0  0  0  0  0  0  0  0  0
  2  1  1  6
  2  3  1  0
  3  4  1  0
  4  9  1  0
  5  4  2  0
  5  6  1  0
  6  7  2  0
  7  8  1  0
  9  8  2  0
 10 11  2  0
 10  2  1  0
 12 10  1  0
 13 12  1  0
 13 14  1  6
 15 14  1  0
 16 15  1  0
 17 16  2  0
 18 13  1  0
 19 18  2  0
 20 16  1  0
 21 18  1  0
 22 21  1  0
 22 23  1  1
 23 24  1  0
 24 25  2  0
 24 32  1  0
 25 26  1  0
 26 27  1  0
 27 28  2  0
 28 29  1  0
 30 29  2  0
 31 30  1  0
 32 31  2  0
 32 27  1  0
 33 22  1  0
 34 33  1  0
 35 33  2  0
M  END
$$$$
