FEW.pdb
     RDKit          3D

 35 37  0  0  1  0  0  0  0  0999 V2000
   23.3664  -13.2521   12.7761 N   0  0  0  0  0  0  0  0  0  0  0  0
   22.0452  -12.8850   12.3309 C   0  0  1  0  0  0  0  0  0  0  0  0
   22.1167  -11.9836   11.0947 C   0  0  0  0  0  0  0  0  0  0  0  0
   22.6333  -10.6397   11.4635 C   0  0  0  0  0  0  0  0  0  0  0  0
   21.8481   -9.7457   12.1608 C   0  0  0  0  0  0  0  0  0  0  0  0
   22.3306   -8.4952   12.5040 C   0  0  0  0  0  0  0  0  0  0  0  0
   23.6180   -8.1040   12.1570 C   0  0  0  0  0  0  0  0  0  0  0  0
   24.4067   -8.9800   11.4660 C   0  0  0  0  0  0  0  0  0  0  0  0
   23.9148  -10.2197   11.1311 C   0  0  0  0  0  0  0  0  0  0  0  0
   21.3400  -14.1286   11.8641 C   0  0  0  0  0  0  0  0  0  0  0  0
   22.0036  -15.0849   11.3705 O   0  0  0  0  0  0  0  0  0  0  0  0
   19.9352  -14.2630   11.9624 N   0  0  0  0  0  0  0  0  0  0  0  0
   19.2932  -15.5650   11.6364 C   0  0  1  0  0  0  0  0  0  0  0  0
   18.3485  -15.8976   12.7537 C   0  0  0  0  0  0  0  0  0  0  0  0
   17.5610  -17.1389   12.6369 C   0  0  0  0  0  0  0  0  0  0  0  0
   17.9802  -18.0753   13.7489 C   0  0  0  0  0  0  0  0  0  0  0  0
   18.6345  -17.6857   14.7456 O   0  0  0  0  0  0  0  0  0  0  0  0
   18.6835  -15.4589   10.3055 C   0  0  0  0  0  0  0  0  0  0  0  0
   18.2377  -14.3407    9.8626 O   0  0  0  0  0  0  0  0  0  0  0  0
   17.6329  -19.4088   13.6695 O   0  0  0  0  0  0  0  0  0  0  0  0
   18.5397  -16.5420    9.4147 N   0  0  0  0  0  0  0  0  0  0  0  0
   17.9499  -16.3813    8.0808 C   0  0  1  0  0  0  0  0  0  0  0  0
   19.0695  -16.0449    7.0861 C   0  0  0  0  0  0  0  0  0  0  0  0
   18.8931  -14.6625    6.5737 C   0  0  0  0  0  0  0  0  0  0  0  0
   17.7876  -14.1292    5.9006 C   0  0  0  0  0  0  0  0  0  0  0  0
   18.0382  -12.8366    5.6113 N   0  0  0  0  0  0  0  0  0  0  0  0
   19.2562  -12.4885    6.0603 C   0  0  0  0  0  0  0  0  0  0  0  0
   19.9525  -11.3000    6.0074 C   0  0  0  0  0  0  0  0  0  0  0  0
   21.2197  -11.2124    6.5601 C   0  0  0  0  0  0  0  0  0  0  0  0
   21.7288  -12.3365    7.1447 C   0  0  0  0  0  0  0  0  0  0  0  0
   21.0401  -13.5107    7.1967 C   0  0  0  0  0  0  0  0  0  0  0  0
   19.7850  -13.6120    6.6538 C   0  0  0  0  0  0  0  0  0  0  0  0
   17.3697  -17.6748    7.6376 C   0  0  0  0  0  0  0  0  0  0  0  0
   16.4565  -17.7721    6.6057 O   0  0  0  0  0  0  0  0  0  0  0  0
   17.6935  -18.7544    8.1960 O   0  0  0  0  0  0  0  0  0  0  0  0
  2  1  1  6
  2  3  1  0
  3  4  1  0
  4  9  1  0
  5  4  2  0
  5  6  1  0
  6  7  2  0
  7  8  1  0
  9  8  2  0
 10 11  2  0
 10  2  1  0
 12 10  1  0
 13 12  1  0
 13 14  1  1
 15 14  1  0
 16 15  1  0
 17 16  2  0
 18 13  1  0
 19 18  2  0
 20 16  1  0
 21 18  1  0
 22 21  1  0
 22 23  1  6
 23 24  1  0
 24 25  2  0
 24 32  1  0
 25 26  1  0
 26 27  1  0
 27 28  2  0
 28 29  1  0
 30 29  2  0
 31 30  1  0
 32 31  2  0
 32 27  1  0
 33 22  1  0
 34 33  1  0
 35 33  2  0
M  END
$$$$
