FEW.pdb
     RDKit          3D

 35 37  0  0  1  0  0  0  0  0999 V2000
   24.8382  -16.3750  -16.6821 N   0  0  0  0  0  0  0  0  0  0  0  0
   25.5054  -17.5164  -16.1070 C   0  0  1  0  0  0  0  0  0  0  0  0
   26.8228  -17.1019  -15.4447 C   0  0  0  0  0  0  0  0  0  0  0  0
   27.8628  -16.8478  -16.4757 C   0  0  0  0  0  0  0  0  0  0  0  0
   28.6420  -17.8754  -16.9642 C   0  0  0  0  0  0  0  0  0  0  0  0
   29.6092  -17.6375  -17.9245 C   0  0  0  0  0  0  0  0  0  0  0  0
   29.8236  -16.3587  -18.4240 C   0  0  0  0  0  0  0  0  0  0  0  0
   29.0585  -15.3313  -17.9487 C   0  0  0  0  0  0  0  0  0  0  0  0
   28.1007  -15.5815  -16.9943 C   0  0  0  0  0  0  0  0  0  0  0  0
   24.6562  -18.0454  -14.9843 C   0  0  0  0  0  0  0  0  0  0  0  0
   24.0747  -17.2435  -14.1985 O   0  0  0  0  0  0  0  0  0  0  0  0
   24.4855  -19.4344  -14.7777 N   0  0  0  0  0  0  0  0  0  0  0  0
   23.7156  -19.9168  -13.5994 C   0  0  1  0  0  0  0  0  0  0  0  0
   22.6668  -20.8659  -14.1001 C   0  0  0  0  0  0  0  0  0  0  0  0
   21.5256  -20.2960  -14.8400 C   0  0  0  0  0  0  0  0  0  0  0  0
   21.8062  -20.4247  -16.3211 C   0  0  0  0  0  0  0  0  0  0  0  0
   21.9483  -21.5362  -16.8848 O   0  0  0  0  0  0  0  0  0  0  0  0
   24.6616  -20.4778  -12.6276 C   0  0  0  0  0  0  0  0  0  0  0  0
   25.8591  -20.7896  -12.9652 O   0  0  0  0  0  0  0  0  0  0  0  0
   21.9108  -19.2804  -17.0859 O   0  0  0  0  0  0  0  0  0  0  0  0
   24.3537  -20.7145  -11.2725 N   0  0  0  0  0  0  0  0  0  0  0  0
   25.3810  -21.0859  -10.2929 C   0  0  1  0  0  0  0  0  0  0  0  0
   26.3790  -19.9268  -10.1645 C   0  0  0  0  0  0  0  0  0  0  0  0
   27.5254  -20.3376   -9.3148 C   0  0  0  0  0  0  0  0  0  0  0  0
   28.5450  -21.2448   -9.6261 C   0  0  0  0  0  0  0  0  0  0  0  0
   29.3856  -21.3296   -8.5756 N   0  0  0  0  0  0  0  0  0  0  0  0
   28.9716  -20.5223   -7.5840 C   0  0  0  0  0  0  0  0  0  0  0  0
   29.4852  -20.2644   -6.3310 C   0  0  0  0  0  0  0  0  0  0  0  0
   28.8462  -19.3684   -5.4896 C   0  0  0  0  0  0  0  0  0  0  0  0
   27.7106  -18.7701   -5.9554 C   0  0  0  0  0  0  0  0  0  0  0  0
   27.2036  -19.0254   -7.1938 C   0  0  0  0  0  0  0  0  0  0  0  0
   27.8254  -19.9099   -8.0372 C   0  0  0  0  0  0  0  0  0  0  0  0
   24.7536  -21.2493   -8.9564 C   0  0  0  0  0  0  0  0  0  0  0  0
   25.2625  -22.0927   -7.9879 O   0  0  0  0  0  0  0  0  0  0  0  0
   23.7132  -20.6134   -8.6479 O   0  0  0  0  0  0  0  0  0  0  0  0
  2  1  1  1
  2  3  1  0
  3  4  1  0
  4  9  1  0
  5  4  2  0
  5  6  1  0
  6  7  2  0
  7  8  1  0
  9  8  2  0
 10 11  2  0
 10  2  1  0
 12 10  1  0
 13 12  1  0
 13 14  1  6
 15 14  1  0
 16 15  1  0
 17 16  2  0
 18 13  1  0
 19 18  2  0
 20 16  1  0
 21 18  1  0
 22 21  1  0
 22 23  1  1
 23 24  1  0
 24 25  2  0
 24 32  1  0
 25 26  1  0
 26 27  1  0
 27 28  2  0
 28 29  1  0
 30 29  2  0
 31 30  1  0
 32 31  2  0
 32 27  1  0
 33 22  1  0
 34 33  1  0
 35 33  2  0
M  END
$$$$
