FEW.pdb
     RDKit          3D

 35 37  0  0  1  0  0  0  0  0999 V2000
   22.7556  -16.8456  -21.3422 N   0  0  0  0  0  0  0  0  0  0  0  0
   23.0019  -16.5279  -19.9577 C   0  0  1  0  0  0  0  0  0  0  0  0
   22.0353  -15.4466  -19.4655 C   0  0  0  0  0  0  0  0  0  0  0  0
   22.3367  -14.1465  -20.1197 C   0  0  0  0  0  0  0  0  0  0  0  0
   21.6975  -13.7741  -21.2837 C   0  0  0  0  0  0  0  0  0  0  0  0
   21.9785  -12.5633  -21.8911 C   0  0  0  0  0  0  0  0  0  0  0  0
   22.9111  -11.6883  -21.3475 C   0  0  0  0  0  0  0  0  0  0  0  0
   23.5518  -12.0448  -20.1945 C   0  0  0  0  0  0  0  0  0  0  0  0
   23.2631  -13.2512  -19.6010 C   0  0  0  0  0  0  0  0  0  0  0  0
   22.6814  -17.7413  -19.1290 C   0  0  0  0  0  0  0  0  0  0  0  0
   21.7767  -18.5417  -19.5024 O   0  0  0  0  0  0  0  0  0  0  0  0
   23.3722  -18.0186  -17.9261 N   0  0  0  0  0  0  0  0  0  0  0  0
   23.0854  -19.2749  -17.1824 C   0  0  1  0  0  0  0  0  0  0  0  0
   24.3964  -19.9556  -16.9185 C   0  0  0  0  0  0  0  0  0  0  0  0
   24.3723  -21.2090  -16.1422 C   0  0  0  0  0  0  0  0  0  0  0  0
   25.7929  -21.7105  -16.0029 C   0  0  0  0  0  0  0  0  0  0  0  0
   26.0709  -22.7960  -15.4393 O   0  0  0  0  0  0  0  0  0  0  0  0
   22.2992  -18.9367  -15.9901 C   0  0  0  0  0  0  0  0  0  0  0  0
   22.6638  -17.9995  -15.1938 O   0  0  0  0  0  0  0  0  0  0  0  0
   26.8257  -20.9499  -16.5128 O   0  0  0  0  0  0  0  0  0  0  0  0
   21.1037  -19.5869  -15.6224 N   0  0  0  0  0  0  0  0  0  0  0  0
   20.3274  -19.1837  -14.4445 C   0  0  1  0  0  0  0  0  0  0  0  0
   19.1636  -18.2946  -14.9041 C   0  0  0  0  0  0  0  0  0  0  0  0
   18.3799  -18.9903  -15.9562 C   0  0  0  0  0  0  0  0  0  0  0  0
   17.6127  -20.1543  -15.8290 C   0  0  0  0  0  0  0  0  0  0  0  0
   17.0665  -20.4465  -17.0264 N   0  0  0  0  0  0  0  0  0  0  0  0
   17.4350  -19.5322  -17.9399 C   0  0  0  0  0  0  0  0  0  0  0  0
   17.1417  -19.3990  -19.2802 C   0  0  0  0  0  0  0  0  0  0  0  0
   17.6651  -18.3400  -20.0038 C   0  0  0  0  0  0  0  0  0  0  0  0
   18.4660  -17.4584  -19.3360 C   0  0  0  0  0  0  0  0  0  0  0  0
   18.7555  -17.5906  -18.0114 C   0  0  0  0  0  0  0  0  0  0  0  0
   18.2445  -18.6337  -17.2828 C   0  0  0  0  0  0  0  0  0  0  0  0
   19.7163  -20.3850  -13.8201 C   0  0  0  0  0  0  0  0  0  0  0  0
   19.8389  -21.6524  -14.3558 O   0  0  0  0  0  0  0  0  0  0  0  0
   19.0495  -20.2935  -12.7574 O   0  0  0  0  0  0  0  0  0  0  0  0
  2  1  1  6
  2  3  1  0
  3  4  1  0
  4  9  1  0
  5  4  2  0
  5  6  1  0
  6  7  2  0
  7  8  1  0
  9  8  2  0
 10 11  2  0
 10  2  1  0
 12 10  1  0
 13 12  1  0
 13 14  1  1
 15 14  1  0
 16 15  1  0
 17 16  2  0
 18 13  1  0
 19 18  2  0
 20 16  1  0
 21 18  1  0
 22 21  1  0
 22 23  1  6
 23 24  1  0
 24 25  2  0
 24 32  1  0
 25 26  1  0
 26 27  1  0
 27 28  2  0
 28 29  1  0
 30 29  2  0
 31 30  1  0
 32 31  2  0
 32 27  1  0
 33 22  1  0
 34 33  1  0
 35 33  2  0
M  END
$$$$
