FEW.pdb
     RDKit          3D

 35 37  0  0  1  0  0  0  0  0999 V2000
   26.2565  -16.9246  -17.9582 N   0  0  0  0  0  0  0  0  0  0  0  0
   26.5631  -17.8209  -16.8713 C   0  0  1  0  0  0  0  0  0  0  0  0
   27.5564  -17.1790  -15.8982 C   0  0  0  0  0  0  0  0  0  0  0  0
   28.8975  -17.0643  -16.5285 C   0  0  0  0  0  0  0  0  0  0  0  0
   29.3328  -15.8662  -17.0548 C   0  0  0  0  0  0  0  0  0  0  0  0
   30.5818  -15.7606  -17.6406 C   0  0  0  0  0  0  0  0  0  0  0  0
   31.4328  -16.8565  -17.7157 C   0  0  0  0  0  0  0  0  0  0  0  0
   31.0141  -18.0498  -17.1981 C   0  0  0  0  0  0  0  0  0  0  0  0
   29.7703  -18.1409  -16.6187 C   0  0  0  0  0  0  0  0  0  0  0  0
   25.3115  -18.0329  -16.0648 C   0  0  0  0  0  0  0  0  0  0  0  0
   24.7202  -17.0449  -15.5426 O   0  0  0  0  0  0  0  0  0  0  0  0
   24.7675  -19.3241  -15.8699 N   0  0  0  0  0  0  0  0  0  0  0  0
   23.4716  -19.4794  -15.1556 C   0  0  1  0  0  0  0  0  0  0  0  0
   22.4082  -19.7090  -16.1890 C   0  0  0  0  0  0  0  0  0  0  0  0
   22.6150  -19.1212  -17.5255 C   0  0  0  0  0  0  0  0  0  0  0  0
   21.9538  -20.0189  -18.5482 C   0  0  0  0  0  0  0  0  0  0  0  0
   21.3173  -21.0506  -18.2262 O   0  0  0  0  0  0  0  0  0  0  0  0
   23.6199  -20.5439  -14.1560 C   0  0  0  0  0  0  0  0  0  0  0  0
   24.2048  -21.6495  -14.4400 O   0  0  0  0  0  0  0  0  0  0  0  0
   22.0509  -19.6960  -19.8866 O   0  0  0  0  0  0  0  0  0  0  0  0
   23.1520  -20.4517  -12.8294 N   0  0  0  0  0  0  0  0  0  0  0  0
   22.9851  -21.6347  -11.9776 C   0  0  1  0  0  0  0  0  0  0  0  0
   23.6134  -21.3457  -10.6073 C   0  0  0  0  0  0  0  0  0  0  0  0
   24.7375  -20.3872  -10.7578 C   0  0  0  0  0  0  0  0  0  0  0  0
   24.6877  -18.9890  -10.7106 C   0  0  0  0  0  0  0  0  0  0  0  0
   25.9323  -18.5044  -10.8939 N   0  0  0  0  0  0  0  0  0  0  0  0
   26.8034  -19.5143  -11.0602 C   0  0  0  0  0  0  0  0  0  0  0  0
   28.1648  -19.5303  -11.2763 C   0  0  0  0  0  0  0  0  0  0  0  0
   28.8316  -20.7365  -11.4159 C   0  0  0  0  0  0  0  0  0  0  0  0
   28.0879  -21.8785  -11.3303 C   0  0  0  0  0  0  0  0  0  0  0  0
   26.7426  -21.8620  -11.1167 C   0  0  0  0  0  0  0  0  0  0  0  0
   26.0695  -20.6756  -10.9766 C   0  0  0  0  0  0  0  0  0  0  0  0
   21.5385  -21.8690  -11.7348 C   0  0  0  0  0  0  0  0  0  0  0  0
   21.0559  -23.0135  -11.1304 O   0  0  0  0  0  0  0  0  0  0  0  0
   20.6787  -21.0171  -12.0771 O   0  0  0  0  0  0  0  0  0  0  0  0
  2  1  1  6
  2  3  1  0
  3  4  1  0
  4  9  1  0
  5  4  2  0
  5  6  1  0
  6  7  2  0
  7  8  1  0
  9  8  2  0
 10 11  2  0
 10  2  1  0
 12 10  1  0
 13 12  1  0
 13 14  1  6
 15 14  1  0
 16 15  1  0
 17 16  2  0
 18 13  1  0
 19 18  2  0
 20 16  1  0
 21 18  1  0
 22 21  1  0
 22 23  1  1
 23 24  1  0
 24 25  2  0
 24 32  1  0
 25 26  1  0
 26 27  1  0
 27 28  2  0
 28 29  1  0
 30 29  2  0
 31 30  1  0
 32 31  2  0
 32 27  1  0
 33 22  1  0
 34 33  1  0
 35 33  2  0
M  END
$$$$
