YFR.pdb
     RDKit          3D

 35 36  0  0  1  0  0  0  0  0999 V2000
    5.4610  -25.5461   24.0691 O   0  0  0  0  0  0  0  0  0  0  0  0
    6.0780  -24.2962   24.0531 C   0  0  0  0  0  0  0  0  0  0  0  0
    7.0729  -23.9638   23.1416 C   0  0  0  0  0  0  0  0  0  0  0  0
    7.6816  -22.7430   23.1136 C   0  0  0  0  0  0  0  0  0  0  0  0
    7.3250  -21.7585   24.0147 C   0  0  0  0  0  0  0  0  0  0  0  0
    7.9893  -20.4207   23.9524 C   0  0  0  0  0  0  0  0  0  0  0  0
    7.0520  -19.4252   23.2506 C   0  0  2  0  0  0  0  0  0  0  0  0
    7.0983  -19.6472   21.8135 N   0  0  0  0  0  0  0  0  0  0  0  0
    7.4907  -18.0387   23.5432 C   0  0  0  0  0  0  0  0  0  0  0  0
    8.4809  -17.5148   22.9364 O   0  0  0  0  0  0  0  0  0  0  0  0
    6.3440  -22.0432   24.9360 C   0  0  0  0  0  0  0  0  0  0  0  0
    5.7417  -23.2893   24.9442 C   0  0  0  0  0  0  0  0  0  0  0  0
    6.8251  -17.2211   24.5169 N   0  0  0  0  0  0  0  0  0  0  0  0
    7.3292  -15.8798   24.8632 C   0  0  1  0  0  0  0  0  0  0  0  0
    6.1957  -15.0599   25.4508 C   0  0  0  0  0  0  0  0  0  0  0  0
    6.6699  -13.7649   25.9619 C   0  0  0  0  0  0  0  0  0  0  0  0
    6.8703  -13.5013   27.3196 C   0  0  0  0  0  0  0  0  0  0  0  0
    7.3333  -12.2915   27.7809 C   0  0  0  0  0  0  0  0  0  0  0  0
    7.6192  -11.2829   26.9032 C   0  0  0  0  0  0  0  0  0  0  0  0
    7.4344  -11.5007   25.5551 C   0  0  0  0  0  0  0  0  0  0  0  0
    6.9645  -12.7357   25.1067 C   0  0  0  0  0  0  0  0  0  0  0  0
    8.4911  -16.0439   25.7126 C   0  0  0  0  0  0  0  0  0  0  0  0
    8.3827  -16.8714   26.6880 O   0  0  0  0  0  0  0  0  0  0  0  0
   12.0141  -15.6838   21.0402 N   0  0  0  0  0  0  0  0  0  0  0  0
   13.1847  -14.9485   21.3531 C   0  0  0  0  0  0  0  0  0  0  0  0
   13.6561  -14.0557   20.5936 N   0  0  0  0  0  0  0  0  0  0  0  0
   13.8289  -15.2631   22.5852 N   0  0  0  0  0  0  0  0  0  0  0  0
   13.3316  -16.2860   23.4802 C   0  0  0  0  0  0  0  0  0  0  0  0
   12.0592  -15.8241   24.1092 C   0  0  0  0  0  0  0  0  0  0  0  0
   12.1046  -15.4750   25.5317 C   0  0  0  0  0  0  0  0  0  0  0  0
   10.9090  -15.7622   26.3881 C   0  0  2  0  0  0  0  0  0  0  0  0
    9.7225  -15.4108   25.5939 N   0  0  0  0  0  0  0  0  0  0  0  0
   10.8667  -15.2020   27.7148 C   0  0  0  0  0  0  0  0  0  0  0  0
   10.4211  -14.0465   27.9646 O   0  0  0  0  0  0  0  0  0  0  0  0
   11.3109  -15.8712   28.8842 O   0  0  0  0  0  0  0  0  0  0  0  0
  2 12  2  0
  2  1  1  0
  3  2  1  0
  4  5  1  0
  4  3  2  0
  5 11  2  0
  6  5  1  0
  7  6  1  0
  7  8  1  6
  9  7  1  0
  9 10  2  0
 11 12  1  0
 13  9  1  0
 14 13  1  0
 14 22  1  0
 14 15  1  1
 16 17  2  0
 16 15  1  0
 18 17  1  0
 19 18  2  0
 20 19  1  0
 20 21  2  0
 21 16  1  0
 22 32  1  0
 22 23  2  0
 25 24  1  0
 25 27  1  0
 26 25  2  0
 27 28  1  0
 29 28  1  0
 29 30  1  0
 31 30  1  6
 31 33  1  0
 32 31  1  0
 33 35  1  0
 34 33  2  0
M  END
$$$$
