YFR.pdb
     RDKit          3D

 35 36  0  0  1  0  0  0  0  0999 V2000
    6.2027  -18.6704   14.4457 O   0  0  0  0  0  0  0  0  0  0  0  0
    6.7000  -18.3757   15.7142 C   0  0  0  0  0  0  0  0  0  0  0  0
    7.4156  -17.2161   15.9873 C   0  0  0  0  0  0  0  0  0  0  0  0
    7.9042  -16.9149   17.2251 C   0  0  0  0  0  0  0  0  0  0  0  0
    7.7027  -17.7731   18.2886 C   0  0  0  0  0  0  0  0  0  0  0  0
    8.2278  -17.4132   19.6413 C   0  0  0  0  0  0  0  0  0  0  0  0
    8.9126  -16.0393   19.5664 C   0  0  2  0  0  0  0  0  0  0  0  0
   10.2256  -16.1854   18.9570 N   0  0  0  0  0  0  0  0  0  0  0  0
    9.0697  -15.4872   20.9342 C   0  0  0  0  0  0  0  0  0  0  0  0
   10.1060  -15.7328   21.6333 O   0  0  0  0  0  0  0  0  0  0  0  0
    6.9993  -18.9339   18.0648 C   0  0  0  0  0  0  0  0  0  0  0  0
    6.5140  -19.2170   16.7999 C   0  0  0  0  0  0  0  0  0  0  0  0
    8.0696  -14.6515   21.5354 N   0  0  0  0  0  0  0  0  0  0  0  0
    8.2038  -14.1757   22.9241 C   0  0  1  0  0  0  0  0  0  0  0  0
    7.0849  -13.1954   23.2232 C   0  0  0  0  0  0  0  0  0  0  0  0
    7.0505  -12.8278   24.6469 C   0  0  0  0  0  0  0  0  0  0  0  0
    6.0400  -13.2359   25.5218 C   0  0  0  0  0  0  0  0  0  0  0  0
    6.0321  -12.9006   26.8553 C   0  0  0  0  0  0  0  0  0  0  0  0
    7.0381  -12.1380   27.3803 C   0  0  0  0  0  0  0  0  0  0  0  0
    8.0539  -11.7134   26.5516 C   0  0  0  0  0  0  0  0  0  0  0  0
    8.0445  -12.0649   25.2011 C   0  0  0  0  0  0  0  0  0  0  0  0
    8.2707  -15.3351   23.7899 C   0  0  0  0  0  0  0  0  0  0  0  0
    7.3225  -16.1936   23.6820 O   0  0  0  0  0  0  0  0  0  0  0  0
   12.7672  -22.2213   23.2888 N   0  0  0  0  0  0  0  0  0  0  0  0
   12.2770  -22.3818   24.6090 C   0  0  0  0  0  0  0  0  0  0  0  0
   12.3538  -23.4738   25.2399 N   0  0  0  0  0  0  0  0  0  0  0  0
   11.6763  -21.2389   25.2131 N   0  0  0  0  0  0  0  0  0  0  0  0
   11.4134  -20.0215   24.4759 C   0  0  0  0  0  0  0  0  0  0  0  0
   10.5593  -19.1143   25.2977 C   0  0  0  0  0  0  0  0  0  0  0  0
   10.1909  -17.8251   24.7063 C   0  0  0  0  0  0  0  0  0  0  0  0
    9.3096  -16.8953   25.4836 C   0  0  2  0  0  0  0  0  0  0  0  0
    9.2504  -15.6348   24.7289 N   0  0  0  0  0  0  0  0  0  0  0  0
    9.5976  -16.6859   26.8796 C   0  0  0  0  0  0  0  0  0  0  0  0
   10.1728  -15.6509   27.3202 O   0  0  0  0  0  0  0  0  0  0  0  0
    9.2723  -17.6014   27.9134 O   0  0  0  0  0  0  0  0  0  0  0  0
  2 12  2  0
  2  1  1  0
  3  2  1  0
  4  5  1  0
  4  3  2  0
  5 11  2  0
  6  5  1  0
  7  6  1  0
  7  8  1  1
  9  7  1  0
  9 10  2  0
 11 12  1  0
 13  9  1  0
 14 13  1  0
 14 22  1  0
 14 15  1  1
 16 17  2  0
 16 15  1  0
 18 17  1  0
 19 18  2  0
 20 19  1  0
 20 21  2  0
 21 16  1  0
 22 32  1  0
 22 23  2  0
 25 24  1  0
 25 27  1  0
 26 25  2  0
 27 28  1  0
 29 28  1  0
 29 30  1  0
 31 30  1  6
 31 33  1  0
 32 31  1  0
 33 35  1  0
 34 33  2  0
M  END
$$$$
