YFR.pdb
     RDKit          3D

 35 36  0  0  1  0  0  0  0  0999 V2000
    5.3171  -25.6787   27.0472 O   0  0  0  0  0  0  0  0  0  0  0  0
    5.7329  -24.5334   26.3700 C   0  0  0  0  0  0  0  0  0  0  0  0
    5.7331  -24.4419   24.9833 C   0  0  0  0  0  0  0  0  0  0  0  0
    6.1341  -23.3255   24.3092 C   0  0  0  0  0  0  0  0  0  0  0  0
    6.5686  -22.2080   24.9951 C   0  0  0  0  0  0  0  0  0  0  0  0
    6.9828  -20.9877   24.2374 C   0  0  0  0  0  0  0  0  0  0  0  0
    5.7412  -20.1296   23.9470 C   0  0  2  0  0  0  0  0  0  0  0  0
    5.1112  -20.5897   22.7190 N   0  0  0  0  0  0  0  0  0  0  0  0
    6.1442  -18.7112   23.7854 C   0  0  0  0  0  0  0  0  0  0  0  0
    6.5077  -18.2500   22.6548 O   0  0  0  0  0  0  0  0  0  0  0  0
    6.5854  -22.2531   26.3699 C   0  0  0  0  0  0  0  0  0  0  0  0
    6.1739  -23.3976   27.0306 C   0  0  0  0  0  0  0  0  0  0  0  0
    6.1429  -17.7911   24.8868 N   0  0  0  0  0  0  0  0  0  0  0  0
    6.6842  -16.4273   24.7454 C   0  0  1  0  0  0  0  0  0  0  0  0
    6.1604  -15.5653   25.8789 C   0  0  0  0  0  0  0  0  0  0  0  0
    6.7198  -14.2059   25.8311 C   0  0  0  0  0  0  0  0  0  0  0  0
    6.0883  -13.1370   25.1895 C   0  0  0  0  0  0  0  0  0  0  0  0
    6.6143  -11.8666   25.1705 C   0  0  0  0  0  0  0  0  0  0  0  0
    7.8018  -11.6029   25.7945 C   0  0  0  0  0  0  0  0  0  0  0  0
    8.4582  -12.6293   26.4385 C   0  0  0  0  0  0  0  0  0  0  0  0
    7.9077  -13.9115   26.4472 C   0  0  0  0  0  0  0  0  0  0  0  0
    8.1260  -16.5261   24.6466 C   0  0  0  0  0  0  0  0  0  0  0  0
    8.7095  -17.3201   25.4694 O   0  0  0  0  0  0  0  0  0  0  0  0
    7.4175  -13.6694   18.5075 N   0  0  0  0  0  0  0  0  0  0  0  0
    8.0041  -12.6707   19.3246 C   0  0  0  0  0  0  0  0  0  0  0  0
    7.6554  -11.4572   19.2795 N   0  0  0  0  0  0  0  0  0  0  0  0
    9.0295  -13.0952   20.2191 N   0  0  0  0  0  0  0  0  0  0  0  0
    9.2829  -14.4922   20.4999 C   0  0  0  0  0  0  0  0  0  0  0  0
   10.3502  -14.6079   21.5370 C   0  0  0  0  0  0  0  0  0  0  0  0
   10.6329  -15.9476   22.0591 C   0  0  0  0  0  0  0  0  0  0  0  0
   10.3604  -16.2359   23.5041 C   0  0  2  0  0  0  0  0  0  0  0  0
    8.9609  -15.8620   23.7560 N   0  0  0  0  0  0  0  0  0  0  0  0
   11.2591  -15.6948   24.4916 C   0  0  0  0  0  0  0  0  0  0  0  0
   10.8987  -14.8692   25.3773 O   0  0  0  0  0  0  0  0  0  0  0  0
   12.6363  -16.0209   24.5893 O   0  0  0  0  0  0  0  0  0  0  0  0
  2 12  2  0
  2  1  1  0
  3  2  1  0
  4  5  1  0
  4  3  2  0
  5 11  2  0
  6  5  1  0
  7  6  1  0
  7  8  1  6
  9  7  1  0
  9 10  2  0
 11 12  1  0
 13  9  1  0
 14 13  1  0
 14 22  1  0
 14 15  1  1
 16 17  2  0
 16 15  1  0
 18 17  1  0
 19 18  2  0
 20 19  1  0
 20 21  2  0
 21 16  1  0
 22 32  1  0
 22 23  2  0
 25 24  1  0
 25 27  1  0
 26 25  2  0
 27 28  1  0
 29 28  1  0
 29 30  1  0
 31 30  1  6
 31 33  1  0
 32 31  1  0
 33 35  1  0
 34 33  2  0
M  END
$$$$
