YFR.pdb
     RDKit          3D

 35 36  0  0  1  0  0  0  0  0999 V2000
    8.7493  -20.7777   15.4373 O   0  0  0  0  0  0  0  0  0  0  0  0
    8.9300  -20.0277   16.5984 C   0  0  0  0  0  0  0  0  0  0  0  0
    9.1615  -20.6110   17.8384 C   0  0  0  0  0  0  0  0  0  0  0  0
    9.3435  -19.8878   18.9809 C   0  0  0  0  0  0  0  0  0  0  0  0
    9.3047  -18.5072   18.9530 C   0  0  0  0  0  0  0  0  0  0  0  0
    9.5284  -17.7337   20.2126 C   0  0  0  0  0  0  0  0  0  0  0  0
    9.2543  -16.2454   19.9450 C   0  0  2  0  0  0  0  0  0  0  0  0
   10.2795  -15.7159   19.0589 N   0  0  0  0  0  0  0  0  0  0  0  0
    9.2836  -15.4966   21.2252 C   0  0  0  0  0  0  0  0  0  0  0  0
   10.3731  -15.0377   21.7000 O   0  0  0  0  0  0  0  0  0  0  0  0
    9.0782  -17.8862   17.7466 C   0  0  0  0  0  0  0  0  0  0  0  0
    8.8963  -18.6421   16.6016 C   0  0  0  0  0  0  0  0  0  0  0  0
    8.0934  -15.2506   21.9885 N   0  0  0  0  0  0  0  0  0  0  0  0
    8.1445  -14.5361   23.2769 C   0  0  1  0  0  0  0  0  0  0  0  0
    6.7921  -13.9037   23.5479 C   0  0  0  0  0  0  0  0  0  0  0  0
    6.7046  -13.3735   24.9169 C   0  0  0  0  0  0  0  0  0  0  0  0
    6.0680  -14.0472   25.9629 C   0  0  0  0  0  0  0  0  0  0  0  0
    6.0117  -13.5477   27.2427 C   0  0  0  0  0  0  0  0  0  0  0  0
    6.5914  -12.3457   27.5396 C   0  0  0  0  0  0  0  0  0  0  0  0
    7.2288  -11.6478   26.5367 C   0  0  0  0  0  0  0  0  0  0  0  0
    7.2759  -12.1719   25.2443 C   0  0  0  0  0  0  0  0  0  0  0  0
    8.6171  -15.4634   24.2844 C   0  0  0  0  0  0  0  0  0  0  0  0
    7.9355  -16.5391   24.4463 O   0  0  0  0  0  0  0  0  0  0  0  0
   15.4625  -16.0180   22.0470 N   0  0  0  0  0  0  0  0  0  0  0  0
   14.2192  -16.6923   22.1400 C   0  0  0  0  0  0  0  0  0  0  0  0
   13.5264  -16.9940   21.1275 N   0  0  0  0  0  0  0  0  0  0  0  0
   13.7659  -17.0230   23.4504 N   0  0  0  0  0  0  0  0  0  0  0  0
   12.6772  -17.9477   23.6830 C   0  0  0  0  0  0  0  0  0  0  0  0
   11.4776  -17.1978   24.1589 C   0  0  0  0  0  0  0  0  0  0  0  0
   11.3238  -17.0316   25.6067 C   0  0  0  0  0  0  0  0  0  0  0  0
   10.1228  -16.3045   26.1304 C   0  0  2  0  0  0  0  0  0  0  0  0
    9.7335  -15.3293   25.1010 N   0  0  0  0  0  0  0  0  0  0  0  0
   10.1973  -15.7160   27.4433 C   0  0  0  0  0  0  0  0  0  0  0  0
   10.3992  -16.3891   28.4933 O   0  0  0  0  0  0  0  0  0  0  0  0
   10.0582  -14.3300   27.7119 O   0  0  0  0  0  0  0  0  0  0  0  0
  2 12  2  0
  2  1  1  0
  3  2  1  0
  4  5  1  0
  4  3  2  0
  5 11  2  0
  6  5  1  0
  7  6  1  0
  7  8  1  6
  9  7  1  0
  9 10  2  0
 11 12  1  0
 13  9  1  0
 14 13  1  0
 14 22  1  0
 14 15  1  1
 16 17  2  0
 16 15  1  0
 18 17  1  0
 19 18  2  0
 20 19  1  0
 20 21  2  0
 21 16  1  0
 22 32  1  0
 22 23  2  0
 25 24  1  0
 25 27  1  0
 26 25  2  0
 27 28  1  0
 29 28  1  0
 29 30  1  0
 31 30  1  6
 31 33  1  0
 32 31  1  0
 33 35  1  0
 34 33  2  0
M  END
$$$$
