YFR.pdb
     RDKit          3D

 35 36  0  0  1  0  0  0  0  0999 V2000
    7.8423  -19.1555   14.4224 O   0  0  0  0  0  0  0  0  0  0  0  0
    8.0322  -18.7260   15.7349 C   0  0  0  0  0  0  0  0  0  0  0  0
    9.2321  -18.9006   16.4138 C   0  0  0  0  0  0  0  0  0  0  0  0
    9.4313  -18.4815   17.6969 C   0  0  0  0  0  0  0  0  0  0  0  0
    8.4212  -17.8482   18.3947 C   0  0  0  0  0  0  0  0  0  0  0  0
    8.6679  -17.3776   19.7920 C   0  0  0  0  0  0  0  0  0  0  0  0
    8.7918  -15.8457   19.7929 C   0  0  2  0  0  0  0  0  0  0  0  0
    9.9587  -15.4538   19.0174 N   0  0  0  0  0  0  0  0  0  0  0  0
    8.9480  -15.3605   21.1860 C   0  0  0  0  0  0  0  0  0  0  0  0
   10.0188  -15.5685   21.8442 O   0  0  0  0  0  0  0  0  0  0  0  0
    7.2153  -17.6537   17.7621 C   0  0  0  0  0  0  0  0  0  0  0  0
    7.0379  -18.0882   16.4600 C   0  0  0  0  0  0  0  0  0  0  0  0
    7.9084  -14.6348   21.8586 N   0  0  0  0  0  0  0  0  0  0  0  0
    8.0870  -14.1425   23.2365 C   0  0  1  0  0  0  0  0  0  0  0  0
    7.0004  -13.1299   23.5467 C   0  0  0  0  0  0  0  0  0  0  0  0
    6.9682  -12.7881   24.9768 C   0  0  0  0  0  0  0  0  0  0  0  0
    6.1413  -13.4307   25.9022 C   0  0  0  0  0  0  0  0  0  0  0  0
    6.1369  -13.1135   27.2401 C   0  0  0  0  0  0  0  0  0  0  0  0
    6.9622  -12.1344   27.7191 C   0  0  0  0  0  0  0  0  0  0  0  0
    7.7932  -11.4747   26.8398 C   0  0  0  0  0  0  0  0  0  0  0  0
    7.7837  -11.8117   25.4857 C   0  0  0  0  0  0  0  0  0  0  0  0
    8.1452  -15.2906   24.1179 C   0  0  0  0  0  0  0  0  0  0  0  0
    7.5463  -16.3549   23.7225 O   0  0  0  0  0  0  0  0  0  0  0  0
   15.4053  -19.0367   22.9456 N   0  0  0  0  0  0  0  0  0  0  0  0
   15.3171  -17.8234   23.6730 C   0  0  0  0  0  0  0  0  0  0  0  0
   16.2345  -16.9547   23.6695 N   0  0  0  0  0  0  0  0  0  0  0  0
   14.1275  -17.6150   24.4301 N   0  0  0  0  0  0  0  0  0  0  0  0
   12.8079  -17.7344   23.8477 C   0  0  0  0  0  0  0  0  0  0  0  0
   11.7761  -17.6201   24.9203 C   0  0  0  0  0  0  0  0  0  0  0  0
   10.7208  -16.6214   24.7294 C   0  0  0  0  0  0  0  0  0  0  0  0
    9.6348  -16.5076   25.7556 C   0  0  2  0  0  0  0  0  0  0  0  0
    8.7823  -15.3805   25.3497 N   0  0  0  0  0  0  0  0  0  0  0  0
   10.0101  -16.4392   27.1449 C   0  0  0  0  0  0  0  0  0  0  0  0
   10.1808  -15.3508   27.7631 O   0  0  0  0  0  0  0  0  0  0  0  0
   10.2272  -17.5688   27.9752 O   0  0  0  0  0  0  0  0  0  0  0  0
  2 12  2  0
  2  1  1  0
  3  2  1  0
  4  5  1  0
  4  3  2  0
  5 11  2  0
  6  5  1  0
  7  6  1  0
  7  8  1  6
  9  7  1  0
  9 10  2  0
 11 12  1  0
 13  9  1  0
 14 13  1  0
 14 22  1  0
 14 15  1  1
 16 17  2  0
 16 15  1  0
 18 17  1  0
 19 18  2  0
 20 19  1  0
 20 21  2  0
 21 16  1  0
 22 32  1  0
 22 23  2  0
 25 24  1  0
 25 27  1  0
 26 25  2  0
 27 28  1  0
 29 28  1  0
 29 30  1  0
 31 30  1  6
 31 33  1  0
 32 31  1  0
 33 35  1  0
 34 33  2  0
M  END
$$$$
