YFR.pdb
     RDKit          3D

 35 36  0  0  1  0  0  0  0  0999 V2000
    6.6472  -15.3203   14.0656 O   0  0  0  0  0  0  0  0  0  0  0  0
    7.3483  -15.0052   15.2285 C   0  0  0  0  0  0  0  0  0  0  0  0
    8.0028  -15.9647   15.9916 C   0  0  0  0  0  0  0  0  0  0  0  0
    8.6952  -15.6683   17.1293 C   0  0  0  0  0  0  0  0  0  0  0  0
    8.7775  -14.3662   17.5833 C   0  0  0  0  0  0  0  0  0  0  0  0
    9.5596  -14.0606   18.8202 C   0  0  0  0  0  0  0  0  0  0  0  0
    9.5430  -15.2895   19.7430 C   0  0  2  0  0  0  0  0  0  0  0  0
    8.3514  -16.0800   19.4752 N   0  0  0  0  0  0  0  0  0  0  0  0
    9.5256  -14.8476   21.1589 C   0  0  0  0  0  0  0  0  0  0  0  0
   10.5419  -14.2957   21.6936 O   0  0  0  0  0  0  0  0  0  0  0  0
    8.1446  -13.3826   16.8593 C   0  0  0  0  0  0  0  0  0  0  0  0
    7.4483  -13.7088   15.7085 C   0  0  0  0  0  0  0  0  0  0  0  0
    8.3699  -15.0160   21.9930 N   0  0  0  0  0  0  0  0  0  0  0  0
    8.3667  -14.5650   23.3965 C   0  0  1  0  0  0  0  0  0  0  0  0
    7.0821  -13.8057   23.6710 C   0  0  0  0  0  0  0  0  0  0  0  0
    7.0403  -13.2878   25.0469 C   0  0  0  0  0  0  0  0  0  0  0  0
    6.4466  -13.9752   26.1091 C   0  0  0  0  0  0  0  0  0  0  0  0
    6.4330  -13.4871   27.3945 C   0  0  0  0  0  0  0  0  0  0  0  0
    7.0144  -12.2834   27.6809 C   0  0  0  0  0  0  0  0  0  0  0  0
    7.6102  -11.5722   26.6619 C   0  0  0  0  0  0  0  0  0  0  0  0
    7.6144  -12.0849   25.3641 C   0  0  0  0  0  0  0  0  0  0  0  0
    8.6055  -15.7196   24.2380 C   0  0  0  0  0  0  0  0  0  0  0  0
    7.6689  -16.5954   24.2985 O   0  0  0  0  0  0  0  0  0  0  0  0
   12.4988  -20.2903   28.7572 N   0  0  0  0  0  0  0  0  0  0  0  0
   12.6757  -21.0872   27.5985 C   0  0  0  0  0  0  0  0  0  0  0  0
   13.7960  -21.5618   27.2582 N   0  0  0  0  0  0  0  0  0  0  0  0
   11.5152  -21.3373   26.8094 N   0  0  0  0  0  0  0  0  0  0  0  0
   10.8016  -20.2806   26.1247 C   0  0  0  0  0  0  0  0  0  0  0  0
   11.6411  -19.0467   26.0977 C   0  0  0  0  0  0  0  0  0  0  0  0
   11.1280  -17.9052   25.3355 C   0  0  0  0  0  0  0  0  0  0  0  0
    9.9006  -17.1985   25.8248 C   0  0  2  0  0  0  0  0  0  0  0  0
    9.7399  -15.9981   24.9909 N   0  0  0  0  0  0  0  0  0  0  0  0
    9.7931  -16.9075   27.2317 C   0  0  0  0  0  0  0  0  0  0  0  0
    9.1369  -17.6245   28.0389 O   0  0  0  0  0  0  0  0  0  0  0  0
   10.4044  -15.7990   27.8721 O   0  0  0  0  0  0  0  0  0  0  0  0
  2 12  2  0
  2  1  1  0
  3  2  1  0
  4  5  1  0
  4  3  2  0
  5 11  2  0
  6  5  1  0
  7  6  1  0
  7  8  1  6
  9  7  1  0
  9 10  2  0
 11 12  1  0
 13  9  1  0
 14 13  1  0
 14 22  1  0
 14 15  1  1
 16 17  2  0
 16 15  1  0
 18 17  1  0
 19 18  2  0
 20 19  1  0
 20 21  2  0
 21 16  1  0
 22 32  1  0
 22 23  2  0
 25 24  1  0
 25 27  1  0
 26 25  2  0
 27 28  1  0
 29 28  1  0
 29 30  1  0
 31 30  1  1
 31 33  1  0
 32 31  1  0
 33 35  1  0
 34 33  2  0
M  END
$$$$
