YFR.pdb
     RDKit          3D

 35 36  0  0  1  0  0  0  0  0999 V2000
    7.9125  -14.5759   13.8703 O   0  0  0  0  0  0  0  0  0  0  0  0
    8.2727  -14.3932   15.2045 C   0  0  0  0  0  0  0  0  0  0  0  0
    9.2707  -15.1394   15.8197 C   0  0  0  0  0  0  0  0  0  0  0  0
    9.6346  -14.9675   17.1234 C   0  0  0  0  0  0  0  0  0  0  0  0
    9.0097  -14.0183   17.9087 C   0  0  0  0  0  0  0  0  0  0  0  0
    9.4389  -13.8315   19.3284 C   0  0  0  0  0  0  0  0  0  0  0  0
    9.3176  -15.1713   20.0716 C   0  0  2  0  0  0  0  0  0  0  0  0
    8.0364  -15.7849   19.7576 N   0  0  0  0  0  0  0  0  0  0  0  0
    9.3999  -14.9376   21.5341 C   0  0  0  0  0  0  0  0  0  0  0  0
   10.4934  -14.5934   22.0899 O   0  0  0  0  0  0  0  0  0  0  0  0
    8.0151  -13.2558   17.3414 C   0  0  0  0  0  0  0  0  0  0  0  0
    7.6639  -13.4495   16.0167 C   0  0  0  0  0  0  0  0  0  0  0  0
    8.2587  -15.0841   22.3920 N   0  0  0  0  0  0  0  0  0  0  0  0
    8.2593  -14.5469   23.7648 C   0  0  1  0  0  0  0  0  0  0  0  0
    6.9534  -13.8149   24.0120 C   0  0  0  0  0  0  0  0  0  0  0  0
    6.8779  -13.2856   25.3821 C   0  0  0  0  0  0  0  0  0  0  0  0
    7.4748  -12.0850   25.7762 C   0  0  0  0  0  0  0  0  0  0  0  0
    7.3786  -11.5929   27.0566 C   0  0  0  0  0  0  0  0  0  0  0  0
    6.6783  -12.2805   28.0084 C   0  0  0  0  0  0  0  0  0  0  0  0
    6.0749  -13.4700   27.6620 C   0  0  0  0  0  0  0  0  0  0  0  0
    6.1834  -13.9523   26.3570 C   0  0  0  0  0  0  0  0  0  0  0  0
    8.5486  -15.6383   24.6723 C   0  0  0  0  0  0  0  0  0  0  0  0
    7.7638  -16.6530   24.6262 O   0  0  0  0  0  0  0  0  0  0  0  0
   12.3721  -22.1235   22.3608 N   0  0  0  0  0  0  0  0  0  0  0  0
   12.4998  -20.7633   22.7383 C   0  0  0  0  0  0  0  0  0  0  0  0
   12.5358  -19.8201   21.8985 N   0  0  0  0  0  0  0  0  0  0  0  0
   12.5915  -20.4916   24.1346 N   0  0  0  0  0  0  0  0  0  0  0  0
   12.6759  -19.1448   24.6577 C   0  0  0  0  0  0  0  0  0  0  0  0
   11.3633  -18.7568   25.2532 C   0  0  0  0  0  0  0  0  0  0  0  0
   11.2568  -17.4080   25.8160 C   0  0  0  0  0  0  0  0  0  0  0  0
    9.9315  -16.9415   26.3370 C   0  0  2  0  0  0  0  0  0  0  0  0
    9.5871  -15.7215   25.5921 N   0  0  0  0  0  0  0  0  0  0  0  0
    9.7742  -16.7784   27.7598 C   0  0  0  0  0  0  0  0  0  0  0  0
    9.6688  -15.6509   28.3200 O   0  0  0  0  0  0  0  0  0  0  0  0
    9.7165  -17.8481   28.6898 O   0  0  0  0  0  0  0  0  0  0  0  0
  2 12  2  0
  2  1  1  0
  3  2  1  0
  4  5  1  0
  4  3  2  0
  5 11  2  0
  6  5  1  0
  7  6  1  0
  7  8  1  1
  9  7  1  0
  9 10  2  0
 11 12  1  0
 13  9  1  0
 14 13  1  0
 14 22  1  0
 14 15  1  1
 16 17  2  0
 16 15  1  0
 18 17  1  0
 19 18  2  0
 20 19  1  0
 20 21  2  0
 21 16  1  0
 22 32  1  0
 22 23  2  0
 25 24  1  0
 25 27  1  0
 26 25  2  0
 27 28  1  0
 29 28  1  0
 29 30  1  0
 31 30  1  1
 31 33  1  0
 32 31  1  0
 33 35  1  0
 34 33  2  0
M  END
$$$$
