YFR.pdb
     RDKit          3D

 35 36  0  0  1  0  0  0  0  0999 V2000
    7.7765  -14.7240   13.7976 O   0  0  0  0  0  0  0  0  0  0  0  0
    7.8011  -14.9001   15.1803 C   0  0  0  0  0  0  0  0  0  0  0  0
    8.0230  -16.1369   15.7739 C   0  0  0  0  0  0  0  0  0  0  0  0
    8.0531  -16.3212   17.1255 C   0  0  0  0  0  0  0  0  0  0  0  0
    7.8592  -15.2572   17.9848 C   0  0  0  0  0  0  0  0  0  0  0  0
    7.9179  -15.4774   19.4623 C   0  0  0  0  0  0  0  0  0  0  0  0
    9.0298  -14.5997   20.0585 C   0  0  2  0  0  0  0  0  0  0  0  0
   10.3188  -15.0348   19.5430 N   0  0  0  0  0  0  0  0  0  0  0  0
    9.0274  -14.7303   21.5361 C   0  0  0  0  0  0  0  0  0  0  0  0
    9.9695  -15.3291   22.1502 O   0  0  0  0  0  0  0  0  0  0  0  0
    7.6359  -14.0133   17.4414 C   0  0  0  0  0  0  0  0  0  0  0  0
    7.6099  -13.8522   16.0671 C   0  0  0  0  0  0  0  0  0  0  0  0
    7.9718  -14.1902   22.3445 N   0  0  0  0  0  0  0  0  0  0  0  0
    8.1735  -13.9066   23.7770 C   0  0  1  0  0  0  0  0  0  0  0  0
    7.1238  -12.9130   24.2390 C   0  0  0  0  0  0  0  0  0  0  0  0
    7.1276  -12.7591   25.7016 C   0  0  0  0  0  0  0  0  0  0  0  0
    8.0102  -11.9171   26.3836 C   0  0  0  0  0  0  0  0  0  0  0  0
    7.9884  -11.7685   27.7504 C   0  0  0  0  0  0  0  0  0  0  0  0
    7.0795  -12.4576   28.5042 C   0  0  0  0  0  0  0  0  0  0  0  0
    6.1913  -13.2999   27.8713 C   0  0  0  0  0  0  0  0  0  0  0  0
    6.2288  -13.4366   26.4831 C   0  0  0  0  0  0  0  0  0  0  0  0
    8.1959  -15.1705   24.4845 C   0  0  0  0  0  0  0  0  0  0  0  0
    7.2319  -15.9841   24.2470 O   0  0  0  0  0  0  0  0  0  0  0  0
   10.9984  -21.5261   21.2234 N   0  0  0  0  0  0  0  0  0  0  0  0
   10.9361  -20.1273   21.4433 C   0  0  0  0  0  0  0  0  0  0  0  0
   11.3368  -19.2821   20.5940 N   0  0  0  0  0  0  0  0  0  0  0  0
   10.3946  -19.6979   22.6900 N   0  0  0  0  0  0  0  0  0  0  0  0
   11.1039  -19.8633   23.9407 C   0  0  0  0  0  0  0  0  0  0  0  0
   10.3689  -19.1546   25.0295 C   0  0  0  0  0  0  0  0  0  0  0  0
   10.0158  -17.7519   24.7950 C   0  0  0  0  0  0  0  0  0  0  0  0
    9.2621  -17.0063   25.8539 C   0  0  2  0  0  0  0  0  0  0  0  0
    9.1479  -15.6142   25.3946 N   0  0  0  0  0  0  0  0  0  0  0  0
    9.7230  -17.0985   27.2158 C   0  0  0  0  0  0  0  0  0  0  0  0
    9.9530  -18.1970   27.7960 O   0  0  0  0  0  0  0  0  0  0  0  0
    9.9735  -15.9838   28.0567 O   0  0  0  0  0  0  0  0  0  0  0  0
  2 12  2  0
  2  1  1  0
  3  2  1  0
  4  5  1  0
  4  3  2  0
  5 11  2  0
  6  5  1  0
  7  6  1  0
  7  8  1  6
  9  7  1  0
  9 10  2  0
 11 12  1  0
 13  9  1  0
 14 13  1  0
 14 22  1  0
 14 15  1  1
 16 17  2  0
 16 15  1  0
 18 17  1  0
 19 18  2  0
 20 19  1  0
 20 21  2  0
 21 16  1  0
 22 32  1  0
 22 23  2  0
 25 24  1  0
 25 27  1  0
 26 25  2  0
 27 28  1  0
 29 28  1  0
 29 30  1  0
 31 30  1  6
 31 33  1  0
 32 31  1  0
 33 35  1  0
 34 33  2  0
M  END
$$$$
