YFR.pdb
     RDKit          3D

 35 36  0  0  1  0  0  0  0  0999 V2000
    7.4084  -13.9328   15.1731 O   0  0  0  0  0  0  0  0  0  0  0  0
    7.5923  -13.9231   16.5549 C   0  0  0  0  0  0  0  0  0  0  0  0
    7.8239  -15.0810   17.2878 C   0  0  0  0  0  0  0  0  0  0  0  0
    8.0089  -15.0840   18.6396 C   0  0  0  0  0  0  0  0  0  0  0  0
    7.9731  -13.9039   19.3568 C   0  0  0  0  0  0  0  0  0  0  0  0
    8.2000  -13.9274   20.8343 C   0  0  0  0  0  0  0  0  0  0  0  0
    8.4464  -15.3766   21.2829 C   0  0  2  0  0  0  0  0  0  0  0  0
    7.2323  -16.1553   21.0930 N   0  0  0  0  0  0  0  0  0  0  0  0
    8.8173  -15.3959   22.7191 C   0  0  0  0  0  0  0  0  0  0  0  0
    9.9531  -14.9770   23.1161 O   0  0  0  0  0  0  0  0  0  0  0  0
    7.7465  -12.7323   18.6726 C   0  0  0  0  0  0  0  0  0  0  0  0
    7.5616  -12.7555   17.3012 C   0  0  0  0  0  0  0  0  0  0  0  0
    7.9206  -15.8824   23.7285 N   0  0  0  0  0  0  0  0  0  0  0  0
    8.2883  -15.8563   25.1558 C   0  0  1  0  0  0  0  0  0  0  0  0
    7.0930  -15.3939   25.9681 C   0  0  0  0  0  0  0  0  0  0  0  0
    7.0451  -13.9281   26.0784 C   0  0  0  0  0  0  0  0  0  0  0  0
    6.0178  -13.1499   25.5378 C   0  0  0  0  0  0  0  0  0  0  0  0
    5.9764  -11.7815   25.6664 C   0  0  0  0  0  0  0  0  0  0  0  0
    6.9641  -11.1227   26.3443 C   0  0  0  0  0  0  0  0  0  0  0  0
    7.9967  -11.8524   26.8922 C   0  0  0  0  0  0  0  0  0  0  0  0
    8.0205  -13.2405   26.7516 C   0  0  0  0  0  0  0  0  0  0  0  0
    8.8189  -17.1581   25.5051 C   0  0  0  0  0  0  0  0  0  0  0  0
    7.9983  -18.1448   25.4747 O   0  0  0  0  0  0  0  0  0  0  0  0
   16.1540  -20.9254   23.3771 N   0  0  0  0  0  0  0  0  0  0  0  0
   16.0175  -19.9639   24.4095 C   0  0  0  0  0  0  0  0  0  0  0  0
   16.9813  -19.2567   24.8185 N   0  0  0  0  0  0  0  0  0  0  0  0
   14.7217  -19.8224   24.9863 N   0  0  0  0  0  0  0  0  0  0  0  0
   13.6119  -20.6745   24.6162 C   0  0  0  0  0  0  0  0  0  0  0  0
   12.4533  -20.4061   25.5182 C   0  0  0  0  0  0  0  0  0  0  0  0
   11.7485  -19.1336   25.3411 C   0  0  0  0  0  0  0  0  0  0  0  0
   10.5777  -18.8234   26.2233 C   0  0  2  0  0  0  0  0  0  0  0  0
   10.1235  -17.4709   25.8677 N   0  0  0  0  0  0  0  0  0  0  0  0
   10.7277  -18.9954   27.6458 C   0  0  0  0  0  0  0  0  0  0  0  0
   10.7954  -18.0290   28.4568 O   0  0  0  0  0  0  0  0  0  0  0  0
   10.8134  -20.2519   28.2987 O   0  0  0  0  0  0  0  0  0  0  0  0
  2 12  2  0
  2  1  1  0
  3  2  1  0
  4  5  1  0
  4  3  2  0
  5 11  2  0
  6  5  1  0
  7  6  1  0
  7  8  1  1
  9  7  1  0
  9 10  2  0
 11 12  1  0
 13  9  1  0
 14 13  1  0
 14 22  1  0
 14 15  1  1
 16 17  2  0
 16 15  1  0
 18 17  1  0
 19 18  2  0
 20 19  1  0
 20 21  2  0
 21 16  1  0
 22 32  1  0
 22 23  2  0
 25 24  1  0
 25 27  1  0
 26 25  2  0
 27 28  1  0
 29 28  1  0
 29 30  1  0
 31 30  1  6
 31 33  1  0
 32 31  1  0
 33 35  1  0
 34 33  2  0
M  END
$$$$
