YFR.pdb
     RDKit          3D

 35 36  0  0  1  0  0  0  0  0999 V2000
    8.0387  -14.1756   13.6806 O   0  0  0  0  0  0  0  0  0  0  0  0
    8.3158  -14.0453   15.0405 C   0  0  0  0  0  0  0  0  0  0  0  0
    7.5693  -13.2293   15.8821 C   0  0  0  0  0  0  0  0  0  0  0  0
    7.8283  -13.0964   17.2151 C   0  0  0  0  0  0  0  0  0  0  0  0
    8.8719  -13.7863   17.8010 C   0  0  0  0  0  0  0  0  0  0  0  0
    9.1246  -13.6429   19.2674 C   0  0  0  0  0  0  0  0  0  0  0  0
    9.1600  -15.0382   19.9110 C   0  0  2  0  0  0  0  0  0  0  0  0
    7.9312  -15.7493   19.5933 N   0  0  0  0  0  0  0  0  0  0  0  0
    9.2774  -14.9033   21.3836 C   0  0  0  0  0  0  0  0  0  0  0  0
   10.4035  -14.6977   21.9427 O   0  0  0  0  0  0  0  0  0  0  0  0
    9.6384  -14.6064   17.0059 C   0  0  0  0  0  0  0  0  0  0  0  0
    9.3556  -14.7242   15.6561 C   0  0  0  0  0  0  0  0  0  0  0  0
    8.1354  -14.9948   22.2480 N   0  0  0  0  0  0  0  0  0  0  0  0
    8.2033  -14.5582   23.6544 C   0  0  1  0  0  0  0  0  0  0  0  0
    6.8506  -14.0104   24.0699 C   0  0  0  0  0  0  0  0  0  0  0  0
    6.8641  -13.5247   25.4581 C   0  0  0  0  0  0  0  0  0  0  0  0
    7.0453  -14.3608   26.5632 C   0  0  0  0  0  0  0  0  0  0  0  0
    7.0755  -13.8890   27.8544 C   0  0  0  0  0  0  0  0  0  0  0  0
    6.9253  -12.5532   28.1038 C   0  0  0  0  0  0  0  0  0  0  0  0
    6.7430  -11.6937   27.0422 C   0  0  0  0  0  0  0  0  0  0  0  0
    6.7161  -12.1918   25.7390 C   0  0  0  0  0  0  0  0  0  0  0  0
    8.7010  -15.6663   24.4435 C   0  0  0  0  0  0  0  0  0  0  0  0
    8.0558  -16.7728   24.3592 O   0  0  0  0  0  0  0  0  0  0  0  0
   15.0983  -20.2132   26.2861 N   0  0  0  0  0  0  0  0  0  0  0  0
   14.3558  -20.9244   25.3105 C   0  0  0  0  0  0  0  0  0  0  0  0
   14.4029  -22.1818   25.1964 N   0  0  0  0  0  0  0  0  0  0  0  0
   13.5359  -20.1500   24.4387 N   0  0  0  0  0  0  0  0  0  0  0  0
   13.5501  -18.7028   24.4447 C   0  0  0  0  0  0  0  0  0  0  0  0
   12.5944  -18.1979   25.4741 C   0  0  0  0  0  0  0  0  0  0  0  0
   11.7138  -17.0933   25.0845 C   0  0  0  0  0  0  0  0  0  0  0  0
   10.4229  -16.8999   25.8203 C   0  0  2  0  0  0  0  0  0  0  0  0
    9.8070  -15.6767   25.2849 N   0  0  0  0  0  0  0  0  0  0  0  0
   10.4467  -16.9168   27.2607 C   0  0  0  0  0  0  0  0  0  0  0  0
   10.8926  -17.8881   27.9344 O   0  0  0  0  0  0  0  0  0  0  0  0
    9.9820  -15.8596   28.0846 O   0  0  0  0  0  0  0  0  0  0  0  0
  2 12  2  0
  2  1  1  0
  3  2  1  0
  4  5  1  0
  4  3  2  0
  5 11  2  0
  6  5  1  0
  7  6  1  0
  7  8  1  1
  9  7  1  0
  9 10  2  0
 11 12  1  0
 13  9  1  0
 14 13  1  0
 14 22  1  0
 14 15  1  1
 16 17  2  0
 16 15  1  0
 18 17  1  0
 19 18  2  0
 20 19  1  0
 20 21  2  0
 21 16  1  0
 22 32  1  0
 22 23  2  0
 25 24  1  0
 25 27  1  0
 26 25  2  0
 27 28  1  0
 29 28  1  0
 29 30  1  0
 31 30  1  6
 31 33  1  0
 32 31  1  0
 33 35  1  0
 34 33  2  0
M  END
$$$$
