YFR.pdb
     RDKit          3D

 35 36  0  0  1  0  0  0  0  0999 V2000
   13.0523  -20.2712   30.4653 O   0  0  0  0  0  0  0  0  0  0  0  0
   11.8800  -19.8700   29.8264 C   0  0  0  0  0  0  0  0  0  0  0  0
   11.0732  -18.8490   30.3138 C   0  0  0  0  0  0  0  0  0  0  0  0
    9.9258  -18.4450   29.6957 C   0  0  0  0  0  0  0  0  0  0  0  0
    9.5061  -19.0501   28.5270 C   0  0  0  0  0  0  0  0  0  0  0  0
    8.2574  -18.5773   27.8545 C   0  0  0  0  0  0  0  0  0  0  0  0
    8.5877  -18.1661   26.4109 C   0  0  2  0  0  0  0  0  0  0  0  0
    9.5029  -17.0353   26.4269 N   0  0  0  0  0  0  0  0  0  0  0  0
    7.3415  -17.7737   25.7085 C   0  0  0  0  0  0  0  0  0  0  0  0
    6.2114  -17.8060   26.2957 O   0  0  0  0  0  0  0  0  0  0  0  0
   10.2739  -20.0664   28.0075 C   0  0  0  0  0  0  0  0  0  0  0  0
   11.4336  -20.4581   28.6533 C   0  0  0  0  0  0  0  0  0  0  0  0
    7.3454  -17.3383   24.3410 N   0  0  0  0  0  0  0  0  0  0  0  0
    7.1633  -15.9183   23.9894 C   0  0  1  0  0  0  0  0  0  0  0  0
    8.1663  -15.0828   24.7630 C   0  0  0  0  0  0  0  0  0  0  0  0
    7.5359  -13.9004   25.3692 C   0  0  0  0  0  0  0  0  0  0  0  0
    7.8776  -12.5884   25.0301 C   0  0  0  0  0  0  0  0  0  0  0  0
    7.2651  -11.4927   25.5913 C   0  0  0  0  0  0  0  0  0  0  0  0
    6.2775  -11.6567   26.5224 C   0  0  0  0  0  0  0  0  0  0  0  0
    5.9106  -12.9341   26.8863 C   0  0  0  0  0  0  0  0  0  0  0  0
    6.5436  -14.0334   26.3047 C   0  0  0  0  0  0  0  0  0  0  0  0
    7.2296  -15.8023   22.5470 C   0  0  0  0  0  0  0  0  0  0  0  0
    6.2134  -16.2231   21.8852 O   0  0  0  0  0  0  0  0  0  0  0  0
   15.5851  -14.0228   20.7062 N   0  0  0  0  0  0  0  0  0  0  0  0
   14.3907  -13.9934   19.9436 C   0  0  0  0  0  0  0  0  0  0  0  0
   14.3504  -13.5810   18.7501 N   0  0  0  0  0  0  0  0  0  0  0  0
   13.2065  -14.4545   20.5892 N   0  0  0  0  0  0  0  0  0  0  0  0
   13.0982  -15.7840   21.1509 C   0  0  0  0  0  0  0  0  0  0  0  0
   11.7491  -16.3461   20.8478 C   0  0  0  0  0  0  0  0  0  0  0  0
   10.5874  -15.5921   21.3266 C   0  0  0  0  0  0  0  0  0  0  0  0
    9.2129  -16.0983   21.0105 C   0  0  2  0  0  0  0  0  0  0  0  0
    8.2693  -15.2804   21.7868 N   0  0  0  0  0  0  0  0  0  0  0  0
    8.9553  -17.5094   21.1450 C   0  0  0  0  0  0  0  0  0  0  0  0
    8.6843  -18.2602   20.1656 O   0  0  0  0  0  0  0  0  0  0  0  0
    8.9773  -18.2168   22.3745 O   0  0  0  0  0  0  0  0  0  0  0  0
  2 12  2  0
  2  1  1  0
  3  2  1  0
  4  5  1  0
  4  3  2  0
  5 11  2  0
  6  5  1  0
  7  6  1  0
  7  8  1  1
  9  7  1  0
  9 10  2  0
 11 12  1  0
 13  9  1  0
 14 13  1  0
 14 22  1  0
 14 15  1  1
 16 17  2  0
 16 15  1  0
 18 17  1  0
 19 18  2  0
 20 19  1  0
 20 21  2  0
 21 16  1  0
 22 32  1  0
 22 23  2  0
 25 24  1  0
 25 27  1  0
 26 25  2  0
 27 28  1  0
 29 28  1  0
 29 30  1  0
 31 30  1  1
 31 33  1  0
 32 31  1  0
 33 35  1  0
 34 33  2  0
M  END
$$$$
