YFR.pdb
     RDKit          3D

 35 36  0  0  1  0  0  0  0  0999 V2000
    6.6818  -12.7571   16.1217 O   0  0  0  0  0  0  0  0  0  0  0  0
    7.3240  -13.0461   17.3247 C   0  0  0  0  0  0  0  0  0  0  0  0
    8.4504  -13.8569   17.3965 C   0  0  0  0  0  0  0  0  0  0  0  0
    9.0897  -14.1440   18.5672 C   0  0  0  0  0  0  0  0  0  0  0  0
    8.6323  -13.6265   19.7636 C   0  0  0  0  0  0  0  0  0  0  0  0
    9.3606  -13.9361   21.0318 C   0  0  0  0  0  0  0  0  0  0  0  0
    9.0335  -15.3749   21.4621 C   0  0  2  0  0  0  0  0  0  0  0  0
    7.6383  -15.6630   21.1674 N   0  0  0  0  0  0  0  0  0  0  0  0
    9.2633  -15.5220   22.9201 C   0  0  0  0  0  0  0  0  0  0  0  0
   10.4206  -15.3617   23.4283 O   0  0  0  0  0  0  0  0  0  0  0  0
    7.5195  -12.8181   19.7406 C   0  0  0  0  0  0  0  0  0  0  0  0
    6.8885  -12.5419   18.5401 C   0  0  0  0  0  0  0  0  0  0  0  0
    8.2002  -15.8480   23.8275 N   0  0  0  0  0  0  0  0  0  0  0  0
    8.4207  -15.8806   25.2846 C   0  0  1  0  0  0  0  0  0  0  0  0
    7.1320  -15.5019   25.9903 C   0  0  0  0  0  0  0  0  0  0  0  0
    7.0633  -14.0573   26.2581 C   0  0  0  0  0  0  0  0  0  0  0  0
    8.1111  -13.3311   26.8308 C   0  0  0  0  0  0  0  0  0  0  0  0
    8.0395  -11.9767   27.0568 C   0  0  0  0  0  0  0  0  0  0  0  0
    6.9122  -11.2804   26.7197 C   0  0  0  0  0  0  0  0  0  0  0  0
    5.8548  -11.9585   26.1533 C   0  0  0  0  0  0  0  0  0  0  0  0
    5.9471  -13.3331   25.9312 C   0  0  0  0  0  0  0  0  0  0  0  0
    8.9651  -17.1789   25.6259 C   0  0  0  0  0  0  0  0  0  0  0  0
    8.1594  -18.1768   25.5717 O   0  0  0  0  0  0  0  0  0  0  0  0
   14.8428  -24.0997   24.6166 N   0  0  0  0  0  0  0  0  0  0  0  0
   14.3235  -22.7822   24.5558 C   0  0  0  0  0  0  0  0  0  0  0  0
   15.0536  -21.7657   24.3833 N   0  0  0  0  0  0  0  0  0  0  0  0
   12.9126  -22.6420   24.7033 N   0  0  0  0  0  0  0  0  0  0  0  0
   12.2350  -21.3784   24.5058 C   0  0  0  0  0  0  0  0  0  0  0  0
   12.5043  -20.4801   25.6670 C   0  0  0  0  0  0  0  0  0  0  0  0
   11.9437  -19.1274   25.6102 C   0  0  0  0  0  0  0  0  0  0  0  0
   10.7207  -18.8140   26.4174 C   0  0  2  0  0  0  0  0  0  0  0  0
   10.2688  -17.4774   26.0035 N   0  0  0  0  0  0  0  0  0  0  0  0
   10.7925  -18.9497   27.8499 C   0  0  0  0  0  0  0  0  0  0  0  0
   10.9159  -17.9661   28.6332 O   0  0  0  0  0  0  0  0  0  0  0  0
   10.7313  -20.1853   28.5441 O   0  0  0  0  0  0  0  0  0  0  0  0
  2 12  2  0
  2  1  1  0
  3  2  1  0
  4  5  1  0
  4  3  2  0
  5 11  2  0
  6  5  1  0
  7  6  1  0
  7  8  1  1
  9  7  1  0
  9 10  2  0
 11 12  1  0
 13  9  1  0
 14 13  1  0
 14 22  1  0
 14 15  1  1
 16 17  2  0
 16 15  1  0
 18 17  1  0
 19 18  2  0
 20 19  1  0
 20 21  2  0
 21 16  1  0
 22 32  1  0
 22 23  2  0
 25 24  1  0
 25 27  1  0
 26 25  2  0
 27 28  1  0
 29 28  1  0
 29 30  1  0
 31 30  1  6
 31 33  1  0
 32 31  1  0
 33 35  1  0
 34 33  2  0
M  END
$$$$
