YFR.pdb
     RDKit          3D

 35 36  0  0  1  0  0  0  0  0999 V2000
    6.6698  -14.4057   14.8911 O   0  0  0  0  0  0  0  0  0  0  0  0
    7.5357  -14.5549   15.9733 C   0  0  0  0  0  0  0  0  0  0  0  0
    7.6627  -13.5936   16.9689 C   0  0  0  0  0  0  0  0  0  0  0  0
    8.5037  -13.7297   18.0346 C   0  0  0  0  0  0  0  0  0  0  0  0
    9.2860  -14.8598   18.1733 C   0  0  0  0  0  0  0  0  0  0  0  0
   10.1845  -14.9983   19.3601 C   0  0  0  0  0  0  0  0  0  0  0  0
    9.6025  -16.0557   20.3116 C   0  0  2  0  0  0  0  0  0  0  0  0
    8.2218  -16.3301   19.9442 N   0  0  0  0  0  0  0  0  0  0  0  0
    9.6437  -15.5472   21.7045 C   0  0  0  0  0  0  0  0  0  0  0  0
   10.7460  -15.2474   22.2684 O   0  0  0  0  0  0  0  0  0  0  0  0
    9.1931  -15.8384   17.2110 C   0  0  0  0  0  0  0  0  0  0  0  0
    8.3326  -15.6767   16.1392 C   0  0  0  0  0  0  0  0  0  0  0  0
    8.4512  -15.3659   22.4823 N   0  0  0  0  0  0  0  0  0  0  0  0
    8.5006  -14.7769   23.8327 C   0  0  1  0  0  0  0  0  0  0  0  0
    7.3679  -13.7782   23.9804 C   0  0  0  0  0  0  0  0  0  0  0  0
    7.3684  -13.1484   25.3095 C   0  0  0  0  0  0  0  0  0  0  0  0
    6.5584  -13.5786   26.3641 C   0  0  0  0  0  0  0  0  0  0  0  0
    6.5846  -12.9922   27.6076 C   0  0  0  0  0  0  0  0  0  0  0  0
    7.4250  -11.9432   27.8574 C   0  0  0  0  0  0  0  0  0  0  0  0
    8.2402  -11.4868   26.8444 C   0  0  0  0  0  0  0  0  0  0  0  0
    8.1996  -12.0958   25.5894 C   0  0  0  0  0  0  0  0  0  0  0  0
    8.5110  -15.8608   24.7936 C   0  0  0  0  0  0  0  0  0  0  0  0
    7.4660  -16.6050   24.8381 O   0  0  0  0  0  0  0  0  0  0  0  0
   12.8838  -19.1204   21.8052 N   0  0  0  0  0  0  0  0  0  0  0  0
   11.5402  -19.4164   21.4644 C   0  0  0  0  0  0  0  0  0  0  0  0
   11.0724  -19.2365   20.3047 N   0  0  0  0  0  0  0  0  0  0  0  0
   10.7144  -19.9343   22.5045 N   0  0  0  0  0  0  0  0  0  0  0  0
   11.0392  -19.7709   23.9053 C   0  0  0  0  0  0  0  0  0  0  0  0
   10.1440  -18.7403   24.5090 C   0  0  0  0  0  0  0  0  0  0  0  0
   10.3494  -18.4225   25.9247 C   0  0  0  0  0  0  0  0  0  0  0  0
    9.4944  -17.3710   26.5640 C   0  0  2  0  0  0  0  0  0  0  0  0
    9.5286  -16.1981   25.6780 N   0  0  0  0  0  0  0  0  0  0  0  0
    9.7469  -17.0267   27.9400 C   0  0  0  0  0  0  0  0  0  0  0  0
   10.1542  -15.8879   28.3053 O   0  0  0  0  0  0  0  0  0  0  0  0
    9.5687  -17.9105   29.0353 O   0  0  0  0  0  0  0  0  0  0  0  0
  2 12  2  0
  2  1  1  0
  3  2  1  0
  4  5  1  0
  4  3  2  0
  5 11  2  0
  6  5  1  0
  7  6  1  0
  7  8  1  6
  9  7  1  0
  9 10  2  0
 11 12  1  0
 13  9  1  0
 14 13  1  0
 14 22  1  0
 14 15  1  1
 16 17  2  0
 16 15  1  0
 18 17  1  0
 19 18  2  0
 20 19  1  0
 20 21  2  0
 21 16  1  0
 22 32  1  0
 22 23  2  0
 25 24  1  0
 25 27  1  0
 26 25  2  0
 27 28  1  0
 29 28  1  0
 29 30  1  0
 31 30  1  6
 31 33  1  0
 32 31  1  0
 33 35  1  0
 34 33  2  0
M  END
$$$$
