YFR.pdb
     RDKit          3D

 35 36  0  0  1  0  0  0  0  0999 V2000
    8.8235  -22.5465   17.2818 O   0  0  0  0  0  0  0  0  0  0  0  0
    9.0498  -21.5813   18.2619 C   0  0  0  0  0  0  0  0  0  0  0  0
    9.3201  -21.9071   19.5855 C   0  0  0  0  0  0  0  0  0  0  0  0
    9.5468  -20.9719   20.5528 C   0  0  0  0  0  0  0  0  0  0  0  0
    9.5168  -19.6246   20.2492 C   0  0  0  0  0  0  0  0  0  0  0  0
    9.7895  -18.6173   21.3196 C   0  0  0  0  0  0  0  0  0  0  0  0
    9.3998  -17.2213   20.8085 C   0  0  2  0  0  0  0  0  0  0  0  0
   10.3019  -16.8288   19.7367 N   0  0  0  0  0  0  0  0  0  0  0  0
    9.5037  -16.2397   21.9159 C   0  0  0  0  0  0  0  0  0  0  0  0
   10.6308  -15.7763   22.2873 O   0  0  0  0  0  0  0  0  0  0  0  0
    9.2528  -19.2552   18.9507 C   0  0  0  0  0  0  0  0  0  0  0  0
    9.0259  -20.2229   17.9875 C   0  0  0  0  0  0  0  0  0  0  0  0
    8.3471  -15.7633   22.6194 N   0  0  0  0  0  0  0  0  0  0  0  0
    8.4665  -14.7787   23.7100 C   0  0  1  0  0  0  0  0  0  0  0  0
    7.2803  -13.8340   23.6580 C   0  0  0  0  0  0  0  0  0  0  0  0
    7.2515  -12.9331   24.8202 C   0  0  0  0  0  0  0  0  0  0  0  0
    7.9485  -11.7228   24.8718 C   0  0  0  0  0  0  0  0  0  0  0  0
    7.8958  -10.8813   25.9580 C   0  0  0  0  0  0  0  0  0  0  0  0
    7.1409  -11.2107   27.0492 C   0  0  0  0  0  0  0  0  0  0  0  0
    6.4385  -12.3963   27.0399 C   0  0  0  0  0  0  0  0  0  0  0  0
    6.5041  -13.2365   25.9277 C   0  0  0  0  0  0  0  0  0  0  0  0
    8.6367  -15.5048   24.9518 C   0  0  0  0  0  0  0  0  0  0  0  0
    8.1543  -16.6935   24.9981 O   0  0  0  0  0  0  0  0  0  0  0  0
   16.8189  -15.8945   25.7663 N   0  0  0  0  0  0  0  0  0  0  0  0
   16.3376  -17.2114   25.9739 C   0  0  0  0  0  0  0  0  0  0  0  0
   17.1038  -18.2045   26.1256 N   0  0  0  0  0  0  0  0  0  0  0  0
   14.9224  -17.3795   26.0028 N   0  0  0  0  0  0  0  0  0  0  0  0
   14.0073  -16.2826   25.7705 C   0  0  0  0  0  0  0  0  0  0  0  0
   12.6086  -16.7357   26.0277 C   0  0  0  0  0  0  0  0  0  0  0  0
   11.5434  -15.7423   25.8665 C   0  0  0  0  0  0  0  0  0  0  0  0
   10.3563  -15.7961   26.7794 C   0  0  2  0  0  0  0  0  0  0  0  0
    9.2702  -15.0666   26.1085 N   0  0  0  0  0  0  0  0  0  0  0  0
   10.5275  -15.3866   28.1500 C   0  0  0  0  0  0  0  0  0  0  0  0
   10.1981  -14.2443   28.5776 O   0  0  0  0  0  0  0  0  0  0  0  0
   11.0758  -16.2050   29.1709 O   0  0  0  0  0  0  0  0  0  0  0  0
  2 12  2  0
  2  1  1  0
  3  2  1  0
  4  5  1  0
  4  3  2  0
  5 11  2  0
  6  5  1  0
  7  6  1  0
  7  8  1  6
  9  7  1  0
  9 10  2  0
 11 12  1  0
 13  9  1  0
 14 13  1  0
 14 22  1  0
 14 15  1  1
 16 17  2  0
 16 15  1  0
 18 17  1  0
 19 18  2  0
 20 19  1  0
 20 21  2  0
 21 16  1  0
 22 32  1  0
 22 23  2  0
 25 24  1  0
 25 27  1  0
 26 25  2  0
 27 28  1  0
 29 28  1  0
 29 30  1  0
 31 30  1  6
 31 33  1  0
 32 31  1  0
 33 35  1  0
 34 33  2  0
M  END
$$$$
