YFR.pdb
     RDKit          3D

 35 36  0  0  1  0  0  0  0  0999 V2000
    6.9336  -13.3869   16.0038 O   0  0  0  0  0  0  0  0  0  0  0  0
    7.1357  -13.4865   17.3794 C   0  0  0  0  0  0  0  0  0  0  0  0
    8.1048  -12.7494   18.0494 C   0  0  0  0  0  0  0  0  0  0  0  0
    8.3096  -12.8355   19.3956 C   0  0  0  0  0  0  0  0  0  0  0  0
    7.5413  -13.6819   20.1712 C   0  0  0  0  0  0  0  0  0  0  0  0
    7.7679  -13.7446   21.6475 C   0  0  0  0  0  0  0  0  0  0  0  0
    8.6273  -14.9764   21.9732 C   0  0  2  0  0  0  0  0  0  0  0  0
    7.8690  -16.1849   21.6886 N   0  0  0  0  0  0  0  0  0  0  0  0
    8.9951  -14.9598   23.4102 C   0  0  0  0  0  0  0  0  0  0  0  0
    9.7465  -14.0507   23.8917 O   0  0  0  0  0  0  0  0  0  0  0  0
    6.5693  -14.4316   19.5503 C   0  0  0  0  0  0  0  0  0  0  0  0
    6.3811  -14.3266   18.1831 C   0  0  0  0  0  0  0  0  0  0  0  0
    8.5245  -15.9595   24.3262 N   0  0  0  0  0  0  0  0  0  0  0  0
    8.8724  -15.9103   25.7578 C   0  0  1  0  0  0  0  0  0  0  0  0
    7.6222  -15.6066   26.5623 C   0  0  0  0  0  0  0  0  0  0  0  0
    7.2053  -14.2044   26.4102 C   0  0  0  0  0  0  0  0  0  0  0  0
    5.9561  -13.8237   25.9126 C   0  0  0  0  0  0  0  0  0  0  0  0
    5.5730  -12.5084   25.7950 C   0  0  0  0  0  0  0  0  0  0  0  0
    6.4239  -11.5064   26.1706 C   0  0  0  0  0  0  0  0  0  0  0  0
    7.6664  -11.8382   26.6656 C   0  0  0  0  0  0  0  0  0  0  0  0
    8.0364  -13.1790   26.7781 C   0  0  0  0  0  0  0  0  0  0  0  0
    9.5521  -17.1440   26.0958 C   0  0  0  0  0  0  0  0  0  0  0  0
    9.7981  -17.3475   27.3392 O   0  0  0  0  0  0  0  0  0  0  0  0
   14.3285  -14.8342   19.9833 N   0  0  0  0  0  0  0  0  0  0  0  0
   15.1960  -15.7577   20.6187 C   0  0  0  0  0  0  0  0  0  0  0  0
   16.4408  -15.7868   20.4045 N   0  0  0  0  0  0  0  0  0  0  0  0
   14.5976  -16.6775   21.5285 N   0  0  0  0  0  0  0  0  0  0  0  0
   13.2572  -16.4963   22.0436 C   0  0  0  0  0  0  0  0  0  0  0  0
   12.8917  -17.6588   22.9055 C   0  0  0  0  0  0  0  0  0  0  0  0
   11.5692  -17.6341   23.5361 C   0  0  0  0  0  0  0  0  0  0  0  0
   11.3686  -18.3614   24.8308 C   0  0  2  0  0  0  0  0  0  0  0  0
    9.9693  -18.1457   25.2276 N   0  0  0  0  0  0  0  0  0  0  0  0
   12.2900  -18.1071   25.9087 C   0  0  0  0  0  0  0  0  0  0  0  0
   13.4534  -18.5975   25.9554 O   0  0  0  0  0  0  0  0  0  0  0  0
   12.0078  -17.2852   27.0301 O   0  0  0  0  0  0  0  0  0  0  0  0
  2 12  2  0
  2  1  1  0
  3  2  1  0
  4  5  1  0
  4  3  2  0
  5 11  2  0
  6  5  1  0
  7  6  1  0
  7  8  1  1
  9  7  1  0
  9 10  2  0
 11 12  1  0
 13  9  1  0
 14 13  1  0
 14 22  1  0
 14 15  1  1
 16 17  2  0
 16 15  1  0
 18 17  1  0
 19 18  2  0
 20 19  1  0
 20 21  2  0
 21 16  1  0
 22 32  1  0
 22 23  2  0
 25 24  1  0
 25 27  1  0
 26 25  2  0
 27 28  1  0
 29 28  1  0
 29 30  1  0
 31 30  1  6
 31 33  1  0
 32 31  1  0
 33 35  1  0
 34 33  2  0
M  END
$$$$
