YFR.pdb
     RDKit          3D

 35 36  0  0  1  0  0  0  0  0999 V2000
    7.6404  -14.7527   13.6665 O   0  0  0  0  0  0  0  0  0  0  0  0
    8.0228  -14.5634   14.9936 C   0  0  0  0  0  0  0  0  0  0  0  0
    7.5197  -13.5327   15.7783 C   0  0  0  0  0  0  0  0  0  0  0  0
    7.8834  -13.3394   17.0791 C   0  0  0  0  0  0  0  0  0  0  0  0
    8.7918  -14.1832   17.6881 C   0  0  0  0  0  0  0  0  0  0  0  0
    9.1598  -13.9664   19.1208 C   0  0  0  0  0  0  0  0  0  0  0  0
    9.0244  -15.2946   19.8820 C   0  0  2  0  0  0  0  0  0  0  0  0
    7.6810  -15.8224   19.6996 N   0  0  0  0  0  0  0  0  0  0  0  0
    9.2650  -15.0656   21.3277 C   0  0  0  0  0  0  0  0  0  0  0  0
   10.4328  -14.8215   21.7748 O   0  0  0  0  0  0  0  0  0  0  0  0
    9.3164  -15.2181   16.9492 C   0  0  0  0  0  0  0  0  0  0  0  0
    8.9317  -15.3931   15.6313 C   0  0  0  0  0  0  0  0  0  0  0  0
    8.2012  -15.1047   22.2903 N   0  0  0  0  0  0  0  0  0  0  0  0
    8.4111  -14.6641   23.6813 C   0  0  1  0  0  0  0  0  0  0  0  0
    7.2644  -13.7602   24.0940 C   0  0  0  0  0  0  0  0  0  0  0  0
    7.4325  -13.2619   25.4675 C   0  0  0  0  0  0  0  0  0  0  0  0
    6.9461  -13.9322   26.5933 C   0  0  0  0  0  0  0  0  0  0  0  0
    7.1286  -13.4637   27.8731 C   0  0  0  0  0  0  0  0  0  0  0  0
    7.8087  -12.2977   28.0898 C   0  0  0  0  0  0  0  0  0  0  0  0
    8.3041  -11.6043   27.0069 C   0  0  0  0  0  0  0  0  0  0  0  0
    8.1093  -12.0967   25.7157 C   0  0  0  0  0  0  0  0  0  0  0  0
    8.6067  -15.8433   24.4995 C   0  0  0  0  0  0  0  0  0  0  0  0
    7.6701  -16.7209   24.4834 O   0  0  0  0  0  0  0  0  0  0  0  0
   11.1234  -19.6713   21.8081 N   0  0  0  0  0  0  0  0  0  0  0  0
   12.2004  -18.8384   21.4136 C   0  0  0  0  0  0  0  0  0  0  0  0
   12.3848  -18.4785   20.2167 N   0  0  0  0  0  0  0  0  0  0  0  0
   13.0920  -18.4138   22.4415 N   0  0  0  0  0  0  0  0  0  0  0  0
   12.8257  -18.6504   23.8443 C   0  0  0  0  0  0  0  0  0  0  0  0
   11.5021  -18.0637   24.2076 C   0  0  0  0  0  0  0  0  0  0  0  0
   11.1726  -17.9887   25.6335 C   0  0  0  0  0  0  0  0  0  0  0  0
    9.8554  -17.4042   26.0443 C   0  0  2  0  0  0  0  0  0  0  0  0
    9.6997  -16.1436   25.3036 N   0  0  0  0  0  0  0  0  0  0  0  0
    9.5830  -17.2514   27.4507 C   0  0  0  0  0  0  0  0  0  0  0  0
    9.7764  -16.1733   28.0803 O   0  0  0  0  0  0  0  0  0  0  0  0
    9.0695  -18.2768   28.2859 O   0  0  0  0  0  0  0  0  0  0  0  0
  2 12  2  0
  2  1  1  0
  3  2  1  0
  4  5  1  0
  4  3  2  0
  5 11  2  0
  6  5  1  0
  7  6  1  0
  7  8  1  1
  9  7  1  0
  9 10  2  0
 11 12  1  0
 13  9  1  0
 14 13  1  0
 14 22  1  0
 14 15  1  1
 16 17  2  0
 16 15  1  0
 18 17  1  0
 19 18  2  0
 20 19  1  0
 20 21  2  0
 21 16  1  0
 22 32  1  0
 22 23  2  0
 25 24  1  0
 25 27  1  0
 26 25  2  0
 27 28  1  0
 29 28  1  0
 29 30  1  0
 31 30  1  1
 31 33  1  0
 32 31  1  0
 33 35  1  0
 34 33  2  0
M  END
$$$$
