MPG.pdb
     RDKit          3D

 20 20  0  0  1  0  0  0  0  0999 V2000
   18.8265  -11.9317  -21.6851 C   0  0  0  0  0  0  0  0  0  0  0  0
   19.1895  -10.6382  -20.5018 S   0  0  0  0  0  0  0  0  0  0  0  0
   19.2685  -11.1941  -18.8122 C   0  0  0  0  0  0  0  0  0  0  0  0
   19.5592  -10.1625  -17.7885 C   0  0  0  0  0  0  0  0  0  0  0  0
   19.4986  -10.5896  -16.3634 C   0  0  2  0  0  0  0  0  0  0  0  0
   18.1977  -11.0403  -16.0216 N   0  0  0  0  0  0  0  0  0  0  0  0
   20.1095   -9.5932  -15.4535 C   0  0  0  0  0  0  0  0  0  0  0  0
   19.4041   -8.5239  -15.3442 O   0  0  0  0  0  0  0  0  0  0  0  0
   21.3011   -9.6879  -14.7428 N   0  0  0  0  0  0  0  0  0  0  0  0
   21.6940  -10.9324  -14.0412 C   0  0  0  0  0  0  0  0  0  0  0  0
   23.2200  -10.9618  -14.2015 C   0  0  0  0  0  0  0  0  0  0  0  0
   23.5544   -9.6836  -14.9828 C   0  0  0  0  0  0  0  0  0  0  0  0
   22.3919   -8.8161  -14.4288 C   0  0  1  0  0  0  0  0  0  0  0  0
   22.4368   -7.4751  -14.9058 C   0  0  0  0  0  0  0  0  0  0  0  0
   22.5767   -7.0907  -16.0611 O   0  0  0  0  0  0  0  0  0  0  0  0
   22.3019   -6.4300  -13.9129 N   0  0  0  0  0  0  0  0  0  0  0  0
   22.3295   -5.0524  -14.2849 C   0  0  0  0  0  0  0  0  0  0  0  0
   20.9668   -4.6165  -14.6693 C   0  0  0  0  0  0  0  0  0  0  0  0
   20.6621   -3.9893  -15.8653 O   0  0  0  0  0  0  0  0  0  0  0  0
   20.0095   -4.8141  -13.8836 O   0  0  0  0  0  0  0  0  0  0  0  0
  1  2  1  0
  3  2  1  0
  4  3  1  0
  5  4  1  0
  5  6  1  1
  7  8  2  0
  7  5  1  0
  9  7  1  0
 10  9  1  0
 11 12  1  0
 11 10  1  0
 12 13  1  0
 13  9  1  0
 14 15  2  0
 13 14  1  6
 16 14  1  0
 17 16  1  0
 18 17  1  0
 19 18  1  0
 20 18  2  0
M  END
$$$$
