MPG.pdb
     RDKit          3D

 20 20  0  0  1  0  0  0  0  0999 V2000
   26.0752  -14.8956  -15.5633 C   0  0  0  0  0  0  0  0  0  0  0  0
   27.5689  -13.9718  -15.2162 S   0  0  0  0  0  0  0  0  0  0  0  0
   27.8530  -12.6011  -16.3164 C   0  0  0  0  0  0  0  0  0  0  0  0
   26.9488  -11.4359  -16.1700 C   0  0  0  0  0  0  0  0  0  0  0  0
   27.0566  -10.3643  -17.1981 C   0  0  2  0  0  0  0  0  0  0  0  0
   28.4080   -9.9788  -17.3922 N   0  0  0  0  0  0  0  0  0  0  0  0
   26.0866   -9.2686  -16.9691 C   0  0  0  0  0  0  0  0  0  0  0  0
   26.4436   -8.4818  -16.0170 O   0  0  0  0  0  0  0  0  0  0  0  0
   24.8952   -9.0148  -17.6399 N   0  0  0  0  0  0  0  0  0  0  0  0
   24.7379   -9.3000  -19.0853 C   0  0  0  0  0  0  0  0  0  0  0  0
   23.2742   -9.7472  -19.2001 C   0  0  0  0  0  0  0  0  0  0  0  0
   22.7236   -9.6491  -17.7707 C   0  0  0  0  0  0  0  0  0  0  0  0
   23.6159   -8.4658  -17.3072 C   0  0  1  0  0  0  0  0  0  0  0  0
   23.3089   -8.0366  -15.9847 C   0  0  0  0  0  0  0  0  0  0  0  0
   23.5180   -8.6295  -14.9326 O   0  0  0  0  0  0  0  0  0  0  0  0
   22.6714   -6.7430  -15.8554 N   0  0  0  0  0  0  0  0  0  0  0  0
   22.1657   -6.2931  -14.5989 C   0  0  0  0  0  0  0  0  0  0  0  0
   21.5559   -4.9530  -14.7624 C   0  0  0  0  0  0  0  0  0  0  0  0
   22.2228   -3.7635  -14.5235 O   0  0  0  0  0  0  0  0  0  0  0  0
   20.3635   -4.8577  -15.1392 O   0  0  0  0  0  0  0  0  0  0  0  0
  1  2  1  0
  3  2  1  0
  4  3  1  0
  5  4  1  0
  5  6  1  1
  7  8  2  0
  7  5  1  0
  9  7  1  0
 10  9  1  0
 11 12  1  0
 11 10  1  0
 12 13  1  0
 13  9  1  0
 14 15  2  0
 13 14  1  1
 16 14  1  0
 17 16  1  0
 18 17  1  0
 19 18  1  0
 20 18  2  0
M  END
$$$$
