MPG.pdb
     RDKit          3D

 20 20  0  0  1  0  0  0  0  0999 V2000
   26.8404  -16.0894  -14.0286 C   0  0  0  0  0  0  0  0  0  0  0  0
   26.6376  -16.6787  -15.7069 S   0  0  0  0  0  0  0  0  0  0  0  0
   26.9982  -18.4088  -15.9229 C   0  0  0  0  0  0  0  0  0  0  0  0
   27.7556  -19.0684  -14.8330 C   0  0  0  0  0  0  0  0  0  0  0  0
   27.6148  -20.5457  -14.7112 C   0  0  2  0  0  0  0  0  0  0  0  0
   28.1735  -21.2050  -15.8363 N   0  0  0  0  0  0  0  0  0  0  0  0
   26.2418  -20.9480  -14.3281 C   0  0  0  0  0  0  0  0  0  0  0  0
   25.4501  -21.0315  -15.3377 O   0  0  0  0  0  0  0  0  0  0  0  0
   25.7460  -21.2304  -13.0599 N   0  0  0  0  0  0  0  0  0  0  0  0
   26.6054  -21.7990  -11.9953 C   0  0  0  0  0  0  0  0  0  0  0  0
   26.0617  -21.1474  -10.7165 C   0  0  0  0  0  0  0  0  0  0  0  0
   24.9006  -20.2637  -11.1929 C   0  0  0  0  0  0  0  0  0  0  0  0
   24.4786  -21.1440  -12.4004 C   0  0  1  0  0  0  0  0  0  0  0  0
   23.3241  -20.6409  -13.0650 C   0  0  0  0  0  0  0  0  0  0  0  0
   23.1211  -19.4996  -13.4625 O   0  0  0  0  0  0  0  0  0  0  0  0
   22.2528  -21.5849  -13.3054 N   0  0  0  0  0  0  0  0  0  0  0  0
   21.0166  -21.1650  -13.8820 C   0  0  0  0  0  0  0  0  0  0  0  0
   20.0824  -20.7578  -12.8069 C   0  0  0  0  0  0  0  0  0  0  0  0
   18.9214  -20.0348  -13.0214 O   0  0  0  0  0  0  0  0  0  0  0  0
   20.3317  -21.0727  -11.6187 O   0  0  0  0  0  0  0  0  0  0  0  0
  1  2  1  0
  3  2  1  0
  4  3  1  0
  5  4  1  0
  5  6  1  6
  7  8  2  0
  7  5  1  0
  9  7  1  0
 10  9  1  0
 11 12  1  0
 11 10  1  0
 12 13  1  0
 13  9  1  0
 14 15  2  0
 13 14  1  6
 16 14  1  0
 17 16  1  0
 18 17  1  0
 19 18  1  0
 20 18  2  0
M  END
$$$$
