MPG.pdb
     RDKit          3D

 20 20  0  0  1  0  0  0  0  0999 V2000
   24.2004  -10.9180  -22.6242 C   0  0  0  0  0  0  0  0  0  0  0  0
   23.4808  -12.5172  -22.2636 S   0  0  0  0  0  0  0  0  0  0  0  0
   23.7732  -13.0932  -20.6045 C   0  0  0  0  0  0  0  0  0  0  0  0
   23.5465  -12.1151  -19.5144 C   0  0  0  0  0  0  0  0  0  0  0  0
   23.5829  -12.6373  -18.1205 C   0  0  2  0  0  0  0  0  0  0  0  0
   22.6842  -13.7231  -17.9597 N   0  0  0  0  0  0  0  0  0  0  0  0
   23.4924  -11.5543  -17.1140 C   0  0  0  0  0  0  0  0  0  0  0  0
   22.2963  -11.1030  -16.9780 O   0  0  0  0  0  0  0  0  0  0  0  0
   24.5101  -11.0048  -16.3418 N   0  0  0  0  0  0  0  0  0  0  0  0
   25.5491  -11.8484  -15.7061 C   0  0  0  0  0  0  0  0  0  0  0  0
   26.8075  -10.9726  -15.7769 C   0  0  0  0  0  0  0  0  0  0  0  0
   26.3404   -9.6728  -16.4464 C   0  0  0  0  0  0  0  0  0  0  0  0
   24.8857   -9.6950  -15.9037 C   0  0  1  0  0  0  0  0  0  0  0  0
   24.1444   -8.5399  -16.2830 C   0  0  0  0  0  0  0  0  0  0  0  0
   23.9401   -8.1136  -17.4137 O   0  0  0  0  0  0  0  0  0  0  0  0
   23.5558   -7.7671  -15.2093 N   0  0  0  0  0  0  0  0  0  0  0  0
   22.7650   -6.6107  -15.4818 C   0  0  0  0  0  0  0  0  0  0  0  0
   22.2875   -6.0264  -14.2069 C   0  0  0  0  0  0  0  0  0  0  0  0
   22.5383   -4.7243  -13.8089 O   0  0  0  0  0  0  0  0  0  0  0  0
   21.6121   -6.7302  -13.4185 O   0  0  0  0  0  0  0  0  0  0  0  0
  1  2  1  0
  3  2  1  0
  4  3  1  0
  5  4  1  0
  5  6  1  6
  7  8  2  0
  7  5  1  0
  9  7  1  0
 10  9  1  0
 11 12  1  0
 11 10  1  0
 12 13  1  0
 13  9  1  0
 14 15  2  0
 13 14  1  6
 16 14  1  0
 17 16  1  0
 18 17  1  0
 19 18  1  0
 20 18  2  0
M  END
$$$$
