MPG.pdb
     RDKit          3D

 20 20  0  0  1  0  0  0  0  0999 V2000
   34.7690  -28.1704  -22.8730 C   0  0  0  0  0  0  0  0  0  0  0  0
   35.5907  -29.1304  -21.6048 S   0  0  0  0  0  0  0  0  0  0  0  0
   35.9122  -28.2325  -20.1013 C   0  0  0  0  0  0  0  0  0  0  0  0
   34.7867  -27.4427  -19.5481 C   0  0  0  0  0  0  0  0  0  0  0  0
   35.0393  -26.7041  -18.2802 C   0  0  2  0  0  0  0  0  0  0  0  0
   34.5386  -27.4223  -17.1640 N   0  0  0  0  0  0  0  0  0  0  0  0
   34.6473  -25.2788  -18.3746 C   0  0  0  0  0  0  0  0  0  0  0  0
   33.3726  -25.1129  -18.3521 O   0  0  0  0  0  0  0  0  0  0  0  0
   35.4689  -24.1616  -18.4784 N   0  0  0  0  0  0  0  0  0  0  0  0
   36.8370  -24.1439  -17.9098 C   0  0  0  0  0  0  0  0  0  0  0  0
   37.6248  -23.2881  -18.9110 C   0  0  0  0  0  0  0  0  0  0  0  0
   36.5916  -22.8755  -19.9685 C   0  0  0  0  0  0  0  0  0  0  0  0
   35.3597  -22.8428  -19.0238 C   0  0  1  0  0  0  0  0  0  0  0  0
   34.1772  -22.4039  -19.6846 C   0  0  0  0  0  0  0  0  0  0  0  0
   34.0167  -22.1937  -20.8813 O   0  0  0  0  0  0  0  0  0  0  0  0
   33.0164  -22.1745  -18.8500 N   0  0  0  0  0  0  0  0  0  0  0  0
   31.7729  -21.7607  -19.4152 C   0  0  0  0  0  0  0  0  0  0  0  0
   31.1503  -22.9002  -20.1283 C   0  0  0  0  0  0  0  0  0  0  0  0
   31.0461  -22.9889  -21.5060 O   0  0  0  0  0  0  0  0  0  0  0  0
   30.6794  -23.8587  -19.4706 O   0  0  0  0  0  0  0  0  0  0  0  0
  1  2  1  0
  3  2  1  0
  4  3  1  0
  5  4  1  0
  5  6  1  1
  7  8  2  0
  7  5  1  0
  9  7  1  0
 10  9  1  0
 11 12  1  0
 11 10  1  0
 12 13  1  0
 13  9  1  0
 14 15  2  0
 13 14  1  6
 16 14  1  0
 17 16  1  0
 18 17  1  0
 19 18  1  0
 20 18  2  0
M  END
$$$$
