MPG.pdb
     RDKit          3D

 20 20  0  0  1  0  0  0  0  0999 V2000
   19.0376  -17.2293  -13.0483 C   0  0  0  0  0  0  0  0  0  0  0  0
   20.5462  -18.1101  -12.6567 S   0  0  0  0  0  0  0  0  0  0  0  0
   21.4103  -18.7476  -14.0769 C   0  0  0  0  0  0  0  0  0  0  0  0
   22.6270  -19.5496  -13.8068 C   0  0  0  0  0  0  0  0  0  0  0  0
   23.4285  -19.9783  -14.9861 C   0  0  2  0  0  0  0  0  0  0  0  0
   22.6120  -20.6257  -15.9488 N   0  0  0  0  0  0  0  0  0  0  0  0
   24.6689  -20.6862  -14.5931 C   0  0  0  0  0  0  0  0  0  0  0  0
   24.4461  -21.8819  -14.1765 O   0  0  0  0  0  0  0  0  0  0  0  0
   25.9782  -20.2189  -14.6264 N   0  0  0  0  0  0  0  0  0  0  0  0
   26.4658  -19.3416  -15.7163 C   0  0  0  0  0  0  0  0  0  0  0  0
   27.4552  -18.4094  -15.0038 C   0  0  0  0  0  0  0  0  0  0  0  0
   27.4467  -18.8766  -13.5417 C   0  0  0  0  0  0  0  0  0  0  0  0
   27.1542  -20.3749  -13.8256 C   0  0  1  0  0  0  0  0  0  0  0  0
   27.1510  -21.1640  -12.6404 C   0  0  0  0  0  0  0  0  0  0  0  0
   28.1098  -21.6732  -12.0717 O   0  0  0  0  0  0  0  0  0  0  0  0
   25.8626  -21.4002  -12.0234 N   0  0  0  0  0  0  0  0  0  0  0  0
   25.7574  -21.7186  -10.6361 C   0  0  0  0  0  0  0  0  0  0  0  0
   25.6866  -20.4677   -9.8456 C   0  0  0  0  0  0  0  0  0  0  0  0
   25.4003  -20.4214   -8.4918 O   0  0  0  0  0  0  0  0  0  0  0  0
   25.8941  -19.3669  -10.4097 O   0  0  0  0  0  0  0  0  0  0  0  0
  1  2  1  0
  3  2  1  0
  4  3  1  0
  5  4  1  0
  5  6  1  6
  7  8  2  0
  7  5  1  0
  9  7  1  0
 10  9  1  0
 11 12  1  0
 11 10  1  0
 12 13  1  0
 13  9  1  0
 14 15  2  0
 13 14  1  1
 16 14  1  0
 17 16  1  0
 18 17  1  0
 19 18  1  0
 20 18  2  0
M  END
$$$$
