MPG.pdb
     RDKit          3D

 20 20  0  0  1  0  0  0  0  0999 V2000
   18.8635  -30.9189  -17.0820 C   0  0  0  0  0  0  0  0  0  0  0  0
   19.4244  -30.3898  -18.6978 S   0  0  0  0  0  0  0  0  0  0  0  0
   20.7834  -29.2402  -18.6597 C   0  0  0  0  0  0  0  0  0  0  0  0
   20.8212  -28.2972  -17.5169 C   0  0  0  0  0  0  0  0  0  0  0  0
   21.9919  -27.3807  -17.4363 C   0  0  2  0  0  0  0  0  0  0  0  0
   23.1938  -28.0599  -17.7631 N   0  0  0  0  0  0  0  0  0  0  0  0
   22.0018  -26.5934  -16.1818 C   0  0  0  0  0  0  0  0  0  0  0  0
   22.6547  -27.1730  -15.2381 O   0  0  0  0  0  0  0  0  0  0  0  0
   21.4115  -25.3594  -15.9311 N   0  0  0  0  0  0  0  0  0  0  0  0
   21.2356  -24.3476  -16.9992 C   0  0  0  0  0  0  0  0  0  0  0  0
   19.9058  -23.6745  -16.6329 C   0  0  0  0  0  0  0  0  0  0  0  0
   19.4556  -24.3769  -15.3445 C   0  0  0  0  0  0  0  0  0  0  0  0
   20.8743  -24.6807  -14.7913 C   0  0  1  0  0  0  0  0  0  0  0  0
   20.8391  -25.2928  -13.5061 C   0  0  0  0  0  0  0  0  0  0  0  0
   20.4134  -24.8208  -12.4582 O   0  0  0  0  0  0  0  0  0  0  0  0
   21.3684  -26.6374  -13.4147 N   0  0  0  0  0  0  0  0  0  0  0  0
   21.3623  -27.3490  -12.1776 C   0  0  0  0  0  0  0  0  0  0  0  0
   20.0454  -28.0006  -11.9884 C   0  0  0  0  0  0  0  0  0  0  0  0
   19.7782  -28.9375  -11.0047 O   0  0  0  0  0  0  0  0  0  0  0  0
   19.0942  -27.7059  -12.7509 O   0  0  0  0  0  0  0  0  0  0  0  0
  1  2  1  0
  3  2  1  0
  4  3  1  0
  5  4  1  0
  5  6  1  1
  7  8  2  0
  7  5  1  0
  9  7  1  0
 10  9  1  0
 11 12  1  0
 11 10  1  0
 12 13  1  0
 13  9  1  0
 14 15  2  0
 13 14  1  1
 16 14  1  0
 17 16  1  0
 18 17  1  0
 19 18  1  0
 20 18  2  0
M  END
$$$$
