MPG.pdb
     RDKit          3D

 20 20  0  0  1  0  0  0  0  0999 V2000
   13.4806  -24.6576    0.0826 C   0  0  0  0  0  0  0  0  0  0  0  0
   14.4933  -25.9662    0.7661 S   0  0  0  0  0  0  0  0  0  0  0  0
   15.7329  -26.5898   -0.3494 C   0  0  0  0  0  0  0  0  0  0  0  0
   15.5783  -26.2305   -1.7790 C   0  0  0  0  0  0  0  0  0  0  0  0
   16.7920  -26.3317   -2.6356 C   0  0  2  0  0  0  0  0  0  0  0  0
   16.4944  -25.9982   -3.9820 N   0  0  0  0  0  0  0  0  0  0  0  0
   17.5264  -27.5996   -2.4191 C   0  0  0  0  0  0  0  0  0  0  0  0
   16.7748  -28.6352   -2.5444 O   0  0  0  0  0  0  0  0  0  0  0  0
   18.8710  -27.7781   -2.1120 N   0  0  0  0  0  0  0  0  0  0  0  0
   19.9077  -26.8201   -2.5624 C   0  0  0  0  0  0  0  0  0  0  0  0
   20.9132  -26.8164   -1.4029 C   0  0  0  0  0  0  0  0  0  0  0  0
   20.3420  -27.8170   -0.3888 C   0  0  0  0  0  0  0  0  0  0  0  0
   19.6540  -28.7545   -1.4178 C   0  0  1  0  0  0  0  0  0  0  0  0
   19.0563  -29.8922   -0.8047 C   0  0  0  0  0  0  0  0  0  0  0  0
   18.1945  -29.9128    0.0665 O   0  0  0  0  0  0  0  0  0  0  0  0
   19.5154  -31.1882   -1.2584 N   0  0  0  0  0  0  0  0  0  0  0  0
   19.3094  -32.3601   -0.4703 C   0  0  0  0  0  0  0  0  0  0  0  0
   17.9083  -32.8173   -0.6207 C   0  0  0  0  0  0  0  0  0  0  0  0
   17.1929  -32.7476   -1.8040 O   0  0  0  0  0  0  0  0  0  0  0  0
   17.3064  -33.3019    0.3671 O   0  0  0  0  0  0  0  0  0  0  0  0
  1  2  1  0
  3  2  1  0
  4  3  1  0
  5  4  1  0
  5  6  1  6
  7  8  2  0
  7  5  1  0
  9  7  1  0
 10  9  1  0
 11 12  1  0
 11 10  1  0
 12 13  1  0
 13  9  1  0
 14 15  2  0
 13 14  1  1
 16 14  1  0
 17 16  1  0
 18 17  1  0
 19 18  1  0
 20 18  2  0
M  END
$$$$
