MPG.pdb
     RDKit          3D

 20 20  0  0  1  0  0  0  0  0999 V2000
   26.7773  -14.2369  -15.5293 C   0  0  0  0  0  0  0  0  0  0  0  0
   25.7118  -12.8443  -15.1679 S   0  0  0  0  0  0  0  0  0  0  0  0
   25.1731  -11.9434  -16.6060 C   0  0  0  0  0  0  0  0  0  0  0  0
   24.3170  -10.7583  -16.3627 C   0  0  0  0  0  0  0  0  0  0  0  0
   23.8024  -10.0397  -17.5610 C   0  0  2  0  0  0  0  0  0  0  0  0
   24.8584   -9.7080  -18.4484 N   0  0  0  0  0  0  0  0  0  0  0  0
   22.8766   -8.9411  -17.2008 C   0  0  0  0  0  0  0  0  0  0  0  0
   23.4929   -7.8655  -16.8599 O   0  0  0  0  0  0  0  0  0  0  0  0
   21.4860   -8.9500  -17.1937 N   0  0  0  0  0  0  0  0  0  0  0  0
   20.7066   -9.7904  -18.1327 C   0  0  0  0  0  0  0  0  0  0  0  0
   19.4858  -10.2092  -17.3022 C   0  0  0  0  0  0  0  0  0  0  0  0
   19.6882   -9.5287  -15.9414 C   0  0  0  0  0  0  0  0  0  0  0  0
   20.4497   -8.2817  -16.4672 C   0  0  1  0  0  0  0  0  0  0  0  0
   20.7455   -7.3476  -15.4340 C   0  0  0  0  0  0  0  0  0  0  0  0
   19.9568   -6.6991  -14.7562 O   0  0  0  0  0  0  0  0  0  0  0  0
   22.1464   -7.1294  -15.1401 N   0  0  0  0  0  0  0  0  0  0  0  0
   22.5502   -6.3025  -14.0492 C   0  0  0  0  0  0  0  0  0  0  0  0
   22.3736   -4.8782  -14.4165 C   0  0  0  0  0  0  0  0  0  0  0  0
   21.1582   -4.2158  -14.3899 O   0  0  0  0  0  0  0  0  0  0  0  0
   23.3680   -4.2047  -14.7780 O   0  0  0  0  0  0  0  0  0  0  0  0
  1  2  1  0
  3  2  1  0
  4  3  1  0
  5  4  1  0
  5  6  1  1
  7  8  2  0
  7  5  1  0
  9  7  1  0
 10  9  1  0
 11 12  1  0
 11 10  1  0
 12 13  1  0
 13  9  1  0
 14 15  2  0
 13 14  1  1
 16 14  1  0
 17 16  1  0
 18 17  1  0
 19 18  1  0
 20 18  2  0
M  END
$$$$
