MPG.pdb
     RDKit          3D

 20 20  0  0  1  0  0  0  0  0999 V2000
   23.1130  -17.9085  -19.0224 C   0  0  0  0  0  0  0  0  0  0  0  0
   24.8638  -18.1956  -19.2620 S   0  0  0  0  0  0  0  0  0  0  0  0
   25.8043  -18.2792  -17.7525 C   0  0  0  0  0  0  0  0  0  0  0  0
   25.2864  -19.1837  -16.6989 C   0  0  0  0  0  0  0  0  0  0  0  0
   25.9173  -20.5282  -16.5934 C   0  0  2  0  0  0  0  0  0  0  0  0
   25.4930  -21.3742  -17.6503 N   0  0  0  0  0  0  0  0  0  0  0  0
   25.8206  -21.0867  -15.2249 C   0  0  0  0  0  0  0  0  0  0  0  0
   24.6636  -21.5885  -14.9752 O   0  0  0  0  0  0  0  0  0  0  0  0
   26.7973  -21.1240  -14.2357 N   0  0  0  0  0  0  0  0  0  0  0  0
   28.1948  -21.5158  -14.5337 C   0  0  0  0  0  0  0  0  0  0  0  0
   29.0191  -20.6314  -13.5884 C   0  0  0  0  0  0  0  0  0  0  0  0
   27.9771  -19.8163  -12.8100 C   0  0  0  0  0  0  0  0  0  0  0  0
   26.8525  -20.8868  -12.8253 C   0  0  1  0  0  0  0  0  0  0  0  0
   25.7022  -20.4799  -12.0912 C   0  0  0  0  0  0  0  0  0  0  0  0
   25.0969  -19.4170  -12.1676 O   0  0  0  0  0  0  0  0  0  0  0  0
   25.1749  -21.4305  -11.1347 N   0  0  0  0  0  0  0  0  0  0  0  0
   24.0888  -21.0856  -10.2755 C   0  0  0  0  0  0  0  0  0  0  0  0
   22.8287  -21.0676  -11.0541 C   0  0  0  0  0  0  0  0  0  0  0  0
   21.8679  -20.0761  -10.9512 O   0  0  0  0  0  0  0  0  0  0  0  0
   22.5891  -21.9942  -11.8647 O   0  0  0  0  0  0  0  0  0  0  0  0
  1  2  1  0
  3  2  1  0
  4  3  1  0
  5  4  1  0
  5  6  1  6
  7  8  2  0
  7  5  1  0
  9  7  1  0
 10  9  1  0
 11 12  1  0
 11 10  1  0
 12 13  1  0
 13  9  1  0
 14 15  2  0
 13 14  1  6
 16 14  1  0
 17 16  1  0
 18 17  1  0
 19 18  1  0
 20 18  2  0
M  END
$$$$
