MPG.pdb
     RDKit          3D

 20 20  0  0  1  0  0  0  0  0999 V2000
   20.4580  -21.6830  -11.1241 C   0  0  0  0  0  0  0  0  0  0  0  0
   21.2890  -21.4899   -9.5502 S   0  0  0  0  0  0  0  0  0  0  0  0
   23.0476  -21.2425   -9.6775 C   0  0  0  0  0  0  0  0  0  0  0  0
   23.5506  -20.7165  -10.9686 C   0  0  0  0  0  0  0  0  0  0  0  0
   25.0280  -20.6636  -11.1465 C   0  0  2  0  0  0  0  0  0  0  0  0
   25.6533  -20.0468  -10.0324 N   0  0  0  0  0  0  0  0  0  0  0  0
   25.4135  -20.1536  -12.4826 C   0  0  0  0  0  0  0  0  0  0  0  0
   24.9458  -18.9795  -12.7187 O   0  0  0  0  0  0  0  0  0  0  0  0
   26.1870  -20.7772  -13.4556 N   0  0  0  0  0  0  0  0  0  0  0  0
   27.4014  -21.5518  -13.1085 C   0  0  0  0  0  0  0  0  0  0  0  0
   27.3979  -22.6932  -14.1344 C   0  0  0  0  0  0  0  0  0  0  0  0
   26.1574  -22.4347  -15.0006 C   0  0  0  0  0  0  0  0  0  0  0  0
   26.1660  -20.8864  -14.8825 C   0  0  1  0  0  0  0  0  0  0  0  0
   25.1445  -20.2742  -15.6631 C   0  0  0  0  0  0  0  0  0  0  0  0
   25.2524  -19.7438  -16.7626 O   0  0  0  0  0  0  0  0  0  0  0  0
   23.8114  -20.2724  -15.0981 N   0  0  0  0  0  0  0  0  0  0  0  0
   22.6806  -19.8878  -15.8793 C   0  0  0  0  0  0  0  0  0  0  0  0
   21.9785  -18.7657  -15.2141 C   0  0  0  0  0  0  0  0  0  0  0  0
   22.0825  -17.4429  -15.6093 O   0  0  0  0  0  0  0  0  0  0  0  0
   21.2369  -18.9968  -14.2294 O   0  0  0  0  0  0  0  0  0  0  0  0
  1  2  1  0
  3  2  1  0
  4  3  1  0
  5  4  1  0
  5  6  1  1
  7  8  2  0
  7  5  1  0
  9  7  1  0
 10  9  1  0
 11 12  1  0
 11 10  1  0
 12 13  1  0
 13  9  1  0
 14 15  2  0
 13 14  1  1
 16 14  1  0
 17 16  1  0
 18 17  1  0
 19 18  1  0
 20 18  2  0
M  END
$$$$
