MPG.pdb
     RDKit          3D

 20 20  0  0  1  0  0  0  0  0999 V2000
   21.7320  -22.0538   -7.0082 C   0  0  0  0  0  0  0  0  0  0  0  0
   22.8966  -21.0689   -7.9458 S   0  0  0  0  0  0  0  0  0  0  0  0
   22.4937  -20.9076   -9.6726 C   0  0  0  0  0  0  0  0  0  0  0  0
   23.4242  -20.1006  -10.4971 C   0  0  0  0  0  0  0  0  0  0  0  0
   24.4939  -20.8377  -11.2247 C   0  0  2  0  0  0  0  0  0  0  0  0
   25.6048  -21.0893  -10.3790 N   0  0  0  0  0  0  0  0  0  0  0  0
   24.7946  -20.2319  -12.5426 C   0  0  0  0  0  0  0  0  0  0  0  0
   24.4631  -18.9913  -12.6049 O   0  0  0  0  0  0  0  0  0  0  0  0
   25.3676  -20.8315  -13.6589 N   0  0  0  0  0  0  0  0  0  0  0  0
   26.4748  -21.8086  -13.5374 C   0  0  0  0  0  0  0  0  0  0  0  0
   26.1985  -22.7992  -14.6766 C   0  0  0  0  0  0  0  0  0  0  0  0
   24.9371  -22.2595  -15.3649 C   0  0  0  0  0  0  0  0  0  0  0  0
   25.1962  -20.7557  -15.0778 C   0  0  1  0  0  0  0  0  0  0  0  0
   24.2129  -19.9107  -15.6668 C   0  0  0  0  0  0  0  0  0  0  0  0
   24.2656  -19.3321  -16.7459 O   0  0  0  0  0  0  0  0  0  0  0  0
   22.9985  -19.7028  -14.9064 N   0  0  0  0  0  0  0  0  0  0  0  0
   21.8619  -19.0687  -15.4921 C   0  0  0  0  0  0  0  0  0  0  0  0
   20.9862  -20.0931  -16.1069 C   0  0  0  0  0  0  0  0  0  0  0  0
   20.8061  -20.2412  -17.4716 O   0  0  0  0  0  0  0  0  0  0  0  0
   20.3558  -20.8900  -15.3716 O   0  0  0  0  0  0  0  0  0  0  0  0
  1  2  1  0
  3  2  1  0
  4  3  1  0
  5  4  1  0
  5  6  1  1
  7  8  2  0
  7  5  1  0
  9  7  1  0
 10  9  1  0
 11 12  1  0
 11 10  1  0
 12 13  1  0
 13  9  1  0
 14 15  2  0
 13 14  1  1
 16 14  1  0
 17 16  1  0
 18 17  1  0
 19 18  1  0
 20 18  2  0
M  END
$$$$
