MPG.pdb
     RDKit          3D

 20 20  0  0  1  0  0  0  0  0999 V2000
   23.2204  -24.1468  -15.5059 C   0  0  0  0  0  0  0  0  0  0  0  0
   24.8786  -24.5609  -14.9729 S   0  0  0  0  0  0  0  0  0  0  0  0
   25.5608  -23.4404  -13.7691 C   0  0  0  0  0  0  0  0  0  0  0  0
   24.8870  -22.1277  -13.6297 C   0  0  0  0  0  0  0  0  0  0  0  0
   25.4386  -21.1903  -12.6128 C   0  0  2  0  0  0  0  0  0  0  0  0
   24.8564  -21.4198  -11.3397 N   0  0  0  0  0  0  0  0  0  0  0  0
   25.4460  -19.7878  -13.0893 C   0  0  0  0  0  0  0  0  0  0  0  0
   24.3819  -19.1466  -12.7586 O   0  0  0  0  0  0  0  0  0  0  0  0
   26.4301  -19.1273  -13.8168 N   0  0  0  0  0  0  0  0  0  0  0  0
   27.8721  -19.3557  -13.5645 C   0  0  0  0  0  0  0  0  0  0  0  0
   28.4978  -19.2415  -14.9612 C   0  0  0  0  0  0  0  0  0  0  0  0
   27.3179  -18.9301  -15.8924 C   0  0  0  0  0  0  0  0  0  0  0  0
   26.4652  -18.1462  -14.8582 C   0  0  1  0  0  0  0  0  0  0  0  0
   25.2713  -17.6164  -15.4254 C   0  0  0  0  0  0  0  0  0  0  0  0
   25.1573  -16.6613  -16.1848 O   0  0  0  0  0  0  0  0  0  0  0  0
   24.0349  -18.2798  -15.0677 N   0  0  0  0  0  0  0  0  0  0  0  0
   22.8092  -17.9569  -15.7236 C   0  0  0  0  0  0  0  0  0  0  0  0
   22.6211  -18.8520  -16.8888 C   0  0  0  0  0  0  0  0  0  0  0  0
   21.8272  -19.9862  -16.8750 O   0  0  0  0  0  0  0  0  0  0  0  0
   23.2041  -18.5927  -17.9686 O   0  0  0  0  0  0  0  0  0  0  0  0
  1  2  1  0
  3  2  1  0
  4  3  1  0
  5  4  1  0
  5  6  1  1
  7  8  2  0
  7  5  1  0
  9  7  1  0
 10  9  1  0
 11 12  1  0
 11 10  1  0
 12 13  1  0
 13  9  1  0
 14 15  2  0
 13 14  1  6
 16 14  1  0
 17 16  1  0
 18 17  1  0
 19 18  1  0
 20 18  2  0
M  END
$$$$
