MPG.pdb
     RDKit          3D

 20 20  0  0  1  0  0  0  0  0999 V2000
   17.5206  -12.8368  -21.7948 C   0  0  0  0  0  0  0  0  0  0  0  0
   17.9416  -11.7514  -20.4348 S   0  0  0  0  0  0  0  0  0  0  0  0
   19.0987  -12.4480  -19.2747 C   0  0  0  0  0  0  0  0  0  0  0  0
   19.4605  -11.6031  -18.1119 C   0  0  0  0  0  0  0  0  0  0  0  0
   20.3284  -12.2216  -17.0721 C   0  0  2  0  0  0  0  0  0  0  0  0
   19.8440  -13.5019  -16.6999 N   0  0  0  0  0  0  0  0  0  0  0  0
   20.6300  -11.2852  -15.9648 C   0  0  0  0  0  0  0  0  0  0  0  0
   19.5702  -10.7830  -15.4380 O   0  0  0  0  0  0  0  0  0  0  0  0
   21.8719  -10.9130  -15.4617 N   0  0  0  0  0  0  0  0  0  0  0  0
   22.9528  -11.9023  -15.2419 C   0  0  0  0  0  0  0  0  0  0  0  0
   24.2266  -11.1142  -15.5759 C   0  0  0  0  0  0  0  0  0  0  0  0
   23.7303   -9.7089  -15.9429 C   0  0  0  0  0  0  0  0  0  0  0  0
   22.4867   -9.7008  -15.0131 C   0  0  1  0  0  0  0  0  0  0  0  0
   21.7931   -8.4575  -15.0407 C   0  0  0  0  0  0  0  0  0  0  0  0
   21.2283   -7.9309  -15.9924 O   0  0  0  0  0  0  0  0  0  0  0  0
   21.7431   -7.7164  -13.7979 N   0  0  0  0  0  0  0  0  0  0  0  0
   21.1441   -6.4225  -13.7353 C   0  0  0  0  0  0  0  0  0  0  0  0
   22.1323   -5.3996  -14.1497 C   0  0  0  0  0  0  0  0  0  0  0  0
   22.0709   -4.7012  -15.3436 O   0  0  0  0  0  0  0  0  0  0  0  0
   23.0952   -5.1275  -13.3935 O   0  0  0  0  0  0  0  0  0  0  0  0
  1  2  1  0
  3  2  1  0
  4  3  1  0
  5  4  1  0
  5  6  1  1
  7  8  2  0
  7  5  1  0
  9  7  1  0
 10  9  1  0
 11 12  1  0
 11 10  1  0
 12 13  1  0
 13  9  1  0
 14 15  2  0
 13 14  1  6
 16 14  1  0
 17 16  1  0
 18 17  1  0
 19 18  1  0
 20 18  2  0
M  END
$$$$
