CWL.pdb
     RDKit          3D

 29 30  0  0  1  0  0  0  0  0999 V2000
   27.4754  -20.6752  -15.5388 N   0  0  0  0  0  0  0  0  0  0  0  0
   28.0103  -19.6083  -14.7500 C   0  0  1  0  0  0  0  0  0  0  0  0
   28.0434  -18.2797  -15.4752 C   0  0  0  0  0  0  0  0  0  0  0  0
   29.0125  -18.3601  -16.9931 S   0  0  0  0  0  0  0  0  0  0  0  0
   27.1815  -19.4266  -13.5371 C   0  0  0  0  0  0  0  0  0  0  0  0
   26.6357  -18.3092  -13.2691 O   0  0  0  0  0  0  0  0  0  0  0  0
   26.9844  -20.5060  -12.6518 N   0  0  0  0  0  0  0  0  0  0  0  0
   25.9625  -20.4183  -11.6435 C   0  0  1  0  0  0  0  0  0  0  0  0
   24.7215  -21.2036  -11.9766 C   0  0  0  0  0  0  0  0  0  0  0  0
   23.7361  -20.5228  -12.7955 C   0  0  0  0  0  0  0  0  0  0  0  0
   23.8499  -20.3771  -14.1697 C   0  0  0  0  0  0  0  0  0  0  0  0
   22.7538  -19.7282  -14.5827 N   0  0  0  0  0  0  0  0  0  0  0  0
   21.9397  -19.4487  -13.5375 C   0  0  0  0  0  0  0  0  0  0  0  0
   20.7269  -18.8113  -13.4135 C   0  0  0  0  0  0  0  0  0  0  0  0
   20.1303  -18.6698  -12.1749 C   0  0  0  0  0  0  0  0  0  0  0  0
   20.7068  -19.1478  -11.0355 C   0  0  0  0  0  0  0  0  0  0  0  0
   21.9332  -19.7923  -11.1638 C   0  0  0  0  0  0  0  0  0  0  0  0
   22.5570  -19.9500  -12.3982 C   0  0  0  0  0  0  0  0  0  0  0  0
   26.4666  -20.9297  -10.3452 C   0  0  0  0  0  0  0  0  0  0  0  0
   26.9330  -22.0952  -10.3117 O   0  0  0  0  0  0  0  0  0  0  0  0
   29.4601  -20.6880   -6.6250 C   0  0  0  0  0  0  0  0  0  0  0  0
   28.5521  -19.5477   -6.9867 C   0  0  2  0  0  0  0  0  0  0  0  0
   28.8263  -18.3925   -5.9951 C   0  0  0  0  0  0  0  0  0  0  0  0
   27.1067  -19.7846   -6.9551 C   0  0  0  0  0  0  0  0  0  0  0  0
   26.4705  -20.8116   -7.8061 C   0  0  2  0  0  0  0  0  0  0  0  0
   26.4458  -20.1769   -9.1641 N   0  0  0  0  0  0  0  0  0  0  0  0
   25.0821  -21.1774   -7.5450 C   0  0  0  0  0  0  0  0  0  0  0  0
   24.7708  -22.2008   -6.6629 O   0  0  0  0  0  0  0  0  0  0  0  0
   24.1068  -20.6098   -8.0834 O   0  0  0  0  0  0  0  0  0  0  0  0
  2  1  1  6
  2  3  1  0
  3  4  1  0
  5  6  2  0
  5  2  1  0
  7  5  1  0
  8  7  1  0
  9 10  1  0
  8  9  1  6
 10 11  2  0
 11 12  1  0
 13 12  1  0
 14 13  2  0
 15 14  1  0
 16 17  1  0
 16 15  2  0
 17 18  2  0
 18 10  1  0
 18 13  1  0
 19  8  1  0
 19 20  2  0
 22 21  1  1
 23 22  1  0
 24 22  1  0
 25 24  1  1
 25 26  1  0
 26 19  1  0
 27 25  1  0
 28 27  1  0
 29 27  2  0
M  END
$$$$
