CWL.pdb
     RDKit          3D

 29 30  0  0  1  0  0  0  0  0999 V2000
   22.8121  -19.6276  -13.9130 N   0  0  0  0  0  0  0  0  0  0  0  0
   23.1060  -19.7657  -12.5197 C   0  0  1  0  0  0  0  0  0  0  0  0
   22.0345  -20.5060  -11.7476 C   0  0  0  0  0  0  0  0  0  0  0  0
   22.4558  -20.6833  -10.0039 S   0  0  0  0  0  0  0  0  0  0  0  0
   24.3684  -20.5202  -12.3531 C   0  0  0  0  0  0  0  0  0  0  0  0
   24.5362  -21.6587  -12.8953 O   0  0  0  0  0  0  0  0  0  0  0  0
   25.4153  -19.9776  -11.5801 N   0  0  0  0  0  0  0  0  0  0  0  0
   26.6813  -20.6578  -11.5243 C   0  0  1  0  0  0  0  0  0  0  0  0
   27.8164  -19.8627  -12.1137 C   0  0  0  0  0  0  0  0  0  0  0  0
   27.6369  -19.4112  -13.4807 C   0  0  0  0  0  0  0  0  0  0  0  0
   27.1750  -18.1476  -13.8164 C   0  0  0  0  0  0  0  0  0  0  0  0
   27.1652  -18.0812  -15.1538 N   0  0  0  0  0  0  0  0  0  0  0  0
   27.5990  -19.2442  -15.6948 C   0  0  0  0  0  0  0  0  0  0  0  0
   27.7724  -19.6938  -16.9833 C   0  0  0  0  0  0  0  0  0  0  0  0
   28.2383  -20.9722  -17.2254 C   0  0  0  0  0  0  0  0  0  0  0  0
   28.5431  -21.8345  -16.2141 C   0  0  0  0  0  0  0  0  0  0  0  0
   28.3671  -21.3772  -14.9118 C   0  0  0  0  0  0  0  0  0  0  0  0
   27.9002  -20.0946  -14.6382 C   0  0  0  0  0  0  0  0  0  0  0  0
   27.0468  -20.9636  -10.1193 C   0  0  0  0  0  0  0  0  0  0  0  0
   28.2374  -21.2800   -9.8753 O   0  0  0  0  0  0  0  0  0  0  0  0
   27.4630  -20.5392   -4.8258 C   0  0  0  0  0  0  0  0  0  0  0  0
   28.3055  -20.3608   -6.0562 C   0  0  2  0  0  0  0  0  0  0  0  0
   29.0363  -19.0026   -5.9357 C   0  0  0  0  0  0  0  0  0  0  0  0
   27.6293  -20.3518   -7.3558 C   0  0  0  0  0  0  0  0  0  0  0  0
   26.5095  -21.2688   -7.6536 C   0  0  2  0  0  0  0  0  0  0  0  0
   26.1308  -20.9159   -9.0607 N   0  0  0  0  0  0  0  0  0  0  0  0
   25.2710  -21.1338   -6.8938 C   0  0  0  0  0  0  0  0  0  0  0  0
   24.9854  -21.9913   -5.8423 O   0  0  0  0  0  0  0  0  0  0  0  0
   24.4075  -20.2614   -7.1322 O   0  0  0  0  0  0  0  0  0  0  0  0
  2  1  1  6
  2  3  1  0
  3  4  1  0
  5  6  2  0
  5  2  1  0
  7  5  1  0
  8  7  1  0
  9 10  1  0
  8  9  1  1
 10 11  2  0
 11 12  1  0
 13 12  1  0
 14 13  2  0
 15 14  1  0
 16 17  1  0
 16 15  2  0
 17 18  2  0
 18 10  1  0
 18 13  1  0
 19  8  1  0
 19 20  2  0
 22 21  1  1
 23 22  1  0
 24 22  1  0
 25 24  1  1
 25 26  1  0
 26 19  1  0
 27 25  1  0
 28 27  1  0
 29 27  2  0
M  END
$$$$
