CWL.pdb
     RDKit          3D

 29 30  0  0  1  0  0  0  0  0999 V2000
   28.2048  -22.4376  -16.0220 N   0  0  0  0  0  0  0  0  0  0  0  0
   28.2389  -21.2562  -15.2161 C   0  0  1  0  0  0  0  0  0  0  0  0
   27.5974  -20.0553  -15.8785 C   0  0  0  0  0  0  0  0  0  0  0  0
   28.5769  -19.4405  -17.2614 S   0  0  0  0  0  0  0  0  0  0  0  0
   27.5120  -21.5002  -13.9500 C   0  0  0  0  0  0  0  0  0  0  0  0
   26.4134  -22.1412  -13.9298 O   0  0  0  0  0  0  0  0  0  0  0  0
   28.0368  -21.0179  -12.7335 N   0  0  0  0  0  0  0  0  0  0  0  0
   27.2691  -21.1576  -11.5253 C   0  0  1  0  0  0  0  0  0  0  0  0
   28.0236  -20.7573  -10.2850 C   0  0  0  0  0  0  0  0  0  0  0  0
   27.2247  -20.5467   -9.0923 C   0  0  0  0  0  0  0  0  0  0  0  0
   25.8496  -20.7195   -9.0503 C   0  0  0  0  0  0  0  0  0  0  0  0
   25.4654  -20.4654   -7.7929 N   0  0  0  0  0  0  0  0  0  0  0  0
   26.5299  -20.1365   -7.0234 C   0  0  0  0  0  0  0  0  0  0  0  0
   26.6835  -19.7891   -5.7012 C   0  0  0  0  0  0  0  0  0  0  0  0
   27.9339  -19.4920   -5.1929 C   0  0  0  0  0  0  0  0  0  0  0  0
   29.0564  -19.5285   -5.9660 C   0  0  0  0  0  0  0  0  0  0  0  0
   28.8982  -19.8804   -7.3029 C   0  0  0  0  0  0  0  0  0  0  0  0
   27.6516  -20.1855   -7.8419 C   0  0  0  0  0  0  0  0  0  0  0  0
   26.0485  -20.3163  -11.5836 C   0  0  0  0  0  0  0  0  0  0  0  0
   26.1915  -19.0816  -11.7630 O   0  0  0  0  0  0  0  0  0  0  0  0
   21.6650  -18.8646  -13.8915 C   0  0  0  0  0  0  0  0  0  0  0  0
   22.9448  -19.4420  -14.4247 C   0  0  2  0  0  0  0  0  0  0  0  0
   22.5766  -20.5556  -15.4335 C   0  0  0  0  0  0  0  0  0  0  0  0
   23.8775  -20.0433  -13.4683 C   0  0  0  0  0  0  0  0  0  0  0  0
   23.5517  -20.1519  -12.0311 C   0  0  2  0  0  0  0  0  0  0  0  0
   24.7536  -20.8331  -11.4486 N   0  0  0  0  0  0  0  0  0  0  0  0
   22.4242  -20.9862  -11.6283 C   0  0  0  0  0  0  0  0  0  0  0  0
   22.4786  -22.3655  -11.7586 O   0  0  0  0  0  0  0  0  0  0  0  0
   21.3627  -20.5277  -11.1523 O   0  0  0  0  0  0  0  0  0  0  0  0
  2  1  1  6
  2  3  1  0
  3  4  1  0
  5  6  2  0
  5  2  1  0
  7  5  1  0
  8  7  1  0
  9 10  1  0
  8  9  1  1
 10 11  2  0
 11 12  1  0
 13 12  1  0
 14 13  2  0
 15 14  1  0
 16 17  1  0
 16 15  2  0
 17 18  2  0
 18 10  1  0
 18 13  1  0
 19  8  1  0
 19 20  2  0
 22 21  1  1
 23 22  1  0
 24 22  1  0
 25 24  1  6
 25 26  1  0
 26 19  1  0
 27 25  1  0
 28 27  1  0
 29 27  2  0
M  END
$$$$
