CWL.pdb
     RDKit          3D

 29 30  0  0  1  0  0  0  0  0999 V2000
   21.4381  -21.0784  -11.7449 N   0  0  0  0  0  0  0  0  0  0  0  0
   22.7607  -21.6096  -11.6223 C   0  0  1  0  0  0  0  0  0  0  0  0
   23.4527  -21.8183  -12.9526 C   0  0  0  0  0  0  0  0  0  0  0  0
   23.4608  -23.5517  -13.4477 S   0  0  0  0  0  0  0  0  0  0  0  0
   23.5969  -20.6772  -10.8334 C   0  0  0  0  0  0  0  0  0  0  0  0
   23.6260  -19.4322  -11.0928 O   0  0  0  0  0  0  0  0  0  0  0  0
   24.3824  -21.1655   -9.7692 N   0  0  0  0  0  0  0  0  0  0  0  0
   25.3308  -20.2935   -9.1300 C   0  0  1  0  0  0  0  0  0  0  0  0
   25.8750  -20.8426   -7.8376 C   0  0  0  0  0  0  0  0  0  0  0  0
   26.7891  -19.9803   -7.1126 C   0  0  0  0  0  0  0  0  0  0  0  0
   26.9957  -18.6456   -7.4264 C   0  0  0  0  0  0  0  0  0  0  0  0
   27.8751  -18.1697   -6.5357 N   0  0  0  0  0  0  0  0  0  0  0  0
   28.2447  -19.1367   -5.6630 C   0  0  0  0  0  0  0  0  0  0  0  0
   29.1020  -19.1783   -4.5880 C   0  0  0  0  0  0  0  0  0  0  0  0
   29.2811  -20.3493   -3.8761 C   0  0  0  0  0  0  0  0  0  0  0  0
   28.6266  -21.5005   -4.2009 C   0  0  0  0  0  0  0  0  0  0  0  0
   27.7598  -21.4557   -5.2884 C   0  0  0  0  0  0  0  0  0  0  0  0
   27.5592  -20.2904   -6.0231 C   0  0  0  0  0  0  0  0  0  0  0  0
   26.4910  -20.0438  -10.0203 C   0  0  0  0  0  0  0  0  0  0  0  0
   27.3274  -19.1752   -9.6693 O   0  0  0  0  0  0  0  0  0  0  0  0
   31.1260  -22.5658  -10.4930 C   0  0  0  0  0  0  0  0  0  0  0  0
   30.2890  -21.7652  -11.4491 C   0  0  2  0  0  0  0  0  0  0  0  0
   30.9979  -20.4091  -11.6764 C   0  0  0  0  0  0  0  0  0  0  0  0
   28.9123  -21.4511  -11.0592 C   0  0  0  0  0  0  0  0  0  0  0  0
   28.0048  -20.7022  -11.9533 C   0  0  2  0  0  0  0  0  0  0  0  0
   26.6942  -20.7279  -11.2256 N   0  0  0  0  0  0  0  0  0  0  0  0
   27.7055  -21.2535  -13.2709 C   0  0  0  0  0  0  0  0  0  0  0  0
   28.3391  -20.7683  -14.4047 O   0  0  0  0  0  0  0  0  0  0  0  0
   26.8810  -22.1739  -13.4620 O   0  0  0  0  0  0  0  0  0  0  0  0
  2  1  1  6
  2  3  1  0
  3  4  1  0
  5  6  2  0
  5  2  1  0
  7  5  1  0
  8  7  1  0
  9 10  1  0
  8  9  1  1
 10 11  2  0
 11 12  1  0
 13 12  1  0
 14 13  2  0
 15 14  1  0
 16 17  1  0
 16 15  2  0
 17 18  2  0
 18 10  1  0
 18 13  1  0
 19  8  1  0
 19 20  2  0
 22 21  1  1
 23 22  1  0
 24 22  1  0
 25 24  1  1
 25 26  1  0
 26 19  1  0
 27 25  1  0
 28 27  1  0
 29 27  2  0
M  END
$$$$
