CWL.pdb
     RDKit          3D

 29 30  0  0  1  0  0  0  0  0999 V2000
   28.7540  -21.1572  -15.2399 N   0  0  0  0  0  0  0  0  0  0  0  0
   28.1221  -20.1562  -14.4366 C   0  0  1  0  0  0  0  0  0  0  0  0
   27.4688  -19.0564  -15.2465 C   0  0  0  0  0  0  0  0  0  0  0  0
   28.6761  -17.8896  -15.9027 S   0  0  0  0  0  0  0  0  0  0  0  0
   27.0649  -20.7804  -13.6099 C   0  0  0  0  0  0  0  0  0  0  0  0
   26.4015  -21.7819  -14.0284 O   0  0  0  0  0  0  0  0  0  0  0  0
   26.7767  -20.2646  -12.3297 N   0  0  0  0  0  0  0  0  0  0  0  0
   25.7794  -20.9055  -11.5152 C   0  0  1  0  0  0  0  0  0  0  0  0
   25.8661  -20.5355  -10.0580 C   0  0  0  0  0  0  0  0  0  0  0  0
   27.1191  -20.8438   -9.3948 C   0  0  0  0  0  0  0  0  0  0  0  0
   28.1116  -21.6309   -9.9587 C   0  0  0  0  0  0  0  0  0  0  0  0
   29.1202  -21.6722   -9.0789 N   0  0  0  0  0  0  0  0  0  0  0  0
   28.8226  -20.9483   -7.9740 C   0  0  0  0  0  0  0  0  0  0  0  0
   29.4886  -20.6742   -6.8019 C   0  0  0  0  0  0  0  0  0  0  0  0
   28.9045  -19.8852   -5.8291 C   0  0  0  0  0  0  0  0  0  0  0  0
   27.6600  -19.3498   -5.9829 C   0  0  0  0  0  0  0  0  0  0  0  0
   26.9886  -19.6284   -7.1694 C   0  0  0  0  0  0  0  0  0  0  0  0
   27.5525  -20.4190   -8.1669 C   0  0  0  0  0  0  0  0  0  0  0  0
   24.4173  -20.5418  -11.9771 C   0  0  0  0  0  0  0  0  0  0  0  0
   24.1397  -19.3224  -12.0918 O   0  0  0  0  0  0  0  0  0  0  0  0
   20.5609  -24.4128  -14.4252 C   0  0  0  0  0  0  0  0  0  0  0  0
   20.6671  -23.0963  -13.7102 C   0  0  2  0  0  0  0  0  0  0  0  0
   19.5379  -22.1798  -14.2373 C   0  0  0  0  0  0  0  0  0  0  0  0
   21.9129  -22.3381  -13.8493 C   0  0  0  0  0  0  0  0  0  0  0  0
   22.1835  -21.1350  -13.0352 C   0  0  2  0  0  0  0  0  0  0  0  0
   23.4343  -21.4898  -12.2885 N   0  0  0  0  0  0  0  0  0  0  0  0
   21.2285  -20.7608  -11.9972 C   0  0  0  0  0  0  0  0  0  0  0  0
   20.2250  -19.8391  -12.2539 O   0  0  0  0  0  0  0  0  0  0  0  0
   21.2492  -21.2318  -10.8391 O   0  0  0  0  0  0  0  0  0  0  0  0
  2  1  1  6
  2  3  1  0
  3  4  1  0
  5  6  2  0
  5  2  1  0
  7  5  1  0
  8  7  1  0
  9 10  1  0
  8  9  1  1
 10 11  2  0
 11 12  1  0
 13 12  1  0
 14 13  2  0
 15 14  1  0
 16 17  1  0
 16 15  2  0
 17 18  2  0
 18 10  1  0
 18 13  1  0
 19  8  1  0
 19 20  2  0
 22 21  1  6
 23 22  1  0
 24 22  1  0
 25 24  1  1
 25 26  1  0
 26 19  1  0
 27 25  1  0
 28 27  1  0
 29 27  2  0
M  END
$$$$
