CWL.pdb
     RDKit          3D

 29 30  0  0  1  0  0  0  0  0999 V2000
   28.0161  -22.9510  -16.2544 N   0  0  0  0  0  0  0  0  0  0  0  0
   28.0083  -21.6584  -15.6414 C   0  0  1  0  0  0  0  0  0  0  0  0
   27.4054  -20.5796  -16.5159 C   0  0  0  0  0  0  0  0  0  0  0  0
   28.4530  -20.1896  -17.9302 S   0  0  0  0  0  0  0  0  0  0  0  0
   27.2137  -21.7079  -14.3936 C   0  0  0  0  0  0  0  0  0  0  0  0
   26.1008  -22.3220  -14.3408 O   0  0  0  0  0  0  0  0  0  0  0  0
   27.6881  -21.0654  -13.2317 N   0  0  0  0  0  0  0  0  0  0  0  0
   26.9263  -21.1483  -12.0146 C   0  0  1  0  0  0  0  0  0  0  0  0
   27.6669  -20.6373  -10.8069 C   0  0  0  0  0  0  0  0  0  0  0  0
   26.9031  -20.5595   -9.5758 C   0  0  0  0  0  0  0  0  0  0  0  0
   25.5286  -20.7312   -9.5142 C   0  0  0  0  0  0  0  0  0  0  0  0
   25.1814  -20.6188   -8.2258 N   0  0  0  0  0  0  0  0  0  0  0  0
   26.2691  -20.3822   -7.4550 C   0  0  0  0  0  0  0  0  0  0  0  0
   26.4620  -20.1862   -6.1071 C   0  0  0  0  0  0  0  0  0  0  0  0
   27.7280  -19.9524   -5.6044 C   0  0  0  0  0  0  0  0  0  0  0  0
   28.8282  -19.9055   -6.4085 C   0  0  0  0  0  0  0  0  0  0  0  0
   28.6304  -20.1043   -7.7714 C   0  0  0  0  0  0  0  0  0  0  0  0
   27.3671  -20.3426   -8.3055 C   0  0  0  0  0  0  0  0  0  0  0  0
   25.6769  -20.3563  -12.1271 C   0  0  0  0  0  0  0  0  0  0  0  0
   25.7660  -19.1677  -12.5227 O   0  0  0  0  0  0  0  0  0  0  0  0
   22.0786  -20.4790  -16.0368 C   0  0  0  0  0  0  0  0  0  0  0  0
   22.1616  -19.9007  -14.6532 C   0  0  2  0  0  0  0  0  0  0  0  0
   22.3647  -18.3733  -14.7909 C   0  0  0  0  0  0  0  0  0  0  0  0
   23.2281  -20.3812  -13.7713 C   0  0  0  0  0  0  0  0  0  0  0  0
   23.1439  -20.2373  -12.3030 C   0  0  2  0  0  0  0  0  0  0  0  0
   24.4120  -20.8704  -11.8144 N   0  0  0  0  0  0  0  0  0  0  0  0
   22.0826  -20.9395  -11.5889 C   0  0  0  0  0  0  0  0  0  0  0  0
   21.0190  -20.2443  -11.0340 O   0  0  0  0  0  0  0  0  0  0  0  0
   22.0605  -22.1799  -11.4328 O   0  0  0  0  0  0  0  0  0  0  0  0
  2  1  1  6
  2  3  1  0
  3  4  1  0
  5  6  2  0
  5  2  1  0
  7  5  1  0
  8  7  1  0
  9 10  1  0
  8  9  1  1
 10 11  2  0
 11 12  1  0
 13 12  1  0
 14 13  2  0
 15 14  1  0
 16 17  1  0
 16 15  2  0
 17 18  2  0
 18 10  1  0
 18 13  1  0
 19  8  1  0
 19 20  2  0
 22 21  1  6
 23 22  1  0
 24 22  1  0
 25 24  1  6
 25 26  1  0
 26 19  1  0
 27 25  1  0
 28 27  1  0
 29 27  2  0
M  END
$$$$
