CWL.pdb
     RDKit          3D

 29 30  0  0  1  0  0  0  0  0999 V2000
   26.7091  -19.4793  -16.6295 N   0  0  0  0  0  0  0  0  0  0  0  0
   27.4662  -19.6630  -15.4296 C   0  0  1  0  0  0  0  0  0  0  0  0
   28.5252  -18.6022  -15.2162 C   0  0  0  0  0  0  0  0  0  0  0  0
   29.3486  -18.7776  -13.6222 S   0  0  0  0  0  0  0  0  0  0  0  0
   26.5589  -19.6197  -14.2610 C   0  0  0  0  0  0  0  0  0  0  0  0
   25.8527  -18.5923  -14.0083 O   0  0  0  0  0  0  0  0  0  0  0  0
   26.4654  -20.7336  -13.4016 N   0  0  0  0  0  0  0  0  0  0  0  0
   25.5537  -20.6966  -12.2899 C   0  0  1  0  0  0  0  0  0  0  0  0
   24.4214  -21.6823  -12.4091 C   0  0  0  0  0  0  0  0  0  0  0  0
   23.3913  -21.3567  -13.3775 C   0  0  0  0  0  0  0  0  0  0  0  0
   23.3828  -21.8366  -14.6784 C   0  0  0  0  0  0  0  0  0  0  0  0
   22.2788  -21.3535  -15.2625 N   0  0  0  0  0  0  0  0  0  0  0  0
   21.5763  -20.5843  -14.3976 C   0  0  0  0  0  0  0  0  0  0  0  0
   20.4056  -19.8676  -14.4885 C   0  0  0  0  0  0  0  0  0  0  0  0
   19.9320  -19.1536  -13.4040 C   0  0  0  0  0  0  0  0  0  0  0  0
   20.5928  -19.1263  -12.2117 C   0  0  0  0  0  0  0  0  0  0  0  0
   21.7766  -19.8522  -12.1223 C   0  0  0  0  0  0  0  0  0  0  0  0
   22.2768  -20.5810  -13.1977 C   0  0  0  0  0  0  0  0  0  0  0  0
   26.2642  -20.9999  -11.0233 C   0  0  0  0  0  0  0  0  0  0  0  0
   27.2957  -21.7138  -11.0823 O   0  0  0  0  0  0  0  0  0  0  0  0
   27.8922  -20.4292   -5.8586 C   0  0  0  0  0  0  0  0  0  0  0  0
   28.2167  -19.5607   -7.0401 C   0  0  2  0  0  0  0  0  0  0  0  0
   28.1565  -18.0869   -6.5739 C   0  0  0  0  0  0  0  0  0  0  0  0
   27.3535  -19.6562   -8.2199 C   0  0  0  0  0  0  0  0  0  0  0  0
   26.5567  -20.8684   -8.5017 C   0  0  2  0  0  0  0  0  0  0  0  0
   25.8396  -20.5297   -9.7741 N   0  0  0  0  0  0  0  0  0  0  0  0
   25.4977  -21.2441   -7.5707 C   0  0  0  0  0  0  0  0  0  0  0  0
   25.7464  -22.1260   -6.5301 O   0  0  0  0  0  0  0  0  0  0  0  0
   24.3277  -20.8094   -7.6455 O   0  0  0  0  0  0  0  0  0  0  0  0
  2  1  1  6
  2  3  1  0
  3  4  1  0
  5  6  2  0
  5  2  1  0
  7  5  1  0
  8  7  1  0
  9 10  1  0
  8  9  1  6
 10 11  2  0
 11 12  1  0
 13 12  1  0
 14 13  2  0
 15 14  1  0
 16 17  1  0
 16 15  2  0
 17 18  2  0
 18 10  1  0
 18 13  1  0
 19  8  1  0
 19 20  2  0
 22 21  1  1
 23 22  1  0
 24 22  1  0
 25 24  1  1
 25 26  1  0
 26 19  1  0
 27 25  1  0
 28 27  1  0
 29 27  2  0
M  END
$$$$
