CWL.pdb
     RDKit          3D

 29 30  0  0  1  0  0  0  0  0999 V2000
   30.1372  -19.3653  -15.4306 N   0  0  0  0  0  0  0  0  0  0  0  0
   29.6278  -20.4141  -14.6016 C   0  0  1  0  0  0  0  0  0  0  0  0
   30.5060  -20.7189  -13.4066 C   0  0  0  0  0  0  0  0  0  0  0  0
   31.5144  -22.1907  -13.6645 S   0  0  0  0  0  0  0  0  0  0  0  0
   28.2959  -20.0309  -14.0820 C   0  0  0  0  0  0  0  0  0  0  0  0
   28.1334  -18.9764  -13.3892 O   0  0  0  0  0  0  0  0  0  0  0  0
   27.1751  -20.8422  -14.3530 N   0  0  0  0  0  0  0  0  0  0  0  0
   25.8963  -20.4940  -13.7946 C   0  0  1  0  0  0  0  0  0  0  0  0
   24.7313  -20.9423  -14.6371 C   0  0  0  0  0  0  0  0  0  0  0  0
   23.4170  -20.5342  -14.1775 C   0  0  0  0  0  0  0  0  0  0  0  0
   23.1032  -19.2351  -13.8084 C   0  0  0  0  0  0  0  0  0  0  0  0
   21.8073  -19.2304  -13.4708 N   0  0  0  0  0  0  0  0  0  0  0  0
   21.2725  -20.4670  -13.6049 C   0  0  0  0  0  0  0  0  0  0  0  0
   20.0209  -20.9963  -13.3907 C   0  0  0  0  0  0  0  0  0  0  0  0
   19.7765  -22.3377  -13.6165 C   0  0  0  0  0  0  0  0  0  0  0  0
   20.7493  -23.1863  -14.0552 C   0  0  0  0  0  0  0  0  0  0  0  0
   22.0142  -22.6484  -14.2713 C   0  0  0  0  0  0  0  0  0  0  0  0
   22.2891  -21.3013  -14.0532 C   0  0  0  0  0  0  0  0  0  0  0  0
   25.7278  -21.1093  -12.4552 C   0  0  0  0  0  0  0  0  0  0  0  0
   26.1632  -22.2746  -12.2827 O   0  0  0  0  0  0  0  0  0  0  0  0
   26.0247  -18.5572   -7.4611 C   0  0  0  0  0  0  0  0  0  0  0  0
   25.5728  -19.9361   -7.8482 C   0  0  2  0  0  0  0  0  0  0  0  0
   26.1994  -20.9367   -6.8485 C   0  0  0  0  0  0  0  0  0  0  0  0
   25.9167  -20.4205   -9.1873 C   0  0  0  0  0  0  0  0  0  0  0  0
   24.9244  -21.1030  -10.0436 C   0  0  2  0  0  0  0  0  0  0  0  0
   25.1098  -20.4542  -11.3824 N   0  0  0  0  0  0  0  0  0  0  0  0
   23.5059  -20.9339   -9.7455 C   0  0  0  0  0  0  0  0  0  0  0  0
   22.8201  -21.8772   -8.9956 O   0  0  0  0  0  0  0  0  0  0  0  0
   22.8316  -19.9555  -10.1347 O   0  0  0  0  0  0  0  0  0  0  0  0
  2  1  1  1
  2  3  1  0
  3  4  1  0
  5  6  2  0
  5  2  1  0
  7  5  1  0
  8  7  1  0
  9 10  1  0
  8  9  1  6
 10 11  2  0
 11 12  1  0
 13 12  1  0
 14 13  2  0
 15 14  1  0
 16 17  1  0
 16 15  2  0
 17 18  2  0
 18 10  1  0
 18 13  1  0
 19  8  1  0
 19 20  2  0
 22 21  1  1
 23 22  1  0
 24 22  1  0
 25 24  1  1
 25 26  1  0
 26 19  1  0
 27 25  1  0
 28 27  1  0
 29 27  2  0
M  END
$$$$
