CWL.pdb
     RDKit          3D

 29 30  0  0  1  0  0  0  0  0999 V2000
   28.7707  -20.5563  -14.9142 N   0  0  0  0  0  0  0  0  0  0  0  0
   28.0242  -19.6481  -14.0991 C   0  0  1  0  0  0  0  0  0  0  0  0
   27.3264  -18.5618  -14.8898 C   0  0  0  0  0  0  0  0  0  0  0  0
   28.4477  -17.2236  -15.3386 S   0  0  0  0  0  0  0  0  0  0  0  0
   26.9807  -20.3919  -13.3584 C   0  0  0  0  0  0  0  0  0  0  0  0
   26.3879  -21.3923  -13.8742 O   0  0  0  0  0  0  0  0  0  0  0  0
   26.6264  -19.9943  -12.0528 N   0  0  0  0  0  0  0  0  0  0  0  0
   25.6783  -20.7768  -11.3063 C   0  0  1  0  0  0  0  0  0  0  0  0
   25.7544  -20.5533   -9.8190 C   0  0  0  0  0  0  0  0  0  0  0  0
   27.0455  -20.7945   -9.2027 C   0  0  0  0  0  0  0  0  0  0  0  0
   28.0406  -21.5652   -9.7844 C   0  0  0  0  0  0  0  0  0  0  0  0
   29.0874  -21.5409   -8.9496 N   0  0  0  0  0  0  0  0  0  0  0  0
   28.8119  -20.7904   -7.8569 C   0  0  0  0  0  0  0  0  0  0  0  0
   29.5178  -20.4531   -6.7253 C   0  0  0  0  0  0  0  0  0  0  0  0
   28.9482  -19.6521   -5.7537 C   0  0  0  0  0  0  0  0  0  0  0  0
   27.6794  -19.1663   -5.8692 C   0  0  0  0  0  0  0  0  0  0  0  0
   26.9677  -19.5088   -7.0147 C   0  0  0  0  0  0  0  0  0  0  0  0
   27.5161  -20.3129   -8.0099 C   0  0  0  0  0  0  0  0  0  0  0  0
   24.2921  -20.4540  -11.7252 C   0  0  0  0  0  0  0  0  0  0  0  0
   24.0162  -19.2549  -11.9764 O   0  0  0  0  0  0  0  0  0  0  0  0
   20.4987  -20.8632  -15.3685 C   0  0  0  0  0  0  0  0  0  0  0  0
   21.7648  -21.5959  -15.0284 C   0  0  2  0  0  0  0  0  0  0  0  0
   21.8411  -22.8510  -15.9296 C   0  0  0  0  0  0  0  0  0  0  0  0
   21.9376  -22.0653  -13.6515 C   0  0  0  0  0  0  0  0  0  0  0  0
   21.9700  -21.1266  -12.5106 C   0  0  2  0  0  0  0  0  0  0  0  0
   23.2848  -21.4190  -11.8521 N   0  0  0  0  0  0  0  0  0  0  0  0
   20.9829  -21.2807  -11.4469 C   0  0  0  0  0  0  0  0  0  0  0  0
   19.9181  -20.4000  -11.3327 O   0  0  0  0  0  0  0  0  0  0  0  0
   21.0285  -22.1907  -10.5906 O   0  0  0  0  0  0  0  0  0  0  0  0
  2  1  1  6
  2  3  1  0
  3  4  1  0
  5  6  2  0
  5  2  1  0
  7  5  1  0
  8  7  1  0
  9 10  1  0
  8  9  1  1
 10 11  2  0
 11 12  1  0
 13 12  1  0
 14 13  2  0
 15 14  1  0
 16 17  1  0
 16 15  2  0
 17 18  2  0
 18 10  1  0
 18 13  1  0
 19  8  1  0
 19 20  2  0
 22 21  1  1
 23 22  1  0
 24 22  1  0
 25 24  1  6
 25 26  1  0
 26 19  1  0
 27 25  1  0
 28 27  1  0
 29 27  2  0
M  END
$$$$
