CWL.pdb
     RDKit          3D

 29 30  0  0  1  0  0  0  0  0999 V2000
   28.0638  -22.4314  -16.9288 N   0  0  0  0  0  0  0  0  0  0  0  0
   28.3465  -21.3739  -16.0077 C   0  0  1  0  0  0  0  0  0  0  0  0
   28.0645  -19.9954  -16.5667 C   0  0  0  0  0  0  0  0  0  0  0  0
   26.3459  -19.8101  -17.0783 S   0  0  0  0  0  0  0  0  0  0  0  0
   27.5111  -21.5365  -14.7967 C   0  0  0  0  0  0  0  0  0  0  0  0
   26.4168  -22.1844  -14.8289 O   0  0  0  0  0  0  0  0  0  0  0  0
   27.9249  -20.9668  -13.5751 N   0  0  0  0  0  0  0  0  0  0  0  0
   27.1012  -21.1209  -12.4062 C   0  0  1  0  0  0  0  0  0  0  0  0
   27.7970  -20.7373  -11.1268 C   0  0  0  0  0  0  0  0  0  0  0  0
   26.9691  -20.7022   -9.9360 C   0  0  0  0  0  0  0  0  0  0  0  0
   25.6405  -21.0983   -9.9140 C   0  0  0  0  0  0  0  0  0  0  0  0
   25.2141  -20.9550   -8.6527 N   0  0  0  0  0  0  0  0  0  0  0  0
   26.2071  -20.4842   -7.8615 C   0  0  0  0  0  0  0  0  0  0  0  0
   26.2958  -20.1634   -6.5267 C   0  0  0  0  0  0  0  0  0  0  0  0
   27.4785  -19.6844   -5.9957 C   0  0  0  0  0  0  0  0  0  0  0  0
   28.5954  -19.5100   -6.7580 C   0  0  0  0  0  0  0  0  0  0  0  0
   28.5030  -19.8355   -8.1077 C   0  0  0  0  0  0  0  0  0  0  0  0
   27.3254  -20.3206   -8.6696 C   0  0  0  0  0  0  0  0  0  0  0  0
   25.8853  -20.2773  -12.5109 C   0  0  0  0  0  0  0  0  0  0  0  0
   26.0341  -19.0587  -12.7755 O   0  0  0  0  0  0  0  0  0  0  0  0
   21.8767  -18.3356  -14.9040 C   0  0  0  0  0  0  0  0  0  0  0  0
   22.2603  -19.7752  -15.0940 C   0  0  2  0  0  0  0  0  0  0  0  0
   21.0016  -20.6374  -14.8379 C   0  0  0  0  0  0  0  0  0  0  0  0
   23.3165  -20.3227  -14.2392 C   0  0  0  0  0  0  0  0  0  0  0  0
   23.3708  -20.0324  -12.7913 C   0  0  2  0  0  0  0  0  0  0  0  0
   24.5886  -20.7749  -12.3292 N   0  0  0  0  0  0  0  0  0  0  0  0
   22.2943  -20.5223  -11.9366 C   0  0  0  0  0  0  0  0  0  0  0  0
   21.2672  -19.6817  -11.5353 O   0  0  0  0  0  0  0  0  0  0  0  0
   22.2264  -21.6991  -11.5195 O   0  0  0  0  0  0  0  0  0  0  0  0
  2  1  1  6
  2  3  1  0
  3  4  1  0
  5  6  2  0
  5  2  1  0
  7  5  1  0
  8  7  1  0
  9 10  1  0
  8  9  1  1
 10 11  2  0
 11 12  1  0
 13 12  1  0
 14 13  2  0
 15 14  1  0
 16 17  1  0
 16 15  2  0
 17 18  2  0
 18 10  1  0
 18 13  1  0
 19  8  1  0
 19 20  2  0
 22 21  1  1
 23 22  1  0
 24 22  1  0
 25 24  1  6
 25 26  1  0
 26 19  1  0
 27 25  1  0
 28 27  1  0
 29 27  2  0
M  END
$$$$
