CWL.pdb
     RDKit          3D

 29 30  0  0  1  0  0  0  0  0999 V2000
   28.9603  -21.3449  -17.4156 N   0  0  0  0  0  0  0  0  0  0  0  0
   27.6053  -21.5562  -17.8228 C   0  0  1  0  0  0  0  0  0  0  0  0
   27.2045  -23.0160  -17.8507 C   0  0  0  0  0  0  0  0  0  0  0  0
   27.3553  -23.7912  -16.2302 S   0  0  0  0  0  0  0  0  0  0  0  0
   26.6932  -20.8679  -16.8821 C   0  0  0  0  0  0  0  0  0  0  0  0
   26.9793  -20.7508  -15.6481 O   0  0  0  0  0  0  0  0  0  0  0  0
   25.4787  -20.3257  -17.3498 N   0  0  0  0  0  0  0  0  0  0  0  0
   24.6188  -19.6212  -16.4372 C   0  0  1  0  0  0  0  0  0  0  0  0
   23.5370  -18.8286  -17.1223 C   0  0  0  0  0  0  0  0  0  0  0  0
   22.7461  -17.9599  -16.2709 C   0  0  0  0  0  0  0  0  0  0  0  0
   23.0414  -17.7168  -14.9381 C   0  0  0  0  0  0  0  0  0  0  0  0
   22.1203  -16.8553  -14.4880 N   0  0  0  0  0  0  0  0  0  0  0  0
   21.2451  -16.5329  -15.4696 C   0  0  0  0  0  0  0  0  0  0  0  0
   20.1383  -15.7185  -15.5347 C   0  0  0  0  0  0  0  0  0  0  0  0
   19.4236  -15.5959  -16.7113 C   0  0  0  0  0  0  0  0  0  0  0  0
   19.7765  -16.2661  -17.8451 C   0  0  0  0  0  0  0  0  0  0  0  0
   20.8964  -17.0890  -17.7765 C   0  0  0  0  0  0  0  0  0  0  0  0
   21.6357  -17.2310  -16.6055 C   0  0  0  0  0  0  0  0  0  0  0  0
   23.9467  -20.5709  -15.5165 C   0  0  0  0  0  0  0  0  0  0  0  0
   23.6170  -21.6957  -15.9674 O   0  0  0  0  0  0  0  0  0  0  0  0
   25.6242  -20.3191  -10.4460 C   0  0  0  0  0  0  0  0  0  0  0  0
   24.3003  -20.3849  -11.1521 C   0  0  2  0  0  0  0  0  0  0  0  0
   23.2093  -20.6474  -10.0872 C   0  0  0  0  0  0  0  0  0  0  0  0
   24.1235  -21.4084  -12.1852 C   0  0  0  0  0  0  0  0  0  0  0  0
   23.0884  -21.2826  -13.2322 C   0  0  2  0  0  0  0  0  0  0  0  0
   23.6654  -20.2719  -14.1774 N   0  0  0  0  0  0  0  0  0  0  0  0
   21.7829  -20.7424  -12.8670 C   0  0  0  0  0  0  0  0  0  0  0  0
   21.4814  -19.4063  -13.0823 O   0  0  0  0  0  0  0  0  0  0  0  0
   20.8736  -21.4272  -12.3499 O   0  0  0  0  0  0  0  0  0  0  0  0
  2  1  1  1
  2  3  1  0
  3  4  1  0
  5  6  2  0
  5  2  1  0
  7  5  1  0
  8  7  1  0
  9 10  1  0
  8  9  1  6
 10 11  2  0
 11 12  1  0
 13 12  1  0
 14 13  2  0
 15 14  1  0
 16 17  1  0
 16 15  2  0
 17 18  2  0
 18 10  1  0
 18 13  1  0
 19  8  1  0
 19 20  2  0
 22 21  1  1
 23 22  1  0
 24 22  1  0
 25 24  1  1
 25 26  1  0
 26 19  1  0
 27 25  1  0
 28 27  1  0
 29 27  2  0
M  END
$$$$
