CWL.pdb
     RDKit          3D

 29 30  0  0  1  0  0  0  0  0999 V2000
   27.9837  -21.1942  -14.6978 N   0  0  0  0  0  0  0  0  0  0  0  0
   28.1513  -19.8498  -14.2384 C   0  0  1  0  0  0  0  0  0  0  0  0
   27.8301  -18.8086  -15.2895 C   0  0  0  0  0  0  0  0  0  0  0  0
   27.3022  -19.5547  -16.8433 S   0  0  0  0  0  0  0  0  0  0  0  0
   27.2528  -19.6048  -13.0880 C   0  0  0  0  0  0  0  0  0  0  0  0
   27.0799  -18.4346  -12.6199 O   0  0  0  0  0  0  0  0  0  0  0  0
   26.5677  -20.6816  -12.4888 N   0  0  0  0  0  0  0  0  0  0  0  0
   25.6225  -20.4227  -11.4361 C   0  0  1  0  0  0  0  0  0  0  0  0
   24.2563  -20.9981  -11.7011 C   0  0  0  0  0  0  0  0  0  0  0  0
   23.4115  -20.2444  -12.6084 C   0  0  0  0  0  0  0  0  0  0  0  0
   23.6657  -20.1172  -13.9655 C   0  0  0  0  0  0  0  0  0  0  0  0
   22.6701  -19.3836  -14.4792 N   0  0  0  0  0  0  0  0  0  0  0  0
   21.7867  -19.0321  -13.5151 C   0  0  0  0  0  0  0  0  0  0  0  0
   20.6239  -18.2972  -13.5052 C   0  0  0  0  0  0  0  0  0  0  0  0
   19.9268  -18.0997  -12.3283 C   0  0  0  0  0  0  0  0  0  0  0  0
   20.3524  -18.6159  -11.1402 C   0  0  0  0  0  0  0  0  0  0  0  0
   21.5287  -19.3591  -11.1531 C   0  0  0  0  0  0  0  0  0  0  0  0
   22.2510  -19.5749  -12.3234 C   0  0  0  0  0  0  0  0  0  0  0  0
   26.0981  -21.0009  -10.1553 C   0  0  0  0  0  0  0  0  0  0  0  0
   26.5030  -22.1897  -10.1594 O   0  0  0  0  0  0  0  0  0  0  0  0
   29.3235  -20.6043   -6.4651 C   0  0  0  0  0  0  0  0  0  0  0  0
   28.3290  -19.5500   -6.8587 C   0  0  2  0  0  0  0  0  0  0  0  0
   28.5367  -18.3330   -5.9265 C   0  0  0  0  0  0  0  0  0  0  0  0
   26.9053  -19.8877   -6.7856 C   0  0  0  0  0  0  0  0  0  0  0  0
   26.3172  -20.9535   -7.6233 C   0  0  2  0  0  0  0  0  0  0  0  0
   26.1156  -20.2863   -8.9507 N   0  0  0  0  0  0  0  0  0  0  0  0
   25.0017  -21.4775   -7.2707 C   0  0  0  0  0  0  0  0  0  0  0  0
   24.8608  -22.4330   -6.2758 O   0  0  0  0  0  0  0  0  0  0  0  0
   23.9426  -21.1118   -7.8255 O   0  0  0  0  0  0  0  0  0  0  0  0
  2  1  1  6
  2  3  1  0
  3  4  1  0
  5  6  2  0
  5  2  1  0
  7  5  1  0
  8  7  1  0
  9 10  1  0
  8  9  1  6
 10 11  2  0
 11 12  1  0
 13 12  1  0
 14 13  2  0
 15 14  1  0
 16 17  1  0
 16 15  2  0
 17 18  2  0
 18 10  1  0
 18 13  1  0
 19  8  1  0
 19 20  2  0
 22 21  1  1
 23 22  1  0
 24 22  1  0
 25 24  1  1
 25 26  1  0
 26 19  1  0
 27 25  1  0
 28 27  1  0
 29 27  2  0
M  END
$$$$
