CWL.pdb
     RDKit          3D

 29 30  0  0  1  0  0  0  0  0999 V2000
   27.4594  -21.6734  -17.0567 N   0  0  0  0  0  0  0  0  0  0  0  0
   27.9408  -22.1629  -15.8016 C   0  0  1  0  0  0  0  0  0  0  0  0
   29.4405  -22.3684  -15.7693 C   0  0  0  0  0  0  0  0  0  0  0  0
   29.9123  -24.0089  -16.3489 S   0  0  0  0  0  0  0  0  0  0  0  0
   27.6066  -21.1952  -14.7325 C   0  0  0  0  0  0  0  0  0  0  0  0
   28.2784  -20.1269  -14.5723 O   0  0  0  0  0  0  0  0  0  0  0  0
   26.5236  -21.4502  -13.8665 N   0  0  0  0  0  0  0  0  0  0  0  0
   26.1673  -20.4752  -12.8710 C   0  0  1  0  0  0  0  0  0  0  0  0
   24.7460  -19.9910  -12.9868 C   0  0  0  0  0  0  0  0  0  0  0  0
   24.4491  -19.1519  -14.1325 C   0  0  0  0  0  0  0  0  0  0  0  0
   23.3266  -19.3128  -14.9303 C   0  0  0  0  0  0  0  0  0  0  0  0
   23.3723  -18.3521  -15.8621 N   0  0  0  0  0  0  0  0  0  0  0  0
   24.4730  -17.5801  -15.7012 C   0  0  0  0  0  0  0  0  0  0  0  0
   24.9853  -16.4932  -16.3709 C   0  0  0  0  0  0  0  0  0  0  0  0
   26.1687  -15.9084  -15.9613 C   0  0  0  0  0  0  0  0  0  0  0  0
   26.8730  -16.3743  -14.8907 C   0  0  0  0  0  0  0  0  0  0  0  0
   26.3525  -17.4736  -14.2149 C   0  0  0  0  0  0  0  0  0  0  0  0
   25.1627  -18.0822  -14.6045 C   0  0  0  0  0  0  0  0  0  0  0  0
   26.3256  -21.0402  -11.5084 C   0  0  0  0  0  0  0  0  0  0  0  0
   26.1241  -22.2700  -11.3530 O   0  0  0  0  0  0  0  0  0  0  0  0
   26.9274  -20.0972   -5.9305 C   0  0  0  0  0  0  0  0  0  0  0  0
   28.0634  -20.1007   -6.9128 C   0  0  2  0  0  0  0  0  0  0  0  0
   29.0064  -18.9296   -6.5490 C   0  0  0  0  0  0  0  0  0  0  0  0
   27.7426  -19.9462   -8.3339 C   0  0  0  0  0  0  0  0  0  0  0  0
   26.7934  -20.8494   -9.0172 C   0  0  2  0  0  0  0  0  0  0  0  0
   26.6870  -20.2698  -10.3958 N   0  0  0  0  0  0  0  0  0  0  0  0
   25.4167  -20.9137   -8.5373 C   0  0  0  0  0  0  0  0  0  0  0  0
   24.4727  -19.9908   -8.9612 O   0  0  0  0  0  0  0  0  0  0  0  0
   25.0062  -21.7799   -7.7344 O   0  0  0  0  0  0  0  0  0  0  0  0
  2  1  1  6
  2  3  1  0
  3  4  1  0
  5  6  2  0
  5  2  1  0
  7  5  1  0
  8  7  1  0
  9 10  1  0
  8  9  1  6
 10 11  2  0
 11 12  1  0
 13 12  1  0
 14 13  2  0
 15 14  1  0
 16 17  1  0
 16 15  2  0
 17 18  2  0
 18 10  1  0
 18 13  1  0
 19  8  1  0
 19 20  2  0
 22 21  1  1
 23 22  1  0
 24 22  1  0
 25 24  1  1
 25 26  1  0
 26 19  1  0
 27 25  1  0
 28 27  1  0
 29 27  2  0
M  END
$$$$
