SGI.pdb
     RDKit          3D

 19 18  0  0  1  0  0  0  0  0999 V2000
   25.5574  -18.2207  -20.8118 O   0  0  0  0  0  0  0  0  0  0  0  0
   26.6254  -17.5086  -21.3710 C   0  0  0  0  0  0  0  0  0  0  0  0
   27.7476  -17.4303  -20.3652 C   0  0  2  0  0  0  0  0  0  0  0  0
   27.2108  -17.0141  -19.0964 N   0  0  0  0  0  0  0  0  0  0  0  0
   28.8060  -16.4665  -20.8372 C   0  0  0  0  0  0  0  0  0  0  0  0
   29.4180  -16.6901  -21.8944 O   0  0  0  0  0  0  0  0  0  0  0  0
   29.1119  -15.3016  -20.0833 N   0  0  0  0  0  0  0  0  0  0  0  0
   30.0762  -14.3236  -20.4660 C   0  0  0  0  0  0  0  0  0  0  0  0
   30.1281  -13.1575  -19.5628 C   0  0  0  0  0  0  0  0  0  0  0  0
   29.1218  -12.9087  -18.8554 O   0  0  0  0  0  0  0  0  0  0  0  0
   33.4693  -13.2453  -18.0808 C   0  0  0  0  0  0  0  0  0  0  0  0
   33.4204  -11.9065  -17.3929 C   0  0  0  0  0  0  0  0  0  0  0  0
   32.6968  -10.8408  -18.1248 C   0  0  2  0  0  0  0  0  0  0  0  0
   32.7369   -9.5452  -17.3003 C   0  0  0  0  0  0  0  0  0  0  0  0
   31.3036  -11.1463  -18.5585 C   0  0  2  0  0  0  0  0  0  0  0  0
   31.2467  -12.2965  -19.4425 N   0  0  0  0  0  0  0  0  0  0  0  0
   30.5496  -10.0049  -19.1158 C   0  0  0  0  0  0  0  0  0  0  0  0
   30.6054   -9.6631  -20.4596 O   0  0  0  0  0  0  0  0  0  0  0  0
   29.7973   -9.2542  -18.4046 O   0  0  0  0  0  0  0  0  0  0  0  0
  2  1  1  0
  3  2  1  0
  3  4  1  1
  5  6  2  0
  5  3  1  0
  7  5  1  0
  8  7  1  0
  9 10  2  0
  9  8  1  0
 11 12  1  0
 12 13  1  0
 13 14  1  1
 15 16  1  6
 15 13  1  0
 16  9  1  0
 17 15  1  0
 18 17  1  0
 19 17  2  0
M  END
$$$$
