SGI.pdb
     RDKit          3D

 19 18  0  0  1  0  0  0  0  0999 V2000
   23.5026  -18.8289  -17.2935 O   0  0  0  0  0  0  0  0  0  0  0  0
   24.1703  -20.0046  -17.6577 C   0  0  0  0  0  0  0  0  0  0  0  0
   24.3189  -20.8854  -16.4416 C   0  0  2  0  0  0  0  0  0  0  0  0
   23.0110  -21.2657  -15.9765 N   0  0  0  0  0  0  0  0  0  0  0  0
   25.0780  -20.1598  -15.3604 C   0  0  0  0  0  0  0  0  0  0  0  0
   26.2668  -19.8500  -15.5417 O   0  0  0  0  0  0  0  0  0  0  0  0
   24.4462  -19.8257  -14.1324 N   0  0  0  0  0  0  0  0  0  0  0  0
   25.0959  -19.1766  -13.0416 C   0  0  0  0  0  0  0  0  0  0  0  0
   25.3477  -20.0637  -11.8892 C   0  0  0  0  0  0  0  0  0  0  0  0
   25.1990  -21.2997  -12.0473 O   0  0  0  0  0  0  0  0  0  0  0  0
   28.4343  -20.1251   -6.4700 C   0  0  0  0  0  0  0  0  0  0  0  0
   27.4348  -20.7502   -7.4071 C   0  0  0  0  0  0  0  0  0  0  0  0
   26.9724  -19.8829   -8.5157 C   0  0  2  0  0  0  0  0  0  0  0  0
   26.4412  -18.5631   -7.9365 C   0  0  0  0  0  0  0  0  0  0  0  0
   25.9904  -20.4729   -9.4696 C   0  0  2  0  0  0  0  0  0  0  0  0
   25.7484  -19.6070  -10.6095 N   0  0  0  0  0  0  0  0  0  0  0  0
   24.7222  -20.9333   -8.8682 C   0  0  0  0  0  0  0  0  0  0  0  0
   23.4983  -20.3626   -9.1881 O   0  0  0  0  0  0  0  0  0  0  0  0
   24.6615  -21.8835   -8.0146 O   0  0  0  0  0  0  0  0  0  0  0  0
  2  1  1  0
  3  2  1  0
  3  4  1  1
  5  6  2  0
  5  3  1  0
  7  5  1  0
  8  7  1  0
  9 10  2  0
  9  8  1  0
 11 12  1  0
 12 13  1  0
 13 14  1  1
 15 16  1  6
 15 13  1  0
 16  9  1  0
 17 15  1  0
 18 17  1  0
 19 17  2  0
M  END
$$$$
