SGI.pdb
     RDKit          3D

 19 18  0  0  1  0  0  0  0  0999 V2000
   16.3423  -10.1867  -17.1650 O   0  0  0  0  0  0  0  0  0  0  0  0
   16.3233  -10.2479  -15.7662 C   0  0  0  0  0  0  0  0  0  0  0  0
   17.7414  -10.2203  -15.2511 C   0  0  2  0  0  0  0  0  0  0  0  0
   18.3875  -11.4603  -15.5922 N   0  0  0  0  0  0  0  0  0  0  0  0
   17.7512  -10.0079  -13.7589 C   0  0  0  0  0  0  0  0  0  0  0  0
   17.4753  -10.9505  -12.9989 O   0  0  0  0  0  0  0  0  0  0  0  0
   18.0737   -8.7372  -13.2110 N   0  0  0  0  0  0  0  0  0  0  0  0
   18.0098   -8.4178  -11.8228 C   0  0  0  0  0  0  0  0  0  0  0  0
   16.8616   -7.5628  -11.4639 C   0  0  0  0  0  0  0  0  0  0  0  0
   16.2036   -7.0316  -12.3911 O   0  0  0  0  0  0  0  0  0  0  0  0
   11.9279   -6.7166   -8.8155 C   0  0  0  0  0  0  0  0  0  0  0  0
   13.2767   -6.2603   -8.3251 C   0  0  0  0  0  0  0  0  0  0  0  0
   14.4292   -7.0683   -8.7877 C   0  0  2  0  0  0  0  0  0  0  0  0
   15.2088   -7.5810   -7.5675 C   0  0  0  0  0  0  0  0  0  0  0  0
   15.3499   -6.4296   -9.7710 C   0  0  2  0  0  0  0  0  0  0  0  0
   16.4527   -7.3018  -10.1328 N   0  0  0  0  0  0  0  0  0  0  0  0
   15.8311   -5.0820   -9.4046 C   0  0  0  0  0  0  0  0  0  0  0  0
   17.0987   -4.8620   -8.8845 O   0  0  0  0  0  0  0  0  0  0  0  0
   15.1185   -4.0286   -9.5382 O   0  0  0  0  0  0  0  0  0  0  0  0
  2  1  1  0
  3  2  1  0
  3  4  1  1
  5  6  2  0
  5  3  1  0
  7  5  1  0
  8  7  1  0
  9 10  2  0
  9  8  1  0
 11 12  1  0
 12 13  1  0
 13 14  1  1
 15 16  1  1
 15 13  1  0
 16  9  1  0
 17 15  1  0
 18 17  1  0
 19 17  2  0
M  END
$$$$
