SGI.pdb
     RDKit          3D

 19 18  0  0  1  0  0  0  0  0999 V2000
   28.1806  -12.3729  -19.1058 O   0  0  0  0  0  0  0  0  0  0  0  0
   29.5575  -12.1304  -19.0287 C   0  0  0  0  0  0  0  0  0  0  0  0
   29.8767  -10.8541  -19.7677 C   0  0  2  0  0  0  0  0  0  0  0  0
   29.5644  -11.0297  -21.1616 N   0  0  0  0  0  0  0  0  0  0  0  0
   31.3299  -10.4962  -19.5889 C   0  0  0  0  0  0  0  0  0  0  0  0
   32.1899  -11.0253  -20.3117 O   0  0  0  0  0  0  0  0  0  0  0  0
   31.7273   -9.5573  -18.5993 N   0  0  0  0  0  0  0  0  0  0  0  0
   33.0759   -9.1615  -18.3586 C   0  0  0  0  0  0  0  0  0  0  0  0
   33.2270   -8.2342  -17.2204 C   0  0  0  0  0  0  0  0  0  0  0  0
   32.1904   -7.8419  -16.6319 O   0  0  0  0  0  0  0  0  0  0  0  0
   36.9852   -9.3216  -13.6045 C   0  0  0  0  0  0  0  0  0  0  0  0
   35.7574   -8.8404  -14.3318 C   0  0  0  0  0  0  0  0  0  0  0  0
   35.7573   -7.4055  -14.7005 C   0  0  2  0  0  0  0  0  0  0  0  0
   35.8560   -6.5561  -13.4243 C   0  0  0  0  0  0  0  0  0  0  0  0
   34.6389   -6.9307  -15.5642 C   0  0  2  0  0  0  0  0  0  0  0  0
   34.4738   -7.7562  -16.7470 N   0  0  0  0  0  0  0  0  0  0  0  0
   34.6742   -5.4958  -15.9135 C   0  0  0  0  0  0  0  0  0  0  0  0
   35.1455   -5.0407  -17.1368 O   0  0  0  0  0  0  0  0  0  0  0  0
   34.2768   -4.5763  -15.1186 O   0  0  0  0  0  0  0  0  0  0  0  0
  2  1  1  0
  3  2  1  0
  3  4  1  6
  5  6  2  0
  5  3  1  0
  7  5  1  0
  8  7  1  0
  9 10  2  0
  9  8  1  0
 11 12  1  0
 12 13  1  0
 13 14  1  1
 15 16  1  6
 15 13  1  0
 16  9  1  0
 17 15  1  0
 18 17  1  0
 19 17  2  0
M  END
$$$$
