SGI.pdb
     RDKit          3D

 19 18  0  0  1  0  0  0  0  0999 V2000
   15.4022  -26.1686   -0.5491 O   0  0  0  0  0  0  0  0  0  0  0  0
   15.3558  -24.8946    0.0299 C   0  0  0  0  0  0  0  0  0  0  0  0
   13.9362  -24.3848   -0.0104 C   0  0  2  0  0  0  0  0  0  0  0  0
   13.3806  -24.6496   -1.3114 N   0  0  0  0  0  0  0  0  0  0  0  0
   13.9022  -22.9087    0.2924 C   0  0  0  0  0  0  0  0  0  0  0  0
   13.0822  -22.1779   -0.2870 O   0  0  0  0  0  0  0  0  0  0  0  0
   14.8008  -22.3429    1.2364 N   0  0  0  0  0  0  0  0  0  0  0  0
   14.8147  -20.9676    1.6125 C   0  0  0  0  0  0  0  0  0  0  0  0
   15.8637  -20.6327    2.5953 C   0  0  0  0  0  0  0  0  0  0  0  0
   16.3637  -21.5643    3.2713 O   0  0  0  0  0  0  0  0  0  0  0  0
   20.1286  -17.6382    1.4208 C   0  0  0  0  0  0  0  0  0  0  0  0
   19.1112  -18.5817    2.0062 C   0  0  0  0  0  0  0  0  0  0  0  0
   18.4194  -18.0968    3.2232 C   0  0  2  0  0  0  0  0  0  0  0  0
   19.4655  -17.7332    4.2878 C   0  0  0  0  0  0  0  0  0  0  0  0
   17.3671  -18.9818    3.7993 C   0  0  2  0  0  0  0  0  0  0  0  0
   16.3449  -19.3203    2.8255 N   0  0  0  0  0  0  0  0  0  0  0  0
   16.7667  -18.5107    5.0640 C   0  0  0  0  0  0  0  0  0  0  0  0
   15.5203  -17.9026    5.1131 O   0  0  0  0  0  0  0  0  0  0  0  0
   17.3489  -18.6275    6.1966 O   0  0  0  0  0  0  0  0  0  0  0  0
  2  1  1  0
  3  2  1  0
  3  4  1  6
  5  6  2  0
  5  3  1  0
  7  5  1  0
  8  7  1  0
  9 10  2  0
  9  8  1  0
 11 12  1  0
 12 13  1  0
 13 14  1  1
 15 16  1  6
 15 13  1  0
 16  9  1  0
 17 15  1  0
 18 17  1  0
 19 17  2  0
M  END
$$$$
