SGI.pdb
     RDKit          3D

 19 18  0  0  1  0  0  0  0  0999 V2000
   17.2052  -12.8093  -14.5161 O   0  0  0  0  0  0  0  0  0  0  0  0
   16.3284  -11.9495  -15.1889 C   0  0  0  0  0  0  0  0  0  0  0  0
   16.6105  -10.5281  -14.7684 C   0  0  2  0  0  0  0  0  0  0  0  0
   17.9504  -10.1806  -15.1624 N   0  0  0  0  0  0  0  0  0  0  0  0
   16.4388  -10.3801  -13.2783 C   0  0  0  0  0  0  0  0  0  0  0  0
   15.3537  -10.6717  -12.7495 O   0  0  0  0  0  0  0  0  0  0  0  0
   17.5082   -9.9092  -12.4699 N   0  0  0  0  0  0  0  0  0  0  0  0
   17.4001   -9.6203  -11.0778 C   0  0  0  0  0  0  0  0  0  0  0  0
   16.7142   -8.3458  -10.7887 C   0  0  0  0  0  0  0  0  0  0  0  0
   16.8016   -7.4197  -11.6310 O   0  0  0  0  0  0  0  0  0  0  0  0
   12.1741   -8.4199   -7.6782 C   0  0  0  0  0  0  0  0  0  0  0  0
   13.1427   -8.0347   -8.7652 C   0  0  0  0  0  0  0  0  0  0  0  0
   14.1491   -7.0147   -8.3891 C   0  0  2  0  0  0  0  0  0  0  0  0
   13.4415   -5.6733   -8.1445 C   0  0  0  0  0  0  0  0  0  0  0  0
   15.3083   -6.8387   -9.3098 C   0  0  2  0  0  0  0  0  0  0  0  0
   15.9595   -8.0997   -9.6153 N   0  0  0  0  0  0  0  0  0  0  0  0
   16.2908   -5.8139   -8.9015 C   0  0  0  0  0  0  0  0  0  0  0  0
   16.2087   -4.4954   -9.3264 O   0  0  0  0  0  0  0  0  0  0  0  0
   17.2815   -6.0668   -8.1335 O   0  0  0  0  0  0  0  0  0  0  0  0
  2  1  1  0
  3  2  1  0
  3  4  1  1
  5  6  2  0
  5  3  1  0
  7  5  1  0
  8  7  1  0
  9 10  2  0
  9  8  1  0
 11 12  1  0
 12 13  1  0
 13 14  1  6
 15 16  1  1
 15 13  1  0
 16  9  1  0
 17 15  1  0
 18 17  1  0
 19 17  2  0
M  END
$$$$
