SGI.pdb
     RDKit          3D

 19 18  0  0  1  0  0  0  0  0999 V2000
   16.3535  -11.1013  -15.7113 O   0  0  0  0  0  0  0  0  0  0  0  0
   16.1748  -11.5765  -17.0162 C   0  0  0  0  0  0  0  0  0  0  0  0
   17.3185  -11.0990  -17.8769 C   0  0  2  0  0  0  0  0  0  0  0  0
   18.5308  -11.7423  -17.4435 N   0  0  0  0  0  0  0  0  0  0  0  0
   17.4498   -9.6002  -17.7870 C   0  0  0  0  0  0  0  0  0  0  0  0
   16.4781   -8.8773  -18.0614 O   0  0  0  0  0  0  0  0  0  0  0  0
   18.6770   -9.0040  -17.3903 N   0  0  0  0  0  0  0  0  0  0  0  0
   18.8468   -7.6154  -17.1143 C   0  0  0  0  0  0  0  0  0  0  0  0
   19.3185   -7.3371  -15.7438 C   0  0  0  0  0  0  0  0  0  0  0  0
   18.5089   -7.4818  -14.7960 O   0  0  0  0  0  0  0  0  0  0  0  0
   23.6267   -9.9336  -14.1384 C   0  0  0  0  0  0  0  0  0  0  0  0
   22.9703   -8.6472  -14.5657 C   0  0  0  0  0  0  0  0  0  0  0  0
   21.8225   -8.2120  -13.7363 C   0  0  2  0  0  0  0  0  0  0  0  0
   20.7713   -9.3316  -13.7014 C   0  0  0  0  0  0  0  0  0  0  0  0
   21.1917   -6.9078  -14.0879 C   0  0  2  0  0  0  0  0  0  0  0  0
   20.6335   -6.9148  -15.4280 N   0  0  0  0  0  0  0  0  0  0  0  0
   22.0360   -5.7162  -13.8659 C   0  0  0  0  0  0  0  0  0  0  0  0
   22.3609   -4.8354  -14.8878 O   0  0  0  0  0  0  0  0  0  0  0  0
   22.5258   -5.4135  -12.7241 O   0  0  0  0  0  0  0  0  0  0  0  0
  2  1  1  0
  3  2  1  0
  3  4  1  1
  5  6  2  0
  5  3  1  0
  7  5  1  0
  8  7  1  0
  9 10  2  0
  9  8  1  0
 11 12  1  0
 12 13  1  0
 13 14  1  6
 15 16  1  6
 15 13  1  0
 16  9  1  0
 17 15  1  0
 18 17  1  0
 19 17  2  0
M  END
$$$$
