SGI.pdb
     RDKit          3D

 19 18  0  0  1  0  0  0  0  0999 V2000
   27.0122  -20.0385  -18.4978 O   0  0  0  0  0  0  0  0  0  0  0  0
   28.4070  -20.0784  -18.3808 C   0  0  0  0  0  0  0  0  0  0  0  0
   28.7741  -20.6900  -17.0511 C   0  0  2  0  0  0  0  0  0  0  0  0
   28.2392  -22.0246  -16.9861 N   0  0  0  0  0  0  0  0  0  0  0  0
   28.2387  -19.8466  -15.9224 C   0  0  0  0  0  0  0  0  0  0  0  0
   28.6486  -18.6841  -15.7717 O   0  0  0  0  0  0  0  0  0  0  0  0
   27.2674  -20.3690  -15.0266 N   0  0  0  0  0  0  0  0  0  0  0  0
   26.7075  -19.6455  -13.9329 C   0  0  0  0  0  0  0  0  0  0  0  0
   26.1612  -20.5097  -12.8685 C   0  0  0  0  0  0  0  0  0  0  0  0
   25.9612  -21.7206  -13.1305 O   0  0  0  0  0  0  0  0  0  0  0  0
   27.0769  -18.9554   -7.9535 C   0  0  0  0  0  0  0  0  0  0  0  0
   26.8302  -20.1402   -8.8499 C   0  0  0  0  0  0  0  0  0  0  0  0
   25.4108  -20.3997   -9.1859 C   0  0  2  0  0  0  0  0  0  0  0  0
   24.8246  -21.3917   -8.1701 C   0  0  0  0  0  0  0  0  0  0  0  0
   25.1165  -20.8377  -10.5802 C   0  0  2  0  0  0  0  0  0  0  0  0
   25.8464  -20.0577  -11.5633 N   0  0  0  0  0  0  0  0  0  0  0  0
   23.6832  -20.9284  -10.9258 C   0  0  0  0  0  0  0  0  0  0  0  0
   23.0200  -19.9221  -11.6138 O   0  0  0  0  0  0  0  0  0  0  0  0
   22.9552  -21.9334  -10.6168 O   0  0  0  0  0  0  0  0  0  0  0  0
  2  1  1  0
  3  2  1  0
  3  4  1  6
  5  6  2  0
  5  3  1  0
  7  5  1  0
  8  7  1  0
  9 10  2  0
  9  8  1  0
 11 12  1  0
 12 13  1  0
 13 14  1  1
 15 16  1  6
 15 13  1  0
 16  9  1  0
 17 15  1  0
 18 17  1  0
 19 17  2  0
M  END
$$$$
