SGI.pdb
     RDKit          3D

 19 18  0  0  1  0  0  0  0  0999 V2000
   26.2827  -19.5620  -17.5372 O   0  0  0  0  0  0  0  0  0  0  0  0
   27.5266  -18.9974  -17.2295 C   0  0  0  0  0  0  0  0  0  0  0  0
   28.0729  -19.6535  -15.9853 C   0  0  2  0  0  0  0  0  0  0  0  0
   28.1684  -21.0722  -16.2077 N   0  0  0  0  0  0  0  0  0  0  0  0
   27.1828  -19.3586  -14.8052 C   0  0  0  0  0  0  0  0  0  0  0  0
   27.0962  -18.1982  -14.3715 O   0  0  0  0  0  0  0  0  0  0  0  0
   26.4396  -20.3969  -14.1821 N   0  0  0  0  0  0  0  0  0  0  0  0
   25.5328  -20.2015  -13.0992 C   0  0  0  0  0  0  0  0  0  0  0  0
   26.0386  -20.7001  -11.8055 C   0  0  0  0  0  0  0  0  0  0  0  0
   26.7545  -21.7308  -11.8048 O   0  0  0  0  0  0  0  0  0  0  0  0
   28.3835  -19.2207   -6.4305 C   0  0  0  0  0  0  0  0  0  0  0  0
   27.4928  -20.1801   -7.1749 C   0  0  0  0  0  0  0  0  0  0  0  0
   26.9805  -19.6935   -8.4770 C   0  0  2  0  0  0  0  0  0  0  0  0
   26.2371  -18.3663   -8.2632 C   0  0  0  0  0  0  0  0  0  0  0  0
   26.1483  -20.6413   -9.2718 C   0  0  2  0  0  0  0  0  0  0  0  0
   25.7664  -20.0866  -10.5579 N   0  0  0  0  0  0  0  0  0  0  0  0
   24.9809  -21.2052   -8.5639 C   0  0  0  0  0  0  0  0  0  0  0  0
   25.0966  -22.2437   -7.6507 O   0  0  0  0  0  0  0  0  0  0  0  0
   23.7878  -20.7807   -8.7416 O   0  0  0  0  0  0  0  0  0  0  0  0
  2  1  1  0
  3  2  1  0
  3  4  1  6
  5  6  2  0
  5  3  1  0
  7  5  1  0
  8  7  1  0
  9 10  2  0
  9  8  1  0
 11 12  1  0
 12 13  1  0
 13 14  1  1
 15 16  1  6
 15 13  1  0
 16  9  1  0
 17 15  1  0
 18 17  1  0
 19 17  2  0
M  END
$$$$
