SGI.pdb
     RDKit          3D

 19 18  0  0  1  0  0  0  0  0999 V2000
   19.4133  -10.1547  -15.3525 O   0  0  0  0  0  0  0  0  0  0  0  0
   18.3717  -11.0753  -15.5201 C   0  0  0  0  0  0  0  0  0  0  0  0
   17.0722  -10.4329  -15.1011 C   0  0  2  0  0  0  0  0  0  0  0  0
   16.8003   -9.3175  -15.9690 N   0  0  0  0  0  0  0  0  0  0  0  0
   17.1511   -9.9828  -13.6648 C   0  0  0  0  0  0  0  0  0  0  0  0
   17.2252  -10.8261  -12.7562 O   0  0  0  0  0  0  0  0  0  0  0  0
   17.1414   -8.5999  -13.3384 N   0  0  0  0  0  0  0  0  0  0  0  0
   17.4340   -8.0745  -12.0455 C   0  0  0  0  0  0  0  0  0  0  0  0
   16.3046   -7.3498  -11.4311 C   0  0  0  0  0  0  0  0  0  0  0  0
   15.3310   -7.0395  -12.1595 O   0  0  0  0  0  0  0  0  0  0  0  0
   12.1238   -7.0756   -7.3098 C   0  0  0  0  0  0  0  0  0  0  0  0
   13.1460   -6.2178   -8.0079 C   0  0  0  0  0  0  0  0  0  0  0  0
   14.2707   -6.9506   -8.6348 C   0  0  2  0  0  0  0  0  0  0  0  0
   15.0401   -7.7191   -7.5498 C   0  0  0  0  0  0  0  0  0  0  0  0
   15.2059   -6.1558   -9.4810 C   0  0  2  0  0  0  0  0  0  0  0  0
   16.2489   -6.9801  -10.0646 N   0  0  0  0  0  0  0  0  0  0  0  0
   15.7714   -4.9513   -8.8397 C   0  0  0  0  0  0  0  0  0  0  0  0
   15.0754   -3.7530   -8.7661 O   0  0  0  0  0  0  0  0  0  0  0  0
   16.9354   -4.9262   -8.3108 O   0  0  0  0  0  0  0  0  0  0  0  0
  2  1  1  0
  3  2  1  0
  3  4  1  6
  5  6  2  0
  5  3  1  0
  7  5  1  0
  8  7  1  0
  9 10  2  0
  9  8  1  0
 11 12  1  0
 12 13  1  0
 13 14  1  1
 15 16  1  1
 15 13  1  0
 16  9  1  0
 17 15  1  0
 18 17  1  0
 19 17  2  0
M  END
$$$$
