SGI.pdb
     RDKit          3D

 19 18  0  0  1  0  0  0  0  0999 V2000
   20.9125  -14.1321  -22.6755 O   0  0  0  0  0  0  0  0  0  0  0  0
   21.1499  -12.8261  -22.2299 C   0  0  0  0  0  0  0  0  0  0  0  0
   20.8422  -12.7437  -20.7549 C   0  0  2  0  0  0  0  0  0  0  0  0
   19.4333  -12.9616  -20.5578 N   0  0  0  0  0  0  0  0  0  0  0  0
   21.2544  -11.4005  -20.2094 C   0  0  0  0  0  0  0  0  0  0  0  0
   22.4590  -11.1095  -20.1291 O   0  0  0  0  0  0  0  0  0  0  0  0
   20.2767  -10.4610  -19.7849 N   0  0  0  0  0  0  0  0  0  0  0  0
   20.5747   -9.1765  -19.2423 C   0  0  0  0  0  0  0  0  0  0  0  0
   20.4069   -9.0983  -17.7781 C   0  0  0  0  0  0  0  0  0  0  0  0
   19.3905   -9.6283  -17.2674 O   0  0  0  0  0  0  0  0  0  0  0  0
   23.6722  -11.2058  -14.5134 C   0  0  0  0  0  0  0  0  0  0  0  0
   22.5212  -10.5176  -15.1987 C   0  0  0  0  0  0  0  0  0  0  0  0
   22.2504   -9.1315  -14.7513 C   0  0  2  0  0  0  0  0  0  0  0  0
   21.9983   -9.1301  -13.2359 C   0  0  0  0  0  0  0  0  0  0  0  0
   21.1722   -8.3902  -15.4655 C   0  0  2  0  0  0  0  0  0  0  0  0
   21.3243   -8.4599  -16.9076 N   0  0  0  0  0  0  0  0  0  0  0  0
   20.9559   -6.9996  -15.0166 C   0  0  0  0  0  0  0  0  0  0  0  0
   20.0990   -6.6809  -13.9726 O   0  0  0  0  0  0  0  0  0  0  0  0
   21.5380   -5.9962  -15.5549 O   0  0  0  0  0  0  0  0  0  0  0  0
  2  1  1  0
  3  2  1  0
  3  4  1  6
  5  6  2  0
  5  3  1  0
  7  5  1  0
  8  7  1  0
  9 10  2  0
  9  8  1  0
 11 12  1  0
 12 13  1  0
 13 14  1  1
 15 16  1  6
 15 13  1  0
 16  9  1  0
 17 15  1  0
 18 17  1  0
 19 17  2  0
M  END
$$$$
