SGI.pdb
     RDKit          3D

 19 18  0  0  1  0  0  0  0  0999 V2000
   16.8021  -14.2116  -21.3641 O   0  0  0  0  0  0  0  0  0  0  0  0
   17.5953  -13.0746  -21.1676 C   0  0  0  0  0  0  0  0  0  0  0  0
   17.7040  -12.7975  -19.6883 C   0  0  2  0  0  0  0  0  0  0  0  0
   16.4090  -12.4201  -19.1864 N   0  0  0  0  0  0  0  0  0  0  0  0
   18.7121  -11.7063  -19.4338 C   0  0  0  0  0  0  0  0  0  0  0  0
   19.9201  -11.9254  -19.6205 O   0  0  0  0  0  0  0  0  0  0  0  0
   18.2939  -10.4260  -18.9812 N   0  0  0  0  0  0  0  0  0  0  0  0
   19.1766   -9.3420  -18.7002 C   0  0  0  0  0  0  0  0  0  0  0  0
   19.4320   -9.1440  -17.2602 C   0  0  0  0  0  0  0  0  0  0  0  0
   18.5897   -9.5850  -16.4412 O   0  0  0  0  0  0  0  0  0  0  0  0
   23.4847  -11.0368  -14.7262 C   0  0  0  0  0  0  0  0  0  0  0  0
   22.2156  -10.3844  -15.2075 C   0  0  0  0  0  0  0  0  0  0  0  0
   22.0692   -8.9496  -14.8686 C   0  0  2  0  0  0  0  0  0  0  0  0
   22.2633   -8.7655  -13.3559 C   0  0  0  0  0  0  0  0  0  0  0  0
   20.8228   -8.2718  -15.3262 C   0  0  2  0  0  0  0  0  0  0  0  0
   20.5731   -8.4845  -16.7405 N   0  0  0  0  0  0  0  0  0  0  0  0
   20.7137   -6.8417  -14.9725 C   0  0  0  0  0  0  0  0  0  0  0  0
   20.1077   -6.4106  -13.8009 O   0  0  0  0  0  0  0  0  0  0  0  0
   21.1657   -5.9046  -15.7161 O   0  0  0  0  0  0  0  0  0  0  0  0
  2  1  1  0
  3  2  1  0
  3  4  1  6
  5  6  2  0
  5  3  1  0
  7  5  1  0
  8  7  1  0
  9 10  2  0
  9  8  1  0
 11 12  1  0
 12 13  1  0
 13 14  1  1
 15 16  1  6
 15 13  1  0
 16  9  1  0
 17 15  1  0
 18 17  1  0
 19 17  2  0
M  END
$$$$
