SGI.pdb
     RDKit          3D

 19 18  0  0  1  0  0  0  0  0999 V2000
   27.1185  -19.6806  -17.4991 O   0  0  0  0  0  0  0  0  0  0  0  0
   26.7672  -21.0358  -17.4747 C   0  0  0  0  0  0  0  0  0  0  0  0
   27.2531  -21.6491  -16.1845 C   0  0  2  0  0  0  0  0  0  0  0  0
   26.8617  -23.0336  -16.1479 N   0  0  0  0  0  0  0  0  0  0  0  0
   26.6836  -20.9038  -15.0046 C   0  0  0  0  0  0  0  0  0  0  0  0
   25.4533  -20.8435  -14.8473 O   0  0  0  0  0  0  0  0  0  0  0  0
   27.5419  -20.2675  -14.0680 N   0  0  0  0  0  0  0  0  0  0  0  0
   27.0922  -19.5310  -12.9329 C   0  0  0  0  0  0  0  0  0  0  0  0
   26.3980  -20.3582  -11.9269 C   0  0  0  0  0  0  0  0  0  0  0  0
   26.3474  -21.5986  -12.1101 O   0  0  0  0  0  0  0  0  0  0  0  0
   27.2503  -19.0762   -6.9834 C   0  0  0  0  0  0  0  0  0  0  0  0
   26.9454  -19.9969   -8.1356 C   0  0  0  0  0  0  0  0  0  0  0  0
   25.5078  -20.2645   -8.3736 C   0  0  2  0  0  0  0  0  0  0  0  0
   25.0135  -21.3071   -7.3596 C   0  0  0  0  0  0  0  0  0  0  0  0
   25.1131  -20.6484   -9.7589 C   0  0  2  0  0  0  0  0  0  0  0  0
   25.7820  -19.8390  -10.7615 N   0  0  0  0  0  0  0  0  0  0  0  0
   23.6584  -20.7140  -10.0072 C   0  0  0  0  0  0  0  0  0  0  0  0
   22.8868  -21.7998   -9.6181 O   0  0  0  0  0  0  0  0  0  0  0  0
   23.0103  -19.7818  -10.5957 O   0  0  0  0  0  0  0  0  0  0  0  0
  2  1  1  0
  3  2  1  0
  3  4  1  1
  5  6  2  0
  5  3  1  0
  7  5  1  0
  8  7  1  0
  9 10  2  0
  9  8  1  0
 11 12  1  0
 12 13  1  0
 13 14  1  1
 15 16  1  6
 15 13  1  0
 16  9  1  0
 17 15  1  0
 18 17  1  0
 19 17  2  0
M  END
$$$$
