SGI.pdb
     RDKit          3D

 19 18  0  0  1  0  0  0  0  0999 V2000
   20.8693  -14.6244  -20.6339 O   0  0  0  0  0  0  0  0  0  0  0  0
   21.5353  -13.7021  -19.8175 C   0  0  0  0  0  0  0  0  0  0  0  0
   21.8981  -12.4883  -20.6372 C   0  0  2  0  0  0  0  0  0  0  0  0
   22.7739  -12.8902  -21.7062 N   0  0  0  0  0  0  0  0  0  0  0  0
   22.5605  -11.4500  -19.7683 C   0  0  0  0  0  0  0  0  0  0  0  0
   23.7917  -11.2959  -19.8194 O   0  0  0  0  0  0  0  0  0  0  0  0
   21.7892  -10.6434  -18.8890 N   0  0  0  0  0  0  0  0  0  0  0  0
   22.3302   -9.6427  -18.0293 C   0  0  0  0  0  0  0  0  0  0  0  0
   21.3139   -8.9495  -17.2139 C   0  0  0  0  0  0  0  0  0  0  0  0
   20.2378   -8.6136  -17.7653 O   0  0  0  0  0  0  0  0  0  0  0  0
   18.1270  -11.3801  -14.6380 C   0  0  0  0  0  0  0  0  0  0  0  0
   18.8174  -10.1999  -15.2693 C   0  0  0  0  0  0  0  0  0  0  0  0
   19.6943   -9.4177  -14.3669 C   0  0  2  0  0  0  0  0  0  0  0  0
   18.8967   -9.0048  -13.1207 C   0  0  0  0  0  0  0  0  0  0  0  0
   20.3941   -8.2417  -14.9582 C   0  0  2  0  0  0  0  0  0  0  0  0
   21.4761   -8.6374  -15.8415 N   0  0  0  0  0  0  0  0  0  0  0  0
   20.8398   -7.2183  -13.9907 C   0  0  0  0  0  0  0  0  0  0  0  0
   22.1680   -7.0828  -13.6121 O   0  0  0  0  0  0  0  0  0  0  0  0
   20.0391   -6.3902  -13.4355 O   0  0  0  0  0  0  0  0  0  0  0  0
  2  1  1  0
  3  2  1  0
  3  4  1  6
  5  6  2  0
  5  3  1  0
  7  5  1  0
  8  7  1  0
  9 10  2  0
  9  8  1  0
 11 12  1  0
 12 13  1  0
 13 14  1  1
 15 16  1  1
 15 13  1  0
 16  9  1  0
 17 15  1  0
 18 17  1  0
 19 17  2  0
M  END
$$$$
