PKH.pdb
     RDKit          3D

 27 28  0  0  1  0  0  0  0  0999 V2000
    8.8305  -14.5053   18.8593 N   0  0  0  0  0  0  0  0  0  0  0  0
    8.5418  -13.5642   17.7953 C   0  0  0  0  0  0  0  0  0  0  0  0
    7.5213  -12.5885   18.3314 C   0  0  0  0  0  0  0  0  0  0  0  0
    7.0303  -13.2913   19.5794 C   0  0  0  0  0  0  0  0  0  0  0  0
    8.3191  -13.9459   20.0692 C   0  0  1  0  0  0  0  0  0  0  0  0
    8.1062  -14.8921   21.1621 C   0  0  0  0  0  0  0  0  0  0  0  0
    7.2967  -14.5362   22.0758 O   0  0  0  0  0  0  0  0  0  0  0  0
    8.7247  -16.1573   21.2785 N   0  0  0  0  0  0  0  0  0  0  0  0
    8.3362  -17.0605   22.3287 C   0  0  1  0  0  0  0  0  0  0  0  0
    8.7862  -18.4756   22.0255 C   0  0  0  0  0  0  0  0  0  0  0  0
    8.0686  -19.0016   20.8050 C   0  0  0  0  0  0  0  0  0  0  0  0
    8.6484  -20.3688   20.4971 C   0  0  0  0  0  0  0  0  0  0  0  0
    7.9054  -20.9765   19.3085 C   0  0  0  0  0  0  0  0  0  0  0  0
    8.5310  -22.2119   18.8790 N   0  0  0  0  0  0  0  0  0  0  0  0
    8.9346  -16.5766   23.6063 C   0  0  0  0  0  0  0  0  0  0  0  0
   10.1147  -16.1432   23.6666 O   0  0  0  0  0  0  0  0  0  0  0  0
    8.1799  -16.5910   24.8085 N   0  0  0  0  0  0  0  0  0  0  0  0
    8.8306  -16.1950   26.0903 C   0  0  1  0  0  0  0  0  0  0  0  0
    7.7900  -15.5242   26.9382 C   0  0  0  0  0  0  0  0  0  0  0  0
    7.6212  -14.0889   26.6365 C   0  0  0  0  0  0  0  0  0  0  0  0
    8.2795  -13.2389   25.7813 C   0  0  0  0  0  0  0  0  0  0  0  0
    7.6957  -12.0041   25.8095 N   0  0  0  0  0  0  0  0  0  0  0  0
    6.6944  -12.0937   26.6661 C   0  0  0  0  0  0  0  0  0  0  0  0
    6.6166  -13.3237   27.1813 N   0  0  0  0  0  0  0  0  0  0  0  0
    9.2850  -17.4778   26.6968 C   0  0  0  0  0  0  0  0  0  0  0  0
   10.1536  -17.4170   27.7941 O   0  0  0  0  0  0  0  0  0  0  0  0
    8.9418  -18.5852   26.2903 O   0  0  0  0  0  0  0  0  0  0  0  0
  1  5  1  0
  1  2  1  0
  2  3  1  0
  4  3  1  0
  5  4  1  0
  6  7  2  0
  5  6  1  1
  8  6  1  0
  9 10  1  6
  9  8  1  0
 11 12  1  0
 11 10  1  0
 13 14  1  0
 13 12  1  0
 15  9  1  0
 16 15  2  0
 17 15  1  0
 18 17  1  0
 19 20  1  0
 18 19  1  1
 20 21  2  0
 22 21  1  0
 23 22  1  0
 24 23  2  0
 24 20  1  0
 25 26  1  0
 25 18  1  0
 27 25  2  0
M  END
$$$$
