PKH.pdb
     RDKit          3D

 27 28  0  0  1  0  0  0  0  0999 V2000
    9.0552  -14.5196   18.4889 N   0  0  0  0  0  0  0  0  0  0  0  0
    8.9056  -13.7038   17.3001 C   0  0  0  0  0  0  0  0  0  0  0  0
    7.8480  -12.6690   17.6029 C   0  0  0  0  0  0  0  0  0  0  0  0
    7.2064  -13.2237   18.8572 C   0  0  0  0  0  0  0  0  0  0  0  0
    8.4197  -13.8244   19.5619 C   0  0  1  0  0  0  0  0  0  0  0  0
    8.0677  -14.6398   20.7221 C   0  0  0  0  0  0  0  0  0  0  0  0
    7.4059  -14.0657   21.6437 O   0  0  0  0  0  0  0  0  0  0  0  0
    8.4034  -16.0015   20.8951 N   0  0  0  0  0  0  0  0  0  0  0  0
    7.7785  -16.7762   21.9337 C   0  0  1  0  0  0  0  0  0  0  0  0
    7.7414  -18.2470   21.5701 C   0  0  0  0  0  0  0  0  0  0  0  0
    7.0884  -19.0420   22.6758 C   0  0  0  0  0  0  0  0  0  0  0  0
    7.1474  -20.5033   22.2741 C   0  0  0  0  0  0  0  0  0  0  0  0
    6.3923  -21.3413   23.3045 C   0  0  0  0  0  0  0  0  0  0  0  0
    6.5400  -22.7579   23.0335 N   0  0  0  0  0  0  0  0  0  0  0  0
    8.5397  -16.5623   23.1984 C   0  0  0  0  0  0  0  0  0  0  0  0
    9.7826  -16.7485   23.2669 O   0  0  0  0  0  0  0  0  0  0  0  0
    7.8752  -16.1364   24.3782 N   0  0  0  0  0  0  0  0  0  0  0  0
    8.6547  -15.9530   25.6360 C   0  0  1  0  0  0  0  0  0  0  0  0
    7.7630  -15.2610   26.6247 C   0  0  0  0  0  0  0  0  0  0  0  0
    7.5509  -13.8310   26.3254 C   0  0  0  0  0  0  0  0  0  0  0  0
    8.0362  -13.0102   25.3363 C   0  0  0  0  0  0  0  0  0  0  0  0
    7.4802  -11.7673   25.4468 N   0  0  0  0  0  0  0  0  0  0  0  0
    6.6657  -11.8231   26.4849 C   0  0  0  0  0  0  0  0  0  0  0  0
    6.6796  -13.0395   27.0366 N   0  0  0  0  0  0  0  0  0  0  0  0
    8.9909  -17.3355   26.0785 C   0  0  0  0  0  0  0  0  0  0  0  0
   10.2537  -17.5584   26.6424 O   0  0  0  0  0  0  0  0  0  0  0  0
    8.2248  -18.2906   25.9774 O   0  0  0  0  0  0  0  0  0  0  0  0
  1  5  1  0
  1  2  1  0
  2  3  1  0
  4  3  1  0
  5  4  1  0
  6  7  2  0
  5  6  1  1
  8  6  1  0
  9 10  1  6
  9  8  1  0
 11 12  1  0
 11 10  1  0
 13 14  1  0
 13 12  1  0
 15  9  1  0
 16 15  2  0
 17 15  1  0
 18 17  1  0
 19 20  1  0
 18 19  1  1
 20 21  2  0
 22 21  1  0
 23 22  1  0
 24 23  2  0
 24 20  1  0
 25 26  1  0
 25 18  1  0
 27 25  2  0
M  END
$$$$
