PKH.pdb
     RDKit          3D

 27 28  0  0  1  0  0  0  0  0999 V2000
    8.8133  -14.7389   18.6832 N   0  0  0  0  0  0  0  0  0  0  0  0
    8.8624  -13.8412   17.5461 C   0  0  0  0  0  0  0  0  0  0  0  0
    8.2334  -12.5392   17.9819 C   0  0  0  0  0  0  0  0  0  0  0  0
    7.5317  -12.9352   19.2639 C   0  0  0  0  0  0  0  0  0  0  0  0
    8.5212  -13.9474   19.8349 C   0  0  1  0  0  0  0  0  0  0  0  0
    7.9986  -14.6777   20.9874 C   0  0  0  0  0  0  0  0  0  0  0  0
    7.7848  -14.0015   22.0428 O   0  0  0  0  0  0  0  0  0  0  0  0
    7.7165  -16.0621   21.0171 N   0  0  0  0  0  0  0  0  0  0  0  0
    7.2054  -16.6725   22.2153 C   0  0  1  0  0  0  0  0  0  0  0  0
    6.7677  -18.1002   21.9563 C   0  0  0  0  0  0  0  0  0  0  0  0
    7.9513  -18.9424   21.5428 C   0  0  0  0  0  0  0  0  0  0  0  0
    7.4344  -20.3425   21.2731 C   0  0  0  0  0  0  0  0  0  0  0  0
    8.5832  -21.2176   20.7742 C   0  0  0  0  0  0  0  0  0  0  0  0
    8.1403  -22.5793   20.5469 N   0  0  0  0  0  0  0  0  0  0  0  0
    8.2734  -16.6263   23.2554 C   0  0  0  0  0  0  0  0  0  0  0  0
    9.4937  -16.5609   22.9540 O   0  0  0  0  0  0  0  0  0  0  0  0
    7.9400  -16.6550   24.6348 N   0  0  0  0  0  0  0  0  0  0  0  0
    8.9852  -16.3413   25.6509 C   0  0  1  0  0  0  0  0  0  0  0  0
    8.5164  -15.1470   26.4291 C   0  0  0  0  0  0  0  0  0  0  0  0
    9.3883  -14.8102   27.5718 C   0  0  0  0  0  0  0  0  0  0  0  0
   10.5765  -15.3373   28.0167 C   0  0  0  0  0  0  0  0  0  0  0  0
   11.0312  -14.6234   29.0890 N   0  0  0  0  0  0  0  0  0  0  0  0
   10.1390  -13.6726   29.2990 C   0  0  0  0  0  0  0  0  0  0  0  0
    9.1423  -13.7503   28.4130 N   0  0  0  0  0  0  0  0  0  0  0  0
    9.0572  -17.5576   26.5085 C   0  0  0  0  0  0  0  0  0  0  0  0
   10.1830  -17.7224   27.3256 O   0  0  0  0  0  0  0  0  0  0  0  0
    8.1864  -18.4237   26.5405 O   0  0  0  0  0  0  0  0  0  0  0  0
  1  5  1  0
  1  2  1  0
  2  3  1  0
  4  3  1  0
  5  4  1  0
  6  7  2  0
  5  6  1  1
  8  6  1  0
  9 10  1  6
  9  8  1  0
 11 12  1  0
 11 10  1  0
 13 14  1  0
 13 12  1  0
 15  9  1  0
 16 15  2  0
 17 15  1  0
 18 17  1  0
 19 20  1  0
 18 19  1  1
 20 21  2  0
 22 21  1  0
 23 22  1  0
 24 23  2  0
 24 20  1  0
 25 26  1  0
 25 18  1  0
 27 25  2  0
M  END
$$$$
