PKH.pdb
     RDKit          3D

 27 28  0  0  1  0  0  0  0  0999 V2000
    7.2635  -15.1804   19.0406 N   0  0  0  0  0  0  0  0  0  0  0  0
    6.8209  -14.7669   17.7236 C   0  0  0  0  0  0  0  0  0  0  0  0
    7.5509  -13.4869   17.3924 C   0  0  0  0  0  0  0  0  0  0  0  0
    8.0991  -13.0720   18.7415 C   0  0  0  0  0  0  0  0  0  0  0  0
    8.4399  -14.4314   19.3461 C   0  0  1  0  0  0  0  0  0  0  0  0
    8.7935  -14.3604   20.7621 C   0  0  0  0  0  0  0  0  0  0  0  0
    9.9842  -14.0086   21.0362 O   0  0  0  0  0  0  0  0  0  0  0  0
    7.9225  -14.6500   21.8365 N   0  0  0  0  0  0  0  0  0  0  0  0
    8.3176  -14.3596   23.1889 C   0  0  1  0  0  0  0  0  0  0  0  0
    7.1732  -13.7487   23.9725 C   0  0  0  0  0  0  0  0  0  0  0  0
    7.5989  -13.4831   25.3971 C   0  0  0  0  0  0  0  0  0  0  0  0
    6.4253  -12.8313   26.1028 C   0  0  0  0  0  0  0  0  0  0  0  0
    6.7945  -12.5717   27.5624 C   0  0  0  0  0  0  0  0  0  0  0  0
    5.6627  -12.0463   28.3008 N   0  0  0  0  0  0  0  0  0  0  0  0
    8.7767  -15.6286   23.8242 C   0  0  0  0  0  0  0  0  0  0  0  0
    8.0264  -16.6346   23.9199 O   0  0  0  0  0  0  0  0  0  0  0  0
   10.0918  -15.7401   24.3467 N   0  0  0  0  0  0  0  0  0  0  0  0
   10.5828  -17.0637   24.8267 C   0  0  1  0  0  0  0  0  0  0  0  0
   12.0546  -17.1312   24.5424 C   0  0  0  0  0  0  0  0  0  0  0  0
   12.7026  -18.3438   25.0801 C   0  0  0  0  0  0  0  0  0  0  0  0
   12.2088  -19.4404   25.7442 C   0  0  0  0  0  0  0  0  0  0  0  0
   13.2120  -20.3396   25.9708 N   0  0  0  0  0  0  0  0  0  0  0  0
   14.3037  -19.8059   25.4535 C   0  0  0  0  0  0  0  0  0  0  0  0
   14.0406  -18.6136   24.9116 N   0  0  0  0  0  0  0  0  0  0  0  0
   10.3093  -17.0609   26.2914 C   0  0  0  0  0  0  0  0  0  0  0  0
   10.2839  -18.2918   26.9597 O   0  0  0  0  0  0  0  0  0  0  0  0
   10.1052  -16.0417   26.9464 O   0  0  0  0  0  0  0  0  0  0  0  0
  1  5  1  0
  1  2  1  0
  2  3  1  0
  4  3  1  0
  5  4  1  0
  6  7  2  0
  5  6  1  1
  8  6  1  0
  9 10  1  1
  9  8  1  0
 11 12  1  0
 11 10  1  0
 13 14  1  0
 13 12  1  0
 15  9  1  0
 16 15  2  0
 17 15  1  0
 18 17  1  0
 19 20  1  0
 18 19  1  1
 20 21  2  0
 22 21  1  0
 23 22  1  0
 24 23  2  0
 24 20  1  0
 25 26  1  0
 25 18  1  0
 27 25  2  0
M  END
$$$$
