PKH.pdb
     RDKit          3D

 27 28  0  0  1  0  0  0  0  0999 V2000
    8.5987  -15.0040   19.4261 N   0  0  0  0  0  0  0  0  0  0  0  0
    8.5006  -14.1780   18.2389 C   0  0  0  0  0  0  0  0  0  0  0  0
    7.6720  -12.9701   18.6067 C   0  0  0  0  0  0  0  0  0  0  0  0
    7.0459  -13.3976   19.9173 C   0  0  0  0  0  0  0  0  0  0  0  0
    8.1862  -14.2034   20.5338 C   0  0  1  0  0  0  0  0  0  0  0  0
    7.7901  -14.9393   21.7323 C   0  0  0  0  0  0  0  0  0  0  0  0
    7.3321  -14.2520   22.6990 O   0  0  0  0  0  0  0  0  0  0  0  0
    7.8768  -16.3403   21.8959 N   0  0  0  0  0  0  0  0  0  0  0  0
    7.4071  -16.9595   23.1065 C   0  0  1  0  0  0  0  0  0  0  0  0
    7.3994  -18.4697   22.9794 C   0  0  0  0  0  0  0  0  0  0  0  0
    6.8908  -19.0984   24.2550 C   0  0  0  0  0  0  0  0  0  0  0  0
    6.9420  -20.6024   24.0663 C   0  0  0  0  0  0  0  0  0  0  0  0
    6.4514  -21.2883   25.3403 C   0  0  0  0  0  0  0  0  0  0  0  0
    6.6260  -22.7253   25.2590 N   0  0  0  0  0  0  0  0  0  0  0  0
    8.2920  -16.5267   24.2264 C   0  0  0  0  0  0  0  0  0  0  0  0
    9.5457  -16.5093   24.1157 O   0  0  0  0  0  0  0  0  0  0  0  0
    7.7383  -16.1159   25.4672 N   0  0  0  0  0  0  0  0  0  0  0  0
    8.6422  -15.6517   26.5584 C   0  0  1  0  0  0  0  0  0  0  0  0
    7.8549  -14.7211   27.4336 C   0  0  0  0  0  0  0  0  0  0  0  0
    7.4880  -13.4560   26.7671 C   0  0  0  0  0  0  0  0  0  0  0  0
    7.7763  -12.9469   25.5240 C   0  0  0  0  0  0  0  0  0  0  0  0
    7.1358  -11.7530   25.3487 N   0  0  0  0  0  0  0  0  0  0  0  0
    6.4639  -11.5324   26.4641 C   0  0  0  0  0  0  0  0  0  0  0  0
    6.6483  -12.5273   27.3362 N   0  0  0  0  0  0  0  0  0  0  0  0
    9.0251  -16.8935   27.2873 C   0  0  0  0  0  0  0  0  0  0  0  0
    9.9644  -16.7880   28.3211 O   0  0  0  0  0  0  0  0  0  0  0  0
    8.5645  -18.0040   27.0341 O   0  0  0  0  0  0  0  0  0  0  0  0
  1  5  1  0
  1  2  1  0
  2  3  1  0
  4  3  1  0
  5  4  1  0
  6  7  2  0
  5  6  1  1
  8  6  1  0
  9 10  1  6
  9  8  1  0
 11 12  1  0
 11 10  1  0
 13 14  1  0
 13 12  1  0
 15  9  1  0
 16 15  2  0
 17 15  1  0
 18 17  1  0
 19 20  1  0
 18 19  1  1
 20 21  2  0
 22 21  1  0
 23 22  1  0
 24 23  2  0
 24 20  1  0
 25 26  1  0
 25 18  1  0
 27 25  2  0
M  END
$$$$
