PKH.pdb
     RDKit          3D

 27 28  0  0  1  0  0  0  0  0999 V2000
    8.3458  -14.7754   17.8655 N   0  0  0  0  0  0  0  0  0  0  0  0
    8.1240  -13.7899   16.8258 C   0  0  0  0  0  0  0  0  0  0  0  0
    7.7809  -12.4898   17.5135 C   0  0  0  0  0  0  0  0  0  0  0  0
    7.4749  -12.9445   18.9249 C   0  0  0  0  0  0  0  0  0  0  0  0
    8.4957  -14.0663   19.0955 C   0  0  1  0  0  0  0  0  0  0  0  0
    8.2890  -14.8546   20.3083 C   0  0  0  0  0  0  0  0  0  0  0  0
    8.5507  -14.2819   21.4130 O   0  0  0  0  0  0  0  0  0  0  0  0
    7.8259  -16.1892   20.3454 N   0  0  0  0  0  0  0  0  0  0  0  0
    7.7614  -16.9000   21.5944 C   0  0  1  0  0  0  0  0  0  0  0  0
    6.9331  -18.1622   21.4618 C   0  0  0  0  0  0  0  0  0  0  0  0
    6.9515  -18.9374   22.7579 C   0  0  0  0  0  0  0  0  0  0  0  0
    6.0983  -20.1746   22.5538 C   0  0  0  0  0  0  0  0  0  0  0  0
    6.0712  -20.9883   23.8466 C   0  0  0  0  0  0  0  0  0  0  0  0
    5.4135  -22.2647   23.6454 N   0  0  0  0  0  0  0  0  0  0  0  0
    9.1538  -17.2225   22.0209 C   0  0  0  0  0  0  0  0  0  0  0  0
   10.0441  -17.5509   21.1940 O   0  0  0  0  0  0  0  0  0  0  0  0
    9.5207  -17.1676   23.3910 N   0  0  0  0  0  0  0  0  0  0  0  0
   10.9637  -17.1449   23.7658 C   0  0  1  0  0  0  0  0  0  0  0  0
   11.5271  -15.8280   23.3188 C   0  0  0  0  0  0  0  0  0  0  0  0
   12.1285  -15.8725   21.9712 C   0  0  0  0  0  0  0  0  0  0  0  0
   12.2654  -16.8837   21.0514 C   0  0  0  0  0  0  0  0  0  0  0  0
   12.8357  -16.4004   19.9079 N   0  0  0  0  0  0  0  0  0  0  0  0
   13.0445  -15.1137   20.1203 C   0  0  0  0  0  0  0  0  0  0  0  0
   12.6350  -14.7596   21.3415 N   0  0  0  0  0  0  0  0  0  0  0  0
   10.9715  -17.2660   25.2509 C   0  0  0  0  0  0  0  0  0  0  0  0
   12.2017  -17.4689   25.8893 O   0  0  0  0  0  0  0  0  0  0  0  0
    9.9616  -17.1981   25.9473 O   0  0  0  0  0  0  0  0  0  0  0  0
  1  5  1  0
  1  2  1  0
  2  3  1  0
  4  3  1  0
  5  4  1  0
  6  7  2  0
  5  6  1  1
  8  6  1  0
  9 10  1  6
  9  8  1  0
 11 12  1  0
 11 10  1  0
 13 14  1  0
 13 12  1  0
 15  9  1  0
 16 15  2  0
 17 15  1  0
 18 17  1  0
 19 20  1  0
 18 19  1  1
 20 21  2  0
 22 21  1  0
 23 22  1  0
 24 23  2  0
 24 20  1  0
 25 26  1  0
 25 18  1  0
 27 25  2  0
M  END
$$$$
