PKH.pdb
     RDKit          3D

 27 28  0  0  1  0  0  0  0  0999 V2000
    7.9008  -15.3741   19.1139 N   0  0  0  0  0  0  0  0  0  0  0  0
    7.8057  -14.5978   17.8933 C   0  0  0  0  0  0  0  0  0  0  0  0
    8.1364  -13.1681   18.2505 C   0  0  0  0  0  0  0  0  0  0  0  0
    8.0399  -13.1845   19.7615 C   0  0  0  0  0  0  0  0  0  0  0  0
    8.5926  -14.5730   20.0720 C   0  0  1  0  0  0  0  0  0  0  0  0
    8.4159  -14.9649   21.4684 C   0  0  0  0  0  0  0  0  0  0  0  0
    9.2468  -14.4883   22.3046 O   0  0  0  0  0  0  0  0  0  0  0  0
    7.4037  -15.8234   21.9536 N   0  0  0  0  0  0  0  0  0  0  0  0
    7.3214  -16.1268   23.3573 C   0  0  1  0  0  0  0  0  0  0  0  0
    6.0689  -16.9202   23.6716 C   0  0  0  0  0  0  0  0  0  0  0  0
    5.9866  -18.1394   22.7839 C   0  0  0  0  0  0  0  0  0  0  0  0
    4.6599  -18.8158   23.0711 C   0  0  0  0  0  0  0  0  0  0  0  0
    4.5494  -20.0879   22.2322 C   0  0  0  0  0  0  0  0  0  0  0  0
    3.5648  -19.9339   21.1791 N   0  0  0  0  0  0  0  0  0  0  0  0
    8.5430  -16.8909   23.7426 C   0  0  0  0  0  0  0  0  0  0  0  0
    9.0636  -17.7439   22.9774 O   0  0  0  0  0  0  0  0  0  0  0  0
    9.1629  -16.6752   25.0012 N   0  0  0  0  0  0  0  0  0  0  0  0
   10.1911  -17.6384   25.4895 C   0  0  1  0  0  0  0  0  0  0  0  0
   11.5313  -17.1394   25.0350 C   0  0  0  0  0  0  0  0  0  0  0  0
   12.1844  -18.0228   24.0488 C   0  0  0  0  0  0  0  0  0  0  0  0
   11.7917  -19.1979   23.4553 C   0  0  0  0  0  0  0  0  0  0  0  0
   12.7283  -19.5962   22.5440 N   0  0  0  0  0  0  0  0  0  0  0  0
   13.6799  -18.6810   22.5753 C   0  0  0  0  0  0  0  0  0  0  0  0
   13.3917  -17.7240   23.4616 N   0  0  0  0  0  0  0  0  0  0  0  0
   10.0699  -17.6020   26.9741 C   0  0  0  0  0  0  0  0  0  0  0  0
    9.0071  -16.8793   27.5312 O   0  0  0  0  0  0  0  0  0  0  0  0
   10.8479  -18.1691   27.7373 O   0  0  0  0  0  0  0  0  0  0  0  0
  1  5  1  0
  1  2  1  0
  2  3  1  0
  4  3  1  0
  5  4  1  0
  6  7  2  0
  5  6  1  1
  8  6  1  0
  9 10  1  6
  9  8  1  0
 11 12  1  0
 11 10  1  0
 13 14  1  0
 13 12  1  0
 15  9  1  0
 16 15  2  0
 17 15  1  0
 18 17  1  0
 19 20  1  0
 18 19  1  1
 20 21  2  0
 22 21  1  0
 23 22  1  0
 24 23  2  0
 24 20  1  0
 25 26  1  0
 25 18  1  0
 27 25  2  0
M  END
$$$$
