PKH.pdb
     RDKit          3D

 27 28  0  0  1  0  0  0  0  0999 V2000
    8.6994  -14.6479   18.9563 N   0  0  0  0  0  0  0  0  0  0  0  0
    8.4239  -13.6948   17.8995 C   0  0  0  0  0  0  0  0  0  0  0  0
    7.8190  -12.4737   18.5506 C   0  0  0  0  0  0  0  0  0  0  0  0
    7.4579  -12.9900   19.9274 C   0  0  0  0  0  0  0  0  0  0  0  0
    8.6213  -13.9412   20.1944 C   0  0  1  0  0  0  0  0  0  0  0  0
    8.4285  -14.7687   21.3830 C   0  0  0  0  0  0  0  0  0  0  0  0
    7.5674  -14.3644   22.2266 O   0  0  0  0  0  0  0  0  0  0  0  0
    9.1187  -15.9699   21.6622 N   0  0  0  0  0  0  0  0  0  0  0  0
    8.7526  -16.7687   22.8011 C   0  0  1  0  0  0  0  0  0  0  0  0
    9.2019  -18.2056   22.6269 C   0  0  0  0  0  0  0  0  0  0  0  0
    8.4867  -18.8381   21.4566 C   0  0  0  0  0  0  0  0  0  0  0  0
    8.9225  -20.2895   21.3945 C   0  0  0  0  0  0  0  0  0  0  0  0
    8.1202  -21.0120   20.3136 C   0  0  0  0  0  0  0  0  0  0  0  0
    8.4523  -22.4227   20.2733 N   0  0  0  0  0  0  0  0  0  0  0  0
    9.3726  -16.1634   24.0151 C   0  0  0  0  0  0  0  0  0  0  0  0
   10.5430  -15.7004   24.0045 O   0  0  0  0  0  0  0  0  0  0  0  0
    8.6505  -16.0906   25.2351 N   0  0  0  0  0  0  0  0  0  0  0  0
    9.2595  -15.4044   26.4104 C   0  0  1  0  0  0  0  0  0  0  0  0
    8.1387  -14.9148   27.2798 C   0  0  0  0  0  0  0  0  0  0  0  0
    7.3651  -13.8115   26.6766 C   0  0  0  0  0  0  0  0  0  0  0  0
    7.5233  -13.0977   25.5135 C   0  0  0  0  0  0  0  0  0  0  0  0
    6.4906  -12.2161   25.3629 N   0  0  0  0  0  0  0  0  0  0  0  0
    5.7099  -12.3859   26.4146 C   0  0  0  0  0  0  0  0  0  0  0  0
    6.1981  -13.3308   27.2229 N   0  0  0  0  0  0  0  0  0  0  0  0
   10.0589  -16.4600   27.0934 C   0  0  0  0  0  0  0  0  0  0  0  0
   10.8899  -16.0754   28.1535 O   0  0  0  0  0  0  0  0  0  0  0  0
   10.0311  -17.6478   26.7807 O   0  0  0  0  0  0  0  0  0  0  0  0
  1  5  1  0
  1  2  1  0
  2  3  1  0
  4  3  1  0
  5  4  1  0
  6  7  2  0
  5  6  1  1
  8  6  1  0
  9 10  1  6
  9  8  1  0
 11 12  1  0
 11 10  1  0
 13 14  1  0
 13 12  1  0
 15  9  1  0
 16 15  2  0
 17 15  1  0
 18 17  1  0
 19 20  1  0
 18 19  1  1
 20 21  2  0
 22 21  1  0
 23 22  1  0
 24 23  2  0
 24 20  1  0
 25 26  1  0
 25 18  1  0
 27 25  2  0
M  END
$$$$
