PKH.pdb
     RDKit          3D

 27 28  0  0  1  0  0  0  0  0999 V2000
    8.9550  -14.4525   18.8718 N   0  0  0  0  0  0  0  0  0  0  0  0
    8.6922  -13.5823   17.7427 C   0  0  0  0  0  0  0  0  0  0  0  0
    7.6695  -12.5669   18.1943 C   0  0  0  0  0  0  0  0  0  0  0  0
    7.1512  -13.1824   19.4770 C   0  0  0  0  0  0  0  0  0  0  0  0
    8.4264  -13.8109   20.0325 C   0  0  1  0  0  0  0  0  0  0  0  0
    8.1871  -14.6812   21.1815 C   0  0  0  0  0  0  0  0  0  0  0  0
    7.5742  -14.1666   22.1696 O   0  0  0  0  0  0  0  0  0  0  0  0
    8.5808  -16.0351   21.2761 N   0  0  0  0  0  0  0  0  0  0  0  0
    8.1551  -16.8379   22.3914 C   0  0  1  0  0  0  0  0  0  0  0  0
    8.3520  -18.3136   22.1081 C   0  0  0  0  0  0  0  0  0  0  0  0
    7.5471  -18.7250   20.8981 C   0  0  0  0  0  0  0  0  0  0  0  0
    7.7698  -20.2113   20.6943 C   0  0  0  0  0  0  0  0  0  0  0  0
    7.0222  -20.6671   19.4423 C   0  0  0  0  0  0  0  0  0  0  0  0
    7.3108  -22.0552   19.1391 N   0  0  0  0  0  0  0  0  0  0  0  0
    8.9349  -16.4203   23.5923 C   0  0  0  0  0  0  0  0  0  0  0  0
   10.1399  -16.0654   23.5132 O   0  0  0  0  0  0  0  0  0  0  0  0
    8.3322  -16.4108   24.8774 N   0  0  0  0  0  0  0  0  0  0  0  0
    9.1451  -16.0310   26.0683 C   0  0  1  0  0  0  0  0  0  0  0  0
    8.2317  -15.3421   27.0393 C   0  0  0  0  0  0  0  0  0  0  0  0
    7.7814  -14.0127   26.5816 C   0  0  0  0  0  0  0  0  0  0  0  0
    8.3636  -13.0649   25.7754 C   0  0  0  0  0  0  0  0  0  0  0  0
    7.5047  -12.0189   25.5896 N   0  0  0  0  0  0  0  0  0  0  0  0
    6.4124  -12.3190   26.2687 C   0  0  0  0  0  0  0  0  0  0  0  0
    6.5383  -13.5026   26.8750 N   0  0  0  0  0  0  0  0  0  0  0  0
    9.6461  -17.3240   26.6134 C   0  0  0  0  0  0  0  0  0  0  0  0
   10.5289  -17.2836   27.7002 O   0  0  0  0  0  0  0  0  0  0  0  0
    9.3294  -18.4231   26.1648 O   0  0  0  0  0  0  0  0  0  0  0  0
  1  5  1  0
  1  2  1  0
  2  3  1  0
  4  3  1  0
  5  4  1  0
  6  7  2  0
  5  6  1  1
  8  6  1  0
  9 10  1  6
  9  8  1  0
 11 12  1  0
 11 10  1  0
 13 14  1  0
 13 12  1  0
 15  9  1  0
 16 15  2  0
 17 15  1  0
 18 17  1  0
 19 20  1  0
 18 19  1  1
 20 21  2  0
 22 21  1  0
 23 22  1  0
 24 23  2  0
 24 20  1  0
 25 26  1  0
 25 18  1  0
 27 25  2  0
M  END
$$$$
