PKH.pdb
     RDKit          3D

 27 28  0  0  1  0  0  0  0  0999 V2000
    9.1078  -14.4475   18.4050 N   0  0  0  0  0  0  0  0  0  0  0  0
    8.8689  -13.4987   17.3354 C   0  0  0  0  0  0  0  0  0  0  0  0
    7.9756  -12.4168   17.8942 C   0  0  0  0  0  0  0  0  0  0  0  0
    7.4714  -13.0469   19.1754 C   0  0  0  0  0  0  0  0  0  0  0  0
    8.7083  -13.8206   19.6239 C   0  0  1  0  0  0  0  0  0  0  0  0
    8.4495  -14.7233   20.7432 C   0  0  0  0  0  0  0  0  0  0  0  0
    7.9268  -14.2092   21.7822 O   0  0  0  0  0  0  0  0  0  0  0  0
    8.7328  -16.1077   20.7579 N   0  0  0  0  0  0  0  0  0  0  0  0
    8.3928  -16.9054   21.9057 C   0  0  1  0  0  0  0  0  0  0  0  0
    8.4951  -18.3845   21.5919 C   0  0  0  0  0  0  0  0  0  0  0  0
    7.5810  -18.7391   20.4431 C   0  0  0  0  0  0  0  0  0  0  0  0
    7.7561  -20.2207   20.1701 C   0  0  0  0  0  0  0  0  0  0  0  0
    6.8637  -20.6273   18.9984 C   0  0  0  0  0  0  0  0  0  0  0  0
    6.9904  -22.0432   18.7137 N   0  0  0  0  0  0  0  0  0  0  0  0
    9.3119  -16.5356   23.0206 C   0  0  0  0  0  0  0  0  0  0  0  0
   10.5492  -16.3888   22.8425 O   0  0  0  0  0  0  0  0  0  0  0  0
    8.8108  -16.3355   24.3336 N   0  0  0  0  0  0  0  0  0  0  0  0
    9.7555  -16.0057   25.4391 C   0  0  1  0  0  0  0  0  0  0  0  0
    8.9981  -15.2073   26.4591 C   0  0  0  0  0  0  0  0  0  0  0  0
    9.8002  -14.8612   27.6492 C   0  0  0  0  0  0  0  0  0  0  0  0
   11.1166  -15.0817   27.9746 C   0  0  0  0  0  0  0  0  0  0  0  0
   11.4049  -14.4967   29.1750 N   0  0  0  0  0  0  0  0  0  0  0  0
   10.2854  -13.9249   29.5802 C   0  0  0  0  0  0  0  0  0  0  0  0
    9.3035  -14.1199   28.6958 N   0  0  0  0  0  0  0  0  0  0  0  0
   10.1776  -17.3268   25.9837 C   0  0  0  0  0  0  0  0  0  0  0  0
   11.4362  -17.4176   26.5918 O   0  0  0  0  0  0  0  0  0  0  0  0
    9.4855  -18.3406   25.9302 O   0  0  0  0  0  0  0  0  0  0  0  0
  1  5  1  0
  1  2  1  0
  2  3  1  0
  4  3  1  0
  5  4  1  0
  6  7  2  0
  5  6  1  1
  8  6  1  0
  9 10  1  6
  9  8  1  0
 11 12  1  0
 11 10  1  0
 13 14  1  0
 13 12  1  0
 15  9  1  0
 16 15  2  0
 17 15  1  0
 18 17  1  0
 19 20  1  0
 18 19  1  1
 20 21  2  0
 22 21  1  0
 23 22  1  0
 24 23  2  0
 24 20  1  0
 25 26  1  0
 25 18  1  0
 27 25  2  0
M  END
$$$$
