PKH.pdb
     RDKit          3D

 27 28  0  0  1  0  0  0  0  0999 V2000
    8.6933  -14.8173   18.7026 N   0  0  0  0  0  0  0  0  0  0  0  0
    8.6901  -13.9016   17.5788 C   0  0  0  0  0  0  0  0  0  0  0  0
    8.0661  -12.6129   18.0591 C   0  0  0  0  0  0  0  0  0  0  0  0
    7.4181  -13.0358   19.3606 C   0  0  0  0  0  0  0  0  0  0  0  0
    8.4384  -14.0467   19.8771 C   0  0  1  0  0  0  0  0  0  0  0  0
    7.9674  -14.8001   21.0370 C   0  0  0  0  0  0  0  0  0  0  0  0
    7.6846  -14.1273   22.0783 O   0  0  0  0  0  0  0  0  0  0  0  0
    7.8047  -16.2029   21.0881 N   0  0  0  0  0  0  0  0  0  0  0  0
    7.3454  -16.8362   22.2954 C   0  0  1  0  0  0  0  0  0  0  0  0
    7.0915  -18.3138   22.0738 C   0  0  0  0  0  0  0  0  0  0  0  0
    6.6973  -18.9764   23.3726 C   0  0  0  0  0  0  0  0  0  0  0  0
    6.3900  -20.4285   23.0611 C   0  0  0  0  0  0  0  0  0  0  0  0
    5.8900  -21.1218   24.3275 C   0  0  0  0  0  0  0  0  0  0  0  0
    5.5403  -22.5035   24.0618 N   0  0  0  0  0  0  0  0  0  0  0  0
    8.3762  -16.6286   23.3532 C   0  0  0  0  0  0  0  0  0  0  0  0
    9.5948  -16.8712   23.1520 O   0  0  0  0  0  0  0  0  0  0  0  0
    8.0077  -16.1446   24.6357 N   0  0  0  0  0  0  0  0  0  0  0  0
    9.0681  -15.8295   25.6355 C   0  0  1  0  0  0  0  0  0  0  0  0
    8.4335  -15.0220   26.7295 C   0  0  0  0  0  0  0  0  0  0  0  0
    9.3555  -14.7069   27.8387 C   0  0  0  0  0  0  0  0  0  0  0  0
   10.7026  -14.9152   28.0104 C   0  0  0  0  0  0  0  0  0  0  0  0
   11.1116  -14.3714   29.1950 N   0  0  0  0  0  0  0  0  0  0  0  0
   10.0349  -13.8364   29.7417 C   0  0  0  0  0  0  0  0  0  0  0  0
    8.9653  -14.0155   28.9617 N   0  0  0  0  0  0  0  0  0  0  0  0
    9.5267  -17.1570   26.1328 C   0  0  0  0  0  0  0  0  0  0  0  0
    8.5554  -18.1231   26.4250 O   0  0  0  0  0  0  0  0  0  0  0  0
   10.7072  -17.4531   26.3010 O   0  0  0  0  0  0  0  0  0  0  0  0
  1  5  1  0
  1  2  1  0
  2  3  1  0
  4  3  1  0
  5  4  1  0
  6  7  2  0
  5  6  1  1
  8  6  1  0
  9 10  1  6
  9  8  1  0
 11 12  1  0
 11 10  1  0
 13 14  1  0
 13 12  1  0
 15  9  1  0
 16 15  2  0
 17 15  1  0
 18 17  1  0
 19 20  1  0
 18 19  1  1
 20 21  2  0
 22 21  1  0
 23 22  1  0
 24 23  2  0
 24 20  1  0
 25 26  1  0
 25 18  1  0
 27 25  2  0
M  END
$$$$
