PKH.pdb
     RDKit          3D

 27 28  0  0  1  0  0  0  0  0999 V2000
    8.9489  -14.6053   18.8639 N   0  0  0  0  0  0  0  0  0  0  0  0
    8.6327  -13.6707   17.8019 C   0  0  0  0  0  0  0  0  0  0  0  0
    7.8796  -12.5228   18.4314 C   0  0  0  0  0  0  0  0  0  0  0  0
    7.5045  -13.0890   19.7847 C   0  0  0  0  0  0  0  0  0  0  0  0
    8.7416  -13.9250   20.1019 C   0  0  1  0  0  0  0  0  0  0  0  0
    8.5736  -14.7821   21.2732 C   0  0  0  0  0  0  0  0  0  0  0  0
    8.2900  -14.2025   22.3688 O   0  0  0  0  0  0  0  0  0  0  0  0
    8.7010  -16.1895   21.2799 N   0  0  0  0  0  0  0  0  0  0  0  0
    8.4410  -16.9355   22.4822 C   0  0  1  0  0  0  0  0  0  0  0  0
    8.1593  -18.3916   22.1706 C   0  0  0  0  0  0  0  0  0  0  0  0
    9.1535  -18.9110   21.1591 C   0  0  0  0  0  0  0  0  0  0  0  0
    8.8103  -20.3649   20.8972 C   0  0  0  0  0  0  0  0  0  0  0  0
    9.8253  -20.9552   19.9196 C   0  0  0  0  0  0  0  0  0  0  0  0
    9.5114  -22.3372   19.6136 N   0  0  0  0  0  0  0  0  0  0  0  0
    9.6261  -16.8052   23.3784 C   0  0  0  0  0  0  0  0  0  0  0  0
   10.7564  -16.4644   22.9421 O   0  0  0  0  0  0  0  0  0  0  0  0
    9.5120  -17.0654   24.7692 N   0  0  0  0  0  0  0  0  0  0  0  0
   10.6895  -16.8467   25.6574 C   0  0  1  0  0  0  0  0  0  0  0  0
   10.1721  -16.4065   26.9953 C   0  0  0  0  0  0  0  0  0  0  0  0
    9.6458  -15.0271   26.9977 C   0  0  0  0  0  0  0  0  0  0  0  0
    9.4673  -14.1026   25.9974 C   0  0  0  0  0  0  0  0  0  0  0  0
    8.8709  -12.9808   26.4997 N   0  0  0  0  0  0  0  0  0  0  0  0
    8.6842  -13.2122   27.7865 C   0  0  0  0  0  0  0  0  0  0  0  0
    9.1337  -14.4243   28.1228 N   0  0  0  0  0  0  0  0  0  0  0  0
   11.3541  -18.1776   25.7402 C   0  0  0  0  0  0  0  0  0  0  0  0
   12.7015  -18.2192   26.1212 O   0  0  0  0  0  0  0  0  0  0  0  0
   10.7887  -19.2402   25.4939 O   0  0  0  0  0  0  0  0  0  0  0  0
  1  5  1  0
  1  2  1  0
  2  3  1  0
  4  3  1  0
  5  4  1  0
  6  7  2  0
  5  6  1  1
  8  6  1  0
  9 10  1  6
  9  8  1  0
 11 12  1  0
 11 10  1  0
 13 14  1  0
 13 12  1  0
 15  9  1  0
 16 15  2  0
 17 15  1  0
 18 17  1  0
 19 20  1  0
 18 19  1  1
 20 21  2  0
 22 21  1  0
 23 22  1  0
 24 23  2  0
 24 20  1  0
 25 26  1  0
 25 18  1  0
 27 25  2  0
M  END
$$$$
