PKH.pdb
     RDKit          3D

 27 28  0  0  1  0  0  0  0  0999 V2000
    8.8718  -14.8101   19.1634 N   0  0  0  0  0  0  0  0  0  0  0  0
    8.8157  -14.0047   17.9595 C   0  0  0  0  0  0  0  0  0  0  0  0
    7.8367  -12.8848   18.2208 C   0  0  0  0  0  0  0  0  0  0  0  0
    7.1235  -13.3663   19.4666 C   0  0  0  0  0  0  0  0  0  0  0  0
    8.2683  -14.0493   20.2099 C   0  0  1  0  0  0  0  0  0  0  0  0
    7.8252  -14.8151   21.3728 C   0  0  0  0  0  0  0  0  0  0  0  0
    7.2735  -14.1590   22.3119 O   0  0  0  0  0  0  0  0  0  0  0  0
    7.9620  -16.2127   21.5303 N   0  0  0  0  0  0  0  0  0  0  0  0
    7.4015  -16.8713   22.6799 C   0  0  1  0  0  0  0  0  0  0  0  0
    7.3423  -18.3716   22.4743 C   0  0  0  0  0  0  0  0  0  0  0  0
    6.7311  -19.0406   23.6826 C   0  0  0  0  0  0  0  0  0  0  0  0
    6.7509  -20.5354   23.4269 C   0  0  0  0  0  0  0  0  0  0  0  0
    6.0175  -21.2514   24.5600 C   0  0  0  0  0  0  0  0  0  0  0  0
    5.8961  -22.6702   24.2876 N   0  0  0  0  0  0  0  0  0  0  0  0
    8.2382  -16.5319   23.8670 C   0  0  0  0  0  0  0  0  0  0  0  0
    9.4938  -16.4741   23.8019 O   0  0  0  0  0  0  0  0  0  0  0  0
    7.6342  -16.2603   25.1226 N   0  0  0  0  0  0  0  0  0  0  0  0
    8.4869  -15.8546   26.2766 C   0  0  1  0  0  0  0  0  0  0  0  0
    7.6390  -15.0270   27.1974 C   0  0  0  0  0  0  0  0  0  0  0  0
    7.4088  -13.6530   26.7091 C   0  0  0  0  0  0  0  0  0  0  0  0
    7.8472  -12.9811   25.5938 C   0  0  0  0  0  0  0  0  0  0  0  0
    7.2920  -11.7336   25.5523 N   0  0  0  0  0  0  0  0  0  0  0  0
    6.5240  -11.6404   26.6227 C   0  0  0  0  0  0  0  0  0  0  0  0
    6.5666  -12.7669   27.3393 N   0  0  0  0  0  0  0  0  0  0  0  0
    8.8950  -17.1372   26.9156 C   0  0  0  0  0  0  0  0  0  0  0  0
   10.1378  -17.1865   27.5601 O   0  0  0  0  0  0  0  0  0  0  0  0
    8.2046  -18.1535   26.9100 O   0  0  0  0  0  0  0  0  0  0  0  0
  1  5  1  0
  1  2  1  0
  2  3  1  0
  4  3  1  0
  5  4  1  0
  6  7  2  0
  5  6  1  1
  8  6  1  0
  9 10  1  6
  9  8  1  0
 11 12  1  0
 11 10  1  0
 13 14  1  0
 13 12  1  0
 15  9  1  0
 16 15  2  0
 17 15  1  0
 18 17  1  0
 19 20  1  0
 18 19  1  1
 20 21  2  0
 22 21  1  0
 23 22  1  0
 24 23  2  0
 24 20  1  0
 25 26  1  0
 25 18  1  0
 27 25  2  0
M  END
$$$$
