KNM.pdb
     RDKit          3D

 26 25  0  0  1  0  0  0  0  0999 V2000
   10.1996  -14.3565   18.7411 N   0  0  0  0  0  0  0  0  0  0  0  0
    8.9312  -13.9201   19.2434 C   0  0  1  0  0  0  0  0  0  0  0  0
    7.8659  -13.9236   18.1519 C   0  0  0  0  0  0  0  0  0  0  0  0
    8.4899  -13.8888   16.7962 C   0  0  0  0  0  0  0  0  0  0  0  0
    7.4602  -13.8642   15.6891 C   0  0  0  0  0  0  0  0  0  0  0  0
    8.1343  -13.9522   14.3326 C   0  0  0  0  0  0  0  0  0  0  0  0
    7.1583  -14.1577   13.2934 N   0  0  0  0  0  0  0  0  0  0  0  0
    8.4070  -14.8415   20.3073 C   0  0  0  0  0  0  0  0  0  0  0  0
    7.2494  -14.6898   20.7652 O   0  0  0  0  0  0  0  0  0  0  0  0
    8.3247  -19.5510   20.4084 N   0  0  0  0  0  0  0  0  0  0  0  0
    9.5368  -18.7490   20.5890 C   0  0  0  0  0  0  0  0  0  0  0  0
   10.3147  -18.8340   19.6293 O   0  0  0  0  0  0  0  0  0  0  0  0
    9.6764  -17.9827   21.8181 C   0  0  0  0  0  0  0  0  0  0  0  0
    8.7807  -16.7821   21.9110 C   0  0  2  0  0  0  0  0  0  0  0  0
    9.2401  -15.8741   20.7768 N   0  0  0  0  0  0  0  0  0  0  0  0
    8.9391  -15.9865   23.1347 C   0  0  0  0  0  0  0  0  0  0  0  0
   10.1240  -15.5349   23.4150 O   0  0  0  0  0  0  0  0  0  0  0  0
    6.6493  -10.3518   26.4723 C   0  0  0  0  0  0  0  0  0  0  0  0
    6.0921  -11.9422   27.1439 S   0  0  0  0  0  0  0  0  0  0  0  0
    7.3162  -13.2399   26.8787 C   0  0  0  0  0  0  0  0  0  0  0  0
    7.1330  -13.9516   25.5530 C   0  0  0  0  0  0  0  0  0  0  0  0
    8.2755  -14.8931   25.2922 C   0  0  2  0  0  0  0  0  0  0  0  0
    7.9374  -15.6406   24.0577 N   0  0  0  0  0  0  0  0  0  0  0  0
    8.3608  -15.8572   26.4007 C   0  0  0  0  0  0  0  0  0  0  0  0
    7.8391  -16.9886   26.2164 O   0  0  0  0  0  0  0  0  0  0  0  0
    8.9694  -15.5987   27.6131 O   0  0  0  0  0  0  0  0  0  0  0  0
  2  1  1  6
  3  2  1  0
  4  3  1  0
  4  5  1  0
  6  5  1  0
  6  7  1  0
  8  9  2  0
  8  2  1  0
 10 11  1  0
 11 13  1  0
 12 11  2  0
 14 13  1  1
 14 15  1  0
 15  8  1  0
 16 23  1  0
 16 14  1  0
 17 16  2  0
 19 20  1  0
 19 18  1  0
 20 21  1  0
 22 21  1  1
 22 24  1  0
 22 23  1  0
 24 26  1  0
 25 24  2  0
M  END
$$$$
