KNM.pdb
     RDKit          3D

 26 25  0  0  1  0  0  0  0  0999 V2000
    8.3454  -17.3839   19.1448 N   0  0  0  0  0  0  0  0  0  0  0  0
    8.1017  -18.7475   19.5093 C   0  0  1  0  0  0  0  0  0  0  0  0
    8.8469  -19.7132   18.5936 C   0  0  0  0  0  0  0  0  0  0  0  0
   10.0937  -19.0891   18.0602 C   0  0  0  0  0  0  0  0  0  0  0  0
   10.7725  -19.9552   17.0229 C   0  0  0  0  0  0  0  0  0  0  0  0
   12.0826  -19.3298   16.5816 C   0  0  0  0  0  0  0  0  0  0  0  0
   12.7624  -20.1851   15.6430 N   0  0  0  0  0  0  0  0  0  0  0  0
    8.6021  -19.0519   20.8922 C   0  0  0  0  0  0  0  0  0  0  0  0
    8.7479  -20.2394   21.2680 O   0  0  0  0  0  0  0  0  0  0  0  0
    9.8428  -20.9235   23.7454 N   0  0  0  0  0  0  0  0  0  0  0  0
   11.0203  -20.2199   23.2321 C   0  0  0  0  0  0  0  0  0  0  0  0
   12.0343  -20.9305   23.2179 O   0  0  0  0  0  0  0  0  0  0  0  0
   10.8659  -18.8333   22.8187 C   0  0  0  0  0  0  0  0  0  0  0  0
    9.5221  -18.2371   23.1209 C   0  0  2  0  0  0  0  0  0  0  0  0
    8.9021  -17.9797   21.7531 N   0  0  0  0  0  0  0  0  0  0  0  0
    9.5622  -16.9272   23.7826 C   0  0  0  0  0  0  0  0  0  0  0  0
   10.4261  -16.0576   23.3538 O   0  0  0  0  0  0  0  0  0  0  0  0
    6.0964  -10.8779   27.3721 C   0  0  0  0  0  0  0  0  0  0  0  0
    5.9894  -12.4905   26.5480 S   0  0  0  0  0  0  0  0  0  0  0  0
    7.6233  -13.1967   26.2572 C   0  0  0  0  0  0  0  0  0  0  0  0
    7.5622  -14.5298   25.5383 C   0  0  0  0  0  0  0  0  0  0  0  0
    8.9339  -15.1333   25.4190 C   0  0  2  0  0  0  0  0  0  0  0  0
    8.7541  -16.4881   24.8453 N   0  0  0  0  0  0  0  0  0  0  0  0
    9.5083  -15.2805   26.7659 C   0  0  0  0  0  0  0  0  0  0  0  0
    9.7987  -14.2216   27.3828 O   0  0  0  0  0  0  0  0  0  0  0  0
    9.7447  -16.4926   27.3839 O   0  0  0  0  0  0  0  0  0  0  0  0
  2  1  1  6
  3  2  1  0
  4  3  1  0
  4  5  1  0
  6  5  1  0
  6  7  1  0
  8  9  2  0
  8  2  1  0
 10 11  1  0
 11 13  1  0
 12 11  2  0
 14 13  1  6
 14 15  1  0
 15  8  1  0
 16 23  1  0
 16 14  1  0
 17 16  2  0
 19 20  1  0
 19 18  1  0
 20 21  1  0
 22 21  1  1
 22 24  1  0
 22 23  1  0
 24 26  1  0
 25 24  2  0
M  END
$$$$
