KNM.pdb
     RDKit          3D

 26 25  0  0  1  0  0  0  0  0999 V2000
    7.2433  -19.0434   21.7360 N   0  0  0  0  0  0  0  0  0  0  0  0
    8.3145  -19.0927   20.7864 C   0  0  1  0  0  0  0  0  0  0  0  0
    7.7927  -19.2546   19.3623 C   0  0  0  0  0  0  0  0  0  0  0  0
    6.3700  -19.7069   19.3628 C   0  0  0  0  0  0  0  0  0  0  0  0
    6.1584  -20.9417   18.5159 C   0  0  0  0  0  0  0  0  0  0  0  0
    4.7001  -21.3602   18.5395 C   0  0  0  0  0  0  0  0  0  0  0  0
    4.4813  -22.4862   17.6682 N   0  0  0  0  0  0  0  0  0  0  0  0
    9.1052  -17.8159   20.7725 C   0  0  0  0  0  0  0  0  0  0  0  0
    9.8847  -17.5617   19.8236 O   0  0  0  0  0  0  0  0  0  0  0  0
    7.1369  -14.6847   21.8487 N   0  0  0  0  0  0  0  0  0  0  0  0
    7.9731  -14.3446   20.6954 C   0  0  0  0  0  0  0  0  0  0  0  0
    7.3915  -13.6159   19.8805 O   0  0  0  0  0  0  0  0  0  0  0  0
    9.3258  -14.8787   20.6464 C   0  0  0  0  0  0  0  0  0  0  0  0
    9.7507  -15.6180   21.8814 C   0  0  2  0  0  0  0  0  0  0  0  0
    8.9528  -16.9155   21.8434 N   0  0  0  0  0  0  0  0  0  0  0  0
    9.3813  -14.9711   23.1465 C   0  0  0  0  0  0  0  0  0  0  0  0
    9.7852  -13.7529   23.3449 O   0  0  0  0  0  0  0  0  0  0  0  0
    5.7706  -11.3769   25.7316 C   0  0  0  0  0  0  0  0  0  0  0  0
    6.5222  -12.4336   27.0002 S   0  0  0  0  0  0  0  0  0  0  0  0
    8.0163  -13.2402   26.3921 C   0  0  0  0  0  0  0  0  0  0  0  0
    7.8815  -14.7489   26.3339 C   0  0  0  0  0  0  0  0  0  0  0  0
    9.0437  -15.3591   25.6012 C   0  0  2  0  0  0  0  0  0  0  0  0
    8.6189  -15.5222   24.1906 N   0  0  0  0  0  0  0  0  0  0  0  0
    9.3075  -16.6964   26.1561 C   0  0  0  0  0  0  0  0  0  0  0  0
    8.8783  -17.6825   25.5008 O   0  0  0  0  0  0  0  0  0  0  0  0
    9.9872  -16.9305   27.3352 O   0  0  0  0  0  0  0  0  0  0  0  0
  2  1  1  1
  3  2  1  0
  4  3  1  0
  4  5  1  0
  6  5  1  0
  6  7  1  0
  8  9  2  0
  8  2  1  0
 10 11  1  0
 11 13  1  0
 12 11  2  0
 14 13  1  6
 14 15  1  0
 15  8  1  0
 16 23  1  0
 16 14  1  0
 17 16  2  0
 19 20  1  0
 19 18  1  0
 20 21  1  0
 22 21  1  1
 22 24  1  0
 22 23  1  0
 24 26  1  0
 25 24  2  0
M  END
$$$$
