KNM.pdb
     RDKit          3D

 26 25  0  0  1  0  0  0  0  0999 V2000
    8.7454  -15.1573   19.6484 N   0  0  0  0  0  0  0  0  0  0  0  0
    7.6864  -15.5417   20.5329 C   0  0  1  0  0  0  0  0  0  0  0  0
    6.7544  -16.5582   19.8814 C   0  0  0  0  0  0  0  0  0  0  0  0
    6.6349  -16.3099   18.4143 C   0  0  0  0  0  0  0  0  0  0  0  0
    7.6592  -17.0831   17.6144 C   0  0  0  0  0  0  0  0  0  0  0  0
    7.0053  -18.2497   16.8977 C   0  0  0  0  0  0  0  0  0  0  0  0
    7.9067  -18.8203   15.9299 N   0  0  0  0  0  0  0  0  0  0  0  0
    8.2099  -16.2218   21.7654 C   0  0  0  0  0  0  0  0  0  0  0  0
    7.4179  -16.6870   22.6192 O   0  0  0  0  0  0  0  0  0  0  0  0
   10.6114  -19.5731   21.8777 N   0  0  0  0  0  0  0  0  0  0  0  0
   11.6519  -18.5448   21.8093 C   0  0  0  0  0  0  0  0  0  0  0  0
   12.4974  -18.7765   20.9347 O   0  0  0  0  0  0  0  0  0  0  0  0
   11.5723  -17.4244   22.7345 C   0  0  0  0  0  0  0  0  0  0  0  0
   10.1781  -17.0535   23.1480 C   0  0  2  0  0  0  0  0  0  0  0  0
    9.6026  -16.3245   21.9401 N   0  0  0  0  0  0  0  0  0  0  0  0
   10.0972  -16.0941   24.2563 C   0  0  0  0  0  0  0  0  0  0  0  0
   10.8889  -15.0652   24.2264 O   0  0  0  0  0  0  0  0  0  0  0  0
    6.4494  -11.5421   27.2656 C   0  0  0  0  0  0  0  0  0  0  0  0
    6.3709  -12.6237   25.8113 S   0  0  0  0  0  0  0  0  0  0  0  0
    7.8981  -13.5589   25.5968 C   0  0  0  0  0  0  0  0  0  0  0  0
    8.1618  -14.5149   26.7432 C   0  0  0  0  0  0  0  0  0  0  0  0
    9.4517  -15.2573   26.5309 C   0  0  2  0  0  0  0  0  0  0  0  0
    9.2406  -16.1530   25.3690 N   0  0  0  0  0  0  0  0  0  0  0  0
    9.7187  -16.0953   27.7108 C   0  0  0  0  0  0  0  0  0  0  0  0
    9.4718  -17.3258   27.6063 O   0  0  0  0  0  0  0  0  0  0  0  0
   10.2162  -15.6195   28.9079 O   0  0  0  0  0  0  0  0  0  0  0  0
  2  1  1  6
  3  2  1  0
  4  3  1  0
  4  5  1  0
  6  5  1  0
  6  7  1  0
  8  9  2  0
  8  2  1  0
 10 11  1  0
 11 13  1  0
 12 11  2  0
 14 13  1  6
 14 15  1  0
 15  8  1  0
 16 23  1  0
 16 14  1  0
 17 16  2  0
 19 20  1  0
 19 18  1  0
 20 21  1  0
 22 21  1  1
 22 24  1  0
 22 23  1  0
 24 26  1  0
 25 24  2  0
M  END
$$$$
