KNM.pdb
     RDKit          3D

 26 25  0  0  1  0  0  0  0  0999 V2000
    9.3682  -13.5414   20.1815 N   0  0  0  0  0  0  0  0  0  0  0  0
    8.0318  -13.8616   20.5853 C   0  0  1  0  0  0  0  0  0  0  0  0
    7.1396  -14.1563   19.3838 C   0  0  0  0  0  0  0  0  0  0  0  0
    7.5226  -13.3115   18.2141 C   0  0  0  0  0  0  0  0  0  0  0  0
    7.9214  -14.1386   17.0127 C   0  0  0  0  0  0  0  0  0  0  0  0
    8.3114  -13.2407   15.8535 C   0  0  0  0  0  0  0  0  0  0  0  0
    8.6651  -14.0268   14.6994 N   0  0  0  0  0  0  0  0  0  0  0  0
    7.9869  -15.1073   21.4231 C   0  0  0  0  0  0  0  0  0  0  0  0
    6.8876  -15.6248   21.7336 O   0  0  0  0  0  0  0  0  0  0  0  0
   10.2987  -20.0780   22.7393 N   0  0  0  0  0  0  0  0  0  0  0  0
   10.8016  -18.7806   23.1963 C   0  0  0  0  0  0  0  0  0  0  0  0
   11.4368  -18.8596   24.2563 O   0  0  0  0  0  0  0  0  0  0  0  0
   10.5088  -17.6068   22.3875 C   0  0  0  0  0  0  0  0  0  0  0  0
    9.2025  -16.9396   22.7046 C   0  0  2  0  0  0  0  0  0  0  0  0
    9.2004  -15.6781   21.8501 N   0  0  0  0  0  0  0  0  0  0  0  0
    9.0683  -16.4714   24.0897 C   0  0  0  0  0  0  0  0  0  0  0  0
    8.0467  -16.8886   24.7742 O   0  0  0  0  0  0  0  0  0  0  0  0
    6.3323  -10.7887   26.2084 C   0  0  0  0  0  0  0  0  0  0  0  0
    6.6353  -12.5020   26.7220 S   0  0  0  0  0  0  0  0  0  0  0  0
    7.8566  -13.3053   25.6657 C   0  0  0  0  0  0  0  0  0  0  0  0
    8.0865  -14.7561   26.0400 C   0  0  0  0  0  0  0  0  0  0  0  0
    9.5569  -15.0620   26.1059 C   0  0  2  0  0  0  0  0  0  0  0  0
    9.9369  -15.6109   24.7826 N   0  0  0  0  0  0  0  0  0  0  0  0
    9.7808  -16.1089   27.1157 C   0  0  0  0  0  0  0  0  0  0  0  0
    9.7924  -17.3013   26.7107 O   0  0  0  0  0  0  0  0  0  0  0  0
    9.9756  -15.8649   28.4610 O   0  0  0  0  0  0  0  0  0  0  0  0
  2  1  1  6
  3  2  1  0
  4  3  1  0
  4  5  1  0
  6  5  1  0
  6  7  1  0
  8  9  2  0
  8  2  1  0
 10 11  1  0
 11 13  1  0
 12 11  2  0
 14 13  1  1
 14 15  1  0
 15  8  1  0
 16 23  1  0
 16 14  1  0
 17 16  2  0
 19 20  1  0
 19 18  1  0
 20 21  1  0
 22 21  1  6
 22 24  1  0
 22 23  1  0
 24 26  1  0
 25 24  2  0
M  END
$$$$
