KNM.pdb
     RDKit          3D

 26 25  0  0  1  0  0  0  0  0999 V2000
   10.0732  -13.3456   18.6150 N   0  0  0  0  0  0  0  0  0  0  0  0
    8.7447  -13.1618   19.1177 C   0  0  1  0  0  0  0  0  0  0  0  0
    7.7109  -13.2090   17.9972 C   0  0  0  0  0  0  0  0  0  0  0  0
    7.9670  -14.3604   17.0822 C   0  0  0  0  0  0  0  0  0  0  0  0
    8.1795  -13.9217   15.6507 C   0  0  0  0  0  0  0  0  0  0  0  0
    8.5238  -15.1116   14.7745 C   0  0  0  0  0  0  0  0  0  0  0  0
    7.3294  -15.6972   14.2218 N   0  0  0  0  0  0  0  0  0  0  0  0
    8.3503  -14.2603   20.0629 C   0  0  0  0  0  0  0  0  0  0  0  0
    7.1625  -14.3696   20.4497 O   0  0  0  0  0  0  0  0  0  0  0  0
    9.2751  -19.8312   21.3832 N   0  0  0  0  0  0  0  0  0  0  0  0
    9.7933  -18.5830   21.9475 C   0  0  0  0  0  0  0  0  0  0  0  0
   10.1060  -18.6903   23.1408 O   0  0  0  0  0  0  0  0  0  0  0  0
    9.8757  -17.4185   21.0787 C   0  0  0  0  0  0  0  0  0  0  0  0
    8.9888  -16.2761   21.4792 C   0  0  2  0  0  0  0  0  0  0  0  0
    9.3391  -15.1599   20.5030 N   0  0  0  0  0  0  0  0  0  0  0  0
    9.2568  -15.7244   22.8132 C   0  0  0  0  0  0  0  0  0  0  0  0
   10.4400  -15.2409   23.0427 O   0  0  0  0  0  0  0  0  0  0  0  0
    5.9390  -11.3907   25.8720 C   0  0  0  0  0  0  0  0  0  0  0  0
    6.6220  -12.2207   27.3333 S   0  0  0  0  0  0  0  0  0  0  0  0
    7.8900  -13.4214   26.8825 C   0  0  0  0  0  0  0  0  0  0  0  0
    7.6425  -14.0481   25.5246 C   0  0  0  0  0  0  0  0  0  0  0  0
    8.7627  -14.9808   25.1570 C   0  0  2  0  0  0  0  0  0  0  0  0
    8.3634  -15.6485   23.8954 N   0  0  0  0  0  0  0  0  0  0  0  0
    8.8859  -16.0117   26.2000 C   0  0  0  0  0  0  0  0  0  0  0  0
    8.2702  -17.0939   26.0103 O   0  0  0  0  0  0  0  0  0  0  0  0
    9.6251  -15.8649   27.3571 O   0  0  0  0  0  0  0  0  0  0  0  0
  2  1  1  6
  3  2  1  0
  4  3  1  0
  4  5  1  0
  6  5  1  0
  6  7  1  0
  8  9  2  0
  8  2  1  0
 10 11  1  0
 11 13  1  0
 12 11  2  0
 14 13  1  6
 14 15  1  0
 15  8  1  0
 16 23  1  0
 16 14  1  0
 17 16  2  0
 19 20  1  0
 19 18  1  0
 20 21  1  0
 22 21  1  1
 22 24  1  0
 22 23  1  0
 24 26  1  0
 25 24  2  0
M  END
$$$$
