KNM.pdb
     RDKit          3D

 26 25  0  0  1  0  0  0  0  0999 V2000
    6.7614  -18.2527   21.0999 N   0  0  0  0  0  0  0  0  0  0  0  0
    7.8929  -17.4321   20.7871 C   0  0  1  0  0  0  0  0  0  0  0  0
    7.5315  -15.9503   20.8051 C   0  0  0  0  0  0  0  0  0  0  0  0
    7.9013  -15.2946   19.5160 C   0  0  0  0  0  0  0  0  0  0  0  0
    7.5828  -13.8163   19.5101 C   0  0  0  0  0  0  0  0  0  0  0  0
    7.8597  -13.2172   18.1439 C   0  0  0  0  0  0  0  0  0  0  0  0
    7.4775  -11.8288   18.1118 N   0  0  0  0  0  0  0  0  0  0  0  0
    8.9876  -17.5821   21.8043 C   0  0  0  0  0  0  0  0  0  0  0  0
    9.0257  -18.5874   22.5530 O   0  0  0  0  0  0  0  0  0  0  0  0
   12.6242  -17.7636   20.6955 N   0  0  0  0  0  0  0  0  0  0  0  0
   12.9591  -16.4061   21.1314 C   0  0  0  0  0  0  0  0  0  0  0  0
   13.8711  -15.9001   20.4639 O   0  0  0  0  0  0  0  0  0  0  0  0
   12.2144  -15.8392   22.2457 C   0  0  0  0  0  0  0  0  0  0  0  0
   11.1652  -16.7448   22.8211 C   0  0  2  0  0  0  0  0  0  0  0  0
    9.9650  -16.5738   21.8982 N   0  0  0  0  0  0  0  0  0  0  0  0
   10.6864  -16.3653   24.1562 C   0  0  0  0  0  0  0  0  0  0  0  0
   11.5262  -16.4364   25.1442 O   0  0  0  0  0  0  0  0  0  0  0  0
    6.7652  -11.4869   26.0175 C   0  0  0  0  0  0  0  0  0  0  0  0
    6.3177  -12.7864   27.2015 S   0  0  0  0  0  0  0  0  0  0  0  0
    7.5387  -14.1137   27.2230 C   0  0  0  0  0  0  0  0  0  0  0  0
    7.9672  -14.5337   25.8310 C   0  0  0  0  0  0  0  0  0  0  0  0
    9.0823  -15.5397   25.8984 C   0  0  2  0  0  0  0  0  0  0  0  0
    9.3998  -15.9169   24.5007 N   0  0  0  0  0  0  0  0  0  0  0  0
    8.5982  -16.7412   26.5968 C   0  0  0  0  0  0  0  0  0  0  0  0
    8.1495  -17.6763   25.8825 O   0  0  0  0  0  0  0  0  0  0  0  0
    8.6063  -16.9015   27.9684 O   0  0  0  0  0  0  0  0  0  0  0  0
  2  1  1  1
  3  2  1  0
  4  3  1  0
  4  5  1  0
  6  5  1  0
  6  7  1  0
  8  9  2  0
  8  2  1  0
 10 11  1  0
 11 13  1  0
 12 11  2  0
 14 13  1  6
 14 15  1  0
 15  8  1  0
 16 23  1  0
 16 14  1  0
 17 16  2  0
 19 20  1  0
 19 18  1  0
 20 21  1  0
 22 21  1  6
 22 24  1  0
 22 23  1  0
 24 26  1  0
 25 24  2  0
M  END
$$$$
