KNM.pdb
     RDKit          3D

 26 25  0  0  1  0  0  0  0  0999 V2000
    8.9792  -19.3757   20.5386 N   0  0  0  0  0  0  0  0  0  0  0  0
    9.2519  -18.5553   19.3966 C   0  0  1  0  0  0  0  0  0  0  0  0
    8.1653  -18.6946   18.3353 C   0  0  0  0  0  0  0  0  0  0  0  0
    8.4219  -19.8763   17.4599 C   0  0  0  0  0  0  0  0  0  0  0  0
    9.2950  -19.5347   16.2733 C   0  0  0  0  0  0  0  0  0  0  0  0
    9.3910  -20.7155   15.3253 C   0  0  0  0  0  0  0  0  0  0  0  0
   10.1406  -20.3609   14.1475 N   0  0  0  0  0  0  0  0  0  0  0  0
    9.2703  -17.0961   19.7512 C   0  0  0  0  0  0  0  0  0  0  0  0
    9.5633  -16.2359   18.8870 O   0  0  0  0  0  0  0  0  0  0  0  0
    7.5361  -12.3529   20.4842 N   0  0  0  0  0  0  0  0  0  0  0  0
    7.4524  -13.3243   21.5770 C   0  0  0  0  0  0  0  0  0  0  0  0
    7.2307  -12.7936   22.6736 O   0  0  0  0  0  0  0  0  0  0  0  0
    7.6312  -14.7330   21.2589 C   0  0  0  0  0  0  0  0  0  0  0  0
    9.0194  -15.2544   21.4897 C   0  0  2  0  0  0  0  0  0  0  0  0
    8.9530  -16.7173   21.0690 N   0  0  0  0  0  0  0  0  0  0  0  0
    9.4469  -15.2725   22.8941 C   0  0  0  0  0  0  0  0  0  0  0  0
   10.6947  -15.5306   23.1447 O   0  0  0  0  0  0  0  0  0  0  0  0
    5.9480  -11.5824   25.8333 C   0  0  0  0  0  0  0  0  0  0  0  0
    7.3573  -11.7862   26.9572 S   0  0  0  0  0  0  0  0  0  0  0  0
    8.6481  -12.8105   26.2240 C   0  0  0  0  0  0  0  0  0  0  0  0
    8.3204  -14.2894   26.2798 C   0  0  0  0  0  0  0  0  0  0  0  0
    9.2409  -15.0724   25.3857 C   0  0  2  0  0  0  0  0  0  0  0  0
    8.6506  -15.0315   24.0268 N   0  0  0  0  0  0  0  0  0  0  0  0
    9.2605  -16.4744   25.8329 C   0  0  0  0  0  0  0  0  0  0  0  0
    9.8049  -16.7132   26.9432 O   0  0  0  0  0  0  0  0  0  0  0  0
    8.7257  -17.5278   25.1179 O   0  0  0  0  0  0  0  0  0  0  0  0
  2  1  1  1
  3  2  1  0
  4  3  1  0
  4  5  1  0
  6  5  1  0
  6  7  1  0
  8  9  2  0
  8  2  1  0
 10 11  1  0
 11 13  1  0
 12 11  2  0
 14 13  1  1
 14 15  1  0
 15  8  1  0
 16 23  1  0
 16 14  1  0
 17 16  2  0
 19 20  1  0
 19 18  1  0
 20 21  1  0
 22 21  1  1
 22 24  1  0
 22 23  1  0
 24 26  1  0
 25 24  2  0
M  END
$$$$
