KNM.pdb
     RDKit          3D

 26 25  0  0  1  0  0  0  0  0999 V2000
   11.7932  -16.5088   21.1999 N   0  0  0  0  0  0  0  0  0  0  0  0
   10.4044  -16.2731   21.4592 C   0  0  1  0  0  0  0  0  0  0  0  0
    9.5147  -17.0995   20.5361 C   0  0  0  0  0  0  0  0  0  0  0  0
   10.3272  -18.0523   19.7233 C   0  0  0  0  0  0  0  0  0  0  0  0
    9.4809  -18.8539   18.7599 C   0  0  0  0  0  0  0  0  0  0  0  0
   10.3579  -19.7126   17.8679 C   0  0  0  0  0  0  0  0  0  0  0  0
    9.5583  -20.4251   16.9047 N   0  0  0  0  0  0  0  0  0  0  0  0
   10.0197  -16.6877   22.8505 C   0  0  0  0  0  0  0  0  0  0  0  0
    8.8153  -16.7001   23.1996 O   0  0  0  0  0  0  0  0  0  0  0  0
   12.7002  -20.0946   27.2008 N   0  0  0  0  0  0  0  0  0  0  0  0
   11.5957  -19.2550   26.7315 C   0  0  0  0  0  0  0  0  0  0  0  0
   10.6620  -19.1947   27.5426 O   0  0  0  0  0  0  0  0  0  0  0  0
   11.7212  -18.6204   25.4280 C   0  0  0  0  0  0  0  0  0  0  0  0
   10.6876  -17.5705   25.1422 C   0  0  2  0  0  0  0  0  0  0  0  0
   11.0365  -17.0601   23.7496 N   0  0  0  0  0  0  0  0  0  0  0  0
   10.7470  -16.3914   26.0149 C   0  0  0  0  0  0  0  0  0  0  0  0
   11.8216  -15.6632   25.9775 O   0  0  0  0  0  0  0  0  0  0  0  0
    6.4202  -11.8320   25.1100 C   0  0  0  0  0  0  0  0  0  0  0  0
    6.8089  -12.6108   26.7017 S   0  0  0  0  0  0  0  0  0  0  0  0
    8.3772  -13.4992   26.6402 C   0  0  0  0  0  0  0  0  0  0  0  0
    8.7951  -14.0379   27.9941 C   0  0  0  0  0  0  0  0  0  0  0  0
   10.0465  -14.8624   27.8755 C   0  0  2  0  0  0  0  0  0  0  0  0
    9.7543  -15.9412   26.9020 N   0  0  0  0  0  0  0  0  0  0  0  0
   10.3306  -15.4869   29.1774 C   0  0  0  0  0  0  0  0  0  0  0  0
    9.9993  -16.6938   29.3175 O   0  0  0  0  0  0  0  0  0  0  0  0
   10.9296  -14.8376   30.2389 O   0  0  0  0  0  0  0  0  0  0  0  0
  2  1  1  6
  3  2  1  0
  4  3  1  0
  4  5  1  0
  6  5  1  0
  6  7  1  0
  8  9  2  0
  8  2  1  0
 10 11  1  0
 11 13  1  0
 12 11  2  0
 14 13  1  1
 14 15  1  0
 15  8  1  0
 16 23  1  0
 16 14  1  0
 17 16  2  0
 19 20  1  0
 19 18  1  0
 20 21  1  0
 22 21  1  1
 22 24  1  0
 22 23  1  0
 24 26  1  0
 25 24  2  0
M  END
$$$$
