THP.pdb
     RDKit          3D

 25 26  0  0  1  0  0  0  0  0999 V2000
   11.1855  -14.2591   20.1980 C   0  0  0  0  0  0  0  0  0  0  0  0
   10.2403  -13.3394   19.5069 C   0  0  1  0  0  0  0  0  0  0  0  0
   10.6762  -13.0959   18.2237 O   0  0  0  0  0  0  0  0  0  0  0  0
    8.8186  -13.8300   19.4712 C   0  0  2  0  0  0  0  0  0  0  0  0
    7.9335  -12.9422   18.7659 N   0  0  0  0  0  0  0  0  0  0  0  0
    8.2744  -14.0908   20.8258 C   0  0  0  0  0  0  0  0  0  0  0  0
    7.7454  -13.1925   21.5323 O   0  0  0  0  0  0  0  0  0  0  0  0
    8.3321  -15.3872   21.3839 N   0  0  0  0  0  0  0  0  0  0  0  0
    7.6995  -15.7037   22.6680 C   0  0  1  0  0  0  0  0  0  0  0  0
    7.6353  -17.1844   22.6997 C   0  0  0  0  0  0  0  0  0  0  0  0
    7.2729  -17.8411   23.9433 C   0  0  0  0  0  0  0  0  0  0  0  0
    5.9422  -18.2575   24.1493 C   0  0  0  0  0  0  0  0  0  0  0  0
    5.8485  -18.8244   25.3381 N   0  0  0  0  0  0  0  0  0  0  0  0
    7.0579  -18.7950   25.9135 C   0  0  0  0  0  0  0  0  0  0  0  0
    7.8998  -18.1995   25.0578 N   0  0  0  0  0  0  0  0  0  0  0  0
    8.4900  -15.1485   23.7891 C   0  0  0  0  0  0  0  0  0  0  0  0
    9.7724  -15.1082   23.5410 O   0  0  0  0  0  0  0  0  0  0  0  0
    8.0967  -14.6792   25.0243 N   0  0  0  0  0  0  0  0  0  0  0  0
    6.8593  -14.6080   25.7046 C   0  0  0  0  0  0  0  0  0  0  0  0
    6.8248  -13.0847   25.9886 C   0  0  0  0  0  0  0  0  0  0  0  0
    8.2395  -12.9232   26.5322 C   0  0  0  0  0  0  0  0  0  0  0  0
    9.0336  -14.1002   26.0108 C   0  0  1  0  0  0  0  0  0  0  0  0
    9.3275  -15.0088   27.1152 C   0  0  0  0  0  0  0  0  0  0  0  0
    8.8053  -16.1216   27.3348 O   0  0  0  0  0  0  0  0  0  0  0  0
   10.2970  -14.5914   28.0261 O   0  0  0  0  0  0  0  0  0  0  0  0
  2  1  1  6
  3  2  1  0
  4  5  1  1
  4  2  1  0
  4  6  1  0
  6  7  2  0
  8  6  1  0
  8  9  1  0
  9 16  1  0
 10 11  1  0
  9 10  1  1
 11 12  2  0
 13 12  1  0
 14 13  1  0
 15 14  2  0
 15 11  1  0
 16 17  2  0
 18 16  1  0
 18 22  1  0
 19 18  1  0
 20 19  1  0
 20 21  1  0
 21 22  1  0
 22 23  1  1
 23 25  1  0
 24 23  2  0
M  END
$$$$
