THP.pdb
     RDKit          3D

 25 26  0  0  1  0  0  0  0  0999 V2000
   10.1051  -14.2744   18.5772 C   0  0  0  0  0  0  0  0  0  0  0  0
    9.4597  -14.3324   19.9177 C   0  0  1  0  0  0  0  0  0  0  0  0
    9.8291  -13.2361   20.6643 O   0  0  0  0  0  0  0  0  0  0  0  0
    7.9591  -14.4304   19.8752 C   0  0  2  0  0  0  0  0  0  0  0  0
    7.3439  -13.3479   19.1551 N   0  0  0  0  0  0  0  0  0  0  0  0
    7.3582  -14.5237   21.2278 C   0  0  0  0  0  0  0  0  0  0  0  0
    6.7982  -13.5479   21.7935 O   0  0  0  0  0  0  0  0  0  0  0  0
    7.3942  -15.7398   21.9455 N   0  0  0  0  0  0  0  0  0  0  0  0
    6.9679  -15.8227   23.3457 C   0  0  1  0  0  0  0  0  0  0  0  0
    6.8214  -17.2744   23.6080 C   0  0  0  0  0  0  0  0  0  0  0  0
    6.7992  -17.7365   24.9846 C   0  0  0  0  0  0  0  0  0  0  0  0
    7.9902  -18.1899   25.5866 C   0  0  0  0  0  0  0  0  0  0  0  0
    7.7314  -18.5565   26.8285 N   0  0  0  0  0  0  0  0  0  0  0  0
    6.4265  -18.3616   27.0601 C   0  0  0  0  0  0  0  0  0  0  0  0
    5.8846  -17.8680   25.9385 N   0  0  0  0  0  0  0  0  0  0  0  0
    7.9668  -15.1864   24.2330 C   0  0  0  0  0  0  0  0  0  0  0  0
    9.1876  -15.2726   23.7747 O   0  0  0  0  0  0  0  0  0  0  0  0
    7.8165  -14.5336   25.4379 N   0  0  0  0  0  0  0  0  0  0  0  0
    6.7245  -14.3030   26.3058 C   0  0  0  0  0  0  0  0  0  0  0  0
    6.7879  -12.7557   26.3711 C   0  0  0  0  0  0  0  0  0  0  0  0
    8.2815  -12.6007   26.6318 C   0  0  0  0  0  0  0  0  0  0  0  0
    8.9327  -13.8794   26.1537 C   0  0  1  0  0  0  0  0  0  0  0  0
    9.3928  -14.6454   27.3083 C   0  0  0  0  0  0  0  0  0  0  0  0
   10.3195  -14.3465   28.0902 O   0  0  0  0  0  0  0  0  0  0  0  0
    8.7269  -15.8421   27.5695 O   0  0  0  0  0  0  0  0  0  0  0  0
  2  1  1  6
  3  2  1  0
  4  5  1  1
  4  2  1  0
  4  6  1  0
  6  7  2  0
  8  6  1  0
  8  9  1  0
  9 16  1  0
 10 11  1  0
  9 10  1  1
 11 12  2  0
 13 12  1  0
 14 13  1  0
 15 14  2  0
 15 11  1  0
 16 17  2  0
 18 16  1  0
 18 22  1  0
 19 18  1  0
 20 19  1  0
 20 21  1  0
 21 22  1  0
 22 23  1  1
 23 25  1  0
 24 23  2  0
M  END
$$$$
