THP.pdb
     RDKit          3D

 25 26  0  0  1  0  0  0  0  0999 V2000
    9.6621  -12.9589   20.5513 C   0  0  0  0  0  0  0  0  0  0  0  0
    8.5721  -13.1761   19.5605 C   0  0  1  0  0  0  0  0  0  0  0  0
    9.0692  -13.0562   18.2821 O   0  0  0  0  0  0  0  0  0  0  0  0
    7.8635  -14.4955   19.7036 C   0  0  2  0  0  0  0  0  0  0  0  0
    6.8173  -14.6814   18.7342 N   0  0  0  0  0  0  0  0  0  0  0  0
    7.3121  -14.6984   21.0652 C   0  0  0  0  0  0  0  0  0  0  0  0
    6.2814  -14.1045   21.4785 O   0  0  0  0  0  0  0  0  0  0  0  0
    7.9392  -15.5862   21.9673 N   0  0  0  0  0  0  0  0  0  0  0  0
    7.4409  -15.7792   23.3325 C   0  0  1  0  0  0  0  0  0  0  0  0
    7.5757  -17.2348   23.5789 C   0  0  0  0  0  0  0  0  0  0  0  0
    7.3902  -17.7344   24.9298 C   0  0  0  0  0  0  0  0  0  0  0  0
    8.5159  -18.0620   25.7122 C   0  0  0  0  0  0  0  0  0  0  0  0
    8.1086  -18.4908   26.8928 N   0  0  0  0  0  0  0  0  0  0  0  0
    6.7696  -18.4564   26.9125 C   0  0  0  0  0  0  0  0  0  0  0  0
    6.3580  -17.9986   25.7224 N   0  0  0  0  0  0  0  0  0  0  0  0
    8.2236  -14.9691   24.2922 C   0  0  0  0  0  0  0  0  0  0  0  0
    9.4706  -14.8132   23.9335 O   0  0  0  0  0  0  0  0  0  0  0  0
    7.8542  -14.3680   25.4766 N   0  0  0  0  0  0  0  0  0  0  0  0
    6.6640  -14.3390   26.2392 C   0  0  0  0  0  0  0  0  0  0  0  0
    6.4554  -12.8046   26.3067 C   0  0  0  0  0  0  0  0  0  0  0  0
    7.8701  -12.4005   26.7041 C   0  0  0  0  0  0  0  0  0  0  0  0
    8.7716  -13.5427   26.2911 C   0  0  1  0  0  0  0  0  0  0  0  0
    9.2484  -14.2346   27.4850 C   0  0  0  0  0  0  0  0  0  0  0  0
   10.0737  -13.8123   28.3217 O   0  0  0  0  0  0  0  0  0  0  0  0
    8.7273  -15.5063   27.7199 O   0  0  0  0  0  0  0  0  0  0  0  0
  2  1  1  1
  3  2  1  0
  4  5  1  6
  4  2  1  0
  4  6  1  0
  6  7  2  0
  8  6  1  0
  8  9  1  0
  9 16  1  0
 10 11  1  0
  9 10  1  1
 11 12  2  0
 13 12  1  0
 14 13  1  0
 15 14  2  0
 15 11  1  0
 16 17  2  0
 18 16  1  0
 18 22  1  0
 19 18  1  0
 20 19  1  0
 20 21  1  0
 21 22  1  0
 22 23  1  1
 23 25  1  0
 24 23  2  0
M  END
$$$$
