THP.pdb
     RDKit          3D

 25 26  0  0  1  0  0  0  0  0999 V2000
   11.4483  -14.5711   18.6507 C   0  0  0  0  0  0  0  0  0  0  0  0
   10.5650  -14.4416   19.8423 C   0  0  1  0  0  0  0  0  0  0  0  0
   10.9134  -13.3229   20.5654 O   0  0  0  0  0  0  0  0  0  0  0  0
    9.0966  -14.3948   19.5184 C   0  0  2  0  0  0  0  0  0  0  0  0
    8.7453  -13.3025   18.6510 N   0  0  0  0  0  0  0  0  0  0  0  0
    8.2488  -14.3476   20.7342 C   0  0  0  0  0  0  0  0  0  0  0  0
    7.5959  -13.3246   21.0704 O   0  0  0  0  0  0  0  0  0  0  0  0
    8.1419  -15.4758   21.5774 N   0  0  0  0  0  0  0  0  0  0  0  0
    7.3181  -15.4580   22.7900 C   0  0  1  0  0  0  0  0  0  0  0  0
    6.8731  -16.8616   22.9620 C   0  0  0  0  0  0  0  0  0  0  0  0
    6.0059  -17.4475   21.9551 C   0  0  0  0  0  0  0  0  0  0  0  0
    4.7777  -16.8282   21.6478 C   0  0  0  0  0  0  0  0  0  0  0  0
    4.1644  -17.5307   20.7129 N   0  0  0  0  0  0  0  0  0  0  0  0
    4.9387  -18.5779   20.3993 C   0  0  0  0  0  0  0  0  0  0  0  0
    6.0411  -18.5089   21.1578 N   0  0  0  0  0  0  0  0  0  0  0  0
    8.1023  -14.9685   23.9456 C   0  0  0  0  0  0  0  0  0  0  0  0
    9.3918  -15.1081   23.7855 O   0  0  0  0  0  0  0  0  0  0  0  0
    7.6972  -14.4029   25.1357 N   0  0  0  0  0  0  0  0  0  0  0  0
    6.4395  -14.1378   25.7247 C   0  0  0  0  0  0  0  0  0  0  0  0
    6.5975  -12.6142   25.9611 C   0  0  0  0  0  0  0  0  0  0  0  0
    7.9819  -12.6259   26.5984 C   0  0  0  0  0  0  0  0  0  0  0  0
    8.6381  -13.9192   26.1687 C   0  0  1  0  0  0  0  0  0  0  0  0
    8.7300  -14.8162   27.3171 C   0  0  0  0  0  0  0  0  0  0  0  0
    8.0208  -15.8173   27.5499 O   0  0  0  0  0  0  0  0  0  0  0  0
    9.7164  -14.5261   28.2587 O   0  0  0  0  0  0  0  0  0  0  0  0
  2  1  1  6
  3  2  1  0
  4  5  1  6
  4  2  1  0
  4  6  1  0
  6  7  2  0
  8  6  1  0
  8  9  1  0
  9 16  1  0
 10 11  1  0
  9 10  1  1
 11 12  2  0
 13 12  1  0
 14 13  1  0
 15 14  2  0
 15 11  1  0
 16 17  2  0
 18 16  1  0
 18 22  1  0
 19 18  1  0
 20 19  1  0
 20 21  1  0
 21 22  1  0
 22 23  1  1
 23 25  1  0
 24 23  2  0
M  END
$$$$
