THP.pdb
     RDKit          3D

 25 26  0  0  1  0  0  0  0  0999 V2000
   11.2752  -19.5666   20.7638 C   0  0  0  0  0  0  0  0  0  0  0  0
   11.1554  -18.4880   21.7832 C   0  0  1  0  0  0  0  0  0  0  0  0
   12.2529  -18.5040   22.6145 O   0  0  0  0  0  0  0  0  0  0  0  0
   10.9819  -17.1102   21.2046 C   0  0  2  0  0  0  0  0  0  0  0  0
   12.0983  -16.6922   20.3997 N   0  0  0  0  0  0  0  0  0  0  0  0
   10.7173  -16.0872   22.2452 C   0  0  0  0  0  0  0  0  0  0  0  0
   11.6085  -15.3107   22.6796 O   0  0  0  0  0  0  0  0  0  0  0  0
    9.4254  -15.9451   22.7983 N   0  0  0  0  0  0  0  0  0  0  0  0
    9.1719  -15.0819   23.9558 C   0  0  1  0  0  0  0  0  0  0  0  0
    7.7315  -14.7437   23.8633 C   0  0  0  0  0  0  0  0  0  0  0  0
    7.1365  -13.9308   24.9095 C   0  0  0  0  0  0  0  0  0  0  0  0
    6.2747  -14.5287   25.8509 C   0  0  0  0  0  0  0  0  0  0  0  0
    5.8579  -13.6060   26.6985 N   0  0  0  0  0  0  0  0  0  0  0  0
    6.4099  -12.4362   26.3501 C   0  0  0  0  0  0  0  0  0  0  0  0
    7.1751  -12.6539   25.2719 N   0  0  0  0  0  0  0  0  0  0  0  0
    9.5071  -15.7853   25.2139 C   0  0  0  0  0  0  0  0  0  0  0  0
    9.7450  -17.0587   25.0409 O   0  0  0  0  0  0  0  0  0  0  0  0
    9.6051  -15.3209   26.5082 N   0  0  0  0  0  0  0  0  0  0  0  0
    9.1461  -14.1640   27.1788 C   0  0  0  0  0  0  0  0  0  0  0  0
   10.5011  -13.6447   27.7237 C   0  0  0  0  0  0  0  0  0  0  0  0
   11.0299  -14.9525   28.3005 C   0  0  0  0  0  0  0  0  0  0  0  0
   10.2886  -16.0627   27.5893 C   0  0  1  0  0  0  0  0  0  0  0  0
    9.3578  -16.6929   28.5211 C   0  0  0  0  0  0  0  0  0  0  0  0
    8.1105  -16.6410   28.4910 O   0  0  0  0  0  0  0  0  0  0  0  0
    9.9197  -17.4347   29.5593 O   0  0  0  0  0  0  0  0  0  0  0  0
  2  1  1  6
  3  2  1  0
  4  5  1  1
  4  2  1  0
  4  6  1  0
  6  7  2  0
  8  6  1  0
  8  9  1  0
  9 16  1  0
 10 11  1  0
  9 10  1  1
 11 12  2  0
 13 12  1  0
 14 13  1  0
 15 14  2  0
 15 11  1  0
 16 17  2  0
 18 16  1  0
 18 22  1  0
 19 18  1  0
 20 19  1  0
 20 21  1  0
 21 22  1  0
 22 23  1  1
 23 25  1  0
 24 23  2  0
M  END
$$$$
