THP.pdb
     RDKit          3D

 25 26  0  0  1  0  0  0  0  0999 V2000
    8.6869  -12.4771   20.2096 C   0  0  0  0  0  0  0  0  0  0  0  0
    8.0992  -13.4992   19.3002 C   0  0  1  0  0  0  0  0  0  0  0  0
    8.6940  -13.4220   18.0608 O   0  0  0  0  0  0  0  0  0  0  0  0
    8.1920  -14.9092   19.8165 C   0  0  2  0  0  0  0  0  0  0  0  0
    7.6223  -15.8770   18.9178 N   0  0  0  0  0  0  0  0  0  0  0  0
    7.5778  -15.0638   21.1574 C   0  0  0  0  0  0  0  0  0  0  0  0
    6.3366  -14.9786   21.3522 O   0  0  0  0  0  0  0  0  0  0  0  0
    8.3832  -15.3183   22.2895 N   0  0  0  0  0  0  0  0  0  0  0  0
    7.7999  -15.5820   23.6084 C   0  0  1  0  0  0  0  0  0  0  0  0
    7.9410  -17.0458   23.7952 C   0  0  0  0  0  0  0  0  0  0  0  0
    7.0682  -17.9327   23.0464 C   0  0  0  0  0  0  0  0  0  0  0  0
    5.6756  -17.7155   23.0614 C   0  0  0  0  0  0  0  0  0  0  0  0
    5.0893  -18.6356   22.3176 N   0  0  0  0  0  0  0  0  0  0  0  0
    6.0379  -19.4403   21.8204 C   0  0  0  0  0  0  0  0  0  0  0  0
    7.2205  -18.9999   22.2709 N   0  0  0  0  0  0  0  0  0  0  0  0
    8.5054  -14.8085   24.6543 C   0  0  0  0  0  0  0  0  0  0  0  0
    9.7818  -14.6660   24.4126 O   0  0  0  0  0  0  0  0  0  0  0  0
    8.0402  -14.2292   25.8156 N   0  0  0  0  0  0  0  0  0  0  0  0
    6.7751  -14.1528   26.4422 C   0  0  0  0  0  0  0  0  0  0  0  0
    6.6508  -12.6118   26.5530 C   0  0  0  0  0  0  0  0  0  0  0  0
    8.0328  -12.3131   27.1219 C   0  0  0  0  0  0  0  0  0  0  0  0
    8.9065  -13.4941   26.7619 C   0  0  1  0  0  0  0  0  0  0  0  0
    9.2035  -14.2583   27.9700 C   0  0  0  0  0  0  0  0  0  0  0  0
    9.9090  -13.8979   28.9352 O   0  0  0  0  0  0  0  0  0  0  0  0
    8.6391  -15.5301   28.0590 O   0  0  0  0  0  0  0  0  0  0  0  0
  2  1  1  1
  3  2  1  0
  4  5  1  6
  4  2  1  0
  4  6  1  0
  6  7  2  0
  8  6  1  0
  8  9  1  0
  9 16  1  0
 10 11  1  0
  9 10  1  1
 11 12  2  0
 13 12  1  0
 14 13  1  0
 15 14  2  0
 15 11  1  0
 16 17  2  0
 18 16  1  0
 18 22  1  0
 19 18  1  0
 20 19  1  0
 20 21  1  0
 21 22  1  0
 22 23  1  1
 23 25  1  0
 24 23  2  0
M  END
$$$$
