THP.pdb
     RDKit          3D

 25 26  0  0  1  0  0  0  0  0999 V2000
   10.7765  -13.8448   18.2890 C   0  0  0  0  0  0  0  0  0  0  0  0
   10.1435  -13.9519   19.6324 C   0  0  1  0  0  0  0  0  0  0  0  0
   10.5626  -12.9128   20.4328 O   0  0  0  0  0  0  0  0  0  0  0  0
    8.6399  -13.9906   19.6037 C   0  0  2  0  0  0  0  0  0  0  0  0
    8.0582  -12.8341   18.9769 N   0  0  0  0  0  0  0  0  0  0  0  0
    8.0511  -14.1651   20.9535 C   0  0  0  0  0  0  0  0  0  0  0  0
    7.5208  -13.2188   21.5932 O   0  0  0  0  0  0  0  0  0  0  0  0
    8.0651  -15.4293   21.5835 N   0  0  0  0  0  0  0  0  0  0  0  0
    7.4692  -15.6392   22.9064 C   0  0  1  0  0  0  0  0  0  0  0  0
    7.4452  -17.1115   23.0778 C   0  0  0  0  0  0  0  0  0  0  0  0
    7.2991  -17.6564   24.4160 C   0  0  0  0  0  0  0  0  0  0  0  0
    6.2047  -18.4939   24.7115 C   0  0  0  0  0  0  0  0  0  0  0  0
    6.2780  -18.8665   25.9762 N   0  0  0  0  0  0  0  0  0  0  0  0
    7.3703  -18.3090   26.5152 C   0  0  0  0  0  0  0  0  0  0  0  0
    7.9699  -17.5854   25.5600 N   0  0  0  0  0  0  0  0  0  0  0  0
    8.2688  -14.9620   23.9514 C   0  0  0  0  0  0  0  0  0  0  0  0
    9.5403  -14.8910   23.6579 O   0  0  0  0  0  0  0  0  0  0  0  0
    7.8934  -14.4082   25.1568 N   0  0  0  0  0  0  0  0  0  0  0  0
    6.6704  -14.3100   25.8593 C   0  0  0  0  0  0  0  0  0  0  0  0
    6.6096  -12.7704   26.0284 C   0  0  0  0  0  0  0  0  0  0  0  0
    8.0323  -12.5404   26.5242 C   0  0  0  0  0  0  0  0  0  0  0  0
    8.8395  -13.7377   26.0741 C   0  0  1  0  0  0  0  0  0  0  0  0
    9.1776  -14.5540   27.2364 C   0  0  0  0  0  0  0  0  0  0  0  0
    8.7239  -15.6815   27.5231 O   0  0  0  0  0  0  0  0  0  0  0  0
   10.1086  -14.0190   28.1258 O   0  0  0  0  0  0  0  0  0  0  0  0
  2  1  1  6
  3  2  1  0
  4  5  1  1
  4  2  1  0
  4  6  1  0
  6  7  2  0
  8  6  1  0
  8  9  1  0
  9 16  1  0
 10 11  1  0
  9 10  1  1
 11 12  2  0
 13 12  1  0
 14 13  1  0
 15 14  2  0
 15 11  1  0
 16 17  2  0
 18 16  1  0
 18 22  1  0
 19 18  1  0
 20 19  1  0
 20 21  1  0
 21 22  1  0
 22 23  1  1
 23 25  1  0
 24 23  2  0
M  END
$$$$
