THP.pdb
     RDKit          3D

 25 26  0  0  1  0  0  0  0  0999 V2000
   10.5607  -14.1480   18.2984 C   0  0  0  0  0  0  0  0  0  0  0  0
    9.9401  -14.1353   19.6518 C   0  0  1  0  0  0  0  0  0  0  0  0
   10.4703  -13.1094   20.4016 O   0  0  0  0  0  0  0  0  0  0  0  0
    8.4396  -14.0274   19.6404 C   0  0  2  0  0  0  0  0  0  0  0  0
    7.9664  -12.8135   19.0310 N   0  0  0  0  0  0  0  0  0  0  0  0
    7.8513  -14.1575   20.9955 C   0  0  0  0  0  0  0  0  0  0  0  0
    7.3489  -13.1840   21.6166 O   0  0  0  0  0  0  0  0  0  0  0  0
    7.8337  -15.4080   21.6521 N   0  0  0  0  0  0  0  0  0  0  0  0
    7.2394  -15.5734   22.9820 C   0  0  1  0  0  0  0  0  0  0  0  0
    7.0858  -17.0388   23.1447 C   0  0  0  0  0  0  0  0  0  0  0  0
    6.8889  -17.5763   24.4795 C   0  0  0  0  0  0  0  0  0  0  0  0
    7.9232  -18.3102   25.0945 C   0  0  0  0  0  0  0  0  0  0  0  0
    7.5229  -18.6956   26.2923 N   0  0  0  0  0  0  0  0  0  0  0  0
    6.2757  -18.2453   26.4830 C   0  0  0  0  0  0  0  0  0  0  0  0
    5.9136  -17.5748   25.3808 N   0  0  0  0  0  0  0  0  0  0  0  0
    8.1104  -14.9781   24.0197 C   0  0  0  0  0  0  0  0  0  0  0  0
    9.3693  -14.9391   23.6711 O   0  0  0  0  0  0  0  0  0  0  0  0
    7.8108  -14.4711   25.2662 N   0  0  0  0  0  0  0  0  0  0  0  0
    6.6416  -14.4303   26.0600 C   0  0  0  0  0  0  0  0  0  0  0  0
    6.5507  -12.8989   26.2811 C   0  0  0  0  0  0  0  0  0  0  0  0
    7.9995  -12.6405   26.6773 C   0  0  0  0  0  0  0  0  0  0  0  0
    8.8039  -13.7993   26.1316 C   0  0  1  0  0  0  0  0  0  0  0  0
    9.2506  -14.6384   27.2397 C   0  0  0  0  0  0  0  0  0  0  0  0
    8.7993  -15.7554   27.5687 O   0  0  0  0  0  0  0  0  0  0  0  0
   10.2953  -14.1413   28.0178 O   0  0  0  0  0  0  0  0  0  0  0  0
  2  1  1  6
  3  2  1  0
  4  5  1  1
  4  2  1  0
  4  6  1  0
  6  7  2  0
  8  6  1  0
  8  9  1  0
  9 16  1  0
 10 11  1  0
  9 10  1  1
 11 12  2  0
 13 12  1  0
 14 13  1  0
 15 14  2  0
 15 11  1  0
 16 17  2  0
 18 16  1  0
 18 22  1  0
 19 18  1  0
 20 19  1  0
 20 21  1  0
 21 22  1  0
 22 23  1  1
 23 25  1  0
 24 23  2  0
M  END
$$$$
