THP.pdb
     RDKit          3D

 25 26  0  0  1  0  0  0  0  0999 V2000
   11.4757  -16.6315   15.9717 C   0  0  0  0  0  0  0  0  0  0  0  0
   10.6566  -15.9313   14.9441 C   0  0  1  0  0  0  0  0  0  0  0  0
   11.2091  -16.1175   13.6968 O   0  0  0  0  0  0  0  0  0  0  0  0
    9.2106  -16.3461   14.9214 C   0  0  2  0  0  0  0  0  0  0  0  0
    8.4510  -15.6863   13.8936 N   0  0  0  0  0  0  0  0  0  0  0  0
    8.5425  -16.1456   16.2301 C   0  0  0  0  0  0  0  0  0  0  0  0
    7.8418  -15.1319   16.4892 O   0  0  0  0  0  0  0  0  0  0  0  0
    8.6722  -17.1081   17.2558 N   0  0  0  0  0  0  0  0  0  0  0  0
    7.9611  -16.9777   18.5312 C   0  0  1  0  0  0  0  0  0  0  0  0
    7.7586  -18.3720   18.9922 C   0  0  0  0  0  0  0  0  0  0  0  0
    6.8214  -19.2163   18.2723 C   0  0  0  0  0  0  0  0  0  0  0  0
    5.4376  -19.0684   18.4949 C   0  0  0  0  0  0  0  0  0  0  0  0
    4.7859  -19.9325   17.7385 N   0  0  0  0  0  0  0  0  0  0  0  0
    5.6839  -20.6348   17.0349 C   0  0  0  0  0  0  0  0  0  0  0  0
    6.9017  -20.1882   17.3709 N   0  0  0  0  0  0  0  0  0  0  0  0
    8.7532  -16.1754   19.4898 C   0  0  0  0  0  0  0  0  0  0  0  0
   10.0399  -16.2383   19.2699 O   0  0  0  0  0  0  0  0  0  0  0  0
    8.3577  -15.3916   20.5527 N   0  0  0  0  0  0  0  0  0  0  0  0
    7.1117  -15.0998   21.1537 C   0  0  0  0  0  0  0  0  0  0  0  0
    7.1431  -13.5542   21.0411 C   0  0  0  0  0  0  0  0  0  0  0  0
    8.5525  -13.3168   21.5700 C   0  0  0  0  0  0  0  0  0  0  0  0
    9.3008  -14.6188   21.3891 C   0  0  1  0  0  0  0  0  0  0  0  0
    9.5296  -15.2273   22.6963 C   0  0  0  0  0  0  0  0  0  0  0  0
    8.9306  -16.2073   23.1866 O   0  0  0  0  0  0  0  0  0  0  0  0
   10.5251  -14.6541   23.4865 O   0  0  0  0  0  0  0  0  0  0  0  0
  2  1  1  1
  3  2  1  0
  4  5  1  6
  4  2  1  0
  4  6  1  0
  6  7  2  0
  8  6  1  0
  8  9  1  0
  9 16  1  0
 10 11  1  0
  9 10  1  1
 11 12  2  0
 13 12  1  0
 14 13  1  0
 15 14  2  0
 15 11  1  0
 16 17  2  0
 18 16  1  0
 18 22  1  0
 19 18  1  0
 20 19  1  0
 20 21  1  0
 21 22  1  0
 22 23  1  1
 23 25  1  0
 24 23  2  0
M  END
$$$$
