THP.pdb
     RDKit          3D

 25 26  0  0  1  0  0  0  0  0999 V2000
   11.2737  -14.1992   20.8920 C   0  0  0  0  0  0  0  0  0  0  0  0
   10.5681  -13.5959   19.7279 C   0  0  1  0  0  0  0  0  0  0  0  0
   11.3563  -13.6872   18.6026 O   0  0  0  0  0  0  0  0  0  0  0  0
    9.2177  -14.1967   19.4471 C   0  0  2  0  0  0  0  0  0  0  0  0
    8.5277  -13.5505   18.3631 N   0  0  0  0  0  0  0  0  0  0  0  0
    8.3436  -14.2122   20.6450 C   0  0  0  0  0  0  0  0  0  0  0  0
    7.4807  -13.3232   20.8704 O   0  0  0  0  0  0  0  0  0  0  0  0
    8.4515  -15.2498   21.5973 N   0  0  0  0  0  0  0  0  0  0  0  0
    7.6002  -15.2944   22.7901 C   0  0  1  0  0  0  0  0  0  0  0  0
    7.2071  -16.7181   22.9174 C   0  0  0  0  0  0  0  0  0  0  0  0
    6.3180  -17.2888   21.9210 C   0  0  0  0  0  0  0  0  0  0  0  0
    5.0843  -16.6641   21.6486 C   0  0  0  0  0  0  0  0  0  0  0  0
    4.4505  -17.3526   20.7170 N   0  0  0  0  0  0  0  0  0  0  0  0
    5.2166  -18.3960   20.3722 C   0  0  0  0  0  0  0  0  0  0  0  0
    6.3350  -18.3388   21.1081 N   0  0  0  0  0  0  0  0  0  0  0  0
    8.3379  -14.8039   23.9755 C   0  0  0  0  0  0  0  0  0  0  0  0
    9.6337  -14.9285   23.8599 O   0  0  0  0  0  0  0  0  0  0  0  0
    7.8851  -14.2505   25.1541 N   0  0  0  0  0  0  0  0  0  0  0  0
    6.6062  -13.9432   25.6726 C   0  0  0  0  0  0  0  0  0  0  0  0
    6.8162  -12.4348   25.9606 C   0  0  0  0  0  0  0  0  0  0  0  0
    8.1566  -12.5258   26.6803 C   0  0  0  0  0  0  0  0  0  0  0  0
    8.7805  -13.8365   26.2555 C   0  0  1  0  0  0  0  0  0  0  0  0
    8.7614  -14.7653   27.3818 C   0  0  0  0  0  0  0  0  0  0  0  0
    9.4543  -14.7063   28.4190 O   0  0  0  0  0  0  0  0  0  0  0  0
    7.8735  -15.8366   27.2928 O   0  0  0  0  0  0  0  0  0  0  0  0
  2  1  1  1
  3  2  1  0
  4  5  1  6
  4  2  1  0
  4  6  1  0
  6  7  2  0
  8  6  1  0
  8  9  1  0
  9 16  1  0
 10 11  1  0
  9 10  1  1
 11 12  2  0
 13 12  1  0
 14 13  1  0
 15 14  2  0
 15 11  1  0
 16 17  2  0
 18 16  1  0
 18 22  1  0
 19 18  1  0
 20 19  1  0
 20 21  1  0
 21 22  1  0
 22 23  1  1
 23 25  1  0
 24 23  2  0
M  END
$$$$
