THP.pdb
     RDKit          3D

 25 26  0  0  1  0  0  0  0  0999 V2000
   11.5139  -13.9860   18.9236 C   0  0  0  0  0  0  0  0  0  0  0  0
   10.5345  -13.9920   20.0451 C   0  0  1  0  0  0  0  0  0  0  0  0
   10.5932  -12.7966   20.7258 O   0  0  0  0  0  0  0  0  0  0  0  0
    9.1161  -14.2619   19.6226 C   0  0  2  0  0  0  0  0  0  0  0  0
    8.6412  -13.3433   18.6229 N   0  0  0  0  0  0  0  0  0  0  0  0
    8.1746  -14.2692   20.7685 C   0  0  0  0  0  0  0  0  0  0  0  0
    7.3171  -13.3654   20.9516 O   0  0  0  0  0  0  0  0  0  0  0  0
    8.2083  -15.3155   21.7168 N   0  0  0  0  0  0  0  0  0  0  0  0
    7.3736  -15.2923   22.9219 C   0  0  1  0  0  0  0  0  0  0  0  0
    6.8760  -16.6818   23.0604 C   0  0  0  0  0  0  0  0  0  0  0  0
    5.7994  -17.1276   22.1936 C   0  0  0  0  0  0  0  0  0  0  0  0
    6.1052  -17.7697   20.9768 C   0  0  0  0  0  0  0  0  0  0  0  0
    4.9796  -18.0831   20.3617 N   0  0  0  0  0  0  0  0  0  0  0  0
    3.9569  -17.6737   21.1238 C   0  0  0  0  0  0  0  0  0  0  0  0
    4.4719  -17.1018   22.2207 N   0  0  0  0  0  0  0  0  0  0  0  0
    8.1637  -14.8557   24.0946 C   0  0  0  0  0  0  0  0  0  0  0  0
    9.4487  -15.0395   23.9437 O   0  0  0  0  0  0  0  0  0  0  0  0
    7.7676  -14.3000   25.2924 N   0  0  0  0  0  0  0  0  0  0  0  0
    6.5200  -13.9243   25.8413 C   0  0  0  0  0  0  0  0  0  0  0  0
    6.8296  -12.4383   26.1551 C   0  0  0  0  0  0  0  0  0  0  0  0
    8.1742  -12.6280   26.8471 C   0  0  0  0  0  0  0  0  0  0  0  0
    8.7068  -13.9659   26.3845 C   0  0  1  0  0  0  0  0  0  0  0  0
    8.6494  -14.9152   27.4923 C   0  0  0  0  0  0  0  0  0  0  0  0
    7.8327  -15.8476   27.6441 O   0  0  0  0  0  0  0  0  0  0  0  0
    9.6101  -14.7674   28.4918 O   0  0  0  0  0  0  0  0  0  0  0  0
  2  1  1  6
  3  2  1  0
  4  5  1  6
  4  2  1  0
  4  6  1  0
  6  7  2  0
  8  6  1  0
  8  9  1  0
  9 16  1  0
 10 11  1  0
  9 10  1  1
 11 12  2  0
 13 12  1  0
 14 13  1  0
 15 14  2  0
 15 11  1  0
 16 17  2  0
 18 16  1  0
 18 22  1  0
 19 18  1  0
 20 19  1  0
 20 21  1  0
 21 22  1  0
 22 23  1  1
 23 25  1  0
 24 23  2  0
M  END
$$$$
