THP.pdb
     RDKit          3D

 25 26  0  0  1  0  0  0  0  0999 V2000
    8.8352  -12.5763   20.2788 C   0  0  0  0  0  0  0  0  0  0  0  0
    8.2683  -13.4293   19.1980 C   0  0  1  0  0  0  0  0  0  0  0  0
    8.9657  -13.2291   18.0278 O   0  0  0  0  0  0  0  0  0  0  0  0
    8.2408  -14.8979   19.5230 C   0  0  2  0  0  0  0  0  0  0  0  0
    7.6954  -15.7000   18.4609 N   0  0  0  0  0  0  0  0  0  0  0  0
    7.5100  -15.1869   20.7807 C   0  0  0  0  0  0  0  0  0  0  0  0
    6.3610  -15.7018   20.7982 O   0  0  0  0  0  0  0  0  0  0  0  0
    8.0918  -14.8874   22.0325 N   0  0  0  0  0  0  0  0  0  0  0  0
    7.4787  -15.3198   23.2920 C   0  0  1  0  0  0  0  0  0  0  0  0
    7.5052  -16.8009   23.2332 C   0  0  0  0  0  0  0  0  0  0  0  0
    7.1087  -17.5536   24.4102 C   0  0  0  0  0  0  0  0  0  0  0  0
    6.5686  -16.8755   25.5215 C   0  0  0  0  0  0  0  0  0  0  0  0
    6.2836  -17.7548   26.4644 N   0  0  0  0  0  0  0  0  0  0  0  0
    6.6141  -18.9731   26.0158 C   0  0  0  0  0  0  0  0  0  0  0  0
    7.1083  -18.8294   24.7786 N   0  0  0  0  0  0  0  0  0  0  0  0
    8.2326  -14.7869   24.4485 C   0  0  0  0  0  0  0  0  0  0  0  0
    9.5280  -14.8507   24.2887 O   0  0  0  0  0  0  0  0  0  0  0  0
    7.7947  -14.2475   25.6392 N   0  0  0  0  0  0  0  0  0  0  0  0
    6.5321  -14.1312   26.2647 C   0  0  0  0  0  0  0  0  0  0  0  0
    6.4991  -12.5943   26.4627 C   0  0  0  0  0  0  0  0  0  0  0  0
    7.8925  -12.4116   27.0527 C   0  0  0  0  0  0  0  0  0  0  0  0
    8.6967  -13.6206   26.6290 C   0  0  1  0  0  0  0  0  0  0  0  0
    8.9391  -14.4684   27.7926 C   0  0  0  0  0  0  0  0  0  0  0  0
    8.3678  -15.5424   28.0746 O   0  0  0  0  0  0  0  0  0  0  0  0
    9.9148  -14.0345   28.6891 O   0  0  0  0  0  0  0  0  0  0  0  0
  2  1  1  1
  3  2  1  0
  4  5  1  6
  4  2  1  0
  4  6  1  0
  6  7  2  0
  8  6  1  0
  8  9  1  0
  9 16  1  0
 10 11  1  0
  9 10  1  1
 11 12  2  0
 13 12  1  0
 14 13  1  0
 15 14  2  0
 15 11  1  0
 16 17  2  0
 18 16  1  0
 18 22  1  0
 19 18  1  0
 20 19  1  0
 20 21  1  0
 21 22  1  0
 22 23  1  1
 23 25  1  0
 24 23  2  0
M  END
$$$$
