THP.pdb
     RDKit          3D

 25 26  0  0  1  0  0  0  0  0999 V2000
   10.4356  -13.1276   18.7126 C   0  0  0  0  0  0  0  0  0  0  0  0
    9.4184  -13.1666   19.7993 C   0  0  1  0  0  0  0  0  0  0  0  0
    8.5520  -12.1043   19.6694 O   0  0  0  0  0  0  0  0  0  0  0  0
    8.6357  -14.4497   19.8647 C   0  0  2  0  0  0  0  0  0  0  0  0
    7.7420  -14.6222   18.7509 N   0  0  0  0  0  0  0  0  0  0  0  0
    7.8744  -14.5858   21.1300 C   0  0  0  0  0  0  0  0  0  0  0  0
    6.7037  -14.1440   21.2718 O   0  0  0  0  0  0  0  0  0  0  0  0
    8.4500  -15.2314   22.2467 N   0  0  0  0  0  0  0  0  0  0  0  0
    7.6888  -15.4723   23.4763 C   0  0  1  0  0  0  0  0  0  0  0  0
    7.7621  -16.9386   23.6818 C   0  0  0  0  0  0  0  0  0  0  0  0
    7.0814  -17.8104   22.7408 C   0  0  0  0  0  0  0  0  0  0  0  0
    5.8981  -17.3704   22.1139 C   0  0  0  0  0  0  0  0  0  0  0  0
    5.4604  -18.3201   21.3077 N   0  0  0  0  0  0  0  0  0  0  0  0
    6.3056  -19.3567   21.3826 C   0  0  0  0  0  0  0  0  0  0  0  0
    7.2731  -19.0294   22.2499 N   0  0  0  0  0  0  0  0  0  0  0  0
    8.2703  -14.7138   24.6062 C   0  0  0  0  0  0  0  0  0  0  0  0
    9.5514  -14.4944   24.4703 O   0  0  0  0  0  0  0  0  0  0  0  0
    7.6882  -14.2150   25.7520 N   0  0  0  0  0  0  0  0  0  0  0  0
    6.3662  -14.1789   26.2519 C   0  0  0  0  0  0  0  0  0  0  0  0
    6.2246  -12.6490   26.4558 C   0  0  0  0  0  0  0  0  0  0  0  0
    7.5410  -12.3938   27.1801 C   0  0  0  0  0  0  0  0  0  0  0  0
    8.4517  -13.5493   26.8291 C   0  0  1  0  0  0  0  0  0  0  0  0
    8.6291  -14.3959   28.0053 C   0  0  0  0  0  0  0  0  0  0  0  0
    8.1244  -15.5201   28.2077 O   0  0  0  0  0  0  0  0  0  0  0  0
    9.4515  -13.8978   29.0150 O   0  0  0  0  0  0  0  0  0  0  0  0
  2  1  1  6
  3  2  1  0
  4  5  1  6
  4  2  1  0
  4  6  1  0
  6  7  2  0
  8  6  1  0
  8  9  1  0
  9 16  1  0
 10 11  1  0
  9 10  1  1
 11 12  2  0
 13 12  1  0
 14 13  1  0
 15 14  2  0
 15 11  1  0
 16 17  2  0
 18 16  1  0
 18 22  1  0
 19 18  1  0
 20 19  1  0
 20 21  1  0
 21 22  1  0
 22 23  1  1
 23 25  1  0
 24 23  2  0
M  END
$$$$
