VVW.pdb
     RDKit          3D

 29 30  0  0  1  0  0  0  0  0999 V2000
    8.6916  -19.9009   20.1396 C   0  0  0  0  0  0  0  0  0  0  0  0
    7.3003  -19.4043   19.8249 C   0  0  2  0  0  0  0  0  0  0  0  0
    6.5288  -20.5730   19.2226 C   0  0  0  0  0  0  0  0  0  0  0  0
    7.3374  -18.2171   18.8808 C   0  0  2  0  0  0  0  0  0  0  0  0
    7.9272  -18.6654   17.6538 N   0  0  0  0  0  0  0  0  0  0  0  0
    8.0498  -17.0687   19.4782 C   0  0  0  0  0  0  0  0  0  0  0  0
    9.3043  -16.9974   19.4368 O   0  0  0  0  0  0  0  0  0  0  0  0
    7.4171  -13.2206   19.0528 C   0  0  0  0  0  0  0  0  0  0  0  0
    7.4833  -13.5760   20.4946 C   0  0  2  0  0  0  0  0  0  0  0  0
    8.3370  -12.5301   21.2036 C   0  0  0  0  0  0  0  0  0  0  0  0
    8.1164  -14.9137   20.7816 C   0  0  2  0  0  0  0  0  0  0  0  0
    7.3834  -15.9797   20.1312 N   0  0  0  0  0  0  0  0  0  0  0  0
    8.3296  -15.1582   22.2198 C   0  0  0  0  0  0  0  0  0  0  0  0
    7.3957  -15.6034   22.9270 O   0  0  0  0  0  0  0  0  0  0  0  0
    9.5707  -14.9056   22.8466 N   0  0  0  0  0  0  0  0  0  0  0  0
    9.7104  -15.1981   24.2648 C   0  0  1  0  0  0  0  0  0  0  0  0
    8.5599  -16.1187   24.7101 C   0  0  0  0  0  0  0  0  0  0  0  0
    7.4821  -15.2755   25.2434 C   0  0  0  0  0  0  0  0  0  0  0  0
    6.1228  -15.5096   25.2022 C   0  0  0  0  0  0  0  0  0  0  0  0
    5.4938  -14.4872   25.8018 N   0  0  0  0  0  0  0  0  0  0  0  0
    6.4199  -13.5941   26.2313 C   0  0  0  0  0  0  0  0  0  0  0  0
    6.2962  -12.3855   26.8988 C   0  0  0  0  0  0  0  0  0  0  0  0
    7.3827  -11.6230   27.2447 C   0  0  0  0  0  0  0  0  0  0  0  0
    8.6231  -12.1037   26.9022 C   0  0  0  0  0  0  0  0  0  0  0  0
    8.7583  -13.3042   26.2384 C   0  0  0  0  0  0  0  0  0  0  0  0
    7.6594  -14.0802   25.8860 C   0  0  0  0  0  0  0  0  0  0  0  0
   11.0101  -15.8115   24.5698 C   0  0  0  0  0  0  0  0  0  0  0  0
   11.7309  -16.2366   23.6468 O   0  0  0  0  0  0  0  0  0  0  0  0
   11.4520  -15.9271   25.8700 O   0  0  0  0  0  0  0  0  0  0  0  0
  2  1  1  6
  2  3  1  0
  4  5  1  6
  4  2  1  0
  6  4  1  0
  7  6  2  0
  9  8  1  6
  9 11  1  0
 10  9  1  0
 11 12  1  1
 12  6  1  0
 13 11  1  0
 13 14  2  0
 15 16  1  0
 15 13  1  0
 16 17  1  6
 18 17  1  0
 19 18  2  0
 20 19  1  0
 21 20  1  0
 21 26  2  0
 22 21  1  0
 23 22  2  0
 23 24  1  0
 24 25  2  0
 25 26  1  0
 26 18  1  0
 27 16  1  0
 28 27  2  0
 29 27  1  0
M  END
$$$$
