VVW.pdb
     RDKit          3D

 29 30  0  0  1  0  0  0  0  0999 V2000
    7.4677  -17.9377   18.0189 C   0  0  0  0  0  0  0  0  0  0  0  0
    8.6226  -18.8533   18.3489 C   0  0  2  0  0  0  0  0  0  0  0  0
    8.2053  -20.2662   17.9574 C   0  0  0  0  0  0  0  0  0  0  0  0
    8.9922  -18.7697   19.8181 C   0  0  2  0  0  0  0  0  0  0  0  0
    7.9251  -19.3718   20.5618 N   0  0  0  0  0  0  0  0  0  0  0  0
    9.2706  -17.3787   20.2310 C   0  0  0  0  0  0  0  0  0  0  0  0
   10.2392  -16.7437   19.7419 O   0  0  0  0  0  0  0  0  0  0  0  0
    6.8781  -14.4361   20.1864 C   0  0  0  0  0  0  0  0  0  0  0  0
    7.5561  -14.4391   21.5092 C   0  0  2  0  0  0  0  0  0  0  0  0
    8.0099  -13.0155   21.8143 C   0  0  0  0  0  0  0  0  0  0  0  0
    8.7867  -15.3068   21.5804 C   0  0  2  0  0  0  0  0  0  0  0  0
    8.4795  -16.6678   21.1929 N   0  0  0  0  0  0  0  0  0  0  0  0
    9.4819  -15.2225   22.8779 C   0  0  0  0  0  0  0  0  0  0  0  0
   10.2124  -14.2377   23.1370 O   0  0  0  0  0  0  0  0  0  0  0  0
    9.3550  -16.2284   23.8623 N   0  0  0  0  0  0  0  0  0  0  0  0
   10.0875  -16.0819   25.1106 C   0  0  1  0  0  0  0  0  0  0  0  0
    9.1535  -16.4086   26.2898 C   0  0  0  0  0  0  0  0  0  0  0  0
    7.9336  -15.6044   26.1411 C   0  0  0  0  0  0  0  0  0  0  0  0
    6.6953  -16.0168   25.6932 C   0  0  0  0  0  0  0  0  0  0  0  0
    5.8619  -14.9653   25.7098 N   0  0  0  0  0  0  0  0  0  0  0  0
    6.5367  -13.8783   26.1600 C   0  0  0  0  0  0  0  0  0  0  0  0
    6.1414  -12.5649   26.3613 C   0  0  0  0  0  0  0  0  0  0  0  0
    6.9995  -11.6036   26.8314 C   0  0  0  0  0  0  0  0  0  0  0  0
    8.2895  -11.9902   27.1025 C   0  0  0  0  0  0  0  0  0  0  0  0
    8.6938  -13.2933   26.9064 C   0  0  0  0  0  0  0  0  0  0  0  0
    7.8270  -14.2709   26.4299 C   0  0  0  0  0  0  0  0  0  0  0  0
   11.2818  -16.9367   25.1458 C   0  0  0  0  0  0  0  0  0  0  0  0
   11.5221  -17.7116   24.2002 O   0  0  0  0  0  0  0  0  0  0  0  0
   12.1505  -16.8978   26.2150 O   0  0  0  0  0  0  0  0  0  0  0  0
  2  1  1  1
  2  3  1  0
  4  5  1  1
  4  2  1  0
  6  4  1  0
  7  6  2  0
  9  8  1  6
  9 11  1  0
 10  9  1  0
 11 12  1  1
 12  6  1  0
 13 11  1  0
 13 14  2  0
 15 16  1  0
 15 13  1  0
 16 17  1  1
 18 17  1  0
 19 18  2  0
 20 19  1  0
 21 20  1  0
 21 26  2  0
 22 21  1  0
 23 22  2  0
 23 24  1  0
 24 25  2  0
 25 26  1  0
 26 18  1  0
 27 16  1  0
 28 27  2  0
 29 27  1  0
M  END
$$$$
