VVW.pdb
     RDKit          3D

 29 30  0  0  1  0  0  0  0  0999 V2000
    8.6818  -21.5648   20.8508 C   0  0  0  0  0  0  0  0  0  0  0  0
    9.1045  -20.1626   21.2199 C   0  0  2  0  0  0  0  0  0  0  0  0
    8.8546  -19.9938   22.7141 C   0  0  0  0  0  0  0  0  0  0  0  0
    8.3491  -19.1260   20.4092 C   0  0  2  0  0  0  0  0  0  0  0  0
    8.5444  -19.4414   19.0247 N   0  0  0  0  0  0  0  0  0  0  0  0
    8.7710  -17.7525   20.7536 C   0  0  0  0  0  0  0  0  0  0  0  0
    9.9215  -17.3398   20.4593 O   0  0  0  0  0  0  0  0  0  0  0  0
    6.4396  -14.5273   20.3205 C   0  0  0  0  0  0  0  0  0  0  0  0
    7.1710  -14.5071   21.6145 C   0  0  2  0  0  0  0  0  0  0  0  0
    7.7295  -13.1035   21.8233 C   0  0  0  0  0  0  0  0  0  0  0  0
    8.3440  -15.4511   21.6858 C   0  0  2  0  0  0  0  0  0  0  0  0
    7.9243  -16.8132   21.4298 N   0  0  0  0  0  0  0  0  0  0  0  0
    9.1235  -15.3151   22.9298 C   0  0  0  0  0  0  0  0  0  0  0  0
    9.8882  -14.3350   23.0887 O   0  0  0  0  0  0  0  0  0  0  0  0
    9.0416  -16.2652   23.9727 N   0  0  0  0  0  0  0  0  0  0  0  0
    9.8800  -16.0877   25.1482 C   0  0  1  0  0  0  0  0  0  0  0  0
    9.0160  -16.2249   26.4148 C   0  0  0  0  0  0  0  0  0  0  0  0
    7.8578  -15.3327   26.2750 C   0  0  0  0  0  0  0  0  0  0  0  0
    6.5682  -15.6670   25.9152 C   0  0  0  0  0  0  0  0  0  0  0  0
    5.8234  -14.5510   25.9056 N   0  0  0  0  0  0  0  0  0  0  0  0
    6.6058  -13.4987   26.2524 C   0  0  0  0  0  0  0  0  0  0  0  0
    6.3279  -12.1475   26.3888 C   0  0  0  0  0  0  0  0  0  0  0  0
    7.2839  -11.2344   26.7544 C   0  0  0  0  0  0  0  0  0  0  0  0
    8.5517  -11.7096   26.9862 C   0  0  0  0  0  0  0  0  0  0  0  0
    8.8397  -13.0512   26.8538 C   0  0  0  0  0  0  0  0  0  0  0  0
    7.8734  -13.9801   26.4833 C   0  0  0  0  0  0  0  0  0  0  0  0
   10.9918  -17.0477   25.1753 C   0  0  0  0  0  0  0  0  0  0  0  0
   11.0808  -17.9237   24.2938 O   0  0  0  0  0  0  0  0  0  0  0  0
   11.9480  -16.9976   26.1664 O   0  0  0  0  0  0  0  0  0  0  0  0
  2  1  1  6
  2  3  1  0
  4  5  1  6
  4  2  1  0
  6  4  1  0
  7  6  2  0
  9  8  1  6
  9 11  1  0
 10  9  1  0
 11 12  1  1
 12  6  1  0
 13 11  1  0
 13 14  2  0
 15 16  1  0
 15 13  1  0
 16 17  1  1
 18 17  1  0
 19 18  2  0
 20 19  1  0
 21 20  1  0
 21 26  2  0
 22 21  1  0
 23 22  2  0
 23 24  1  0
 24 25  2  0
 25 26  1  0
 26 18  1  0
 27 16  1  0
 28 27  2  0
 29 27  1  0
M  END
$$$$
