VVW.pdb
     RDKit          3D

 29 30  0  0  1  0  0  0  0  0999 V2000
    6.5455  -13.3249   19.3855 C   0  0  0  0  0  0  0  0  0  0  0  0
    7.9362  -12.7386   19.4425 C   0  0  2  0  0  0  0  0  0  0  0  0
    8.1604  -11.9795   18.1398 C   0  0  0  0  0  0  0  0  0  0  0  0
    8.9834  -13.8178   19.6444 C   0  0  2  0  0  0  0  0  0  0  0  0
    9.0702  -14.5625   18.4228 N   0  0  0  0  0  0  0  0  0  0  0  0
    8.6743  -14.6639   20.8156 C   0  0  0  0  0  0  0  0  0  0  0  0
    8.5633  -14.1600   21.9621 O   0  0  0  0  0  0  0  0  0  0  0  0
    6.5475  -18.3089   20.6184 C   0  0  0  0  0  0  0  0  0  0  0  0
    7.7389  -18.2674   21.5063 C   0  0  2  0  0  0  0  0  0  0  0  0
    7.3956  -19.0022   22.7976 C   0  0  0  0  0  0  0  0  0  0  0  0
    8.1755  -16.8805   21.9043 C   0  0  2  0  0  0  0  0  0  0  0  0
    8.4826  -16.0827   20.7355 N   0  0  0  0  0  0  0  0  0  0  0  0
    9.2607  -16.8778   22.9023 C   0  0  0  0  0  0  0  0  0  0  0  0
   10.4390  -17.1194   22.5505 O   0  0  0  0  0  0  0  0  0  0  0  0
    9.0211  -16.6079   24.2686 N   0  0  0  0  0  0  0  0  0  0  0  0
   10.1508  -16.5802   25.1848 C   0  0  1  0  0  0  0  0  0  0  0  0
   10.1051  -15.2812   26.0095 C   0  0  0  0  0  0  0  0  0  0  0  0
    8.7007  -14.9938   26.3292 C   0  0  0  0  0  0  0  0  0  0  0  0
    7.8012  -15.7987   26.9978 C   0  0  0  0  0  0  0  0  0  0  0  0
    6.6256  -15.1562   27.0735 N   0  0  0  0  0  0  0  0  0  0  0  0
    6.7458  -13.9493   26.4664 C   0  0  0  0  0  0  0  0  0  0  0  0
    5.8382  -12.9197   26.2721 C   0  0  0  0  0  0  0  0  0  0  0  0
    6.1710  -11.7612   25.6175 C   0  0  0  0  0  0  0  0  0  0  0  0
    7.4581  -11.6500   25.1506 C   0  0  0  0  0  0  0  0  0  0  0  0
    8.3693  -12.6672   25.3382 C   0  0  0  0  0  0  0  0  0  0  0  0
    8.0359  -13.8433   26.0013 C   0  0  0  0  0  0  0  0  0  0  0  0
   10.1647  -17.7531   26.0693 C   0  0  0  0  0  0  0  0  0  0  0  0
   11.1794  -18.0134   26.7438 O   0  0  0  0  0  0  0  0  0  0  0  0
    9.0663  -18.5794   26.1687 O   0  0  0  0  0  0  0  0  0  0  0  0
  2  1  1  6
  2  3  1  0
  4  5  1  6
  4  2  1  0
  6  4  1  0
  7  6  2  0
  9  8  1  6
  9 11  1  0
 10  9  1  0
 11 12  1  6
 12  6  1  0
 13 11  1  0
 13 14  2  0
 15 16  1  0
 15 13  1  0
 16 17  1  1
 18 17  1  0
 19 18  2  0
 20 19  1  0
 21 20  1  0
 21 26  2  0
 22 21  1  0
 23 22  2  0
 23 24  1  0
 24 25  2  0
 25 26  1  0
 26 18  1  0
 27 16  1  0
 28 27  2  0
 29 27  1  0
M  END
$$$$
