VVW.pdb
     RDKit          3D

 29 30  0  0  1  0  0  0  0  0999 V2000
    9.4585  -19.7913   20.9230 C   0  0  0  0  0  0  0  0  0  0  0  0
    8.1537  -19.5389   20.2054 C   0  0  2  0  0  0  0  0  0  0  0  0
    7.7387  -20.8500   19.5478 C   0  0  0  0  0  0  0  0  0  0  0  0
    8.2904  -18.4241   19.1852 C   0  0  2  0  0  0  0  0  0  0  0  0
    9.1941  -18.8816   18.1712 N   0  0  0  0  0  0  0  0  0  0  0  0
    8.7221  -17.1594   19.8155 C   0  0  0  0  0  0  0  0  0  0  0  0
    9.9377  -16.8404   19.8513 O   0  0  0  0  0  0  0  0  0  0  0  0
    7.3247  -13.4721   19.4302 C   0  0  0  0  0  0  0  0  0  0  0  0
    7.3943  -13.8716   20.8603 C   0  0  2  0  0  0  0  0  0  0  0  0
    7.9740  -12.7046   21.6525 C   0  0  0  0  0  0  0  0  0  0  0  0
    8.2797  -15.0600   21.1363 C   0  0  2  0  0  0  0  0  0  0  0  0
    7.8135  -16.2268   20.4164 N   0  0  0  0  0  0  0  0  0  0  0  0
    8.4775  -15.3145   22.5750 C   0  0  0  0  0  0  0  0  0  0  0  0
    7.5873  -15.8951   23.2390 O   0  0  0  0  0  0  0  0  0  0  0  0
    9.6554  -14.9221   23.2499 N   0  0  0  0  0  0  0  0  0  0  0  0
    9.7926  -15.2437   24.6621 C   0  0  1  0  0  0  0  0  0  0  0  0
    8.5844  -16.0848   25.1119 C   0  0  0  0  0  0  0  0  0  0  0  0
    7.5306  -15.1651   25.5598 C   0  0  0  0  0  0  0  0  0  0  0  0
    6.1656  -15.3672   25.5442 C   0  0  0  0  0  0  0  0  0  0  0  0
    5.5653  -14.2742   26.0395 N   0  0  0  0  0  0  0  0  0  0  0  0
    6.5154  -13.3667   26.3762 C   0  0  0  0  0  0  0  0  0  0  0  0
    6.4251  -12.0947   26.9198 C   0  0  0  0  0  0  0  0  0  0  0  0
    7.5321  -11.3297   27.1861 C   0  0  0  0  0  0  0  0  0  0  0  0
    8.7585  -11.8738   26.8916 C   0  0  0  0  0  0  0  0  0  0  0  0
    8.8605  -13.1377   26.3509 C   0  0  0  0  0  0  0  0  0  0  0  0
    7.7408  -13.9166   26.0794 C   0  0  0  0  0  0  0  0  0  0  0  0
   11.0483  -15.9538   24.9403 C   0  0  0  0  0  0  0  0  0  0  0  0
   11.3540  -16.2438   26.1128 O   0  0  0  0  0  0  0  0  0  0  0  0
   11.9033  -16.3090   23.9195 O   0  0  0  0  0  0  0  0  0  0  0  0
  2  1  1  6
  2  3  1  0
  4  5  1  6
  4  2  1  0
  6  4  1  0
  7  6  2  0
  9  8  1  6
  9 11  1  0
 10  9  1  0
 11 12  1  1
 12  6  1  0
 13 11  1  0
 13 14  2  0
 15 16  1  0
 15 13  1  0
 16 17  1  6
 18 17  1  0
 19 18  2  0
 20 19  1  0
 21 20  1  0
 21 26  2  0
 22 21  1  0
 23 22  2  0
 23 24  1  0
 24 25  2  0
 25 26  1  0
 26 18  1  0
 27 16  1  0
 28 27  2  0
 29 27  1  0
M  END
$$$$
