VVW.pdb
     RDKit          3D

 29 30  0  0  1  0  0  0  0  0999 V2000
   11.9076  -19.0946   20.2670 C   0  0  0  0  0  0  0  0  0  0  0  0
   10.8031  -18.9949   19.2416 C   0  0  2  0  0  0  0  0  0  0  0  0
   11.1435  -19.9638   18.1151 C   0  0  0  0  0  0  0  0  0  0  0  0
   10.6525  -17.5753   18.7275 C   0  0  2  0  0  0  0  0  0  0  0  0
   11.8583  -17.2448   18.0267 N   0  0  0  0  0  0  0  0  0  0  0  0
   10.3425  -16.6306   19.8204 C   0  0  0  0  0  0  0  0  0  0  0  0
   11.2634  -16.0711   20.4681 O   0  0  0  0  0  0  0  0  0  0  0  0
    7.2001  -13.9654   20.0769 C   0  0  0  0  0  0  0  0  0  0  0  0
    7.3812  -14.8240   21.2768 C   0  0  2  0  0  0  0  0  0  0  0  0
    7.2240  -13.9491   22.5158 C   0  0  0  0  0  0  0  0  0  0  0  0
    8.7359  -15.4770   21.3811 C   0  0  2  0  0  0  0  0  0  0  0  0
    9.0062  -16.2899   20.2136 N   0  0  0  0  0  0  0  0  0  0  0  0
    8.9321  -16.2073   22.6467 C   0  0  0  0  0  0  0  0  0  0  0  0
    8.8334  -17.4564   22.6737 O   0  0  0  0  0  0  0  0  0  0  0  0
    9.2335  -15.5419   23.8564 N   0  0  0  0  0  0  0  0  0  0  0  0
    9.5613  -16.3374   25.0295 C   0  0  1  0  0  0  0  0  0  0  0  0
    9.4010  -15.4717   26.2922 C   0  0  0  0  0  0  0  0  0  0  0  0
    8.0544  -14.8858   26.2749 C   0  0  0  0  0  0  0  0  0  0  0  0
    6.8523  -15.5289   26.0615 C   0  0  0  0  0  0  0  0  0  0  0  0
    5.8646  -14.6230   26.1266 N   0  0  0  0  0  0  0  0  0  0  0  0
    6.4036  -13.4041   26.3781 C   0  0  0  0  0  0  0  0  0  0  0  0
    5.8253  -12.1541   26.5354 C   0  0  0  0  0  0  0  0  0  0  0  0
    6.5671  -11.0282   26.7875 C   0  0  0  0  0  0  0  0  0  0  0  0
    7.9291  -11.1803   26.8815 C   0  0  0  0  0  0  0  0  0  0  0  0
    8.5152  -12.4184   26.7270 C   0  0  0  0  0  0  0  0  0  0  0  0
    7.7667  -13.5622   26.4713 C   0  0  0  0  0  0  0  0  0  0  0  0
    8.7274  -17.5435   25.1211 C   0  0  0  0  0  0  0  0  0  0  0  0
    9.0461  -18.4644   25.8974 O   0  0  0  0  0  0  0  0  0  0  0  0
    7.5880  -17.6775   24.3576 O   0  0  0  0  0  0  0  0  0  0  0  0
  2  1  1  1
  2  3  1  0
  4  5  1  1
  4  2  1  0
  6  4  1  0
  7  6  2  0
  9  8  1  6
  9 11  1  0
 10  9  1  0
 11 12  1  6
 12  6  1  0
 13 11  1  0
 13 14  2  0
 15 16  1  0
 15 13  1  0
 16 17  1  1
 18 17  1  0
 19 18  2  0
 20 19  1  0
 21 20  1  0
 21 26  2  0
 22 21  1  0
 23 22  2  0
 23 24  1  0
 24 25  2  0
 25 26  1  0
 26 18  1  0
 27 16  1  0
 28 27  2  0
 29 27  1  0
M  END
$$$$
