VVW.pdb
     RDKit          3D

 29 30  0  0  1  0  0  0  0  0999 V2000
   12.3003  -18.7503   19.8900 C   0  0  0  0  0  0  0  0  0  0  0  0
   10.9982  -18.9597   19.1538 C   0  0  2  0  0  0  0  0  0  0  0  0
   11.2584  -19.9874   18.0586 C   0  0  0  0  0  0  0  0  0  0  0  0
   10.4716  -17.6573   18.5804 C   0  0  2  0  0  0  0  0  0  0  0  0
   11.4335  -17.1914   17.6255 N   0  0  0  0  0  0  0  0  0  0  0  0
   10.1876  -16.6703   19.6426 C   0  0  0  0  0  0  0  0  0  0  0  0
   11.1203  -16.0351   20.1969 O   0  0  0  0  0  0  0  0  0  0  0  0
    7.0481  -13.9994   20.0996 C   0  0  0  0  0  0  0  0  0  0  0  0
    7.2639  -14.9292   21.2392 C   0  0  2  0  0  0  0  0  0  0  0  0
    7.1059  -14.1393   22.5340 C   0  0  0  0  0  0  0  0  0  0  0  0
    8.6333  -15.5579   21.2840 C   0  0  2  0  0  0  0  0  0  0  0  0
    8.8648  -16.3705   20.1080 N   0  0  0  0  0  0  0  0  0  0  0  0
    8.8995  -16.2797   22.5417 C   0  0  0  0  0  0  0  0  0  0  0  0
    8.9349  -17.5324   22.5523 O   0  0  0  0  0  0  0  0  0  0  0  0
    9.1213  -15.6019   23.7617 N   0  0  0  0  0  0  0  0  0  0  0  0
    9.4933  -16.3773   24.9351 C   0  0  1  0  0  0  0  0  0  0  0  0
    9.4042  -15.4831   26.1849 C   0  0  0  0  0  0  0  0  0  0  0  0
    8.0577  -14.8983   26.2316 C   0  0  0  0  0  0  0  0  0  0  0  0
    6.8487  -15.5373   26.0470 C   0  0  0  0  0  0  0  0  0  0  0  0
    5.8639  -14.6344   26.1706 N   0  0  0  0  0  0  0  0  0  0  0  0
    6.4116  -13.4214   26.4318 C   0  0  0  0  0  0  0  0  0  0  0  0
    5.8393  -12.1762   26.6407 C   0  0  0  0  0  0  0  0  0  0  0  0
    6.5897  -11.0560   26.8927 C   0  0  0  0  0  0  0  0  0  0  0  0
    7.9543  -11.2089   26.9326 C   0  0  0  0  0  0  0  0  0  0  0  0
    8.5345  -12.4422   26.7265 C   0  0  0  0  0  0  0  0  0  0  0  0
    7.7773  -13.5803   26.4707 C   0  0  0  0  0  0  0  0  0  0  0  0
    8.6487  -17.5691   25.0917 C   0  0  0  0  0  0  0  0  0  0  0  0
    8.9921  -18.4787   25.8707 O   0  0  0  0  0  0  0  0  0  0  0  0
    7.4721  -17.7020   24.3867 O   0  0  0  0  0  0  0  0  0  0  0  0
  2  1  1  6
  2  3  1  0
  4  5  1  6
  4  2  1  0
  6  4  1  0
  7  6  2  0
  9  8  1  6
  9 11  1  0
 10  9  1  0
 11 12  1  6
 12  6  1  0
 13 11  1  0
 13 14  2  0
 15 16  1  0
 15 13  1  0
 16 17  1  1
 18 17  1  0
 19 18  2  0
 20 19  1  0
 21 20  1  0
 21 26  2  0
 22 21  1  0
 23 22  2  0
 23 24  1  0
 24 25  2  0
 25 26  1  0
 26 18  1  0
 27 16  1  0
 28 27  2  0
 29 27  1  0
M  END
$$$$
