VVW.pdb
     RDKit          3D

 29 30  0  0  1  0  0  0  0  0999 V2000
   12.3168  -19.1795   20.5708 C   0  0  0  0  0  0  0  0  0  0  0  0
   11.2772  -19.1295   19.4763 C   0  0  2  0  0  0  0  0  0  0  0  0
   11.7510  -20.0536   18.3605 C   0  0  0  0  0  0  0  0  0  0  0  0
   11.0703  -17.7126   18.9745 C   0  0  2  0  0  0  0  0  0  0  0  0
   12.2997  -17.2895   18.3711 N   0  0  0  0  0  0  0  0  0  0  0  0
   10.6181  -16.8129   20.0556 C   0  0  0  0  0  0  0  0  0  0  0  0
   11.4476  -16.1629   20.7412 O   0  0  0  0  0  0  0  0  0  0  0  0
    7.2285  -14.4882   20.0256 C   0  0  0  0  0  0  0  0  0  0  0  0
    7.4288  -15.2556   21.2828 C   0  0  2  0  0  0  0  0  0  0  0  0
    7.1218  -14.3327   22.4574 C   0  0  0  0  0  0  0  0  0  0  0  0
    8.8333  -15.7622   21.4904 C   0  0  2  0  0  0  0  0  0  0  0  0
    9.2385  -16.6181   20.3949 N   0  0  0  0  0  0  0  0  0  0  0  0
    9.0361  -16.3856   22.8110 C   0  0  0  0  0  0  0  0  0  0  0  0
    9.0680  -17.6338   22.9188 O   0  0  0  0  0  0  0  0  0  0  0  0
    9.1996  -15.6165   23.9852 N   0  0  0  0  0  0  0  0  0  0  0  0
    9.5851  -16.2909   25.2151 C   0  0  1  0  0  0  0  0  0  0  0  0
    9.4571  -15.3102   26.3947 C   0  0  0  0  0  0  0  0  0  0  0  0
    8.0922  -14.7678   26.3900 C   0  0  0  0  0  0  0  0  0  0  0  0
    6.9058  -15.4581   26.2486 C   0  0  0  0  0  0  0  0  0  0  0  0
    5.8915  -14.5810   26.2982 N   0  0  0  0  0  0  0  0  0  0  0  0
    6.3980  -13.3344   26.4690 C   0  0  0  0  0  0  0  0  0  0  0  0
    5.7844  -12.0963   26.5798 C   0  0  0  0  0  0  0  0  0  0  0  0
    6.4966  -10.9363   26.7496 C   0  0  0  0  0  0  0  0  0  0  0  0
    7.8650  -11.0412   26.8078 C   0  0  0  0  0  0  0  0  0  0  0  0
    8.4861  -12.2670   26.6990 C   0  0  0  0  0  0  0  0  0  0  0  0
    7.7678  -13.4453   26.5268 C   0  0  0  0  0  0  0  0  0  0  0  0
    8.7767  -17.4941   25.4540 C   0  0  0  0  0  0  0  0  0  0  0  0
    9.1233  -18.3157   26.3241 O   0  0  0  0  0  0  0  0  0  0  0  0
    7.6307  -17.7342   24.7272 O   0  0  0  0  0  0  0  0  0  0  0  0
  2  1  1  1
  2  3  1  0
  4  5  1  1
  4  2  1  0
  6  4  1  0
  7  6  2  0
  9  8  1  6
  9 11  1  0
 10  9  1  0
 11 12  1  6
 12  6  1  0
 13 11  1  0
 13 14  2  0
 15 16  1  0
 15 13  1  0
 16 17  1  1
 18 17  1  0
 19 18  2  0
 20 19  1  0
 21 20  1  0
 21 26  2  0
 22 21  1  0
 23 22  2  0
 23 24  1  0
 24 25  2  0
 25 26  1  0
 26 18  1  0
 27 16  1  0
 28 27  2  0
 29 27  1  0
M  END
$$$$
