VVW.pdb
     RDKit          3D

 29 30  0  0  1  0  0  0  0  0999 V2000
    7.0206  -12.3620   19.6451 C   0  0  0  0  0  0  0  0  0  0  0  0
    7.3707  -13.4296   20.6546 C   0  0  2  0  0  0  0  0  0  0  0  0
    8.4447  -12.8520   21.5690 C   0  0  0  0  0  0  0  0  0  0  0  0
    7.8444  -14.7002   19.9739 C   0  0  2  0  0  0  0  0  0  0  0  0
    6.8009  -15.1242   19.0875 N   0  0  0  0  0  0  0  0  0  0  0  0
    8.2229  -15.7359   20.9573 C   0  0  0  0  0  0  0  0  0  0  0  0
    7.3449  -16.3537   21.6115 O   0  0  0  0  0  0  0  0  0  0  0  0
   10.8172  -18.6728   20.4300 C   0  0  0  0  0  0  0  0  0  0  0  0
   11.0666  -17.9697   21.7157 C   0  0  2  0  0  0  0  0  0  0  0  0
   11.3197  -19.0208   22.7912 C   0  0  0  0  0  0  0  0  0  0  0  0
    9.9157  -17.1262   22.2019 C   0  0  2  0  0  0  0  0  0  0  0  0
    9.5813  -16.1044   21.2319 N   0  0  0  0  0  0  0  0  0  0  0  0
   10.1252  -16.5844   23.5570 C   0  0  0  0  0  0  0  0  0  0  0  0
   10.9427  -15.6527   23.7422 O   0  0  0  0  0  0  0  0  0  0  0  0
    9.4266  -17.0835   24.6795 N   0  0  0  0  0  0  0  0  0  0  0  0
    9.7613  -16.5676   25.9978 C   0  0  1  0  0  0  0  0  0  0  0  0
    8.4893  -16.5203   26.8636 C   0  0  0  0  0  0  0  0  0  0  0  0
    7.5182  -15.6418   26.1986 C   0  0  0  0  0  0  0  0  0  0  0  0
    6.4475  -16.0060   25.4080 C   0  0  0  0  0  0  0  0  0  0  0  0
    5.8198  -14.8931   24.9982 N   0  0  0  0  0  0  0  0  0  0  0  0
    6.4635  -13.8137   25.5082 C   0  0  0  0  0  0  0  0  0  0  0  0
    6.2231  -12.4538   25.3873 C   0  0  0  0  0  0  0  0  0  0  0  0
    7.0129  -11.5116   25.9956 C   0  0  0  0  0  0  0  0  0  0  0  0
    8.0713  -11.9661   26.7440 C   0  0  0  0  0  0  0  0  0  0  0  0
    8.3199  -13.3160   26.8714 C   0  0  0  0  0  0  0  0  0  0  0  0
    7.5217  -14.2744   26.2563 C   0  0  0  0  0  0  0  0  0  0  0  0
   10.8009  -17.3741   26.6514 C   0  0  0  0  0  0  0  0  0  0  0  0
   11.0765  -18.5082   26.2153 O   0  0  0  0  0  0  0  0  0  0  0  0
   11.4843  -16.8960   27.7485 O   0  0  0  0  0  0  0  0  0  0  0  0
  2  1  1  6
  2  3  1  0
  4  5  1  6
  4  2  1  0
  6  4  1  0
  7  6  2  0
  9  8  1  6
  9 11  1  0
 10  9  1  0
 11 12  1  6
 12  6  1  0
 13 11  1  0
 13 14  2  0
 15 16  1  0
 15 13  1  0
 16 17  1  1
 18 17  1  0
 19 18  2  0
 20 19  1  0
 21 20  1  0
 21 26  2  0
 22 21  1  0
 23 22  2  0
 23 24  1  0
 24 25  2  0
 25 26  1  0
 26 18  1  0
 27 16  1  0
 28 27  2  0
 29 27  1  0
M  END
$$$$
