VVW.pdb
     RDKit          3D

 29 30  0  0  1  0  0  0  0  0999 V2000
    5.4075  -20.6027   21.1480 C   0  0  0  0  0  0  0  0  0  0  0  0
    6.4238  -19.4930   21.2784 C   0  0  2  0  0  0  0  0  0  0  0  0
    6.1582  -18.7905   22.6048 C   0  0  0  0  0  0  0  0  0  0  0  0
    6.3408  -18.5272   20.1112 C   0  0  2  0  0  0  0  0  0  0  0  0
    6.5283  -19.2895   18.9119 N   0  0  0  0  0  0  0  0  0  0  0  0
    7.3106  -17.4212   20.2498 C   0  0  0  0  0  0  0  0  0  0  0  0
    8.5472  -17.6475   20.2640 O   0  0  0  0  0  0  0  0  0  0  0  0
    7.3265  -13.6817   18.5906 C   0  0  0  0  0  0  0  0  0  0  0  0
    7.4470  -13.6881   20.0723 C   0  0  2  0  0  0  0  0  0  0  0  0
    8.4999  -12.6585   20.4682 C   0  0  0  0  0  0  0  0  0  0  0  0
    7.8909  -15.0038   20.6589 C   0  0  2  0  0  0  0  0  0  0  0  0
    6.9259  -16.0454   20.3747 N   0  0  0  0  0  0  0  0  0  0  0  0
    8.2343  -14.9147   22.0900 C   0  0  0  0  0  0  0  0  0  0  0  0
    7.4726  -14.3135   22.8831 O   0  0  0  0  0  0  0  0  0  0  0  0
    9.4125  -15.4920   22.6149 N   0  0  0  0  0  0  0  0  0  0  0  0
    9.7703  -15.2168   23.9978 C   0  0  1  0  0  0  0  0  0  0  0  0
    8.6448  -15.7140   24.9230 C   0  0  0  0  0  0  0  0  0  0  0  0
    8.6404  -14.8733   26.1273 C   0  0  0  0  0  0  0  0  0  0  0  0
    9.4039  -15.0206   27.2672 C   0  0  0  0  0  0  0  0  0  0  0  0
    9.0857  -14.0395   28.1255 N   0  0  0  0  0  0  0  0  0  0  0  0
    8.1298  -13.2584   27.5635 C   0  0  0  0  0  0  0  0  0  0  0  0
    7.4683  -12.1319   28.0273 C   0  0  0  0  0  0  0  0  0  0  0  0
    6.5156  -11.4820   27.2847 C   0  0  0  0  0  0  0  0  0  0  0  0
    6.2311  -11.9920   26.0413 C   0  0  0  0  0  0  0  0  0  0  0  0
    6.8826  -13.1115   25.5697 C   0  0  0  0  0  0  0  0  0  0  0  0
    7.8491  -13.7733   26.3193 C   0  0  0  0  0  0  0  0  0  0  0  0
   11.0510  -15.8367   24.3637 C   0  0  0  0  0  0  0  0  0  0  0  0
   11.3600  -16.9505   23.8987 O   0  0  0  0  0  0  0  0  0  0  0  0
   11.9262  -15.2040   25.2198 O   0  0  0  0  0  0  0  0  0  0  0  0
  2  1  1  6
  2  3  1  0
  4  5  1  6
  4  2  1  0
  6  4  1  0
  7  6  2  0
  9  8  1  6
  9 11  1  0
 10  9  1  0
 11 12  1  1
 12  6  1  0
 13 11  1  0
 13 14  2  0
 15 16  1  0
 15 13  1  0
 16 17  1  1
 18 17  1  0
 19 18  2  0
 20 19  1  0
 21 20  1  0
 21 26  2  0
 22 21  1  0
 23 22  2  0
 23 24  1  0
 24 25  2  0
 25 26  1  0
 26 18  1  0
 27 16  1  0
 28 27  2  0
 29 27  1  0
M  END
$$$$
