VVW.pdb
     RDKit          3D

 29 30  0  0  1  0  0  0  0  0999 V2000
    7.7071  -12.5965   20.7631 C   0  0  0  0  0  0  0  0  0  0  0  0
    8.6366  -13.1630   19.7161 C   0  0  2  0  0  0  0  0  0  0  0  0
    8.5573  -12.2487   18.4990 C   0  0  0  0  0  0  0  0  0  0  0  0
    8.2669  -14.5917   19.3633 C   0  0  2  0  0  0  0  0  0  0  0  0
    6.9614  -14.5614   18.7725 N   0  0  0  0  0  0  0  0  0  0  0  0
    8.3477  -15.4813   20.5401 C   0  0  0  0  0  0  0  0  0  0  0  0
    7.3531  -15.6470   21.2911 O   0  0  0  0  0  0  0  0  0  0  0  0
    9.4576  -19.1468   20.4766 C   0  0  0  0  0  0  0  0  0  0  0  0
   10.1700  -18.4512   21.5804 C   0  0  2  0  0  0  0  0  0  0  0  0
   10.1503  -19.3589   22.8056 C   0  0  0  0  0  0  0  0  0  0  0  0
    9.5468  -17.1454   22.0033 C   0  0  2  0  0  0  0  0  0  0  0  0
    9.5324  -16.2027   20.9042 N   0  0  0  0  0  0  0  0  0  0  0  0
   10.1447  -16.5875   23.2301 C   0  0  0  0  0  0  0  0  0  0  0  0
   11.2455  -15.9908   23.1778 O   0  0  0  0  0  0  0  0  0  0  0  0
    9.5133  -16.7004   24.4893 N   0  0  0  0  0  0  0  0  0  0  0  0
   10.3104  -16.5094   25.6911 C   0  0  1  0  0  0  0  0  0  0  0  0
    9.8965  -15.1924   26.3721 C   0  0  0  0  0  0  0  0  0  0  0  0
    8.4356  -15.0717   26.2804 C   0  0  0  0  0  0  0  0  0  0  0  0
    7.5151  -16.0722   26.0445 C   0  0  0  0  0  0  0  0  0  0  0  0
    6.2872  -15.5313   26.0371 N   0  0  0  0  0  0  0  0  0  0  0  0
    6.3940  -14.1984   26.2638 C   0  0  0  0  0  0  0  0  0  0  0  0
    5.4385  -13.1978   26.3516 C   0  0  0  0  0  0  0  0  0  0  0  0
    5.7671  -11.8876   26.5902 C   0  0  0  0  0  0  0  0  0  0  0  0
    7.0996  -11.5910   26.7428 C   0  0  0  0  0  0  0  0  0  0  0  0
    8.0585  -12.5776   26.6576 C   0  0  0  0  0  0  0  0  0  0  0  0
    7.7296  -13.9071   26.4159 C   0  0  0  0  0  0  0  0  0  0  0  0
   10.1726  -17.6375   26.6221 C   0  0  0  0  0  0  0  0  0  0  0  0
    9.2935  -18.4995   26.4314 O   0  0  0  0  0  0  0  0  0  0  0  0
   11.0050  -17.7622   27.7133 O   0  0  0  0  0  0  0  0  0  0  0  0
  2  1  1  1
  2  3  1  0
  4  5  1  1
  4  2  1  0
  6  4  1  0
  7  6  2  0
  9  8  1  6
  9 11  1  0
 10  9  1  0
 11 12  1  6
 12  6  1  0
 13 11  1  0
 13 14  2  0
 15 16  1  0
 15 13  1  0
 16 17  1  1
 18 17  1  0
 19 18  2  0
 20 19  1  0
 21 20  1  0
 21 26  2  0
 22 21  1  0
 23 22  2  0
 23 24  1  0
 24 25  2  0
 25 26  1  0
 26 18  1  0
 27 16  1  0
 28 27  2  0
 29 27  1  0
M  END
$$$$
