VVW.pdb
     RDKit          3D

 29 30  0  0  1  0  0  0  0  0999 V2000
   12.6361  -19.4468   18.3410 C   0  0  0  0  0  0  0  0  0  0  0  0
   12.1136  -18.5454   19.4345 C   0  0  2  0  0  0  0  0  0  0  0  0
   11.4961  -19.4413   20.5020 C   0  0  0  0  0  0  0  0  0  0  0  0
   11.1057  -17.5481   18.8944 C   0  0  2  0  0  0  0  0  0  0  0  0
   11.7504  -16.8153   17.8448 N   0  0  0  0  0  0  0  0  0  0  0  0
   10.5741  -16.6782   19.9638 C   0  0  0  0  0  0  0  0  0  0  0  0
   11.3477  -15.9944   20.6813 O   0  0  0  0  0  0  0  0  0  0  0  0
    7.0917  -14.4775   19.9100 C   0  0  0  0  0  0  0  0  0  0  0  0
    7.2780  -15.3051   21.1306 C   0  0  2  0  0  0  0  0  0  0  0  0
    6.8820  -14.4648   22.3399 C   0  0  0  0  0  0  0  0  0  0  0  0
    8.6955  -15.7595   21.3690 C   0  0  2  0  0  0  0  0  0  0  0  0
    9.1759  -16.5511   20.2557 N   0  0  0  0  0  0  0  0  0  0  0  0
    8.8794  -16.4281   22.6701 C   0  0  0  0  0  0  0  0  0  0  0  0
    8.9362  -17.6785   22.7321 O   0  0  0  0  0  0  0  0  0  0  0  0
    8.9971  -15.7006   23.8760 N   0  0  0  0  0  0  0  0  0  0  0  0
    9.2542  -16.4279   25.1094 C   0  0  1  0  0  0  0  0  0  0  0  0
    9.2685  -15.4394   26.2893 C   0  0  0  0  0  0  0  0  0  0  0  0
    7.9670  -14.7602   26.3303 C   0  0  0  0  0  0  0  0  0  0  0  0
    6.7142  -15.3177   26.1762 C   0  0  0  0  0  0  0  0  0  0  0  0
    5.7965  -14.3445   26.2812 N   0  0  0  0  0  0  0  0  0  0  0  0
    6.4307  -13.1658   26.5005 C   0  0  0  0  0  0  0  0  0  0  0  0
    5.9494  -11.8777   26.6768 C   0  0  0  0  0  0  0  0  0  0  0  0
    6.7793  -10.8062   26.8879 C   0  0  0  0  0  0  0  0  0  0  0  0
    8.1301  -11.0535   26.9201 C   0  0  0  0  0  0  0  0  0  0  0  0
    8.6201  -12.3301   26.7462 C   0  0  0  0  0  0  0  0  0  0  0  0
    7.7822  -13.4192   26.5319 C   0  0  0  0  0  0  0  0  0  0  0  0
    8.2614  -17.4870   25.3353 C   0  0  0  0  0  0  0  0  0  0  0  0
    7.1519  -17.4322   24.7711 O   0  0  0  0  0  0  0  0  0  0  0  0
    8.5361  -18.5508   26.1672 O   0  0  0  0  0  0  0  0  0  0  0  0
  2  1  1  6
  2  3  1  0
  4  5  1  6
  4  2  1  0
  6  4  1  0
  7  6  2  0
  9  8  1  6
  9 11  1  0
 10  9  1  0
 11 12  1  6
 12  6  1  0
 13 11  1  0
 13 14  2  0
 15 16  1  0
 15 13  1  0
 16 17  1  1
 18 17  1  0
 19 18  2  0
 20 19  1  0
 21 20  1  0
 21 26  2  0
 22 21  1  0
 23 22  2  0
 23 24  1  0
 24 25  2  0
 25 26  1  0
 26 18  1  0
 27 16  1  0
 28 27  2  0
 29 27  1  0
M  END
$$$$
