VVW.pdb
     RDKit          3D

 29 30  0  0  1  0  0  0  0  0999 V2000
    7.6727  -12.8474   20.8974 C   0  0  0  0  0  0  0  0  0  0  0  0
    8.6587  -13.2837   19.8397 C   0  0  2  0  0  0  0  0  0  0  0  0
    8.6091  -12.2490   18.7215 C   0  0  0  0  0  0  0  0  0  0  0  0
    8.3382  -14.6745   19.3250 C   0  0  2  0  0  0  0  0  0  0  0  0
    7.1041  -14.5881   18.6012 N   0  0  0  0  0  0  0  0  0  0  0  0
    8.2966  -15.6644   20.4211 C   0  0  0  0  0  0  0  0  0  0  0  0
    7.2225  -15.9087   21.0272 O   0  0  0  0  0  0  0  0  0  0  0  0
   11.3703  -18.6257   21.2283 C   0  0  0  0  0  0  0  0  0  0  0  0
    9.9544  -18.6347   21.6812 C   0  0  2  0  0  0  0  0  0  0  0  0
    9.0966  -19.1903   20.5494 C   0  0  0  0  0  0  0  0  0  0  0  0
    9.3953  -17.2755   22.0164 C   0  0  2  0  0  0  0  0  0  0  0  0
    9.4450  -16.4004   20.8637 N   0  0  0  0  0  0  0  0  0  0  0  0
   10.0056  -16.6772   23.2177 C   0  0  0  0  0  0  0  0  0  0  0  0
   11.0631  -16.0118   23.1208 O   0  0  0  0  0  0  0  0  0  0  0  0
    9.4342  -16.8266   24.5016 N   0  0  0  0  0  0  0  0  0  0  0  0
   10.2123  -16.4279   25.6643 C   0  0  1  0  0  0  0  0  0  0  0  0
    9.9053  -14.9578   26.0021 C   0  0  0  0  0  0  0  0  0  0  0  0
    8.4488  -14.7743   25.9561 C   0  0  0  0  0  0  0  0  0  0  0  0
    7.4771  -15.7406   25.7946 C   0  0  0  0  0  0  0  0  0  0  0  0
    6.2748  -15.1450   25.8070 N   0  0  0  0  0  0  0  0  0  0  0  0
    6.4485  -13.8102   25.9734 C   0  0  0  0  0  0  0  0  0  0  0  0
    5.5420  -12.7643   26.0520 C   0  0  0  0  0  0  0  0  0  0  0  0
    5.9366  -11.4619   26.2237 C   0  0  0  0  0  0  0  0  0  0  0  0
    7.2856  -11.2204   26.3174 C   0  0  0  0  0  0  0  0  0  0  0  0
    8.1962  -12.2525   26.2407 C   0  0  0  0  0  0  0  0  0  0  0  0
    7.8004  -13.5742   26.0667 C   0  0  0  0  0  0  0  0  0  0  0  0
    9.9435  -17.2908   26.8226 C   0  0  0  0  0  0  0  0  0  0  0  0
    9.0508  -18.1577   26.7604 O   0  0  0  0  0  0  0  0  0  0  0  0
   10.6666  -17.1587   27.9882 O   0  0  0  0  0  0  0  0  0  0  0  0
  2  1  1  1
  2  3  1  0
  4  5  1  1
  4  2  1  0
  6  4  1  0
  7  6  2  0
  9  8  1  6
  9 11  1  0
 10  9  1  0
 11 12  1  6
 12  6  1  0
 13 11  1  0
 13 14  2  0
 15 16  1  0
 15 13  1  0
 16 17  1  1
 18 17  1  0
 19 18  2  0
 20 19  1  0
 21 20  1  0
 21 26  2  0
 22 21  1  0
 23 22  2  0
 23 24  1  0
 24 25  2  0
 25 26  1  0
 26 18  1  0
 27 16  1  0
 28 27  2  0
 29 27  1  0
M  END
$$$$
