VVW.pdb
     RDKit          3D

 29 30  0  0  1  0  0  0  0  0999 V2000
    7.1819  -12.5316   18.9274 C   0  0  0  0  0  0  0  0  0  0  0  0
    7.5231  -13.6017   19.9372 C   0  0  2  0  0  0  0  0  0  0  0  0
    8.4849  -12.9822   20.9445 C   0  0  0  0  0  0  0  0  0  0  0  0
    8.1286  -14.8211   19.2675 C   0  0  2  0  0  0  0  0  0  0  0  0
    7.2161  -15.2449   18.2467 N   0  0  0  0  0  0  0  0  0  0  0  0
    8.4342  -15.8845   20.2467 C   0  0  0  0  0  0  0  0  0  0  0  0
    7.5110  -16.5326   20.8019 O   0  0  0  0  0  0  0  0  0  0  0  0
   10.5553  -19.1197   20.1315 C   0  0  0  0  0  0  0  0  0  0  0  0
   11.0303  -18.2383   21.2303 C   0  0  2  0  0  0  0  0  0  0  0  0
   11.3304  -19.1112   22.4441 C   0  0  0  0  0  0  0  0  0  0  0  0
   10.0299  -17.2048   21.6813 C   0  0  2  0  0  0  0  0  0  0  0  0
    9.7684  -16.2476   20.6266 N   0  0  0  0  0  0  0  0  0  0  0  0
   10.3921  -16.5656   22.9595 C   0  0  0  0  0  0  0  0  0  0  0  0
   11.3466  -15.7551   23.0089 O   0  0  0  0  0  0  0  0  0  0  0  0
    9.6916  -16.8355   24.1569 N   0  0  0  0  0  0  0  0  0  0  0  0
   10.1962  -16.2796   25.4029 C   0  0  1  0  0  0  0  0  0  0  0  0
    9.8880  -14.7721   25.4491 C   0  0  0  0  0  0  0  0  0  0  0  0
    8.4319  -14.6077   25.5485 C   0  0  0  0  0  0  0  0  0  0  0  0
    7.4517  -15.5316   25.2490 C   0  0  0  0  0  0  0  0  0  0  0  0
    6.2530  -14.9735   25.4775 N   0  0  0  0  0  0  0  0  0  0  0  0
    6.4374  -13.7046   25.9196 C   0  0  0  0  0  0  0  0  0  0  0  0
    5.5383  -12.7167   26.2901 C   0  0  0  0  0  0  0  0  0  0  0  0
    5.9433  -11.4768   26.7145 C   0  0  0  0  0  0  0  0  0  0  0  0
    7.2954  -11.2388   26.7622 C   0  0  0  0  0  0  0  0  0  0  0  0
    8.1987  -12.2136   26.3963 C   0  0  0  0  0  0  0  0  0  0  0  0
    7.7923  -13.4719   25.9656 C   0  0  0  0  0  0  0  0  0  0  0  0
    9.6259  -16.9593   26.5739 C   0  0  0  0  0  0  0  0  0  0  0  0
    9.9740  -16.6218   27.7216 O   0  0  0  0  0  0  0  0  0  0  0  0
    8.7040  -17.9729   26.4263 O   0  0  0  0  0  0  0  0  0  0  0  0
  2  1  1  6
  2  3  1  0
  4  5  1  6
  4  2  1  0
  6  4  1  0
  7  6  2  0
  9  8  1  6
  9 11  1  0
 10  9  1  0
 11 12  1  6
 12  6  1  0
 13 11  1  0
 13 14  2  0
 15 16  1  0
 15 13  1  0
 16 17  1  1
 18 17  1  0
 19 18  2  0
 20 19  1  0
 21 20  1  0
 21 26  2  0
 22 21  1  0
 23 22  2  0
 23 24  1  0
 24 25  2  0
 25 26  1  0
 26 18  1  0
 27 16  1  0
 28 27  2  0
 29 27  1  0
M  END
$$$$
