VVW.pdb
     RDKit          3D

 29 30  0  0  1  0  0  0  0  0999 V2000
    7.2872  -18.1408   18.0111 C   0  0  0  0  0  0  0  0  0  0  0  0
    8.5609  -18.9160   18.2517 C   0  0  2  0  0  0  0  0  0  0  0  0
    8.3009  -20.3561   17.8248 C   0  0  0  0  0  0  0  0  0  0  0  0
    8.9910  -18.8358   19.7045 C   0  0  2  0  0  0  0  0  0  0  0  0
    8.0031  -19.5254   20.4810 N   0  0  0  0  0  0  0  0  0  0  0  0
    9.1917  -17.4371   20.1364 C   0  0  0  0  0  0  0  0  0  0  0  0
   10.1471  -16.7553   19.6858 O   0  0  0  0  0  0  0  0  0  0  0  0
    6.7028  -14.4604   20.2059 C   0  0  0  0  0  0  0  0  0  0  0  0
    7.3534  -14.5931   21.5358 C   0  0  2  0  0  0  0  0  0  0  0  0
    7.7546  -13.2005   22.0102 C   0  0  0  0  0  0  0  0  0  0  0  0
    8.6098  -15.4262   21.5382 C   0  0  2  0  0  0  0  0  0  0  0  0
    8.3364  -16.7705   21.0747 N   0  0  0  0  0  0  0  0  0  0  0  0
    9.3223  -15.3979   22.8286 C   0  0  0  0  0  0  0  0  0  0  0  0
   10.0916  -14.4468   23.1014 O   0  0  0  0  0  0  0  0  0  0  0  0
    9.1698  -16.4214   23.7910 N   0  0  0  0  0  0  0  0  0  0  0  0
   10.0761  -16.4527   24.9285 C   0  0  1  0  0  0  0  0  0  0  0  0
    9.8826  -15.1773   25.7684 C   0  0  0  0  0  0  0  0  0  0  0  0
    8.4408  -14.9222   25.8837 C   0  0  0  0  0  0  0  0  0  0  0  0
    7.4090  -15.8348   25.8028 C   0  0  0  0  0  0  0  0  0  0  0  0
    6.2470  -15.1823   25.9594 N   0  0  0  0  0  0  0  0  0  0  0  0
    6.5059  -13.8633   26.1404 C   0  0  0  0  0  0  0  0  0  0  0  0
    5.6679  -12.7777   26.3427 C   0  0  0  0  0  0  0  0  0  0  0  0
    6.1449  -11.5018   26.5043 C   0  0  0  0  0  0  0  0  0  0  0  0
    7.5069  -11.3290   26.4588 C   0  0  0  0  0  0  0  0  0  0  0  0
    8.3499  -12.4010   26.2584 C   0  0  0  0  0  0  0  0  0  0  0  0
    7.8704  -13.6961   26.0941 C   0  0  0  0  0  0  0  0  0  0  0  0
    9.8735  -17.6506   25.7546 C   0  0  0  0  0  0  0  0  0  0  0  0
    8.9095  -18.4072   25.5299 O   0  0  0  0  0  0  0  0  0  0  0  0
   10.7376  -17.9569   26.7835 O   0  0  0  0  0  0  0  0  0  0  0  0
  2  1  1  1
  2  3  1  0
  4  5  1  1
  4  2  1  0
  6  4  1  0
  7  6  2  0
  9  8  1  6
  9 11  1  0
 10  9  1  0
 11 12  1  1
 12  6  1  0
 13 11  1  0
 13 14  2  0
 15 16  1  0
 15 13  1  0
 16 17  1  1
 18 17  1  0
 19 18  2  0
 20 19  1  0
 21 20  1  0
 21 26  2  0
 22 21  1  0
 23 22  2  0
 23 24  1  0
 24 25  2  0
 25 26  1  0
 26 18  1  0
 27 16  1  0
 28 27  2  0
 29 27  1  0
M  END
$$$$
