MHG.pdb
     RDKit          3D

 23 23  0  0  1  0  0  0  0  0999 V2000
   31.8084  -22.8536  -11.1344 C   0  0  0  0  0  0  0  0  0  0  0  0
   31.9356  -21.4974   -9.9450 S   0  0  0  0  0  0  0  0  0  0  0  0
   30.3016  -20.7851   -9.5896 C   0  0  0  0  0  0  0  0  0  0  0  0
   29.2289  -21.4384  -10.4307 C   0  0  0  0  0  0  0  0  0  0  0  0
   27.9441  -20.6814  -10.2009 C   0  0  2  0  0  0  0  0  0  0  0  0
   27.6980  -20.6514   -8.7820 N   0  0  0  0  0  0  0  0  0  0  0  0
   26.8056  -21.2961  -10.9462 C   0  0  0  0  0  0  0  0  0  0  0  0
   26.2909  -22.3777  -10.6369 O   0  0  0  0  0  0  0  0  0  0  0  0
   26.2794  -20.6075  -12.0727 N   0  0  0  0  0  0  0  0  0  0  0  0
   24.8682  -20.7309  -12.4516 C   0  0  1  0  0  0  0  0  0  0  0  0
   23.9679  -20.2460  -11.3378 C   0  0  0  0  0  0  0  0  0  0  0  0
   22.5446  -20.4418  -11.6119 C   0  0  0  0  0  0  0  0  0  0  0  0
   22.0359  -20.9789  -12.7713 C   0  0  0  0  0  0  0  0  0  0  0  0
   20.7076  -21.0026  -12.6655 N   0  0  0  0  0  0  0  0  0  0  0  0
   20.3438  -20.4952  -11.4686 C   0  0  0  0  0  0  0  0  0  0  0  0
   21.4928  -20.1553  -10.8341 N   0  0  0  0  0  0  0  0  0  0  0  0
   24.6232  -19.8779  -13.6247 C   0  0  0  0  0  0  0  0  0  0  0  0
   25.3202  -18.8636  -13.8188 O   0  0  0  0  0  0  0  0  0  0  0  0
   23.5967  -20.2076  -14.5337 N   0  0  0  0  0  0  0  0  0  0  0  0
   23.4043  -19.4785  -15.7877 C   0  0  0  0  0  0  0  0  0  0  0  0
   22.2831  -20.0894  -16.5000 C   0  0  0  0  0  0  0  0  0  0  0  0
   21.2491  -19.3239  -17.0175 O   0  0  0  0  0  0  0  0  0  0  0  0
   22.2707  -21.3528  -16.6398 O   0  0  0  0  0  0  0  0  0  0  0  0
  1  2  1  0
  3  2  1  0
  4  3  1  0
  5  4  1  0
  5  7  1  0
  5  6  1  1
  7  8  2  0
  7  9  1  0
  9 10  1  0
 10 17  1  0
 10 11  1  1
 12 11  1  0
 12 13  2  0
 14 13  1  0
 15 14  1  0
 16 15  2  0
 16 12  1  0
 17 19  1  0
 17 18  2  0
 19 20  1  0
 21 20  1  0
 21 22  1  0
 23 21  2  0
M  END
$$$$
