MHG.pdb
     RDKit          3D

 23 23  0  0  1  0  0  0  0  0999 V2000
   26.8719  -41.2673   -5.1222 C   0  0  0  0  0  0  0  0  0  0  0  0
   28.3632  -40.7151   -4.2612 S   0  0  0  0  0  0  0  0  0  0  0  0
   29.3672  -39.6337   -5.3224 C   0  0  0  0  0  0  0  0  0  0  0  0
   30.6131  -39.1701   -4.6028 C   0  0  0  0  0  0  0  0  0  0  0  0
   31.3116  -38.1736   -5.4948 C   0  0  2  0  0  0  0  0  0  0  0  0
   32.3274  -38.8793   -6.2331 N   0  0  0  0  0  0  0  0  0  0  0  0
   31.8863  -37.0425   -4.7074 C   0  0  0  0  0  0  0  0  0  0  0  0
   33.0803  -36.9661   -4.3928 O   0  0  0  0  0  0  0  0  0  0  0  0
   31.0213  -35.9934   -4.2936 N   0  0  0  0  0  0  0  0  0  0  0  0
   31.5267  -34.8387   -3.5443 C   0  0  1  0  0  0  0  0  0  0  0  0
   31.3186  -33.5593   -4.3230 C   0  0  0  0  0  0  0  0  0  0  0  0
   32.3208  -33.3424   -5.3659 C   0  0  0  0  0  0  0  0  0  0  0  0
   33.3687  -34.1913   -5.6352 C   0  0  0  0  0  0  0  0  0  0  0  0
   34.0691  -33.6732   -6.6438 N   0  0  0  0  0  0  0  0  0  0  0  0
   33.5020  -32.5119   -7.0339 C   0  0  0  0  0  0  0  0  0  0  0  0
   32.4244  -32.3264   -6.2322 N   0  0  0  0  0  0  0  0  0  0  0  0
   30.7649  -34.7253   -2.2911 C   0  0  0  0  0  0  0  0  0  0  0  0
   30.8962  -33.7205   -1.5663 O   0  0  0  0  0  0  0  0  0  0  0  0
   29.8826  -35.7563   -1.9070 N   0  0  0  0  0  0  0  0  0  0  0  0
   29.1024  -35.6921   -0.6707 C   0  0  0  0  0  0  0  0  0  0  0  0
   29.8941  -36.3005    0.3973 C   0  0  0  0  0  0  0  0  0  0  0  0
   31.1415  -36.8536    0.1503 O   0  0  0  0  0  0  0  0  0  0  0  0
   29.4138  -36.3148    1.5741 O   0  0  0  0  0  0  0  0  0  0  0  0
  1  2  1  0
  3  2  1  0
  4  3  1  0
  5  4  1  0
  5  7  1  0
  5  6  1  1
  7  8  2  0
  7  9  1  0
  9 10  1  0
 10 17  1  0
 10 11  1  6
 12 11  1  0
 12 13  2  0
 14 13  1  0
 15 14  1  0
 16 15  2  0
 16 12  1  0
 17 19  1  0
 17 18  2  0
 19 20  1  0
 21 20  1  0
 21 22  1  0
 23 21  2  0
M  END
$$$$
