MHG.pdb
     RDKit          3D

 23 23  0  0  1  0  0  0  0  0999 V2000
   28.8980  -18.5237   -5.2662 C   0  0  0  0  0  0  0  0  0  0  0  0
   27.9649  -19.9382   -4.6347 S   0  0  0  0  0  0  0  0  0  0  0  0
   26.5637  -20.3343   -5.7225 C   0  0  0  0  0  0  0  0  0  0  0  0
   26.8251  -19.8701   -7.1371 C   0  0  0  0  0  0  0  0  0  0  0  0
   25.5693  -20.1140   -7.9371 C   0  0  2  0  0  0  0  0  0  0  0  0
   25.1289  -21.4587   -7.6672 N   0  0  0  0  0  0  0  0  0  0  0  0
   25.7970  -19.8897   -9.3957 C   0  0  0  0  0  0  0  0  0  0  0  0
   26.2596  -18.8412   -9.8618 O   0  0  0  0  0  0  0  0  0  0  0  0
   25.4671  -20.9322  -10.3037 N   0  0  0  0  0  0  0  0  0  0  0  0
   25.7465  -20.8114  -11.7381 C   0  0  1  0  0  0  0  0  0  0  0  0
   26.7587  -21.8450  -12.1779 C   0  0  0  0  0  0  0  0  0  0  0  0
   28.0872  -21.6419  -11.6009 C   0  0  0  0  0  0  0  0  0  0  0  0
   29.0269  -20.7628  -12.0861 C   0  0  0  0  0  0  0  0  0  0  0  0
   30.1085  -20.8480  -11.3120 N   0  0  0  0  0  0  0  0  0  0  0  0
   29.8932  -21.7588  -10.3391 C   0  0  0  0  0  0  0  0  0  0  0  0
   28.6396  -22.2367  -10.5358 N   0  0  0  0  0  0  0  0  0  0  0  0
   24.5015  -21.0647  -12.4794 C   0  0  0  0  0  0  0  0  0  0  0  0
   24.5103  -21.1041  -13.7247 O   0  0  0  0  0  0  0  0  0  0  0  0
   23.2931  -21.2639  -11.7802 N   0  0  0  0  0  0  0  0  0  0  0  0
   22.0161  -21.4479  -12.4706 C   0  0  0  0  0  0  0  0  0  0  0  0
   21.2426  -20.2152  -12.3296 C   0  0  0  0  0  0  0  0  0  0  0  0
   19.8631  -20.2365  -12.1904 O   0  0  0  0  0  0  0  0  0  0  0  0
   21.8640  -19.1063  -12.3366 O   0  0  0  0  0  0  0  0  0  0  0  0
  1  2  1  0
  3  2  1  0
  4  3  1  0
  5  4  1  0
  5  7  1  0
  5  6  1  6
  7  8  2  0
  7  9  1  0
  9 10  1  0
 10 17  1  0
 10 11  1  6
 12 11  1  0
 12 13  2  0
 14 13  1  0
 15 14  1  0
 16 15  2  0
 16 12  1  0
 17 19  1  0
 17 18  2  0
 19 20  1  0
 21 20  1  0
 21 22  1  0
 23 21  2  0
M  END
$$$$
