MHG.pdb
     RDKit          3D

 23 23  0  0  1  0  0  0  0  0999 V2000
   30.0914   -9.6631  -17.5590 C   0  0  0  0  0  0  0  0  0  0  0  0
   30.1672  -11.4384  -17.8952 S   0  0  0  0  0  0  0  0  0  0  0  0
   28.8571  -12.3284  -17.0036 C   0  0  0  0  0  0  0  0  0  0  0  0
   27.5135  -11.6669  -17.2088 C   0  0  0  0  0  0  0  0  0  0  0  0
   26.4989  -12.4320  -16.3953 C   0  0  2  0  0  0  0  0  0  0  0  0
   26.5626  -13.8136  -16.7978 N   0  0  0  0  0  0  0  0  0  0  0  0
   25.1257  -11.8702  -16.5641 C   0  0  0  0  0  0  0  0  0  0  0  0
   24.4319  -12.0526  -17.5720 O   0  0  0  0  0  0  0  0  0  0  0  0
   24.5795  -11.0825  -15.5147 N   0  0  0  0  0  0  0  0  0  0  0  0
   23.2666  -10.4424  -15.6452 C   0  0  1  0  0  0  0  0  0  0  0  0
   22.2376  -11.1466  -14.7898 C   0  0  0  0  0  0  0  0  0  0  0  0
   20.9089  -10.5391  -14.8581 C   0  0  0  0  0  0  0  0  0  0  0  0
   20.3340   -9.7957  -13.8541 C   0  0  0  0  0  0  0  0  0  0  0  0
   19.1280   -9.4080  -14.2681 N   0  0  0  0  0  0  0  0  0  0  0  0
   18.9077   -9.8809  -15.5133 C   0  0  0  0  0  0  0  0  0  0  0  0
   20.0194  -10.5762  -15.8585 N   0  0  0  0  0  0  0  0  0  0  0  0
   23.3726   -9.0568  -15.1631 C   0  0  0  0  0  0  0  0  0  0  0  0
   24.0143   -8.8011  -14.1261 O   0  0  0  0  0  0  0  0  0  0  0  0
   22.7467   -8.0130  -15.8754 N   0  0  0  0  0  0  0  0  0  0  0  0
   22.8002   -6.6220  -15.4243 C   0  0  0  0  0  0  0  0  0  0  0  0
   21.4800   -6.0279  -15.6285 C   0  0  0  0  0  0  0  0  0  0  0  0
   21.1931   -4.7371  -15.2107 O   0  0  0  0  0  0  0  0  0  0  0  0
   20.5854   -6.7237  -16.2041 O   0  0  0  0  0  0  0  0  0  0  0  0
  1  2  1  0
  3  2  1  0
  4  3  1  0
  5  4  1  0
  5  7  1  0
  5  6  1  6
  7  8  2  0
  7  9  1  0
  9 10  1  0
 10 17  1  0
 10 11  1  1
 12 11  1  0
 12 13  2  0
 14 13  1  0
 15 14  1  0
 16 15  2  0
 16 12  1  0
 17 19  1  0
 17 18  2  0
 19 20  1  0
 21 20  1  0
 21 22  1  0
 23 21  2  0
M  END
$$$$
