MHG.pdb
     RDKit          3D

 23 23  0  0  1  0  0  0  0  0999 V2000
   25.3930  -23.3517   10.0943 C   0  0  0  0  0  0  0  0  0  0  0  0
   24.5530  -24.6230   11.0682 S   0  0  0  0  0  0  0  0  0  0  0  0
   24.0176  -26.0046   10.0155 C   0  0  0  0  0  0  0  0  0  0  0  0
   25.1558  -26.9655    9.7586 C   0  0  0  0  0  0  0  0  0  0  0  0
   24.6512  -28.0294    8.8152 C   0  0  2  0  0  0  0  0  0  0  0  0
   23.6773  -28.8202    9.5231 N   0  0  0  0  0  0  0  0  0  0  0  0
   25.7681  -28.8695    8.2895 C   0  0  0  0  0  0  0  0  0  0  0  0
   26.0359  -29.9978    8.7204 O   0  0  0  0  0  0  0  0  0  0  0  0
   26.5713  -28.3519    7.2373 N   0  0  0  0  0  0  0  0  0  0  0  0
   27.6663  -29.1356    6.6570 C   0  0  1  0  0  0  0  0  0  0  0  0
   27.5581  -29.1767    5.1494 C   0  0  0  0  0  0  0  0  0  0  0  0
   26.5851  -30.1535    4.6614 C   0  0  0  0  0  0  0  0  0  0  0  0
   26.5798  -31.4881    4.9932 C   0  0  0  0  0  0  0  0  0  0  0  0
   25.5550  -32.0641    4.3653 N   0  0  0  0  0  0  0  0  0  0  0  0
   24.8975  -31.1374    3.6363 C   0  0  0  0  0  0  0  0  0  0  0  0
   25.5497  -29.9652    3.8332 N   0  0  0  0  0  0  0  0  0  0  0  0
   28.9394  -28.4802    6.9938 C   0  0  0  0  0  0  0  0  0  0  0  0
   30.0152  -28.9458    6.5715 O   0  0  0  0  0  0  0  0  0  0  0  0
   28.9444  -27.3211    7.7970 N   0  0  0  0  0  0  0  0  0  0  0  0
   30.1804  -26.6153    8.1366 C   0  0  0  0  0  0  0  0  0  0  0  0
   30.7542  -27.2501    9.3221 C   0  0  0  0  0  0  0  0  0  0  0  0
   31.9062  -26.7623    9.9202 O   0  0  0  0  0  0  0  0  0  0  0  0
   30.1714  -28.2721    9.8036 O   0  0  0  0  0  0  0  0  0  0  0  0
  1  2  1  0
  3  2  1  0
  4  3  1  0
  5  4  1  0
  5  7  1  0
  5  6  1  1
  7  8  2  0
  7  9  1  0
  9 10  1  0
 10 17  1  0
 10 11  1  6
 12 11  1  0
 12 13  2  0
 14 13  1  0
 15 14  1  0
 16 15  2  0
 16 12  1  0
 17 19  1  0
 17 18  2  0
 19 20  1  0
 21 20  1  0
 21 22  1  0
 23 21  2  0
M  END
$$$$
