MHG.pdb
     RDKit          3D

 23 23  0  0  1  0  0  0  0  0999 V2000
   29.2028   -2.8571  -16.3993 C   0  0  0  0  0  0  0  0  0  0  0  0
   28.4085   -2.2088  -17.8889 S   0  0  0  0  0  0  0  0  0  0  0  0
   26.8955   -3.1373  -18.2790 C   0  0  0  0  0  0  0  0  0  0  0  0
   27.1050   -4.6224  -18.0909 C   0  0  0  0  0  0  0  0  0  0  0  0
   25.7922   -5.3087  -18.3778 C   0  0  2  0  0  0  0  0  0  0  0  0
   24.8878   -4.9980  -17.3006 N   0  0  0  0  0  0  0  0  0  0  0  0
   25.9693   -6.7822  -18.5429 C   0  0  0  0  0  0  0  0  0  0  0  0
   26.2549   -7.5447  -17.6115 O   0  0  0  0  0  0  0  0  0  0  0  0
   25.8023   -7.3465  -19.8366 N   0  0  0  0  0  0  0  0  0  0  0  0
   25.9223   -8.7907  -20.0604 C   0  0  1  0  0  0  0  0  0  0  0  0
   24.5683   -9.4073  -20.3303 C   0  0  0  0  0  0  0  0  0  0  0  0
   23.7327   -9.5244  -19.1357 C   0  0  0  0  0  0  0  0  0  0  0  0
   24.1473   -9.2338  -17.8571 C   0  0  0  0  0  0  0  0  0  0  0  0
   23.1244   -9.4562  -17.0323 N   0  0  0  0  0  0  0  0  0  0  0  0
   22.0593   -9.8830  -17.7435 C   0  0  0  0  0  0  0  0  0  0  0  0
   22.4562   -9.9179  -19.0395 N   0  0  0  0  0  0  0  0  0  0  0  0
   26.7568   -9.0111  -21.2515 C   0  0  0  0  0  0  0  0  0  0  0  0
   26.9885   -8.0722  -22.0371 O   0  0  0  0  0  0  0  0  0  0  0  0
   27.2971  -10.2884  -21.5068 N   0  0  0  0  0  0  0  0  0  0  0  0
   28.1055  -10.5679  -22.6941 C   0  0  0  0  0  0  0  0  0  0  0  0
   28.4568  -11.9871  -22.6797 C   0  0  0  0  0  0  0  0  0  0  0  0
   29.1930  -12.5624  -23.7044 O   0  0  0  0  0  0  0  0  0  0  0  0
   28.0710  -12.6964  -21.6979 O   0  0  0  0  0  0  0  0  0  0  0  0
  1  2  1  0
  3  2  1  0
  4  3  1  0
  5  4  1  0
  5  7  1  0
  5  6  1  1
  7  8  2  0
  7  9  1  0
  9 10  1  0
 10 17  1  0
 10 11  1  6
 12 11  1  0
 12 13  2  0
 14 13  1  0
 15 14  1  0
 16 15  2  0
 16 12  1  0
 17 19  1  0
 17 18  2  0
 19 20  1  0
 21 20  1  0
 21 22  1  0
 23 21  2  0
M  END
$$$$
