MHG.pdb
     RDKit          3D

 23 23  0  0  1  0  0  0  0  0999 V2000
   25.2021  -21.2186   -7.8242 C   0  0  0  0  0  0  0  0  0  0  0  0
   25.0512  -20.8808   -9.5944 S   0  0  0  0  0  0  0  0  0  0  0  0
   26.6827  -20.8530  -10.3952 C   0  0  0  0  0  0  0  0  0  0  0  0
   26.5931  -20.2830  -11.7923 C   0  0  0  0  0  0  0  0  0  0  0  0
   25.3366  -20.8259  -12.4273 C   0  0  2  0  0  0  0  0  0  0  0  0
   25.6433  -22.1237  -12.9718 N   0  0  0  0  0  0  0  0  0  0  0  0
   24.8069  -19.8997  -13.4720 C   0  0  0  0  0  0  0  0  0  0  0  0
   24.7722  -18.6700  -13.3410 O   0  0  0  0  0  0  0  0  0  0  0  0
   24.3142  -20.4532  -14.6848 N   0  0  0  0  0  0  0  0  0  0  0  0
   23.8807  -19.5970  -15.7935 C   0  0  1  0  0  0  0  0  0  0  0  0
   24.8024  -19.7487  -16.9825 C   0  0  0  0  0  0  0  0  0  0  0  0
   26.1662  -19.2874  -16.7252 C   0  0  0  0  0  0  0  0  0  0  0  0
   26.4992  -18.0223  -16.3009 C   0  0  0  0  0  0  0  0  0  0  0  0
   27.8247  -17.9665  -16.1739 N   0  0  0  0  0  0  0  0  0  0  0  0
   28.3577  -19.1618  -16.5049 C   0  0  0  0  0  0  0  0  0  0  0  0
   27.3168  -19.9626  -16.8420 N   0  0  0  0  0  0  0  0  0  0  0  0
   22.5373  -20.0231  -16.2149 C   0  0  0  0  0  0  0  0  0  0  0  0
   22.2752  -21.2344  -16.3428 O   0  0  0  0  0  0  0  0  0  0  0  0
   21.5417  -19.0590  -16.4755 N   0  0  0  0  0  0  0  0  0  0  0  0
   20.1846  -19.4311  -16.8772 C   0  0  0  0  0  0  0  0  0  0  0  0
   19.3719  -19.5554  -15.6682 C   0  0  0  0  0  0  0  0  0  0  0  0
   18.0082  -19.7986  -15.7330 O   0  0  0  0  0  0  0  0  0  0  0  0
   19.9436  -19.4352  -14.5393 O   0  0  0  0  0  0  0  0  0  0  0  0
  1  2  1  0
  3  2  1  0
  4  3  1  0
  5  4  1  0
  5  7  1  0
  5  6  1  6
  7  8  2  0
  7  9  1  0
  9 10  1  0
 10 17  1  0
 10 11  1  6
 12 11  1  0
 12 13  2  0
 14 13  1  0
 15 14  1  0
 16 15  2  0
 16 12  1  0
 17 19  1  0
 17 18  2  0
 19 20  1  0
 21 20  1  0
 21 22  1  0
 23 21  2  0
M  END
$$$$
