MHG.pdb
     RDKit          3D

 23 23  0  0  1  0  0  0  0  0999 V2000
   31.0687  -21.1534   -9.1107 C   0  0  0  0  0  0  0  0  0  0  0  0
   32.1981  -21.8748  -10.3250 S   0  0  0  0  0  0  0  0  0  0  0  0
   31.4729  -21.8423  -11.9913 C   0  0  0  0  0  0  0  0  0  0  0  0
   29.9769  -22.0521  -11.9376 C   0  0  0  0  0  0  0  0  0  0  0  0
   29.3798  -21.3967  -13.1585 C   0  0  2  0  0  0  0  0  0  0  0  0
   29.9055  -20.0582  -13.2418 N   0  0  0  0  0  0  0  0  0  0  0  0
   27.8874  -21.4019  -13.1080 C   0  0  0  0  0  0  0  0  0  0  0  0
   27.2117  -22.4297  -12.9761 O   0  0  0  0  0  0  0  0  0  0  0  0
   27.1990  -20.1632  -13.2168 N   0  0  0  0  0  0  0  0  0  0  0  0
   25.7347  -20.0979  -13.1758 C   0  0  1  0  0  0  0  0  0  0  0  0
   25.2675  -19.2036  -12.0497 C   0  0  0  0  0  0  0  0  0  0  0  0
   25.0129  -19.9228  -10.8018 C   0  0  0  0  0  0  0  0  0  0  0  0
   25.1263  -21.2842  -10.6442 C   0  0  0  0  0  0  0  0  0  0  0  0
   24.8190  -21.5792   -9.3813 N   0  0  0  0  0  0  0  0  0  0  0  0
   24.5099  -20.4447   -8.7181 C   0  0  0  0  0  0  0  0  0  0  0  0
   24.6359  -19.4342   -9.6133 N   0  0  0  0  0  0  0  0  0  0  0  0
   25.2579  -19.5104  -14.4373 C   0  0  0  0  0  0  0  0  0  0  0  0
   25.6141  -18.3634  -14.7687 O   0  0  0  0  0  0  0  0  0  0  0  0
   24.3948  -20.2461  -15.2754 N   0  0  0  0  0  0  0  0  0  0  0  0
   23.8054  -19.6689  -16.4840 C   0  0  0  0  0  0  0  0  0  0  0  0
   24.8370  -19.6340  -17.5195 C   0  0  0  0  0  0  0  0  0  0  0  0
   25.6395  -20.7343  -17.7810 O   0  0  0  0  0  0  0  0  0  0  0  0
   24.9893  -18.5628  -18.1866 O   0  0  0  0  0  0  0  0  0  0  0  0
  1  2  1  0
  3  2  1  0
  4  3  1  0
  5  4  1  0
  5  7  1  0
  5  6  1  1
  7  8  2  0
  7  9  1  0
  9 10  1  0
 10 17  1  0
 10 11  1  1
 12 11  1  0
 12 13  2  0
 14 13  1  0
 15 14  1  0
 16 15  2  0
 16 12  1  0
 17 19  1  0
 17 18  2  0
 19 20  1  0
 21 20  1  0
 21 22  1  0
 23 21  2  0
M  END
$$$$
