MHG.pdb
     RDKit          3D

 23 23  0  0  1  0  0  0  0  0999 V2000
   29.2514  -20.8763   -5.0225 C   0  0  0  0  0  0  0  0  0  0  0  0
   28.0554  -19.5759   -4.6362 S   0  0  0  0  0  0  0  0  0  0  0  0
   26.5833  -19.7075   -5.6940 C   0  0  0  0  0  0  0  0  0  0  0  0
   26.9614  -19.6875   -7.1573 C   0  0  0  0  0  0  0  0  0  0  0  0
   25.6914  -19.8308   -7.9593 C   0  0  2  0  0  0  0  0  0  0  0  0
   25.0770  -21.0808   -7.5919 N   0  0  0  0  0  0  0  0  0  0  0  0
   25.9589  -19.7569   -9.4264 C   0  0  0  0  0  0  0  0  0  0  0  0
   26.5579  -18.8182   -9.9654 O   0  0  0  0  0  0  0  0  0  0  0  0
   25.5040  -20.8184  -10.2549 N   0  0  0  0  0  0  0  0  0  0  0  0
   25.8062  -20.8499  -11.6895 C   0  0  1  0  0  0  0  0  0  0  0  0
   26.8185  -21.9286  -12.0023 C   0  0  0  0  0  0  0  0  0  0  0  0
   28.1249  -21.6981  -11.3863 C   0  0  0  0  0  0  0  0  0  0  0  0
   29.1676  -21.0307  -11.9852 C   0  0  0  0  0  0  0  0  0  0  0  0
   30.1906  -21.0148  -11.1313 N   0  0  0  0  0  0  0  0  0  0  0  0
   29.8373  -21.6542   -9.9960 C   0  0  0  0  0  0  0  0  0  0  0  0
   28.5585  -22.0680  -10.1744 N   0  0  0  0  0  0  0  0  0  0  0  0
   24.5712  -21.1737  -12.4200 C   0  0  0  0  0  0  0  0  0  0  0  0
   24.6252  -21.5516  -13.6060 O   0  0  0  0  0  0  0  0  0  0  0  0
   23.3212  -21.0566  -11.7777 N   0  0  0  0  0  0  0  0  0  0  0  0
   22.0651  -21.3785  -12.4557 C   0  0  0  0  0  0  0  0  0  0  0  0
   21.5281  -20.1438  -13.0258 C   0  0  0  0  0  0  0  0  0  0  0  0
   22.2808  -18.9802  -13.0747 O   0  0  0  0  0  0  0  0  0  0  0  0
   20.3420  -20.1538  -13.4830 O   0  0  0  0  0  0  0  0  0  0  0  0
  1  2  1  0
  3  2  1  0
  4  3  1  0
  5  4  1  0
  5  7  1  0
  5  6  1  6
  7  8  2  0
  7  9  1  0
  9 10  1  0
 10 17  1  0
 10 11  1  1
 12 11  1  0
 12 13  2  0
 14 13  1  0
 15 14  1  0
 16 15  2  0
 16 12  1  0
 17 19  1  0
 17 18  2  0
 19 20  1  0
 21 20  1  0
 21 22  1  0
 23 21  2  0
M  END
$$$$
