MHG.pdb
     RDKit          3D

 23 23  0  0  1  0  0  0  0  0999 V2000
   16.8190  -15.2963  -15.1141 C   0  0  0  0  0  0  0  0  0  0  0  0
   16.0268  -14.0967  -16.2113 S   0  0  0  0  0  0  0  0  0  0  0  0
   16.5278  -12.4000  -15.7942 C   0  0  0  0  0  0  0  0  0  0  0  0
   18.0306  -12.2905  -15.6746 C   0  0  0  0  0  0  0  0  0  0  0  0
   18.3492  -10.9014  -15.1789 C   0  0  2  0  0  0  0  0  0  0  0  0
   17.3603  -10.0035  -15.7179 N   0  0  0  0  0  0  0  0  0  0  0  0
   19.7338  -10.4894  -15.5567 C   0  0  0  0  0  0  0  0  0  0  0  0
   20.7491  -11.1035  -15.2065 O   0  0  0  0  0  0  0  0  0  0  0  0
   19.9026   -9.3304  -16.3618 N   0  0  0  0  0  0  0  0  0  0  0  0
   21.2298   -8.9037  -16.8163 C   0  0  1  0  0  0  0  0  0  0  0  0
   21.3148   -8.9274  -18.3257 C   0  0  0  0  0  0  0  0  0  0  0  0
   21.1891  -10.2686  -18.8955 C   0  0  0  0  0  0  0  0  0  0  0  0
   22.2110  -11.1854  -18.9760 C   0  0  0  0  0  0  0  0  0  0  0  0
   21.7302  -12.2880  -19.5497 N   0  0  0  0  0  0  0  0  0  0  0  0
   20.4246  -12.1088  -19.8423 C   0  0  0  0  0  0  0  0  0  0  0  0
   20.1108  -10.8557  -19.4303 N   0  0  0  0  0  0  0  0  0  0  0  0
   21.4491   -7.5161  -16.3802 C   0  0  0  0  0  0  0  0  0  0  0  0
   22.4635   -6.8952  -16.7516 O   0  0  0  0  0  0  0  0  0  0  0  0
   20.5095   -6.8848  -15.5393 N   0  0  0  0  0  0  0  0  0  0  0  0
   20.7421   -5.5561  -14.9722 C   0  0  0  0  0  0  0  0  0  0  0  0
   21.4500   -5.7219  -13.7037 C   0  0  0  0  0  0  0  0  0  0  0  0
   21.8305   -4.6306  -12.9375 O   0  0  0  0  0  0  0  0  0  0  0  0
   21.7153   -6.9004  -13.3080 O   0  0  0  0  0  0  0  0  0  0  0  0
  1  2  1  0
  3  2  1  0
  4  3  1  0
  5  4  1  0
  5  7  1  0
  5  6  1  6
  7  8  2  0
  7  9  1  0
  9 10  1  0
 10 17  1  0
 10 11  1  6
 12 11  1  0
 12 13  2  0
 14 13  1  0
 15 14  1  0
 16 15  2  0
 16 12  1  0
 17 19  1  0
 17 18  2  0
 19 20  1  0
 21 20  1  0
 21 22  1  0
 23 21  2  0
M  END
$$$$
