MHG.pdb
     RDKit          3D

 23 23  0  0  1  0  0  0  0  0999 V2000
   29.3501  -18.8785   -5.2485 C   0  0  0  0  0  0  0  0  0  0  0  0
   27.9919  -19.6561   -4.3423 S   0  0  0  0  0  0  0  0  0  0  0  0
   26.6199  -20.0778   -5.4574 C   0  0  0  0  0  0  0  0  0  0  0  0
   26.9823  -19.7940   -6.8971 C   0  0  0  0  0  0  0  0  0  0  0  0
   25.7270  -19.9407   -7.7214 C   0  0  2  0  0  0  0  0  0  0  0  0
   25.1990  -21.2606   -7.4892 N   0  0  0  0  0  0  0  0  0  0  0  0
   25.9924  -19.6991   -9.1709 C   0  0  0  0  0  0  0  0  0  0  0  0
   26.5867  -18.7025   -9.5999 O   0  0  0  0  0  0  0  0  0  0  0  0
   25.5408  -20.6612  -10.1145 N   0  0  0  0  0  0  0  0  0  0  0  0
   25.7287  -20.4634  -11.5552 C   0  0  1  0  0  0  0  0  0  0  0  0
   26.5945  -21.5566  -12.1398 C   0  0  0  0  0  0  0  0  0  0  0  0
   27.9972  -21.4680  -11.7353 C   0  0  0  0  0  0  0  0  0  0  0  0
   28.6009  -22.2906  -10.8133 C   0  0  0  0  0  0  0  0  0  0  0  0
   29.8752  -21.9168  -10.7005 N   0  0  0  0  0  0  0  0  0  0  0  0
   30.1116  -20.8744  -11.5251 C   0  0  0  0  0  0  0  0  0  0  0  0
   28.9393  -20.6134  -12.1543 N   0  0  0  0  0  0  0  0  0  0  0  0
   24.4146  -20.5378  -12.2121 C   0  0  0  0  0  0  0  0  0  0  0  0
   23.4928  -21.1989  -11.6970 O   0  0  0  0  0  0  0  0  0  0  0  0
   24.1957  -19.8594  -13.4289 N   0  0  0  0  0  0  0  0  0  0  0  0
   22.8525  -19.6405  -13.9668 C   0  0  0  0  0  0  0  0  0  0  0  0
   22.4021  -20.8875  -14.5830 C   0  0  0  0  0  0  0  0  0  0  0  0
   21.2147  -21.4958  -14.2047 O   0  0  0  0  0  0  0  0  0  0  0  0
   23.1270  -21.4135  -15.4850 O   0  0  0  0  0  0  0  0  0  0  0  0
  1  2  1  0
  3  2  1  0
  4  3  1  0
  5  4  1  0
  5  7  1  0
  5  6  1  6
  7  8  2  0
  7  9  1  0
  9 10  1  0
 10 17  1  0
 10 11  1  6
 12 11  1  0
 12 13  2  0
 14 13  1  0
 15 14  1  0
 16 15  2  0
 16 12  1  0
 17 19  1  0
 17 18  2  0
 19 20  1  0
 21 20  1  0
 21 22  1  0
 23 21  2  0
M  END
$$$$
