MHG.pdb
     RDKit          3D

 23 23  0  0  1  0  0  0  0  0999 V2000
   22.0728  -10.4953    6.1583 C   0  0  0  0  0  0  0  0  0  0  0  0
   21.0063  -11.7945    6.8254 S   0  0  0  0  0  0  0  0  0  0  0  0
   19.5502  -12.0509    5.7683 C   0  0  0  0  0  0  0  0  0  0  0  0
   18.5419  -12.9540    6.4411 C   0  0  0  0  0  0  0  0  0  0  0  0
   17.7341  -13.6240    5.3571 C   0  0  2  0  0  0  0  0  0  0  0  0
   16.7691  -12.6703    4.8733 N   0  0  0  0  0  0  0  0  0  0  0  0
   17.0780  -14.8700    5.8540 C   0  0  0  0  0  0  0  0  0  0  0  0
   15.9448  -14.8946    6.3496 O   0  0  0  0  0  0  0  0  0  0  0  0
   17.7874  -16.0977    5.7557 N   0  0  0  0  0  0  0  0  0  0  0  0
   17.2296  -17.3458    6.2860 C   0  0  1  0  0  0  0  0  0  0  0  0
   17.3263  -18.4554    5.2633 C   0  0  0  0  0  0  0  0  0  0  0  0
   16.3271  -18.3564    4.1999 C   0  0  0  0  0  0  0  0  0  0  0  0
   15.3263  -17.4146    4.1493 C   0  0  0  0  0  0  0  0  0  0  0  0
   14.6131  -17.6311    3.0445 N   0  0  0  0  0  0  0  0  0  0  0  0
   15.1261  -18.6878    2.3792 C   0  0  0  0  0  0  0  0  0  0  0  0
   16.1833  -19.1205    3.1095 N   0  0  0  0  0  0  0  0  0  0  0  0
   18.0213  -17.7506    7.4577 C   0  0  0  0  0  0  0  0  0  0  0  0
   19.2659  -17.7581    7.4010 O   0  0  0  0  0  0  0  0  0  0  0  0
   17.3715  -18.1318    8.6498 N   0  0  0  0  0  0  0  0  0  0  0  0
   18.1128  -18.5346    9.8454 C   0  0  0  0  0  0  0  0  0  0  0  0
   18.5643  -19.9123    9.6564 C   0  0  0  0  0  0  0  0  0  0  0  0
   19.3283  -20.5629   10.6134 O   0  0  0  0  0  0  0  0  0  0  0  0
   18.2406  -20.5138    8.5844 O   0  0  0  0  0  0  0  0  0  0  0  0
  1  2  1  0
  3  2  1  0
  4  3  1  0
  5  4  1  0
  5  7  1  0
  5  6  1  1
  7  8  2  0
  7  9  1  0
  9 10  1  0
 10 17  1  0
 10 11  1  6
 12 11  1  0
 12 13  2  0
 14 13  1  0
 15 14  1  0
 16 15  2  0
 16 12  1  0
 17 19  1  0
 17 18  2  0
 19 20  1  0
 21 20  1  0
 21 22  1  0
 23 21  2  0
M  END
$$$$
