MHG.pdb
     RDKit          3D

 23 23  0  0  1  0  0  0  0  0999 V2000
   21.0926  -14.5729  -15.2143 C   0  0  0  0  0  0  0  0  0  0  0  0
   21.3804  -14.5117  -16.9986 S   0  0  0  0  0  0  0  0  0  0  0  0
   22.7126  -15.6488  -17.4845 C   0  0  0  0  0  0  0  0  0  0  0  0
   22.5074  -17.0179  -16.8776 C   0  0  0  0  0  0  0  0  0  0  0  0
   23.7630  -17.8183  -17.1214 C   0  0  2  0  0  0  0  0  0  0  0  0
   23.9923  -17.8562  -18.5429 N   0  0  0  0  0  0  0  0  0  0  0  0
   23.6588  -19.1905  -16.5419 C   0  0  0  0  0  0  0  0  0  0  0  0
   23.2385  -20.1685  -17.1723 O   0  0  0  0  0  0  0  0  0  0  0  0
   24.0621  -19.3919  -15.1940 N   0  0  0  0  0  0  0  0  0  0  0  0
   24.0443  -20.7248  -14.5832 C   0  0  1  0  0  0  0  0  0  0  0  0
   25.3990  -21.0710  -14.0077 C   0  0  0  0  0  0  0  0  0  0  0  0
   26.4004  -21.3889  -15.0252 C   0  0  0  0  0  0  0  0  0  0  0  0
   26.1496  -21.4660  -16.3752 C   0  0  0  0  0  0  0  0  0  0  0  0
   27.2915  -21.7752  -16.9888 N   0  0  0  0  0  0  0  0  0  0  0  0
   28.2742  -21.9001  -16.0716 C   0  0  0  0  0  0  0  0  0  0  0  0
   27.7027  -21.6577  -14.8662 N   0  0  0  0  0  0  0  0  0  0  0  0
   23.0785  -20.7174  -13.4737 C   0  0  0  0  0  0  0  0  0  0  0  0
   23.0350  -19.7522  -12.6870 O   0  0  0  0  0  0  0  0  0  0  0  0
   22.1983  -21.8051  -13.2983 N   0  0  0  0  0  0  0  0  0  0  0  0
   21.1857  -21.8239  -12.2421 C   0  0  0  0  0  0  0  0  0  0  0  0
   19.8921  -22.1129  -12.8591 C   0  0  0  0  0  0  0  0  0  0  0  0
   18.7494  -22.2977  -12.0955 O   0  0  0  0  0  0  0  0  0  0  0  0
   19.8301  -22.1933  -14.1262 O   0  0  0  0  0  0  0  0  0  0  0  0
  1  2  1  0
  3  2  1  0
  4  3  1  0
  5  4  1  0
  5  7  1  0
  5  6  1  6
  7  8  2  0
  7  9  1  0
  9 10  1  0
 10 17  1  0
 10 11  1  1
 12 11  1  0
 12 13  2  0
 14 13  1  0
 15 14  1  0
 16 15  2  0
 16 12  1  0
 17 19  1  0
 17 18  2  0
 19 20  1  0
 21 20  1  0
 21 22  1  0
 23 21  2  0
M  END
$$$$
