MHG.pdb
     RDKit          3D

 23 23  0  0  1  0  0  0  0  0999 V2000
   25.1790   -9.7008  -20.3137 C   0  0  0  0  0  0  0  0  0  0  0  0
   24.0467  -10.9169  -21.0274 S   0  0  0  0  0  0  0  0  0  0  0  0
   22.8108  -11.4532  -19.8073 C   0  0  0  0  0  0  0  0  0  0  0  0
   22.1453  -10.2662  -19.1494 C   0  0  0  0  0  0  0  0  0  0  0  0
   21.2018  -10.7963  -18.0981 C   0  0  2  0  0  0  0  0  0  0  0  0
   20.2598  -11.6689  -18.7509 N   0  0  0  0  0  0  0  0  0  0  0  0
   20.5152   -9.6883  -17.3696 C   0  0  0  0  0  0  0  0  0  0  0  0
   19.5877   -9.0259  -17.8506 O   0  0  0  0  0  0  0  0  0  0  0  0
   20.9449   -9.3717  -16.0523 N   0  0  0  0  0  0  0  0  0  0  0  0
   20.2882   -8.3216  -15.2673 C   0  0  1  0  0  0  0  0  0  0  0  0
   19.5867   -8.9092  -14.0636 C   0  0  0  0  0  0  0  0  0  0  0  0
   18.3774   -9.6588  -14.4023 C   0  0  0  0  0  0  0  0  0  0  0  0
   17.8808   -9.8125  -15.6755 C   0  0  0  0  0  0  0  0  0  0  0  0
   16.7741  -10.5511  -15.5991 N   0  0  0  0  0  0  0  0  0  0  0  0
   16.5417  -10.8790  -14.3103 C   0  0  0  0  0  0  0  0  0  0  0  0
   17.5430  -10.3183  -13.5884 N   0  0  0  0  0  0  0  0  0  0  0  0
   21.3180   -7.3947  -14.7733 C   0  0  0  0  0  0  0  0  0  0  0  0
   22.4703   -7.8057  -14.5376 O   0  0  0  0  0  0  0  0  0  0  0  0
   21.0020   -6.0362  -14.5653 N   0  0  0  0  0  0  0  0  0  0  0  0
   22.0105   -5.0559  -14.1614 C   0  0  0  0  0  0  0  0  0  0  0  0
   21.3599   -3.7503  -14.0623 C   0  0  0  0  0  0  0  0  0  0  0  0
   22.0291   -2.6424  -13.5646 O   0  0  0  0  0  0  0  0  0  0  0  0
   20.1524   -3.6450  -14.4454 O   0  0  0  0  0  0  0  0  0  0  0  0
  1  2  1  0
  3  2  1  0
  4  3  1  0
  5  4  1  0
  5  7  1  0
  5  6  1  6
  7  8  2  0
  7  9  1  0
  9 10  1  0
 10 17  1  0
 10 11  1  1
 12 11  1  0
 12 13  2  0
 14 13  1  0
 15 14  1  0
 16 15  2  0
 16 12  1  0
 17 19  1  0
 17 18  2  0
 19 20  1  0
 21 20  1  0
 21 22  1  0
 23 21  2  0
M  END
$$$$
