MHG.pdb
     RDKit          3D

 23 23  0  0  1  0  0  0  0  0999 V2000
   18.4389  -17.7770  -13.0402 C   0  0  0  0  0  0  0  0  0  0  0  0
   19.0254  -16.2355  -13.7820 S   0  0  0  0  0  0  0  0  0  0  0  0
   20.8261  -16.2720  -14.0263 C   0  0  0  0  0  0  0  0  0  0  0  0
   21.3337  -14.9405  -14.5305 C   0  0  0  0  0  0  0  0  0  0  0  0
   20.7292  -14.7077  -15.8932 C   0  0  2  0  0  0  0  0  0  0  0  0
   21.3495  -15.6261  -16.8133 N   0  0  0  0  0  0  0  0  0  0  0  0
   20.8959  -13.2899  -16.3311 C   0  0  0  0  0  0  0  0  0  0  0  0
   21.9678  -12.8201  -16.7321 O   0  0  0  0  0  0  0  0  0  0  0  0
   19.7669  -12.4276  -16.2879 N   0  0  0  0  0  0  0  0  0  0  0  0
   19.8251  -11.0667  -16.8308 C   0  0  1  0  0  0  0  0  0  0  0  0
   18.6803  -10.8199  -17.7874 C   0  0  0  0  0  0  0  0  0  0  0  0
   18.7715  -11.6025  -19.0195 C   0  0  0  0  0  0  0  0  0  0  0  0
   19.8713  -11.6414  -19.8443 C   0  0  0  0  0  0  0  0  0  0  0  0
   19.5929  -12.4538  -20.8634 N   0  0  0  0  0  0  0  0  0  0  0  0
   18.3423  -12.9415  -20.7196 C   0  0  0  0  0  0  0  0  0  0  0  0
   17.8532  -12.4034  -19.5752 N   0  0  0  0  0  0  0  0  0  0  0  0
   19.6884  -10.1138  -15.7185 C   0  0  0  0  0  0  0  0  0  0  0  0
   18.7936  -10.2699  -14.8657 O   0  0  0  0  0  0  0  0  0  0  0  0
   20.5721   -9.0197  -15.6153 N   0  0  0  0  0  0  0  0  0  0  0  0
   20.5351   -8.0940  -14.4826 C   0  0  0  0  0  0  0  0  0  0  0  0
   21.5998   -7.1090  -14.6670 C   0  0  0  0  0  0  0  0  0  0  0  0
   21.7788   -6.0598  -13.7781 O   0  0  0  0  0  0  0  0  0  0  0  0
   22.3706   -7.2313  -15.6702 O   0  0  0  0  0  0  0  0  0  0  0  0
  1  2  1  0
  3  2  1  0
  4  3  1  0
  5  4  1  0
  5  7  1  0
  5  6  1  6
  7  8  2  0
  7  9  1  0
  9 10  1  0
 10 17  1  0
 10 11  1  6
 12 11  1  0
 12 13  2  0
 14 13  1  0
 15 14  1  0
 16 15  2  0
 16 12  1  0
 17 19  1  0
 17 18  2  0
 19 20  1  0
 21 20  1  0
 21 22  1  0
 23 21  2  0
M  END
$$$$
