MHG.pdb
     RDKit          3D

 23 23  0  0  1  0  0  0  0  0999 V2000
   15.9738   -9.0980  -20.9791 C   0  0  0  0  0  0  0  0  0  0  0  0
   16.4062  -10.8279  -20.6780 S   0  0  0  0  0  0  0  0  0  0  0  0
   17.6827  -10.9675  -19.3917 C   0  0  0  0  0  0  0  0  0  0  0  0
   17.6974   -9.7435  -18.5049 C   0  0  0  0  0  0  0  0  0  0  0  0
   18.8784   -9.8681  -17.5741 C   0  0  2  0  0  0  0  0  0  0  0  0
   18.6699  -11.0315  -16.7508 N   0  0  0  0  0  0  0  0  0  0  0  0
   19.0601   -8.6350  -16.7519 C   0  0  0  0  0  0  0  0  0  0  0  0
   18.3852   -8.3777  -15.7476 O   0  0  0  0  0  0  0  0  0  0  0  0
   20.0603   -7.7017  -17.1377 N   0  0  0  0  0  0  0  0  0  0  0  0
   20.3447   -6.5109  -16.3307 C   0  0  1  0  0  0  0  0  0  0  0  0
   21.7168   -6.6023  -15.7021 C   0  0  0  0  0  0  0  0  0  0  0  0
   21.8748   -7.7523  -14.8125 C   0  0  0  0  0  0  0  0  0  0  0  0
   20.9800   -8.1151  -13.8332 C   0  0  0  0  0  0  0  0  0  0  0  0
   21.4515   -9.2049  -13.2282 N   0  0  0  0  0  0  0  0  0  0  0  0
   22.6276   -9.5566  -13.7901 C   0  0  0  0  0  0  0  0  0  0  0  0
   22.8703   -8.6469  -14.7657 N   0  0  0  0  0  0  0  0  0  0  0  0
   20.3378   -5.3351  -17.2145 C   0  0  0  0  0  0  0  0  0  0  0  0
   20.6364   -5.4540  -18.4183 O   0  0  0  0  0  0  0  0  0  0  0  0
   19.9924   -4.0685  -16.6996 N   0  0  0  0  0  0  0  0  0  0  0  0
   19.9034   -2.8810  -17.5501 C   0  0  0  0  0  0  0  0  0  0  0  0
   21.2383   -2.2928  -17.6488 C   0  0  0  0  0  0  0  0  0  0  0  0
   21.4689   -1.1359  -18.3777 O   0  0  0  0  0  0  0  0  0  0  0  0
   22.1991   -2.8673  -17.0466 O   0  0  0  0  0  0  0  0  0  0  0  0
  1  2  1  0
  3  2  1  0
  4  3  1  0
  5  4  1  0
  5  7  1  0
  5  6  1  1
  7  8  2  0
  7  9  1  0
  9 10  1  0
 10 17  1  0
 10 11  1  6
 12 11  1  0
 12 13  2  0
 14 13  1  0
 15 14  1  0
 16 15  2  0
 16 12  1  0
 17 19  1  0
 17 18  2  0
 19 20  1  0
 21 20  1  0
 21 22  1  0
 23 21  2  0
M  END
$$$$
