MHG.pdb
     RDKit          3D

 23 23  0  0  1  0  0  0  0  0999 V2000
   23.3605  -15.5808  -19.2880 C   0  0  0  0  0  0  0  0  0  0  0  0
   21.7957  -15.4617  -18.3894 S   0  0  0  0  0  0  0  0  0  0  0  0
   21.2365  -13.7359  -18.2777 C   0  0  0  0  0  0  0  0  0  0  0  0
   22.1247  -12.9351  -17.3533 C   0  0  0  0  0  0  0  0  0  0  0  0
   21.6256  -11.5112  -17.3605 C   0  0  2  0  0  0  0  0  0  0  0  0
   21.6877  -11.0294  -18.7166 N   0  0  0  0  0  0  0  0  0  0  0  0
   22.4154  -10.6494  -16.4314 C   0  0  0  0  0  0  0  0  0  0  0  0
   22.5149  -10.8654  -15.2174 O   0  0  0  0  0  0  0  0  0  0  0  0
   23.0921   -9.5182  -16.9629 N   0  0  0  0  0  0  0  0  0  0  0  0
   23.8039   -8.5766  -16.0930 C   0  0  1  0  0  0  0  0  0  0  0  0
   25.2483   -8.4380  -16.5183 C   0  0  0  0  0  0  0  0  0  0  0  0
   26.0263   -9.6646  -16.3476 C   0  0  0  0  0  0  0  0  0  0  0  0
   25.7821  -10.6213  -15.3903 C   0  0  0  0  0  0  0  0  0  0  0  0
   26.6862  -11.5896  -15.5362 N   0  0  0  0  0  0  0  0  0  0  0  0
   27.5085  -11.2845  -16.5625 C   0  0  0  0  0  0  0  0  0  0  0  0
   27.0837  -10.0925  -17.0492 N   0  0  0  0  0  0  0  0  0  0  0  0
   23.1736   -7.2538  -16.2216 C   0  0  0  0  0  0  0  0  0  0  0  0
   22.9908   -6.7533  -17.3479 O   0  0  0  0  0  0  0  0  0  0  0  0
   22.7741   -6.5483  -15.0677 N   0  0  0  0  0  0  0  0  0  0  0  0
   22.2152   -5.1977  -15.1363 C   0  0  0  0  0  0  0  0  0  0  0  0
   21.8420   -4.7921  -13.7821 C   0  0  0  0  0  0  0  0  0  0  0  0
   21.4465   -3.4939  -13.4969 O   0  0  0  0  0  0  0  0  0  0  0  0
   21.8862   -5.6615  -12.8558 O   0  0  0  0  0  0  0  0  0  0  0  0
  1  2  1  0
  3  2  1  0
  4  3  1  0
  5  4  1  0
  5  7  1  0
  5  6  1  6
  7  8  2  0
  7  9  1  0
  9 10  1  0
 10 17  1  0
 10 11  1  6
 12 11  1  0
 12 13  2  0
 14 13  1  0
 15 14  1  0
 16 15  2  0
 16 12  1  0
 17 19  1  0
 17 18  2  0
 19 20  1  0
 21 20  1  0
 21 22  1  0
 23 21  2  0
M  END
$$$$
