FVD.pdb
     RDKit          3D

 27 27  0  0  1  0  0  0  0  0999 V2000
    5.9373  -18.0945   26.0561 N   0  0  0  0  0  0  0  0  0  0  0  0
    6.3200  -16.7207   25.7810 C   0  0  1  0  0  0  0  0  0  0  0  0
    6.9329  -16.1340   27.0341 C   0  0  0  0  0  0  0  0  0  0  0  0
    6.7779  -14.6606   26.9981 C   0  0  0  0  0  0  0  0  0  0  0  0
    5.5160  -14.1194   26.9520 C   0  0  0  0  0  0  0  0  0  0  0  0
    5.3970  -12.7439   26.9183 C   0  0  0  0  0  0  0  0  0  0  0  0
    6.5183  -11.9244   26.9305 C   0  0  0  0  0  0  0  0  0  0  0  0
    7.7754  -12.4821   26.9768 C   0  0  0  0  0  0  0  0  0  0  0  0
    7.8860  -13.8706   27.0105 C   0  0  0  0  0  0  0  0  0  0  0  0
    7.3081  -16.6236   24.6965 C   0  0  0  0  0  0  0  0  0  0  0  0
    8.1828  -17.5075   24.6066 O   0  0  0  0  0  0  0  0  0  0  0  0
    6.4837  -14.2375   21.2260 C   0  0  0  0  0  0  0  0  0  0  0  0
    7.9131  -14.3058   21.7261 C   0  0  2  0  0  0  0  0  0  0  0  0
    8.9032  -14.2123   20.5776 C   0  0  0  0  0  0  0  0  0  0  0  0
    8.1586  -15.4800   22.6098 C   0  0  2  0  0  0  0  0  0  0  0  0
    7.3137  -15.5816   23.7560 N   0  0  0  0  0  0  0  0  0  0  0  0
    9.6041  -15.4981   22.9849 C   0  0  0  0  0  0  0  0  0  0  0  0
   10.0158  -14.5740   23.7423 O   0  0  0  0  0  0  0  0  0  0  0  0
   10.5208  -16.4630   22.5556 N   0  0  0  0  0  0  0  0  0  0  0  0
   11.9096  -16.5243   22.9844 C   0  0  1  0  0  0  0  0  0  0  0  0
   12.2602  -17.7529   23.7476 C   0  0  0  0  0  0  0  0  0  0  0  0
   13.6828  -17.7366   24.1096 C   0  0  0  0  0  0  0  0  0  0  0  0
   14.5176  -18.4603   23.5234 O   0  0  0  0  0  0  0  0  0  0  0  0
   12.8360  -16.3615   21.8460 C   0  0  0  0  0  0  0  0  0  0  0  0
   13.9805  -15.6148   22.0034 O   0  0  0  0  0  0  0  0  0  0  0  0
   14.1842  -16.9096   25.1315 O   0  0  0  0  0  0  0  0  0  0  0  0
   12.5899  -16.8927   20.7488 O   0  0  0  0  0  0  0  0  0  0  0  0
  2  1  1  1
  3  2  1  0
  4  3  1  0
  4  5  2  0
  6  5  1  0
  7  6  2  0
  8  9  2  0
  8  7  1  0
  9  4  1  0
 10  2  1  0
 11 10  2  0
 13 15  1  0
 13 12  1  6
 14 13  1  0
 15 16  1  1
 16 10  1  0
 17 19  1  0
 17 15  1  0
 18 17  2  0
 20 19  1  0
 21 22  1  0
 20 21  1  6
 22 23  2  0
 22 26  1  0
 24 25  1  0
 24 20  1  0
 27 24  2  0
M  END
$$$$
