FVD.pdb
     RDKit          3D

 27 27  0  0  1  0  0  0  0  0999 V2000
    6.1381  -17.8396   25.9699 N   0  0  0  0  0  0  0  0  0  0  0  0
    6.5119  -16.5079   25.5267 C   0  0  1  0  0  0  0  0  0  0  0  0
    7.2991  -15.8384   26.6322 C   0  0  0  0  0  0  0  0  0  0  0  0
    6.9464  -14.3994   26.6671 C   0  0  0  0  0  0  0  0  0  0  0  0
    7.9503  -13.4636   26.7290 C   0  0  0  0  0  0  0  0  0  0  0  0
    7.5968  -12.1290   26.7613 C   0  0  0  0  0  0  0  0  0  0  0  0
    6.2648  -11.7367   26.7321 C   0  0  0  0  0  0  0  0  0  0  0  0
    5.2710  -12.6865   26.6701 C   0  0  0  0  0  0  0  0  0  0  0  0
    5.6367  -14.0305   26.6379 C   0  0  0  0  0  0  0  0  0  0  0  0
    7.3491  -16.5370   24.3182 C   0  0  0  0  0  0  0  0  0  0  0  0
    8.1374  -17.4901   24.1624 O   0  0  0  0  0  0  0  0  0  0  0  0
    8.4011  -14.5259   19.8333 C   0  0  0  0  0  0  0  0  0  0  0  0
    7.7726  -14.3718   21.2042 C   0  0  2  0  0  0  0  0  0  0  0  0
    8.2364  -13.0935   21.8819 C   0  0  0  0  0  0  0  0  0  0  0  0
    7.9510  -15.5792   22.0587 C   0  0  2  0  0  0  0  0  0  0  0  0
    7.3030  -15.5411   23.3300 N   0  0  0  0  0  0  0  0  0  0  0  0
    9.4128  -15.8555   22.1910 C   0  0  0  0  0  0  0  0  0  0  0  0
   10.0597  -15.1570   23.0221 O   0  0  0  0  0  0  0  0  0  0  0  0
   10.1032  -16.8284   21.4612 N   0  0  0  0  0  0  0  0  0  0  0  0
   11.5263  -17.0994   21.5955 C   0  0  1  0  0  0  0  0  0  0  0  0
   11.9126  -18.5039   21.2905 C   0  0  0  0  0  0  0  0  0  0  0  0
   11.2719  -19.4235   22.2386 C   0  0  0  0  0  0  0  0  0  0  0  0
   11.2727  -19.2029   23.4697 O   0  0  0  0  0  0  0  0  0  0  0  0
   12.3341  -16.1702   20.7803 C   0  0  0  0  0  0  0  0  0  0  0  0
   13.6141  -15.8574   21.1755 O   0  0  0  0  0  0  0  0  0  0  0  0
   10.6240  -20.5992   21.8170 O   0  0  0  0  0  0  0  0  0  0  0  0
   11.8674  -15.6696   19.7420 O   0  0  0  0  0  0  0  0  0  0  0  0
  2  1  1  1
  3  2  1  0
  4  3  1  0
  4  5  2  0
  6  5  1  0
  7  6  2  0
  8  9  2  0
  8  7  1  0
  9  4  1  0
 10  2  1  0
 11 10  2  0
 13 15  1  0
 13 12  1  6
 14 13  1  0
 15 16  1  1
 16 10  1  0
 17 19  1  0
 17 15  1  0
 18 17  2  0
 20 19  1  0
 21 22  1  0
 20 21  1  6
 22 23  2  0
 22 26  1  0
 24 25  1  0
 24 20  1  0
 27 24  2  0
M  END
$$$$
