FVD.pdb
     RDKit          3D

 27 27  0  0  1  0  0  0  0  0999 V2000
    6.3511  -17.7599   26.0375 N   0  0  0  0  0  0  0  0  0  0  0  0
    6.7473  -16.4539   25.5405 C   0  0  1  0  0  0  0  0  0  0  0  0
    7.6094  -15.7839   26.5883 C   0  0  0  0  0  0  0  0  0  0  0  0
    7.1539  -14.3840   26.7592 C   0  0  0  0  0  0  0  0  0  0  0  0
    5.8156  -14.0951   26.6456 C   0  0  0  0  0  0  0  0  0  0  0  0
    5.4154  -12.7834   26.8081 C   0  0  0  0  0  0  0  0  0  0  0  0
    6.3355  -11.7789   27.0792 C   0  0  0  0  0  0  0  0  0  0  0  0
    7.6726  -12.0848   27.1899 C   0  0  0  0  0  0  0  0  0  0  0  0
    8.0673  -13.4107   27.0245 C   0  0  0  0  0  0  0  0  0  0  0  0
    7.5232  -16.5433   24.2947 C   0  0  0  0  0  0  0  0  0  0  0  0
    8.2493  -17.5407   24.1153 O   0  0  0  0  0  0  0  0  0  0  0  0
    8.0054  -13.2115   21.3068 C   0  0  0  0  0  0  0  0  0  0  0  0
    7.6571  -14.6550   21.0018 C   0  0  2  0  0  0  0  0  0  0  0  0
    6.1721  -14.8162   20.7241 C   0  0  0  0  0  0  0  0  0  0  0  0
    8.1595  -15.6000   22.0384 C   0  0  2  0  0  0  0  0  0  0  0  0
    7.4853  -15.5576   23.2959 N   0  0  0  0  0  0  0  0  0  0  0  0
    9.6312  -15.3972   22.1927 C   0  0  0  0  0  0  0  0  0  0  0  0
   10.0089  -14.3907   22.8571 O   0  0  0  0  0  0  0  0  0  0  0  0
   10.6069  -16.2420   21.6543 N   0  0  0  0  0  0  0  0  0  0  0  0
   11.9666  -16.3529   22.1598 C   0  0  1  0  0  0  0  0  0  0  0  0
   12.0556  -16.7198   23.5993 C   0  0  0  0  0  0  0  0  0  0  0  0
   13.4610  -16.8106   24.0137 C   0  0  0  0  0  0  0  0  0  0  0  0
   14.2369  -15.8340   23.9220 O   0  0  0  0  0  0  0  0  0  0  0  0
   12.7695  -17.2938   21.3533 C   0  0  0  0  0  0  0  0  0  0  0  0
   12.1798  -18.4289   20.8473 O   0  0  0  0  0  0  0  0  0  0  0  0
   14.0111  -17.9963   24.5347 O   0  0  0  0  0  0  0  0  0  0  0  0
   13.9717  -17.0684   21.1285 O   0  0  0  0  0  0  0  0  0  0  0  0
  2  1  1  1
  3  2  1  0
  4  3  1  0
  4  5  2  0
  6  5  1  0
  7  6  2  0
  8  9  2  0
  8  7  1  0
  9  4  1  0
 10  2  1  0
 11 10  2  0
 13 15  1  0
 13 12  1  1
 14 13  1  0
 15 16  1  1
 16 10  1  0
 17 19  1  0
 17 15  1  0
 18 17  2  0
 20 19  1  0
 21 22  1  0
 20 21  1  1
 22 23  2  0
 22 26  1  0
 24 25  1  0
 24 20  1  0
 27 24  2  0
M  END
$$$$
