FVD.pdb
     RDKit          3D

 27 27  0  0  1  0  0  0  0  0999 V2000
    5.9182  -17.0955   25.9686 N   0  0  0  0  0  0  0  0  0  0  0  0
    6.6080  -16.0046   25.3025 C   0  0  1  0  0  0  0  0  0  0  0  0
    7.6102  -15.4107   26.2683 C   0  0  0  0  0  0  0  0  0  0  0  0
    7.2050  -14.0205   26.5838 C   0  0  0  0  0  0  0  0  0  0  0  0
    8.0578  -13.2200   27.3046 C   0  0  0  0  0  0  0  0  0  0  0  0
    7.6578  -11.9287   27.5869 C   0  0  0  0  0  0  0  0  0  0  0  0
    6.4284  -11.4462   27.1570 C   0  0  0  0  0  0  0  0  0  0  0  0
    5.5857  -12.2607   26.4360 C   0  0  0  0  0  0  0  0  0  0  0  0
    5.9973  -13.5620   26.1557 C   0  0  0  0  0  0  0  0  0  0  0  0
    7.3331  -16.4524   24.1043 C   0  0  0  0  0  0  0  0  0  0  0  0
    7.7936  -17.6107   24.0848 O   0  0  0  0  0  0  0  0  0  0  0  0
    8.7405  -13.7241   20.8675 C   0  0  0  0  0  0  0  0  0  0  0  0
    8.0656  -15.0615   20.6360 C   0  0  2  0  0  0  0  0  0  0  0  0
    6.6155  -14.8817   20.2198 C   0  0  0  0  0  0  0  0  0  0  0  0
    8.2278  -15.9952   21.7857 C   0  0  2  0  0  0  0  0  0  0  0  0
    7.5320  -15.6365   22.9794 N   0  0  0  0  0  0  0  0  0  0  0  0
    9.6871  -16.1932   22.0344 C   0  0  0  0  0  0  0  0  0  0  0  0
   10.2472  -15.4025   22.8457 O   0  0  0  0  0  0  0  0  0  0  0  0
   10.4643  -17.1880   21.4327 N   0  0  0  0  0  0  0  0  0  0  0  0
   11.8912  -17.3626   21.6564 C   0  0  1  0  0  0  0  0  0  0  0  0
   12.3649  -18.7663   21.5148 C   0  0  0  0  0  0  0  0  0  0  0  0
   11.6805  -19.6327   22.4822 C   0  0  0  0  0  0  0  0  0  0  0  0
   11.7186  -19.4031   23.7111 O   0  0  0  0  0  0  0  0  0  0  0  0
   12.6887  -16.4754   20.7861 C   0  0  0  0  0  0  0  0  0  0  0  0
   12.1224  -15.9550   19.6456 O   0  0  0  0  0  0  0  0  0  0  0  0
   10.9466  -20.7648   22.0828 O   0  0  0  0  0  0  0  0  0  0  0  0
   13.8654  -16.1959   21.0755 O   0  0  0  0  0  0  0  0  0  0  0  0
  2  1  1  1
  3  2  1  0
  4  3  1  0
  4  5  2  0
  6  5  1  0
  7  6  2  0
  8  9  2  0
  8  7  1  0
  9  4  1  0
 10  2  1  0
 11 10  2  0
 13 15  1  0
 13 12  1  1
 14 13  1  0
 15 16  1  1
 16 10  1  0
 17 19  1  0
 17 15  1  0
 18 17  2  0
 20 19  1  0
 21 22  1  0
 20 21  1  6
 22 23  2  0
 22 26  1  0
 24 25  1  0
 24 20  1  0
 27 24  2  0
M  END
$$$$
