FVD.pdb
     RDKit          3D

 27 27  0  0  1  0  0  0  0  0999 V2000
    6.0672  -17.6441   26.2621 N   0  0  0  0  0  0  0  0  0  0  0  0
    6.5893  -16.4019   25.7200 C   0  0  1  0  0  0  0  0  0  0  0  0
    7.3904  -15.7072   26.7998 C   0  0  0  0  0  0  0  0  0  0  0  0
    7.0701  -14.2604   26.7773 C   0  0  0  0  0  0  0  0  0  0  0  0
    5.7603  -13.8647   26.6542 C   0  0  0  0  0  0  0  0  0  0  0  0
    5.4869  -12.5112   26.6349 C   0  0  0  0  0  0  0  0  0  0  0  0
    6.5036  -11.5704   26.7368 C   0  0  0  0  0  0  0  0  0  0  0  0
    7.8105  -11.9831   26.8596 C   0  0  0  0  0  0  0  0  0  0  0  0
    8.0772  -13.3505   26.8781 C   0  0  0  0  0  0  0  0  0  0  0  0
    7.4708  -16.6246   24.5644 C   0  0  0  0  0  0  0  0  0  0  0  0
    8.1691  -17.6571   24.5381 O   0  0  0  0  0  0  0  0  0  0  0  0
    8.5750  -13.5650   21.4741 C   0  0  0  0  0  0  0  0  0  0  0  0
    8.0422  -14.9554   21.1898 C   0  0  2  0  0  0  0  0  0  0  0  0
    6.5742  -14.9135   20.8006 C   0  0  0  0  0  0  0  0  0  0  0  0
    8.3228  -15.9165   22.2933 C   0  0  2  0  0  0  0  0  0  0  0  0
    7.5638  -15.7288   23.4877 N   0  0  0  0  0  0  0  0  0  0  0  0
    9.7914  -15.9122   22.5648 C   0  0  0  0  0  0  0  0  0  0  0  0
   10.2601  -14.9196   23.1909 O   0  0  0  0  0  0  0  0  0  0  0  0
   10.6710  -16.9269   22.1743 N   0  0  0  0  0  0  0  0  0  0  0  0
   12.1083  -16.8985   22.3975 C   0  0  1  0  0  0  0  0  0  0  0  0
   12.6800  -18.1903   22.8657 C   0  0  0  0  0  0  0  0  0  0  0  0
   12.2461  -18.4686   24.2402 C   0  0  0  0  0  0  0  0  0  0  0  0
   12.3710  -17.6219   25.1522 O   0  0  0  0  0  0  0  0  0  0  0  0
   12.8340  -16.4360   21.1976 C   0  0  0  0  0  0  0  0  0  0  0  0
   14.1866  -16.1964   21.2724 O   0  0  0  0  0  0  0  0  0  0  0  0
   11.6680  -19.6980   24.6067 O   0  0  0  0  0  0  0  0  0  0  0  0
   12.2334  -16.2618   20.1227 O   0  0  0  0  0  0  0  0  0  0  0  0
  2  1  1  1
  3  2  1  0
  4  3  1  0
  4  5  2  0
  6  5  1  0
  7  6  2  0
  8  9  2  0
  8  7  1  0
  9  4  1  0
 10  2  1  0
 11 10  2  0
 13 15  1  0
 13 12  1  1
 14 13  1  0
 15 16  1  1
 16 10  1  0
 17 19  1  0
 17 15  1  0
 18 17  2  0
 20 19  1  0
 21 22  1  0
 20 21  1  6
 22 23  2  0
 22 26  1  0
 24 25  1  0
 24 20  1  0
 27 24  2  0
M  END
$$$$
