FVD.pdb
     RDKit          3D

 27 27  0  0  1  0  0  0  0  0999 V2000
    6.1414  -18.0810   26.0441 N   0  0  0  0  0  0  0  0  0  0  0  0
    6.5205  -16.7201   25.7071 C   0  0  1  0  0  0  0  0  0  0  0  0
    7.1242  -16.0730   26.9347 C   0  0  0  0  0  0  0  0  0  0  0  0
    6.8182  -14.6231   26.9109 C   0  0  0  0  0  0  0  0  0  0  0  0
    5.5069  -14.2142   26.8855 C   0  0  0  0  0  0  0  0  0  0  0  0
    5.2468  -12.8581   26.8629 C   0  0  0  0  0  0  0  0  0  0  0  0
    6.2781  -11.9277   26.8657 C   0  0  0  0  0  0  0  0  0  0  0  0
    7.5863  -12.3536   26.8912 C   0  0  0  0  0  0  0  0  0  0  0  0
    7.8394  -13.7235   26.9139 C   0  0  0  0  0  0  0  0  0  0  0  0
    7.5143  -16.6699   24.6246 C   0  0  0  0  0  0  0  0  0  0  0  0
    8.2602  -17.6543   24.4546 O   0  0  0  0  0  0  0  0  0  0  0  0
    6.8184  -14.1696   21.2807 C   0  0  0  0  0  0  0  0  0  0  0  0
    8.2605  -14.3171   21.7241 C   0  0  2  0  0  0  0  0  0  0  0  0
    9.2082  -14.2781   20.5372 C   0  0  0  0  0  0  0  0  0  0  0  0
    8.4754  -15.5034   22.5995 C   0  0  2  0  0  0  0  0  0  0  0  0
    7.6636  -15.5647   23.7721 N   0  0  0  0  0  0  0  0  0  0  0  0
    9.9295  -15.5939   22.9282 C   0  0  0  0  0  0  0  0  0  0  0  0
   10.4130  -14.6866   23.6631 O   0  0  0  0  0  0  0  0  0  0  0  0
   10.7804  -16.6088   22.4790 N   0  0  0  0  0  0  0  0  0  0  0  0
   12.1450  -16.8023   22.9450 C   0  0  1  0  0  0  0  0  0  0  0  0
   12.4942  -18.2179   23.2431 C   0  0  0  0  0  0  0  0  0  0  0  0
   13.8677  -18.3047   23.7539 C   0  0  0  0  0  0  0  0  0  0  0  0
   14.8279  -18.5995   23.0085 O   0  0  0  0  0  0  0  0  0  0  0  0
   13.1263  -16.2336   21.9994 C   0  0  0  0  0  0  0  0  0  0  0  0
   14.2048  -15.5292   22.4820 O   0  0  0  0  0  0  0  0  0  0  0  0
   14.1793  -18.0624   25.1044 O   0  0  0  0  0  0  0  0  0  0  0  0
   12.9855  -16.3862   20.7732 O   0  0  0  0  0  0  0  0  0  0  0  0
  2  1  1  1
  3  2  1  0
  4  3  1  0
  4  5  2  0
  6  5  1  0
  7  6  2  0
  8  9  2  0
  8  7  1  0
  9  4  1  0
 10  2  1  0
 11 10  2  0
 13 15  1  0
 13 12  1  6
 14 13  1  0
 15 16  1  1
 16 10  1  0
 17 19  1  0
 17 15  1  0
 18 17  2  0
 20 19  1  0
 21 22  1  0
 20 21  1  6
 22 23  2  0
 22 26  1  0
 24 25  1  0
 24 20  1  0
 27 24  2  0
M  END
$$$$
