FVD.pdb
     RDKit          3D

 27 27  0  0  1  0  0  0  0  0999 V2000
    6.2062  -17.1554   25.7097 N   0  0  0  0  0  0  0  0  0  0  0  0
    6.6413  -15.8896   25.1460 C   0  0  1  0  0  0  0  0  0  0  0  0
    7.7567  -15.3394   26.0080 C   0  0  0  0  0  0  0  0  0  0  0  0
    7.3535  -14.0085   26.5205 C   0  0  0  0  0  0  0  0  0  0  0  0
    6.0702  -13.5673   26.3062 C   0  0  0  0  0  0  0  0  0  0  0  0
    5.7183  -12.3237   26.7926 C   0  0  0  0  0  0  0  0  0  0  0  0
    6.6318  -11.5353   27.4804 C   0  0  0  0  0  0  0  0  0  0  0  0
    7.9135  -11.9917   27.6867 C   0  0  0  0  0  0  0  0  0  0  0  0
    8.2598  -13.2475   27.1926 C   0  0  0  0  0  0  0  0  0  0  0  0
    7.1493  -16.0355   23.7739 C   0  0  0  0  0  0  0  0  0  0  0  0
    7.4816  -17.1704   23.3792 O   0  0  0  0  0  0  0  0  0  0  0  0
    8.0104  -13.9116   19.3051 C   0  0  0  0  0  0  0  0  0  0  0  0
    7.7035  -13.7359   20.7792 C   0  0  2  0  0  0  0  0  0  0  0  0
    8.6032  -12.6852   21.4074 C   0  0  0  0  0  0  0  0  0  0  0  0
    7.7077  -15.0251   21.5260 C   0  0  2  0  0  0  0  0  0  0  0  0
    7.2783  -14.9562   22.8856 N   0  0  0  0  0  0  0  0  0  0  0  0
    9.0635  -15.6398   21.4048 C   0  0  0  0  0  0  0  0  0  0  0  0
    9.3484  -16.1980   20.3074 O   0  0  0  0  0  0  0  0  0  0  0  0
   10.0271  -15.6363   22.4182 N   0  0  0  0  0  0  0  0  0  0  0  0
   11.2475  -16.4278   22.3934 C   0  0  1  0  0  0  0  0  0  0  0  0
   12.4947  -15.6341   22.5647 C   0  0  0  0  0  0  0  0  0  0  0  0
   13.1755  -15.4742   21.2739 C   0  0  0  0  0  0  0  0  0  0  0  0
   12.9052  -16.2035   20.2944 O   0  0  0  0  0  0  0  0  0  0  0  0
   11.2072  -17.5171   23.3896 C   0  0  0  0  0  0  0  0  0  0  0  0
   12.2155  -18.4525   23.4140 O   0  0  0  0  0  0  0  0  0  0  0  0
   14.1657  -14.4961   21.0677 O   0  0  0  0  0  0  0  0  0  0  0  0
   10.2712  -17.5950   24.2046 O   0  0  0  0  0  0  0  0  0  0  0  0
  2  1  1  1
  3  2  1  0
  4  3  1  0
  4  5  2  0
  6  5  1  0
  7  6  2  0
  8  9  2  0
  8  7  1  0
  9  4  1  0
 10  2  1  0
 11 10  2  0
 13 15  1  0
 13 12  1  6
 14 13  1  0
 15 16  1  1
 16 10  1  0
 17 19  1  0
 17 15  1  0
 18 17  2  0
 20 19  1  0
 21 22  1  0
 20 21  1  1
 22 23  2  0
 22 26  1  0
 24 25  1  0
 24 20  1  0
 27 24  2  0
M  END
$$$$
