FVD.pdb
     RDKit          3D

 27 27  0  0  1  0  0  0  0  0999 V2000
    5.7854  -17.8184   26.0353 N   0  0  0  0  0  0  0  0  0  0  0  0
    6.3614  -16.5402   25.6560 C   0  0  1  0  0  0  0  0  0  0  0  0
    7.2187  -16.0428   26.7995 C   0  0  0  0  0  0  0  0  0  0  0  0
    7.2482  -14.5614   26.7664 C   0  0  0  0  0  0  0  0  0  0  0  0
    6.0638  -13.8657   26.7912 C   0  0  0  0  0  0  0  0  0  0  0  0
    6.1169  -12.4861   26.7587 C   0  0  0  0  0  0  0  0  0  0  0  0
    7.3311  -11.8141   26.7024 C   0  0  0  0  0  0  0  0  0  0  0  0
    8.5087  -12.5256   26.6781 C   0  0  0  0  0  0  0  0  0  0  0  0
    8.4457  -13.9170   26.7112 C   0  0  0  0  0  0  0  0  0  0  0  0
    7.2072  -16.6433   24.4577 C   0  0  0  0  0  0  0  0  0  0  0  0
    7.8364  -17.7016   24.2620 O   0  0  0  0  0  0  0  0  0  0  0  0
    8.7582  -14.6453   20.1278 C   0  0  0  0  0  0  0  0  0  0  0  0
    7.9547  -14.4906   21.4038 C   0  0  2  0  0  0  0  0  0  0  0  0
    8.1838  -13.1286   22.0370 C   0  0  0  0  0  0  0  0  0  0  0  0
    8.1651  -15.6163   22.3570 C   0  0  2  0  0  0  0  0  0  0  0  0
    7.3405  -15.6053   23.5221 N   0  0  0  0  0  0  0  0  0  0  0  0
    9.6158  -15.6776   22.7067 C   0  0  0  0  0  0  0  0  0  0  0  0
   10.0828  -14.7313   23.4019 O   0  0  0  0  0  0  0  0  0  0  0  0
   10.4805  -16.7056   22.3176 N   0  0  0  0  0  0  0  0  0  0  0  0
   11.8970  -16.7550   22.6455 C   0  0  1  0  0  0  0  0  0  0  0  0
   12.6627  -15.5474   22.2327 C   0  0  0  0  0  0  0  0  0  0  0  0
   13.5051  -15.8538   21.0702 C   0  0  0  0  0  0  0  0  0  0  0  0
   14.4095  -15.0771   20.6918 O   0  0  0  0  0  0  0  0  0  0  0  0
   12.1117  -17.0161   24.0830 C   0  0  0  0  0  0  0  0  0  0  0  0
   13.3844  -17.2556   24.5469 O   0  0  0  0  0  0  0  0  0  0  0  0
   13.3430  -17.0332   20.3202 O   0  0  0  0  0  0  0  0  0  0  0  0
   11.1532  -17.0210   24.8753 O   0  0  0  0  0  0  0  0  0  0  0  0
  2  1  1  1
  3  2  1  0
  4  3  1  0
  4  5  2  0
  6  5  1  0
  7  6  2  0
  8  9  2  0
  8  7  1  0
  9  4  1  0
 10  2  1  0
 11 10  2  0
 13 15  1  0
 13 12  1  6
 14 13  1  0
 15 16  1  1
 16 10  1  0
 17 19  1  0
 17 15  1  0
 18 17  2  0
 20 19  1  0
 21 22  1  0
 20 21  1  1
 22 23  2  0
 22 26  1  0
 24 25  1  0
 24 20  1  0
 27 24  2  0
M  END
$$$$
