FVD.pdb
     RDKit          3D

 27 27  0  0  1  0  0  0  0  0999 V2000
    5.6116  -18.0099   25.8489 N   0  0  0  0  0  0  0  0  0  0  0  0
    6.1937  -16.7024   25.6017 C   0  0  1  0  0  0  0  0  0  0  0  0
    6.8644  -16.2284   26.8728 C   0  0  0  0  0  0  0  0  0  0  0  0
    7.0733  -14.7637   26.7862 C   0  0  0  0  0  0  0  0  0  0  0  0
    8.3531  -14.2653   26.8172 C   0  0  0  0  0  0  0  0  0  0  0  0
    8.5224  -12.8971   26.7358 C   0  0  0  0  0  0  0  0  0  0  0  0
    7.4329  -12.0428   26.6255 C   0  0  0  0  0  0  0  0  0  0  0  0
    6.1573  -12.5579   26.5959 C   0  0  0  0  0  0  0  0  0  0  0  0
    5.9958  -13.9393   26.6785 C   0  0  0  0  0  0  0  0  0  0  0  0
    7.2032  -16.7344   24.5331 C   0  0  0  0  0  0  0  0  0  0  0  0
    7.9474  -17.7309   24.4463 O   0  0  0  0  0  0  0  0  0  0  0  0
    6.7602  -14.4095   21.0334 C   0  0  0  0  0  0  0  0  0  0  0  0
    8.1695  -14.5260   21.5795 C   0  0  2  0  0  0  0  0  0  0  0  0
    9.1933  -14.5636   20.4576 C   0  0  0  0  0  0  0  0  0  0  0  0
    8.3226  -15.6523   22.5428 C   0  0  2  0  0  0  0  0  0  0  0  0
    7.3694  -15.6949   23.6045 N   0  0  0  0  0  0  0  0  0  0  0  0
    9.7245  -15.6494   23.0578 C   0  0  0  0  0  0  0  0  0  0  0  0
   10.0864  -14.6504   23.7420 O   0  0  0  0  0  0  0  0  0  0  0  0
   10.6519  -16.6719   22.8333 N   0  0  0  0  0  0  0  0  0  0  0  0
   12.0434  -16.6254   23.2554 C   0  0  1  0  0  0  0  0  0  0  0  0
   12.5831  -17.9297   23.7268 C   0  0  0  0  0  0  0  0  0  0  0  0
   12.0136  -18.2710   25.0361 C   0  0  0  0  0  0  0  0  0  0  0  0
   11.5957  -17.3905   25.8199 O   0  0  0  0  0  0  0  0  0  0  0  0
   12.9133  -16.0780   22.1952 C   0  0  0  0  0  0  0  0  0  0  0  0
   12.5154  -16.1596   20.8809 O   0  0  0  0  0  0  0  0  0  0  0  0
   11.9067  -19.6018   25.4803 O   0  0  0  0  0  0  0  0  0  0  0  0
   14.0001  -15.5451   22.4806 O   0  0  0  0  0  0  0  0  0  0  0  0
  2  1  1  1
  3  2  1  0
  4  3  1  0
  4  5  2  0
  6  5  1  0
  7  6  2  0
  8  9  2  0
  8  7  1  0
  9  4  1  0
 10  2  1  0
 11 10  2  0
 13 15  1  0
 13 12  1  6
 14 13  1  0
 15 16  1  1
 16 10  1  0
 17 19  1  0
 17 15  1  0
 18 17  2  0
 20 19  1  0
 21 22  1  0
 20 21  1  6
 22 23  2  0
 22 26  1  0
 24 25  1  0
 24 20  1  0
 27 24  2  0
M  END
$$$$
