FVD.pdb
     RDKit          3D

 27 27  0  0  1  0  0  0  0  0999 V2000
    5.9029  -18.0373   26.0782 N   0  0  0  0  0  0  0  0  0  0  0  0
    6.4007  -16.7221   25.7149 C   0  0  1  0  0  0  0  0  0  0  0  0
    7.1529  -16.1512   26.8974 C   0  0  0  0  0  0  0  0  0  0  0  0
    7.2317  -14.6787   26.7488 C   0  0  0  0  0  0  0  0  0  0  0  0
    8.4494  -14.0934   26.4996 C   0  0  0  0  0  0  0  0  0  0  0  0
    8.4977  -12.7198   26.3658 C   0  0  0  0  0  0  0  0  0  0  0  0
    7.3503  -11.9452   26.4790 C   0  0  0  0  0  0  0  0  0  0  0  0
    6.1382  -12.5468   26.7289 C   0  0  0  0  0  0  0  0  0  0  0  0
    6.0988  -13.9331   26.8624 C   0  0  0  0  0  0  0  0  0  0  0  0
    7.3174  -16.7706   24.5663 C   0  0  0  0  0  0  0  0  0  0  0  0
    8.1508  -17.6959   24.5078 O   0  0  0  0  0  0  0  0  0  0  0  0
    8.7074  -14.8709   20.1301 C   0  0  0  0  0  0  0  0  0  0  0  0
    7.8633  -14.7398   21.3824 C   0  0  2  0  0  0  0  0  0  0  0  0
    7.9585  -13.3405   21.9666 C   0  0  0  0  0  0  0  0  0  0  0  0
    8.1473  -15.8068   22.3827 C   0  0  2  0  0  0  0  0  0  0  0  0
    7.2990  -15.8231   23.5306 N   0  0  0  0  0  0  0  0  0  0  0  0
    9.5899  -15.7303   22.7621 C   0  0  0  0  0  0  0  0  0  0  0  0
    9.9443  -14.7618   23.4925 O   0  0  0  0  0  0  0  0  0  0  0  0
   10.5624  -16.6531   22.3645 N   0  0  0  0  0  0  0  0  0  0  0  0
   11.9705  -16.5665   22.7200 C   0  0  1  0  0  0  0  0  0  0  0  0
   12.5693  -17.8545   23.1641 C   0  0  0  0  0  0  0  0  0  0  0  0
   11.9375  -18.3047   24.4103 C   0  0  0  0  0  0  0  0  0  0  0  0
   12.0009  -17.6279   25.4602 O   0  0  0  0  0  0  0  0  0  0  0  0
   12.7729  -15.9948   21.6201 C   0  0  0  0  0  0  0  0  0  0  0  0
   12.2497  -15.9531   20.3486 O   0  0  0  0  0  0  0  0  0  0  0  0
   11.2286  -19.5173   24.4929 O   0  0  0  0  0  0  0  0  0  0  0  0
   13.9151  -15.5519   21.8339 O   0  0  0  0  0  0  0  0  0  0  0  0
  2  1  1  1
  3  2  1  0
  4  3  1  0
  4  5  2  0
  6  5  1  0
  7  6  2  0
  8  9  2  0
  8  7  1  0
  9  4  1  0
 10  2  1  0
 11 10  2  0
 13 15  1  0
 13 12  1  6
 14 13  1  0
 15 16  1  1
 16 10  1  0
 17 19  1  0
 17 15  1  0
 18 17  2  0
 20 19  1  0
 21 22  1  0
 20 21  1  6
 22 23  2  0
 22 26  1  0
 24 25  1  0
 24 20  1  0
 27 24  2  0
M  END
$$$$
