FVD.pdb
     RDKit          3D

 27 27  0  0  1  0  0  0  0  0999 V2000
    7.6132  -16.8753   26.8389 N   0  0  0  0  0  0  0  0  0  0  0  0
    6.6479  -16.9899   25.7597 C   0  0  1  0  0  0  0  0  0  0  0  0
    5.6586  -15.8510   25.8790 C   0  0  0  0  0  0  0  0  0  0  0  0
    6.3721  -14.6459   26.3637 C   0  0  0  0  0  0  0  0  0  0  0  0
    7.6743  -14.7614   26.7862 C   0  0  0  0  0  0  0  0  0  0  0  0
    8.3179  -13.6247   27.2342 C   0  0  0  0  0  0  0  0  0  0  0  0
    7.6723  -12.3952   27.2595 C   0  0  0  0  0  0  0  0  0  0  0  0
    6.3678  -12.2963   26.8329 C   0  0  0  0  0  0  0  0  0  0  0  0
    5.7263  -13.4481   26.3826 C   0  0  0  0  0  0  0  0  0  0  0  0
    7.2810  -16.9127   24.4348 C   0  0  0  0  0  0  0  0  0  0  0  0
    7.2999  -17.9361   23.7231 O   0  0  0  0  0  0  0  0  0  0  0  0
    6.9017  -13.8630   21.8200 C   0  0  0  0  0  0  0  0  0  0  0  0
    8.3525  -14.2555   22.0173 C   0  0  2  0  0  0  0  0  0  0  0  0
    9.1369  -14.1335   20.7218 C   0  0  0  0  0  0  0  0  0  0  0  0
    8.5056  -15.5885   22.6650 C   0  0  2  0  0  0  0  0  0  0  0  0
    7.8660  -15.7399   23.9322 N   0  0  0  0  0  0  0  0  0  0  0  0
    9.9607  -15.9172   22.7371 C   0  0  0  0  0  0  0  0  0  0  0  0
   10.6566  -15.2769   23.5753 O   0  0  0  0  0  0  0  0  0  0  0  0
   10.5947  -16.8790   21.9440 N   0  0  0  0  0  0  0  0  0  0  0  0
   11.9464  -17.3675   22.1693 C   0  0  1  0  0  0  0  0  0  0  0  0
   12.2120  -18.7162   21.5989 C   0  0  0  0  0  0  0  0  0  0  0  0
   11.8240  -18.7538   20.1836 C   0  0  0  0  0  0  0  0  0  0  0  0
   11.3539  -17.7496   19.6048 O   0  0  0  0  0  0  0  0  0  0  0  0
   12.9576  -16.4093   21.6794 C   0  0  0  0  0  0  0  0  0  0  0  0
   12.5722  -15.3779   20.8548 O   0  0  0  0  0  0  0  0  0  0  0  0
   11.9586  -19.9165   19.4027 O   0  0  0  0  0  0  0  0  0  0  0  0
   14.1517  -16.5274   22.0057 O   0  0  0  0  0  0  0  0  0  0  0  0
  2  1  1  1
  3  2  1  0
  4  3  1  0
  4  5  2  0
  6  5  1  0
  7  6  2  0
  8  9  2  0
  8  7  1  0
  9  4  1  0
 10  2  1  0
 11 10  2  0
 13 15  1  0
 13 12  1  6
 14 13  1  0
 15 16  1  1
 16 10  1  0
 17 19  1  0
 17 15  1  0
 18 17  2  0
 20 19  1  0
 21 22  1  0
 20 21  1  6
 22 23  2  0
 22 26  1  0
 24 25  1  0
 24 20  1  0
 27 24  2  0
M  END
$$$$
