FVD.pdb
     RDKit          3D

 27 27  0  0  1  0  0  0  0  0999 V2000
    5.5973  -17.2518   25.3678 N   0  0  0  0  0  0  0  0  0  0  0  0
    6.3403  -16.0507   25.0292 C   0  0  1  0  0  0  0  0  0  0  0  0
    7.1982  -15.6676   26.2155 C   0  0  0  0  0  0  0  0  0  0  0  0
    7.0995  -14.2037   26.4247 C   0  0  0  0  0  0  0  0  0  0  0  0
    8.1587  -13.4025   26.0732 C   0  0  0  0  0  0  0  0  0  0  0  0
    8.0434  -12.0417   26.2783 C   0  0  0  0  0  0  0  0  0  0  0  0
    6.8910  -11.4916   26.8246 C   0  0  0  0  0  0  0  0  0  0  0  0
    5.8389  -12.3078   27.1714 C   0  0  0  0  0  0  0  0  0  0  0  0
    5.9638  -13.6794   26.9610 C   0  0  0  0  0  0  0  0  0  0  0  0
    7.2216  -16.2486   23.8688 C   0  0  0  0  0  0  0  0  0  0  0  0
    7.8477  -17.3223   23.7726 O   0  0  0  0  0  0  0  0  0  0  0  0
    8.4067  -13.0043   21.0068 C   0  0  0  0  0  0  0  0  0  0  0  0
    7.9829  -14.4096   20.6284 C   0  0  2  0  0  0  0  0  0  0  0  0
    6.5505  -14.4353   20.1224 C   0  0  0  0  0  0  0  0  0  0  0  0
    8.2323  -15.3986   21.7145 C   0  0  2  0  0  0  0  0  0  0  0  0
    7.3918  -15.2847   22.8627 N   0  0  0  0  0  0  0  0  0  0  0  0
    9.6793  -15.3466   22.0809 C   0  0  0  0  0  0  0  0  0  0  0  0
    9.9960  -14.6478   23.0851 O   0  0  0  0  0  0  0  0  0  0  0  0
   10.6948  -16.0157   21.3903 N   0  0  0  0  0  0  0  0  0  0  0  0
   11.9144  -16.5160   22.0058 C   0  0  1  0  0  0  0  0  0  0  0  0
   11.6942  -17.5815   23.0212 C   0  0  0  0  0  0  0  0  0  0  0  0
   12.9790  -18.0338   23.5686 C   0  0  0  0  0  0  0  0  0  0  0  0
   14.0666  -17.5740   23.1563 O   0  0  0  0  0  0  0  0  0  0  0  0
   12.8807  -16.9835   20.9918 C   0  0  0  0  0  0  0  0  0  0  0  0
   14.2257  -16.9725   21.2798 O   0  0  0  0  0  0  0  0  0  0  0  0
   13.0582  -19.0056   24.5830 O   0  0  0  0  0  0  0  0  0  0  0  0
   12.4888  -17.3860   19.8823 O   0  0  0  0  0  0  0  0  0  0  0  0
  2  1  1  1
  3  2  1  0
  4  3  1  0
  4  5  2  0
  6  5  1  0
  7  6  2  0
  8  9  2  0
  8  7  1  0
  9  4  1  0
 10  2  1  0
 11 10  2  0
 13 15  1  0
 13 12  1  1
 14 13  1  0
 15 16  1  1
 16 10  1  0
 17 19  1  0
 17 15  1  0
 18 17  2  0
 20 19  1  0
 21 22  1  0
 20 21  1  1
 22 23  2  0
 22 26  1  0
 24 25  1  0
 24 20  1  0
 27 24  2  0
M  END
$$$$
