HFI.pdb
     RDKit          3D

 30 31  0  0  1  0  0  0  0  0999 V2000
   11.7949  -16.9798   19.6326 N   0  0  0  0  0  0  0  0  0  0  0  0
   10.7890  -17.5092   20.5278 C   0  0  1  0  0  0  0  0  0  0  0  0
   11.2995  -18.7957   21.0986 C   0  0  0  0  0  0  0  0  0  0  0  0
   10.8454  -19.9093   20.2297 C   0  0  0  0  0  0  0  0  0  0  0  0
   10.1138  -19.8714   19.0628 C   0  0  0  0  0  0  0  0  0  0  0  0
    9.9108  -21.1078   18.5807 N   0  0  0  0  0  0  0  0  0  0  0  0
   10.5136  -21.9514   19.4392 C   0  0  0  0  0  0  0  0  0  0  0  0
   11.0805  -21.2366   20.4378 N   0  0  0  0  0  0  0  0  0  0  0  0
   10.4910  -16.4977   21.5674 C   0  0  0  0  0  0  0  0  0  0  0  0
   11.4039  -15.7325   21.9974 O   0  0  0  0  0  0  0  0  0  0  0  0
    9.1950  -16.3351   22.1254 N   0  0  0  0  0  0  0  0  0  0  0  0
    8.9936  -15.3875   23.2020 C   0  0  1  0  0  0  0  0  0  0  0  0
    7.5236  -15.0574   23.2546 C   0  0  0  0  0  0  0  0  0  0  0  0
    7.1714  -14.0675   24.2625 C   0  0  0  0  0  0  0  0  0  0  0  0
    7.5420  -12.7471   24.1499 C   0  0  0  0  0  0  0  0  0  0  0  0
    7.1663  -11.8733   25.1517 C   0  0  0  0  0  0  0  0  0  0  0  0
    6.4395  -12.2752   26.2504 C   0  0  0  0  0  0  0  0  0  0  0  0
    6.0772  -13.5856   26.3528 C   0  0  0  0  0  0  0  0  0  0  0  0
    6.4436  -14.4733   25.3614 C   0  0  0  0  0  0  0  0  0  0  0  0
    9.3145  -16.1004   24.4875 C   0  0  0  0  0  0  0  0  0  0  0  0
    9.3033  -17.3618   24.5659 O   0  0  0  0  0  0  0  0  0  0  0  0
   10.5012  -13.0146   29.0245 C   0  0  0  0  0  0  0  0  0  0  0  0
   10.7097  -13.8238   27.7633 C   0  0  0  0  0  0  0  0  0  0  0  0
   10.2288  -15.2312   28.0476 C   0  0  2  0  0  0  0  0  0  0  0  0
   11.1127  -15.8844   29.0664 C   0  0  0  0  0  0  0  0  0  0  0  0
   10.2348  -16.0836   26.7984 C   0  0  2  0  0  0  0  0  0  0  0  0
    9.6446  -15.3948   25.6722 N   0  0  0  0  0  0  0  0  0  0  0  0
    9.4014  -17.2730   27.0871 C   0  0  0  0  0  0  0  0  0  0  0  0
    8.1425  -17.2488   27.0471 O   0  0  0  0  0  0  0  0  0  0  0  0
   10.0308  -18.4632   27.4152 O   0  0  0  0  0  0  0  0  0  0  0  0
  2  3  1  0
  2  1  1  6
  3  4  1  0
  4  8  1  0
  5  6  1  0
  5  4  2  0
  6  7  1  0
  7  8  2  0
  9  2  1  0
  9 10  2  0
 11  9  1  0
 12 11  1  0
 12 20  1  0
 12 13  1  1
 14 19  1  0
 14 13  1  0
 15 14  2  0
 16 17  2  0
 16 15  1  0
 17 18  1  0
 18 19  2  0
 20 27  1  0
 21 20  2  0
 23 22  1  0
 24 23  1  0
 24 26  1  0
 24 25  1  1
 26 28  1  0
 26 27  1  6
 28 29  2  0
 28 30  1  0
M  END
$$$$
