HFI.pdb
     RDKit          3D

 30 31  0  0  1  0  0  0  0  0999 V2000
    9.5773  -18.2247   20.0027 N   0  0  0  0  0  0  0  0  0  0  0  0
    9.5585  -16.8549   19.5371 C   0  0  1  0  0  0  0  0  0  0  0  0
    8.5142  -16.7361   18.4709 C   0  0  0  0  0  0  0  0  0  0  0  0
    8.9687  -17.4957   17.2801 C   0  0  0  0  0  0  0  0  0  0  0  0
   10.1055  -17.3373   16.5180 C   0  0  0  0  0  0  0  0  0  0  0  0
   10.1453  -18.2340   15.5196 N   0  0  0  0  0  0  0  0  0  0  0  0
    9.0290  -18.9773   15.6350 C   0  0  0  0  0  0  0  0  0  0  0  0
    8.3127  -18.5385   16.6952 N   0  0  0  0  0  0  0  0  0  0  0  0
    9.3073  -15.9594   20.6894 C   0  0  0  0  0  0  0  0  0  0  0  0
    8.7561  -14.8324   20.5171 O   0  0  0  0  0  0  0  0  0  0  0  0
    9.6631  -16.3085   22.0195 N   0  0  0  0  0  0  0  0  0  0  0  0
    9.3486  -15.4028   23.1050 C   0  0  1  0  0  0  0  0  0  0  0  0
    7.8552  -15.1971   23.1139 C   0  0  0  0  0  0  0  0  0  0  0  0
    7.3819  -14.3147   24.1708 C   0  0  0  0  0  0  0  0  0  0  0  0
    7.7433  -12.9883   24.2310 C   0  0  0  0  0  0  0  0  0  0  0  0
    7.2491  -12.2209   25.2679 C   0  0  0  0  0  0  0  0  0  0  0  0
    6.4139  -12.7337   26.2356 C   0  0  0  0  0  0  0  0  0  0  0  0
    6.0617  -14.0491   26.1671 C   0  0  0  0  0  0  0  0  0  0  0  0
    6.5458  -14.8314   25.1382 C   0  0  0  0  0  0  0  0  0  0  0  0
    9.6866  -16.1123   24.3881 C   0  0  0  0  0  0  0  0  0  0  0  0
   10.0282  -17.3291   24.4018 O   0  0  0  0  0  0  0  0  0  0  0  0
   10.5552  -12.7854   28.8162 C   0  0  0  0  0  0  0  0  0  0  0  0
   10.7747  -13.6678   27.6071 C   0  0  0  0  0  0  0  0  0  0  0  0
   10.2947  -15.0570   27.9714 C   0  0  2  0  0  0  0  0  0  0  0  0
   11.1509  -15.6320   29.0587 C   0  0  0  0  0  0  0  0  0  0  0  0
   10.3454  -15.9918   26.7837 C   0  0  2  0  0  0  0  0  0  0  0  0
    9.6390  -15.4533   25.6425 N   0  0  0  0  0  0  0  0  0  0  0  0
    9.6600  -17.2397   27.1908 C   0  0  0  0  0  0  0  0  0  0  0  0
    8.4157  -17.4014   27.0783 O   0  0  0  0  0  0  0  0  0  0  0  0
   10.4172  -18.2737   27.7178 O   0  0  0  0  0  0  0  0  0  0  0  0
  2  3  1  0
  2  1  1  1
  3  4  1  0
  4  8  1  0
  5  6  1  0
  5  4  2  0
  6  7  1  0
  7  8  2  0
  9  2  1  0
  9 10  2  0
 11  9  1  0
 12 11  1  0
 12 20  1  0
 12 13  1  1
 14 19  1  0
 14 13  1  0
 15 14  2  0
 16 17  2  0
 16 15  1  0
 17 18  1  0
 18 19  2  0
 20 27  1  0
 21 20  2  0
 23 22  1  0
 24 23  1  0
 24 26  1  0
 24 25  1  1
 26 28  1  0
 26 27  1  6
 28 29  2  0
 28 30  1  0
M  END
$$$$
