HFI.pdb
     RDKit          3D

 30 31  0  0  1  0  0  0  0  0999 V2000
   10.0330  -16.6762   19.3019 N   0  0  0  0  0  0  0  0  0  0  0  0
   10.7724  -17.1056   20.4691 C   0  0  1  0  0  0  0  0  0  0  0  0
   12.2341  -17.0110   20.1594 C   0  0  0  0  0  0  0  0  0  0  0  0
   12.5871  -18.1014   19.2171 C   0  0  0  0  0  0  0  0  0  0  0  0
   12.9394  -19.4077   19.4769 C   0  0  0  0  0  0  0  0  0  0  0  0
   13.1845  -20.0764   18.3388 N   0  0  0  0  0  0  0  0  0  0  0  0
   12.9902  -19.1993   17.3363 C   0  0  0  0  0  0  0  0  0  0  0  0
   12.6293  -18.0044   17.8573 N   0  0  0  0  0  0  0  0  0  0  0  0
   10.3747  -16.2688   21.6242 C   0  0  0  0  0  0  0  0  0  0  0  0
   10.6922  -15.0436   21.6676 O   0  0  0  0  0  0  0  0  0  0  0  0
    9.6327  -16.7835   22.7206 N   0  0  0  0  0  0  0  0  0  0  0  0
    9.2363  -15.8970   23.7950 C   0  0  1  0  0  0  0  0  0  0  0  0
    7.7296  -15.8738   23.8393 C   0  0  0  0  0  0  0  0  0  0  0  0
    7.1709  -14.6922   24.4808 C   0  0  0  0  0  0  0  0  0  0  0  0
    6.4662  -14.7660   25.6603 C   0  0  0  0  0  0  0  0  0  0  0  0
    5.9699  -13.5960   26.2015 C   0  0  0  0  0  0  0  0  0  0  0  0
    6.1549  -12.3680   25.6058 C   0  0  0  0  0  0  0  0  0  0  0  0
    6.8545  -12.3054   24.4373 C   0  0  0  0  0  0  0  0  0  0  0  0
    7.3579  -13.4642   23.8816 C   0  0  0  0  0  0  0  0  0  0  0  0
    9.6887  -16.5295   25.0831 C   0  0  0  0  0  0  0  0  0  0  0  0
   10.0795  -17.7306   25.1296 O   0  0  0  0  0  0  0  0  0  0  0  0
    9.9784  -13.1922   29.5721 C   0  0  0  0  0  0  0  0  0  0  0  0
   10.4322  -13.9657   28.3537 C   0  0  0  0  0  0  0  0  0  0  0  0
   10.2557  -15.4373   28.6640 C   0  0  2  0  0  0  0  0  0  0  0  0
   11.2402  -15.8678   29.7088 C   0  0  0  0  0  0  0  0  0  0  0  0
   10.4640  -16.2934   27.4348 C   0  0  2  0  0  0  0  0  0  0  0  0
    9.6993  -15.8118   26.3059 N   0  0  0  0  0  0  0  0  0  0  0  0
    9.9711  -17.6493   27.7683 C   0  0  0  0  0  0  0  0  0  0  0  0
   10.7361  -18.5825   28.1300 O   0  0  0  0  0  0  0  0  0  0  0  0
    8.6118  -17.9040   27.6795 O   0  0  0  0  0  0  0  0  0  0  0  0
  2  3  1  0
  2  1  1  6
  3  4  1  0
  4  8  1  0
  5  6  1  0
  5  4  2  0
  6  7  1  0
  7  8  2  0
  9  2  1  0
  9 10  2  0
 11  9  1  0
 12 11  1  0
 12 20  1  0
 12 13  1  1
 14 19  1  0
 14 13  1  0
 15 14  2  0
 16 17  2  0
 16 15  1  0
 17 18  1  0
 18 19  2  0
 20 27  1  0
 21 20  2  0
 23 22  1  0
 24 23  1  0
 24 26  1  0
 24 25  1  1
 26 28  1  0
 26 27  1  6
 28 29  2  0
 28 30  1  0
M  END
$$$$
