HFI.pdb
     RDKit          3D

 30 31  0  0  1  0  0  0  0  0999 V2000
   11.1022  -17.2271   19.4609 N   0  0  0  0  0  0  0  0  0  0  0  0
   10.3890  -17.7851   20.5894 C   0  0  1  0  0  0  0  0  0  0  0  0
   11.1813  -18.9391   21.1208 C   0  0  0  0  0  0  0  0  0  0  0  0
   10.9780  -20.1028   20.2231 C   0  0  0  0  0  0  0  0  0  0  0  0
    9.9061  -20.9632   20.1286 C   0  0  0  0  0  0  0  0  0  0  0  0
   10.1157  -21.8923   19.1824 N   0  0  0  0  0  0  0  0  0  0  0  0
   11.3293  -21.6330   18.6610 C   0  0  0  0  0  0  0  0  0  0  0  0
   11.8572  -20.5543   19.2833 N   0  0  0  0  0  0  0  0  0  0  0  0
   10.1771  -16.7212   21.5973 C   0  0  0  0  0  0  0  0  0  0  0  0
   11.1335  -15.9670   21.9439 O   0  0  0  0  0  0  0  0  0  0  0  0
    8.9184  -16.4947   22.2153 N   0  0  0  0  0  0  0  0  0  0  0  0
    8.7764  -15.4199   23.1757 C   0  0  1  0  0  0  0  0  0  0  0  0
    7.3239  -15.0173   23.2033 C   0  0  0  0  0  0  0  0  0  0  0  0
    6.9839  -14.0876   24.2710 C   0  0  0  0  0  0  0  0  0  0  0  0
    6.2521  -14.4742   25.3702 C   0  0  0  0  0  0  0  0  0  0  0  0
    5.9734  -13.5284   26.3377 C   0  0  0  0  0  0  0  0  0  0  0  0
    6.3996  -12.2223   26.2404 C   0  0  0  0  0  0  0  0  0  0  0  0
    7.1241  -11.8491   25.1474 C   0  0  0  0  0  0  0  0  0  0  0  0
    7.4122  -12.7806   24.1704 C   0  0  0  0  0  0  0  0  0  0  0  0
    9.0835  -15.9928   24.5327 C   0  0  0  0  0  0  0  0  0  0  0  0
    9.0136  -17.2344   24.7587 O   0  0  0  0  0  0  0  0  0  0  0  0
   11.2482  -14.1828   30.0484 C   0  0  0  0  0  0  0  0  0  0  0  0
   11.1507  -15.2804   29.0118 C   0  0  0  0  0  0  0  0  0  0  0  0
   10.5479  -14.6686   27.7647 C   0  0  2  0  0  0  0  0  0  0  0  0
    9.3012  -13.9119   28.1099 C   0  0  0  0  0  0  0  0  0  0  0  0
   10.1934  -15.7255   26.7427 C   0  0  2  0  0  0  0  0  0  0  0  0
    9.4657  -15.1708   25.6229 N   0  0  0  0  0  0  0  0  0  0  0  0
    9.3054  -16.6970   27.4212 C   0  0  0  0  0  0  0  0  0  0  0  0
    8.0499  -16.6535   27.3273 O   0  0  0  0  0  0  0  0  0  0  0  0
    9.8776  -17.6964   28.1920 O   0  0  0  0  0  0  0  0  0  0  0  0
  2  3  1  0
  2  1  1  6
  3  4  1  0
  4  8  1  0
  5  6  1  0
  5  4  2  0
  6  7  1  0
  7  8  2  0
  9  2  1  0
  9 10  2  0
 11  9  1  0
 12 11  1  0
 12 20  1  0
 12 13  1  1
 14 19  1  0
 14 13  1  0
 15 14  2  0
 16 17  2  0
 16 15  1  0
 17 18  1  0
 18 19  2  0
 20 27  1  0
 21 20  2  0
 23 22  1  0
 24 23  1  0
 24 26  1  0
 24 25  1  1
 26 28  1  0
 26 27  1  6
 28 29  2  0
 28 30  1  0
M  END
$$$$
