HFI.pdb
     RDKit          3D

 30 31  0  0  1  0  0  0  0  0999 V2000
   11.7408  -16.9271   19.9791 N   0  0  0  0  0  0  0  0  0  0  0  0
   10.6120  -17.4191   20.7388 C   0  0  1  0  0  0  0  0  0  0  0  0
   10.9455  -18.7901   21.2396 C   0  0  0  0  0  0  0  0  0  0  0  0
   10.3769  -19.7863   20.2984 C   0  0  0  0  0  0  0  0  0  0  0  0
    9.8190  -19.5997   19.0525 C   0  0  0  0  0  0  0  0  0  0  0  0
    9.4205  -20.7673   18.5230 N   0  0  0  0  0  0  0  0  0  0  0  0
    9.7214  -21.7154   19.4300 C   0  0  0  0  0  0  0  0  0  0  0  0
   10.2992  -21.1322   20.5050 N   0  0  0  0  0  0  0  0  0  0  0  0
   10.3158  -16.4647   21.8315 C   0  0  0  0  0  0  0  0  0  0  0  0
   11.2384  -15.7550   22.3302 O   0  0  0  0  0  0  0  0  0  0  0  0
    9.0108  -16.2980   22.3669 N   0  0  0  0  0  0  0  0  0  0  0  0
    8.7977  -15.3653   23.4543 C   0  0  1  0  0  0  0  0  0  0  0  0
    7.3273  -15.0353   23.4950 C   0  0  0  0  0  0  0  0  0  0  0  0
    6.9509  -14.1250   24.5672 C   0  0  0  0  0  0  0  0  0  0  0  0
    7.3347  -12.8036   24.5716 C   0  0  0  0  0  0  0  0  0  0  0  0
    6.9343  -12.0084   25.6277 C   0  0  0  0  0  0  0  0  0  0  0  0
    6.1702  -12.4889   26.6680 C   0  0  0  0  0  0  0  0  0  0  0  0
    5.7949  -13.7997   26.6545 C   0  0  0  0  0  0  0  0  0  0  0  0
    6.1857  -14.6095   25.6073 C   0  0  0  0  0  0  0  0  0  0  0  0
    9.1039  -16.0962   24.7333 C   0  0  0  0  0  0  0  0  0  0  0  0
    9.1186  -17.3589   24.7873 O   0  0  0  0  0  0  0  0  0  0  0  0
   10.3698  -13.0284   29.2683 C   0  0  0  0  0  0  0  0  0  0  0  0
   10.5722  -13.8444   28.0105 C   0  0  0  0  0  0  0  0  0  0  0  0
   10.0567  -15.2400   28.2923 C   0  0  2  0  0  0  0  0  0  0  0  0
   10.9286  -15.9194   29.3043 C   0  0  0  0  0  0  0  0  0  0  0  0
   10.0346  -16.0878   27.0401 C   0  0  2  0  0  0  0  0  0  0  0  0
    9.3907  -15.4070   25.9387 N   0  0  0  0  0  0  0  0  0  0  0  0
    9.2359  -17.2946   27.3536 C   0  0  0  0  0  0  0  0  0  0  0  0
    9.7327  -18.3196   27.8915 O   0  0  0  0  0  0  0  0  0  0  0  0
    7.8854  -17.2983   27.0429 O   0  0  0  0  0  0  0  0  0  0  0  0
  2  3  1  0
  2  1  1  1
  3  4  1  0
  4  8  1  0
  5  6  1  0
  5  4  2  0
  6  7  1  0
  7  8  2  0
  9  2  1  0
  9 10  2  0
 11  9  1  0
 12 11  1  0
 12 20  1  0
 12 13  1  1
 14 19  1  0
 14 13  1  0
 15 14  2  0
 16 17  2  0
 16 15  1  0
 17 18  1  0
 18 19  2  0
 20 27  1  0
 21 20  2  0
 23 22  1  0
 24 23  1  0
 24 26  1  0
 24 25  1  1
 26 28  1  0
 26 27  1  6
 28 29  2  0
 28 30  1  0
M  END
$$$$
