HFI.pdb
     RDKit          3D

 30 31  0  0  1  0  0  0  0  0999 V2000
   11.8644  -16.9468   19.9387 N   0  0  0  0  0  0  0  0  0  0  0  0
   10.7073  -17.4326   20.6589 C   0  0  1  0  0  0  0  0  0  0  0  0
   10.9809  -18.8395   21.0917 C   0  0  0  0  0  0  0  0  0  0  0  0
   10.5617  -19.7567   20.0034 C   0  0  0  0  0  0  0  0  0  0  0  0
   10.0688  -19.4660   18.7501 C   0  0  0  0  0  0  0  0  0  0  0  0
    9.8077  -20.5891   18.0623 N   0  0  0  0  0  0  0  0  0  0  0  0
   10.1329  -21.6128   18.8736 C   0  0  0  0  0  0  0  0  0  0  0  0
   10.5889  -21.1196   20.0477 N   0  0  0  0  0  0  0  0  0  0  0  0
   10.4335  -16.5247   21.7963 C   0  0  0  0  0  0  0  0  0  0  0  0
   11.3822  -15.9151   22.3724 O   0  0  0  0  0  0  0  0  0  0  0  0
    9.1221  -16.2943   22.2907 N   0  0  0  0  0  0  0  0  0  0  0  0
    8.9180  -15.3354   23.3568 C   0  0  1  0  0  0  0  0  0  0  0  0
    7.4546  -14.9739   23.3758 C   0  0  0  0  0  0  0  0  0  0  0  0
    7.0829  -14.0512   24.4389 C   0  0  0  0  0  0  0  0  0  0  0  0
    7.4911  -12.7371   24.4411 C   0  0  0  0  0  0  0  0  0  0  0  0
    7.0935  -11.9291   25.4885 C   0  0  0  0  0  0  0  0  0  0  0  0
    6.3088  -12.3900   26.5224 C   0  0  0  0  0  0  0  0  0  0  0  0
    5.9095  -13.6936   26.5111 C   0  0  0  0  0  0  0  0  0  0  0  0
    6.2971  -14.5160   25.4726 C   0  0  0  0  0  0  0  0  0  0  0  0
    9.1961  -16.0463   24.6534 C   0  0  0  0  0  0  0  0  0  0  0  0
    9.1811  -17.3076   24.7336 O   0  0  0  0  0  0  0  0  0  0  0  0
   11.0882  -12.8531   28.8445 C   0  0  0  0  0  0  0  0  0  0  0  0
   11.0812  -13.8085   27.6715 C   0  0  0  0  0  0  0  0  0  0  0  0
   10.3656  -15.0655   28.1198 C   0  0  2  0  0  0  0  0  0  0  0  0
   11.1824  -15.7874   29.1482 C   0  0  0  0  0  0  0  0  0  0  0  0
   10.1196  -16.0077   26.9628 C   0  0  2  0  0  0  0  0  0  0  0  0
    9.4881  -15.3389   25.8470 N   0  0  0  0  0  0  0  0  0  0  0  0
    9.1878  -17.0504   27.4498 C   0  0  0  0  0  0  0  0  0  0  0  0
    7.9368  -16.9020   27.4456 O   0  0  0  0  0  0  0  0  0  0  0  0
    9.7120  -18.2397   27.9307 O   0  0  0  0  0  0  0  0  0  0  0  0
  2  3  1  0
  2  1  1  1
  3  4  1  0
  4  8  1  0
  5  6  1  0
  5  4  2  0
  6  7  1  0
  7  8  2  0
  9  2  1  0
  9 10  2  0
 11  9  1  0
 12 11  1  0
 12 20  1  0
 12 13  1  1
 14 19  1  0
 14 13  1  0
 15 14  2  0
 16 17  2  0
 16 15  1  0
 17 18  1  0
 18 19  2  0
 20 27  1  0
 21 20  2  0
 23 22  1  0
 24 23  1  0
 24 26  1  0
 24 25  1  1
 26 28  1  0
 26 27  1  6
 28 29  2  0
 28 30  1  0
M  END
$$$$
