HFI.pdb
     RDKit          3D

 30 31  0  0  1  0  0  0  0  0999 V2000
    9.8045  -18.2354   20.2763 N   0  0  0  0  0  0  0  0  0  0  0  0
   10.6905  -17.0920   20.2456 C   0  0  1  0  0  0  0  0  0  0  0  0
   10.6124  -16.4746   18.8839 C   0  0  0  0  0  0  0  0  0  0  0  0
   11.2314  -17.4059   17.9086 C   0  0  0  0  0  0  0  0  0  0  0  0
   12.1113  -18.4444   18.1218 C   0  0  0  0  0  0  0  0  0  0  0  0
   12.4352  -19.0467   16.9664 N   0  0  0  0  0  0  0  0  0  0  0  0
   11.7620  -18.3954   15.9996 C   0  0  0  0  0  0  0  0  0  0  0  0
   11.0326  -17.4033   16.5593 N   0  0  0  0  0  0  0  0  0  0  0  0
   10.3024  -16.1546   21.3243 C   0  0  0  0  0  0  0  0  0  0  0  0
   10.9785  -15.1048   21.5351 O   0  0  0  0  0  0  0  0  0  0  0  0
    9.1768  -16.3776   22.1613 N   0  0  0  0  0  0  0  0  0  0  0  0
    8.9308  -15.4915   23.2802 C   0  0  1  0  0  0  0  0  0  0  0  0
    7.4379  -15.3507   23.4353 C   0  0  0  0  0  0  0  0  0  0  0  0
    7.0328  -14.4458   24.5016 C   0  0  0  0  0  0  0  0  0  0  0  0
    6.3681  -14.8888   25.6220 C   0  0  0  0  0  0  0  0  0  0  0  0
    6.0201  -13.9631   26.5863 C   0  0  0  0  0  0  0  0  0  0  0  0
    6.3133  -12.6227   26.4659 C   0  0  0  0  0  0  0  0  0  0  0  0
    6.9722  -12.1937   25.3519 C   0  0  0  0  0  0  0  0  0  0  0  0
    7.3280  -13.1043   24.3776 C   0  0  0  0  0  0  0  0  0  0  0  0
    9.4216  -16.1918   24.5181 C   0  0  0  0  0  0  0  0  0  0  0  0
    9.7358  -17.4160   24.5060 O   0  0  0  0  0  0  0  0  0  0  0  0
   10.9397  -12.8630   28.7084 C   0  0  0  0  0  0  0  0  0  0  0  0
   11.0849  -13.8341   27.5575 C   0  0  0  0  0  0  0  0  0  0  0  0
   10.4773  -15.1488   27.9992 C   0  0  2  0  0  0  0  0  0  0  0  0
   11.3498  -15.8029   29.0272 C   0  0  0  0  0  0  0  0  0  0  0  0
   10.3149  -16.1041   26.8380 C   0  0  2  0  0  0  0  0  0  0  0  0
    9.5559  -15.5154   25.7570 N   0  0  0  0  0  0  0  0  0  0  0  0
    9.5515  -17.2677   27.3438 C   0  0  0  0  0  0  0  0  0  0  0  0
    8.2962  -17.2652   27.4496 O   0  0  0  0  0  0  0  0  0  0  0  0
   10.2453  -18.4079   27.7169 O   0  0  0  0  0  0  0  0  0  0  0  0
  2  3  1  0
  2  1  1  6
  3  4  1  0
  4  8  1  0
  5  6  1  0
  5  4  2  0
  6  7  1  0
  7  8  2  0
  9  2  1  0
  9 10  2  0
 11  9  1  0
 12 11  1  0
 12 20  1  0
 12 13  1  1
 14 19  1  0
 14 13  1  0
 15 14  2  0
 16 17  2  0
 16 15  1  0
 17 18  1  0
 18 19  2  0
 20 27  1  0
 21 20  2  0
 23 22  1  0
 24 23  1  0
 24 26  1  0
 24 25  1  1
 26 28  1  0
 26 27  1  6
 28 29  2  0
 28 30  1  0
M  END
$$$$
