SKD.pdb
     RDKit          3D

 24 23  0  0  1  0  0  0  0  0999 V2000
   25.0799  -20.1504  -15.8999 O   0  0  0  0  0  0  0  0  0  0  0  0
   25.1274  -20.1830  -14.5053 C   0  0  0  0  0  0  0  0  0  0  0  0
   24.6137  -21.5601  -14.0896 C   0  0  2  0  0  0  0  0  0  0  0  0
   25.1480  -22.5967  -14.9199 N   0  0  0  0  0  0  0  0  0  0  0  0
   23.1383  -21.5629  -14.1679 C   0  0  0  0  0  0  0  0  0  0  0  0
   22.4976  -21.9701  -15.1609 O   0  0  0  0  0  0  0  0  0  0  0  0
   22.3584  -21.0796  -13.0641 N   0  0  0  0  0  0  0  0  0  0  0  0
   20.9114  -21.0382  -13.1114 C   0  0  1  0  0  0  0  0  0  0  0  0
   20.2921  -21.2401  -11.7282 C   0  0  0  0  0  0  0  0  0  0  0  0
   19.7957  -22.6513  -11.6612 C   0  0  0  0  0  0  0  0  0  0  0  0
   19.3163  -23.0349  -10.2797 C   0  0  0  0  0  0  0  0  0  0  0  0
   18.9751  -24.4983  -10.1792 C   0  0  0  0  0  0  0  0  0  0  0  0
   18.5564  -24.7305   -8.7917 N   0  0  0  0  0  0  0  0  0  0  0  0
   20.4939  -19.6893  -13.5596 C   0  0  0  0  0  0  0  0  0  0  0  0
   21.3017  -18.7324  -13.5182 O   0  0  0  0  0  0  0  0  0  0  0  0
   19.1759  -19.4071  -14.0539 N   0  0  0  0  0  0  0  0  0  0  0  0
   18.9395  -18.2283  -14.8601 C   0  0  1  0  0  0  0  0  0  0  0  0
   19.9052  -18.1304  -16.0167 C   0  0  0  0  0  0  0  0  0  0  0  0
   19.6690  -16.9280  -16.8341 C   0  0  0  0  0  0  0  0  0  0  0  0
   19.3523  -15.8571  -16.2776 O   0  0  0  0  0  0  0  0  0  0  0  0
   17.5354  -18.1294  -15.2963 C   0  0  0  0  0  0  0  0  0  0  0  0
   16.7456  -17.0284  -15.0239 O   0  0  0  0  0  0  0  0  0  0  0  0
   19.8082  -17.0292  -18.2065 O   0  0  0  0  0  0  0  0  0  0  0  0
   17.0318  -19.0787  -15.9403 O   0  0  0  0  0  0  0  0  0  0  0  0
  1  2  1  0
  3  5  1  0
  3  2  1  0
  3  4  1  6
  5  6  2  0
  7  8  1  0
  7  5  1  0
  8  9  1  1
 10  9  1  0
 11 10  1  0
 12 11  1  0
 12 13  1  0
 14 16  1  0
 14  8  1  0
 15 14  2  0
 17 18  1  6
 17 16  1  0
 18 19  1  0
 19 20  2  0
 21 17  1  0
 21 22  1  0
 23 19  1  0
 24 21  2  0
M  END
$$$$
