SKD.pdb
     RDKit          3D

 24 23  0  0  1  0  0  0  0  0999 V2000
   18.3352  -14.7165  -14.4160 O   0  0  0  0  0  0  0  0  0  0  0  0
   17.8708  -13.4006  -14.4475 C   0  0  0  0  0  0  0  0  0  0  0  0
   16.5190  -13.4046  -13.7364 C   0  0  2  0  0  0  0  0  0  0  0  0
   15.5377  -14.1451  -14.4701 N   0  0  0  0  0  0  0  0  0  0  0  0
   16.0680  -12.0086  -13.5605 C   0  0  0  0  0  0  0  0  0  0  0  0
   15.7515  -11.2576  -14.5082 O   0  0  0  0  0  0  0  0  0  0  0  0
   15.9737  -11.4436  -12.2444 N   0  0  0  0  0  0  0  0  0  0  0  0
   15.5819  -10.0656  -12.0310 C   0  0  1  0  0  0  0  0  0  0  0  0
   14.8688   -9.8791  -10.6916 C   0  0  0  0  0  0  0  0  0  0  0  0
   14.3593   -8.4716  -10.6473 C   0  0  0  0  0  0  0  0  0  0  0  0
   13.5843   -8.1724   -9.3843 C   0  0  0  0  0  0  0  0  0  0  0  0
   12.8890   -6.8378   -9.4433 C   0  0  0  0  0  0  0  0  0  0  0  0
   12.1093   -6.7231   -8.2050 N   0  0  0  0  0  0  0  0  0  0  0  0
   16.8057   -9.2331  -11.9685 C   0  0  0  0  0  0  0  0  0  0  0  0
   17.7638   -9.5732  -11.2361 O   0  0  0  0  0  0  0  0  0  0  0  0
   16.9615   -8.0213  -12.7225 N   0  0  0  0  0  0  0  0  0  0  0  0
   18.2551   -7.3766  -12.8020 C   0  0  1  0  0  0  0  0  0  0  0  0
   19.3552   -8.3542  -13.1397 C   0  0  0  0  0  0  0  0  0  0  0  0
   20.6533   -7.6834  -13.3258 C   0  0  0  0  0  0  0  0  0  0  0  0
   20.7832   -6.4888  -12.9898 O   0  0  0  0  0  0  0  0  0  0  0  0
   18.2401   -6.2179  -13.7123 C   0  0  0  0  0  0  0  0  0  0  0  0
   19.1060   -5.1496  -13.5741 O   0  0  0  0  0  0  0  0  0  0  0  0
   21.6953   -8.4098  -13.8729 O   0  0  0  0  0  0  0  0  0  0  0  0
   17.4113   -6.1947  -14.6515 O   0  0  0  0  0  0  0  0  0  0  0  0
  1  2  1  0
  3  5  1  0
  3  2  1  0
  3  4  1  6
  5  6  2  0
  7  8  1  0
  7  5  1  0
  8  9  1  1
 10  9  1  0
 11 10  1  0
 12 11  1  0
 12 13  1  0
 14 16  1  0
 14  8  1  0
 15 14  2  0
 17 18  1  6
 17 16  1  0
 18 19  1  0
 19 20  2  0
 21 17  1  0
 21 22  1  0
 23 19  1  0
 24 21  2  0
M  END
$$$$
