SKD.pdb
     RDKit          3D

 24 23  0  0  1  0  0  0  0  0999 V2000
   25.5291  -13.4849  -15.8336 O   0  0  0  0  0  0  0  0  0  0  0  0
   24.8176  -12.3774  -16.2977 C   0  0  0  0  0  0  0  0  0  0  0  0
   23.3375  -12.7263  -16.1545 C   0  0  2  0  0  0  0  0  0  0  0  0
   22.9579  -13.7915  -17.0326 N   0  0  0  0  0  0  0  0  0  0  0  0
   22.5327  -11.5222  -16.4468 C   0  0  0  0  0  0  0  0  0  0  0  0
   22.9124  -10.6009  -17.2013 O   0  0  0  0  0  0  0  0  0  0  0  0
   21.2363  -11.3616  -15.8519 N   0  0  0  0  0  0  0  0  0  0  0  0
   20.3590  -10.2683  -16.2161 C   0  0  1  0  0  0  0  0  0  0  0  0
   18.8861  -10.6680  -16.1256 C   0  0  0  0  0  0  0  0  0  0  0  0
   18.0764   -9.5120  -16.6260 C   0  0  0  0  0  0  0  0  0  0  0  0
   16.5893   -9.7808  -16.5832 C   0  0  0  0  0  0  0  0  0  0  0  0
   15.7885   -8.6602  -17.1923 C   0  0  0  0  0  0  0  0  0  0  0  0
   14.3786   -8.9643  -16.9194 N   0  0  0  0  0  0  0  0  0  0  0  0
   20.5503   -9.1676  -15.2431 C   0  0  0  0  0  0  0  0  0  0  0  0
   20.6623   -9.4182  -14.0206 O   0  0  0  0  0  0  0  0  0  0  0  0
   20.6168   -7.7875  -15.6331 N   0  0  0  0  0  0  0  0  0  0  0  0
   20.8190   -6.7595  -14.6342 C   0  0  1  0  0  0  0  0  0  0  0  0
   22.1601   -6.0819  -14.7824 C   0  0  0  0  0  0  0  0  0  0  0  0
   22.3262   -4.9700  -13.8306 C   0  0  0  0  0  0  0  0  0  0  0  0
   21.9102   -5.0932  -12.6607 O   0  0  0  0  0  0  0  0  0  0  0  0
   19.7067   -5.7934  -14.6024 C   0  0  0  0  0  0  0  0  0  0  0  0
   19.3095   -5.1512  -13.4449 O   0  0  0  0  0  0  0  0  0  0  0  0
   22.9449   -3.8145  -14.2722 O   0  0  0  0  0  0  0  0  0  0  0  0
   19.0925   -5.5400  -15.6646 O   0  0  0  0  0  0  0  0  0  0  0  0
  1  2  1  0
  3  5  1  0
  3  2  1  0
  3  4  1  6
  5  6  2  0
  7  8  1  0
  7  5  1  0
  8  9  1  1
 10  9  1  0
 11 10  1  0
 12 11  1  0
 12 13  1  0
 14 16  1  0
 14  8  1  0
 15 14  2  0
 17 18  1  6
 17 16  1  0
 18 19  1  0
 19 20  2  0
 21 17  1  0
 21 22  1  0
 23 19  1  0
 24 21  2  0
M  END
$$$$
