SKD.pdb
     RDKit          3D

 24 23  0  0  1  0  0  0  0  0999 V2000
   24.8926  -10.7975  -19.2904 O   0  0  0  0  0  0  0  0  0  0  0  0
   23.9483   -9.8174  -18.9809 C   0  0  0  0  0  0  0  0  0  0  0  0
   22.5877  -10.3934  -19.3685 C   0  0  2  0  0  0  0  0  0  0  0  0
   22.4427  -10.4974  -20.7890 N   0  0  0  0  0  0  0  0  0  0  0  0
   21.5270   -9.5255  -18.8166 C   0  0  0  0  0  0  0  0  0  0  0  0
   21.3318   -8.3479  -19.1876 O   0  0  0  0  0  0  0  0  0  0  0  0
   20.6493  -10.0229  -17.7956 N   0  0  0  0  0  0  0  0  0  0  0  0
   19.5836   -9.2124  -17.2432 C   0  0  1  0  0  0  0  0  0  0  0  0
   18.5218  -10.0665  -16.5499 C   0  0  0  0  0  0  0  0  0  0  0  0
   17.6795  -10.6898  -17.6197 C   0  0  0  0  0  0  0  0  0  0  0  0
   16.5922  -11.5789  -17.0606 C   0  0  0  0  0  0  0  0  0  0  0  0
   15.6967  -12.1325  -18.1376 C   0  0  0  0  0  0  0  0  0  0  0  0
   14.8311  -13.1230  -17.4863 N   0  0  0  0  0  0  0  0  0  0  0  0
   20.1556   -8.3327  -16.1974 C   0  0  0  0  0  0  0  0  0  0  0  0
   21.1301   -8.7191  -15.5112 O   0  0  0  0  0  0  0  0  0  0  0  0
   19.6411   -7.0221  -15.9166 N   0  0  0  0  0  0  0  0  0  0  0  0
   20.2901   -6.1827  -14.9318 C   0  0  1  0  0  0  0  0  0  0  0  0
   21.7751   -6.0650  -15.1785 C   0  0  0  0  0  0  0  0  0  0  0  0
   22.4042   -5.0649  -14.2990 C   0  0  0  0  0  0  0  0  0  0  0  0
   22.0567   -4.9907  -13.1029 O   0  0  0  0  0  0  0  0  0  0  0  0
   19.6388   -4.8663  -14.8123 C   0  0  0  0  0  0  0  0  0  0  0  0
   18.8399   -4.3363  -15.8078 O   0  0  0  0  0  0  0  0  0  0  0  0
   23.3697   -4.2328  -14.8362 O   0  0  0  0  0  0  0  0  0  0  0  0
   19.8126   -4.1958  -13.7683 O   0  0  0  0  0  0  0  0  0  0  0  0
  1  2  1  0
  3  5  1  0
  3  2  1  0
  3  4  1  6
  5  6  2  0
  7  8  1  0
  7  5  1  0
  8  9  1  1
 10  9  1  0
 11 10  1  0
 12 11  1  0
 12 13  1  0
 14 16  1  0
 14  8  1  0
 15 14  2  0
 17 18  1  6
 17 16  1  0
 18 19  1  0
 19 20  2  0
 21 17  1  0
 21 22  1  0
 23 19  1  0
 24 21  2  0
M  END
$$$$
