SKD.pdb
     RDKit          3D

 24 23  0  0  1  0  0  0  0  0999 V2000
   18.2087  -13.3716  -14.2051 O   0  0  0  0  0  0  0  0  0  0  0  0
   17.8683  -12.0180  -14.1906 C   0  0  0  0  0  0  0  0  0  0  0  0
   16.4784  -11.9309  -13.5629 C   0  0  2  0  0  0  0  0  0  0  0  0
   15.4755  -12.4877  -14.4195 N   0  0  0  0  0  0  0  0  0  0  0  0
   16.1697  -10.5136  -13.2816 C   0  0  0  0  0  0  0  0  0  0  0  0
   15.8303   -9.6907  -14.1591 O   0  0  0  0  0  0  0  0  0  0  0  0
   16.2516  -10.0123  -11.9392 N   0  0  0  0  0  0  0  0  0  0  0  0
   15.9704   -8.6272  -11.6226 C   0  0  1  0  0  0  0  0  0  0  0  0
   15.3780   -8.4740  -10.2216 C   0  0  0  0  0  0  0  0  0  0  0  0
   13.9165   -8.7862  -10.3164 C   0  0  0  0  0  0  0  0  0  0  0  0
   13.2034   -8.6430   -8.9911 C   0  0  0  0  0  0  0  0  0  0  0  0
   11.7755   -9.1172   -9.0566 C   0  0  0  0  0  0  0  0  0  0  0  0
   11.2362   -8.9930   -7.6970 N   0  0  0  0  0  0  0  0  0  0  0  0
   17.2481   -7.8775  -11.6168 C   0  0  0  0  0  0  0  0  0  0  0  0
   18.1070   -8.1009  -10.7323 O   0  0  0  0  0  0  0  0  0  0  0  0
   17.5684   -6.8785  -12.5969 N   0  0  0  0  0  0  0  0  0  0  0  0
   18.8697   -6.2446  -12.5895 C   0  0  1  0  0  0  0  0  0  0  0  0
   19.9317   -7.1244  -13.2044 C   0  0  0  0  0  0  0  0  0  0  0  0
   21.2528   -6.4732  -13.2127 C   0  0  0  0  0  0  0  0  0  0  0  0
   21.5866   -5.7446  -12.2563 O   0  0  0  0  0  0  0  0  0  0  0  0
   18.8348   -4.9037  -13.1995 C   0  0  0  0  0  0  0  0  0  0  0  0
   19.8774   -4.0039  -13.0830 O   0  0  0  0  0  0  0  0  0  0  0  0
   22.0872   -6.6946  -14.2933 O   0  0  0  0  0  0  0  0  0  0  0  0
   17.8217   -4.5597  -13.8513 O   0  0  0  0  0  0  0  0  0  0  0  0
  1  2  1  0
  3  5  1  0
  3  2  1  0
  3  4  1  6
  5  6  2  0
  7  8  1  0
  7  5  1  0
  8  9  1  1
 10  9  1  0
 11 10  1  0
 12 11  1  0
 12 13  1  0
 14 16  1  0
 14  8  1  0
 15 14  2  0
 17 18  1  6
 17 16  1  0
 18 19  1  0
 19 20  2  0
 21 17  1  0
 21 22  1  0
 23 19  1  0
 24 21  2  0
M  END
$$$$
