SKD.pdb
     RDKit          3D

 24 23  0  0  1  0  0  0  0  0999 V2000
   16.8479  -16.2318  -15.7717 O   0  0  0  0  0  0  0  0  0  0  0  0
   16.4666  -15.0320  -16.3744 C   0  0  0  0  0  0  0  0  0  0  0  0
   17.2005  -13.9219  -15.6247 C   0  0  2  0  0  0  0  0  0  0  0  0
   17.4793  -14.2931  -14.2704 N   0  0  0  0  0  0  0  0  0  0  0  0
   16.3714  -12.6992  -15.6507 C   0  0  0  0  0  0  0  0  0  0  0  0
   15.9221  -12.1885  -16.6994 O   0  0  0  0  0  0  0  0  0  0  0  0
   16.0398  -12.0287  -14.4257 N   0  0  0  0  0  0  0  0  0  0  0  0
   15.1273  -10.9044  -14.3932 C   0  0  1  0  0  0  0  0  0  0  0  0
   14.1597  -10.9926  -13.2127 C   0  0  0  0  0  0  0  0  0  0  0  0
   13.0357  -11.8939  -13.6210 C   0  0  0  0  0  0  0  0  0  0  0  0
   12.0220  -12.0968  -12.5180 C   0  0  0  0  0  0  0  0  0  0  0  0
   10.9499  -13.0825  -12.9015 C   0  0  0  0  0  0  0  0  0  0  0  0
   10.0386  -13.1688  -11.7541 N   0  0  0  0  0  0  0  0  0  0  0  0
   15.9144   -9.6656  -14.1923 C   0  0  0  0  0  0  0  0  0  0  0  0
   16.8372   -9.6344  -13.3454 O   0  0  0  0  0  0  0  0  0  0  0  0
   15.6727   -8.4613  -14.9357 N   0  0  0  0  0  0  0  0  0  0  0  0
   16.4113   -7.2556  -14.6254 C   0  0  1  0  0  0  0  0  0  0  0  0
   17.3168   -6.8387  -15.7594 C   0  0  0  0  0  0  0  0  0  0  0  0
   18.0644   -5.6087  -15.4466 C   0  0  0  0  0  0  0  0  0  0  0  0
   17.9221   -5.0681  -14.3310 O   0  0  0  0  0  0  0  0  0  0  0  0
   15.5256   -6.1620  -14.1882 C   0  0  0  0  0  0  0  0  0  0  0  0
   15.8442   -5.3175  -13.1416 O   0  0  0  0  0  0  0  0  0  0  0  0
   18.9080   -5.0896  -16.4120 O   0  0  0  0  0  0  0  0  0  0  0  0
   14.4387   -5.9858  -14.7857 O   0  0  0  0  0  0  0  0  0  0  0  0
  1  2  1  0
  3  5  1  0
  3  2  1  0
  3  4  1  1
  5  6  2  0
  7  8  1  0
  7  5  1  0
  8  9  1  1
 10  9  1  0
 11 10  1  0
 12 11  1  0
 12 13  1  0
 14 16  1  0
 14  8  1  0
 15 14  2  0
 17 18  1  6
 17 16  1  0
 18 19  1  0
 19 20  2  0
 21 17  1  0
 21 22  1  0
 23 19  1  0
 24 21  2  0
M  END
$$$$
