SKD.pdb
     RDKit          3D

 24 23  0  0  1  0  0  0  0  0999 V2000
   16.2225   -4.1474   -9.2841 O   0  0  0  0  0  0  0  0  0  0  0  0
   14.9680   -4.7310   -9.4687 C   0  0  0  0  0  0  0  0  0  0  0  0
   14.9349   -5.9703   -8.5765 C   0  0  2  0  0  0  0  0  0  0  0  0
   15.2469   -5.6512   -7.2162 N   0  0  0  0  0  0  0  0  0  0  0  0
   15.9024   -6.9587   -9.0961 C   0  0  0  0  0  0  0  0  0  0  0  0
   17.0535   -7.1114   -8.6334 O   0  0  0  0  0  0  0  0  0  0  0  0
   15.5409   -7.8114  -10.1927 N   0  0  0  0  0  0  0  0  0  0  0  0
   16.4926   -8.7179  -10.8012 C   0  0  1  0  0  0  0  0  0  0  0  0
   15.7960   -9.8227  -11.5960 C   0  0  0  0  0  0  0  0  0  0  0  0
   14.9953  -10.6357  -10.6263 C   0  0  0  0  0  0  0  0  0  0  0  0
   14.1596  -11.6961  -11.3063 C   0  0  0  0  0  0  0  0  0  0  0  0
   13.2605  -12.4215  -10.3401 C   0  0  0  0  0  0  0  0  0  0  0  0
   12.4884  -13.3829  -11.1366 N   0  0  0  0  0  0  0  0  0  0  0  0
   17.3091   -7.9578  -11.7759 C   0  0  0  0  0  0  0  0  0  0  0  0
   17.0659   -6.7485  -11.9959 O   0  0  0  0  0  0  0  0  0  0  0  0
   18.3969   -8.5458  -12.5055 N   0  0  0  0  0  0  0  0  0  0  0  0
   19.3249   -7.7034  -13.2299 C   0  0  1  0  0  0  0  0  0  0  0  0
   19.9925   -6.6916  -12.3297 C   0  0  0  0  0  0  0  0  0  0  0  0
   20.9660   -5.8604  -13.0583 C   0  0  0  0  0  0  0  0  0  0  0  0
   20.6990   -5.4670  -14.2120 O   0  0  0  0  0  0  0  0  0  0  0  0
   20.3011   -8.4928  -14.0016 C   0  0  0  0  0  0  0  0  0  0  0  0
   20.7802   -8.0884  -15.2333 O   0  0  0  0  0  0  0  0  0  0  0  0
   22.1565   -5.5411  -12.4308 O   0  0  0  0  0  0  0  0  0  0  0  0
   20.7171   -9.5751  -13.5271 O   0  0  0  0  0  0  0  0  0  0  0  0
  1  2  1  0
  3  5  1  0
  3  2  1  0
  3  4  1  1
  5  6  2  0
  7  8  1  0
  7  5  1  0
  8  9  1  6
 10  9  1  0
 11 10  1  0
 12 11  1  0
 12 13  1  0
 14 16  1  0
 14  8  1  0
 15 14  2  0
 17 18  1  1
 17 16  1  0
 18 19  1  0
 19 20  2  0
 21 17  1  0
 21 22  1  0
 23 19  1  0
 24 21  2  0
M  END
$$$$
