SKD.pdb
     RDKit          3D

 24 23  0  0  1  0  0  0  0  0999 V2000
   23.9675  -14.4364  -15.7704 O   0  0  0  0  0  0  0  0  0  0  0  0
   25.1675  -14.5532  -15.0672 C   0  0  0  0  0  0  0  0  0  0  0  0
   26.1191  -15.3383  -15.9679 C   0  0  2  0  0  0  0  0  0  0  0  0
   26.1814  -14.7807  -17.2850 N   0  0  0  0  0  0  0  0  0  0  0  0
   25.6622  -16.7418  -16.0368 C   0  0  0  0  0  0  0  0  0  0  0  0
   25.0668  -17.2295  -17.0217 O   0  0  0  0  0  0  0  0  0  0  0  0
   25.8950  -17.6290  -14.9327 N   0  0  0  0  0  0  0  0  0  0  0  0
   25.4141  -18.9952  -14.9363 C   0  0  1  0  0  0  0  0  0  0  0  0
   26.0612  -19.8277  -13.8292 C   0  0  0  0  0  0  0  0  0  0  0  0
   25.5507  -21.2289  -13.9655 C   0  0  0  0  0  0  0  0  0  0  0  0
   26.3266  -22.0350  -14.9820 C   0  0  0  0  0  0  0  0  0  0  0  0
   25.8630  -23.4663  -15.0504 C   0  0  0  0  0  0  0  0  0  0  0  0
   26.6056  -24.0887  -16.1531 N   0  0  0  0  0  0  0  0  0  0  0  0
   23.9607  -18.9829  -14.6499 C   0  0  0  0  0  0  0  0  0  0  0  0
   23.4173  -17.9534  -14.1866 O   0  0  0  0  0  0  0  0  0  0  0  0
   23.1129  -20.1185  -14.8800 N   0  0  0  0  0  0  0  0  0  0  0  0
   21.7060  -20.0541  -14.5456 C   0  0  1  0  0  0  0  0  0  0  0  0
   21.4622  -19.2868  -13.2682 C   0  0  0  0  0  0  0  0  0  0  0  0
   20.0291  -19.2034  -12.9381 C   0  0  0  0  0  0  0  0  0  0  0  0
   19.3428  -20.2449  -12.9051 O   0  0  0  0  0  0  0  0  0  0  0  0
   20.8945  -19.5450  -15.6653 C   0  0  0  0  0  0  0  0  0  0  0  0
   19.5141  -19.6122  -15.6769 O   0  0  0  0  0  0  0  0  0  0  0  0
   19.4877  -17.9585  -12.6732 O   0  0  0  0  0  0  0  0  0  0  0  0
   21.4737  -19.0293  -16.6492 O   0  0  0  0  0  0  0  0  0  0  0  0
  1  2  1  0
  3  5  1  0
  3  2  1  0
  3  4  1  6
  5  6  2  0
  7  8  1  0
  7  5  1  0
  8  9  1  1
 10  9  1  0
 11 10  1  0
 12 11  1  0
 12 13  1  0
 14 16  1  0
 14  8  1  0
 15 14  2  0
 17 18  1  1
 17 16  1  0
 18 19  1  0
 19 20  2  0
 21 17  1  0
 21 22  1  0
 23 19  1  0
 24 21  2  0
M  END
$$$$
