SKD.pdb
     RDKit          3D

 24 23  0  0  1  0  0  0  0  0999 V2000
   14.0784   -6.2856   -7.3427 O   0  0  0  0  0  0  0  0  0  0  0  0
   15.1982   -6.8460   -7.9593 C   0  0  0  0  0  0  0  0  0  0  0  0
   14.6684   -7.8292   -9.0013 C   0  0  2  0  0  0  0  0  0  0  0  0
   13.9821   -8.9276   -8.3912 N   0  0  0  0  0  0  0  0  0  0  0  0
   15.8023   -8.3289   -9.8061 C   0  0  0  0  0  0  0  0  0  0  0  0
   16.6139   -9.1890   -9.4014 O   0  0  0  0  0  0  0  0  0  0  0  0
   16.0204   -7.8249  -11.1323 N   0  0  0  0  0  0  0  0  0  0  0  0
   17.0219   -8.3938  -12.0104 C   0  0  1  0  0  0  0  0  0  0  0  0
   16.3930   -9.0428  -13.2436 C   0  0  0  0  0  0  0  0  0  0  0  0
   17.5059   -9.6183  -14.0639 C   0  0  0  0  0  0  0  0  0  0  0  0
   17.0229  -10.2038  -15.3713 C   0  0  0  0  0  0  0  0  0  0  0  0
   18.1318  -10.8685  -16.1437 C   0  0  0  0  0  0  0  0  0  0  0  0
   17.5351  -11.3409  -17.3989 N   0  0  0  0  0  0  0  0  0  0  0  0
   17.8839   -7.2985  -12.5125 C   0  0  0  0  0  0  0  0  0  0  0  0
   17.3770   -6.2100  -12.8703 O   0  0  0  0  0  0  0  0  0  0  0  0
   19.3110   -7.4168  -12.6157 N   0  0  0  0  0  0  0  0  0  0  0  0
   20.1019   -6.2927  -13.0699 C   0  0  1  0  0  0  0  0  0  0  0  0
   21.5190   -6.3514  -12.5519 C   0  0  0  0  0  0  0  0  0  0  0  0
   22.3260   -5.2108  -13.0181 C   0  0  0  0  0  0  0  0  0  0  0  0
   22.0135   -4.0531  -12.6731 O   0  0  0  0  0  0  0  0  0  0  0  0
   20.0496   -6.1358  -14.5342 C   0  0  0  0  0  0  0  0  0  0  0  0
   19.7929   -7.1914  -15.3886 O   0  0  0  0  0  0  0  0  0  0  0  0
   23.4149   -5.4658  -13.8319 O   0  0  0  0  0  0  0  0  0  0  0  0
   20.2449   -5.0022  -15.0304 O   0  0  0  0  0  0  0  0  0  0  0  0
  1  2  1  0
  3  5  1  0
  3  2  1  0
  3  4  1  1
  5  6  2  0
  7  8  1  0
  7  5  1  0
  8  9  1  6
 10  9  1  0
 11 10  1  0
 12 11  1  0
 12 13  1  0
 14 16  1  0
 14  8  1  0
 15 14  2  0
 17 18  1  6
 17 16  1  0
 18 19  1  0
 19 20  2  0
 21 17  1  0
 21 22  1  0
 23 19  1  0
 24 21  2  0
M  END
$$$$
