SKD.pdb
     RDKit          3D

 24 23  0  0  1  0  0  0  0  0999 V2000
   18.4624   -9.6097  -12.7153 O   0  0  0  0  0  0  0  0  0  0  0  0
   18.6455   -9.7220  -11.3361 C   0  0  0  0  0  0  0  0  0  0  0  0
   17.3063  -10.1781  -10.7602 C   0  0  2  0  0  0  0  0  0  0  0  0
   16.7526  -11.2666  -11.5072 N   0  0  0  0  0  0  0  0  0  0  0  0
   16.3697   -9.0353  -10.7669 C   0  0  0  0  0  0  0  0  0  0  0  0
   15.6070   -8.7697  -11.7208 O   0  0  0  0  0  0  0  0  0  0  0  0
   16.2999   -8.1559   -9.6347 N   0  0  0  0  0  0  0  0  0  0  0  0
   15.3811   -7.0371   -9.5921 C   0  0  1  0  0  0  0  0  0  0  0  0
   14.7128   -6.9029   -8.2236 C   0  0  0  0  0  0  0  0  0  0  0  0
   13.4439   -7.6971   -8.2646 C   0  0  0  0  0  0  0  0  0  0  0  0
   12.5744   -7.4685   -7.0493 C   0  0  0  0  0  0  0  0  0  0  0  0
   11.2682   -8.2134   -7.1332 C   0  0  0  0  0  0  0  0  0  0  0  0
   10.5194   -7.8722   -5.9176 N   0  0  0  0  0  0  0  0  0  0  0  0
   16.1504   -5.7886   -9.8019 C   0  0  0  0  0  0  0  0  0  0  0  0
   17.1925   -5.5708   -9.1413 O   0  0  0  0  0  0  0  0  0  0  0  0
   15.7579   -4.7828  -10.7483 N   0  0  0  0  0  0  0  0  0  0  0  0
   16.5219   -3.5589  -10.8663 C   0  0  1  0  0  0  0  0  0  0  0  0
   16.7632   -3.1788  -12.3075 C   0  0  0  0  0  0  0  0  0  0  0  0
   17.5195   -4.2137  -13.0332 C   0  0  0  0  0  0  0  0  0  0  0  0
   18.5852   -4.6493  -12.5520 O   0  0  0  0  0  0  0  0  0  0  0  0
   15.9238   -2.4572  -10.0917 C   0  0  0  0  0  0  0  0  0  0  0  0
   16.5562   -1.2413   -9.9140 O   0  0  0  0  0  0  0  0  0  0  0  0
   17.0160   -4.6720  -14.2372 O   0  0  0  0  0  0  0  0  0  0  0  0
   14.7965   -2.6236   -9.5709 O   0  0  0  0  0  0  0  0  0  0  0  0
  1  2  1  0
  3  5  1  0
  3  2  1  0
  3  4  1  6
  5  6  2  0
  7  8  1  0
  7  5  1  0
  8  9  1  1
 10  9  1  0
 11 10  1  0
 12 11  1  0
 12 13  1  0
 14 16  1  0
 14  8  1  0
 15 14  2  0
 17 18  1  6
 17 16  1  0
 18 19  1  0
 19 20  2  0
 21 17  1  0
 21 22  1  0
 23 19  1  0
 24 21  2  0
M  END
$$$$
