SKD.pdb
     RDKit          3D

 24 23  0  0  1  0  0  0  0  0999 V2000
   27.3219  -11.8843  -15.6101 O   0  0  0  0  0  0  0  0  0  0  0  0
   26.4561  -10.7986  -15.7514 C   0  0  0  0  0  0  0  0  0  0  0  0
   25.3071  -11.2773  -16.6368 C   0  0  2  0  0  0  0  0  0  0  0  0
   25.7420  -11.5295  -17.9772 N   0  0  0  0  0  0  0  0  0  0  0  0
   24.2449  -10.2502  -16.6373 C   0  0  0  0  0  0  0  0  0  0  0  0
   24.2138   -9.2855  -17.4314 O   0  0  0  0  0  0  0  0  0  0  0  0
   23.1698  -10.3268  -15.6894 N   0  0  0  0  0  0  0  0  0  0  0  0
   22.0640   -9.3916  -15.7115 C   0  0  1  0  0  0  0  0  0  0  0  0
   20.8117   -9.9777  -15.0592 C   0  0  0  0  0  0  0  0  0  0  0  0
   20.1427  -10.8495  -16.0765 C   0  0  0  0  0  0  0  0  0  0  0  0
   18.9613  -11.6038  -15.5103 C   0  0  0  0  0  0  0  0  0  0  0  0
   18.3093  -12.4959  -16.5337 C   0  0  0  0  0  0  0  0  0  0  0  0
   17.3707  -13.3515  -15.7978 N   0  0  0  0  0  0  0  0  0  0  0  0
   22.4351   -8.2056  -14.9050 C   0  0  0  0  0  0  0  0  0  0  0  0
   22.9577   -8.3489  -13.7753 O   0  0  0  0  0  0  0  0  0  0  0  0
   22.2234   -6.8598  -15.3580 N   0  0  0  0  0  0  0  0  0  0  0  0
   22.6559   -5.7432  -14.5445 C   0  0  1  0  0  0  0  0  0  0  0  0
   23.0955   -4.5678  -15.3841 C   0  0  0  0  0  0  0  0  0  0  0  0
   21.9948   -4.0299  -16.2019 C   0  0  0  0  0  0  0  0  0  0  0  0
   21.1720   -4.8126  -16.7189 O   0  0  0  0  0  0  0  0  0  0  0  0
   21.6440   -5.3650  -13.5422 C   0  0  0  0  0  0  0  0  0  0  0  0
   20.3819   -5.9272  -13.5078 O   0  0  0  0  0  0  0  0  0  0  0  0
   21.9108   -2.6597  -16.3703 O   0  0  0  0  0  0  0  0  0  0  0  0
   21.9337   -4.4994  -12.6841 O   0  0  0  0  0  0  0  0  0  0  0  0
  1  2  1  0
  3  5  1  0
  3  2  1  0
  3  4  1  6
  5  6  2  0
  7  8  1  0
  7  5  1  0
  8  9  1  1
 10  9  1  0
 11 10  1  0
 12 11  1  0
 12 13  1  0
 14 16  1  0
 14  8  1  0
 15 14  2  0
 17 18  1  6
 17 16  1  0
 18 19  1  0
 19 20  2  0
 21 17  1  0
 21 22  1  0
 23 19  1  0
 24 21  2  0
M  END
$$$$
