SKD.pdb
     RDKit          3D

 24 23  0  0  1  0  0  0  0  0999 V2000
   18.5477  -16.3252  -13.9901 O   0  0  0  0  0  0  0  0  0  0  0  0
   18.4258  -15.0214  -14.4733 C   0  0  0  0  0  0  0  0  0  0  0  0
   16.9957  -14.8873  -14.9929 C   0  0  2  0  0  0  0  0  0  0  0  0
   16.7838  -15.6768  -16.1681 N   0  0  0  0  0  0  0  0  0  0  0  0
   16.7261  -13.4647  -15.2870 C   0  0  0  0  0  0  0  0  0  0  0  0
   16.9727  -12.9255  -16.3874 O   0  0  0  0  0  0  0  0  0  0  0  0
   16.1492  -12.6189  -14.2810 N   0  0  0  0  0  0  0  0  0  0  0  0
   15.7446  -11.2580  -14.5674 C   0  0  1  0  0  0  0  0  0  0  0  0
   14.6758  -10.7661  -13.5910 C   0  0  0  0  0  0  0  0  0  0  0  0
   13.3999  -11.4729  -13.9298 C   0  0  0  0  0  0  0  0  0  0  0  0
   12.2467  -11.0464  -13.0503 C   0  0  0  0  0  0  0  0  0  0  0  0
   10.9665  -11.7573  -13.4021 C   0  0  0  0  0  0  0  0  0  0  0  0
   10.0174  -11.4569  -12.3235 N   0  0  0  0  0  0  0  0  0  0  0  0
   16.9159  -10.3702  -14.3817 C   0  0  0  0  0  0  0  0  0  0  0  0
   17.6847  -10.5354  -13.4062 O   0  0  0  0  0  0  0  0  0  0  0  0
   17.2301   -9.2982  -15.2835 N   0  0  0  0  0  0  0  0  0  0  0  0
   18.3689   -8.4425  -15.0256 C   0  0  1  0  0  0  0  0  0  0  0  0
   19.5678   -8.8294  -15.8580 C   0  0  0  0  0  0  0  0  0  0  0  0
   20.7170   -7.9393  -15.6198 C   0  0  0  0  0  0  0  0  0  0  0  0
   21.2900   -7.9562  -14.5115 O   0  0  0  0  0  0  0  0  0  0  0  0
   18.0305   -7.0151  -15.1653 C   0  0  0  0  0  0  0  0  0  0  0  0
   16.8349   -6.5816  -15.7065 O   0  0  0  0  0  0  0  0  0  0  0  0
   21.1257   -7.1059  -16.6452 O   0  0  0  0  0  0  0  0  0  0  0  0
   18.8559   -6.1552  -14.7797 O   0  0  0  0  0  0  0  0  0  0  0  0
  1  2  1  0
  3  5  1  0
  3  2  1  0
  3  4  1  6
  5  6  2  0
  7  8  1  0
  7  5  1  0
  8  9  1  1
 10  9  1  0
 11 10  1  0
 12 11  1  0
 12 13  1  0
 14 16  1  0
 14  8  1  0
 15 14  2  0
 17 18  1  6
 17 16  1  0
 18 19  1  0
 19 20  2  0
 21 17  1  0
 21 22  1  0
 23 19  1  0
 24 21  2  0
M  END
$$$$
