QNL.pdb
     RDKit          3D

 26 25  0  0  1  0  0  0  0  0999 V2000
   23.4058  -18.4781  -19.0579 N   0  0  0  0  0  0  0  0  0  0  0  0
   22.0164  -18.7286  -19.0940 C   0  0  0  0  0  0  0  0  0  0  0  0
   21.5973  -19.8829  -18.8705 O   0  0  0  0  0  0  0  0  0  0  0  0
   21.0736  -17.6477  -19.3904 C   0  0  0  0  0  0  0  0  0  0  0  0
   21.7337  -16.3342  -19.6718 C   0  0  0  0  0  0  0  0  0  0  0  0
   20.9751  -15.2705  -18.8828 C   0  0  2  0  0  0  0  0  0  0  0  0
   19.5542  -15.3541  -19.1444 N   0  0  0  0  0  0  0  0  0  0  0  0
   21.4485  -13.9389  -19.3331 C   0  0  0  0  0  0  0  0  0  0  0  0
   21.5192  -13.6703  -20.5656 O   0  0  0  0  0  0  0  0  0  0  0  0
   22.1541   -9.3589  -21.2929 N   0  0  0  0  0  0  0  0  0  0  0  0
   21.4928   -9.6142  -20.0776 C   0  0  0  0  0  0  0  0  0  0  0  0
   21.1658   -8.6758  -19.3231 O   0  0  0  0  0  0  0  0  0  0  0  0
   21.1858  -11.0084  -19.6976 C   0  0  0  0  0  0  0  0  0  0  0  0
   22.2883  -11.6442  -18.8763 C   0  0  2  0  0  0  0  0  0  0  0  0
   21.8318  -12.9377  -18.4182 N   0  0  0  0  0  0  0  0  0  0  0  0
   22.5304  -10.7931  -17.6615 C   0  0  0  0  0  0  0  0  0  0  0  0
   21.6891  -10.7984  -16.7317 O   0  0  0  0  0  0  0  0  0  0  0  0
   25.7864  -11.3869  -15.0517 C   0  0  0  0  0  0  0  0  0  0  0  0
   26.1913  -10.4109  -16.1536 C   0  0  2  0  0  0  0  0  0  0  0  0
   27.6518  -10.0925  -15.9981 C   0  0  0  0  0  0  0  0  0  0  0  0
   25.3961   -9.1515  -16.0650 C   0  0  0  0  0  0  0  0  0  0  0  0
   23.9359   -9.2766  -16.3021 C   0  0  2  0  0  0  0  0  0  0  0  0
   23.6931   -9.9907  -17.5590 N   0  0  0  0  0  0  0  0  0  0  0  0
   23.1682   -8.0154  -16.2661 C   0  0  0  0  0  0  0  0  0  0  0  0
   22.7962   -7.3779  -15.1143 O   0  0  0  0  0  0  0  0  0  0  0  0
   22.8220   -7.4748  -17.3499 O   0  0  0  0  0  0  0  0  0  0  0  0
  2  1  1  0
  2  3  2  0
  4  5  1  0
  4  2  1  0
  6  7  1  6
  6  5  1  0
  8  6  1  0
  9  8  2  0
 11 13  1  0
 11 10  1  0
 12 11  2  0
 14 13  1  6
 14 15  1  0
 15  8  1  0
 16 14  1  0
 16 17  2  0
 19 18  1  1
 19 21  1  0
 20 19  1  0
 22 21  1  6
 22 23  1  0
 22 24  1  0
 23 16  1  0
 24 26  2  0
 24 25  1  0
M  END
$$$$
