QNL.pdb
     RDKit          3D

 26 25  0  0  1  0  0  0  0  0999 V2000
   25.8426  -20.5040  -18.1500 N   0  0  0  0  0  0  0  0  0  0  0  0
   27.1782  -20.0496  -18.2135 C   0  0  0  0  0  0  0  0  0  0  0  0
   27.8056  -20.1441  -19.2885 O   0  0  0  0  0  0  0  0  0  0  0  0
   27.8243  -19.4728  -17.0325 C   0  0  0  0  0  0  0  0  0  0  0  0
   26.8820  -19.2093  -15.8999 C   0  0  0  0  0  0  0  0  0  0  0  0
   27.3674  -20.0315  -14.7092 C   0  0  2  0  0  0  0  0  0  0  0  0
   28.2972  -21.0544  -15.1375 N   0  0  0  0  0  0  0  0  0  0  0  0
   26.1915  -20.7026  -14.1037 C   0  0  0  0  0  0  0  0  0  0  0  0
   25.8486  -21.8569  -14.4863 O   0  0  0  0  0  0  0  0  0  0  0  0
   26.2082  -22.1975  -10.8681 N   0  0  0  0  0  0  0  0  0  0  0  0
   25.4426  -21.2323  -10.1888 C   0  0  0  0  0  0  0  0  0  0  0  0
   25.6086  -21.0339   -8.9681 O   0  0  0  0  0  0  0  0  0  0  0  0
   24.4346  -20.4502  -10.9336 C   0  0  0  0  0  0  0  0  0  0  0  0
   24.3825  -20.8165  -12.4024 C   0  0  2  0  0  0  0  0  0  0  0  0
   25.4232  -20.0886  -13.0942 N   0  0  0  0  0  0  0  0  0  0  0  0
   23.0636  -20.3620  -12.9616 C   0  0  0  0  0  0  0  0  0  0  0  0
   22.7936  -19.1375  -12.9773 O   0  0  0  0  0  0  0  0  0  0  0  0
   21.6093  -19.4908  -16.7045 C   0  0  0  0  0  0  0  0  0  0  0  0
   21.6309  -20.9686  -16.3217 C   0  0  2  0  0  0  0  0  0  0  0  0
   21.3925  -21.7871  -17.5593 C   0  0  0  0  0  0  0  0  0  0  0  0
   20.5725  -21.2710  -15.3145 C   0  0  0  0  0  0  0  0  0  0  0  0
   20.8293  -20.8040  -13.9288 C   0  0  2  0  0  0  0  0  0  0  0  0
   22.1297  -21.2989  -13.4677 N   0  0  0  0  0  0  0  0  0  0  0  0
   19.7767  -21.1140  -12.9403 C   0  0  0  0  0  0  0  0  0  0  0  0
   18.6153  -20.4031  -12.8098 O   0  0  0  0  0  0  0  0  0  0  0  0
   19.9359  -22.0876  -12.1570 O   0  0  0  0  0  0  0  0  0  0  0  0
  2  1  1  0
  2  3  2  0
  4  5  1  0
  4  2  1  0
  6  7  1  6
  6  5  1  0
  8  6  1  0
  9  8  2  0
 11 13  1  0
 11 10  1  0
 12 11  2  0
 14 13  1  1
 14 15  1  0
 15  8  1  0
 16 14  1  0
 16 17  2  0
 19 18  1  6
 19 21  1  0
 20 19  1  0
 22 21  1  6
 22 23  1  0
 22 24  1  0
 23 16  1  0
 24 26  2  0
 24 25  1  0
M  END
$$$$
