QNL.pdb
     RDKit          3D

 26 25  0  0  1  0  0  0  0  0999 V2000
   15.8576  -10.5487  -17.4682 N   0  0  0  0  0  0  0  0  0  0  0  0
   16.3148  -11.6117  -18.2777 C   0  0  0  0  0  0  0  0  0  0  0  0
   15.5614  -12.0784  -19.1567 O   0  0  0  0  0  0  0  0  0  0  0  0
   17.6585  -12.1636  -18.0910 C   0  0  0  0  0  0  0  0  0  0  0  0
   18.4651  -11.4453  -17.0549 C   0  0  0  0  0  0  0  0  0  0  0  0
   19.8293  -12.1270  -16.9934 C   0  0  2  0  0  0  0  0  0  0  0  0
   19.7234  -13.4309  -16.3746 N   0  0  0  0  0  0  0  0  0  0  0  0
   20.7237  -11.2912  -16.1558 C   0  0  0  0  0  0  0  0  0  0  0  0
   20.5058  -11.1669  -14.9175 O   0  0  0  0  0  0  0  0  0  0  0  0
   26.1165  -10.0230  -14.7593 N   0  0  0  0  0  0  0  0  0  0  0  0
   25.1288   -9.3402  -15.4924 C   0  0  0  0  0  0  0  0  0  0  0  0
   25.0779   -8.0935  -15.4816 O   0  0  0  0  0  0  0  0  0  0  0  0
   24.1461  -10.1124  -16.2801 C   0  0  0  0  0  0  0  0  0  0  0  0
   22.7172   -9.8356  -15.8606 C   0  0  2  0  0  0  0  0  0  0  0  0
   21.8334  -10.6140  -16.7000 N   0  0  0  0  0  0  0  0  0  0  0  0
   22.4182   -8.3843  -16.1115 C   0  0  0  0  0  0  0  0  0  0  0  0
   22.2519   -7.9872  -17.2892 O   0  0  0  0  0  0  0  0  0  0  0  0
   18.5073   -4.5032  -15.6422 C   0  0  0  0  0  0  0  0  0  0  0  0
   20.0245   -4.5542  -15.8040 C   0  0  2  0  0  0  0  0  0  0  0  0
   20.3728   -4.1076  -17.1960 C   0  0  0  0  0  0  0  0  0  0  0  0
   20.5349   -5.9389  -15.5843 C   0  0  0  0  0  0  0  0  0  0  0  0
   21.9931   -6.0722  -15.3392 C   0  0  2  0  0  0  0  0  0  0  0  0
   22.3234   -7.4677  -15.0358 N   0  0  0  0  0  0  0  0  0  0  0  0
   22.5579   -5.1714  -14.3141 C   0  0  0  0  0  0  0  0  0  0  0  0
   22.8358   -3.8488  -14.5259 O   0  0  0  0  0  0  0  0  0  0  0  0
   22.8089   -5.6261  -13.1665 O   0  0  0  0  0  0  0  0  0  0  0  0
  2  1  1  0
  2  3  2  0
  4  5  1  0
  4  2  1  0
  6  7  1  1
  6  5  1  0
  8  6  1  0
  9  8  2  0
 11 13  1  0
 11 10  1  0
 12 11  2  0
 14 13  1  6
 14 15  1  0
 15  8  1  0
 16 14  1  0
 16 17  2  0
 19 18  1  6
 19 21  1  0
 20 19  1  0
 22 21  1  1
 22 23  1  0
 22 24  1  0
 23 16  1  0
 24 26  2  0
 24 25  1  0
M  END
$$$$
