QNL.pdb
     RDKit          3D

 26 25  0  0  1  0  0  0  0  0999 V2000
   23.5402  -16.9758  -16.1339 N   0  0  0  0  0  0  0  0  0  0  0  0
   22.2014  -17.3081  -15.8314 C   0  0  0  0  0  0  0  0  0  0  0  0
   21.9565  -18.3774  -15.2359 O   0  0  0  0  0  0  0  0  0  0  0  0
   21.1086  -16.4099  -16.2109 C   0  0  0  0  0  0  0  0  0  0  0  0
   21.5676  -15.1575  -16.8898 C   0  0  0  0  0  0  0  0  0  0  0  0
   20.3199  -14.4253  -17.3761 C   0  0  2  0  0  0  0  0  0  0  0  0
   19.7501  -15.0922  -18.5272 N   0  0  0  0  0  0  0  0  0  0  0  0
   20.7204  -13.0578  -17.7879 C   0  0  0  0  0  0  0  0  0  0  0  0
   21.3656  -12.8774  -18.8590 O   0  0  0  0  0  0  0  0  0  0  0  0
   21.4315   -8.1774  -18.5847 N   0  0  0  0  0  0  0  0  0  0  0  0
   20.4223   -8.9192  -19.2255 C   0  0  0  0  0  0  0  0  0  0  0  0
   19.8763   -8.4866  -20.2608 O   0  0  0  0  0  0  0  0  0  0  0  0
   20.0100  -10.2212  -18.6622 C   0  0  0  0  0  0  0  0  0  0  0  0
   20.8038  -10.5993  -17.4288 C   0  0  2  0  0  0  0  0  0  0  0  0
   20.4017  -11.9247  -17.0127 N   0  0  0  0  0  0  0  0  0  0  0  0
   20.4466   -9.6489  -16.3208 C   0  0  0  0  0  0  0  0  0  0  0  0
   19.2559   -9.5782  -15.9338 O   0  0  0  0  0  0  0  0  0  0  0  0
   20.2482   -9.7219  -12.0685 C   0  0  0  0  0  0  0  0  0  0  0  0
   21.6061   -9.7214  -12.7661 C   0  0  2  0  0  0  0  0  0  0  0  0
   22.6671  -10.0334  -11.7486 C   0  0  0  0  0  0  0  0  0  0  0  0
   21.8849   -8.3916  -13.3827 C   0  0  0  0  0  0  0  0  0  0  0  0
   21.0549   -8.0232  -14.5573 C   0  0  2  0  0  0  0  0  0  0  0  0
   21.4369   -8.8380  -15.7143 N   0  0  0  0  0  0  0  0  0  0  0  0
   21.0448   -6.5900  -14.9135 C   0  0  0  0  0  0  0  0  0  0  0  0
   21.5015   -6.0933  -16.1035 O   0  0  0  0  0  0  0  0  0  0  0  0
   20.5940   -5.7537  -14.0863 O   0  0  0  0  0  0  0  0  0  0  0  0
  2  1  1  0
  2  3  2  0
  4  5  1  0
  4  2  1  0
  6  7  1  6
  6  5  1  0
  8  6  1  0
  9  8  2  0
 11 13  1  0
 11 10  1  0
 12 11  2  0
 14 13  1  6
 14 15  1  0
 15  8  1  0
 16 14  1  0
 16 17  2  0
 19 18  1  1
 19 21  1  0
 20 19  1  0
 22 21  1  1
 22 23  1  0
 22 24  1  0
 23 16  1  0
 24 26  2  0
 24 25  1  0
M  END
$$$$
