QNL.pdb
     RDKit          3D

 26 25  0  0  1  0  0  0  0  0999 V2000
   26.2674  -18.5149  -19.7470 N   0  0  0  0  0  0  0  0  0  0  0  0
   25.6939  -17.2256  -19.6902 C   0  0  0  0  0  0  0  0  0  0  0  0
   26.3682  -16.2401  -20.0541 O   0  0  0  0  0  0  0  0  0  0  0  0
   24.3225  -17.0423  -19.2100 C   0  0  0  0  0  0  0  0  0  0  0  0
   23.6022  -18.3268  -18.9429 C   0  0  0  0  0  0  0  0  0  0  0  0
   23.5561  -18.5111  -17.4285 C   0  0  2  0  0  0  0  0  0  0  0  0
   24.8717  -18.3386  -16.8508 N   0  0  0  0  0  0  0  0  0  0  0  0
   23.1079  -19.8968  -17.1472 C   0  0  0  0  0  0  0  0  0  0  0  0
   21.9739  -20.2923  -17.5393 O   0  0  0  0  0  0  0  0  0  0  0  0
   24.1550  -22.9179  -18.7500 N   0  0  0  0  0  0  0  0  0  0  0  0
   24.9622  -23.4360  -17.7207 C   0  0  0  0  0  0  0  0  0  0  0  0
   25.9303  -24.1775  -17.9849 O   0  0  0  0  0  0  0  0  0  0  0  0
   24.6551  -23.0949  -16.3165 C   0  0  0  0  0  0  0  0  0  0  0  0
   23.4680  -22.1626  -16.1901 C   0  0  2  0  0  0  0  0  0  0  0  0
   23.9167  -20.8112  -16.4430 N   0  0  0  0  0  0  0  0  0  0  0  0
   22.9672  -22.2160  -14.7741 C   0  0  0  0  0  0  0  0  0  0  0  0
   22.3631  -23.2400  -14.3757 O   0  0  0  0  0  0  0  0  0  0  0  0
   25.1861  -22.5433  -11.4698 C   0  0  0  0  0  0  0  0  0  0  0  0
   25.0353  -21.0429  -11.7082 C   0  0  2  0  0  0  0  0  0  0  0  0
   25.8717  -20.3110  -10.6967 C   0  0  0  0  0  0  0  0  0  0  0  0
   23.6097  -20.6248  -11.5700 C   0  0  0  0  0  0  0  0  0  0  0  0
   22.6497  -21.2319  -12.5261 C   0  0  2  0  0  0  0  0  0  0  0  0
   23.1707  -21.1265  -13.8921 N   0  0  0  0  0  0  0  0  0  0  0  0
   21.2654  -20.7216  -12.4586 C   0  0  0  0  0  0  0  0  0  0  0  0
   20.4187  -20.9408  -11.4069 O   0  0  0  0  0  0  0  0  0  0  0  0
   20.8133  -20.0409  -13.4173 O   0  0  0  0  0  0  0  0  0  0  0  0
  2  1  1  0
  2  3  2  0
  4  5  1  0
  4  2  1  0
  6  7  1  6
  6  5  1  0
  8  6  1  0
  9  8  2  0
 11 13  1  0
 11 10  1  0
 12 11  2  0
 14 13  1  1
 14 15  1  0
 15  8  1  0
 16 14  1  0
 16 17  2  0
 19 18  1  1
 19 21  1  0
 20 19  1  0
 22 21  1  1
 22 23  1  0
 22 24  1  0
 23 16  1  0
 24 26  2  0
 24 25  1  0
M  END
$$$$
