QNL.pdb
     RDKit          3D

 26 25  0  0  1  0  0  0  0  0999 V2000
   19.4744  -33.6579   -6.4323 N   0  0  0  0  0  0  0  0  0  0  0  0
   18.3231  -33.4694   -7.2282 C   0  0  0  0  0  0  0  0  0  0  0  0
   17.3806  -32.7804   -6.7864 O   0  0  0  0  0  0  0  0  0  0  0  0
   18.2320  -34.0745   -8.5588 C   0  0  0  0  0  0  0  0  0  0  0  0
   19.3908  -34.9588   -8.8980 C   0  0  0  0  0  0  0  0  0  0  0  0
   20.5446  -34.0502   -9.3134 C   0  0  2  0  0  0  0  0  0  0  0  0
   20.6947  -34.0376  -10.7528 N   0  0  0  0  0  0  0  0  0  0  0  0
   21.7930  -34.5939   -8.7251 C   0  0  0  0  0  0  0  0  0  0  0  0
   21.8963  -35.8284   -8.4771 O   0  0  0  0  0  0  0  0  0  0  0  0
   26.0562  -31.5388   -8.6618 N   0  0  0  0  0  0  0  0  0  0  0  0
   25.1710  -32.4939   -9.1943 C   0  0  0  0  0  0  0  0  0  0  0  0
   24.3065  -32.1620  -10.0307 O   0  0  0  0  0  0  0  0  0  0  0  0
   25.2715  -33.9008   -8.7550 C   0  0  0  0  0  0  0  0  0  0  0  0
   24.1126  -34.3198   -7.8742 C   0  0  2  0  0  0  0  0  0  0  0  0
   22.8946  -33.7677   -8.4248 N   0  0  0  0  0  0  0  0  0  0  0  0
   24.3067  -33.7180   -6.5108 C   0  0  0  0  0  0  0  0  0  0  0  0
   23.5564  -32.7841   -6.1404 O   0  0  0  0  0  0  0  0  0  0  0  0
   23.4697  -33.9748   -1.5701 C   0  0  0  0  0  0  0  0  0  0  0  0
   22.8761  -34.1071   -2.9704 C   0  0  2  0  0  0  0  0  0  0  0  0
   21.5819  -34.8645   -2.8721 C   0  0  0  0  0  0  0  0  0  0  0  0
   23.8110  -34.8366   -3.8759 C   0  0  0  0  0  0  0  0  0  0  0  0
   25.0849  -34.1470   -4.2014 C   0  0  2  0  0  0  0  0  0  0  0  0
   25.3233  -34.1939   -5.6469 N   0  0  0  0  0  0  0  0  0  0  0  0
   26.2761  -34.6151   -3.4643 C   0  0  0  0  0  0  0  0  0  0  0  0
   26.9717  -35.7512   -3.7753 O   0  0  0  0  0  0  0  0  0  0  0  0
   26.6958  -33.9445   -2.4841 O   0  0  0  0  0  0  0  0  0  0  0  0
  2  1  1  0
  2  3  2  0
  4  5  1  0
  4  2  1  0
  6  7  1  6
  6  5  1  0
  8  6  1  0
  9  8  2  0
 11 13  1  0
 11 10  1  0
 12 11  2  0
 14 13  1  6
 14 15  1  0
 15  8  1  0
 16 14  1  0
 16 17  2  0
 19 18  1  1
 19 21  1  0
 20 19  1  0
 22 21  1  6
 22 23  1  0
 22 24  1  0
 23 16  1  0
 24 26  2  0
 24 25  1  0
M  END
$$$$
