QNL.pdb
     RDKit          3D

 26 25  0  0  1  0  0  0  0  0999 V2000
   26.4338  -17.9671  -19.4273 N   0  0  0  0  0  0  0  0  0  0  0  0
   25.2980  -17.1366  -19.3067 C   0  0  0  0  0  0  0  0  0  0  0  0
   25.3833  -15.9336  -19.6288 O   0  0  0  0  0  0  0  0  0  0  0  0
   24.0310  -17.6773  -18.8093 C   0  0  0  0  0  0  0  0  0  0  0  0
   24.0986  -19.1265  -18.4415 C   0  0  0  0  0  0  0  0  0  0  0  0
   23.6686  -19.2414  -16.9816 C   0  0  2  0  0  0  0  0  0  0  0  0
   24.1798  -18.1306  -16.2075 N   0  0  0  0  0  0  0  0  0  0  0  0
   24.2452  -20.4915  -16.4293 C   0  0  0  0  0  0  0  0  0  0  0  0
   23.9419  -21.6103  -16.9318 O   0  0  0  0  0  0  0  0  0  0  0  0
   27.2197  -22.1300  -17.0629 N   0  0  0  0  0  0  0  0  0  0  0  0
   27.9239  -21.7618  -15.9019 C   0  0  0  0  0  0  0  0  0  0  0  0
   29.1638  -21.6243  -15.9279 O   0  0  0  0  0  0  0  0  0  0  0  0
   27.1824  -21.5374  -14.6441 C   0  0  0  0  0  0  0  0  0  0  0  0
   25.6868  -21.7096  -14.8114 C   0  0  2  0  0  0  0  0  0  0  0  0
   25.1394  -20.4798  -15.3401 N   0  0  0  0  0  0  0  0  0  0  0  0
   25.0768  -21.9310  -13.4559 C   0  0  0  0  0  0  0  0  0  0  0  0
   25.1346  -23.0708  -12.9363 O   0  0  0  0  0  0  0  0  0  0  0  0
   26.1151  -21.9630   -9.6601 C   0  0  0  0  0  0  0  0  0  0  0  0
   25.8050  -20.5604  -10.1769 C   0  0  2  0  0  0  0  0  0  0  0  0
   26.2762  -19.5601   -9.1591 C   0  0  0  0  0  0  0  0  0  0  0  0
   24.3396  -20.3894  -10.3998 C   0  0  0  0  0  0  0  0  0  0  0  0
   23.7464  -21.1750  -11.5112 C   0  0  2  0  0  0  0  0  0  0  0  0
   24.4415  -20.8701  -12.7652 N   0  0  0  0  0  0  0  0  0  0  0  0
   22.2855  -21.0437  -11.6833 C   0  0  0  0  0  0  0  0  0  0  0  0
   21.3692  -21.3586  -10.7177 O   0  0  0  0  0  0  0  0  0  0  0  0
   21.8308  -20.6190  -12.7786 O   0  0  0  0  0  0  0  0  0  0  0  0
  2  1  1  0
  2  3  2  0
  4  5  1  0
  4  2  1  0
  6  7  1  1
  6  5  1  0
  8  6  1  0
  9  8  2  0
 11 13  1  0
 11 10  1  0
 12 11  2  0
 14 13  1  1
 14 15  1  0
 15  8  1  0
 16 14  1  0
 16 17  2  0
 19 18  1  1
 19 21  1  0
 20 19  1  0
 22 21  1  1
 22 23  1  0
 22 24  1  0
 23 16  1  0
 24 26  2  0
 24 25  1  0
M  END
$$$$
