QNL.pdb
     RDKit          3D

 26 25  0  0  1  0  0  0  0  0999 V2000
   28.9573  -21.4387  -11.6056 N   0  0  0  0  0  0  0  0  0  0  0  0
   30.2088  -21.4551  -12.2596 C   0  0  0  0  0  0  0  0  0  0  0  0
   31.1029  -22.2235  -11.8494 O   0  0  0  0  0  0  0  0  0  0  0  0
   30.4592  -20.5810  -13.4077 C   0  0  0  0  0  0  0  0  0  0  0  0
   29.2679  -19.7744  -13.8206 C   0  0  0  0  0  0  0  0  0  0  0  0
   28.4876  -20.6087  -14.8328 C   0  0  2  0  0  0  0  0  0  0  0  0
   29.1502  -20.6054  -16.1194 N   0  0  0  0  0  0  0  0  0  0  0  0
   27.1493  -19.9922  -15.0026 C   0  0  0  0  0  0  0  0  0  0  0  0
   26.9993  -18.7452  -14.8660 O   0  0  0  0  0  0  0  0  0  0  0  0
   22.1177  -19.2086  -15.2761 N   0  0  0  0  0  0  0  0  0  0  0  0
   22.5082  -20.0096  -16.3648 C   0  0  0  0  0  0  0  0  0  0  0  0
   21.7222  -20.2237  -17.3100 O   0  0  0  0  0  0  0  0  0  0  0  0
   23.8626  -20.5993  -16.3828 C   0  0  0  0  0  0  0  0  0  0  0  0
   24.6791  -20.2194  -15.1648 C   0  0  2  0  0  0  0  0  0  0  0  0
   26.0111  -20.7613  -15.3179 N   0  0  0  0  0  0  0  0  0  0  0  0
   24.0632  -20.8662  -13.9561 C   0  0  0  0  0  0  0  0  0  0  0  0
   23.8929  -22.1085  -13.9453 O   0  0  0  0  0  0  0  0  0  0  0  0
   25.1057  -22.2263  -10.0536 C   0  0  0  0  0  0  0  0  0  0  0  0
   24.9563  -20.7135  -10.1938 C   0  0  2  0  0  0  0  0  0  0  0  0
   25.4314  -20.0657   -8.9237 C   0  0  0  0  0  0  0  0  0  0  0  0
   23.5321  -20.3417  -10.4384 C   0  0  0  0  0  0  0  0  0  0  0  0
   22.9590  -20.7536  -11.7445 C   0  0  2  0  0  0  0  0  0  0  0  0
   23.6762  -20.0893  -12.8367 N   0  0  0  0  0  0  0  0  0  0  0  0
   21.5013  -20.5688  -11.8941 C   0  0  0  0  0  0  0  0  0  0  0  0
   20.9270  -19.6732  -12.7540 O   0  0  0  0  0  0  0  0  0  0  0  0
   20.7180  -21.2665  -11.1966 O   0  0  0  0  0  0  0  0  0  0  0  0
  2  1  1  0
  2  3  2  0
  4  5  1  0
  4  2  1  0
  6  7  1  6
  6  5  1  0
  8  6  1  0
  9  8  2  0
 11 13  1  0
 11 10  1  0
 12 11  2  0
 14 13  1  6
 14 15  1  0
 15  8  1  0
 16 14  1  0
 16 17  2  0
 19 18  1  1
 19 21  1  0
 20 19  1  0
 22 21  1  1
 22 23  1  0
 22 24  1  0
 23 16  1  0
 24 26  2  0
 24 25  1  0
M  END
$$$$
