IFL.pdb
     RDKit          3D

 28 28  0  0  1  0  0  0  0  0999 V2000
   13.2343  -20.4771   19.9375 C   0  0  0  0  0  0  0  0  0  0  0  0
   12.1645  -19.4735   19.6207 C   0  0  0  0  0  0  0  0  0  0  0  0
   11.9173  -18.4735   20.7178 C   0  0  2  0  0  0  0  0  0  0  0  0
   11.7805  -19.2090   22.0369 C   0  0  0  0  0  0  0  0  0  0  0  0
   10.7357  -17.5637   20.4718 C   0  0  2  0  0  0  0  0  0  0  0  0
   11.1368  -16.6550   19.3612 N   0  0  0  0  0  0  0  0  0  0  0  0
   10.3769  -16.6928   21.5869 C   0  0  0  0  0  0  0  0  0  0  0  0
   11.2042  -15.7775   21.9450 O   0  0  0  0  0  0  0  0  0  0  0  0
    9.1884  -16.7260   22.3537 N   0  0  0  0  0  0  0  0  0  0  0  0
    8.9126  -15.8339   23.4512 C   0  0  1  0  0  0  0  0  0  0  0  0
    7.4566  -15.4282   23.3719 C   0  0  0  0  0  0  0  0  0  0  0  0
    7.1612  -14.3449   24.3451 C   0  0  0  0  0  0  0  0  0  0  0  0
    7.5916  -13.0492   24.1197 C   0  0  0  0  0  0  0  0  0  0  0  0
    7.3064  -12.0747   25.0295 C   0  0  0  0  0  0  0  0  0  0  0  0
    6.5858  -12.3885   26.1766 C   0  0  0  0  0  0  0  0  0  0  0  0
    6.1655  -13.6847   26.3840 C   0  0  0  0  0  0  0  0  0  0  0  0
    6.4439  -14.6814   25.4771 C   0  0  0  0  0  0  0  0  0  0  0  0
    9.1316  -16.4551   24.7763 C   0  0  0  0  0  0  0  0  0  0  0  0
    8.6026  -17.5284   25.1448 O   0  0  0  0  0  0  0  0  0  0  0  0
    9.8263  -13.2533   29.0571 C   0  0  0  0  0  0  0  0  0  0  0  0
   10.1650  -14.0784   27.8635 C   0  0  1  0  0  0  0  0  0  0  0  0
   11.4772  -13.5236   27.3088 C   0  0  0  0  0  0  0  0  0  0  0  0
   10.1890  -15.5330   28.0397 C   0  0  0  0  0  0  0  0  0  0  0  0
   10.4205  -16.4600   26.9281 C   0  0  2  0  0  0  0  0  0  0  0  0
    9.9963  -15.7843   25.6764 N   0  0  0  0  0  0  0  0  0  0  0  0
    9.9115  -17.8160   26.9521 C   0  0  0  0  0  0  0  0  0  0  0  0
    8.9138  -18.3691   26.1964 O   0  0  0  0  0  0  0  0  0  0  0  0
   10.4428  -18.6467   27.7933 O   0  0  0  0  0  0  0  0  0  0  0  0
  2  1  1  0
  3  2  1  0
  3  4  1  1
  5  3  1  0
  5  6  1  6
  7  5  1  0
  8  7  2  0
  9  7  1  0
 10  9  1  0
 11 12  1  0
 10 11  1  1
 12 13  2  0
 13 14  1  0
 15 14  2  0
 16 15  1  0
 17 12  1  0
 17 16  2  0
 18 10  1  0
 18 19  2  0
 21 20  1  1
 22 21  1  0
 24 23  1  1
 23 21  1  0
 24 25  1  0
 25 18  1  0
 26 24  1  0
 27 26  1  0
 28 26  2  0
M  END
$$$$
