IFL.pdb
     RDKit          3D

 28 28  0  0  1  0  0  0  0  0999 V2000
   13.3688  -20.7845   20.2089 C   0  0  0  0  0  0  0  0  0  0  0  0
   12.2849  -19.7961   19.8918 C   0  0  0  0  0  0  0  0  0  0  0  0
   11.9377  -18.8793   21.0336 C   0  0  2  0  0  0  0  0  0  0  0  0
   11.6758  -19.7107   22.2745 C   0  0  0  0  0  0  0  0  0  0  0  0
   10.7865  -17.9426   20.7475 C   0  0  2  0  0  0  0  0  0  0  0  0
   11.2265  -17.0792   19.6157 N   0  0  0  0  0  0  0  0  0  0  0  0
   10.4421  -17.0290   21.8327 C   0  0  0  0  0  0  0  0  0  0  0  0
   11.3428  -16.2241   22.2700 O   0  0  0  0  0  0  0  0  0  0  0  0
    9.1951  -16.9089   22.4900 N   0  0  0  0  0  0  0  0  0  0  0  0
    8.9524  -16.0249   23.6018 C   0  0  1  0  0  0  0  0  0  0  0  0
    7.4923  -15.6270   23.5752 C   0  0  0  0  0  0  0  0  0  0  0  0
    7.2417  -14.4935   24.5025 C   0  0  0  0  0  0  0  0  0  0  0  0
    6.5623  -14.6848   25.6928 C   0  0  0  0  0  0  0  0  0  0  0  0
    6.3463  -13.6268   26.5250 C   0  0  0  0  0  0  0  0  0  0  0  0
    6.8094  -12.3637   26.1731 C   0  0  0  0  0  0  0  0  0  0  0  0
    7.4842  -12.1925   24.9835 C   0  0  0  0  0  0  0  0  0  0  0  0
    7.7115  -13.2484   24.1309 C   0  0  0  0  0  0  0  0  0  0  0  0
    9.2203  -16.6529   24.9147 C   0  0  0  0  0  0  0  0  0  0  0  0
    8.8414  -17.8028   25.2337 O   0  0  0  0  0  0  0  0  0  0  0  0
    9.9098  -13.2860   29.1219 C   0  0  0  0  0  0  0  0  0  0  0  0
   10.1883  -14.1373   27.9312 C   0  0  1  0  0  0  0  0  0  0  0  0
   11.3119  -13.4483   27.1565 C   0  0  0  0  0  0  0  0  0  0  0  0
   10.4483  -15.5594   28.1706 C   0  0  0  0  0  0  0  0  0  0  0  0
   10.4600  -16.5530   27.0930 C   0  0  2  0  0  0  0  0  0  0  0  0
    9.9526  -15.8958   25.8626 N   0  0  0  0  0  0  0  0  0  0  0  0
    9.8360  -17.8509   27.2506 C   0  0  0  0  0  0  0  0  0  0  0  0
    8.7938  -18.3905   26.5469 O   0  0  0  0  0  0  0  0  0  0  0  0
   10.2943  -18.6340   28.1761 O   0  0  0  0  0  0  0  0  0  0  0  0
  2  1  1  0
  3  2  1  0
  3  4  1  1
  5  3  1  0
  5  6  1  6
  7  5  1  0
  8  7  2  0
  9  7  1  0
 10  9  1  0
 11 12  1  0
 10 11  1  1
 12 13  2  0
 13 14  1  0
 15 14  2  0
 16 15  1  0
 17 12  1  0
 17 16  2  0
 18 10  1  0
 18 19  2  0
 21 20  1  1
 22 21  1  0
 24 23  1  1
 23 21  1  0
 24 25  1  0
 25 18  1  0
 26 24  1  0
 27 26  1  0
 28 26  2  0
M  END
$$$$
