IFL.pdb
     RDKit          3D

 28 28  0  0  1  0  0  0  0  0999 V2000
   13.7853  -19.4234   18.8357 C   0  0  0  0  0  0  0  0  0  0  0  0
   12.3175  -19.3028   19.1239 C   0  0  0  0  0  0  0  0  0  0  0  0
   11.9751  -18.2338   20.1264 C   0  0  2  0  0  0  0  0  0  0  0  0
   12.2623  -18.7530   21.5220 C   0  0  0  0  0  0  0  0  0  0  0  0
   10.5613  -17.7111   20.0156 C   0  0  2  0  0  0  0  0  0  0  0  0
   10.4743  -17.0290   18.6937 N   0  0  0  0  0  0  0  0  0  0  0  0
   10.1893  -16.7053   21.0060 C   0  0  0  0  0  0  0  0  0  0  0  0
   10.8959  -15.6360   21.0938 O   0  0  0  0  0  0  0  0  0  0  0  0
    9.1078  -16.7566   21.9166 N   0  0  0  0  0  0  0  0  0  0  0  0
    8.8789  -15.7804   22.9514 C   0  0  1  0  0  0  0  0  0  0  0  0
    7.3910  -15.5131   23.0241 C   0  0  0  0  0  0  0  0  0  0  0  0
    7.0881  -14.5246   24.0913 C   0  0  0  0  0  0  0  0  0  0  0  0
    7.5115  -13.2114   23.9856 C   0  0  0  0  0  0  0  0  0  0  0  0
    7.2195  -12.3254   24.9797 C   0  0  0  0  0  0  0  0  0  0  0  0
    6.4990  -12.7462   26.0922 C   0  0  0  0  0  0  0  0  0  0  0  0
    6.0857  -14.0582   26.1798 C   0  0  0  0  0  0  0  0  0  0  0  0
    6.3710  -14.9667   25.1865 C   0  0  0  0  0  0  0  0  0  0  0  0
    9.3167  -16.2361   24.2895 C   0  0  0  0  0  0  0  0  0  0  0  0
    9.1150  -17.3867   24.7403 O   0  0  0  0  0  0  0  0  0  0  0  0
   10.6768  -13.1876   29.4559 C   0  0  0  0  0  0  0  0  0  0  0  0
   10.6923  -14.4944   28.7403 C   0  0  1  0  0  0  0  0  0  0  0  0
    9.7873  -15.4365   29.5345 C   0  0  0  0  0  0  0  0  0  0  0  0
   10.3826  -14.4774   27.3081 C   0  0  0  0  0  0  0  0  0  0  0  0
   10.4093  -15.6862   26.4794 C   0  0  2  0  0  0  0  0  0  0  0  0
   10.0066  -15.3032   25.1030 N   0  0  0  0  0  0  0  0  0  0  0  0
    9.7158  -16.8944   26.8768 C   0  0  0  0  0  0  0  0  0  0  0  0
    8.3711  -17.1482   26.8782 O   0  0  0  0  0  0  0  0  0  0  0  0
   10.4295  -17.8903   27.2995 O   0  0  0  0  0  0  0  0  0  0  0  0
  2  1  1  0
  3  2  1  0
  3  4  1  1
  5  3  1  0
  5  6  1  6
  7  5  1  0
  8  7  2  0
  9  7  1  0
 10  9  1  0
 11 12  1  0
 10 11  1  1
 12 13  2  0
 13 14  1  0
 15 14  2  0
 16 15  1  0
 17 12  1  0
 17 16  2  0
 18 10  1  0
 18 19  2  0
 21 20  1  1
 22 21  1  0
 24 23  1  1
 23 21  1  0
 24 25  1  0
 25 18  1  0
 26 24  1  0
 27 26  1  0
 28 26  2  0
M  END
$$$$
