IFL.pdb
     RDKit          3D

 28 28  0  0  1  0  0  0  0  0999 V2000
   12.9060  -22.1048   22.0442 C   0  0  0  0  0  0  0  0  0  0  0  0
   11.5884  -21.5165   21.6318 C   0  0  0  0  0  0  0  0  0  0  0  0
   11.3395  -20.1329   22.1689 C   0  0  2  0  0  0  0  0  0  0  0  0
   11.4879  -20.1531   23.6780 C   0  0  0  0  0  0  0  0  0  0  0  0
   10.0130  -19.5376   21.7560 C   0  0  2  0  0  0  0  0  0  0  0  0
   10.0121  -19.5217   20.2661 N   0  0  0  0  0  0  0  0  0  0  0  0
    9.7957  -18.1540   22.1674 C   0  0  0  0  0  0  0  0  0  0  0  0
   10.5860  -17.2461   21.7184 O   0  0  0  0  0  0  0  0  0  0  0  0
    8.7866  -17.6635   23.0292 N   0  0  0  0  0  0  0  0  0  0  0  0
    8.6594  -16.2813   23.4161 C   0  0  1  0  0  0  0  0  0  0  0  0
    7.2335  -16.0495   23.8677 C   0  0  0  0  0  0  0  0  0  0  0  0
    7.0973  -14.7151   24.5071 C   0  0  0  0  0  0  0  0  0  0  0  0
    7.5503  -13.5723   23.8718 C   0  0  0  0  0  0  0  0  0  0  0  0
    7.4124  -12.3607   24.4815 C   0  0  0  0  0  0  0  0  0  0  0  0
    6.8182  -12.2810   25.7362 C   0  0  0  0  0  0  0  0  0  0  0  0
    6.3730  -13.4303   26.3534 C   0  0  0  0  0  0  0  0  0  0  0  0
    6.5036  -14.6618   25.7536 C   0  0  0  0  0  0  0  0  0  0  0  0
    9.5496  -15.9056   24.5369 C   0  0  0  0  0  0  0  0  0  0  0  0
   10.1087  -14.7907   24.6462 O   0  0  0  0  0  0  0  0  0  0  0  0
   11.2041  -14.0798   28.8489 C   0  0  0  0  0  0  0  0  0  0  0  0
    9.8994  -14.7834   28.6985 C   0  0  1  0  0  0  0  0  0  0  0  0
    8.8205  -13.8039   29.1610 C   0  0  0  0  0  0  0  0  0  0  0  0
    9.6070  -15.3803   27.3925 C   0  0  0  0  0  0  0  0  0  0  0  0
   10.4048  -16.4716   26.8259 C   0  0  2  0  0  0  0  0  0  0  0  0
    9.7761  -16.8766   25.5437 N   0  0  0  0  0  0  0  0  0  0  0  0
   10.7417  -17.6477   27.6019 C   0  0  0  0  0  0  0  0  0  0  0  0
   10.0128  -18.2636   28.5826 O   0  0  0  0  0  0  0  0  0  0  0  0
   11.8814  -18.2195   27.3696 O   0  0  0  0  0  0  0  0  0  0  0  0
  2  1  1  0
  3  2  1  0
  3  4  1  1
  5  3  1  0
  5  6  1  6
  7  5  1  0
  8  7  2  0
  9  7  1  0
 10  9  1  0
 11 12  1  0
 10 11  1  1
 12 13  2  0
 13 14  1  0
 15 14  2  0
 16 15  1  0
 17 12  1  0
 17 16  2  0
 18 10  1  0
 18 19  2  0
 21 20  1  6
 22 21  1  0
 24 23  1  1
 23 21  1  0
 24 25  1  0
 25 18  1  0
 26 24  1  0
 27 26  1  0
 28 26  2  0
M  END
$$$$
