IFL.pdb
     RDKit          3D

 28 28  0  0  1  0  0  0  0  0999 V2000
    9.2287  -19.8808   17.4819 C   0  0  0  0  0  0  0  0  0  0  0  0
    9.5446  -19.9280   18.9482 C   0  0  0  0  0  0  0  0  0  0  0  0
    9.5656  -18.5789   19.6148 C   0  0  2  0  0  0  0  0  0  0  0  0
   10.5929  -17.7017   18.9258 C   0  0  0  0  0  0  0  0  0  0  0  0
    9.7996  -18.6293   21.1072 C   0  0  2  0  0  0  0  0  0  0  0  0
    8.7251  -19.4973   21.6659 N   0  0  0  0  0  0  0  0  0  0  0  0
    9.6770  -17.3506   21.8007 C   0  0  0  0  0  0  0  0  0  0  0  0
   10.5711  -16.4509   21.5972 O   0  0  0  0  0  0  0  0  0  0  0  0
    8.6599  -16.9574   22.7021 N   0  0  0  0  0  0  0  0  0  0  0  0
    8.6387  -15.6917   23.3904 C   0  0  1  0  0  0  0  0  0  0  0  0
    7.2948  -15.5503   24.0721 C   0  0  0  0  0  0  0  0  0  0  0  0
    7.1590  -14.2049   24.6878 C   0  0  0  0  0  0  0  0  0  0  0  0
    7.8546  -13.1192   24.1857 C   0  0  0  0  0  0  0  0  0  0  0  0
    7.7112  -11.8959   24.7701 C   0  0  0  0  0  0  0  0  0  0  0  0
    6.8678  -11.7470   25.8657 C   0  0  0  0  0  0  0  0  0  0  0  0
    6.1831  -12.8400   26.3519 C   0  0  0  0  0  0  0  0  0  0  0  0
    6.3153  -14.0823   25.7751 C   0  0  0  0  0  0  0  0  0  0  0  0
    9.6825  -15.5779   24.4332 C   0  0  0  0  0  0  0  0  0  0  0  0
   10.7699  -14.9774   24.2758 O   0  0  0  0  0  0  0  0  0  0  0  0
    9.1922  -13.8317   29.2484 C   0  0  0  0  0  0  0  0  0  0  0  0
    9.6830  -14.3409   27.9370 C   0  0  1  0  0  0  0  0  0  0  0  0
   10.7070  -13.3247   27.4308 C   0  0  0  0  0  0  0  0  0  0  0  0
   10.1784  -15.7194   27.8967 C   0  0  0  0  0  0  0  0  0  0  0  0
   10.5368  -16.3942   26.6458 C   0  0  2  0  0  0  0  0  0  0  0  0
    9.4243  -16.1909   25.6844 N   0  0  0  0  0  0  0  0  0  0  0  0
   10.9583  -17.7800   26.6247 C   0  0  0  0  0  0  0  0  0  0  0  0
   10.3660  -18.8453   26.0027 O   0  0  0  0  0  0  0  0  0  0  0  0
   12.0338  -18.0951   27.2758 O   0  0  0  0  0  0  0  0  0  0  0  0
  2  1  1  0
  3  2  1  0
  3  4  1  6
  5  3  1  0
  5  6  1  1
  7  5  1  0
  8  7  2  0
  9  7  1  0
 10  9  1  0
 11 12  1  0
 10 11  1  1
 12 13  2  0
 13 14  1  0
 15 14  2  0
 16 15  1  0
 17 12  1  0
 17 16  2  0
 18 10  1  0
 18 19  2  0
 21 20  1  1
 22 21  1  0
 24 23  1  1
 23 21  1  0
 24 25  1  0
 25 18  1  0
 26 24  1  0
 27 26  1  0
 28 26  2  0
M  END
$$$$
