IFL.pdb
     RDKit          3D

 28 28  0  0  1  0  0  0  0  0999 V2000
    6.0544  -22.4326   24.2868 C   0  0  0  0  0  0  0  0  0  0  0  0
    5.8442  -21.2157   23.4341 C   0  0  0  0  0  0  0  0  0  0  0  0
    6.9455  -20.1954   23.5392 C   0  0  2  0  0  0  0  0  0  0  0  0
    7.2437  -19.9373   25.0035 C   0  0  0  0  0  0  0  0  0  0  0  0
    6.6680  -18.9064   22.8003 C   0  0  2  0  0  0  0  0  0  0  0  0
    6.3981  -19.2897   21.3859 N   0  0  0  0  0  0  0  0  0  0  0  0
    7.7821  -17.9646   22.7502 C   0  0  0  0  0  0  0  0  0  0  0  0
    8.8701  -18.3271   22.1712 O   0  0  0  0  0  0  0  0  0  0  0  0
    7.8200  -16.6516   23.2757 N   0  0  0  0  0  0  0  0  0  0  0  0
    8.9744  -15.7915   23.2124 C   0  0  1  0  0  0  0  0  0  0  0  0
    8.4896  -14.3643   23.0753 C   0  0  0  0  0  0  0  0  0  0  0  0
    8.0844  -14.0813   21.6741 C   0  0  0  0  0  0  0  0  0  0  0  0
    7.2616  -13.0100   21.3740 C   0  0  0  0  0  0  0  0  0  0  0  0
    6.9055  -12.7735   20.0794 C   0  0  0  0  0  0  0  0  0  0  0  0
    7.3707  -13.6092   19.0700 C   0  0  0  0  0  0  0  0  0  0  0  0
    8.1894  -14.6714   19.3882 C   0  0  0  0  0  0  0  0  0  0  0  0
    8.5594  -14.9257   20.6890 C   0  0  0  0  0  0  0  0  0  0  0  0
    9.8203  -15.8614   24.4246 C   0  0  0  0  0  0  0  0  0  0  0  0
   11.0217  -15.5112   24.4637 O   0  0  0  0  0  0  0  0  0  0  0  0
    8.5476  -13.4020   28.6089 C   0  0  0  0  0  0  0  0  0  0  0  0
    9.3892  -14.1643   27.6442 C   0  0  1  0  0  0  0  0  0  0  0  0
   10.7431  -13.4559   27.5930 C   0  0  0  0  0  0  0  0  0  0  0  0
    9.5084  -15.6094   27.8556 C   0  0  0  0  0  0  0  0  0  0  0  0
   10.0439  -16.5158   26.8357 C   0  0  2  0  0  0  0  0  0  0  0  0
    9.2223  -16.3574   25.6097 N   0  0  0  0  0  0  0  0  0  0  0  0
   10.2566  -17.9229   27.1070 C   0  0  0  0  0  0  0  0  0  0  0  0
   11.1133  -18.5016   28.0034 O   0  0  0  0  0  0  0  0  0  0  0  0
    9.5654  -18.7815   26.4253 O   0  0  0  0  0  0  0  0  0  0  0  0
  2  1  1  0
  3  2  1  0
  3  4  1  1
  5  3  1  0
  5  6  1  6
  7  5  1  0
  8  7  2  0
  9  7  1  0
 10  9  1  0
 11 12  1  0
 10 11  1  1
 12 13  2  0
 13 14  1  0
 15 14  2  0
 16 15  1  0
 17 12  1  0
 17 16  2  0
 18 10  1  0
 18 19  2  0
 21 20  1  1
 22 21  1  0
 24 23  1  1
 23 21  1  0
 24 25  1  0
 25 18  1  0
 26 24  1  0
 27 26  1  0
 28 26  2  0
M  END
$$$$
