IFL.pdb
     RDKit          3D

 28 28  0  0  1  0  0  0  0  0999 V2000
   12.4974  -20.9422   20.1502 C   0  0  0  0  0  0  0  0  0  0  0  0
   11.0797  -20.4580   20.2393 C   0  0  0  0  0  0  0  0  0  0  0  0
   10.9147  -19.1848   21.0246 C   0  0  2  0  0  0  0  0  0  0  0  0
   11.5508  -19.3590   22.3902 C   0  0  0  0  0  0  0  0  0  0  0  0
    9.4843  -18.7107   21.1421 C   0  0  2  0  0  0  0  0  0  0  0  0
    8.9825  -18.5588   19.7474 N   0  0  0  0  0  0  0  0  0  0  0  0
    9.3103  -17.4048   21.7707 C   0  0  0  0  0  0  0  0  0  0  0  0
   10.0151  -16.4179   21.3467 O   0  0  0  0  0  0  0  0  0  0  0  0
    8.4299  -17.0713   22.8267 N   0  0  0  0  0  0  0  0  0  0  0  0
    8.4083  -15.7885   23.4828 C   0  0  1  0  0  0  0  0  0  0  0  0
    7.1078  -15.6748   24.2487 C   0  0  0  0  0  0  0  0  0  0  0  0
    6.8900  -14.2779   24.7060 C   0  0  0  0  0  0  0  0  0  0  0  0
    7.3466  -13.2057   23.9599 C   0  0  0  0  0  0  0  0  0  0  0  0
    7.1328  -11.9343   24.4032 C   0  0  0  0  0  0  0  0  0  0  0  0
    6.4583  -11.7232   25.6007 C   0  0  0  0  0  0  0  0  0  0  0  0
    6.0109  -12.8037   26.3303 C   0  0  0  0  0  0  0  0  0  0  0  0
    6.2173  -14.0940   25.8988 C   0  0  0  0  0  0  0  0  0  0  0  0
    9.5135  -15.6102   24.4505 C   0  0  0  0  0  0  0  0  0  0  0  0
   10.5808  -15.0076   24.1945 O   0  0  0  0  0  0  0  0  0  0  0  0
    9.9187  -13.5037   29.2089 C   0  0  0  0  0  0  0  0  0  0  0  0
   10.1707  -14.1422   27.8865 C   0  0  1  0  0  0  0  0  0  0  0  0
   11.3836  -13.4325   27.2844 C   0  0  0  0  0  0  0  0  0  0  0  0
   10.2919  -15.6023   27.8599 C   0  0  0  0  0  0  0  0  0  0  0  0
   10.5235  -16.3537   26.6228 C   0  0  2  0  0  0  0  0  0  0  0  0
    9.3421  -16.1602   25.7451 N   0  0  0  0  0  0  0  0  0  0  0  0
   10.8972  -17.7532   26.6434 C   0  0  0  0  0  0  0  0  0  0  0  0
   12.1136  -18.3100   26.9312 O   0  0  0  0  0  0  0  0  0  0  0  0
    9.9861  -18.6269   26.3496 O   0  0  0  0  0  0  0  0  0  0  0  0
  2  1  1  0
  3  2  1  0
  3  4  1  1
  5  3  1  0
  5  6  1  6
  7  5  1  0
  8  7  2  0
  9  7  1  0
 10  9  1  0
 11 12  1  0
 10 11  1  1
 12 13  2  0
 13 14  1  0
 15 14  2  0
 16 15  1  0
 17 12  1  0
 17 16  2  0
 18 10  1  0
 18 19  2  0
 21 20  1  1
 22 21  1  0
 24 23  1  1
 23 21  1  0
 24 25  1  0
 25 18  1  0
 26 24  1  0
 27 26  1  0
 28 26  2  0
M  END
$$$$
