IFL.pdb
     RDKit          3D

 28 28  0  0  1  0  0  0  0  0999 V2000
   11.2737  -20.0993   18.9099 C   0  0  0  0  0  0  0  0  0  0  0  0
   10.1870  -19.0663   18.9743 C   0  0  0  0  0  0  0  0  0  0  0  0
   10.2552  -18.1793   20.1882 C   0  0  2  0  0  0  0  0  0  0  0  0
   10.3519  -19.0449   21.4296 C   0  0  0  0  0  0  0  0  0  0  0  0
    9.1180  -17.1896   20.2966 C   0  0  2  0  0  0  0  0  0  0  0  0
    9.2282  -16.3000   19.1065 N   0  0  0  0  0  0  0  0  0  0  0  0
    9.1689  -16.3066   21.4579 C   0  0  0  0  0  0  0  0  0  0  0  0
   10.2362  -15.6225   21.6656 O   0  0  0  0  0  0  0  0  0  0  0  0
    8.1544  -16.0966   22.4214 N   0  0  0  0  0  0  0  0  0  0  0  0
    8.3104  -15.2642   23.5871 C   0  0  1  0  0  0  0  0  0  0  0  0
    6.9337  -14.8282   24.0404 C   0  0  0  0  0  0  0  0  0  0  0  0
    7.0325  -13.9039   25.1995 C   0  0  0  0  0  0  0  0  0  0  0  0
    7.5402  -12.6254   25.0487 C   0  0  0  0  0  0  0  0  0  0  0  0
    7.6192  -11.7981   26.1294 C   0  0  0  0  0  0  0  0  0  0  0  0
    7.1899  -12.2435   27.3748 C   0  0  0  0  0  0  0  0  0  0  0  0
    6.6871  -13.5202   27.5056 C   0  0  0  0  0  0  0  0  0  0  0  0
    6.5996  -14.3693   26.4263 C   0  0  0  0  0  0  0  0  0  0  0  0
    8.9531  -15.9644   24.7214 C   0  0  0  0  0  0  0  0  0  0  0  0
    8.5425  -17.0445   25.2035 O   0  0  0  0  0  0  0  0  0  0  0  0
   14.3396  -15.7806   24.7490 C   0  0  0  0  0  0  0  0  0  0  0  0
   12.9058  -16.1606   24.8899 C   0  0  1  0  0  0  0  0  0  0  0  0
   12.8034  -17.6316   24.4861 C   0  0  0  0  0  0  0  0  0  0  0  0
   12.2601  -15.8744   26.1738 C   0  0  0  0  0  0  0  0  0  0  0  0
   10.8217  -16.0535   26.3923 C   0  0  2  0  0  0  0  0  0  0  0  0
   10.1049  -15.3656   25.2894 N   0  0  0  0  0  0  0  0  0  0  0  0
   10.2005  -15.7296   27.6603 C   0  0  0  0  0  0  0  0  0  0  0  0
   10.3020  -16.3876   28.8558 O   0  0  0  0  0  0  0  0  0  0  0  0
    9.4329  -14.6864   27.7088 O   0  0  0  0  0  0  0  0  0  0  0  0
  2  1  1  0
  3  2  1  0
  3  4  1  1
  5  3  1  0
  5  6  1  6
  7  5  1  0
  8  7  2  0
  9  7  1  0
 10  9  1  0
 11 12  1  0
 10 11  1  1
 12 13  2  0
 13 14  1  0
 15 14  2  0
 16 15  1  0
 17 12  1  0
 17 16  2  0
 18 10  1  0
 18 19  2  0
 21 20  1  1
 22 21  1  0
 24 23  1  1
 23 21  1  0
 24 25  1  0
 25 18  1  0
 26 24  1  0
 27 26  1  0
 28 26  2  0
M  END
$$$$
