GEV.pdb
     RDKit          3D

 21 20  0  0  1  0  0  0  0  0999 V2000
   15.7125  -11.5099  -18.2375 N   0  0  0  0  0  0  0  0  0  0  0  0
   16.0230  -10.2150  -18.7702 C   0  0  0  0  0  0  0  0  0  0  0  0
   16.6698   -9.3423  -17.7272 C   0  0  0  0  0  0  0  0  0  0  0  0
   16.0231   -9.0655  -16.6894 O   0  0  0  0  0  0  0  0  0  0  0  0
   17.9834   -8.8423  -17.9117 N   0  0  0  0  0  0  0  0  0  0  0  0
   18.7115   -8.0601  -16.9398 C   0  0  1  0  0  0  0  0  0  0  0  0
   20.0204   -8.6768  -16.6109 C   0  0  0  0  0  0  0  0  0  0  0  0
   20.8479   -7.9621  -15.6028 C   0  0  0  0  0  0  0  0  0  0  0  0
   22.1124   -8.5988  -15.2371 C   0  0  0  0  0  0  0  0  0  0  0  0
   23.2058   -8.1999  -15.7145 O   0  0  0  0  0  0  0  0  0  0  0  0
   18.9106   -6.6718  -17.4840 C   0  0  0  0  0  0  0  0  0  0  0  0
   19.3103   -6.5363  -18.6639 O   0  0  0  0  0  0  0  0  0  0  0  0
   22.1665   -9.6655  -14.3521 O   0  0  0  0  0  0  0  0  0  0  0  0
   17.7663   -2.0178  -17.6416 C   0  0  0  0  0  0  0  0  0  0  0  0
   17.4857   -3.4430  -17.2241 C   0  0  1  0  0  0  0  0  0  0  0  0
   16.4337   -4.0477  -18.1263 C   0  0  0  0  0  0  0  0  0  0  0  0
   18.7839   -4.2210  -17.2855 C   0  0  2  0  0  0  0  0  0  0  0  0
   18.6561   -5.5261  -16.6931 N   0  0  0  0  0  0  0  0  0  0  0  0
   19.8247   -3.4795  -16.5327 C   0  0  0  0  0  0  0  0  0  0  0  0
   20.6651   -2.5478  -17.1310 O   0  0  0  0  0  0  0  0  0  0  0  0
   19.9913   -3.6672  -15.3049 O   0  0  0  0  0  0  0  0  0  0  0  0
  2  1  1  0
  3  4  2  0
  3  2  1  0
  5  3  1  0
  6  5  1  0
  6 11  1  0
  6  7  1  6
  8  9  1  0
  8  7  1  0
  9 13  1  0
 10  9  2  0
 11 12  2  0
 15 14  1  6
 15 16  1  0
 17 15  1  0
 18 11  1  0
 17 18  1  1
 19 20  1  0
 19 17  1  0
 21 19  2  0
M  END
$$$$
