GEV.pdb
     RDKit          3D

 21 20  0  0  1  0  0  0  0  0999 V2000
   14.7565  -12.6844  -15.0531 N   0  0  0  0  0  0  0  0  0  0  0  0
   14.9111  -11.3754  -15.6184 C   0  0  0  0  0  0  0  0  0  0  0  0
   16.3356  -11.1349  -16.0434 C   0  0  0  0  0  0  0  0  0  0  0  0
   17.1706  -12.0589  -15.8987 O   0  0  0  0  0  0  0  0  0  0  0  0
   16.7280   -9.8900  -16.5964 N   0  0  0  0  0  0  0  0  0  0  0  0
   18.0445   -9.5963  -17.1134 C   0  0  1  0  0  0  0  0  0  0  0  0
   18.0022   -8.5282  -18.1426 C   0  0  0  0  0  0  0  0  0  0  0  0
   19.3025   -8.1676  -18.7679 C   0  0  0  0  0  0  0  0  0  0  0  0
   19.2748   -7.0598  -19.7220 C   0  0  0  0  0  0  0  0  0  0  0  0
   18.2231   -6.4001  -19.9253 O   0  0  0  0  0  0  0  0  0  0  0  0
   18.9345   -9.1863  -15.9719 C   0  0  0  0  0  0  0  0  0  0  0  0
   18.4272   -8.5901  -14.9935 O   0  0  0  0  0  0  0  0  0  0  0  0
   20.3989   -6.6858  -20.4434 O   0  0  0  0  0  0  0  0  0  0  0  0
   23.0910  -10.2549  -15.7704 C   0  0  0  0  0  0  0  0  0  0  0  0
   22.1636  -10.2494  -14.5769 C   0  0  1  0  0  0  0  0  0  0  0  0
   22.9499   -9.9821  -13.3133 C   0  0  0  0  0  0  0  0  0  0  0  0
   21.1021   -9.1931  -14.8043 C   0  0  2  0  0  0  0  0  0  0  0  0
   20.3229   -9.4604  -15.9841 N   0  0  0  0  0  0  0  0  0  0  0  0
   21.7636   -7.8778  -14.9842 C   0  0  0  0  0  0  0  0  0  0  0  0
   21.8680   -7.2516  -16.2208 O   0  0  0  0  0  0  0  0  0  0  0  0
   22.2642   -7.2678  -14.0107 O   0  0  0  0  0  0  0  0  0  0  0  0
  2  1  1  0
  3  4  2  0
  3  2  1  0
  5  3  1  0
  6  5  1  0
  6 11  1  0
  6  7  1  6
  8  9  1  0
  8  7  1  0
  9 13  1  0
 10  9  2  0
 11 12  2  0
 15 14  1  6
 15 16  1  0
 17 15  1  0
 18 11  1  0
 17 18  1  6
 19 20  1  0
 19 17  1  0
 21 19  2  0
M  END
$$$$
