GEV.pdb
     RDKit          3D

 21 20  0  0  1  0  0  0  0  0999 V2000
   16.0902  -13.6630  -16.9712 N   0  0  0  0  0  0  0  0  0  0  0  0
   15.7690  -12.3040  -16.6444 C   0  0  0  0  0  0  0  0  0  0  0  0
   16.9541  -11.4008  -16.8633 C   0  0  0  0  0  0  0  0  0  0  0  0
   17.9825  -11.8772  -17.3993 O   0  0  0  0  0  0  0  0  0  0  0  0
   16.9110  -10.0388  -16.4726 N   0  0  0  0  0  0  0  0  0  0  0  0
   17.9604   -9.0772  -16.7190 C   0  0  1  0  0  0  0  0  0  0  0  0
   17.4338   -7.6905  -16.7569 C   0  0  0  0  0  0  0  0  0  0  0  0
   18.4251   -6.6197  -17.0444 C   0  0  0  0  0  0  0  0  0  0  0  0
   17.9229   -5.2471  -17.0024 C   0  0  0  0  0  0  0  0  0  0  0  0
   17.0380   -4.8512  -17.8041 O   0  0  0  0  0  0  0  0  0  0  0  0
   19.0037   -9.2102  -15.6434 C   0  0  0  0  0  0  0  0  0  0  0  0
   18.6329   -9.3235  -14.4518 O   0  0  0  0  0  0  0  0  0  0  0  0
   18.3949   -4.3221  -16.0827 O   0  0  0  0  0  0  0  0  0  0  0  0
   23.4972  -10.3340  -14.1902 C   0  0  0  0  0  0  0  0  0  0  0  0
   22.5328  -10.2163  -15.3480 C   0  0  1  0  0  0  0  0  0  0  0  0
   22.1159  -11.5929  -15.8146 C   0  0  0  0  0  0  0  0  0  0  0  0
   21.3411   -9.3995  -14.8932 C   0  0  2  0  0  0  0  0  0  0  0  0
   20.3850   -9.2097  -15.9517 N   0  0  0  0  0  0  0  0  0  0  0  0
   21.8125   -8.0614  -14.4604 C   0  0  0  0  0  0  0  0  0  0  0  0
   21.7262   -6.9354  -15.2710 O   0  0  0  0  0  0  0  0  0  0  0  0
   22.3170   -7.8897  -13.3262 O   0  0  0  0  0  0  0  0  0  0  0  0
  2  1  1  0
  3  4  2  0
  3  2  1  0
  5  3  1  0
  6  5  1  0
  6 11  1  0
  6  7  1  1
  8  9  1  0
  8  7  1  0
  9 13  1  0
 10  9  2  0
 11 12  2  0
 15 14  1  1
 15 16  1  0
 17 15  1  0
 18 11  1  0
 17 18  1  6
 19 20  1  0
 19 17  1  0
 21 19  2  0
M  END
$$$$
