GEV.pdb
     RDKit          3D

 21 20  0  0  1  0  0  0  0  0999 V2000
   25.8033  -20.6571   -8.2056 N   0  0  0  0  0  0  0  0  0  0  0  0
   26.2265  -21.2395   -9.4460 C   0  0  0  0  0  0  0  0  0  0  0  0
   25.5710  -20.5546  -10.6162 C   0  0  0  0  0  0  0  0  0  0  0  0
   24.6559  -19.7271  -10.3933 O   0  0  0  0  0  0  0  0  0  0  0  0
   25.9781  -20.8376  -11.9442 N   0  0  0  0  0  0  0  0  0  0  0  0
   25.5285  -20.1200  -13.1145 C   0  0  1  0  0  0  0  0  0  0  0  0
   26.5204  -20.1930  -14.2156 C   0  0  0  0  0  0  0  0  0  0  0  0
   26.1794  -19.4477  -15.4566 C   0  0  0  0  0  0  0  0  0  0  0  0
   27.1916  -19.4535  -16.5118 C   0  0  0  0  0  0  0  0  0  0  0  0
   28.0995  -20.3240  -16.5403 O   0  0  0  0  0  0  0  0  0  0  0  0
   24.2110  -20.6936  -13.5599 C   0  0  0  0  0  0  0  0  0  0  0  0
   24.0414  -21.9339  -13.5034 O   0  0  0  0  0  0  0  0  0  0  0  0
   27.1992  -18.5063  -17.5252 O   0  0  0  0  0  0  0  0  0  0  0  0
   19.4379  -20.1538  -14.1701 C   0  0  0  0  0  0  0  0  0  0  0  0
   20.7595  -19.5816  -13.7114 C   0  0  1  0  0  0  0  0  0  0  0  0
   20.8097  -19.5450  -12.2006 C   0  0  0  0  0  0  0  0  0  0  0  0
   21.8718  -20.4359  -14.2835 C   0  0  2  0  0  0  0  0  0  0  0  0
   23.1689  -19.8636  -14.0374 N   0  0  0  0  0  0  0  0  0  0  0  0
   21.6914  -20.5395  -15.7521 C   0  0  0  0  0  0  0  0  0  0  0  0
   20.9496  -21.5524  -16.3488 O   0  0  0  0  0  0  0  0  0  0  0  0
   22.2105  -19.7031  -16.5276 O   0  0  0  0  0  0  0  0  0  0  0  0
  2  1  1  0
  3  4  2  0
  3  2  1  0
  5  3  1  0
  6  5  1  0
  6 11  1  0
  6  7  1  6
  8  9  1  0
  8  7  1  0
  9 13  1  0
 10  9  2  0
 11 12  2  0
 15 14  1  1
 15 16  1  0
 17 15  1  0
 18 11  1  0
 17 18  1  6
 19 20  1  0
 19 17  1  0
 21 19  2  0
M  END
$$$$
