GEV.pdb
     RDKit          3D

 21 20  0  0  1  0  0  0  0  0999 V2000
   33.7641  -36.1190   -7.6073 N   0  0  0  0  0  0  0  0  0  0  0  0
   33.8028  -35.6031   -6.2697 C   0  0  0  0  0  0  0  0  0  0  0  0
   32.6536  -36.1320   -5.4528 C   0  0  0  0  0  0  0  0  0  0  0  0
   31.6244  -36.5287   -6.0488 O   0  0  0  0  0  0  0  0  0  0  0  0
   32.7306  -36.1821   -4.0382 N   0  0  0  0  0  0  0  0  0  0  0  0
   31.6463  -36.5723   -3.1671 C   0  0  1  0  0  0  0  0  0  0  0  0
   32.1467  -37.1079   -1.8770 C   0  0  0  0  0  0  0  0  0  0  0  0
   31.1259  -37.7007   -0.9724 C   0  0  0  0  0  0  0  0  0  0  0  0
   31.6168  -38.2167    0.3047 C   0  0  0  0  0  0  0  0  0  0  0  0
   30.8396  -38.7607    1.1308 O   0  0  0  0  0  0  0  0  0  0  0  0
   30.7611  -35.3795   -2.9290 C   0  0  0  0  0  0  0  0  0  0  0  0
   31.2808  -34.3098   -2.5343 O   0  0  0  0  0  0  0  0  0  0  0  0
   32.9540  -38.1318    0.6639 O   0  0  0  0  0  0  0  0  0  0  0  0
   26.5835  -32.9984   -3.6921 C   0  0  0  0  0  0  0  0  0  0  0  0
   27.4830  -34.1617   -4.0413 C   0  0  1  0  0  0  0  0  0  0  0  0
   28.0576  -33.9722   -5.4270 C   0  0  0  0  0  0  0  0  0  0  0  0
   28.5744  -34.2500   -2.9948 C   0  0  2  0  0  0  0  0  0  0  0  0
   29.3634  -35.4443   -3.1413 N   0  0  0  0  0  0  0  0  0  0  0  0
   27.9495  -34.2795   -1.6499 C   0  0  0  0  0  0  0  0  0  0  0  0
   27.5820  -33.1264   -0.9661 O   0  0  0  0  0  0  0  0  0  0  0  0
   27.7243  -35.3651   -1.0657 O   0  0  0  0  0  0  0  0  0  0  0  0
  2  1  1  0
  3  4  2  0
  3  2  1  0
  5  3  1  0
  6  5  1  0
  6 11  1  0
  6  7  1  1
  8  9  1  0
  8  7  1  0
  9 13  1  0
 10  9  2  0
 11 12  2  0
 15 14  1  1
 15 16  1  0
 17 15  1  0
 18 11  1  0
 17 18  1  6
 19 20  1  0
 19 17  1  0
 21 19  2  0
M  END
$$$$
