GEV.pdb
     RDKit          3D

 21 20  0  0  1  0  0  0  0  0999 V2000
   17.7472  -11.9874  -18.1103 N   0  0  0  0  0  0  0  0  0  0  0  0
   17.3205  -10.6423  -18.3660 C   0  0  0  0  0  0  0  0  0  0  0  0
   17.0979   -9.8920  -17.0793 C   0  0  0  0  0  0  0  0  0  0  0  0
   16.8368  -10.5436  -16.0406 O   0  0  0  0  0  0  0  0  0  0  0  0
   17.1814   -8.4774  -17.0399 N   0  0  0  0  0  0  0  0  0  0  0  0
   17.0323   -7.6760  -15.8473 C   0  0  1  0  0  0  0  0  0  0  0  0
   18.2870   -7.6337  -15.0564 C   0  0  0  0  0  0  0  0  0  0  0  0
   19.5295   -7.3242  -15.8128 C   0  0  0  0  0  0  0  0  0  0  0  0
   20.7703   -7.3129  -15.0392 C   0  0  0  0  0  0  0  0  0  0  0  0
   21.5921   -8.2628  -15.1101 O   0  0  0  0  0  0  0  0  0  0  0  0
   16.6186   -6.2854  -16.2449 C   0  0  0  0  0  0  0  0  0  0  0  0
   16.9747   -5.8448  -17.3626 O   0  0  0  0  0  0  0  0  0  0  0  0
   21.0986   -6.2615  -14.1961 O   0  0  0  0  0  0  0  0  0  0  0  0
   13.3782   -4.7688  -16.9908 C   0  0  0  0  0  0  0  0  0  0  0  0
   13.9433   -3.9908  -15.8247 C   0  0  1  0  0  0  0  0  0  0  0  0
   13.3301   -4.4798  -14.5320 C   0  0  0  0  0  0  0  0  0  0  0  0
   15.4485   -4.1603  -15.8245 C   0  0  2  0  0  0  0  0  0  0  0  0
   15.8407   -5.4734  -15.3856 N   0  0  0  0  0  0  0  0  0  0  0  0
   16.0433   -3.1722  -14.8919 C   0  0  0  0  0  0  0  0  0  0  0  0
   16.6692   -3.5394  -13.7063 O   0  0  0  0  0  0  0  0  0  0  0  0
   16.0042   -1.9445  -15.1401 O   0  0  0  0  0  0  0  0  0  0  0  0
  2  1  1  0
  3  4  2  0
  3  2  1  0
  5  3  1  0
  6  5  1  0
  6 11  1  0
  6  7  1  6
  8  9  1  0
  8  7  1  0
  9 13  1  0
 10  9  2  0
 11 12  2  0
 15 14  1  6
 15 16  1  0
 17 15  1  0
 18 11  1  0
 17 18  1  1
 19 20  1  0
 19 17  1  0
 21 19  2  0
M  END
$$$$
