GEV.pdb
     RDKit          3D

 21 20  0  0  1  0  0  0  0  0999 V2000
   16.1794  -13.8155  -17.3230 N   0  0  0  0  0  0  0  0  0  0  0  0
   16.0448  -12.5789  -16.6092 C   0  0  0  0  0  0  0  0  0  0  0  0
   17.2440  -11.6948  -16.8285 C   0  0  0  0  0  0  0  0  0  0  0  0
   18.3752  -12.2276  -16.9208 O   0  0  0  0  0  0  0  0  0  0  0  0
   17.1004  -10.2881  -16.9292 N   0  0  0  0  0  0  0  0  0  0  0  0
   18.1834   -9.3649  -17.1771 C   0  0  1  0  0  0  0  0  0  0  0  0
   17.6813   -8.0050  -17.4937 C   0  0  0  0  0  0  0  0  0  0  0  0
   18.7108   -6.9902  -17.8434 C   0  0  0  0  0  0  0  0  0  0  0  0
   18.2198   -5.6400  -18.1159 C   0  0  0  0  0  0  0  0  0  0  0  0
   17.5626   -5.3825  -19.1572 O   0  0  0  0  0  0  0  0  0  0  0  0
   19.0737   -9.3236  -15.9652 C   0  0  0  0  0  0  0  0  0  0  0  0
   18.5524   -9.4058  -14.8287 O   0  0  0  0  0  0  0  0  0  0  0  0
   18.4534   -4.5858  -17.2452 O   0  0  0  0  0  0  0  0  0  0  0  0
   23.3570  -10.0092  -13.8302 C   0  0  0  0  0  0  0  0  0  0  0  0
   22.5011  -10.1259  -15.0704 C   0  0  1  0  0  0  0  0  0  0  0  0
   22.0984  -11.5673  -15.2862 C   0  0  0  0  0  0  0  0  0  0  0  0
   21.2912   -9.2309  -14.8992 C   0  0  2  0  0  0  0  0  0  0  0  0
   20.4780   -9.1948  -16.0858 N   0  0  0  0  0  0  0  0  0  0  0  0
   21.7513   -7.8486  -14.6206 C   0  0  0  0  0  0  0  0  0  0  0  0
   21.9083   -6.8931  -15.6179 O   0  0  0  0  0  0  0  0  0  0  0  0
   22.0223   -7.4807  -13.4537 O   0  0  0  0  0  0  0  0  0  0  0  0
  2  1  1  0
  3  4  2  0
  3  2  1  0
  5  3  1  0
  6  5  1  0
  6 11  1  0
  6  7  1  1
  8  9  1  0
  8  7  1  0
  9 13  1  0
 10  9  2  0
 11 12  2  0
 15 14  1  1
 15 16  1  0
 17 15  1  0
 18 11  1  0
 17 18  1  6
 19 20  1  0
 19 17  1  0
 21 19  2  0
M  END
$$$$
