GEV.pdb
     RDKit          3D

 21 20  0  0  1  0  0  0  0  0999 V2000
   20.1426  -15.6349  -16.9918 N   0  0  0  0  0  0  0  0  0  0  0  0
   19.6917  -14.5514  -16.1674 C   0  0  0  0  0  0  0  0  0  0  0  0
   20.2782  -13.2425  -16.6265 C   0  0  0  0  0  0  0  0  0  0  0  0
   21.1433  -13.2564  -17.5338 O   0  0  0  0  0  0  0  0  0  0  0  0
   19.8626  -12.0175  -16.0467 N   0  0  0  0  0  0  0  0  0  0  0  0
   20.3217  -10.7120  -16.4610 C   0  0  1  0  0  0  0  0  0  0  0  0
   19.2913   -9.6702  -16.2274 C   0  0  0  0  0  0  0  0  0  0  0  0
   19.6594   -8.2836  -16.6194 C   0  0  0  0  0  0  0  0  0  0  0  0
   18.6325   -7.2620  -16.4189 C   0  0  0  0  0  0  0  0  0  0  0  0
   17.6966   -7.1067  -17.2451 O   0  0  0  0  0  0  0  0  0  0  0  0
   21.5811  -10.3786  -15.7089 C   0  0  0  0  0  0  0  0  0  0  0  0
   21.5722  -10.4393  -14.4573 O   0  0  0  0  0  0  0  0  0  0  0  0
   18.6410   -6.4212  -15.3157 O   0  0  0  0  0  0  0  0  0  0  0  0
   26.3599  -10.0357  -15.3209 C   0  0  0  0  0  0  0  0  0  0  0  0
   25.1608  -10.4447  -16.1451 C   0  0  1  0  0  0  0  0  0  0  0  0
   24.9714  -11.9431  -16.0729 C   0  0  0  0  0  0  0  0  0  0  0  0
   23.9478   -9.7055  -15.6193 C   0  0  2  0  0  0  0  0  0  0  0  0
   22.7657  -10.0007  -16.3849 N   0  0  0  0  0  0  0  0  0  0  0  0
   24.1969   -8.2463  -15.7112 C   0  0  0  0  0  0  0  0  0  0  0  0
   24.9129   -7.5436  -14.7490 O   0  0  0  0  0  0  0  0  0  0  0  0
   23.7634   -7.5764  -16.6776 O   0  0  0  0  0  0  0  0  0  0  0  0
  2  1  1  0
  3  4  2  0
  3  2  1  0
  5  3  1  0
  6  5  1  0
  6 11  1  0
  6  7  1  1
  8  9  1  0
  8  7  1  0
  9 13  1  0
 10  9  2  0
 11 12  2  0
 15 14  1  1
 15 16  1  0
 17 15  1  0
 18 11  1  0
 17 18  1  6
 19 20  1  0
 19 17  1  0
 21 19  2  0
M  END
$$$$
