GEV.pdb
     RDKit          3D

 21 20  0  0  1  0  0  0  0  0999 V2000
   15.6607  -12.6029  -17.1392 N   0  0  0  0  0  0  0  0  0  0  0  0
   15.4973  -11.1786  -17.1788 C   0  0  0  0  0  0  0  0  0  0  0  0
   16.8232  -10.4871  -17.3568 C   0  0  0  0  0  0  0  0  0  0  0  0
   17.8245  -11.1763  -17.6637 O   0  0  0  0  0  0  0  0  0  0  0  0
   16.9402   -9.0852  -17.1819 N   0  0  0  0  0  0  0  0  0  0  0  0
   18.1576   -8.3303  -17.3685 C   0  0  1  0  0  0  0  0  0  0  0  0
   17.8762   -6.9091  -17.6891 C   0  0  0  0  0  0  0  0  0  0  0  0
   19.0618   -6.0398  -17.9141 C   0  0  0  0  0  0  0  0  0  0  0  0
   18.7844   -4.6447  -18.2527 C   0  0  0  0  0  0  0  0  0  0  0  0
   19.7158   -3.8344  -18.4950 O   0  0  0  0  0  0  0  0  0  0  0  0
   18.9872   -8.4288  -16.1175 C   0  0  0  0  0  0  0  0  0  0  0  0
   18.4073   -8.4412  -15.0067 O   0  0  0  0  0  0  0  0  0  0  0  0
   17.4900   -4.1511  -18.3227 O   0  0  0  0  0  0  0  0  0  0  0  0
   23.0677   -9.6038  -16.2209 C   0  0  0  0  0  0  0  0  0  0  0  0
   22.0876   -9.9309  -15.1178 C   0  0  1  0  0  0  0  0  0  0  0  0
   22.8322  -10.2125  -13.8323 C   0  0  0  0  0  0  0  0  0  0  0  0
   21.1368   -8.7618  -14.9642 C   0  0  2  0  0  0  0  0  0  0  0  0
   20.3991   -8.5074  -16.1732 N   0  0  0  0  0  0  0  0  0  0  0  0
   21.9204   -7.5438  -14.6444 C   0  0  0  0  0  0  0  0  0  0  0  0
   22.3977   -7.2705  -13.3678 O   0  0  0  0  0  0  0  0  0  0  0  0
   22.1879   -6.6968  -15.5285 O   0  0  0  0  0  0  0  0  0  0  0  0
  2  1  1  0
  3  4  2  0
  3  2  1  0
  5  3  1  0
  6  5  1  0
  6 11  1  0
  6  7  1  1
  8  9  1  0
  8  7  1  0
  9 13  1  0
 10  9  2  0
 11 12  2  0
 15 14  1  6
 15 16  1  0
 17 15  1  0
 18 11  1  0
 17 18  1  6
 19 20  1  0
 19 17  1  0
 21 19  2  0
M  END
$$$$
