GEV.pdb
     RDKit          3D

 21 20  0  0  1  0  0  0  0  0999 V2000
   15.2160  -11.1789  -15.9908 N   0  0  0  0  0  0  0  0  0  0  0  0
   15.5443   -9.8311  -15.6266 C   0  0  0  0  0  0  0  0  0  0  0  0
   17.0213   -9.5761  -15.7731 C   0  0  0  0  0  0  0  0  0  0  0  0
   17.8259  -10.3983  -15.2749 O   0  0  0  0  0  0  0  0  0  0  0  0
   17.4956   -8.4304  -16.4602 N   0  0  0  0  0  0  0  0  0  0  0  0
   18.8886   -8.1276  -16.6938 C   0  0  1  0  0  0  0  0  0  0  0  0
   19.0757   -7.3364  -17.9350 C   0  0  0  0  0  0  0  0  0  0  0  0
   20.4743   -6.9525  -18.2641 C   0  0  0  0  0  0  0  0  0  0  0  0
   21.3196   -8.0081  -18.8202 C   0  0  0  0  0  0  0  0  0  0  0  0
   22.3846   -8.3594  -18.2501 O   0  0  0  0  0  0  0  0  0  0  0  0
   19.4275   -7.3744  -15.5084 C   0  0  0  0  0  0  0  0  0  0  0  0
   18.6920   -6.5336  -14.9407 O   0  0  0  0  0  0  0  0  0  0  0  0
   20.9899   -8.6683  -19.9947 O   0  0  0  0  0  0  0  0  0  0  0  0
   20.7566   -8.9216  -12.3540 C   0  0  0  0  0  0  0  0  0  0  0  0
   21.8132   -7.9661  -12.8588 C   0  0  1  0  0  0  0  0  0  0  0  0
   22.9155   -8.7347  -13.5522 C   0  0  0  0  0  0  0  0  0  0  0  0
   21.1515   -6.9772  -13.7961 C   0  0  2  0  0  0  0  0  0  0  0  0
   20.7397   -7.5974  -15.0274 N   0  0  0  0  0  0  0  0  0  0  0  0
   22.1223   -5.9062  -14.1284 C   0  0  0  0  0  0  0  0  0  0  0  0
   22.5659   -4.9772  -13.1943 O   0  0  0  0  0  0  0  0  0  0  0  0
   22.5895   -5.7940  -15.2858 O   0  0  0  0  0  0  0  0  0  0  0  0
  2  1  1  0
  3  4  2  0
  3  2  1  0
  5  3  1  0
  6  5  1  0
  6 11  1  0
  6  7  1  6
  8  9  1  0
  8  7  1  0
  9 13  1  0
 10  9  2  0
 11 12  2  0
 15 14  1  6
 15 16  1  0
 17 15  1  0
 18 11  1  0
 17 18  1  6
 19 20  1  0
 19 17  1  0
 21 19  2  0
M  END
$$$$
