GEV.pdb
     RDKit          3D

 21 20  0  0  1  0  0  0  0  0999 V2000
   19.8886  -17.8623  -15.4403 N   0  0  0  0  0  0  0  0  0  0  0  0
   21.2862  -17.6135  -15.2360 C   0  0  0  0  0  0  0  0  0  0  0  0
   21.9776  -18.8329  -14.6857 C   0  0  0  0  0  0  0  0  0  0  0  0
   21.4413  -19.4511  -13.7359 O   0  0  0  0  0  0  0  0  0  0  0  0
   23.2100  -19.2758  -15.2284 N   0  0  0  0  0  0  0  0  0  0  0  0
   23.9635  -20.4094  -14.7447 C   0  0  1  0  0  0  0  0  0  0  0  0
   24.6122  -21.1492  -15.8554 C   0  0  0  0  0  0  0  0  0  0  0  0
   25.3284  -22.3980  -15.4821 C   0  0  0  0  0  0  0  0  0  0  0  0
   24.4946  -23.5783  -15.2592 C   0  0  0  0  0  0  0  0  0  0  0  0
   24.8751  -24.5138  -14.5091 O   0  0  0  0  0  0  0  0  0  0  0  0
   24.9980  -19.9236  -13.7666 C   0  0  0  0  0  0  0  0  0  0  0  0
   25.5587  -18.8227  -13.9761 O   0  0  0  0  0  0  0  0  0  0  0  0
   23.2525  -23.7219  -15.8598 O   0  0  0  0  0  0  0  0  0  0  0  0
   24.8051  -19.9238   -9.8489 C   0  0  0  0  0  0  0  0  0  0  0  0
   26.0904  -20.5829  -10.2940 C   0  0  1  0  0  0  0  0  0  0  0  0
   25.9783  -22.0838  -10.1481 C   0  0  0  0  0  0  0  0  0  0  0  0
   26.3575  -20.1829  -11.7303 C   0  0  2  0  0  0  0  0  0  0  0  0
   25.3459  -20.6822  -12.6235 N   0  0  0  0  0  0  0  0  0  0  0  0
   27.6599  -20.7527  -12.1536 C   0  0  0  0  0  0  0  0  0  0  0  0
   28.8787  -20.1811  -11.8075 O   0  0  0  0  0  0  0  0  0  0  0  0
   27.7141  -21.7909  -12.8535 O   0  0  0  0  0  0  0  0  0  0  0  0
  2  1  1  0
  3  4  2  0
  3  2  1  0
  5  3  1  0
  6  5  1  0
  6 11  1  0
  6  7  1  6
  8  9  1  0
  8  7  1  0
  9 13  1  0
 10  9  2  0
 11 12  2  0
 15 14  1  6
 15 16  1  0
 17 15  1  0
 18 11  1  0
 17 18  1  6
 19 20  1  0
 19 17  1  0
 21 19  2  0
M  END
$$$$
