GEV.pdb
     RDKit          3D

 21 20  0  0  1  0  0  0  0  0999 V2000
   15.9931  -13.9437  -15.3395 N   0  0  0  0  0  0  0  0  0  0  0  0
   15.6512  -12.7556  -16.0665 C   0  0  0  0  0  0  0  0  0  0  0  0
   16.8854  -11.9820  -16.4490 C   0  0  0  0  0  0  0  0  0  0  0  0
   17.8868  -12.6131  -16.8622 O   0  0  0  0  0  0  0  0  0  0  0  0
   16.9175  -10.5686  -16.3455 N   0  0  0  0  0  0  0  0  0  0  0  0
   17.9852   -9.7302  -16.8393 C   0  0  1  0  0  0  0  0  0  0  0  0
   17.4738   -8.4289  -17.3358 C   0  0  0  0  0  0  0  0  0  0  0  0
   18.4866   -7.4984  -17.9018 C   0  0  0  0  0  0  0  0  0  0  0  0
   17.9938   -6.1895  -18.3283 C   0  0  0  0  0  0  0  0  0  0  0  0
   18.0839   -5.1827  -17.5794 O   0  0  0  0  0  0  0  0  0  0  0  0
   18.9822   -9.5119  -15.7342 C   0  0  0  0  0  0  0  0  0  0  0  0
   18.5635   -9.3622  -14.5626 O   0  0  0  0  0  0  0  0  0  0  0  0
   17.4075   -5.9965  -19.5705 O   0  0  0  0  0  0  0  0  0  0  0  0
   23.4469  -10.0687  -13.9324 C   0  0  0  0  0  0  0  0  0  0  0  0
   22.5048  -10.2750  -15.0961 C   0  0  1  0  0  0  0  0  0  0  0  0
   22.1195  -11.7337  -15.1961 C   0  0  0  0  0  0  0  0  0  0  0  0
   21.2912   -9.3930  -14.8877 C   0  0  2  0  0  0  0  0  0  0  0  0
   20.3731   -9.4732  -15.9928 N   0  0  0  0  0  0  0  0  0  0  0  0
   21.7364   -7.9833  -14.7674 C   0  0  0  0  0  0  0  0  0  0  0  0
   22.1154   -7.4152  -13.5567 O   0  0  0  0  0  0  0  0  0  0  0  0
   21.7892   -7.2344  -15.7709 O   0  0  0  0  0  0  0  0  0  0  0  0
  2  1  1  0
  3  4  2  0
  3  2  1  0
  5  3  1  0
  6  5  1  0
  6 11  1  0
  6  7  1  1
  8  9  1  0
  8  7  1  0
  9 13  1  0
 10  9  2  0
 11 12  2  0
 15 14  1  1
 15 16  1  0
 17 15  1  0
 18 11  1  0
 17 18  1  6
 19 20  1  0
 19 17  1  0
 21 19  2  0
M  END
$$$$
