GEV.pdb
     RDKit          3D

 21 20  0  0  1  0  0  0  0  0999 V2000
   21.3128   -9.4805  -22.3143 N   0  0  0  0  0  0  0  0  0  0  0  0
   21.5304   -8.0737  -22.1404 C   0  0  0  0  0  0  0  0  0  0  0  0
   20.7980   -7.5591  -20.9293 C   0  0  0  0  0  0  0  0  0  0  0  0
   19.5686   -7.7836  -20.8295 O   0  0  0  0  0  0  0  0  0  0  0  0
   21.4820   -6.8353  -19.9204 N   0  0  0  0  0  0  0  0  0  0  0  0
   20.8815   -6.3627  -18.6945 C   0  0  1  0  0  0  0  0  0  0  0  0
   21.4147   -7.0822  -17.5114 C   0  0  0  0  0  0  0  0  0  0  0  0
   20.8444   -6.6925  -16.1942 C   0  0  0  0  0  0  0  0  0  0  0  0
   21.3123   -7.4545  -15.0373 C   0  0  0  0  0  0  0  0  0  0  0  0
   22.2203   -8.3181  -15.1487 O   0  0  0  0  0  0  0  0  0  0  0  0
   21.1368   -4.8858  -18.5662 C   0  0  0  0  0  0  0  0  0  0  0  0
   22.2920   -4.4508  -18.7818 O   0  0  0  0  0  0  0  0  0  0  0  0
   20.7812   -7.2629  -13.7703 O   0  0  0  0  0  0  0  0  0  0  0  0
   19.8430   -2.1513  -20.5611 C   0  0  0  0  0  0  0  0  0  0  0  0
   19.4514   -1.8190  -19.1396 C   0  0  1  0  0  0  0  0  0  0  0  0
   18.0028   -2.1833  -18.9045 C   0  0  0  0  0  0  0  0  0  0  0  0
   20.3728   -2.5735  -18.2036 C   0  0  2  0  0  0  0  0  0  0  0  0
   20.1035   -3.9870  -18.2093 N   0  0  0  0  0  0  0  0  0  0  0  0
   20.1661   -2.0764  -16.8216 C   0  0  0  0  0  0  0  0  0  0  0  0
   20.7638   -0.9165  -16.3424 O   0  0  0  0  0  0  0  0  0  0  0  0
   19.4312   -2.6940  -16.0159 O   0  0  0  0  0  0  0  0  0  0  0  0
  2  1  1  0
  3  4  2  0
  3  2  1  0
  5  3  1  0
  6  5  1  0
  6 11  1  0
  6  7  1  1
  8  9  1  0
  8  7  1  0
  9 13  1  0
 10  9  2  0
 11 12  2  0
 15 14  1  6
 15 16  1  0
 17 15  1  0
 18 11  1  0
 17 18  1  1
 19 20  1  0
 19 17  1  0
 21 19  2  0
M  END
$$$$
