GEV.pdb
     RDKit          3D

 21 20  0  0  1  0  0  0  0  0999 V2000
   16.1201  -26.6242    0.5414 N   0  0  0  0  0  0  0  0  0  0  0  0
   15.3545  -25.5458    1.0961 C   0  0  0  0  0  0  0  0  0  0  0  0
   16.2235  -24.6353    1.9230 C   0  0  0  0  0  0  0  0  0  0  0  0
   17.4087  -24.9763    2.1481 O   0  0  0  0  0  0  0  0  0  0  0  0
   15.7147  -23.4164    2.4378 N   0  0  0  0  0  0  0  0  0  0  0  0
   16.5021  -22.4205    3.1269 C   0  0  1  0  0  0  0  0  0  0  0  0
   15.9426  -21.0584    2.9443 C   0  0  0  0  0  0  0  0  0  0  0  0
   16.6663  -19.9543    3.6292 C   0  0  0  0  0  0  0  0  0  0  0  0
   16.0455  -18.6324    3.5560 C   0  0  0  0  0  0  0  0  0  0  0  0
   14.9778  -18.4475    2.9169 O   0  0  0  0  0  0  0  0  0  0  0  0
   16.5571  -22.7706    4.5889 C   0  0  0  0  0  0  0  0  0  0  0  0
   15.5230  -23.2076    5.1454 O   0  0  0  0  0  0  0  0  0  0  0  0
   16.6000  -17.5267    4.1837 O   0  0  0  0  0  0  0  0  0  0  0  0
   18.8611  -24.1288    8.5829 C   0  0  0  0  0  0  0  0  0  0  0  0
   18.8862  -23.8924    7.0903 C   0  0  1  0  0  0  0  0  0  0  0  0
   18.7739  -25.2100    6.3570 C   0  0  0  0  0  0  0  0  0  0  0  0
   17.7452  -22.9611    6.7369 C   0  0  2  0  0  0  0  0  0  0  0  0
   17.7467  -22.6163    5.3399 N   0  0  0  0  0  0  0  0  0  0  0  0
   17.8897  -21.7069    7.5154 C   0  0  0  0  0  0  0  0  0  0  0  0
   17.3305  -21.5360    8.7764 O   0  0  0  0  0  0  0  0  0  0  0  0
   18.5332  -20.7334    7.0586 O   0  0  0  0  0  0  0  0  0  0  0  0
  2  1  1  0
  3  4  2  0
  3  2  1  0
  5  3  1  0
  6  5  1  0
  6 11  1  0
  6  7  1  1
  8  9  1  0
  8  7  1  0
  9 13  1  0
 10  9  2  0
 11 12  2  0
 15 14  1  1
 15 16  1  0
 17 15  1  0
 18 11  1  0
 17 18  1  6
 19 20  1  0
 19 17  1  0
 21 19  2  0
M  END
$$$$
