GEV.pdb
     RDKit          3D

 21 20  0  0  1  0  0  0  0  0999 V2000
   25.2228  -12.1729  -16.3982 N   0  0  0  0  0  0  0  0  0  0  0  0
   24.0506  -12.0868  -15.5764 C   0  0  0  0  0  0  0  0  0  0  0  0
   23.1701  -10.9440  -16.0085 C   0  0  0  0  0  0  0  0  0  0  0  0
   23.5582  -10.2068  -16.9455 O   0  0  0  0  0  0  0  0  0  0  0  0
   21.9269  -10.7040  -15.3711 N   0  0  0  0  0  0  0  0  0  0  0  0
   20.9826   -9.6841  -15.7644 C   0  0  1  0  0  0  0  0  0  0  0  0
   19.5970  -10.0403  -15.3706 C   0  0  0  0  0  0  0  0  0  0  0  0
   18.9761  -11.1733  -16.1072 C   0  0  0  0  0  0  0  0  0  0  0  0
   17.6172  -11.5359  -15.7072 C   0  0  0  0  0  0  0  0  0  0  0  0
   16.6740  -11.5505  -16.5395 O   0  0  0  0  0  0  0  0  0  0  0  0
   21.3855   -8.3793  -15.1334 C   0  0  0  0  0  0  0  0  0  0  0  0
   21.8173   -8.3843  -13.9571 O   0  0  0  0  0  0  0  0  0  0  0  0
   17.3051  -11.8790  -14.3999 O   0  0  0  0  0  0  0  0  0  0  0  0
   21.6420   -4.8159  -17.4139 C   0  0  0  0  0  0  0  0  0  0  0  0
   22.5783   -5.1225  -16.2678 C   0  0  1  0  0  0  0  0  0  0  0  0
   23.0864   -3.8356  -15.6578 C   0  0  0  0  0  0  0  0  0  0  0  0
   21.8289   -5.9604  -15.2526 C   0  0  2  0  0  0  0  0  0  0  0  0
   21.2863   -7.1568  -15.8396 N   0  0  0  0  0  0  0  0  0  0  0  0
   20.6989   -5.1652  -14.7133 C   0  0  0  0  0  0  0  0  0  0  0  0
   20.8540   -4.2343  -13.6928 O   0  0  0  0  0  0  0  0  0  0  0  0
   19.5379   -5.3040  -15.1643 O   0  0  0  0  0  0  0  0  0  0  0  0
  2  1  1  0
  3  4  2  0
  3  2  1  0
  5  3  1  0
  6  5  1  0
  6 11  1  0
  6  7  1  1
  8  9  1  0
  8  7  1  0
  9 13  1  0
 10  9  2  0
 11 12  2  0
 15 14  1  6
 15 16  1  0
 17 15  1  0
 18 11  1  0
 17 18  1  6
 19 20  1  0
 19 17  1  0
 21 19  2  0
M  END
$$$$
