GEV.pdb
     RDKit          3D

 21 20  0  0  1  0  0  0  0  0999 V2000
   12.2877  -13.1426  -12.1678 N   0  0  0  0  0  0  0  0  0  0  0  0
   12.6836  -11.9553  -12.8681 C   0  0  0  0  0  0  0  0  0  0  0  0
   13.9200  -11.3528  -12.2547 C   0  0  0  0  0  0  0  0  0  0  0  0
   14.2564  -11.7134  -11.1020 O   0  0  0  0  0  0  0  0  0  0  0  0
   14.6904  -10.3971  -12.9636 N   0  0  0  0  0  0  0  0  0  0  0  0
   15.8100   -9.6690  -12.4131 C   0  0  1  0  0  0  0  0  0  0  0  0
   16.7566   -9.2389  -13.4717 C   0  0  0  0  0  0  0  0  0  0  0  0
   17.9543   -8.4851  -13.0144 C   0  0  0  0  0  0  0  0  0  0  0  0
   18.8793   -8.0475  -14.0590 C   0  0  0  0  0  0  0  0  0  0  0  0
   19.3802   -8.8666  -14.8719 O   0  0  0  0  0  0  0  0  0  0  0  0
   15.2903   -8.4745  -11.6608 C   0  0  0  0  0  0  0  0  0  0  0  0
   14.4218   -7.7505  -12.2009 O   0  0  0  0  0  0  0  0  0  0  0  0
   19.2460   -6.7175  -14.2028 O   0  0  0  0  0  0  0  0  0  0  0  0
   14.3983   -6.0309   -7.6010 C   0  0  0  0  0  0  0  0  0  0  0  0
   14.7359   -7.3260   -8.3033 C   0  0  1  0  0  0  0  0  0  0  0  0
   13.5165   -8.2186   -8.3543 C   0  0  0  0  0  0  0  0  0  0  0  0
   15.2411   -6.9960   -9.6926 C   0  0  2  0  0  0  0  0  0  0  0  0
   15.7614   -8.1572  -10.3645 N   0  0  0  0  0  0  0  0  0  0  0  0
   16.3386   -6.0044   -9.5820 C   0  0  0  0  0  0  0  0  0  0  0  0
   16.1110   -4.6342   -9.5256 O   0  0  0  0  0  0  0  0  0  0  0  0
   17.5366   -6.3690   -9.5346 O   0  0  0  0  0  0  0  0  0  0  0  0
  2  1  1  0
  3  4  2  0
  3  2  1  0
  5  3  1  0
  6  5  1  0
  6 11  1  0
  6  7  1  6
  8  9  1  0
  8  7  1  0
  9 13  1  0
 10  9  2  0
 11 12  2  0
 15 14  1  6
 15 16  1  0
 17 15  1  0
 18 11  1  0
 17 18  1  1
 19 20  1  0
 19 17  1  0
 21 19  2  0
M  END
$$$$
