GEV.pdb
     RDKit          3D

 21 20  0  0  1  0  0  0  0  0999 V2000
   18.3827  -16.2686  -16.8170 N   0  0  0  0  0  0  0  0  0  0  0  0
   17.6851  -15.0575  -16.4956 C   0  0  0  0  0  0  0  0  0  0  0  0
   18.5287  -13.8492  -16.8057 C   0  0  0  0  0  0  0  0  0  0  0  0
   19.7005  -14.0231  -17.2162 O   0  0  0  0  0  0  0  0  0  0  0  0
   18.0113  -12.5400  -16.6383 N   0  0  0  0  0  0  0  0  0  0  0  0
   18.7002  -11.3274  -17.0146 C   0  0  1  0  0  0  0  0  0  0  0  0
   17.7492  -10.2284  -17.3138 C   0  0  0  0  0  0  0  0  0  0  0  0
   18.3471   -8.9594  -17.8077 C   0  0  0  0  0  0  0  0  0  0  0  0
   17.4091   -7.8804  -18.1146 C   0  0  0  0  0  0  0  0  0  0  0  0
   16.1728   -8.0173  -17.9264 O   0  0  0  0  0  0  0  0  0  0  0  0
   19.6254  -10.9275  -15.8978 C   0  0  0  0  0  0  0  0  0  0  0  0
   19.2250  -11.0297  -14.7148 O   0  0  0  0  0  0  0  0  0  0  0  0
   17.8346   -6.6625  -18.6243 O   0  0  0  0  0  0  0  0  0  0  0  0
   24.1207  -10.1875  -14.2098 C   0  0  0  0  0  0  0  0  0  0  0  0
   23.2491  -10.5602  -15.3870 C   0  0  1  0  0  0  0  0  0  0  0  0
   23.3855  -12.0366  -15.6835 C   0  0  0  0  0  0  0  0  0  0  0  0
   21.8182  -10.1902  -15.0553 C   0  0  2  0  0  0  0  0  0  0  0  0
   20.9291  -10.4422  -16.1582 N   0  0  0  0  0  0  0  0  0  0  0  0
   21.7564   -8.7416  -14.7428 C   0  0  0  0  0  0  0  0  0  0  0  0
   21.9433   -8.2405  -13.4597 O   0  0  0  0  0  0  0  0  0  0  0  0
   21.5285   -7.8962  -15.6394 O   0  0  0  0  0  0  0  0  0  0  0  0
  2  1  1  0
  3  4  2  0
  3  2  1  0
  5  3  1  0
  6  5  1  0
  6 11  1  0
  6  7  1  1
  8  9  1  0
  8  7  1  0
  9 13  1  0
 10  9  2  0
 11 12  2  0
 15 14  1  1
 15 16  1  0
 17 15  1  0
 18 11  1  0
 17 18  1  6
 19 20  1  0
 19 17  1  0
 21 19  2  0
M  END
$$$$
