CVN.pdb
     RDKit          3D

 22 21  0  0  1  0  0  0  0  0999 V2000
   18.4338  -25.6735   -5.6595 N   0  0  0  0  0  0  0  0  0  0  0  0
   18.0394  -26.4659   -6.7944 C   0  0  1  0  0  0  0  0  0  0  0  0
   16.5227  -26.6327   -6.7399 C   0  0  0  0  0  0  0  0  0  0  0  0
   16.0860  -27.8490   -5.4556 S   0  0  0  0  0  0  0  0  0  0  0  0
   18.4712  -25.9161   -8.0915 C   0  0  0  0  0  0  0  0  0  0  0  0
   18.7805  -24.6748   -8.1034 O   0  0  0  0  0  0  0  0  0  0  0  0
   21.0823  -27.6533  -10.3747 C   0  0  0  0  0  0  0  0  0  0  0  0
   19.9768  -27.1010  -11.2429 C   0  0  1  0  0  0  0  0  0  0  0  0
   19.1159  -28.2162  -11.7674 C   0  0  0  0  0  0  0  0  0  0  0  0
   19.1949  -26.0900  -10.4320 C   0  0  2  0  0  0  0  0  0  0  0  0
   18.5590  -26.6701   -9.2893 N   0  0  0  0  0  0  0  0  0  0  0  0
   18.2181  -25.3557  -11.2902 C   0  0  0  0  0  0  0  0  0  0  0  0
   16.9964  -25.7065  -11.3248 O   0  0  0  0  0  0  0  0  0  0  0  0
   15.9802  -21.7791  -14.7007 N   0  0  0  0  0  0  0  0  0  0  0  0
   17.1194  -21.3523  -13.9808 C   0  0  0  0  0  0  0  0  0  0  0  0
   17.4237  -20.1187  -14.1284 O   0  0  0  0  0  0  0  0  0  0  0  0
   17.9667  -22.1479  -13.1031 C   0  0  0  0  0  0  0  0  0  0  0  0
   17.6072  -23.6095  -12.9963 C   0  0  2  0  0  0  0  0  0  0  0  0
   18.5638  -24.2502  -12.1033 N   0  0  0  0  0  0  0  0  0  0  0  0
   17.6034  -24.2194  -14.3327 C   0  0  0  0  0  0  0  0  0  0  0  0
   18.6214  -24.7281  -14.8233 O   0  0  0  0  0  0  0  0  0  0  0  0
   16.4286  -24.2238  -15.0578 O   0  0  0  0  0  0  0  0  0  0  0  0
  2  1  1  1
  2  3  1  0
  2  5  1  0
  4  3  1  0
  5 11  1  0
  5  6  2  0
  8  7  1  1
  8 10  1  0
  8  9  1  0
 10 12  1  0
 10 11  1  1
 12 19  1  0
 13 12  2  0
 14 15  1  0
 15 16  2  0
 17 15  1  0
 18 20  1  0
 18 17  1  6
 19 18  1  0
 20 22  1  0
 21 20  2  0
M  END
$$$$
