CVN.pdb
     RDKit          3D

 22 21  0  0  1  0  0  0  0  0999 V2000
   15.6112  -11.1939  -13.5735 N   0  0  0  0  0  0  0  0  0  0  0  0
   16.6361  -11.0761  -14.5771 C   0  0  1  0  0  0  0  0  0  0  0  0
   15.9476  -11.0040  -15.9379 C   0  0  0  0  0  0  0  0  0  0  0  0
   15.1537  -12.6016  -16.3081 S   0  0  0  0  0  0  0  0  0  0  0  0
   17.5464   -9.9349  -14.3765 C   0  0  0  0  0  0  0  0  0  0  0  0
   17.0195   -8.8689  -13.9049 O   0  0  0  0  0  0  0  0  0  0  0  0
   21.6922   -9.9402  -15.3061 C   0  0  0  0  0  0  0  0  0  0  0  0
   21.1753   -9.1080  -14.1567 C   0  0  1  0  0  0  0  0  0  0  0  0
   22.0175   -7.8750  -13.9823 C   0  0  0  0  0  0  0  0  0  0  0  0
   19.7186   -8.7896  -14.4170 C   0  0  2  0  0  0  0  0  0  0  0  0
   18.9335   -9.9585  -14.6703 N   0  0  0  0  0  0  0  0  0  0  0  0
   19.5778   -7.7854  -15.5133 C   0  0  0  0  0  0  0  0  0  0  0  0
   19.5834   -8.1524  -16.7307 O   0  0  0  0  0  0  0  0  0  0  0  0
   17.0141   -3.9433  -18.5922 N   0  0  0  0  0  0  0  0  0  0  0  0
   17.6665   -3.8138  -17.3448 C   0  0  0  0  0  0  0  0  0  0  0  0
   18.0635   -2.6315  -17.0603 O   0  0  0  0  0  0  0  0  0  0  0  0
   17.9282   -4.8591  -16.3650 C   0  0  0  0  0  0  0  0  0  0  0  0
   19.3216   -5.4379  -16.3831 C   0  0  2  0  0  0  0  0  0  0  0  0
   19.4317   -6.3956  -15.2905 N   0  0  0  0  0  0  0  0  0  0  0  0
   20.3104   -4.3570  -16.2732 C   0  0  0  0  0  0  0  0  0  0  0  0
   20.6941   -3.9296  -15.1752 O   0  0  0  0  0  0  0  0  0  0  0  0
   20.8239   -3.8061  -17.4303 O   0  0  0  0  0  0  0  0  0  0  0  0
  2  1  1  1
  2  3  1  0
  2  5  1  0
  4  3  1  0
  5 11  1  0
  5  6  2  0
  8  7  1  6
  8 10  1  0
  8  9  1  0
 10 12  1  0
 10 11  1  6
 12 19  1  0
 13 12  2  0
 14 15  1  0
 15 16  2  0
 17 15  1  0
 18 20  1  0
 18 17  1  1
 19 18  1  0
 20 22  1  0
 21 20  2  0
M  END
$$$$
