CVN.pdb
     RDKit          3D

 22 21  0  0  1  0  0  0  0  0999 V2000
   19.6842  -15.7134  -16.9587 N   0  0  0  0  0  0  0  0  0  0  0  0
   20.0567  -14.4235  -17.4771 C   0  0  1  0  0  0  0  0  0  0  0  0
   18.8627  -13.8719  -18.2523 C   0  0  0  0  0  0  0  0  0  0  0  0
   18.5177  -14.9403  -19.6874 S   0  0  0  0  0  0  0  0  0  0  0  0
   20.5141  -13.4713  -16.4497 C   0  0  0  0  0  0  0  0  0  0  0  0
   19.7680  -13.3535  -15.4173 O   0  0  0  0  0  0  0  0  0  0  0  0
   23.4603  -13.3025  -14.2373 C   0  0  0  0  0  0  0  0  0  0  0  0
   23.4127  -11.9706  -14.9476 C   0  0  1  0  0  0  0  0  0  0  0  0
   24.4744  -11.9051  -16.0100 C   0  0  0  0  0  0  0  0  0  0  0  0
   22.0176  -11.7763  -15.5019 C   0  0  2  0  0  0  0  0  0  0  0  0
   21.7026  -12.7037  -16.5448 N   0  0  0  0  0  0  0  0  0  0  0  0
   21.8077  -10.3645  -15.9406 C   0  0  0  0  0  0  0  0  0  0  0  0
   21.7927  -10.0671  -17.1768 O   0  0  0  0  0  0  0  0  0  0  0  0
   20.0227   -5.4066  -16.4213 N   0  0  0  0  0  0  0  0  0  0  0  0
   19.5081   -6.6885  -16.7215 C   0  0  0  0  0  0  0  0  0  0  0  0
   18.4600   -6.6944  -17.4549 O   0  0  0  0  0  0  0  0  0  0  0  0
   20.0328   -7.9794  -16.2977 C   0  0  0  0  0  0  0  0  0  0  0  0
   21.3162   -7.9350  -15.5054 C   0  0  2  0  0  0  0  0  0  0  0  0
   21.6152   -9.2850  -15.0459 N   0  0  0  0  0  0  0  0  0  0  0  0
   21.1795   -6.9886  -14.3903 C   0  0  0  0  0  0  0  0  0  0  0  0
   21.0418   -5.7714  -14.5775 O   0  0  0  0  0  0  0  0  0  0  0  0
   21.2051   -7.4755  -13.0986 O   0  0  0  0  0  0  0  0  0  0  0  0
  2  1  1  1
  2  3  1  0
  2  5  1  0
  4  3  1  0
  5 11  1  0
  5  6  2  0
  8  7  1  6
  8 10  1  0
  8  9  1  0
 10 12  1  0
 10 11  1  6
 12 19  1  0
 13 12  2  0
 14 15  1  0
 15 16  2  0
 17 15  1  0
 18 20  1  0
 18 17  1  1
 19 18  1  0
 20 22  1  0
 21 20  2  0
M  END
$$$$
