CVN.pdb
     RDKit          3D

 22 21  0  0  1  0  0  0  0  0999 V2000
   19.8888  -16.6363  -15.9267 N   0  0  0  0  0  0  0  0  0  0  0  0
   19.9835  -15.3630  -16.5909 C   0  0  1  0  0  0  0  0  0  0  0  0
   18.6027  -15.0261  -17.1483 C   0  0  0  0  0  0  0  0  0  0  0  0
   18.2213  -16.1288  -18.5477 S   0  0  0  0  0  0  0  0  0  0  0  0
   20.4963  -14.2762  -15.7382 C   0  0  0  0  0  0  0  0  0  0  0  0
   19.9714  -14.1752  -14.5760 O   0  0  0  0  0  0  0  0  0  0  0  0
   23.7822  -13.6598  -14.3198 C   0  0  0  0  0  0  0  0  0  0  0  0
   23.4104  -12.3443  -14.9617 C   0  0  1  0  0  0  0  0  0  0  0  0
   24.2123  -12.1277  -16.2148 C   0  0  0  0  0  0  0  0  0  0  0  0
   21.9180  -12.3431  -15.2146 C   0  0  2  0  0  0  0  0  0  0  0  0
   21.5110  -13.3657  -16.1287 N   0  0  0  0  0  0  0  0  0  0  0  0
   21.4508  -10.9950  -15.6554 C   0  0  0  0  0  0  0  0  0  0  0  0
   21.4752  -10.6725  -16.8851 O   0  0  0  0  0  0  0  0  0  0  0  0
   19.4326   -5.9492  -15.6205 N   0  0  0  0  0  0  0  0  0  0  0  0
   18.8230   -6.9344  -14.8107 C   0  0  0  0  0  0  0  0  0  0  0  0
   17.7064   -6.5928  -14.2885 O   0  0  0  0  0  0  0  0  0  0  0  0
   19.3164   -8.2723  -14.5140 C   0  0  0  0  0  0  0  0  0  0  0  0
   20.5890   -8.6711  -15.2200 C   0  0  2  0  0  0  0  0  0  0  0  0
   20.9611  -10.0059  -14.7697 N   0  0  0  0  0  0  0  0  0  0  0  0
   21.6401   -7.6818  -14.9467 C   0  0  0  0  0  0  0  0  0  0  0  0
   22.5732   -7.9165  -14.1658 O   0  0  0  0  0  0  0  0  0  0  0  0
   21.5815   -6.4575  -15.5820 O   0  0  0  0  0  0  0  0  0  0  0  0
  2  1  1  1
  2  3  1  0
  2  5  1  0
  4  3  1  0
  5 11  1  0
  5  6  2  0
  8  7  1  6
  8 10  1  0
  8  9  1  0
 10 12  1  0
 10 11  1  6
 12 19  1  0
 13 12  2  0
 14 15  1  0
 15 16  2  0
 17 15  1  0
 18 20  1  0
 18 17  1  1
 19 18  1  0
 20 22  1  0
 21 20  2  0
M  END
$$$$
