CVN.pdb
     RDKit          3D

 22 21  0  0  1  0  0  0  0  0999 V2000
   28.4250  -20.0112  -16.0518 N   0  0  0  0  0  0  0  0  0  0  0  0
   27.6151  -19.3043  -15.0947 C   0  0  1  0  0  0  0  0  0  0  0  0
   27.0424  -18.0721  -15.7908 C   0  0  0  0  0  0  0  0  0  0  0  0
   28.3979  -16.9497  -16.2626 S   0  0  0  0  0  0  0  0  0  0  0  0
   26.5487  -20.1210  -14.4889 C   0  0  0  0  0  0  0  0  0  0  0  0
   26.0054  -20.9941  -15.2498 O   0  0  0  0  0  0  0  0  0  0  0  0
   26.6578  -21.8781  -11.1372 C   0  0  0  0  0  0  0  0  0  0  0  0
   25.2687  -21.2961  -11.2478 C   0  0  1  0  0  0  0  0  0  0  0  0
   25.0838  -20.1877  -10.2491 C   0  0  0  0  0  0  0  0  0  0  0  0
   25.0565  -20.8389  -12.6751 C   0  0  2  0  0  0  0  0  0  0  0  0
   26.1087  -19.9922  -13.1470 N   0  0  0  0  0  0  0  0  0  0  0  0
   23.7189  -20.1952  -12.8378 C   0  0  0  0  0  0  0  0  0  0  0  0
   23.6265  -18.9576  -13.1147 O   0  0  0  0  0  0  0  0  0  0  0  0
   19.0966  -19.9250  -15.3580 N   0  0  0  0  0  0  0  0  0  0  0  0
   20.4161  -20.2476  -15.7489 C   0  0  0  0  0  0  0  0  0  0  0  0
   20.6242  -20.2447  -17.0110 O   0  0  0  0  0  0  0  0  0  0  0  0
   21.5446  -20.5737  -14.8877 C   0  0  0  0  0  0  0  0  0  0  0  0
   21.2835  -20.4793  -13.4045 C   0  0  2  0  0  0  0  0  0  0  0  0
   22.4927  -20.8883  -12.7019 N   0  0  0  0  0  0  0  0  0  0  0  0
   20.1279  -21.3136  -13.0490 C   0  0  0  0  0  0  0  0  0  0  0  0
   19.0463  -20.8199  -12.7001 O   0  0  0  0  0  0  0  0  0  0  0  0
   20.2567  -22.6869  -13.1082 O   0  0  0  0  0  0  0  0  0  0  0  0
  2  1  1  6
  2  3  1  0
  2  5  1  0
  4  3  1  0
  5 11  1  0
  5  6  2  0
  8  7  1  6
  8 10  1  0
  8  9  1  0
 10 12  1  0
 10 11  1  1
 12 19  1  0
 13 12  2  0
 14 15  1  0
 15 16  2  0
 17 15  1  0
 18 20  1  0
 18 17  1  6
 19 18  1  0
 20 22  1  0
 21 20  2  0
M  END
$$$$
