CVN.pdb
     RDKit          3D

 22 21  0  0  1  0  0  0  0  0999 V2000
   16.4478  -10.4538  -15.9855 N   0  0  0  0  0  0  0  0  0  0  0  0
   17.7028   -9.8993  -16.4202 C   0  0  1  0  0  0  0  0  0  0  0  0
   17.4114   -8.5579  -17.0886 C   0  0  0  0  0  0  0  0  0  0  0  0
   16.3593   -8.8190  -18.5531 S   0  0  0  0  0  0  0  0  0  0  0  0
   18.7018   -9.7566  -15.3464 C   0  0  0  0  0  0  0  0  0  0  0  0
   18.2583   -9.3686  -14.2110 O   0  0  0  0  0  0  0  0  0  0  0  0
   22.9547  -10.0342  -15.7921 C   0  0  0  0  0  0  0  0  0  0  0  0
   22.2783  -10.5739  -14.5544 C   0  0  1  0  0  0  0  0  0  0  0  0
   23.1796  -10.4300  -13.3598 C   0  0  0  0  0  0  0  0  0  0  0  0
   20.9580   -9.8541  -14.3813 C   0  0  2  0  0  0  0  0  0  0  0  0
   20.0863  -10.0200  -15.5035 N   0  0  0  0  0  0  0  0  0  0  0  0
   21.1728   -8.4114  -14.0614 C   0  0  0  0  0  0  0  0  0  0  0  0
   21.7756   -8.0683  -12.9958 O   0  0  0  0  0  0  0  0  0  0  0  0
   21.6920   -3.0895  -14.2436 N   0  0  0  0  0  0  0  0  0  0  0  0
   22.5560   -4.0846  -14.7550 C   0  0  0  0  0  0  0  0  0  0  0  0
   23.7192   -3.6723  -15.0917 O   0  0  0  0  0  0  0  0  0  0  0  0
   22.2731   -5.5020  -14.9341 C   0  0  0  0  0  0  0  0  0  0  0  0
   20.8952   -5.9516  -14.5147 C   0  0  2  0  0  0  0  0  0  0  0  0
   20.7378   -7.3504  -14.8908 N   0  0  0  0  0  0  0  0  0  0  0  0
   19.8803   -5.0930  -15.1399 C   0  0  0  0  0  0  0  0  0  0  0  0
   19.1985   -5.4778  -16.1004 O   0  0  0  0  0  0  0  0  0  0  0  0
   19.6846   -3.8219  -14.6378 O   0  0  0  0  0  0  0  0  0  0  0  0
  2  1  1  1
  2  3  1  0
  2  5  1  0
  4  3  1  0
  5 11  1  0
  5  6  2  0
  8  7  1  6
  8 10  1  0
  8  9  1  0
 10 12  1  0
 10 11  1  6
 12 19  1  0
 13 12  2  0
 14 15  1  0
 15 16  2  0
 17 15  1  0
 18 20  1  0
 18 17  1  6
 19 18  1  0
 20 22  1  0
 21 20  2  0
M  END
$$$$
