CVN.pdb
     RDKit          3D

 22 21  0  0  1  0  0  0  0  0999 V2000
   17.4568  -12.4306  -16.6841 N   0  0  0  0  0  0  0  0  0  0  0  0
   18.1790  -11.2796  -17.1586 C   0  0  1  0  0  0  0  0  0  0  0  0
   17.1704  -10.3313  -17.8023 C   0  0  0  0  0  0  0  0  0  0  0  0
   16.6405  -11.0013  -19.4117 S   0  0  0  0  0  0  0  0  0  0  0  0
   18.9699  -10.5955  -16.1204 C   0  0  0  0  0  0  0  0  0  0  0  0
   18.3849  -10.4059  -14.9987 O   0  0  0  0  0  0  0  0  0  0  0  0
   23.1194  -10.2273  -16.2119 C   0  0  0  0  0  0  0  0  0  0  0  0
   22.3346  -10.2066  -14.9218 C   0  0  1  0  0  0  0  0  0  0  0  0
   23.1139   -9.5031  -13.8456 C   0  0  0  0  0  0  0  0  0  0  0  0
   20.9932   -9.5590  -15.1911 C   0  0  2  0  0  0  0  0  0  0  0  0
   20.3050  -10.1512  -16.2967 N   0  0  0  0  0  0  0  0  0  0  0  0
   21.1361   -8.0822  -15.3606 C   0  0  0  0  0  0  0  0  0  0  0  0
   21.5448   -7.5944  -16.4614 O   0  0  0  0  0  0  0  0  0  0  0  0
   20.7219   -2.6947  -13.6547 N   0  0  0  0  0  0  0  0  0  0  0  0
   19.8242   -3.5411  -14.3447 C   0  0  0  0  0  0  0  0  0  0  0  0
   18.9788   -2.9405  -15.0934 O   0  0  0  0  0  0  0  0  0  0  0  0
   19.7602   -4.9955  -14.2997 C   0  0  0  0  0  0  0  0  0  0  0  0
   21.0699   -5.7143  -14.5110 C   0  0  2  0  0  0  0  0  0  0  0  0
   20.8378   -7.1431  -14.3448 N   0  0  0  0  0  0  0  0  0  0  0  0
   22.0748   -5.2038  -13.5689 C   0  0  0  0  0  0  0  0  0  0  0  0
   22.7016   -4.1566  -13.7838 O   0  0  0  0  0  0  0  0  0  0  0  0
   22.3230   -5.9152  -12.4121 O   0  0  0  0  0  0  0  0  0  0  0  0
  2  1  1  1
  2  3  1  0
  2  5  1  0
  4  3  1  0
  5 11  1  0
  5  6  2  0
  8  7  1  6
  8 10  1  0
  8  9  1  0
 10 12  1  0
 10 11  1  6
 12 19  1  0
 13 12  2  0
 14 15  1  0
 15 16  2  0
 17 15  1  0
 18 20  1  0
 18 17  1  1
 19 18  1  0
 20 22  1  0
 21 20  2  0
M  END
$$$$
