CVN.pdb
     RDKit          3D

 22 21  0  0  1  0  0  0  0  0999 V2000
   25.6559  -21.8571  -11.3537 N   0  0  0  0  0  0  0  0  0  0  0  0
   25.4467  -21.8082  -12.7768 C   0  0  1  0  0  0  0  0  0  0  0  0
   24.1424  -22.5417  -13.0800 C   0  0  0  0  0  0  0  0  0  0  0  0
   24.4546  -24.3345  -13.1703 S   0  0  0  0  0  0  0  0  0  0  0  0
   25.4372  -20.4455  -13.3372 C   0  0  0  0  0  0  0  0  0  0  0  0
   24.7761  -19.5695  -12.6799 O   0  0  0  0  0  0  0  0  0  0  0  0
   28.4148  -18.5943  -15.1291 C   0  0  0  0  0  0  0  0  0  0  0  0
   27.1349  -18.2933  -15.8722 C   0  0  1  0  0  0  0  0  0  0  0  0
   27.1404  -18.9632  -17.2180 C   0  0  0  0  0  0  0  0  0  0  0  0
   25.9699  -18.7260  -15.0080 C   0  0  2  0  0  0  0  0  0  0  0  0
   26.1037  -20.0680  -14.5307 N   0  0  0  0  0  0  0  0  0  0  0  0
   24.6721  -18.5226  -15.7181 C   0  0  0  0  0  0  0  0  0  0  0  0
   24.1904  -19.4367  -16.4591 O   0  0  0  0  0  0  0  0  0  0  0  0
   19.2204  -17.5253  -16.0177 N   0  0  0  0  0  0  0  0  0  0  0  0
   20.2388  -16.5895  -15.7259 C   0  0  0  0  0  0  0  0  0  0  0  0
   19.9242  -15.3655  -15.9239 O   0  0  0  0  0  0  0  0  0  0  0  0
   21.5813  -16.8612  -15.2304 C   0  0  0  0  0  0  0  0  0  0  0  0
   22.6114  -17.1926  -16.2820 C   0  0  2  0  0  0  0  0  0  0  0  0
   23.9036  -17.3380  -15.6245 N   0  0  0  0  0  0  0  0  0  0  0  0
   22.6284  -16.1429  -17.3095 C   0  0  0  0  0  0  0  0  0  0  0  0
   23.5455  -15.3128  -17.3826 O   0  0  0  0  0  0  0  0  0  0  0  0
   21.5902  -16.0853  -18.2177 O   0  0  0  0  0  0  0  0  0  0  0  0
  2  1  1  1
  2  3  1  0
  2  5  1  0
  4  3  1  0
  5 11  1  0
  5  6  2  0
  8  7  1  1
  8 10  1  0
  8  9  1  0
 10 12  1  0
 10 11  1  6
 12 19  1  0
 13 12  2  0
 14 15  1  0
 15 16  2  0
 17 15  1  0
 18 20  1  0
 18 17  1  1
 19 18  1  0
 20 22  1  0
 21 20  2  0
M  END
$$$$
