CVN.pdb
     RDKit          3D

 22 21  0  0  1  0  0  0  0  0999 V2000
   15.4292  -12.7059  -15.1411 N   0  0  0  0  0  0  0  0  0  0  0  0
   15.8456  -11.4245  -15.6472 C   0  0  1  0  0  0  0  0  0  0  0  0
   14.8542  -10.3802  -15.1397 C   0  0  0  0  0  0  0  0  0  0  0  0
   13.3195  -10.4661  -16.1181 S   0  0  0  0  0  0  0  0  0  0  0  0
   17.2306  -11.0612  -15.2994 C   0  0  0  0  0  0  0  0  0  0  0  0
   17.5823  -11.2728  -14.0878 O   0  0  0  0  0  0  0  0  0  0  0  0
   20.2897  -12.5645  -16.4037 C   0  0  0  0  0  0  0  0  0  0  0  0
   20.5066  -11.0892  -16.6432 C   0  0  1  0  0  0  0  0  0  0  0  0
   20.3838  -10.7725  -18.1077 C   0  0  0  0  0  0  0  0  0  0  0  0
   19.5191  -10.3188  -15.7932 C   0  0  2  0  0  0  0  0  0  0  0  0
   18.1640  -10.5069  -16.2118 N   0  0  0  0  0  0  0  0  0  0  0  0
   19.8794   -8.8708  -15.7336 C   0  0  0  0  0  0  0  0  0  0  0  0
   19.3897   -8.0479  -16.5701 O   0  0  0  0  0  0  0  0  0  0  0  0
   22.2555   -4.1864  -14.3116 N   0  0  0  0  0  0  0  0  0  0  0  0
   22.3157   -5.2255  -13.3551 C   0  0  0  0  0  0  0  0  0  0  0  0
   22.9027   -4.9216  -12.2599 O   0  0  0  0  0  0  0  0  0  0  0  0
   21.7892   -6.5781  -13.4765 C   0  0  0  0  0  0  0  0  0  0  0  0
   21.1910   -6.9287  -14.8166 C   0  0  2  0  0  0  0  0  0  0  0  0
   20.7627   -8.3208  -14.7746 N   0  0  0  0  0  0  0  0  0  0  0  0
   22.1751   -6.6844  -15.8796 C   0  0  0  0  0  0  0  0  0  0  0  0
   23.1489   -7.4305  -16.0545 O   0  0  0  0  0  0  0  0  0  0  0  0
   22.0040   -5.5909  -16.7049 O   0  0  0  0  0  0  0  0  0  0  0  0
  2  1  1  1
  2  3  1  0
  2  5  1  0
  4  3  1  0
  5 11  1  0
  5  6  2  0
  8  7  1  6
  8 10  1  0
  8  9  1  0
 10 12  1  0
 10 11  1  6
 12 19  1  0
 13 12  2  0
 14 15  1  0
 15 16  2  0
 17 15  1  0
 18 20  1  0
 18 17  1  1
 19 18  1  0
 20 22  1  0
 21 20  2  0
M  END
$$$$
