CVN.pdb
     RDKit          3D

 22 21  0  0  1  0  0  0  0  0999 V2000
   19.8787  -14.6950  -16.5455 N   0  0  0  0  0  0  0  0  0  0  0  0
   20.1011  -13.4509  -17.2341 C   0  0  1  0  0  0  0  0  0  0  0  0
   18.9076  -13.2100  -18.1552 C   0  0  0  0  0  0  0  0  0  0  0  0
   18.9940  -14.3437  -19.5790 S   0  0  0  0  0  0  0  0  0  0  0  0
   20.3289  -12.3011  -16.3412 C   0  0  0  0  0  0  0  0  0  0  0  0
   19.4536  -12.1145  -15.4271 O   0  0  0  0  0  0  0  0  0  0  0  0
   23.2655  -11.4785  -14.1507 C   0  0  0  0  0  0  0  0  0  0  0  0
   22.9573  -10.2249  -14.9345 C   0  0  1  0  0  0  0  0  0  0  0  0
   23.9963  -10.0033  -15.9982 C   0  0  0  0  0  0  0  0  0  0  0  0
   21.5586  -10.3488  -15.4997 C   0  0  2  0  0  0  0  0  0  0  0  0
   21.4349  -11.4193  -16.4407 N   0  0  0  0  0  0  0  0  0  0  0  0
   21.0988   -9.0519  -16.0799 C   0  0  0  0  0  0  0  0  0  0  0  0
   21.2129   -8.8244  -17.3257 O   0  0  0  0  0  0  0  0  0  0  0  0
   18.5192   -4.4990  -17.0967 N   0  0  0  0  0  0  0  0  0  0  0  0
   17.9713   -5.7899  -16.9197 C   0  0  0  0  0  0  0  0  0  0  0  0
   16.7619   -5.9249  -17.3141 O   0  0  0  0  0  0  0  0  0  0  0  0
   18.6220   -6.9623  -16.3510 C   0  0  0  0  0  0  0  0  0  0  0  0
   20.0538   -6.7685  -15.9159 C   0  0  2  0  0  0  0  0  0  0  0  0
   20.5200   -8.0113  -15.3152 N   0  0  0  0  0  0  0  0  0  0  0  0
   20.1413   -5.6364  -14.9838 C   0  0  0  0  0  0  0  0  0  0  0  0
   20.4040   -5.7954  -13.7832 O   0  0  0  0  0  0  0  0  0  0  0  0
   19.9243   -4.3609  -15.4654 O   0  0  0  0  0  0  0  0  0  0  0  0
  2  1  1  1
  2  3  1  0
  2  5  1  0
  4  3  1  0
  5 11  1  0
  5  6  2  0
  8  7  1  6
  8 10  1  0
  8  9  1  0
 10 12  1  0
 10 11  1  6
 12 19  1  0
 13 12  2  0
 14 15  1  0
 15 16  2  0
 17 15  1  0
 18 20  1  0
 18 17  1  1
 19 18  1  0
 20 22  1  0
 21 20  2  0
M  END
$$$$
