LKG.pdb
     RDKit          3D

 22 21  0  0  1  0  0  0  0  0999 V2000
    9.2657  -13.1933   19.3172 C   0  0  0  0  0  0  0  0  0  0  0  0
    7.9415  -13.5748   19.9288 C   0  0  2  0  0  0  0  0  0  0  0  0
    7.0188  -12.3761   20.0124 C   0  0  0  0  0  0  0  0  0  0  0  0
    8.0965  -14.1646   21.2968 C   0  0  0  0  0  0  0  0  0  0  0  0
    9.0127  -15.3530   21.3480 C   0  0  2  0  0  0  0  0  0  0  0  0
    8.6501  -16.3479   20.3773 N   0  0  0  0  0  0  0  0  0  0  0  0
    8.9035  -15.9183   22.7373 C   0  0  0  0  0  0  0  0  0  0  0  0
    8.8532  -15.1731   23.7470 O   0  0  0  0  0  0  0  0  0  0  0  0
    8.8528  -17.3188   22.9654 N   0  0  0  0  0  0  0  0  0  0  0  0
    8.7208  -17.8534   24.3168 C   0  0  1  0  0  0  0  0  0  0  0  0
    7.8718  -19.0688   24.2442 C   0  0  0  0  0  0  0  0  0  0  0  0
    6.5111  -18.8857   23.6741 C   0  0  0  0  0  0  0  0  0  0  0  0
    5.8910  -20.2761   23.5412 C   0  0  0  0  0  0  0  0  0  0  0  0
    4.5189  -20.2005   22.9154 C   0  0  0  0  0  0  0  0  0  0  0  0
    4.0141  -21.5470   22.7488 N   0  0  0  0  0  0  0  0  0  0  0  0
   10.0302  -17.9962   24.9253 C   0  0  0  0  0  0  0  0  0  0  0  0
   11.0271  -18.3044   24.2405 O   0  0  0  0  0  0  0  0  0  0  0  0
   10.2010  -17.7867   26.3141 N   0  0  0  0  0  0  0  0  0  0  0  0
   11.4749  -17.8898   26.9722 C   0  0  0  0  0  0  0  0  0  0  0  0
   11.6048  -19.2405   27.5568 C   0  0  0  0  0  0  0  0  0  0  0  0
   11.6111  -20.3489   26.7428 O   0  0  0  0  0  0  0  0  0  0  0  0
   11.7098  -19.3776   28.8010 O   0  0  0  0  0  0  0  0  0  0  0  0
  2  1  1  1
  2  4  1  0
  2  3  1  0
  5  7  1  0
  5  4  1  0
  5  6  1  6
  7  8  2  0
  9 10  1  0
  9  7  1  0
 11 12  1  0
 10 11  1  6
 12 13  1  0
 13 14  1  0
 14 15  1  0
 16 18  1  0
 16 10  1  0
 17 16  2  0
 19 20  1  0
 19 18  1  0
 20 21  1  0
 22 20  2  0
M  END
$$$$
