LKG.pdb
     RDKit          3D

 22 21  0  0  1  0  0  0  0  0999 V2000
    5.8049  -12.3341   26.4195 C   0  0  0  0  0  0  0  0  0  0  0  0
    6.8598  -13.1561   27.1155 C   0  0  2  0  0  0  0  0  0  0  0  0
    7.8251  -12.2679   27.8736 C   0  0  0  0  0  0  0  0  0  0  0  0
    7.6346  -14.0118   26.1612 C   0  0  0  0  0  0  0  0  0  0  0  0
    6.7796  -14.9148   25.3199 C   0  0  2  0  0  0  0  0  0  0  0  0
    6.2427  -16.0056   26.0851 N   0  0  0  0  0  0  0  0  0  0  0  0
    7.6614  -15.4364   24.2192 C   0  0  0  0  0  0  0  0  0  0  0  0
    8.0860  -16.6184   24.2227 O   0  0  0  0  0  0  0  0  0  0  0  0
    8.0511  -14.6138   23.1295 N   0  0  0  0  0  0  0  0  0  0  0  0
    8.9847  -15.1012   22.1193 C   0  0  1  0  0  0  0  0  0  0  0  0
    8.9433  -14.1618   20.9708 C   0  0  0  0  0  0  0  0  0  0  0  0
    7.9281  -14.4500   19.9237 C   0  0  0  0  0  0  0  0  0  0  0  0
    8.4333  -13.8209   18.6257 C   0  0  0  0  0  0  0  0  0  0  0  0
    7.4350  -14.0072   17.5083 C   0  0  0  0  0  0  0  0  0  0  0  0
    7.9786  -13.4187   16.3026 N   0  0  0  0  0  0  0  0  0  0  0  0
   10.2807  -15.3543   22.7207 C   0  0  0  0  0  0  0  0  0  0  0  0
   10.7129  -14.6336   23.6435 O   0  0  0  0  0  0  0  0  0  0  0  0
   11.0818  -16.4295   22.2691 N   0  0  0  0  0  0  0  0  0  0  0  0
   12.5035  -16.4884   22.4734 C   0  0  0  0  0  0  0  0  0  0  0  0
   12.7891  -17.4060   23.5957 C   0  0  0  0  0  0  0  0  0  0  0  0
   14.0881  -17.6547   23.9724 O   0  0  0  0  0  0  0  0  0  0  0  0
   11.8431  -17.9608   24.2081 O   0  0  0  0  0  0  0  0  0  0  0  0
  2  1  1  6
  2  4  1  0
  2  3  1  0
  5  7  1  0
  5  4  1  0
  5  6  1  1
  7  8  2  0
  9 10  1  0
  9  7  1  0
 11 12  1  0
 10 11  1  6
 12 13  1  0
 13 14  1  0
 14 15  1  0
 16 18  1  0
 16 10  1  0
 17 16  2  0
 19 20  1  0
 19 18  1  0
 20 21  1  0
 22 20  2  0
M  END
$$$$
