LKG.pdb
     RDKit          3D

 22 21  0  0  1  0  0  0  0  0999 V2000
    7.7954  -14.9317   19.4688 C   0  0  0  0  0  0  0  0  0  0  0  0
    7.4849  -13.7384   20.3364 C   0  0  2  0  0  0  0  0  0  0  0  0
    7.8386  -12.4472   19.6272 C   0  0  0  0  0  0  0  0  0  0  0  0
    8.2074  -13.7859   21.6475 C   0  0  0  0  0  0  0  0  0  0  0  0
    7.9179  -15.0155   22.4590 C   0  0  2  0  0  0  0  0  0  0  0  0
    6.6154  -14.9614   23.0625 N   0  0  0  0  0  0  0  0  0  0  0  0
    8.9802  -15.0878   23.5208 C   0  0  0  0  0  0  0  0  0  0  0  0
    9.0915  -14.1975   24.3996 O   0  0  0  0  0  0  0  0  0  0  0  0
    9.9022  -16.1663   23.5742 N   0  0  0  0  0  0  0  0  0  0  0  0
   10.9678  -16.1923   24.5708 C   0  0  1  0  0  0  0  0  0  0  0  0
   10.4329  -16.8454   25.7916 C   0  0  0  0  0  0  0  0  0  0  0  0
   11.3992  -17.0519   26.9024 C   0  0  0  0  0  0  0  0  0  0  0  0
   10.6586  -17.8083   28.0047 C   0  0  0  0  0  0  0  0  0  0  0  0
   11.5525  -18.0375   29.1998 C   0  0  0  0  0  0  0  0  0  0  0  0
   10.8056  -18.7718   30.1991 N   0  0  0  0  0  0  0  0  0  0  0  0
   12.1746  -16.7549   23.9940 C   0  0  0  0  0  0  0  0  0  0  0  0
   12.1273  -17.7669   23.2651 O   0  0  0  0  0  0  0  0  0  0  0  0
   13.4336  -16.1620   24.2492 N   0  0  0  0  0  0  0  0  0  0  0  0
   14.1428  -15.3771   23.2757 C   0  0  0  0  0  0  0  0  0  0  0  0
   14.9801  -16.2749   22.4535 C   0  0  0  0  0  0  0  0  0  0  0  0
   16.2221  -15.8655   22.0284 O   0  0  0  0  0  0  0  0  0  0  0  0
   14.5568  -17.4157   22.1416 O   0  0  0  0  0  0  0  0  0  0  0  0
  2  1  1  6
  2  4  1  0
  2  3  1  0
  5  7  1  0
  5  4  1  0
  5  6  1  1
  7  8  2  0
  9 10  1  0
  9  7  1  0
 11 12  1  0
 10 11  1  1
 12 13  1  0
 13 14  1  0
 14 15  1  0
 16 18  1  0
 16 10  1  0
 17 16  2  0
 19 20  1  0
 19 18  1  0
 20 21  1  0
 22 20  2  0
M  END
$$$$
