LKG.pdb
     RDKit          3D

 22 21  0  0  1  0  0  0  0  0999 V2000
    7.7308  -11.6322   25.9506 C   0  0  0  0  0  0  0  0  0  0  0  0
    6.4278  -12.3548   25.7204 C   0  0  2  0  0  0  0  0  0  0  0  0
    5.3003  -11.6952   26.4878 C   0  0  0  0  0  0  0  0  0  0  0  0
    6.5020  -13.7986   26.1120 C   0  0  0  0  0  0  0  0  0  0  0  0
    7.5677  -14.5719   25.3905 C   0  0  2  0  0  0  0  0  0  0  0  0
    7.8013  -14.0541   24.0711 N   0  0  0  0  0  0  0  0  0  0  0  0
    7.0862  -15.9944   25.3129 C   0  0  0  0  0  0  0  0  0  0  0  0
    6.5974  -16.5773   26.3122 O   0  0  0  0  0  0  0  0  0  0  0  0
    7.1644  -16.7383   24.1060 N   0  0  0  0  0  0  0  0  0  0  0  0
    6.8458  -18.1621   24.0815 C   0  0  1  0  0  0  0  0  0  0  0  0
    6.0914  -18.4380   22.8334 C   0  0  0  0  0  0  0  0  0  0  0  0
    5.6021  -19.8307   22.6566 C   0  0  0  0  0  0  0  0  0  0  0  0
    4.8701  -19.8808   21.3159 C   0  0  0  0  0  0  0  0  0  0  0  0
    4.2345  -21.2325   21.0953 C   0  0  0  0  0  0  0  0  0  0  0  0
    3.4187  -21.1682   19.9012 N   0  0  0  0  0  0  0  0  0  0  0  0
    8.0452  -18.9442   24.3163 C   0  0  0  0  0  0  0  0  0  0  0  0
    9.1232  -18.6506   23.7600 O   0  0  0  0  0  0  0  0  0  0  0  0
    8.0135  -20.0600   25.1858 N   0  0  0  0  0  0  0  0  0  0  0  0
    9.1427  -20.9250   25.3934 C   0  0  0  0  0  0  0  0  0  0  0  0
   10.0351  -20.3151   26.4008 C   0  0  0  0  0  0  0  0  0  0  0  0
   11.3847  -20.5782   26.3791 O   0  0  0  0  0  0  0  0  0  0  0  0
    9.5603  -19.5540   27.2801 O   0  0  0  0  0  0  0  0  0  0  0  0
  2  1  1  1
  2  4  1  0
  2  3  1  0
  5  7  1  0
  5  4  1  0
  5  6  1  6
  7  8  2  0
  9 10  1  0
  9  7  1  0
 11 12  1  0
 10 11  1  6
 12 13  1  0
 13 14  1  0
 14 15  1  0
 16 18  1  0
 16 10  1  0
 17 16  2  0
 19 20  1  0
 19 18  1  0
 20 21  1  0
 22 20  2  0
M  END
$$$$
