LKG.pdb
     RDKit          3D

 22 21  0  0  1  0  0  0  0  0999 V2000
    7.7057  -12.7346   27.7105 C   0  0  0  0  0  0  0  0  0  0  0  0
    6.9391  -12.7653   26.4127 C   0  0  2  0  0  0  0  0  0  0  0  0
    5.9342  -11.6331   26.3509 C   0  0  0  0  0  0  0  0  0  0  0  0
    6.2210  -14.0635   26.2075 C   0  0  0  0  0  0  0  0  0  0  0  0
    7.1295  -15.2242   25.9217 C   0  0  2  0  0  0  0  0  0  0  0  0
    8.3483  -15.1460   26.6780 N   0  0  0  0  0  0  0  0  0  0  0  0
    7.4283  -15.1815   24.4485 C   0  0  0  0  0  0  0  0  0  0  0  0
    6.5458  -15.4367   23.5921 O   0  0  0  0  0  0  0  0  0  0  0  0
    8.7214  -14.8508   23.9641 N   0  0  0  0  0  0  0  0  0  0  0  0
    9.0445  -14.9743   22.5464 C   0  0  1  0  0  0  0  0  0  0  0  0
    8.8663  -13.6399   21.9214 C   0  0  0  0  0  0  0  0  0  0  0  0
    7.7847  -13.5294   20.9074 C   0  0  0  0  0  0  0  0  0  0  0  0
    8.4393  -13.6900   19.5358 C   0  0  0  0  0  0  0  0  0  0  0  0
    7.4121  -13.6110   18.4320 C   0  0  0  0  0  0  0  0  0  0  0  0
    8.0992  -13.6656   17.1590 N   0  0  0  0  0  0  0  0  0  0  0  0
   10.3371  -15.6135   22.3847 C   0  0  0  0  0  0  0  0  0  0  0  0
   11.3921  -14.9475   22.4180 O   0  0  0  0  0  0  0  0  0  0  0  0
   10.4245  -17.0115   22.1857 N   0  0  0  0  0  0  0  0  0  0  0  0
   11.6700  -17.6973   21.9733 C   0  0  0  0  0  0  0  0  0  0  0  0
   11.3990  -19.1381   21.7899 C   0  0  0  0  0  0  0  0  0  0  0  0
   12.4379  -20.0184   21.5981 O   0  0  0  0  0  0  0  0  0  0  0  0
   10.2163  -19.5609   21.8093 O   0  0  0  0  0  0  0  0  0  0  0  0
  2  1  1  1
  2  4  1  0
  2  3  1  0
  5  7  1  0
  5  4  1  0
  5  6  1  1
  7  8  2  0
  9 10  1  0
  9  7  1  0
 11 12  1  0
 10 11  1  1
 12 13  1  0
 13 14  1  0
 14 15  1  0
 16 18  1  0
 16 10  1  0
 17 16  2  0
 19 20  1  0
 19 18  1  0
 20 21  1  0
 22 20  2  0
M  END
$$$$
