LKG.pdb
     RDKit          3D

 22 21  0  0  1  0  0  0  0  0999 V2000
    5.5606  -12.8509   26.3429 C   0  0  0  0  0  0  0  0  0  0  0  0
    6.7459  -13.4291   27.0733 C   0  0  2  0  0  0  0  0  0  0  0  0
    7.6770  -12.3322   27.5477 C   0  0  0  0  0  0  0  0  0  0  0  0
    7.5209  -14.3913   26.2266 C   0  0  0  0  0  0  0  0  0  0  0  0
    6.6647  -15.3745   25.4819 C   0  0  2  0  0  0  0  0  0  0  0  0
    6.4962  -16.5977   26.2159 N   0  0  0  0  0  0  0  0  0  0  0  0
    7.3591  -15.6437   24.1755 C   0  0  0  0  0  0  0  0  0  0  0  0
    8.2795  -16.4933   24.0843 O   0  0  0  0  0  0  0  0  0  0  0  0
    7.0029  -14.9480   22.9900 N   0  0  0  0  0  0  0  0  0  0  0  0
    7.9314  -14.8556   21.8680 C   0  0  1  0  0  0  0  0  0  0  0  0
    7.5271  -13.6935   21.0378 C   0  0  0  0  0  0  0  0  0  0  0  0
    8.4307  -13.3473   19.9092 C   0  0  0  0  0  0  0  0  0  0  0  0
    7.8578  -14.0114   18.6576 C   0  0  0  0  0  0  0  0  0  0  0  0
    8.7076  -13.7100   17.4464 C   0  0  0  0  0  0  0  0  0  0  0  0
    8.1608  -14.4231   16.3115 N   0  0  0  0  0  0  0  0  0  0  0  0
    9.2993  -14.8797   22.3511 C   0  0  0  0  0  0  0  0  0  0  0  0
    9.6398  -14.2147   23.3509 O   0  0  0  0  0  0  0  0  0  0  0  0
   10.2771  -15.6628   21.6934 N   0  0  0  0  0  0  0  0  0  0  0  0
   11.6882  -15.5091   21.9207 C   0  0  0  0  0  0  0  0  0  0  0  0
   12.4155  -16.5151   21.1195 C   0  0  0  0  0  0  0  0  0  0  0  0
   11.7292  -17.3494   20.2685 O   0  0  0  0  0  0  0  0  0  0  0  0
   13.6644  -16.6092   21.2153 O   0  0  0  0  0  0  0  0  0  0  0  0
  2  1  1  6
  2  4  1  0
  2  3  1  0
  5  7  1  0
  5  4  1  0
  5  6  1  1
  7  8  2  0
  9 10  1  0
  9  7  1  0
 11 12  1  0
 10 11  1  1
 12 13  1  0
 13 14  1  0
 14 15  1  0
 16 18  1  0
 16 10  1  0
 17 16  2  0
 19 20  1  0
 19 18  1  0
 20 21  1  0
 22 20  2  0
M  END
$$$$
