LKG.pdb
     RDKit          3D

 22 21  0  0  1  0  0  0  0  0999 V2000
    5.7481  -12.4814   25.2214 C   0  0  0  0  0  0  0  0  0  0  0  0
    6.5180  -12.9992   26.4098 C   0  0  2  0  0  0  0  0  0  0  0  0
    7.2239  -11.8694   27.1312 C   0  0  0  0  0  0  0  0  0  0  0  0
    7.5283  -14.0355   26.0244 C   0  0  0  0  0  0  0  0  0  0  0  0
    6.9587  -15.1784   25.2347 C   0  0  2  0  0  0  0  0  0  0  0  0
    6.1505  -16.0403   26.0517 N   0  0  0  0  0  0  0  0  0  0  0  0
    8.1297  -15.9390   24.6766 C   0  0  0  0  0  0  0  0  0  0  0  0
    8.7595  -16.7757   25.3699 O   0  0  0  0  0  0  0  0  0  0  0  0
    8.5723  -15.7429   23.3418 N   0  0  0  0  0  0  0  0  0  0  0  0
    9.6898  -16.5111   22.8026 C   0  0  1  0  0  0  0  0  0  0  0  0
    9.6386  -16.4105   21.3226 C   0  0  0  0  0  0  0  0  0  0  0  0
    8.8966  -17.4883   20.6169 C   0  0  0  0  0  0  0  0  0  0  0  0
    8.3664  -16.8881   19.3153 C   0  0  0  0  0  0  0  0  0  0  0  0
    7.6364  -17.9261   18.4971 C   0  0  0  0  0  0  0  0  0  0  0  0
    7.1388  -17.2963   17.2924 N   0  0  0  0  0  0  0  0  0  0  0  0
   10.9255  -16.1131   23.4505 C   0  0  0  0  0  0  0  0  0  0  0  0
   11.2158  -14.9081   23.5963 O   0  0  0  0  0  0  0  0  0  0  0  0
   11.8284  -17.0904   23.9319 N   0  0  0  0  0  0  0  0  0  0  0  0
   13.0962  -16.7627   24.5249 C   0  0  0  0  0  0  0  0  0  0  0  0
   13.8290  -18.0132   24.8120 C   0  0  0  0  0  0  0  0  0  0  0  0
   15.0762  -17.9671   25.3893 O   0  0  0  0  0  0  0  0  0  0  0  0
   13.3117  -19.1221   24.5281 O   0  0  0  0  0  0  0  0  0  0  0  0
  2  1  1  6
  2  4  1  0
  2  3  1  0
  5  7  1  0
  5  4  1  0
  5  6  1  1
  7  8  2  0
  9 10  1  0
  9  7  1  0
 11 12  1  0
 10 11  1  6
 12 13  1  0
 13 14  1  0
 14 15  1  0
 16 18  1  0
 16 10  1  0
 17 16  2  0
 19 20  1  0
 19 18  1  0
 20 21  1  0
 22 20  2  0
M  END
$$$$
