LKG.pdb
     RDKit          3D

 22 21  0  0  1  0  0  0  0  0999 V2000
    6.0750  -11.8366   24.7951 C   0  0  0  0  0  0  0  0  0  0  0  0
    6.1714  -12.6736   26.0454 C   0  0  2  0  0  0  0  0  0  0  0  0
    5.8640  -11.8452   27.2761 C   0  0  0  0  0  0  0  0  0  0  0  0
    7.5221  -13.3003   26.2068 C   0  0  0  0  0  0  0  0  0  0  0  0
    7.9773  -14.0845   25.0101 C   0  0  2  0  0  0  0  0  0  0  0  0
    7.0357  -15.1095   24.6548 N   0  0  0  0  0  0  0  0  0  0  0  0
    9.2997  -14.6985   25.3782 C   0  0  0  0  0  0  0  0  0  0  0  0
   10.2227  -14.0142   25.8852 O   0  0  0  0  0  0  0  0  0  0  0  0
    9.5601  -16.0784   25.1678 N   0  0  0  0  0  0  0  0  0  0  0  0
   10.8995  -16.6256   25.3579 C   0  0  1  0  0  0  0  0  0  0  0  0
   10.7660  -17.9116   26.0870 C   0  0  0  0  0  0  0  0  0  0  0  0
   12.0357  -18.5829   26.4711 C   0  0  0  0  0  0  0  0  0  0  0  0
   11.6588  -19.9109   27.1270 C   0  0  0  0  0  0  0  0  0  0  0  0
   12.8906  -20.6874   27.5263 C   0  0  0  0  0  0  0  0  0  0  0  0
   12.4751  -21.9674   28.0596 N   0  0  0  0  0  0  0  0  0  0  0  0
   11.6099  -16.6525   24.0931 C   0  0  0  0  0  0  0  0  0  0  0  0
   11.0452  -17.0316   23.0466 O   0  0  0  0  0  0  0  0  0  0  0  0
   12.9635  -16.2466   24.0235 N   0  0  0  0  0  0  0  0  0  0  0  0
   13.7953  -16.4831   22.8752 C   0  0  0  0  0  0  0  0  0  0  0  0
   15.1047  -15.8328   23.0894 C   0  0  0  0  0  0  0  0  0  0  0  0
   15.4406  -15.3465   24.3311 O   0  0  0  0  0  0  0  0  0  0  0  0
   15.9139  -15.7235   22.1349 O   0  0  0  0  0  0  0  0  0  0  0  0
  2  1  1  6
  2  4  1  0
  2  3  1  0
  5  7  1  0
  5  4  1  0
  5  6  1  1
  7  8  2  0
  9 10  1  0
  9  7  1  0
 11 12  1  0
 10 11  1  6
 12 13  1  0
 13 14  1  0
 14 15  1  0
 16 18  1  0
 16 10  1  0
 17 16  2  0
 19 20  1  0
 19 18  1  0
 20 21  1  0
 22 20  2  0
M  END
$$$$
