LKG.pdb
     RDKit          3D

 22 21  0  0  1  0  0  0  0  0999 V2000
    7.1521  -12.0928   27.7649 C   0  0  0  0  0  0  0  0  0  0  0  0
    6.6767  -12.4375   26.3763 C   0  0  2  0  0  0  0  0  0  0  0  0
    5.4346  -11.6475   26.0179 C   0  0  0  0  0  0  0  0  0  0  0  0
    6.3842  -13.8983   26.2222 C   0  0  0  0  0  0  0  0  0  0  0  0
    7.6070  -14.7695   26.2351 C   0  0  2  0  0  0  0  0  0  0  0  0
    8.8023  -14.0071   26.4661 N   0  0  0  0  0  0  0  0  0  0  0  0
    7.6696  -15.4397   24.8904 C   0  0  0  0  0  0  0  0  0  0  0  0
    6.7341  -16.1679   24.4758 O   0  0  0  0  0  0  0  0  0  0  0  0
    8.7896  -15.2770   24.0330 N   0  0  0  0  0  0  0  0  0  0  0  0
    8.9555  -16.1153   22.8501 C   0  0  1  0  0  0  0  0  0  0  0  0
    9.0409  -15.2219   21.6679 C   0  0  0  0  0  0  0  0  0  0  0  0
    7.8466  -14.3801   21.3939 C   0  0  0  0  0  0  0  0  0  0  0  0
    8.0585  -13.7350   20.0247 C   0  0  0  0  0  0  0  0  0  0  0  0
    6.8147  -13.0111   19.5678 C   0  0  0  0  0  0  0  0  0  0  0  0
    7.0501  -12.4845   18.2401 N   0  0  0  0  0  0  0  0  0  0  0  0
   10.0458  -17.0511   23.0525 C   0  0  0  0  0  0  0  0  0  0  0  0
   10.2522  -17.9816   22.2468 O   0  0  0  0  0  0  0  0  0  0  0  0
   10.8995  -16.9238   24.1736 N   0  0  0  0  0  0  0  0  0  0  0  0
   11.9760  -17.8363   24.4474 C   0  0  0  0  0  0  0  0  0  0  0  0
   13.1232  -17.4989   23.5795 C   0  0  0  0  0  0  0  0  0  0  0  0
   13.2269  -18.0512   22.3244 O   0  0  0  0  0  0  0  0  0  0  0  0
   14.0067  -16.7053   23.9887 O   0  0  0  0  0  0  0  0  0  0  0  0
  2  1  1  1
  2  4  1  0
  2  3  1  0
  5  7  1  0
  5  4  1  0
  5  6  1  6
  7  8  2  0
  9 10  1  0
  9  7  1  0
 11 12  1  0
 10 11  1  6
 12 13  1  0
 13 14  1  0
 14 15  1  0
 16 18  1  0
 16 10  1  0
 17 16  2  0
 19 20  1  0
 19 18  1  0
 20 21  1  0
 22 20  2  0
M  END
$$$$
