LKG.pdb
     RDKit          3D

 22 21  0  0  1  0  0  0  0  0999 V2000
    5.6185  -12.3799   25.9919 C   0  0  0  0  0  0  0  0  0  0  0  0
    6.5882  -12.8845   27.0302 C   0  0  2  0  0  0  0  0  0  0  0  0
    7.4368  -11.7530   27.5733 C   0  0  0  0  0  0  0  0  0  0  0  0
    7.4899  -13.9533   26.4937 C   0  0  0  0  0  0  0  0  0  0  0  0
    6.7619  -15.1065   25.8656 C   0  0  2  0  0  0  0  0  0  0  0  0
    6.2993  -16.0447   26.8502 N   0  0  0  0  0  0  0  0  0  0  0  0
    7.7359  -15.7706   24.9321 C   0  0  0  0  0  0  0  0  0  0  0  0
    8.5649  -16.6195   25.3437 O   0  0  0  0  0  0  0  0  0  0  0  0
    7.7590  -15.4653   23.5456 N   0  0  0  0  0  0  0  0  0  0  0  0
    8.7955  -16.0112   22.6755 C   0  0  1  0  0  0  0  0  0  0  0  0
    8.3937  -15.7503   21.2706 C   0  0  0  0  0  0  0  0  0  0  0  0
    9.2713  -16.3284   20.2190 C   0  0  0  0  0  0  0  0  0  0  0  0
    8.3558  -16.9196   19.1476 C   0  0  0  0  0  0  0  0  0  0  0  0
    9.1585  -17.4957   18.0058 C   0  0  0  0  0  0  0  0  0  0  0  0
    8.2545  -17.8087   16.9194 N   0  0  0  0  0  0  0  0  0  0  0  0
   10.0991  -15.5287   23.0914 C   0  0  0  0  0  0  0  0  0  0  0  0
   10.2193  -14.4465   23.7015 O   0  0  0  0  0  0  0  0  0  0  0  0
   11.2639  -16.2815   22.8114 N   0  0  0  0  0  0  0  0  0  0  0  0
   12.5928  -15.7897   23.0536 C   0  0  0  0  0  0  0  0  0  0  0  0
   13.5689  -16.7709   22.5364 C   0  0  0  0  0  0  0  0  0  0  0  0
   14.9176  -16.5169   22.6240 O   0  0  0  0  0  0  0  0  0  0  0  0
   13.1664  -17.8405   22.0151 O   0  0  0  0  0  0  0  0  0  0  0  0
  2  1  1  6
  2  4  1  0
  2  3  1  0
  5  7  1  0
  5  4  1  0
  5  6  1  1
  7  8  2  0
  9 10  1  0
  9  7  1  0
 11 12  1  0
 10 11  1  6
 12 13  1  0
 13 14  1  0
 14 15  1  0
 16 18  1  0
 16 10  1  0
 17 16  2  0
 19 20  1  0
 19 18  1  0
 20 21  1  0
 22 20  2  0
M  END
$$$$
