LKG.pdb
     RDKit          3D

 22 21  0  0  1  0  0  0  0  0999 V2000
    7.0467  -11.5129   25.0743 C   0  0  0  0  0  0  0  0  0  0  0  0
    6.2352  -12.3377   26.0409 C   0  0  2  0  0  0  0  0  0  0  0  0
    5.8955  -11.5381   27.2821 C   0  0  0  0  0  0  0  0  0  0  0  0
    6.9429  -13.5926   26.4504 C   0  0  0  0  0  0  0  0  0  0  0  0
    7.4732  -14.3969   25.2988 C   0  0  2  0  0  0  0  0  0  0  0  0
    6.4136  -14.9362   24.4926 N   0  0  0  0  0  0  0  0  0  0  0  0
    8.2911  -15.5095   25.8942 C   0  0  0  0  0  0  0  0  0  0  0  0
    8.7675  -15.4262   27.0533 O   0  0  0  0  0  0  0  0  0  0  0  0
    8.5590  -16.7013   25.1704 N   0  0  0  0  0  0  0  0  0  0  0  0
    9.4804  -17.7046   25.6937 C   0  0  1  0  0  0  0  0  0  0  0  0
    8.9671  -19.0414   25.3029 C   0  0  0  0  0  0  0  0  0  0  0  0
    9.7368  -20.2114   25.8017 C   0  0  0  0  0  0  0  0  0  0  0  0
    9.0900  -21.4602   25.2036 C   0  0  0  0  0  0  0  0  0  0  0  0
    9.8643  -22.7024   25.5741 C   0  0  0  0  0  0  0  0  0  0  0  0
    9.1461  -23.8574   25.0784 N   0  0  0  0  0  0  0  0  0  0  0  0
   10.8410  -17.3796   25.3083 C   0  0  0  0  0  0  0  0  0  0  0  0
   11.8154  -17.8677   25.9165 O   0  0  0  0  0  0  0  0  0  0  0  0
   11.0883  -16.4986   24.2291 N   0  0  0  0  0  0  0  0  0  0  0  0
   12.4078  -16.0692   23.8536 C   0  0  0  0  0  0  0  0  0  0  0  0
   13.0373  -17.1203   23.0278 C   0  0  0  0  0  0  0  0  0  0  0  0
   13.7424  -16.7816   21.8967 O   0  0  0  0  0  0  0  0  0  0  0  0
   12.9285  -18.3270   23.3592 O   0  0  0  0  0  0  0  0  0  0  0  0
  2  1  1  6
  2  4  1  0
  2  3  1  0
  5  7  1  0
  5  4  1  0
  5  6  1  1
  7  8  2  0
  9 10  1  0
  9  7  1  0
 11 12  1  0
 10 11  1  6
 12 13  1  0
 13 14  1  0
 14 15  1  0
 16 18  1  0
 16 10  1  0
 17 16  2  0
 19 20  1  0
 19 18  1  0
 20 21  1  0
 22 20  2  0
M  END
$$$$
