LKG.pdb
     RDKit          3D

 22 21  0  0  1  0  0  0  0  0999 V2000
    5.5751  -12.4166   26.2950 C   0  0  0  0  0  0  0  0  0  0  0  0
    6.6802  -13.0738   27.0825 C   0  0  2  0  0  0  0  0  0  0  0  0
    7.6500  -12.0410   27.6193 C   0  0  0  0  0  0  0  0  0  0  0  0
    7.4394  -14.0759   26.2685 C   0  0  0  0  0  0  0  0  0  0  0  0
    6.5676  -15.0724   25.5605 C   0  0  2  0  0  0  0  0  0  0  0  0
    6.1974  -16.1623   26.4199 N   0  0  0  0  0  0  0  0  0  0  0  0
    7.3622  -15.5808   24.3894 C   0  0  0  0  0  0  0  0  0  0  0  0
    7.9650  -16.6817   24.4334 O   0  0  0  0  0  0  0  0  0  0  0  0
    7.4643  -14.8368   23.1844 N   0  0  0  0  0  0  0  0  0  0  0  0
    8.3694  -15.2562   22.1193 C   0  0  1  0  0  0  0  0  0  0  0  0
    8.1374  -14.3711   20.9505 C   0  0  0  0  0  0  0  0  0  0  0  0
    8.4023  -14.9661   19.6141 C   0  0  0  0  0  0  0  0  0  0  0  0
    8.3341  -13.8280   18.5964 C   0  0  0  0  0  0  0  0  0  0  0  0
    8.5428  -14.3427   17.1923 C   0  0  0  0  0  0  0  0  0  0  0  0
    8.4944  -13.2209   16.2788 N   0  0  0  0  0  0  0  0  0  0  0  0
    9.7266  -15.3422   22.6252 C   0  0  0  0  0  0  0  0  0  0  0  0
   10.2158  -14.4226   23.3127 O   0  0  0  0  0  0  0  0  0  0  0  0
   10.5239  -16.4774   22.3464 N   0  0  0  0  0  0  0  0  0  0  0  0
   11.8790  -16.6160   22.8055 C   0  0  0  0  0  0  0  0  0  0  0  0
   12.7730  -16.7278   21.6345 C   0  0  0  0  0  0  0  0  0  0  0  0
   12.2950  -16.4662   20.3719 O   0  0  0  0  0  0  0  0  0  0  0  0
   13.9734  -17.0628   21.7919 O   0  0  0  0  0  0  0  0  0  0  0  0
  2  1  1  6
  2  4  1  0
  2  3  1  0
  5  7  1  0
  5  4  1  0
  5  6  1  1
  7  8  2  0
  9 10  1  0
  9  7  1  0
 11 12  1  0
 10 11  1  6
 12 13  1  0
 13 14  1  0
 14 15  1  0
 16 18  1  0
 16 10  1  0
 17 16  2  0
 19 20  1  0
 19 18  1  0
 20 21  1  0
 22 20  2  0
M  END
$$$$
