FCQ.pdb
     RDKit          3D

 27 27  0  0  1  0  0  0  0  0999 V2000
    5.9575  -17.9200   25.1879 N   0  0  0  0  0  0  0  0  0  0  0  0
    6.5450  -16.6186   25.1493 C   0  0  1  0  0  0  0  0  0  0  0  0
    7.1664  -16.1956   26.4629 C   0  0  0  0  0  0  0  0  0  0  0  0
    7.0912  -14.7100   26.5296 C   0  0  0  0  0  0  0  0  0  0  0  0
    5.9287  -14.1100   26.9729 C   0  0  0  0  0  0  0  0  0  0  0  0
    5.7911  -12.7459   27.0594 C   0  0  0  0  0  0  0  0  0  0  0  0
    6.8652  -11.9613   26.6852 C   0  0  0  0  0  0  0  0  0  0  0  0
    8.0541  -12.5285   26.2331 C   0  0  0  0  0  0  0  0  0  0  0  0
    8.1416  -13.9027   26.1647 C   0  0  0  0  0  0  0  0  0  0  0  0
    7.5801  -16.4713   24.0961 C   0  0  0  0  0  0  0  0  0  0  0  0
    8.4816  -17.3548   24.0632 O   0  0  0  0  0  0  0  0  0  0  0  0
    7.5674  -15.3985   23.1698 N   0  0  0  0  0  0  0  0  0  0  0  0
    8.6221  -15.3744   22.1593 C   0  0  1  0  0  0  0  0  0  0  0  0
    8.2697  -14.1882   21.2607 C   0  0  0  0  0  0  0  0  0  0  0  0
    6.6659  -14.4549   20.4965 S   0  0  0  0  0  0  0  0  0  0  0  0
    9.9365  -15.1250   22.7715 C   0  0  0  0  0  0  0  0  0  0  0  0
    9.9818  -14.3835   23.8115 O   0  0  0  0  0  0  0  0  0  0  0  0
   10.4565  -17.4734   26.8702 N   0  0  0  0  0  0  0  0  0  0  0  0
   11.7808  -17.8204   26.5318 C   0  0  0  0  0  0  0  0  0  0  0  0
   12.5207  -18.2818   27.4682 O   0  0  0  0  0  0  0  0  0  0  0  0
   12.3618  -17.6991   25.2018 C   0  0  0  0  0  0  0  0  0  0  0  0
   11.5875  -17.0278   24.1514 C   0  0  0  0  0  0  0  0  0  0  0  0
   12.2313  -16.0616   23.2404 C   0  0  2  0  0  0  0  0  0  0  0  0
   11.1507  -15.6437   22.3002 N   0  0  0  0  0  0  0  0  0  0  0  0
   13.3919  -16.5784   22.5333 C   0  0  0  0  0  0  0  0  0  0  0  0
   13.2247  -17.2561   21.4828 O   0  0  0  0  0  0  0  0  0  0  0  0
   14.6690  -16.3479   22.9661 O   0  0  0  0  0  0  0  0  0  0  0  0
  2  1  1  1
  3  2  1  0
  4  3  1  0
  5  4  2  0
  6  5  1  0
  7  6  2  0
  7  8  1  0
  8  9  2  0
  9  4  1  0
 10  2  1  0
 10 11  2  0
 12 10  1  0
 13 12  1  0
 13 14  1  6
 14 15  1  0
 16 13  1  0
 17 16  2  0
 19 18  1  0
 19 21  1  0
 20 19  2  0
 22 21  1  0
 23 22  1  1
 23 24  1  0
 24 16  1  0
 25 23  1  0
 26 25  2  0
 27 25  1  0
M  END
$$$$
