FCQ.pdb
     RDKit          3D

 27 27  0  0  1  0  0  0  0  0999 V2000
    4.6514  -19.7965   21.0289 N   0  0  0  0  0  0  0  0  0  0  0  0
    4.5434  -19.1149   22.2795 C   0  0  1  0  0  0  0  0  0  0  0  0
    3.7953  -19.9006   23.3348 C   0  0  0  0  0  0  0  0  0  0  0  0
    2.4256  -20.1545   22.8091 C   0  0  0  0  0  0  0  0  0  0  0  0
    1.5728  -19.0886   22.5982 C   0  0  0  0  0  0  0  0  0  0  0  0
    0.2969  -19.2510   22.1156 C   0  0  0  0  0  0  0  0  0  0  0  0
   -0.1318  -20.5345   21.8365 C   0  0  0  0  0  0  0  0  0  0  0  0
    0.6981  -21.6350   22.0358 C   0  0  0  0  0  0  0  0  0  0  0  0
    1.9699  -21.4187   22.5221 C   0  0  0  0  0  0  0  0  0  0  0  0
    5.8559  -18.7292   22.8548 C   0  0  0  0  0  0  0  0  0  0  0  0
    6.8740  -19.2957   22.3679 O   0  0  0  0  0  0  0  0  0  0  0  0
    5.9727  -17.7756   23.8969 N   0  0  0  0  0  0  0  0  0  0  0  0
    7.3219  -17.4060   24.3178 C   0  0  1  0  0  0  0  0  0  0  0  0
    7.1442  -16.0878   25.0722 C   0  0  0  0  0  0  0  0  0  0  0  0
    5.8006  -16.2363   26.2554 S   0  0  0  0  0  0  0  0  0  0  0  0
    7.8800  -18.4046   25.2430 C   0  0  0  0  0  0  0  0  0  0  0  0
    7.0661  -19.0606   25.9784 O   0  0  0  0  0  0  0  0  0  0  0  0
    9.9301  -23.4175   24.0983 N   0  0  0  0  0  0  0  0  0  0  0  0
   10.5778  -23.3023   25.3457 C   0  0  0  0  0  0  0  0  0  0  0  0
   11.0341  -24.3776   25.8679 O   0  0  0  0  0  0  0  0  0  0  0  0
   10.7700  -22.0562   26.0748 C   0  0  0  0  0  0  0  0  0  0  0  0
   10.2739  -20.8081   25.4832 C   0  0  0  0  0  0  0  0  0  0  0  0
    9.7231  -19.7364   26.3352 C   0  0  2  0  0  0  0  0  0  0  0  0
    9.2447  -18.6955   25.3792 N   0  0  0  0  0  0  0  0  0  0  0  0
   10.6616  -19.1905   27.3023 C   0  0  0  0  0  0  0  0  0  0  0  0
   11.2568  -18.1089   27.0437 O   0  0  0  0  0  0  0  0  0  0  0  0
   10.9188  -19.8091   28.4950 O   0  0  0  0  0  0  0  0  0  0  0  0
  2  1  1  6
  3  2  1  0
  4  3  1  0
  5  4  2  0
  6  5  1  0
  7  6  2  0
  7  8  1  0
  8  9  2  0
  9  4  1  0
 10  2  1  0
 10 11  2  0
 12 10  1  0
 13 12  1  0
 13 14  1  1
 14 15  1  0
 16 13  1  0
 17 16  2  0
 19 18  1  0
 19 21  1  0
 20 19  2  0
 22 21  1  0
 23 22  1  6
 23 24  1  0
 24 16  1  0
 25 23  1  0
 26 25  2  0
 27 25  1  0
M  END
$$$$
