FCQ.pdb
     RDKit          3D

 27 27  0  0  1  0  0  0  0  0999 V2000
    5.5660  -16.2746   22.0020 N   0  0  0  0  0  0  0  0  0  0  0  0
    6.7917  -15.8236   22.5800 C   0  0  1  0  0  0  0  0  0  0  0  0
    6.8860  -14.3178   22.7012 C   0  0  0  0  0  0  0  0  0  0  0  0
    7.2967  -13.7918   21.3701 C   0  0  0  0  0  0  0  0  0  0  0  0
    8.6393  -13.6207   21.0945 C   0  0  0  0  0  0  0  0  0  0  0  0
    9.0877  -13.1403   19.8881 C   0  0  0  0  0  0  0  0  0  0  0  0
    8.1469  -12.8219   18.9274 C   0  0  0  0  0  0  0  0  0  0  0  0
    6.7843  -12.9804   19.1672 C   0  0  0  0  0  0  0  0  0  0  0  0
    6.3857  -13.4662   20.3943 C   0  0  0  0  0  0  0  0  0  0  0  0
    7.0559  -16.3983   23.9225 C   0  0  0  0  0  0  0  0  0  0  0  0
    6.2864  -16.0325   24.8545 O   0  0  0  0  0  0  0  0  0  0  0  0
    8.1143  -17.3112   24.1581 N   0  0  0  0  0  0  0  0  0  0  0  0
    8.2694  -17.8192   25.5190 C   0  0  1  0  0  0  0  0  0  0  0  0
    6.9794  -18.5936   25.7921 C   0  0  0  0  0  0  0  0  0  0  0  0
    7.0728  -19.3904   27.3994 S   0  0  0  0  0  0  0  0  0  0  0  0
    9.4043  -18.7510   25.6102 C   0  0  0  0  0  0  0  0  0  0  0  0
    9.4402  -19.7329   24.7927 O   0  0  0  0  0  0  0  0  0  0  0  0
   12.3908  -17.0204   22.2434 N   0  0  0  0  0  0  0  0  0  0  0  0
   13.4732  -17.0402   23.1472 C   0  0  0  0  0  0  0  0  0  0  0  0
   14.6397  -16.8297   22.6654 O   0  0  0  0  0  0  0  0  0  0  0  0
   13.3602  -17.2744   24.5802 C   0  0  0  0  0  0  0  0  0  0  0  0
   12.0432  -17.5975   25.1413 C   0  0  0  0  0  0  0  0  0  0  0  0
   11.8809  -18.7178   26.0882 C   0  0  2  0  0  0  0  0  0  0  0  0
   10.4575  -18.6428   26.5292 N   0  0  0  0  0  0  0  0  0  0  0  0
   12.7976  -18.6930   27.2166 C   0  0  0  0  0  0  0  0  0  0  0  0
   12.4841  -18.0474   28.2538 O   0  0  0  0  0  0  0  0  0  0  0  0
   13.9939  -19.3562   27.1961 O   0  0  0  0  0  0  0  0  0  0  0  0
  2  1  1  1
  3  2  1  0
  4  3  1  0
  5  4  2  0
  6  5  1  0
  7  6  2  0
  7  8  1  0
  8  9  2  0
  9  4  1  0
 10  2  1  0
 10 11  2  0
 12 10  1  0
 13 12  1  0
 13 14  1  6
 14 15  1  0
 16 13  1  0
 17 16  2  0
 19 18  1  0
 19 21  1  0
 20 19  2  0
 22 21  1  0
 23 22  1  6
 23 24  1  0
 24 16  1  0
 25 23  1  0
 26 25  2  0
 27 25  1  0
M  END
$$$$
