FCQ.pdb
     RDKit          3D

 27 27  0  0  1  0  0  0  0  0999 V2000
    5.6857  -18.0789   25.2967 N   0  0  0  0  0  0  0  0  0  0  0  0
    6.2074  -16.7493   25.2906 C   0  0  1  0  0  0  0  0  0  0  0  0
    6.6784  -16.2773   26.6494 C   0  0  0  0  0  0  0  0  0  0  0  0
    6.8419  -14.7994   26.5721 C   0  0  0  0  0  0  0  0  0  0  0  0
    8.1126  -14.2605   26.5198 C   0  0  0  0  0  0  0  0  0  0  0  0
    8.3357  -12.9069   26.4475 C   0  0  0  0  0  0  0  0  0  0  0  0
    7.2370  -12.0693   26.4274 C   0  0  0  0  0  0  0  0  0  0  0  0
    5.9401  -12.5741   26.4785 C   0  0  0  0  0  0  0  0  0  0  0  0
    5.7696  -13.9403   26.5504 C   0  0  0  0  0  0  0  0  0  0  0  0
    7.3296  -16.5618   24.3377 C   0  0  0  0  0  0  0  0  0  0  0  0
    8.2439  -17.4323   24.3640 O   0  0  0  0  0  0  0  0  0  0  0  0
    7.3828  -15.4662   23.4400 N   0  0  0  0  0  0  0  0  0  0  0  0
    8.4182  -15.4947   22.4099 C   0  0  1  0  0  0  0  0  0  0  0  0
    8.1607  -14.2444   21.5680 C   0  0  0  0  0  0  0  0  0  0  0  0
    6.8193  -14.5501   20.4129 S   0  0  0  0  0  0  0  0  0  0  0  0
    9.7599  -15.3917   23.0047 C   0  0  0  0  0  0  0  0  0  0  0  0
   10.0838  -14.2894   23.5646 O   0  0  0  0  0  0  0  0  0  0  0  0
   10.4087  -18.3493   27.4533 N   0  0  0  0  0  0  0  0  0  0  0  0
   11.6321  -18.4320   26.7566 C   0  0  0  0  0  0  0  0  0  0  0  0
   12.2633  -19.5435   26.8156 O   0  0  0  0  0  0  0  0  0  0  0  0
   12.2222  -17.3542   25.9748 C   0  0  0  0  0  0  0  0  0  0  0  0
   12.2007  -17.4503   24.5105 C   0  0  0  0  0  0  0  0  0  0  0  0
   12.0371  -16.2430   23.6777 C   0  0  2  0  0  0  0  0  0  0  0  0
   10.7158  -16.4173   23.0069 N   0  0  0  0  0  0  0  0  0  0  0  0
   13.1055  -16.0225   22.7164 C   0  0  0  0  0  0  0  0  0  0  0  0
   14.2620  -15.7381   23.1319 O   0  0  0  0  0  0  0  0  0  0  0  0
   12.9014  -16.1206   21.3674 O   0  0  0  0  0  0  0  0  0  0  0  0
  2  1  1  1
  3  2  1  0
  4  3  1  0
  5  4  2  0
  6  5  1  0
  7  6  2  0
  7  8  1  0
  8  9  2  0
  9  4  1  0
 10  2  1  0
 10 11  2  0
 12 10  1  0
 13 12  1  0
 13 14  1  6
 14 15  1  0
 16 13  1  0
 17 16  2  0
 19 18  1  0
 19 21  1  0
 20 19  2  0
 22 21  1  0
 23 22  1  6
 23 24  1  0
 24 16  1  0
 25 23  1  0
 26 25  2  0
 27 25  1  0
M  END
$$$$
