FCQ.pdb
     RDKit          3D

 27 27  0  0  1  0  0  0  0  0999 V2000
    6.4678  -16.6229   26.0070 N   0  0  0  0  0  0  0  0  0  0  0  0
    7.0624  -15.8797   24.9421 C   0  0  1  0  0  0  0  0  0  0  0  0
    8.1735  -14.9568   25.3944 C   0  0  0  0  0  0  0  0  0  0  0  0
    7.5361  -13.8052   26.0906 C   0  0  0  0  0  0  0  0  0  0  0  0
    7.9006  -13.5139   27.3907 C   0  0  0  0  0  0  0  0  0  0  0  0
    7.3531  -12.4671   28.0917 C   0  0  0  0  0  0  0  0  0  0  0  0
    6.4047  -11.6879   27.4571 C   0  0  0  0  0  0  0  0  0  0  0  0
    6.0108  -11.9495   26.1472 C   0  0  0  0  0  0  0  0  0  0  0  0
    6.5904  -13.0120   25.4870 C   0  0  0  0  0  0  0  0  0  0  0  0
    7.6048  -16.7358   23.8580 C   0  0  0  0  0  0  0  0  0  0  0  0
    7.8409  -17.9403   24.1548 O   0  0  0  0  0  0  0  0  0  0  0  0
    7.8491  -16.2382   22.5535 N   0  0  0  0  0  0  0  0  0  0  0  0
    8.2315  -17.2064   21.5286 C   0  0  1  0  0  0  0  0  0  0  0  0
    7.7937  -16.5672   20.2103 C   0  0  0  0  0  0  0  0  0  0  0  0
    6.0395  -16.1844   20.2688 S   0  0  0  0  0  0  0  0  0  0  0  0
    9.6902  -17.3955   21.4968 C   0  0  0  0  0  0  0  0  0  0  0  0
   10.2269  -17.7281   20.3855 O   0  0  0  0  0  0  0  0  0  0  0  0
   15.0039  -16.0035   19.6806 N   0  0  0  0  0  0  0  0  0  0  0  0
   13.8722  -15.1954   19.9151 C   0  0  0  0  0  0  0  0  0  0  0  0
   13.3746  -14.5818   18.9086 O   0  0  0  0  0  0  0  0  0  0  0  0
   13.2289  -15.0148   21.2092 C   0  0  0  0  0  0  0  0  0  0  0  0
   11.9888  -15.7478   21.4898 C   0  0  0  0  0  0  0  0  0  0  0  0
   11.9841  -16.8944   22.4188 C   0  0  2  0  0  0  0  0  0  0  0  0
   10.5427  -17.2355   22.5982 N   0  0  0  0  0  0  0  0  0  0  0  0
   12.6419  -16.6442   23.6911 C   0  0  0  0  0  0  0  0  0  0  0  0
   13.8773  -16.8723   23.8038 O   0  0  0  0  0  0  0  0  0  0  0  0
   11.9651  -16.1595   24.7766 O   0  0  0  0  0  0  0  0  0  0  0  0
  2  1  1  1
  3  2  1  0
  4  3  1  0
  5  4  2  0
  6  5  1  0
  7  6  2  0
  7  8  1  0
  8  9  2  0
  9  4  1  0
 10  2  1  0
 10 11  2  0
 12 10  1  0
 13 12  1  0
 13 14  1  6
 14 15  1  0
 16 13  1  0
 17 16  2  0
 19 18  1  0
 19 21  1  0
 20 19  2  0
 22 21  1  0
 23 22  1  6
 23 24  1  0
 24 16  1  0
 25 23  1  0
 26 25  2  0
 27 25  1  0
M  END
$$$$
