FCQ.pdb
     RDKit          3D

 27 27  0  0  1  0  0  0  0  0999 V2000
    6.1947  -18.2575   25.5866 N   0  0  0  0  0  0  0  0  0  0  0  0
    6.6783  -16.9282   25.3889 C   0  0  1  0  0  0  0  0  0  0  0  0
    7.3134  -16.3251   26.6233 C   0  0  0  0  0  0  0  0  0  0  0  0
    7.1649  -14.8471   26.5199 C   0  0  0  0  0  0  0  0  0  0  0  0
    5.8999  -14.2969   26.4495 C   0  0  0  0  0  0  0  0  0  0  0  0
    5.6905  -12.9427   26.3529 C   0  0  0  0  0  0  0  0  0  0  0  0
    6.7975  -12.1161   26.3266 C   0  0  0  0  0  0  0  0  0  0  0  0
    8.0891  -12.6326   26.3954 C   0  0  0  0  0  0  0  0  0  0  0  0
    8.2456  -13.9989   26.4915 C   0  0  0  0  0  0  0  0  0  0  0  0
    7.6593  -16.8175   24.2809 C   0  0  0  0  0  0  0  0  0  0  0  0
    8.5373  -17.7224   24.2119 O   0  0  0  0  0  0  0  0  0  0  0  0
    7.6223  -15.7554   23.3430 N   0  0  0  0  0  0  0  0  0  0  0  0
    8.5138  -15.8499   22.1895 C   0  0  1  0  0  0  0  0  0  0  0  0
    8.0772  -14.7096   21.2689 C   0  0  0  0  0  0  0  0  0  0  0  0
    8.4484  -13.1280   22.0357 S   0  0  0  0  0  0  0  0  0  0  0  0
    9.9137  -15.6259   22.5825 C   0  0  0  0  0  0  0  0  0  0  0  0
   10.7908  -15.5487   21.6560 O   0  0  0  0  0  0  0  0  0  0  0  0
    9.4928  -16.4603   27.8625 N   0  0  0  0  0  0  0  0  0  0  0  0
   10.7204  -15.7771   27.7393 C   0  0  0  0  0  0  0  0  0  0  0  0
   11.0061  -14.9222   28.6474 O   0  0  0  0  0  0  0  0  0  0  0  0
   11.6831  -15.9771   26.6649 C   0  0  0  0  0  0  0  0  0  0  0  0
   11.8362  -14.9287   25.6495 C   0  0  0  0  0  0  0  0  0  0  0  0
   11.8044  -15.2605   24.2119 C   0  0  2  0  0  0  0  0  0  0  0  0
   10.3623  -15.4872   23.9035 N   0  0  0  0  0  0  0  0  0  0  0  0
   12.6226  -16.4024   23.8369 C   0  0  0  0  0  0  0  0  0  0  0  0
   13.8793  -16.3054   23.8860 O   0  0  0  0  0  0  0  0  0  0  0  0
   12.0738  -17.5898   23.4367 O   0  0  0  0  0  0  0  0  0  0  0  0
  2  1  1  1
  3  2  1  0
  4  3  1  0
  5  4  2  0
  6  5  1  0
  7  6  2  0
  7  8  1  0
  8  9  2  0
  9  4  1  0
 10  2  1  0
 10 11  2  0
 12 10  1  0
 13 12  1  0
 13 14  1  6
 14 15  1  0
 16 13  1  0
 17 16  2  0
 19 18  1  0
 19 21  1  0
 20 19  2  0
 22 21  1  0
 23 22  1  1
 23 24  1  0
 24 16  1  0
 25 23  1  0
 26 25  2  0
 27 25  1  0
M  END
$$$$
