FCQ.pdb
     RDKit          3D

 27 27  0  0  1  0  0  0  0  0999 V2000
    6.2095  -17.0823   25.8398 N   0  0  0  0  0  0  0  0  0  0  0  0
    6.9098  -15.9700   25.2808 C   0  0  1  0  0  0  0  0  0  0  0  0
    7.8252  -15.2741   26.2650 C   0  0  0  0  0  0  0  0  0  0  0  0
    7.1997  -13.9655   26.6018 C   0  0  0  0  0  0  0  0  0  0  0  0
    7.6957  -13.2304   27.6608 C   0  0  0  0  0  0  0  0  0  0  0  0
    7.1668  -12.0163   28.0259 C   0  0  0  0  0  0  0  0  0  0  0  0
    6.0999  -11.5284   27.2958 C   0  0  0  0  0  0  0  0  0  0  0  0
    5.5716  -12.2397   26.2213 C   0  0  0  0  0  0  0  0  0  0  0  0
    6.1382  -13.4535   25.8952 C   0  0  0  0  0  0  0  0  0  0  0  0
    7.7198  -16.3233   24.0886 C   0  0  0  0  0  0  0  0  0  0  0  0
    8.3190  -17.4344   24.1224 O   0  0  0  0  0  0  0  0  0  0  0  0
    7.8229  -15.4660   22.9646 N   0  0  0  0  0  0  0  0  0  0  0  0
    8.7846  -15.8338   21.9283 C   0  0  1  0  0  0  0  0  0  0  0  0
    8.5552  -14.8171   20.8094 C   0  0  0  0  0  0  0  0  0  0  0  0
    6.8741  -14.9561   20.1916 S   0  0  0  0  0  0  0  0  0  0  0  0
   10.1662  -15.6933   22.4141 C   0  0  0  0  0  0  0  0  0  0  0  0
   10.3888  -14.8542   23.3522 O   0  0  0  0  0  0  0  0  0  0  0  0
   13.2014  -18.7897   26.1219 N   0  0  0  0  0  0  0  0  0  0  0  0
   12.1793  -19.1257   25.2101 C   0  0  0  0  0  0  0  0  0  0  0  0
   11.6010  -20.2555   25.3720 O   0  0  0  0  0  0  0  0  0  0  0  0
   11.7323  -18.2832   24.1094 C   0  0  0  0  0  0  0  0  0  0  0  0
   12.3186  -16.9462   23.9602 C   0  0  0  0  0  0  0  0  0  0  0  0
   12.5835  -16.3838   22.6217 C   0  0  2  0  0  0  0  0  0  0  0  0
   11.2642  -16.4153   21.9256 N   0  0  0  0  0  0  0  0  0  0  0  0
   13.6099  -17.0823   21.8650 C   0  0  0  0  0  0  0  0  0  0  0  0
   13.2703  -17.8381   20.9140 O   0  0  0  0  0  0  0  0  0  0  0  0
   14.9415  -16.9424   22.1451 O   0  0  0  0  0  0  0  0  0  0  0  0
  2  1  1  1
  3  2  1  0
  4  3  1  0
  5  4  2  0
  6  5  1  0
  7  6  2  0
  7  8  1  0
  8  9  2  0
  9  4  1  0
 10  2  1  0
 10 11  2  0
 12 10  1  0
 13 12  1  0
 13 14  1  6
 14 15  1  0
 16 13  1  0
 17 16  2  0
 19 18  1  0
 19 21  1  0
 20 19  2  0
 22 21  1  0
 23 22  1  1
 23 24  1  0
 24 16  1  0
 25 23  1  0
 26 25  2  0
 27 25  1  0
M  END
$$$$
