FCQ.pdb
     RDKit          3D

 27 27  0  0  1  0  0  0  0  0999 V2000
    5.8880  -18.1535   25.4024 N   0  0  0  0  0  0  0  0  0  0  0  0
    6.2513  -16.7723   25.3815 C   0  0  1  0  0  0  0  0  0  0  0  0
    6.8099  -16.2731   26.6966 C   0  0  0  0  0  0  0  0  0  0  0  0
    6.8598  -14.7869   26.6203 C   0  0  0  0  0  0  0  0  0  0  0  0
    5.6942  -14.0615   26.7723 C   0  0  0  0  0  0  0  0  0  0  0  0
    5.6682  -12.6893   26.7134 C   0  0  0  0  0  0  0  0  0  0  0  0
    6.8610  -12.0275   26.4933 C   0  0  0  0  0  0  0  0  0  0  0  0
    8.0570  -12.7232   26.3351 C   0  0  0  0  0  0  0  0  0  0  0  0
    8.0298  -14.0999   26.4027 C   0  0  0  0  0  0  0  0  0  0  0  0
    7.2349  -16.4386   24.3216 C   0  0  0  0  0  0  0  0  0  0  0  0
    8.2331  -17.2047   24.2164 O   0  0  0  0  0  0  0  0  0  0  0  0
    7.0726  -15.3203   23.4659 N   0  0  0  0  0  0  0  0  0  0  0  0
    7.9131  -15.2633   22.2724 C   0  0  1  0  0  0  0  0  0  0  0  0
    7.2913  -14.1612   21.4138 C   0  0  0  0  0  0  0  0  0  0  0  0
    8.2117  -13.9872   19.8809 S   0  0  0  0  0  0  0  0  0  0  0  0
    9.2901  -14.8724   22.6126 C   0  0  0  0  0  0  0  0  0  0  0  0
    9.4533  -13.9468   23.4788 O   0  0  0  0  0  0  0  0  0  0  0  0
   10.3144  -18.2137   26.2784 N   0  0  0  0  0  0  0  0  0  0  0  0
   11.6503  -17.7852   26.1337 C   0  0  0  0  0  0  0  0  0  0  0  0
   12.4864  -18.1715   27.0219 O   0  0  0  0  0  0  0  0  0  0  0  0
   12.1455  -16.9466   25.0509 C   0  0  0  0  0  0  0  0  0  0  0  0
   11.2036  -16.4945   24.0204 C   0  0  0  0  0  0  0  0  0  0  0  0
   11.6659  -15.6760   22.8827 C   0  0  2  0  0  0  0  0  0  0  0  0
   10.4446  -15.4426   22.0581 N   0  0  0  0  0  0  0  0  0  0  0  0
   12.7372  -16.2749   22.1032 C   0  0  0  0  0  0  0  0  0  0  0  0
   13.8751  -15.7307   22.0955 O   0  0  0  0  0  0  0  0  0  0  0  0
   12.5557  -17.4205   21.3779 O   0  0  0  0  0  0  0  0  0  0  0  0
  2  1  1  1
  3  2  1  0
  4  3  1  0
  5  4  2  0
  6  5  1  0
  7  6  2  0
  7  8  1  0
  8  9  2  0
  9  4  1  0
 10  2  1  0
 10 11  2  0
 12 10  1  0
 13 12  1  0
 13 14  1  6
 14 15  1  0
 16 13  1  0
 17 16  2  0
 19 18  1  0
 19 21  1  0
 20 19  2  0
 22 21  1  0
 23 22  1  1
 23 24  1  0
 24 16  1  0
 25 23  1  0
 26 25  2  0
 27 25  1  0
M  END
$$$$
