FCQ.pdb
     RDKit          3D

 27 27  0  0  1  0  0  0  0  0999 V2000
    7.1538  -16.2043   22.4970 N   0  0  0  0  0  0  0  0  0  0  0  0
    8.2239  -15.2611   22.4246 C   0  0  1  0  0  0  0  0  0  0  0  0
    7.7599  -13.8309   22.2516 C   0  0  0  0  0  0  0  0  0  0  0  0
    7.6680  -13.5696   20.7886 C   0  0  0  0  0  0  0  0  0  0  0  0
    6.5384  -12.9592   20.2793 C   0  0  0  0  0  0  0  0  0  0  0  0
    6.3878  -12.6887   18.9410 C   0  0  0  0  0  0  0  0  0  0  0  0
    7.4140  -13.0474   18.0880 C   0  0  0  0  0  0  0  0  0  0  0  0
    8.5686  -13.6646   18.5629 C   0  0  0  0  0  0  0  0  0  0  0  0
    8.6710  -13.9143   19.9148 C   0  0  0  0  0  0  0  0  0  0  0  0
    9.1238  -15.3004   23.6041 C   0  0  0  0  0  0  0  0  0  0  0  0
    9.0228  -14.3446   24.4231 O   0  0  0  0  0  0  0  0  0  0  0  0
   10.0523  -16.3512   23.8108 N   0  0  0  0  0  0  0  0  0  0  0  0
   10.6432  -16.4699   25.1415 C   0  0  1  0  0  0  0  0  0  0  0  0
    9.4757  -16.8573   26.0499 C   0  0  0  0  0  0  0  0  0  0  0  0
    8.7920  -15.3891   26.8271 S   0  0  0  0  0  0  0  0  0  0  0  0
   11.6459  -17.5459   25.1815 C   0  0  0  0  0  0  0  0  0  0  0  0
   11.2296  -18.7484   25.3007 O   0  0  0  0  0  0  0  0  0  0  0  0
   17.6355  -15.9947   23.9973 N   0  0  0  0  0  0  0  0  0  0  0  0
   16.3069  -15.9399   23.5276 C   0  0  0  0  0  0  0  0  0  0  0  0
   15.8861  -14.8107   23.0974 O   0  0  0  0  0  0  0  0  0  0  0  0
   15.3873  -17.0686   23.4903 C   0  0  0  0  0  0  0  0  0  0  0  0
   15.2739  -17.9266   24.6755 C   0  0  0  0  0  0  0  0  0  0  0  0
   13.9745  -18.5086   25.0639 C   0  0  2  0  0  0  0  0  0  0  0  0
   13.0318  -17.3526   25.0958 N   0  0  0  0  0  0  0  0  0  0  0  0
   13.9882  -19.2290   26.3268 C   0  0  0  0  0  0  0  0  0  0  0  0
   13.3221  -18.7826   27.3005 O   0  0  0  0  0  0  0  0  0  0  0  0
   14.6973  -20.3865   26.4958 O   0  0  0  0  0  0  0  0  0  0  0  0
  2  1  1  1
  3  2  1  0
  4  3  1  0
  5  4  2  0
  6  5  1  0
  7  6  2  0
  7  8  1  0
  8  9  2  0
  9  4  1  0
 10  2  1  0
 10 11  2  0
 12 10  1  0
 13 12  1  0
 13 14  1  1
 14 15  1  0
 16 13  1  0
 17 16  2  0
 19 18  1  0
 19 21  1  0
 20 19  2  0
 22 21  1  0
 23 22  1  1
 23 24  1  0
 24 16  1  0
 25 23  1  0
 26 25  2  0
 27 25  1  0
M  END
$$$$
