FCQ.pdb
     RDKit          3D

 27 27  0  0  1  0  0  0  0  0999 V2000
    6.5629  -16.9032   26.1123 N   0  0  0  0  0  0  0  0  0  0  0  0
    6.8456  -15.7693   25.2911 C   0  0  1  0  0  0  0  0  0  0  0  0
    7.9227  -14.8674   25.8542 C   0  0  0  0  0  0  0  0  0  0  0  0
    7.2514  -13.6364   26.3553 C   0  0  0  0  0  0  0  0  0  0  0  0
    6.1081  -13.1844   25.7257 C   0  0  0  0  0  0  0  0  0  0  0  0
    5.4388  -12.0569   26.1354 C   0  0  0  0  0  0  0  0  0  0  0  0
    5.9423  -11.3623   27.2186 C   0  0  0  0  0  0  0  0  0  0  0  0
    7.0923  -11.7860   27.8800 C   0  0  0  0  0  0  0  0  0  0  0  0
    7.7272  -12.9239   27.4296 C   0  0  0  0  0  0  0  0  0  0  0  0
    7.2415  -16.1293   23.9068 C   0  0  0  0  0  0  0  0  0  0  0  0
    7.5258  -17.3418   23.6983 O   0  0  0  0  0  0  0  0  0  0  0  0
    7.3008  -15.1701   22.8649 N   0  0  0  0  0  0  0  0  0  0  0  0
    7.8568  -15.6049   21.5859 C   0  0  1  0  0  0  0  0  0  0  0  0
    7.6367  -14.4194   20.6455 C   0  0  0  0  0  0  0  0  0  0  0  0
    8.3420  -14.7786   19.0328 S   0  0  0  0  0  0  0  0  0  0  0  0
    9.3025  -15.8554   21.6947 C   0  0  0  0  0  0  0  0  0  0  0  0
   10.0042  -15.0291   22.3719 O   0  0  0  0  0  0  0  0  0  0  0  0
   10.5363  -19.8571   24.8303 N   0  0  0  0  0  0  0  0  0  0  0  0
   11.2112  -18.6285   24.9853 C   0  0  0  0  0  0  0  0  0  0  0  0
   11.4352  -18.2326   26.1813 O   0  0  0  0  0  0  0  0  0  0  0  0
   11.6746  -17.7866   23.8910 C   0  0  0  0  0  0  0  0  0  0  0  0
   11.3837  -18.1967   22.5123 C   0  0  0  0  0  0  0  0  0  0  0  0
   11.4091  -17.2139   21.4117 C   0  0  2  0  0  0  0  0  0  0  0  0
    9.9737  -16.9391   21.1111 N   0  0  0  0  0  0  0  0  0  0  0  0
   12.1344  -17.6494   20.2292 C   0  0  0  0  0  0  0  0  0  0  0  0
   11.6212  -18.5205   19.4750 O   0  0  0  0  0  0  0  0  0  0  0  0
   13.3597  -17.1388   19.8988 O   0  0  0  0  0  0  0  0  0  0  0  0
  2  1  1  1
  3  2  1  0
  4  3  1  0
  5  4  2  0
  6  5  1  0
  7  6  2  0
  7  8  1  0
  8  9  2  0
  9  4  1  0
 10  2  1  0
 10 11  2  0
 12 10  1  0
 13 12  1  0
 13 14  1  6
 14 15  1  0
 16 13  1  0
 17 16  2  0
 19 18  1  0
 19 21  1  0
 20 19  2  0
 22 21  1  0
 23 22  1  1
 23 24  1  0
 24 16  1  0
 25 23  1  0
 26 25  2  0
 27 25  1  0
M  END
$$$$
