FCQ.pdb
     RDKit          3D

 27 27  0  0  1  0  0  0  0  0999 V2000
   12.0673  -15.2584   18.5719 N   0  0  0  0  0  0  0  0  0  0  0  0
   11.1263  -14.8940   19.5828 C   0  0  1  0  0  0  0  0  0  0  0  0
    9.7193  -15.3763   19.3024 C   0  0  0  0  0  0  0  0  0  0  0  0
    8.8268  -14.1853   19.3449 C   0  0  0  0  0  0  0  0  0  0  0  0
    9.3838  -12.9213   19.3444 C   0  0  0  0  0  0  0  0  0  0  0  0
    8.6198  -11.7802   19.3823 C   0  0  0  0  0  0  0  0  0  0  0  0
    7.2458  -11.9214   19.4222 C   0  0  0  0  0  0  0  0  0  0  0  0
    6.6464  -13.1785   19.4241 C   0  0  0  0  0  0  0  0  0  0  0  0
    7.4575  -14.2927   19.3851 C   0  0  0  0  0  0  0  0  0  0  0  0
   11.5022  -15.3721   20.9365 C   0  0  0  0  0  0  0  0  0  0  0  0
   12.6785  -15.8103   21.0739 O   0  0  0  0  0  0  0  0  0  0  0  0
   10.5962  -15.3430   22.0261 N   0  0  0  0  0  0  0  0  0  0  0  0
   11.1231  -15.6886   23.3440 C   0  0  1  0  0  0  0  0  0  0  0  0
   10.1281  -15.0767   24.3309 C   0  0  0  0  0  0  0  0  0  0  0  0
    9.0749  -13.8936   23.4835 S   0  0  0  0  0  0  0  0  0  0  0  0
   11.1428  -17.1465   23.5408 C   0  0  0  0  0  0  0  0  0  0  0  0
   10.0888  -17.8053   23.2431 O   0  0  0  0  0  0  0  0  0  0  0  0
   16.1924  -18.7638   23.2695 N   0  0  0  0  0  0  0  0  0  0  0  0
   15.2832  -18.8912   22.1989 C   0  0  0  0  0  0  0  0  0  0  0  0
   15.6971  -18.5483   21.0378 O   0  0  0  0  0  0  0  0  0  0  0  0
   13.9191  -19.3877   22.3167 C   0  0  0  0  0  0  0  0  0  0  0  0
   13.4465  -19.8503   23.6268 C   0  0  0  0  0  0  0  0  0  0  0  0
   12.1738  -19.3562   24.1871 C   0  0  2  0  0  0  0  0  0  0  0  0
   12.2368  -17.8737   24.0305 N   0  0  0  0  0  0  0  0  0  0  0  0
   11.9303  -19.7434   25.5672 C   0  0  0  0  0  0  0  0  0  0  0  0
   11.9285  -20.9665   25.8752 O   0  0  0  0  0  0  0  0  0  0  0  0
   11.7086  -18.8209   26.5528 O   0  0  0  0  0  0  0  0  0  0  0  0
  2  1  1  6
  3  2  1  0
  4  3  1  0
  5  4  2  0
  6  5  1  0
  7  6  2  0
  7  8  1  0
  8  9  2  0
  9  4  1  0
 10  2  1  0
 10 11  2  0
 12 10  1  0
 13 12  1  0
 13 14  1  1
 14 15  1  0
 16 13  1  0
 17 16  2  0
 19 18  1  0
 19 21  1  0
 20 19  2  0
 22 21  1  0
 23 22  1  1
 23 24  1  0
 24 16  1  0
 25 23  1  0
 26 25  2  0
 27 25  1  0
M  END
$$$$
