FCQ.pdb
     RDKit          3D

 27 27  0  0  1  0  0  0  0  0999 V2000
    6.0748  -16.4912   22.8883 N   0  0  0  0  0  0  0  0  0  0  0  0
    7.1643  -15.6158   22.5937 C   0  0  1  0  0  0  0  0  0  0  0  0
    6.7435  -14.1790   22.3715 C   0  0  0  0  0  0  0  0  0  0  0  0
    7.3561  -13.7318   21.0902 C   0  0  0  0  0  0  0  0  0  0  0  0
    6.5620  -13.6085   19.9667 C   0  0  0  0  0  0  0  0  0  0  0  0
    7.0614  -13.2014   18.7534 C   0  0  0  0  0  0  0  0  0  0  0  0
    8.4094  -12.9088   18.6728 C   0  0  0  0  0  0  0  0  0  0  0  0
    9.2428  -13.0208   19.7830 C   0  0  0  0  0  0  0  0  0  0  0  0
    8.6927  -13.4335   20.9779 C   0  0  0  0  0  0  0  0  0  0  0  0
    8.2192  -15.6172   23.6374 C   0  0  0  0  0  0  0  0  0  0  0  0
    8.0223  -14.8752   24.6400 O   0  0  0  0  0  0  0  0  0  0  0  0
    9.3913  -16.4064   23.5253 N   0  0  0  0  0  0  0  0  0  0  0  0
   10.3524  -16.3369   24.6232 C   0  0  1  0  0  0  0  0  0  0  0  0
    9.5816  -16.8397   25.8445 C   0  0  0  0  0  0  0  0  0  0  0  0
   10.7075  -17.0749   27.2244 S   0  0  0  0  0  0  0  0  0  0  0  0
   11.4932  -17.2352   24.3859 C   0  0  0  0  0  0  0  0  0  0  0  0
   11.2761  -18.4946   24.3963 O   0  0  0  0  0  0  0  0  0  0  0  0
   15.9657  -14.5387   20.5871 N   0  0  0  0  0  0  0  0  0  0  0  0
   15.4711  -14.8800   21.8630 C   0  0  0  0  0  0  0  0  0  0  0  0
   15.8697  -14.1725   22.8518 O   0  0  0  0  0  0  0  0  0  0  0  0
   14.5407  -15.9671   22.1343 C   0  0  0  0  0  0  0  0  0  0  0  0
   14.9167  -16.9896   23.1175 C   0  0  0  0  0  0  0  0  0  0  0  0
   13.8852  -17.7887   23.8069 C   0  0  2  0  0  0  0  0  0  0  0  0
   12.8083  -16.8131   24.1454 N   0  0  0  0  0  0  0  0  0  0  0  0
   14.3580  -18.5004   24.9834 C   0  0  0  0  0  0  0  0  0  0  0  0
   13.9213  -18.1736   26.1207 O   0  0  0  0  0  0  0  0  0  0  0  0
   15.2610  -19.5245   24.8995 O   0  0  0  0  0  0  0  0  0  0  0  0
  2  1  1  1
  3  2  1  0
  4  3  1  0
  5  4  2  0
  6  5  1  0
  7  6  2  0
  7  8  1  0
  8  9  2  0
  9  4  1  0
 10  2  1  0
 10 11  2  0
 12 10  1  0
 13 12  1  0
 13 14  1  1
 14 15  1  0
 16 13  1  0
 17 16  2  0
 19 18  1  0
 19 21  1  0
 20 19  2  0
 22 21  1  0
 23 22  1  1
 23 24  1  0
 24 16  1  0
 25 23  1  0
 26 25  2  0
 27 25  1  0
M  END
$$$$
