FCQ.pdb
     RDKit          3D

 27 27  0  0  1  0  0  0  0  0999 V2000
    5.7687  -18.0261   25.2566 N   0  0  0  0  0  0  0  0  0  0  0  0
    6.3705  -16.7308   25.2555 C   0  0  1  0  0  0  0  0  0  0  0  0
    7.0502  -16.3779   26.5610 C   0  0  0  0  0  0  0  0  0  0  0  0
    7.2682  -14.9049   26.5621 C   0  0  0  0  0  0  0  0  0  0  0  0
    6.1782  -14.0591   26.6271 C   0  0  0  0  0  0  0  0  0  0  0  0
    6.3070  -12.6914   26.6320 C   0  0  0  0  0  0  0  0  0  0  0  0
    7.5811  -12.1604   26.5691 C   0  0  0  0  0  0  0  0  0  0  0  0
    8.7051  -12.9799   26.5024 C   0  0  0  0  0  0  0  0  0  0  0  0
    8.5222  -14.3464   26.5004 C   0  0  0  0  0  0  0  0  0  0  0  0
    7.3638  -16.5443   24.1688 C   0  0  0  0  0  0  0  0  0  0  0  0
    8.2774  -17.4118   24.0842 O   0  0  0  0  0  0  0  0  0  0  0  0
    7.3001  -15.4528   23.2667 N   0  0  0  0  0  0  0  0  0  0  0  0
    8.2805  -15.4211   22.1842 C   0  0  1  0  0  0  0  0  0  0  0  0
    7.7819  -14.3240   21.2429 C   0  0  0  0  0  0  0  0  0  0  0  0
    6.2270  -14.8211   20.4931 S   0  0  0  0  0  0  0  0  0  0  0  0
    9.6105  -15.0408   22.6853 C   0  0  0  0  0  0  0  0  0  0  0  0
    9.6770  -14.1165   23.5655 O   0  0  0  0  0  0  0  0  0  0  0  0
   10.5658  -18.5715   26.3655 N   0  0  0  0  0  0  0  0  0  0  0  0
   11.8025  -17.8975   26.4366 C   0  0  0  0  0  0  0  0  0  0  0  0
   12.5000  -18.0681   27.4957 O   0  0  0  0  0  0  0  0  0  0  0  0
   12.3431  -17.0328   25.3969 C   0  0  0  0  0  0  0  0  0  0  0  0
   11.4513  -16.5740   24.3255 C   0  0  0  0  0  0  0  0  0  0  0  0
   11.9705  -15.7623   23.2077 C   0  0  2  0  0  0  0  0  0  0  0  0
   10.8181  -15.6199   22.2708 N   0  0  0  0  0  0  0  0  0  0  0  0
   13.1382  -16.3216   22.5460 C   0  0  0  0  0  0  0  0  0  0  0  0
   12.9834  -17.0362   21.5182 O   0  0  0  0  0  0  0  0  0  0  0  0
   14.4090  -16.0926   22.9975 O   0  0  0  0  0  0  0  0  0  0  0  0
  2  1  1  1
  3  2  1  0
  4  3  1  0
  5  4  2  0
  6  5  1  0
  7  6  2  0
  7  8  1  0
  8  9  2  0
  9  4  1  0
 10  2  1  0
 10 11  2  0
 12 10  1  0
 13 12  1  0
 13 14  1  6
 14 15  1  0
 16 13  1  0
 17 16  2  0
 19 18  1  0
 19 21  1  0
 20 19  2  0
 22 21  1  0
 23 22  1  1
 23 24  1  0
 24 16  1  0
 25 23  1  0
 26 25  2  0
 27 25  1  0
M  END
$$$$
