FCQ.pdb
     RDKit          3D

 27 27  0  0  1  0  0  0  0  0999 V2000
    8.4874  -15.7577   22.2362 N   0  0  0  0  0  0  0  0  0  0  0  0
    8.3748  -14.8286   23.3152 C   0  0  1  0  0  0  0  0  0  0  0  0
    6.9789  -14.7381   23.8932 C   0  0  0  0  0  0  0  0  0  0  0  0
    6.9780  -13.6176   24.8737 C   0  0  0  0  0  0  0  0  0  0  0  0
    7.6702  -12.4592   24.5789 C   0  0  0  0  0  0  0  0  0  0  0  0
    7.7112  -11.3875   25.4373 C   0  0  0  0  0  0  0  0  0  0  0  0
    7.0294  -11.4900   26.6348 C   0  0  0  0  0  0  0  0  0  0  0  0
    6.3201  -12.6411   26.9683 C   0  0  0  0  0  0  0  0  0  0  0  0
    6.3099  -13.6889   26.0724 C   0  0  0  0  0  0  0  0  0  0  0  0
    9.3059  -15.1122   24.4355 C   0  0  0  0  0  0  0  0  0  0  0  0
   10.3811  -14.4505   24.4572 O   0  0  0  0  0  0  0  0  0  0  0  0
    9.0138  -16.0739   25.4350 N   0  0  0  0  0  0  0  0  0  0  0  0
   10.0890  -16.4266   26.3589 C   0  0  1  0  0  0  0  0  0  0  0  0
    9.4425  -16.3721   27.7436 C   0  0  0  0  0  0  0  0  0  0  0  0
   10.4861  -17.2132   28.9397 S   0  0  0  0  0  0  0  0  0  0  0  0
   10.5663  -17.7972   26.1176 C   0  0  0  0  0  0  0  0  0  0  0  0
    9.7015  -18.7382   26.1002 O   0  0  0  0  0  0  0  0  0  0  0  0
   13.5160  -16.3568   22.9787 N   0  0  0  0  0  0  0  0  0  0  0  0
   13.1444  -17.6765   22.6482 C   0  0  0  0  0  0  0  0  0  0  0  0
   12.4615  -17.8399   21.5786 O   0  0  0  0  0  0  0  0  0  0  0  0
   13.4847  -18.8595   23.4266 C   0  0  0  0  0  0  0  0  0  0  0  0
   12.4097  -19.5895   24.1086 C   0  0  0  0  0  0  0  0  0  0  0  0
   12.2913  -19.5573   25.5793 C   0  0  2  0  0  0  0  0  0  0  0  0
   11.9051  -18.1525   25.9013 N   0  0  0  0  0  0  0  0  0  0  0  0
   13.4920  -19.9637   26.2914 C   0  0  0  0  0  0  0  0  0  0  0  0
   14.0823  -19.1318   27.0333 O   0  0  0  0  0  0  0  0  0  0  0  0
   14.0042  -21.2281   26.1904 O   0  0  0  0  0  0  0  0  0  0  0  0
  2  1  1  6
  3  2  1  0
  4  3  1  0
  5  4  2  0
  6  5  1  0
  7  6  2  0
  7  8  1  0
  8  9  2  0
  9  4  1  0
 10  2  1  0
 10 11  2  0
 12 10  1  0
 13 12  1  0
 13 14  1  1
 14 15  1  0
 16 13  1  0
 17 16  2  0
 19 18  1  0
 19 21  1  0
 20 19  2  0
 22 21  1  0
 23 22  1  6
 23 24  1  0
 24 16  1  0
 25 23  1  0
 26 25  2  0
 27 25  1  0
M  END
$$$$
