FCQ.pdb
     RDKit          3D

 27 27  0  0  1  0  0  0  0  0999 V2000
    7.2469  -15.6543   25.1863 N   0  0  0  0  0  0  0  0  0  0  0  0
    6.9251  -15.1924   23.8736 C   0  0  1  0  0  0  0  0  0  0  0  0
    6.9506  -13.6851   23.7388 C   0  0  0  0  0  0  0  0  0  0  0  0
    7.1462  -13.1223   25.1033 C   0  0  0  0  0  0  0  0  0  0  0  0
    6.0519  -12.6613   25.8090 C   0  0  0  0  0  0  0  0  0  0  0  0
    6.1605  -12.1304   27.0713 C   0  0  0  0  0  0  0  0  0  0  0  0
    7.4180  -12.0629   27.6399 C   0  0  0  0  0  0  0  0  0  0  0  0
    8.5457  -12.5172   26.9605 C   0  0  0  0  0  0  0  0  0  0  0  0
    8.3834  -13.0416   25.6959 C   0  0  0  0  0  0  0  0  0  0  0  0
    7.8085  -15.7512   22.8201 C   0  0  0  0  0  0  0  0  0  0  0  0
    8.0162  -16.9961   22.8595 O   0  0  0  0  0  0  0  0  0  0  0  0
    8.3942  -14.9392   21.8168 N   0  0  0  0  0  0  0  0  0  0  0  0
    8.6075  -15.5457   20.5050 C   0  0  1  0  0  0  0  0  0  0  0  0
    8.6991  -14.3615   19.5418 C   0  0  0  0  0  0  0  0  0  0  0  0
    7.1542  -13.4447   19.5509 S   0  0  0  0  0  0  0  0  0  0  0  0
    9.8796  -16.2837   20.4635 C   0  0  0  0  0  0  0  0  0  0  0  0
   10.3034  -16.6831   19.3257 O   0  0  0  0  0  0  0  0  0  0  0  0
   13.4725  -13.3926   18.9573 N   0  0  0  0  0  0  0  0  0  0  0  0
   14.3484  -13.9551   19.9088 C   0  0  0  0  0  0  0  0  0  0  0  0
   15.5859  -13.6426   19.8192 O   0  0  0  0  0  0  0  0  0  0  0  0
   13.9488  -14.8540   20.9827 C   0  0  0  0  0  0  0  0  0  0  0  0
   12.5372  -15.2399   21.0923 C   0  0  0  0  0  0  0  0  0  0  0  0
   12.1583  -16.6080   21.4957 C   0  0  2  0  0  0  0  0  0  0  0  0
   10.6690  -16.5825   21.5829 N   0  0  0  0  0  0  0  0  0  0  0  0
   12.7639  -17.0616   22.7373 C   0  0  0  0  0  0  0  0  0  0  0  0
   13.9698  -17.4316   22.7380 O   0  0  0  0  0  0  0  0  0  0  0  0
   12.0694  -17.0946   23.9154 O   0  0  0  0  0  0  0  0  0  0  0  0
  2  1  1  1
  3  2  1  0
  4  3  1  0
  5  4  2  0
  6  5  1  0
  7  6  2  0
  7  8  1  0
  8  9  2  0
  9  4  1  0
 10  2  1  0
 10 11  2  0
 12 10  1  0
 13 12  1  0
 13 14  1  6
 14 15  1  0
 16 13  1  0
 17 16  2  0
 19 18  1  0
 19 21  1  0
 20 19  2  0
 22 21  1  0
 23 22  1  1
 23 24  1  0
 24 16  1  0
 25 23  1  0
 26 25  2  0
 27 25  1  0
M  END
$$$$
