FCQ.pdb
     RDKit          3D

 27 27  0  0  1  0  0  0  0  0999 V2000
    5.9106  -17.8674   25.5945 N   0  0  0  0  0  0  0  0  0  0  0  0
    6.4144  -16.5443   25.4059 C   0  0  1  0  0  0  0  0  0  0  0  0
    7.2008  -16.0215   26.5887 C   0  0  0  0  0  0  0  0  0  0  0  0
    6.9829  -14.5498   26.6490 C   0  0  0  0  0  0  0  0  0  0  0  0
    5.6942  -14.0586   26.7262 C   0  0  0  0  0  0  0  0  0  0  0  0
    5.4214  -12.7135   26.7848 C   0  0  0  0  0  0  0  0  0  0  0  0
    6.4875  -11.8347   26.7648 C   0  0  0  0  0  0  0  0  0  0  0  0
    7.8011  -12.2908   26.6876 C   0  0  0  0  0  0  0  0  0  0  0  0
    8.0218  -13.6505   26.6310 C   0  0  0  0  0  0  0  0  0  0  0  0
    7.2716  -16.4070   24.2022 C   0  0  0  0  0  0  0  0  0  0  0  0
    8.1594  -17.2898   24.0379 O   0  0  0  0  0  0  0  0  0  0  0  0
    7.1111  -15.3442   23.2782 N   0  0  0  0  0  0  0  0  0  0  0  0
    7.9925  -15.3315   22.1132 C   0  0  1  0  0  0  0  0  0  0  0  0
    7.6015  -14.0676   21.3463 C   0  0  0  0  0  0  0  0  0  0  0  0
    8.5454  -13.9606   19.8216 S   0  0  0  0  0  0  0  0  0  0  0  0
    9.4026  -15.2176   22.5173 C   0  0  0  0  0  0  0  0  0  0  0  0
    9.6609  -14.6679   23.6419 O   0  0  0  0  0  0  0  0  0  0  0  0
   11.1870  -17.4084   26.2817 N   0  0  0  0  0  0  0  0  0  0  0  0
   12.2064  -18.0251   25.5272 C   0  0  0  0  0  0  0  0  0  0  0  0
   13.1247  -18.6356   26.1762 O   0  0  0  0  0  0  0  0  0  0  0  0
   12.2861  -18.0235   24.0730 C   0  0  0  0  0  0  0  0  0  0  0  0
   11.3061  -17.2389   23.3128 C   0  0  0  0  0  0  0  0  0  0  0  0
   11.7431  -16.1528   22.4143 C   0  0  2  0  0  0  0  0  0  0  0  0
   10.4918  -15.6710   21.7599 N   0  0  0  0  0  0  0  0  0  0  0  0
   12.7470  -16.5434   21.4377 C   0  0  0  0  0  0  0  0  0  0  0  0
   12.3818  -17.0826   20.3575 O   0  0  0  0  0  0  0  0  0  0  0  0
   14.0833  -16.3388   21.6470 O   0  0  0  0  0  0  0  0  0  0  0  0
  2  1  1  1
  3  2  1  0
  4  3  1  0
  5  4  2  0
  6  5  1  0
  7  6  2  0
  7  8  1  0
  8  9  2  0
  9  4  1  0
 10  2  1  0
 10 11  2  0
 12 10  1  0
 13 12  1  0
 13 14  1  6
 14 15  1  0
 16 13  1  0
 17 16  2  0
 19 18  1  0
 19 21  1  0
 20 19  2  0
 22 21  1  0
 23 22  1  1
 23 24  1  0
 24 16  1  0
 25 23  1  0
 26 25  2  0
 27 25  1  0
M  END
$$$$
