AYK.pdb
     RDKit          3D

 27 27  0  0  1  0  0  0  0  0999 V2000
   21.6399  -10.0477  -18.3934 C   0  0  0  0  0  0  0  0  0  0  0  0
   22.4927   -9.9293  -17.1478 C   0  0  2  0  0  0  0  0  0  0  0  0
   23.1082  -11.1816  -16.8127 N   0  0  0  0  0  0  0  0  0  0  0  0
   21.5780   -9.4630  -16.0490 C   0  0  0  0  0  0  0  0  0  0  0  0
   20.5910  -10.1550  -15.7862 O   0  0  0  0  0  0  0  0  0  0  0  0
   18.6074   -4.6310   -9.1084 O   0  0  0  0  0  0  0  0  0  0  0  0
   19.3712   -5.2381  -10.1120 C   0  0  0  0  0  0  0  0  0  0  0  0
   19.8562   -4.5269  -11.1874 C   0  0  0  0  0  0  0  0  0  0  0  0
   20.6060   -5.1403  -12.1656 C   0  0  0  0  0  0  0  0  0  0  0  0
   20.9094   -6.5078  -12.1142 C   0  0  0  0  0  0  0  0  0  0  0  0
   21.6704   -7.1530  -13.1931 C   0  0  0  0  0  0  0  0  0  0  0  0
   20.9178   -7.7210  -14.3194 C   0  0  2  0  0  0  0  0  0  0  0  0
   21.8458   -8.2650  -15.3401 N   0  0  0  0  0  0  0  0  0  0  0  0
   19.8457   -6.9699  -14.9605 C   0  0  0  0  0  0  0  0  0  0  0  0
   20.1383   -6.1799  -15.9470 O   0  0  0  0  0  0  0  0  0  0  0  0
   20.4123   -7.1995  -11.0270 C   0  0  0  0  0  0  0  0  0  0  0  0
   19.6645   -6.5838  -10.0530 C   0  0  0  0  0  0  0  0  0  0  0  0
   18.4699   -6.9835  -14.6546 N   0  0  0  0  0  0  0  0  0  0  0  0
   17.4957   -6.1193  -15.4029 C   0  0  1  0  0  0  0  0  0  0  0  0
   16.2696   -6.9087  -15.5352 C   0  0  0  0  0  0  0  0  0  0  0  0
   15.0896   -6.5867  -16.2956 C   0  0  0  0  0  0  0  0  0  0  0  0
   13.9739   -7.5683  -16.3549 C   0  0  0  0  0  0  0  0  0  0  0  0
   12.8171   -7.0782  -17.2225 C   0  0  0  0  0  0  0  0  0  0  0  0
   11.7102   -8.0030  -17.1868 N   0  0  0  0  0  0  0  0  0  0  0  0
   17.4982   -4.8417  -14.7068 C   0  0  0  0  0  0  0  0  0  0  0  0
   17.5345   -3.7290  -15.3393 O   0  0  0  0  0  0  0  0  0  0  0  0
   17.4556   -4.6663  -13.3446 O   0  0  0  0  0  0  0  0  0  0  0  0
  2  1  1  6
  2  3  1  0
  4  5  2  0
  4  2  1  0
  7  6  1  0
  8  7  2  0
  9  8  1  0
 10  9  2  0
 10 16  1  0
 12 11  1  1
 11 10  1  0
 12 13  1  0
 13  4  1  0
 14 15  2  0
 14 12  1  0
 16 17  2  0
 17  7  1  0
 18 14  1  0
 19 18  1  0
 19 20  1  1
 21 22  1  0
 21 20  1  0
 22 23  1  0
 23 24  1  0
 25 19  1  0
 26 25  2  0
 27 25  1  0
M  END
$$$$
