AYK.pdb
     RDKit          3D

 27 27  0  0  1  0  0  0  0  0999 V2000
   28.5740  -19.3826  -16.7507 C   0  0  0  0  0  0  0  0  0  0  0  0
   27.1007  -19.0331  -16.7489 C   0  0  2  0  0  0  0  0  0  0  0  0
   26.8973  -17.6201  -16.6021 N   0  0  0  0  0  0  0  0  0  0  0  0
   26.4852  -19.7916  -15.6056 C   0  0  0  0  0  0  0  0  0  0  0  0
   26.5777  -21.0219  -15.6120 O   0  0  0  0  0  0  0  0  0  0  0  0
   30.8986  -21.8058  -10.9319 O   0  0  0  0  0  0  0  0  0  0  0  0
   29.6622  -21.2315  -11.2496 C   0  0  0  0  0  0  0  0  0  0  0  0
   29.5536  -20.1840  -12.1375 C   0  0  0  0  0  0  0  0  0  0  0  0
   28.3293  -19.6311  -12.4385 C   0  0  0  0  0  0  0  0  0  0  0  0
   27.1435  -20.1044  -11.8601 C   0  0  0  0  0  0  0  0  0  0  0  0
   25.8525  -19.4691  -12.1582 C   0  0  0  0  0  0  0  0  0  0  0  0
   25.1881  -19.8232  -13.4196 C   0  0  2  0  0  0  0  0  0  0  0  0
   25.8204  -19.1099  -14.5555 N   0  0  0  0  0  0  0  0  0  0  0  0
   23.7363  -19.7798  -13.5410 C   0  0  0  0  0  0  0  0  0  0  0  0
   23.1539  -18.6288  -13.6778 O   0  0  0  0  0  0  0  0  0  0  0  0
   27.2777  -21.1549  -10.9734 C   0  0  0  0  0  0  0  0  0  0  0  0
   28.5012  -21.7038  -10.6756 C   0  0  0  0  0  0  0  0  0  0  0  0
   22.8301  -20.8593  -13.5389 N   0  0  0  0  0  0  0  0  0  0  0  0
   21.3536  -20.6389  -13.7040 C   0  0  1  0  0  0  0  0  0  0  0  0
   20.9345  -21.5013  -14.8106 C   0  0  0  0  0  0  0  0  0  0  0  0
   19.6776  -21.4882  -15.5134 C   0  0  0  0  0  0  0  0  0  0  0  0
   19.4206  -22.5125  -16.5607 C   0  0  0  0  0  0  0  0  0  0  0  0
   18.0996  -22.2772  -17.2890 C   0  0  0  0  0  0  0  0  0  0  0  0
   17.9297  -23.2109  -18.3758 N   0  0  0  0  0  0  0  0  0  0  0  0
   20.7882  -20.7932  -12.3723 C   0  0  0  0  0  0  0  0  0  0  0  0
   21.3855  -21.4639  -11.4596 O   0  0  0  0  0  0  0  0  0  0  0  0
   19.6003  -20.2592  -11.9345 O   0  0  0  0  0  0  0  0  0  0  0  0
  2  1  1  1
  2  3  1  0
  4  5  2  0
  4  2  1  0
  7  6  1  0
  8  7  2  0
  9  8  1  0
 10  9  2  0
 10 16  1  0
 12 11  1  1
 11 10  1  0
 12 13  1  0
 13  4  1  0
 14 15  2  0
 14 12  1  0
 16 17  2  0
 17  7  1  0
 18 14  1  0
 19 18  1  0
 19 20  1  6
 21 22  1  0
 21 20  1  0
 22 23  1  0
 23 24  1  0
 25 19  1  0
 26 25  2  0
 27 25  1  0
M  END
$$$$
