AYK.pdb
     RDKit          3D

 27 27  0  0  1  0  0  0  0  0999 V2000
   24.9143  -14.8999  -20.1472 C   0  0  0  0  0  0  0  0  0  0  0  0
   23.8470  -15.9675  -20.2653 C   0  0  2  0  0  0  0  0  0  0  0  0
   22.6642  -15.4586  -20.8989 N   0  0  0  0  0  0  0  0  0  0  0  0
   23.5551  -16.4337  -18.8658 C   0  0  0  0  0  0  0  0  0  0  0  0
   24.4845  -16.4439  -18.0544 O   0  0  0  0  0  0  0  0  0  0  0  0
   15.8852  -15.6886  -19.2139 O   0  0  0  0  0  0  0  0  0  0  0  0
   17.1197  -15.8325  -18.5701 C   0  0  0  0  0  0  0  0  0  0  0  0
   17.3633  -16.8602  -17.6857 C   0  0  0  0  0  0  0  0  0  0  0  0
   18.5837  -16.9866  -17.0613 C   0  0  0  0  0  0  0  0  0  0  0  0
   19.6290  -16.0822  -17.2941 C   0  0  0  0  0  0  0  0  0  0  0  0
   20.9078  -16.2071  -16.5810 C   0  0  0  0  0  0  0  0  0  0  0  0
   21.8884  -17.1728  -17.0943 C   0  0  2  0  0  0  0  0  0  0  0  0
   22.2510  -16.8474  -18.4949 N   0  0  0  0  0  0  0  0  0  0  0  0
   21.6767  -18.6073  -16.9475 C   0  0  0  0  0  0  0  0  0  0  0  0
   21.0467  -19.2460  -17.8846 O   0  0  0  0  0  0  0  0  0  0  0  0
   19.3610  -15.0606  -18.1842 C   0  0  0  0  0  0  0  0  0  0  0  0
   18.1419  -14.9379  -18.8053 C   0  0  0  0  0  0  0  0  0  0  0  0
   22.0830  -19.4433  -15.8879 N   0  0  0  0  0  0  0  0  0  0  0  0
   21.7788  -20.9141  -15.8937 C   0  0  1  0  0  0  0  0  0  0  0  0
   23.0736  -21.5976  -15.8742 C   0  0  0  0  0  0  0  0  0  0  0  0
   23.3534  -22.9691  -16.2130 C   0  0  0  0  0  0  0  0  0  0  0  0
   24.6993  -23.5296  -15.9186 C   0  0  0  0  0  0  0  0  0  0  0  0
   24.8422  -24.9731  -16.3949 C   0  0  0  0  0  0  0  0  0  0  0  0
   26.1796  -25.4660  -16.1713 N   0  0  0  0  0  0  0  0  0  0  0  0
   20.8059  -21.1119  -14.8302 C   0  0  0  0  0  0  0  0  0  0  0  0
   20.6492  -20.2553  -13.8915 O   0  0  0  0  0  0  0  0  0  0  0  0
   19.9605  -22.1875  -14.7014 O   0  0  0  0  0  0  0  0  0  0  0  0
  2  1  1  1
  2  3  1  0
  4  5  2  0
  4  2  1  0
  7  6  1  0
  8  7  2  0
  9  8  1  0
 10  9  2  0
 10 16  1  0
 12 11  1  6
 11 10  1  0
 12 13  1  0
 13  4  1  0
 14 15  2  0
 14 12  1  0
 16 17  2  0
 17  7  1  0
 18 14  1  0
 19 18  1  0
 19 20  1  1
 21 22  1  0
 21 20  1  0
 22 23  1  0
 23 24  1  0
 25 19  1  0
 26 25  2  0
 27 25  1  0
M  END
$$$$
