AYK.pdb
     RDKit          3D

 27 27  0  0  1  0  0  0  0  0999 V2000
   26.7356  -22.1211  -18.7877 C   0  0  0  0  0  0  0  0  0  0  0  0
   27.6194  -22.3586  -17.5813 C   0  0  2  0  0  0  0  0  0  0  0  0
   28.4003  -23.5533  -17.7305 N   0  0  0  0  0  0  0  0  0  0  0  0
   26.7015  -22.4551  -16.3941 C   0  0  0  0  0  0  0  0  0  0  0  0
   26.1567  -23.5395  -16.1716 O   0  0  0  0  0  0  0  0  0  0  0  0
   23.6076  -20.5192   -8.2342 O   0  0  0  0  0  0  0  0  0  0  0  0
   24.2521  -20.5055   -9.4766 C   0  0  0  0  0  0  0  0  0  0  0  0
   23.7315  -19.8301  -10.5585 C   0  0  0  0  0  0  0  0  0  0  0  0
   24.3789  -19.8272  -11.7735 C   0  0  0  0  0  0  0  0  0  0  0  0
   25.5898  -20.5063  -11.9661 C   0  0  0  0  0  0  0  0  0  0  0  0
   26.2402  -20.5306  -13.2836 C   0  0  0  0  0  0  0  0  0  0  0  0
   25.6792  -21.4195  -14.3098 C   0  0  2  0  0  0  0  0  0  0  0  0
   26.4724  -21.3324  -15.5597 N   0  0  0  0  0  0  0  0  0  0  0  0
   24.2539  -21.4086  -14.6142 C   0  0  0  0  0  0  0  0  0  0  0  0
   23.8131  -20.5882  -15.5173 O   0  0  0  0  0  0  0  0  0  0  0  0
   26.0919  -21.1759  -10.8673 C   0  0  0  0  0  0  0  0  0  0  0  0
   25.4428  -21.1765   -9.6566 C   0  0  0  0  0  0  0  0  0  0  0  0
   23.2369  -22.2035  -14.0482 N   0  0  0  0  0  0  0  0  0  0  0  0
   21.7941  -22.0015  -14.4138 C   0  0  1  0  0  0  0  0  0  0  0  0
   21.1115  -23.2542  -14.0842 C   0  0  0  0  0  0  0  0  0  0  0  0
   19.7633  -23.6387  -14.4142 C   0  0  0  0  0  0  0  0  0  0  0  0
   19.2897  -25.0029  -14.0585 C   0  0  0  0  0  0  0  0  0  0  0  0
   17.8335  -25.2322  -14.4559 C   0  0  0  0  0  0  0  0  0  0  0  0
   17.4085  -26.5717  -14.1292 N   0  0  0  0  0  0  0  0  0  0  0  0
   21.4088  -20.7458  -13.7880 C   0  0  0  0  0  0  0  0  0  0  0  0
   21.0003  -19.7465  -14.4765 O   0  0  0  0  0  0  0  0  0  0  0  0
   21.4227  -20.4798  -12.4400 O   0  0  0  0  0  0  0  0  0  0  0  0
  2  1  1  6
  2  3  1  0
  4  5  2  0
  4  2  1  0
  7  6  1  0
  8  7  2  0
  9  8  1  0
 10  9  2  0
 10 16  1  0
 12 11  1  1
 11 10  1  0
 12 13  1  0
 13  4  1  0
 14 15  2  0
 14 12  1  0
 16 17  2  0
 17  7  1  0
 18 14  1  0
 19 18  1  0
 19 20  1  1
 21 22  1  0
 21 20  1  0
 22 23  1  0
 23 24  1  0
 25 19  1  0
 26 25  2  0
 27 25  1  0
M  END
$$$$
