AYK.pdb
     RDKit          3D

 27 27  0  0  1  0  0  0  0  0999 V2000
   19.8617  -12.5189  -16.6479 C   0  0  0  0  0  0  0  0  0  0  0  0
   19.3990  -11.0993  -16.8998 C   0  0  2  0  0  0  0  0  0  0  0  0
   19.3732  -10.7973  -18.3025 N   0  0  0  0  0  0  0  0  0  0  0  0
   20.3604  -10.2028  -16.1694 C   0  0  0  0  0  0  0  0  0  0  0  0
   20.4091  -10.2879  -14.9395 O   0  0  0  0  0  0  0  0  0  0  0  0
   25.4981  -14.1261  -16.6634 O   0  0  0  0  0  0  0  0  0  0  0  0
   25.0052  -12.8164  -16.6986 C   0  0  0  0  0  0  0  0  0  0  0  0
   24.4177  -12.2906  -17.8281 C   0  0  0  0  0  0  0  0  0  0  0  0
   23.9382  -11.0002  -17.8450 C   0  0  0  0  0  0  0  0  0  0  0  0
   24.0244  -10.1661  -16.7219 C   0  0  0  0  0  0  0  0  0  0  0  0
   23.5500   -8.7763  -16.7758 C   0  0  0  0  0  0  0  0  0  0  0  0
   22.2287   -8.4794  -16.2069 C   0  0  2  0  0  0  0  0  0  0  0  0
   21.1829   -9.2902  -16.8763 N   0  0  0  0  0  0  0  0  0  0  0  0
   21.7740   -7.1044  -16.0428 C   0  0  0  0  0  0  0  0  0  0  0  0
   21.0744   -6.5594  -16.9897 O   0  0  0  0  0  0  0  0  0  0  0  0
   24.6173  -10.7153  -15.6018 C   0  0  0  0  0  0  0  0  0  0  0  0
   25.0945  -12.0033  -15.5889 C   0  0  0  0  0  0  0  0  0  0  0  0
   21.9878   -6.2416  -14.9490 N   0  0  0  0  0  0  0  0  0  0  0  0
   21.3098   -4.9039  -14.8662 C   0  0  1  0  0  0  0  0  0  0  0  0
   19.8710   -5.1758  -14.8741 C   0  0  0  0  0  0  0  0  0  0  0  0
   18.7950   -4.2440  -14.6549 C   0  0  0  0  0  0  0  0  0  0  0  0
   17.3963   -4.7476  -14.6100 C   0  0  0  0  0  0  0  0  0  0  0  0
   16.3887   -3.6346  -14.3328 C   0  0  0  0  0  0  0  0  0  0  0  0
   15.0711   -4.1716  -14.0935 N   0  0  0  0  0  0  0  0  0  0  0  0
   21.9413   -4.2187  -13.7489 C   0  0  0  0  0  0  0  0  0  0  0  0
   22.6805   -4.8397  -12.9077 O   0  0  0  0  0  0  0  0  0  0  0  0
   21.8412   -2.8780  -13.4654 O   0  0  0  0  0  0  0  0  0  0  0  0
  2  1  1  6
  2  3  1  0
  4  5  2  0
  4  2  1  0
  7  6  1  0
  8  7  2  0
  9  8  1  0
 10  9  2  0
 10 16  1  0
 12 11  1  6
 11 10  1  0
 12 13  1  0
 13  4  1  0
 14 15  2  0
 14 12  1  0
 16 17  2  0
 17  7  1  0
 18 14  1  0
 19 18  1  0
 19 20  1  1
 21 22  1  0
 21 20  1  0
 22 23  1  0
 23 24  1  0
 25 19  1  0
 26 25  2  0
 27 25  1  0
M  END
$$$$
