AYK.pdb
     RDKit          3D

 27 27  0  0  1  0  0  0  0  0999 V2000
   14.1108  -11.8124  -15.3731 C   0  0  0  0  0  0  0  0  0  0  0  0
   15.5715  -12.0008  -15.7248 C   0  0  2  0  0  0  0  0  0  0  0  0
   15.9887  -13.3588  -15.5218 N   0  0  0  0  0  0  0  0  0  0  0  0
   16.3456  -11.0581  -14.8454 C   0  0  0  0  0  0  0  0  0  0  0  0
   16.1141  -11.0765  -13.6337 O   0  0  0  0  0  0  0  0  0  0  0  0
   22.5160   -4.5432  -13.4688 O   0  0  0  0  0  0  0  0  0  0  0  0
   21.7532   -5.6518  -13.8541 C   0  0  0  0  0  0  0  0  0  0  0  0
   21.7672   -6.8285  -13.1380 C   0  0  0  0  0  0  0  0  0  0  0  0
   21.0105   -7.9092  -13.5314 C   0  0  0  0  0  0  0  0  0  0  0  0
   20.1957   -7.8640  -14.6711 C   0  0  0  0  0  0  0  0  0  0  0  0
   19.4331   -9.0443  -15.1008 C   0  0  0  0  0  0  0  0  0  0  0  0
   18.0762   -9.2172  -14.5653 C   0  0  2  0  0  0  0  0  0  0  0  0
   17.3104  -10.1776  -15.3961 N   0  0  0  0  0  0  0  0  0  0  0  0
   17.2482   -8.0648  -14.2326 C   0  0  0  0  0  0  0  0  0  0  0  0
   16.4392   -7.5951  -15.1314 O   0  0  0  0  0  0  0  0  0  0  0  0
   20.1983   -6.6741  -15.3724 C   0  0  0  0  0  0  0  0  0  0  0  0
   20.9547   -5.5980  -14.9766 C   0  0  0  0  0  0  0  0  0  0  0  0
   17.1904   -7.3569  -13.0152 N   0  0  0  0  0  0  0  0  0  0  0  0
   16.2943   -6.1631  -12.8485 C   0  0  1  0  0  0  0  0  0  0  0  0
   15.8133   -6.2051  -11.4662 C   0  0  0  0  0  0  0  0  0  0  0  0
   14.9565   -5.2584  -10.8000 C   0  0  0  0  0  0  0  0  0  0  0  0
   14.6223   -5.4656   -9.3657 C   0  0  0  0  0  0  0  0  0  0  0  0
   13.7949   -4.3178   -8.7922 C   0  0  0  0  0  0  0  0  0  0  0  0
   13.4868   -4.5414   -7.4005 N   0  0  0  0  0  0  0  0  0  0  0  0
   17.0615   -5.0312  -13.3456 C   0  0  0  0  0  0  0  0  0  0  0  0
   18.3342   -4.9713  -13.2189 O   0  0  0  0  0  0  0  0  0  0  0  0
   16.5494   -3.9329  -13.9933 O   0  0  0  0  0  0  0  0  0  0  0  0
  2  1  1  1
  2  3  1  0
  4  5  2  0
  4  2  1  0
  7  6  1  0
  8  7  2  0
  9  8  1  0
 10  9  2  0
 10 16  1  0
 12 11  1  6
 11 10  1  0
 12 13  1  0
 13  4  1  0
 14 15  2  0
 14 12  1  0
 16 17  2  0
 17  7  1  0
 18 14  1  0
 19 18  1  0
 19 20  1  1
 21 22  1  0
 21 20  1  0
 22 23  1  0
 23 24  1  0
 25 19  1  0
 26 25  2  0
 27 25  1  0
M  END
$$$$
