AYK.pdb
     RDKit          3D

 27 27  0  0  1  0  0  0  0  0999 V2000
   27.5370  -22.9990  -16.2978 C   0  0  0  0  0  0  0  0  0  0  0  0
   27.0848  -21.6429  -15.7986 C   0  0  2  0  0  0  0  0  0  0  0  0
   28.1423  -20.6760  -15.8769 N   0  0  0  0  0  0  0  0  0  0  0  0
   26.6351  -21.8413  -14.3774 C   0  0  0  0  0  0  0  0  0  0  0  0
   25.6754  -22.5895  -14.1741 O   0  0  0  0  0  0  0  0  0  0  0  0
   26.4945  -19.6651   -5.6019 O   0  0  0  0  0  0  0  0  0  0  0  0
   26.8516  -19.9928   -6.9151 C   0  0  0  0  0  0  0  0  0  0  0  0
   28.0652  -19.6241   -7.4523 C   0  0  0  0  0  0  0  0  0  0  0  0
   28.4000  -19.9550   -8.7460 C   0  0  0  0  0  0  0  0  0  0  0  0
   27.5282  -20.6775   -9.5721 C   0  0  0  0  0  0  0  0  0  0  0  0
   27.8851  -20.9789  -10.9654 C   0  0  0  0  0  0  0  0  0  0  0  0
   26.7929  -21.2338  -11.9140 C   0  0  2  0  0  0  0  0  0  0  0  0
   27.2966  -21.1870  -13.3080 N   0  0  0  0  0  0  0  0  0  0  0  0
   25.5267  -20.5196  -11.8102 C   0  0  0  0  0  0  0  0  0  0  0  0
   25.5031  -19.2475  -12.0636 O   0  0  0  0  0  0  0  0  0  0  0  0
   26.3178  -21.0358   -9.0116 C   0  0  0  0  0  0  0  0  0  0  0  0
   25.9875  -20.7037   -7.7203 C   0  0  0  0  0  0  0  0  0  0  0  0
   24.2615  -21.0363  -11.4651 N   0  0  0  0  0  0  0  0  0  0  0  0
   23.0143  -20.2137  -11.6188 C   0  0  1  0  0  0  0  0  0  0  0  0
   22.5557  -20.4229  -12.9936 C   0  0  0  0  0  0  0  0  0  0  0  0
   21.4253  -19.8177  -13.6493 C   0  0  0  0  0  0  0  0  0  0  0  0
   21.1174  -20.1892  -15.0561 C   0  0  0  0  0  0  0  0  0  0  0  0
   19.8543  -19.5045  -15.5726 C   0  0  0  0  0  0  0  0  0  0  0  0
   19.6081  -19.8384  -16.9545 N   0  0  0  0  0  0  0  0  0  0  0  0
   22.1762  -20.5660  -10.4829 C   0  0  0  0  0  0  0  0  0  0  0  0
   22.4159  -21.5966   -9.7618 O   0  0  0  0  0  0  0  0  0  0  0  0
   21.0746  -19.8696  -10.0477 O   0  0  0  0  0  0  0  0  0  0  0  0
  2  1  1  1
  2  3  1  0
  4  5  2  0
  4  2  1  0
  7  6  1  0
  8  7  2  0
  9  8  1  0
 10  9  2  0
 10 16  1  0
 12 11  1  1
 11 10  1  0
 12 13  1  0
 13  4  1  0
 14 15  2  0
 14 12  1  0
 16 17  2  0
 17  7  1  0
 18 14  1  0
 19 18  1  0
 19 20  1  6
 21 22  1  0
 21 20  1  0
 22 23  1  0
 23 24  1  0
 25 19  1  0
 26 25  2  0
 27 25  1  0
M  END
$$$$
