AYK.pdb
     RDKit          3D

 27 27  0  0  1  0  0  0  0  0999 V2000
   27.2202  -21.2007  -18.3024 C   0  0  0  0  0  0  0  0  0  0  0  0
   28.1841  -21.2741  -17.1370 C   0  0  2  0  0  0  0  0  0  0  0  0
   29.2473  -22.2033  -17.3936 N   0  0  0  0  0  0  0  0  0  0  0  0
   27.3743  -21.6929  -15.9411 C   0  0  0  0  0  0  0  0  0  0  0  0
   27.1513  -22.8965  -15.7870 O   0  0  0  0  0  0  0  0  0  0  0  0
   23.7884  -20.7801   -7.7030 O   0  0  0  0  0  0  0  0  0  0  0  0
   24.4599  -20.6582   -8.9251 C   0  0  0  0  0  0  0  0  0  0  0  0
   25.7991  -20.9547   -9.0518 C   0  0  0  0  0  0  0  0  0  0  0  0
   26.4437  -20.8291  -10.2618 C   0  0  0  0  0  0  0  0  0  0  0  0
   25.7729  -20.3967  -11.4140 C   0  0  0  0  0  0  0  0  0  0  0  0
   26.4903  -20.2234  -12.6847 C   0  0  0  0  0  0  0  0  0  0  0  0
   26.1329  -21.1088  -13.8010 C   0  0  2  0  0  0  0  0  0  0  0  0
   26.8847  -20.7310  -15.0222 N   0  0  0  0  0  0  0  0  0  0  0  0
   24.7385  -21.3774  -14.1291 C   0  0  0  0  0  0  0  0  0  0  0  0
   24.1602  -20.6578  -15.0406 O   0  0  0  0  0  0  0  0  0  0  0  0
   24.4313  -20.1054  -11.2621 C   0  0  0  0  0  0  0  0  0  0  0  0
   23.7917  -20.2320  -10.0531 C   0  0  0  0  0  0  0  0  0  0  0  0
   23.8881  -22.3576  -13.5789 N   0  0  0  0  0  0  0  0  0  0  0  0
   22.4721  -22.5175  -14.0535 C   0  0  1  0  0  0  0  0  0  0  0  0
   22.1746  -23.9488  -13.9717 C   0  0  0  0  0  0  0  0  0  0  0  0
   21.0854  -24.6612  -14.5885 C   0  0  0  0  0  0  0  0  0  0  0  0
   21.2256  -25.1260  -15.9943 C   0  0  0  0  0  0  0  0  0  0  0  0
   19.9519  -25.7875  -16.5151 C   0  0  0  0  0  0  0  0  0  0  0  0
   20.0411  -26.0477  -17.9315 N   0  0  0  0  0  0  0  0  0  0  0  0
   21.6990  -21.5426  -13.2994 C   0  0  0  0  0  0  0  0  0  0  0  0
   20.8330  -20.7865  -13.8632 O   0  0  0  0  0  0  0  0  0  0  0  0
   21.7843  -21.3193  -11.9463 O   0  0  0  0  0  0  0  0  0  0  0  0
  2  1  1  6
  2  3  1  0
  4  5  2  0
  4  2  1  0
  7  6  1  0
  8  7  2  0
  9  8  1  0
 10  9  2  0
 10 16  1  0
 12 11  1  1
 11 10  1  0
 12 13  1  0
 13  4  1  0
 14 15  2  0
 14 12  1  0
 16 17  2  0
 17  7  1  0
 18 14  1  0
 19 18  1  0
 19 20  1  1
 21 22  1  0
 21 20  1  0
 22 23  1  0
 23 24  1  0
 25 19  1  0
 26 25  2  0
 27 25  1  0
M  END
$$$$
