AYK.pdb
     RDKit          3D

 27 27  0  0  1  0  0  0  0  0999 V2000
   14.2601  -19.2957    3.8523 C   0  0  0  0  0  0  0  0  0  0  0  0
   15.1547  -18.6972    2.7873 C   0  0  2  0  0  0  0  0  0  0  0  0
   15.7114  -19.7122    1.9391 N   0  0  0  0  0  0  0  0  0  0  0  0
   16.2351  -17.9443    3.5135 C   0  0  0  0  0  0  0  0  0  0  0  0
   17.2710  -18.5511    3.7980 O   0  0  0  0  0  0  0  0  0  0  0  0
   20.3937  -10.7344    7.0586 O   0  0  0  0  0  0  0  0  0  0  0  0
   19.5766  -11.6435    6.3764 C   0  0  0  0  0  0  0  0  0  0  0  0
   19.9265  -12.1543    5.1459 C   0  0  0  0  0  0  0  0  0  0  0  0
   19.1107  -13.0477    4.4890 C   0  0  0  0  0  0  0  0  0  0  0  0
   17.8941  -13.4770    5.0369 C   0  0  0  0  0  0  0  0  0  0  0  0
   17.0153  -14.3940    4.2979 C   0  0  0  0  0  0  0  0  0  0  0  0
   17.0766  -15.8229    4.6330 C   0  0  2  0  0  0  0  0  0  0  0  0
   16.0641  -16.5801    3.8581 N   0  0  0  0  0  0  0  0  0  0  0  0
   17.0877  -16.2684    6.0206 C   0  0  0  0  0  0  0  0  0  0  0  0
   15.9578  -16.5221    6.6055 O   0  0  0  0  0  0  0  0  0  0  0  0
   17.5649  -12.9512    6.2710 C   0  0  0  0  0  0  0  0  0  0  0  0
   18.3817  -12.0599    6.9233 C   0  0  0  0  0  0  0  0  0  0  0  0
   18.2016  -16.4812    6.8576 N   0  0  0  0  0  0  0  0  0  0  0  0
   18.0318  -16.8629    8.3004 C   0  0  1  0  0  0  0  0  0  0  0  0
   18.1300  -18.3231    8.3494 C   0  0  0  0  0  0  0  0  0  0  0  0
   17.9510  -19.1825    9.4911 C   0  0  0  0  0  0  0  0  0  0  0  0
   18.1590  -20.6470    9.3371 C   0  0  0  0  0  0  0  0  0  0  0  0
   17.9558  -21.4018   10.6486 C   0  0  0  0  0  0  0  0  0  0  0  0
   18.1713  -22.8177   10.4742 N   0  0  0  0  0  0  0  0  0  0  0  0
   18.9623  -16.0198    9.0354 C   0  0  0  0  0  0  0  0  0  0  0  0
   19.0339  -16.0493   10.3135 O   0  0  0  0  0  0  0  0  0  0  0  0
   19.8510  -15.1291    8.4835 O   0  0  0  0  0  0  0  0  0  0  0  0
  2  1  1  1
  2  3  1  0
  4  5  2  0
  4  2  1  0
  7  6  1  0
  8  7  2  0
  9  8  1  0
 10  9  2  0
 10 16  1  0
 12 11  1  1
 11 10  1  0
 12 13  1  0
 13  4  1  0
 14 15  2  0
 14 12  1  0
 16 17  2  0
 17  7  1  0
 18 14  1  0
 19 18  1  0
 19 20  1  6
 21 22  1  0
 21 20  1  0
 22 23  1  0
 23 24  1  0
 25 19  1  0
 26 25  2  0
 27 25  1  0
M  END
$$$$
