AYK.pdb
     RDKit          3D

 27 27  0  0  1  0  0  0  0  0999 V2000
   23.7157  -14.8306  -17.2876 C   0  0  0  0  0  0  0  0  0  0  0  0
   23.4172  -13.4267  -17.7703 C   0  0  2  0  0  0  0  0  0  0  0  0
   24.4289  -12.9565  -18.6730 N   0  0  0  0  0  0  0  0  0  0  0  0
   23.3414  -12.5620  -16.5423 C   0  0  0  0  0  0  0  0  0  0  0  0
   22.5154  -12.8603  -15.6757 O   0  0  0  0  0  0  0  0  0  0  0  0
   29.7880   -9.7366  -18.1864 O   0  0  0  0  0  0  0  0  0  0  0  0
   28.6989   -9.8366  -17.3128 C   0  0  0  0  0  0  0  0  0  0  0  0
   28.6008  -10.8508  -16.3859 C   0  0  0  0  0  0  0  0  0  0  0  0
   27.5224  -10.9338  -15.5342 C   0  0  0  0  0  0  0  0  0  0  0  0
   26.4803   -9.9971  -15.5695 C   0  0  0  0  0  0  0  0  0  0  0  0
   25.3148  -10.1310  -14.6846 C   0  0  0  0  0  0  0  0  0  0  0  0
   24.0195  -10.4511  -15.2989 C   0  0  2  0  0  0  0  0  0  0  0  0
   24.1945  -11.4403  -16.3897 N   0  0  0  0  0  0  0  0  0  0  0  0
   23.1056   -9.3953  -15.7163 C   0  0  0  0  0  0  0  0  0  0  0  0
   23.1540   -8.9740  -16.9423 O   0  0  0  0  0  0  0  0  0  0  0  0
   26.6008   -8.9899  -16.5070 C   0  0  0  0  0  0  0  0  0  0  0  0
   27.6785   -8.9105  -17.3550 C   0  0  0  0  0  0  0  0  0  0  0  0
   22.1242   -8.7388  -14.9464 N   0  0  0  0  0  0  0  0  0  0  0  0
   21.2229   -7.7010  -15.5516 C   0  0  1  0  0  0  0  0  0  0  0  0
   20.0952   -8.4310  -16.1342 C   0  0  0  0  0  0  0  0  0  0  0  0
   18.9476   -7.8875  -16.8136 C   0  0  0  0  0  0  0  0  0  0  0  0
   17.8789   -8.8086  -17.2843 C   0  0  0  0  0  0  0  0  0  0  0  0
   16.7711   -8.0743  -18.0357 C   0  0  0  0  0  0  0  0  0  0  0  0
   15.9257   -8.9984  -18.7520 N   0  0  0  0  0  0  0  0  0  0  0  0
   21.0197   -6.7087  -14.5071 C   0  0  0  0  0  0  0  0  0  0  0  0
   20.4104   -5.6056  -14.7341 O   0  0  0  0  0  0  0  0  0  0  0  0
   21.4269   -6.8204  -13.1996 O   0  0  0  0  0  0  0  0  0  0  0  0
  2  1  1  1
  2  3  1  0
  4  5  2  0
  4  2  1  0
  7  6  1  0
  8  7  2  0
  9  8  1  0
 10  9  2  0
 10 16  1  0
 12 11  1  6
 11 10  1  0
 12 13  1  0
 13  4  1  0
 14 15  2  0
 14 12  1  0
 16 17  2  0
 17  7  1  0
 18 14  1  0
 19 18  1  0
 19 20  1  1
 21 22  1  0
 21 20  1  0
 22 23  1  0
 23 24  1  0
 25 19  1  0
 26 25  2  0
 27 25  1  0
M  END
$$$$
