HMT.pdb
     RDKit          3D

 26 26  0  0  1  0  0  0  0  0999 V2000
    7.8305  -16.7654   20.9816 N   0  0  0  0  0  0  0  0  0  0  0  0
    9.2210  -16.5359   21.2517 C   0  0  1  0  0  0  0  0  0  0  0  0
    9.7127  -15.4723   20.2703 C   0  0  0  0  0  0  0  0  0  0  0  0
    9.2222  -15.7665   18.9080 C   0  0  0  0  0  0  0  0  0  0  0  0
    7.9382  -15.9814   18.4658 C   0  0  0  0  0  0  0  0  0  0  0  0
    7.9643  -16.2136   17.1446 N   0  0  0  0  0  0  0  0  0  0  0  0
    9.2317  -16.1496   16.7474 C   0  0  0  0  0  0  0  0  0  0  0  0
   10.0073  -15.8746   17.8310 N   0  0  0  0  0  0  0  0  0  0  0  0
    9.4709  -16.0783   22.6428 C   0  0  0  0  0  0  0  0  0  0  0  0
   10.6373  -15.7219   22.9212 O   0  0  0  0  0  0  0  0  0  0  0  0
    7.0990  -11.5149   26.9654 C   0  0  0  0  0  0  0  0  0  0  0  0
    6.3064  -12.5217   25.6818 S   0  0  0  0  0  0  0  0  0  0  0  0
    7.5294  -13.5704   24.8629 C   0  0  0  0  0  0  0  0  0  0  0  0
    7.6233  -14.8925   25.5807 C   0  0  0  0  0  0  0  0  0  0  0  0
    8.6746  -15.7889   24.9858 C   0  0  2  0  0  0  0  0  0  0  0  0
    8.4290  -16.0517   23.5989 N   0  0  0  0  0  0  0  0  0  0  0  0
    8.7827  -17.0738   25.7468 C   0  0  0  0  0  0  0  0  0  0  0  0
    7.8041  -17.7688   26.1032 O   0  0  0  0  0  0  0  0  0  0  0  0
   10.3193  -20.1653   24.8123 C   0  0  0  0  0  0  0  0  0  0  0  0
   11.0476  -19.7441   26.0481 C   0  0  1  0  0  0  0  0  0  0  0  0
   12.2772  -19.2113   25.6655 O   0  0  0  0  0  0  0  0  0  0  0  0
   10.2605  -18.7619   26.8943 C   0  0  2  0  0  0  0  0  0  0  0  0
   10.0669  -17.5809   26.1132 N   0  0  0  0  0  0  0  0  0  0  0  0
   10.8490  -18.5375   28.2086 C   0  0  0  0  0  0  0  0  0  0  0  0
   10.8892  -19.5533   29.1548 O   0  0  0  0  0  0  0  0  0  0  0  0
   11.3512  -17.4353   28.5745 O   0  0  0  0  0  0  0  0  0  0  0  0
  2  1  1  1
  2  3  1  0
  3  4  1  0
  4  5  2  0
  5  6  1  0
  7  6  1  0
  8  4  1  0
  8  7  2  0
  9  2  1  0
 10  9  2  0
 11 12  1  0
 13 12  1  0
 15 14  1  1
 14 13  1  0
 15 16  1  0
 16  9  1  0
 17 18  2  0
 17 15  1  0
 20 22  1  0
 20 19  1  6
 21 20  1  0
 22 23  1  6
 23 17  1  0
 24 22  1  0
 25 24  1  0
 26 24  2  0
M  END
$$$$
