HMT.pdb
     RDKit          3D

 26 26  0  0  1  0  0  0  0  0999 V2000
    7.6016  -16.5113   20.4187 N   0  0  0  0  0  0  0  0  0  0  0  0
    9.0034  -16.4041   20.7062 C   0  0  1  0  0  0  0  0  0  0  0  0
    9.6169  -15.4637   19.6692 C   0  0  0  0  0  0  0  0  0  0  0  0
    8.5986  -14.5161   19.1712 C   0  0  0  0  0  0  0  0  0  0  0  0
    7.2740  -14.3902   19.5178 C   0  0  0  0  0  0  0  0  0  0  0  0
    6.7299  -13.3901   18.8080 N   0  0  0  0  0  0  0  0  0  0  0  0
    7.6794  -12.8859   18.0254 C   0  0  0  0  0  0  0  0  0  0  0  0
    8.8300  -13.5774   18.2475 N   0  0  0  0  0  0  0  0  0  0  0  0
    9.2745  -15.8807   22.0699 C   0  0  0  0  0  0  0  0  0  0  0  0
   10.4739  -15.7215   22.3876 O   0  0  0  0  0  0  0  0  0  0  0  0
    7.0839  -11.5031   28.0839 C   0  0  0  0  0  0  0  0  0  0  0  0
    6.6445  -12.2404   26.4862 S   0  0  0  0  0  0  0  0  0  0  0  0
    7.6285  -13.7268   26.1895 C   0  0  0  0  0  0  0  0  0  0  0  0
    7.3532  -14.2466   24.8016 C   0  0  0  0  0  0  0  0  0  0  0  0
    8.4505  -15.1470   24.3038 C   0  0  2  0  0  0  0  0  0  0  0  0
    8.2158  -15.5803   22.9584 N   0  0  0  0  0  0  0  0  0  0  0  0
    8.6311  -16.3283   25.2058 C   0  0  0  0  0  0  0  0  0  0  0  0
    7.7335  -17.1606   25.4690 O   0  0  0  0  0  0  0  0  0  0  0  0
   11.7829  -19.6421   26.7563 C   0  0  0  0  0  0  0  0  0  0  0  0
   11.3864  -18.4019   26.0216 C   0  0  1  0  0  0  0  0  0  0  0  0
   11.1542  -18.7431   24.6904 O   0  0  0  0  0  0  0  0  0  0  0  0
   10.1820  -17.7110   26.6317 C   0  0  2  0  0  0  0  0  0  0  0  0
    9.8940  -16.5630   25.8309 N   0  0  0  0  0  0  0  0  0  0  0  0
   10.3361  -17.4417   28.0558 C   0  0  0  0  0  0  0  0  0  0  0  0
    9.9191  -18.3653   29.0054 O   0  0  0  0  0  0  0  0  0  0  0  0
   10.8451  -16.3799   28.5188 O   0  0  0  0  0  0  0  0  0  0  0  0
  2  1  1  6
  2  3  1  0
  3  4  1  0
  4  5  2  0
  5  6  1  0
  7  6  1  0
  8  4  1  0
  8  7  2  0
  9  2  1  0
 10  9  2  0
 11 12  1  0
 13 12  1  0
 15 14  1  1
 14 13  1  0
 15 16  1  0
 16  9  1  0
 17 18  2  0
 17 15  1  0
 20 22  1  0
 20 19  1  1
 21 20  1  0
 22 23  1  6
 23 17  1  0
 24 22  1  0
 25 24  1  0
 26 24  2  0
M  END
$$$$
