HMT.pdb
     RDKit          3D

 26 26  0  0  1  0  0  0  0  0999 V2000
   10.5592  -13.7403   19.5650 N   0  0  0  0  0  0  0  0  0  0  0  0
    9.2821  -13.9929   20.1687 C   0  0  1  0  0  0  0  0  0  0  0  0
    8.6733  -15.2082   19.4697 C   0  0  0  0  0  0  0  0  0  0  0  0
    8.1968  -14.8381   18.1211 C   0  0  0  0  0  0  0  0  0  0  0  0
    8.3123  -13.6452   17.4472 C   0  0  0  0  0  0  0  0  0  0  0  0
    7.7296  -13.7647   16.2446 N   0  0  0  0  0  0  0  0  0  0  0  0
    7.2519  -15.0018   16.1474 C   0  0  0  0  0  0  0  0  0  0  0  0
    7.5384  -15.6639   17.3011 N   0  0  0  0  0  0  0  0  0  0  0  0
    9.3754  -14.2569   21.6277 C   0  0  0  0  0  0  0  0  0  0  0  0
   10.4095  -14.8316   22.0345 O   0  0  0  0  0  0  0  0  0  0  0  0
    7.0359  -11.6104   28.5059 C   0  0  0  0  0  0  0  0  0  0  0  0
    6.3394  -12.2465   26.9568 S   0  0  0  0  0  0  0  0  0  0  0  0
    7.5142  -13.3582   26.1507 C   0  0  0  0  0  0  0  0  0  0  0  0
    7.4077  -13.2076   24.6547 C   0  0  0  0  0  0  0  0  0  0  0  0
    8.4453  -14.0176   23.9266 C   0  0  2  0  0  0  0  0  0  0  0  0
    8.3358  -13.8711   22.5055 N   0  0  0  0  0  0  0  0  0  0  0  0
    8.3671  -15.4635   24.3073 C   0  0  0  0  0  0  0  0  0  0  0  0
    7.3609  -16.1875   24.1309 O   0  0  0  0  0  0  0  0  0  0  0  0
   11.7784  -17.7032   24.3907 C   0  0  0  0  0  0  0  0  0  0  0  0
   10.3904  -18.2546   24.4588 C   0  0  1  0  0  0  0  0  0  0  0  0
   10.4730  -19.5862   24.8619 O   0  0  0  0  0  0  0  0  0  0  0  0
    9.4801  -17.4573   25.3731 C   0  0  2  0  0  0  0  0  0  0  0  0
    9.4901  -16.1037   24.9151 N   0  0  0  0  0  0  0  0  0  0  0  0
    9.7943  -17.6285   26.7860 C   0  0  0  0  0  0  0  0  0  0  0  0
    9.7140  -18.8774   27.3881 O   0  0  0  0  0  0  0  0  0  0  0  0
   10.1522  -16.6822   27.5456 O   0  0  0  0  0  0  0  0  0  0  0  0
  2  1  1  6
  2  3  1  0
  3  4  1  0
  4  5  2  0
  5  6  1  0
  7  6  1  0
  8  4  1  0
  8  7  2  0
  9  2  1  0
 10  9  2  0
 11 12  1  0
 13 12  1  0
 15 14  1  1
 14 13  1  0
 15 16  1  0
 16  9  1  0
 17 18  2  0
 17 15  1  0
 20 22  1  0
 20 19  1  1
 21 20  1  0
 22 23  1  6
 23 17  1  0
 24 22  1  0
 25 24  1  0
 26 24  2  0
M  END
$$$$
