HMT.pdb
     RDKit          3D

 26 26  0  0  1  0  0  0  0  0999 V2000
   10.0625  -15.5884   20.1188 N   0  0  0  0  0  0  0  0  0  0  0  0
    8.8954  -15.9302   20.8805 C   0  0  1  0  0  0  0  0  0  0  0  0
    8.5271  -17.3737   20.5383 C   0  0  0  0  0  0  0  0  0  0  0  0
    8.1749  -17.4871   19.1080 C   0  0  0  0  0  0  0  0  0  0  0  0
    7.1813  -16.8564   18.3970 C   0  0  0  0  0  0  0  0  0  0  0  0
    7.2318  -17.2642   17.1199 N   0  0  0  0  0  0  0  0  0  0  0  0
    8.2315  -18.1344   17.0120 C   0  0  0  0  0  0  0  0  0  0  0  0
    8.8130  -18.2728   18.2343 N   0  0  0  0  0  0  0  0  0  0  0  0
    9.1062  -15.8079   22.3460 C   0  0  0  0  0  0  0  0  0  0  0  0
   10.2589  -16.0386   22.7738 O   0  0  0  0  0  0  0  0  0  0  0  0
    6.9052  -10.5049   26.3155 C   0  0  0  0  0  0  0  0  0  0  0  0
    6.7713  -12.2944   26.5782 S   0  0  0  0  0  0  0  0  0  0  0  0
    7.0964  -13.1807   25.0371 C   0  0  0  0  0  0  0  0  0  0  0  0
    7.0597  -14.6660   25.2908 C   0  0  0  0  0  0  0  0  0  0  0  0
    8.2039  -15.3842   24.6294 C   0  0  2  0  0  0  0  0  0  0  0  0
    8.0439  -15.4463   23.2068 N   0  0  0  0  0  0  0  0  0  0  0  0
    8.3764  -16.7605   25.1932 C   0  0  0  0  0  0  0  0  0  0  0  0
    7.4839  -17.6386   25.2000 O   0  0  0  0  0  0  0  0  0  0  0  0
   10.1610  -19.4010   24.0637 C   0  0  0  0  0  0  0  0  0  0  0  0
   10.7698  -19.1941   25.4134 C   0  0  1  0  0  0  0  0  0  0  0  0
   11.9930  -18.5486   25.2421 O   0  0  0  0  0  0  0  0  0  0  0  0
    9.8677  -18.4241   26.3587 C   0  0  2  0  0  0  0  0  0  0  0  0
    9.6245  -17.1435   25.7727 N   0  0  0  0  0  0  0  0  0  0  0  0
   10.3695  -18.3866   27.7266 C   0  0  0  0  0  0  0  0  0  0  0  0
   10.7246  -17.1838   28.3232 O   0  0  0  0  0  0  0  0  0  0  0  0
   10.5145  -19.4144   28.4500 O   0  0  0  0  0  0  0  0  0  0  0  0
  2  1  1  6
  2  3  1  0
  3  4  1  0
  4  5  2  0
  5  6  1  0
  7  6  1  0
  8  4  1  0
  8  7  2  0
  9  2  1  0
 10  9  2  0
 11 12  1  0
 13 12  1  0
 15 14  1  1
 14 13  1  0
 15 16  1  0
 16  9  1  0
 17 18  2  0
 17 15  1  0
 20 22  1  0
 20 19  1  6
 21 20  1  0
 22 23  1  6
 23 17  1  0
 24 22  1  0
 25 24  1  0
 26 24  2  0
M  END
$$$$
