HMT.pdb
     RDKit          3D

 26 26  0  0  1  0  0  0  0  0999 V2000
    7.5798  -16.0000   20.4364 N   0  0  0  0  0  0  0  0  0  0  0  0
    8.5992  -15.0205   20.6826 C   0  0  1  0  0  0  0  0  0  0  0  0
    8.1759  -13.7282   19.9849 C   0  0  0  0  0  0  0  0  0  0  0  0
    8.1818  -13.9119   18.5189 C   0  0  0  0  0  0  0  0  0  0  0  0
    8.5149  -15.0195   17.7755 C   0  0  0  0  0  0  0  0  0  0  0  0
    8.3729  -14.7303   16.4731 N   0  0  0  0  0  0  0  0  0  0  0  0
    7.9593  -13.4698   16.3811 C   0  0  0  0  0  0  0  0  0  0  0  0
    7.8411  -12.9646   17.6389 N   0  0  0  0  0  0  0  0  0  0  0  0
    8.8079  -14.7557   22.1295 C   0  0  0  0  0  0  0  0  0  0  0  0
    9.8380  -14.1206   22.4465 O   0  0  0  0  0  0  0  0  0  0  0  0
    6.9136  -11.6518   27.6195 C   0  0  0  0  0  0  0  0  0  0  0  0
    5.9509  -12.1853   26.1780 S   0  0  0  0  0  0  0  0  0  0  0  0
    7.0228  -13.0066   24.9769 C   0  0  0  0  0  0  0  0  0  0  0  0
    7.0787  -14.4829   25.2757 C   0  0  0  0  0  0  0  0  0  0  0  0
    8.1614  -15.1797   24.4980 C   0  0  2  0  0  0  0  0  0  0  0  0
    7.8769  -15.2066   23.0940 N   0  0  0  0  0  0  0  0  0  0  0  0
    8.3853  -16.5690   25.0093 C   0  0  0  0  0  0  0  0  0  0  0  0
    7.9192  -17.6020   24.4769 O   0  0  0  0  0  0  0  0  0  0  0  0
   11.7351  -19.3944   25.4804 C   0  0  0  0  0  0  0  0  0  0  0  0
   10.7850  -18.2628   25.2519 C   0  0  1  0  0  0  0  0  0  0  0  0
   10.0342  -18.5511   24.1138 O   0  0  0  0  0  0  0  0  0  0  0  0
    9.8919  -17.9884   26.4466 C   0  0  2  0  0  0  0  0  0  0  0  0
    9.1765  -16.7804   26.1797 N   0  0  0  0  0  0  0  0  0  0  0  0
   10.6093  -18.0082   27.7152 C   0  0  0  0  0  0  0  0  0  0  0  0
   11.4012  -16.9353   28.1033 O   0  0  0  0  0  0  0  0  0  0  0  0
   10.5657  -18.9736   28.5318 O   0  0  0  0  0  0  0  0  0  0  0  0
  2  1  1  1
  2  3  1  0
  3  4  1  0
  4  5  2  0
  5  6  1  0
  7  6  1  0
  8  4  1  0
  8  7  2  0
  9  2  1  0
 10  9  2  0
 11 12  1  0
 13 12  1  0
 15 14  1  1
 14 13  1  0
 15 16  1  0
 16  9  1  0
 17 18  2  0
 17 15  1  0
 20 22  1  0
 20 19  1  1
 21 20  1  0
 22 23  1  6
 23 17  1  0
 24 22  1  0
 25 24  1  0
 26 24  2  0
M  END
$$$$
