HMT.pdb
     RDKit          3D

 26 26  0  0  1  0  0  0  0  0999 V2000
    9.8737  -16.3715   19.7639 N   0  0  0  0  0  0  0  0  0  0  0  0
    8.6919  -16.2653   20.5711 C   0  0  1  0  0  0  0  0  0  0  0  0
    8.0305  -17.6428   20.6048 C   0  0  0  0  0  0  0  0  0  0  0  0
    7.3942  -17.9375   19.3044 C   0  0  0  0  0  0  0  0  0  0  0  0
    7.3343  -17.1716   18.1641 C   0  0  0  0  0  0  0  0  0  0  0  0
    6.6517  -17.8417   17.2232 N   0  0  0  0  0  0  0  0  0  0  0  0
    6.2823  -19.0079   17.7445 C   0  0  0  0  0  0  0  0  0  0  0  0
    6.7383  -19.0687   19.0250 N   0  0  0  0  0  0  0  0  0  0  0  0
    8.9791  -15.8206   21.9592 C   0  0  0  0  0  0  0  0  0  0  0  0
   10.0539  -16.2094   22.4678 O   0  0  0  0  0  0  0  0  0  0  0  0
    6.7056  -11.3148   28.0728 C   0  0  0  0  0  0  0  0  0  0  0  0
    6.3482  -11.9078   26.3964 S   0  0  0  0  0  0  0  0  0  0  0  0
    7.4767  -13.2471   25.9510 C   0  0  0  0  0  0  0  0  0  0  0  0
    7.2830  -13.6101   24.5009 C   0  0  0  0  0  0  0  0  0  0  0  0
    8.2581  -14.6596   24.0424 C   0  0  2  0  0  0  0  0  0  0  0  0
    8.0706  -14.9956   22.6622 N   0  0  0  0  0  0  0  0  0  0  0  0
    8.1687  -15.8886   24.8929 C   0  0  0  0  0  0  0  0  0  0  0  0
    7.1207  -16.5501   25.0714 O   0  0  0  0  0  0  0  0  0  0  0  0
    9.3959  -18.9743   24.3603 C   0  0  0  0  0  0  0  0  0  0  0  0
   10.0407  -18.6426   25.6678 C   0  0  1  0  0  0  0  0  0  0  0  0
   11.3740  -18.3193   25.4230 O   0  0  0  0  0  0  0  0  0  0  0  0
    9.3310  -17.5284   26.4129 C   0  0  2  0  0  0  0  0  0  0  0  0
    9.3302  -16.3776   25.5655 N   0  0  0  0  0  0  0  0  0  0  0  0
    9.8635  -17.3037   27.7508 C   0  0  0  0  0  0  0  0  0  0  0  0
    9.7515  -18.2766   28.7356 O   0  0  0  0  0  0  0  0  0  0  0  0
   10.4491  -16.2393   28.1042 O   0  0  0  0  0  0  0  0  0  0  0  0
  2  1  1  6
  2  3  1  0
  3  4  1  0
  4  5  2  0
  5  6  1  0
  7  6  1  0
  8  4  1  0
  8  7  2  0
  9  2  1  0
 10  9  2  0
 11 12  1  0
 13 12  1  0
 15 14  1  1
 14 13  1  0
 15 16  1  0
 16  9  1  0
 17 18  2  0
 17 15  1  0
 20 22  1  0
 20 19  1  6
 21 20  1  0
 22 23  1  6
 23 17  1  0
 24 22  1  0
 25 24  1  0
 26 24  2  0
M  END
$$$$
