HMT.pdb
     RDKit          3D

 26 26  0  0  1  0  0  0  0  0999 V2000
   11.0141  -15.7461   20.2918 N   0  0  0  0  0  0  0  0  0  0  0  0
    9.8147  -15.1131   20.7606 C   0  0  1  0  0  0  0  0  0  0  0  0
    8.6382  -15.7441   20.0164 C   0  0  0  0  0  0  0  0  0  0  0  0
    8.1246  -14.8152   18.9887 C   0  0  0  0  0  0  0  0  0  0  0  0
    8.5325  -13.5396   18.6774 C   0  0  0  0  0  0  0  0  0  0  0  0
    7.7780  -13.0731   17.6708 N   0  0  0  0  0  0  0  0  0  0  0  0
    6.9077  -14.0236   17.3431 C   0  0  0  0  0  0  0  0  0  0  0  0
    7.1194  -15.0963   18.1530 N   0  0  0  0  0  0  0  0  0  0  0  0
    9.6143  -15.2685   22.2245 C   0  0  0  0  0  0  0  0  0  0  0  0
   10.4268  -15.9995   22.8331 O   0  0  0  0  0  0  0  0  0  0  0  0
    6.8352  -11.2162   28.1549 C   0  0  0  0  0  0  0  0  0  0  0  0
    6.1959  -12.1476   26.7360 S   0  0  0  0  0  0  0  0  0  0  0  0
    7.3533  -13.4554   26.2712 C   0  0  0  0  0  0  0  0  0  0  0  0
    7.4364  -13.5466   24.7689 C   0  0  0  0  0  0  0  0  0  0  0  0
    8.4771  -14.5336   24.3159 C   0  0  2  0  0  0  0  0  0  0  0  0
    8.5498  -14.6143   22.8872 N   0  0  0  0  0  0  0  0  0  0  0  0
    8.2270  -15.8891   24.9007 C   0  0  0  0  0  0  0  0  0  0  0  0
    7.1306  -16.4914   24.8457 O   0  0  0  0  0  0  0  0  0  0  0  0
    9.5866  -18.9790   24.0256 C   0  0  0  0  0  0  0  0  0  0  0  0
    9.9642  -18.8531   25.4667 C   0  0  1  0  0  0  0  0  0  0  0  0
   11.3162  -18.5211   25.5323 O   0  0  0  0  0  0  0  0  0  0  0  0
    9.1125  -17.8471   26.2168 C   0  0  2  0  0  0  0  0  0  0  0  0
    9.2788  -16.5807   25.5759 N   0  0  0  0  0  0  0  0  0  0  0  0
    9.3602  -17.8442   27.6531 C   0  0  0  0  0  0  0  0  0  0  0  0
    8.9751  -18.9179   28.4454 O   0  0  0  0  0  0  0  0  0  0  0  0
    9.9267  -16.8934   28.2662 O   0  0  0  0  0  0  0  0  0  0  0  0
  2  1  1  6
  2  3  1  0
  3  4  1  0
  4  5  2  0
  5  6  1  0
  7  6  1  0
  8  4  1  0
  8  7  2  0
  9  2  1  0
 10  9  2  0
 11 12  1  0
 13 12  1  0
 15 14  1  6
 14 13  1  0
 15 16  1  0
 16  9  1  0
 17 18  2  0
 17 15  1  0
 20 22  1  0
 20 19  1  6
 21 20  1  0
 22 23  1  6
 23 17  1  0
 24 22  1  0
 25 24  1  0
 26 24  2  0
M  END
$$$$
