HMT.pdb
     RDKit          3D

 26 26  0  0  1  0  0  0  0  0999 V2000
    9.1098  -16.2679   19.1102 N   0  0  0  0  0  0  0  0  0  0  0  0
    8.1285  -16.4171   20.1466 C   0  0  1  0  0  0  0  0  0  0  0  0
    7.7590  -17.8983   20.2229 C   0  0  0  0  0  0  0  0  0  0  0  0
    7.1115  -18.3300   18.9670 C   0  0  0  0  0  0  0  0  0  0  0  0
    5.9103  -17.9426   18.4217 C   0  0  0  0  0  0  0  0  0  0  0  0
    5.7244  -18.5968   17.2651 N   0  0  0  0  0  0  0  0  0  0  0  0
    6.7783  -19.3842   17.0716 C   0  0  0  0  0  0  0  0  0  0  0  0
    7.6329  -19.2215   18.1177 N   0  0  0  0  0  0  0  0  0  0  0  0
    8.6163  -15.9602   21.4733 C   0  0  0  0  0  0  0  0  0  0  0  0
    9.8137  -16.1953   21.7486 O   0  0  0  0  0  0  0  0  0  0  0  0
    7.0008  -11.6942   27.9620 C   0  0  0  0  0  0  0  0  0  0  0  0
    6.3826  -12.4368   26.4272 S   0  0  0  0  0  0  0  0  0  0  0  0
    7.6444  -13.5022   25.6933 C   0  0  0  0  0  0  0  0  0  0  0  0
    7.1937  -13.9522   24.3271 C   0  0  0  0  0  0  0  0  0  0  0  0
    8.1931  -14.8650   23.6709 C   0  0  2  0  0  0  0  0  0  0  0  0
    7.7558  -15.2911   22.3746 N   0  0  0  0  0  0  0  0  0  0  0  0
    8.4901  -16.0513   24.5347 C   0  0  0  0  0  0  0  0  0  0  0  0
    7.6697  -16.9617   24.7919 O   0  0  0  0  0  0  0  0  0  0  0  0
   12.0469  -19.0420   25.9478 C   0  0  0  0  0  0  0  0  0  0  0  0
   11.4462  -17.8915   25.2056 C   0  0  1  0  0  0  0  0  0  0  0  0
   11.1960  -18.3034   23.8979 O   0  0  0  0  0  0  0  0  0  0  0  0
   10.1906  -17.3524   25.8635 C   0  0  2  0  0  0  0  0  0  0  0  0
    9.7816  -16.1979   25.1272 N   0  0  0  0  0  0  0  0  0  0  0  0
   10.3399  -17.1429   27.2981 C   0  0  0  0  0  0  0  0  0  0  0  0
   10.6207  -15.8825   27.8093 O   0  0  0  0  0  0  0  0  0  0  0  0
   10.2285  -18.0644   28.1579 O   0  0  0  0  0  0  0  0  0  0  0  0
  2  1  1  6
  2  3  1  0
  3  4  1  0
  4  5  2  0
  5  6  1  0
  7  6  1  0
  8  4  1  0
  8  7  2  0
  9  2  1  0
 10  9  2  0
 11 12  1  0
 13 12  1  0
 15 14  1  1
 14 13  1  0
 15 16  1  0
 16  9  1  0
 17 18  2  0
 17 15  1  0
 20 22  1  0
 20 19  1  1
 21 20  1  0
 22 23  1  6
 23 17  1  0
 24 22  1  0
 25 24  1  0
 26 24  2  0
M  END
$$$$
