HMT.pdb
     RDKit          3D

 26 26  0  0  1  0  0  0  0  0999 V2000
    8.2629  -16.9280   20.9876 N   0  0  0  0  0  0  0  0  0  0  0  0
    9.4609  -16.2297   21.3570 C   0  0  1  0  0  0  0  0  0  0  0  0
    9.7762  -15.2321   20.2427 C   0  0  0  0  0  0  0  0  0  0  0  0
    9.1337  -15.6538   18.9809 C   0  0  0  0  0  0  0  0  0  0  0  0
    8.3452  -16.7499   18.7220 C   0  0  0  0  0  0  0  0  0  0  0  0
    7.9809  -16.7309   17.4309 N   0  0  0  0  0  0  0  0  0  0  0  0
    8.5209  -15.6510   16.8738 C   0  0  0  0  0  0  0  0  0  0  0  0
    9.2306  -14.9869   17.8259 N   0  0  0  0  0  0  0  0  0  0  0  0
    9.3320  -15.5051   22.6475 C   0  0  0  0  0  0  0  0  0  0  0  0
   10.3575  -14.9359   23.0826 O   0  0  0  0  0  0  0  0  0  0  0  0
    7.0494  -10.8825   27.4191 C   0  0  0  0  0  0  0  0  0  0  0  0
    7.3545  -11.8925   25.9438 S   0  0  0  0  0  0  0  0  0  0  0  0
    6.4154  -13.4339   26.0339 C   0  0  0  0  0  0  0  0  0  0  0  0
    6.5706  -14.1965   24.7430 C   0  0  0  0  0  0  0  0  0  0  0  0
    7.9495  -14.7774   24.5883 C   0  0  2  0  0  0  0  0  0  0  0  0
    8.1006  -15.4683   23.3421 N   0  0  0  0  0  0  0  0  0  0  0  0
    8.2841  -15.6864   25.7300 C   0  0  0  0  0  0  0  0  0  0  0  0
    8.3182  -15.3310   26.9301 O   0  0  0  0  0  0  0  0  0  0  0  0
    6.8343  -19.3040   25.8633 C   0  0  0  0  0  0  0  0  0  0  0  0
    8.3130  -19.3420   26.0805 C   0  0  1  0  0  0  0  0  0  0  0  0
    8.9118  -19.7904   24.9046 O   0  0  0  0  0  0  0  0  0  0  0  0
    8.8830  -18.0052   26.5143 C   0  0  2  0  0  0  0  0  0  0  0  0
    8.5921  -17.0593   25.4832 N   0  0  0  0  0  0  0  0  0  0  0  0
   10.2865  -18.0785   26.9003 C   0  0  0  0  0  0  0  0  0  0  0  0
   10.6946  -18.8835   27.9558 O   0  0  0  0  0  0  0  0  0  0  0  0
   11.2088  -17.4346   26.3211 O   0  0  0  0  0  0  0  0  0  0  0  0
  2  1  1  6
  2  3  1  0
  3  4  1  0
  4  5  2  0
  5  6  1  0
  7  6  1  0
  8  4  1  0
  8  7  2  0
  9  2  1  0
 10  9  2  0
 11 12  1  0
 13 12  1  0
 15 14  1  1
 14 13  1  0
 15 16  1  0
 16  9  1  0
 17 18  2  0
 17 15  1  0
 20 22  1  0
 20 19  1  6
 21 20  1  0
 22 23  1  6
 23 17  1  0
 24 22  1  0
 25 24  1  0
 26 24  2  0
M  END
$$$$
