HMT.pdb
     RDKit          3D

 26 26  0  0  1  0  0  0  0  0999 V2000
    9.5437  -15.0899   20.3702 N   0  0  0  0  0  0  0  0  0  0  0  0
    8.9173  -16.0494   21.2341 C   0  0  1  0  0  0  0  0  0  0  0  0
    9.3267  -17.4410   20.7525 C   0  0  0  0  0  0  0  0  0  0  0  0
    8.7447  -17.7145   19.4224 C   0  0  0  0  0  0  0  0  0  0  0  0
    8.0239  -16.8872   18.5938 C   0  0  0  0  0  0  0  0  0  0  0  0
    7.6966  -17.5611   17.4808 N   0  0  0  0  0  0  0  0  0  0  0  0
    8.1939  -18.7895   17.5904 C   0  0  0  0  0  0  0  0  0  0  0  0
    8.8392  -18.8858   18.7844 N   0  0  0  0  0  0  0  0  0  0  0  0
    9.3068  -15.8845   22.6583 C   0  0  0  0  0  0  0  0  0  0  0  0
   10.5307  -15.9010   22.9165 O   0  0  0  0  0  0  0  0  0  0  0  0
    6.4469  -10.7726   26.1089 C   0  0  0  0  0  0  0  0  0  0  0  0
    6.3997  -12.5516   26.4588 S   0  0  0  0  0  0  0  0  0  0  0  0
    7.6458  -13.4172   25.4769 C   0  0  0  0  0  0  0  0  0  0  0  0
    7.6575  -14.8778   25.8490 C   0  0  0  0  0  0  0  0  0  0  0  0
    8.6701  -15.6583   25.0564 C   0  0  2  0  0  0  0  0  0  0  0  0
    8.3287  -15.7174   23.6661 N   0  0  0  0  0  0  0  0  0  0  0  0
    8.8404  -17.0395   25.6086 C   0  0  0  0  0  0  0  0  0  0  0  0
    7.9101  -17.8665   25.7439 O   0  0  0  0  0  0  0  0  0  0  0  0
   11.4590  -19.5025   24.5336 C   0  0  0  0  0  0  0  0  0  0  0  0
   11.5898  -19.3650   26.0166 C   0  0  1  0  0  0  0  0  0  0  0  0
   12.7375  -18.6204   26.2826 O   0  0  0  0  0  0  0  0  0  0  0  0
   10.3672  -18.7437   26.6643 C   0  0  2  0  0  0  0  0  0  0  0  0
   10.1317  -17.4890   26.0222 N   0  0  0  0  0  0  0  0  0  0  0  0
   10.4581  -18.6808   28.1176 C   0  0  0  0  0  0  0  0  0  0  0  0
   10.5377  -19.8401   28.8780 O   0  0  0  0  0  0  0  0  0  0  0  0
   10.4709  -17.5994   28.7744 O   0  0  0  0  0  0  0  0  0  0  0  0
  2  1  1  6
  2  3  1  0
  3  4  1  0
  4  5  2  0
  5  6  1  0
  7  6  1  0
  8  4  1  0
  8  7  2  0
  9  2  1  0
 10  9  2  0
 11 12  1  0
 13 12  1  0
 15 14  1  1
 14 13  1  0
 15 16  1  0
 16  9  1  0
 17 18  2  0
 17 15  1  0
 20 22  1  0
 20 19  1  6
 21 20  1  0
 22 23  1  6
 23 17  1  0
 24 22  1  0
 25 24  1  0
 26 24  2  0
M  END
$$$$
