HMT.pdb
     RDKit          3D

 26 26  0  0  1  0  0  0  0  0999 V2000
   10.7657  -15.6062   20.2196 N   0  0  0  0  0  0  0  0  0  0  0  0
    9.5359  -15.0359   20.6904 C   0  0  1  0  0  0  0  0  0  0  0  0
    8.3930  -15.7180   19.9390 C   0  0  0  0  0  0  0  0  0  0  0  0
    8.0164  -14.9253   18.7504 C   0  0  0  0  0  0  0  0  0  0  0  0
    8.6007  -13.7951   18.2291 C   0  0  0  0  0  0  0  0  0  0  0  0
    7.9202  -13.4157   17.1369 N   0  0  0  0  0  0  0  0  0  0  0  0
    6.9243  -14.2789   16.9602 C   0  0  0  0  0  0  0  0  0  0  0  0
    6.9819  -15.2086   17.9520 N   0  0  0  0  0  0  0  0  0  0  0  0
    9.3407  -15.2116   22.1526 C   0  0  0  0  0  0  0  0  0  0  0  0
   10.1024  -16.0163   22.7333 O   0  0  0  0  0  0  0  0  0  0  0  0
    6.2979  -11.6249   28.5318 C   0  0  0  0  0  0  0  0  0  0  0  0
    6.2231  -11.8827   26.7381 S   0  0  0  0  0  0  0  0  0  0  0  0
    7.3343  -13.2217   26.2500 C   0  0  0  0  0  0  0  0  0  0  0  0
    7.3662  -13.3294   24.7469 C   0  0  0  0  0  0  0  0  0  0  0  0
    8.3251  -14.3871   24.2730 C   0  0  2  0  0  0  0  0  0  0  0  0
    8.3360  -14.4958   22.8444 N   0  0  0  0  0  0  0  0  0  0  0  0
    8.0149  -15.7144   24.8926 C   0  0  0  0  0  0  0  0  0  0  0  0
    6.9839  -16.3830   24.6523 O   0  0  0  0  0  0  0  0  0  0  0  0
    8.6969  -18.5674   24.1011 C   0  0  0  0  0  0  0  0  0  0  0  0
    9.3264  -18.6098   25.4565 C   0  0  1  0  0  0  0  0  0  0  0  0
   10.7001  -18.4330   25.3014 O   0  0  0  0  0  0  0  0  0  0  0  0
    8.7435  -17.5873   26.4130 C   0  0  2  0  0  0  0  0  0  0  0  0
    8.9258  -16.2971   25.8259 N   0  0  0  0  0  0  0  0  0  0  0  0
    9.2517  -17.7191   27.7726 C   0  0  0  0  0  0  0  0  0  0  0  0
    8.9936  -18.8588   28.5230 O   0  0  0  0  0  0  0  0  0  0  0  0
    9.9441  -16.8331   28.3527 O   0  0  0  0  0  0  0  0  0  0  0  0
  2  1  1  6
  2  3  1  0
  3  4  1  0
  4  5  2  0
  5  6  1  0
  7  6  1  0
  8  4  1  0
  8  7  2  0
  9  2  1  0
 10  9  2  0
 11 12  1  0
 13 12  1  0
 15 14  1  6
 14 13  1  0
 15 16  1  0
 16  9  1  0
 17 18  2  0
 17 15  1  0
 20 22  1  0
 20 19  1  6
 21 20  1  0
 22 23  1  6
 23 17  1  0
 24 22  1  0
 25 24  1  0
 26 24  2  0
M  END
$$$$
