HMT.pdb
     RDKit          3D

 26 26  0  0  1  0  0  0  0  0999 V2000
    9.5510  -16.3649   19.4372 N   0  0  0  0  0  0  0  0  0  0  0  0
    8.4401  -16.3942   20.3452 C   0  0  1  0  0  0  0  0  0  0  0  0
    7.9364  -17.8357   20.4123 C   0  0  0  0  0  0  0  0  0  0  0  0
    7.3950  -18.2506   19.1018 C   0  0  0  0  0  0  0  0  0  0  0  0
    6.5037  -17.6054   18.2773 C   0  0  0  0  0  0  0  0  0  0  0  0
    6.2978  -18.3557   17.1843 N   0  0  0  0  0  0  0  0  0  0  0  0
    7.0370  -19.4547   17.3025 C   0  0  0  0  0  0  0  0  0  0  0  0
    7.7129  -19.3918   18.4818 N   0  0  0  0  0  0  0  0  0  0  0  0
    8.7985  -15.9316   21.7108 C   0  0  0  0  0  0  0  0  0  0  0  0
    9.9664  -16.1583   22.0975 O   0  0  0  0  0  0  0  0  0  0  0  0
    6.9860  -11.1196   27.5028 C   0  0  0  0  0  0  0  0  0  0  0  0
    6.1901  -12.3193   26.3996 S   0  0  0  0  0  0  0  0  0  0  0  0
    7.3858  -13.5603   25.8554 C   0  0  0  0  0  0  0  0  0  0  0  0
    7.1408  -13.8972   24.4068 C   0  0  0  0  0  0  0  0  0  0  0  0
    8.1486  -14.8780   23.8730 C   0  0  2  0  0  0  0  0  0  0  0  0
    7.8532  -15.2666   22.5259 N   0  0  0  0  0  0  0  0  0  0  0  0
    8.2455  -16.0858   24.7525 C   0  0  0  0  0  0  0  0  0  0  0  0
    7.2707  -16.7971   25.0867 O   0  0  0  0  0  0  0  0  0  0  0  0
   10.1423  -19.0371   24.1418 C   0  0  0  0  0  0  0  0  0  0  0  0
   10.6352  -18.5774   25.4764 C   0  0  1  0  0  0  0  0  0  0  0  0
   11.9004  -18.0196   25.3018 O   0  0  0  0  0  0  0  0  0  0  0  0
    9.6913  -17.6020   26.1530 C   0  0  2  0  0  0  0  0  0  0  0  0
    9.5135  -16.4931   25.2692 N   0  0  0  0  0  0  0  0  0  0  0  0
   10.1053  -17.2478   27.5048 C   0  0  0  0  0  0  0  0  0  0  0  0
   10.4660  -15.9447   27.8217 O   0  0  0  0  0  0  0  0  0  0  0  0
   10.1651  -18.0748   28.4605 O   0  0  0  0  0  0  0  0  0  0  0  0
  2  1  1  6
  2  3  1  0
  3  4  1  0
  4  5  2  0
  5  6  1  0
  7  6  1  0
  8  4  1  0
  8  7  2  0
  9  2  1  0
 10  9  2  0
 11 12  1  0
 13 12  1  0
 15 14  1  1
 14 13  1  0
 15 16  1  0
 16  9  1  0
 17 18  2  0
 17 15  1  0
 20 22  1  0
 20 19  1  6
 21 20  1  0
 22 23  1  6
 23 17  1  0
 24 22  1  0
 25 24  1  0
 26 24  2  0
M  END
$$$$
