HMT.pdb
     RDKit          3D

 26 26  0  0  1  0  0  0  0  0999 V2000
    9.4211  -16.2376   19.8129 N   0  0  0  0  0  0  0  0  0  0  0  0
    8.3397  -16.3827   20.7450 C   0  0  1  0  0  0  0  0  0  0  0  0
    7.9743  -17.8657   20.8011 C   0  0  0  0  0  0  0  0  0  0  0  0
    7.2372  -18.2581   19.5823 C   0  0  0  0  0  0  0  0  0  0  0  0
    6.9807  -17.5345   18.4417 C   0  0  0  0  0  0  0  0  0  0  0  0
    6.2734  -18.2947   17.5919 N   0  0  0  0  0  0  0  0  0  0  0  0
    6.0801  -19.4761   18.1707 C   0  0  0  0  0  0  0  0  0  0  0  0
    6.6724  -19.4556   19.3955 N   0  0  0  0  0  0  0  0  0  0  0  0
    8.6858  -15.9067   22.1091 C   0  0  0  0  0  0  0  0  0  0  0  0
    9.8531  -16.1209   22.5048 O   0  0  0  0  0  0  0  0  0  0  0  0
    7.0238  -10.6004   26.7577 C   0  0  0  0  0  0  0  0  0  0  0  0
    6.1622  -12.1963   26.7425 S   0  0  0  0  0  0  0  0  0  0  0  0
    7.2908  -13.5135   26.2353 C   0  0  0  0  0  0  0  0  0  0  0  0
    6.9896  -13.9181   24.8149 C   0  0  0  0  0  0  0  0  0  0  0  0
    7.9857  -14.9121   24.2836 C   0  0  2  0  0  0  0  0  0  0  0  0
    7.7300  -15.2433   22.9132 N   0  0  0  0  0  0  0  0  0  0  0  0
    8.0110  -16.1525   25.1217 C   0  0  0  0  0  0  0  0  0  0  0  0
    7.0145  -16.8786   25.3401 O   0  0  0  0  0  0  0  0  0  0  0  0
    9.4914  -19.1512   24.5217 C   0  0  0  0  0  0  0  0  0  0  0  0
   10.1213  -18.7768   25.8249 C   0  0  1  0  0  0  0  0  0  0  0  0
   11.4242  -18.3530   25.5698 O   0  0  0  0  0  0  0  0  0  0  0  0
    9.3366  -17.7220   26.5811 C   0  0  2  0  0  0  0  0  0  0  0  0
    9.2302  -16.5761   25.7338 N   0  0  0  0  0  0  0  0  0  0  0  0
    9.8705  -17.4536   27.9104 C   0  0  0  0  0  0  0  0  0  0  0  0
    9.8746  -18.4387   28.8894 O   0  0  0  0  0  0  0  0  0  0  0  0
   10.3547  -16.3385   28.2609 O   0  0  0  0  0  0  0  0  0  0  0  0
  2  1  1  6
  2  3  1  0
  3  4  1  0
  4  5  2  0
  5  6  1  0
  7  6  1  0
  8  4  1  0
  8  7  2  0
  9  2  1  0
 10  9  2  0
 11 12  1  0
 13 12  1  0
 15 14  1  1
 14 13  1  0
 15 16  1  0
 16  9  1  0
 17 18  2  0
 17 15  1  0
 20 22  1  0
 20 19  1  6
 21 20  1  0
 22 23  1  6
 23 17  1  0
 24 22  1  0
 25 24  1  0
 26 24  2  0
M  END
$$$$
