CLT.pdb
     RDKit          3D

 22 21  0  0  1  0  0  0  0  0999 V2000
   22.8840  -20.9031   -9.4338 N   0  0  0  0  0  0  0  0  0  0  0  0
   22.5283  -21.1779  -10.8163 C   0  0  1  0  0  0  0  0  0  0  0  0
   21.0550  -20.9302  -11.0321 C   0  0  0  0  0  0  0  0  0  0  0  0
   20.1611  -22.3133  -10.2616 S   0  0  0  0  0  0  0  0  0  0  0  0
   23.3892  -20.3190  -11.6686 C   0  0  0  0  0  0  0  0  0  0  0  0
   23.6157  -19.1536  -11.2637 O   0  0  0  0  0  0  0  0  0  0  0  0
   27.6516  -18.6313  -14.2615 C   0  0  0  0  0  0  0  0  0  0  0  0
   27.1900  -20.0018  -14.6047 C   0  0  1  0  0  0  0  0  0  0  0  0
   28.4219  -20.9197  -14.5694 C   0  0  0  0  0  0  0  0  0  0  0  0
   26.0630  -20.5642  -13.8500 C   0  0  0  0  0  0  0  0  0  0  0  0
   24.7611  -19.8698  -13.7633 C   0  0  2  0  0  0  0  0  0  0  0  0
   23.9401  -20.7729  -12.8870 N   0  0  0  0  0  0  0  0  0  0  0  0
   23.9644  -19.6662  -14.9580 C   0  0  0  0  0  0  0  0  0  0  0  0
   23.3797  -20.6638  -15.5130 O   0  0  0  0  0  0  0  0  0  0  0  0
   20.9739  -18.9745  -15.1960 C   0  0  0  0  0  0  0  0  0  0  0  0
   21.4544  -17.9738  -16.2031 C   0  0  1  0  0  0  0  0  0  0  0  0
   21.4438  -16.7122  -15.5652 O   0  0  0  0  0  0  0  0  0  0  0  0
   22.8597  -18.2481  -16.7113 C   0  0  2  0  0  0  0  0  0  0  0  0
   23.7596  -18.4172  -15.5808 N   0  0  0  0  0  0  0  0  0  0  0  0
   23.2895  -17.2866  -17.7196 C   0  0  0  0  0  0  0  0  0  0  0  0
   22.7647  -17.0560  -18.8304 O   0  0  0  0  0  0  0  0  0  0  0  0
   24.4255  -16.5126  -17.4342 O   0  0  0  0  0  0  0  0  0  0  0  0
  2  1  1  1
  2  3  1  0
  2  5  1  0
  3  4  1  0
  5 12  1  0
  5  6  2  0
  8  7  1  1
  8 10  1  0
  8  9  1  0
 11 10  1  6
 11 13  1  0
 12 11  1  0
 13 19  1  0
 13 14  2  0
 16 15  1  1
 16 18  1  0
 17 16  1  0
 18 20  1  0
 18 19  1  1
 20 22  1  0
 21 20  2  0
M  END
$$$$
