CLT.pdb
     RDKit          3D

 22 21  0  0  1  0  0  0  0  0999 V2000
   19.2394  -12.0883  -18.8258 N   0  0  0  0  0  0  0  0  0  0  0  0
   19.9151  -10.8175  -19.0302 C   0  0  1  0  0  0  0  0  0  0  0  0
   18.9408   -9.7897  -19.5524 C   0  0  0  0  0  0  0  0  0  0  0  0
   18.6789  -10.1477  -21.3156 S   0  0  0  0  0  0  0  0  0  0  0  0
   20.5216  -10.4306  -17.7310 C   0  0  0  0  0  0  0  0  0  0  0  0
   19.8116  -10.5624  -16.7054 O   0  0  0  0  0  0  0  0  0  0  0  0
   24.2638  -10.5052  -13.8190 C   0  0  0  0  0  0  0  0  0  0  0  0
   24.6753  -10.0445  -15.1710 C   0  0  1  0  0  0  0  0  0  0  0  0
   26.0415  -10.6801  -15.4726 C   0  0  0  0  0  0  0  0  0  0  0  0
   23.7303  -10.2184  -16.2813 C   0  0  0  0  0  0  0  0  0  0  0  0
   22.4259   -9.5240  -16.3085 C   0  0  2  0  0  0  0  0  0  0  0  0
   21.8391   -9.9326  -17.6300 N   0  0  0  0  0  0  0  0  0  0  0  0
   22.3731   -8.0747  -16.2969 C   0  0  0  0  0  0  0  0  0  0  0  0
   22.9163   -7.4084  -17.2489 O   0  0  0  0  0  0  0  0  0  0  0  0
   19.7178   -5.7975  -16.8034 C   0  0  0  0  0  0  0  0  0  0  0  0
   20.3416   -5.3336  -15.5218 C   0  0  1  0  0  0  0  0  0  0  0  0
   19.5253   -5.8124  -14.4714 O   0  0  0  0  0  0  0  0  0  0  0  0
   21.7550   -5.8496  -15.3109 C   0  0  2  0  0  0  0  0  0  0  0  0
   21.7431   -7.3041  -15.2973 N   0  0  0  0  0  0  0  0  0  0  0  0
   22.4210   -5.2149  -14.1798 C   0  0  0  0  0  0  0  0  0  0  0  0
   22.7792   -5.7454  -13.1062 O   0  0  0  0  0  0  0  0  0  0  0  0
   22.7076   -3.8443  -14.2824 O   0  0  0  0  0  0  0  0  0  0  0  0
  2  1  1  1
  2  3  1  0
  2  5  1  0
  3  4  1  0
  5 12  1  0
  5  6  2  0
  8  7  1  1
  8 10  1  0
  8  9  1  0
 11 10  1  6
 11 13  1  0
 12 11  1  0
 13 19  1  0
 13 14  2  0
 16 15  1  6
 16 18  1  0
 17 16  1  0
 18 20  1  0
 18 19  1  1
 20 22  1  0
 21 20  2  0
M  END
$$$$
