CLT.pdb
     RDKit          3D

 22 21  0  0  1  0  0  0  0  0999 V2000
   21.7682  -14.3939  -17.2681 N   0  0  0  0  0  0  0  0  0  0  0  0
   21.6398  -13.1150  -17.9473 C   0  0  1  0  0  0  0  0  0  0  0  0
   20.2132  -12.9055  -18.3938 C   0  0  0  0  0  0  0  0  0  0  0  0
   19.6804  -14.4353  -19.2193 S   0  0  0  0  0  0  0  0  0  0  0  0
   22.1089  -12.0691  -17.0031 C   0  0  0  0  0  0  0  0  0  0  0  0
   21.6333  -12.0900  -15.8426 O   0  0  0  0  0  0  0  0  0  0  0  0
   27.4279  -10.7851  -16.2458 C   0  0  0  0  0  0  0  0  0  0  0  0
   25.9801  -10.9203  -15.9377 C   0  0  1  0  0  0  0  0  0  0  0  0
   25.8244  -10.7892  -14.4146 C   0  0  0  0  0  0  0  0  0  0  0  0
   25.0330  -10.0644  -16.6633 C   0  0  0  0  0  0  0  0  0  0  0  0
   23.5831  -10.0925  -16.3777 C   0  0  2  0  0  0  0  0  0  0  0  0
   23.0491  -11.0828  -17.3735 N   0  0  0  0  0  0  0  0  0  0  0  0
   22.7828   -8.8966  -16.5589 C   0  0  0  0  0  0  0  0  0  0  0  0
   23.0629   -8.0784  -17.5061 O   0  0  0  0  0  0  0  0  0  0  0  0
   19.4430   -8.5708  -17.7122 C   0  0  0  0  0  0  0  0  0  0  0  0
   19.4737   -7.7767  -16.4413 C   0  0  1  0  0  0  0  0  0  0  0  0
   18.9217   -8.5975  -15.4312 O   0  0  0  0  0  0  0  0  0  0  0  0
   20.8719   -7.3602  -16.0172 C   0  0  2  0  0  0  0  0  0  0  0  0
   21.6739   -8.5463  -15.7603 N   0  0  0  0  0  0  0  0  0  0  0  0
   20.8619   -6.3643  -14.9524 C   0  0  0  0  0  0  0  0  0  0  0  0
   21.3146   -6.4786  -13.7929 O   0  0  0  0  0  0  0  0  0  0  0  0
   20.2815   -5.1179  -15.2364 O   0  0  0  0  0  0  0  0  0  0  0  0
  2  1  1  1
  2  3  1  0
  2  5  1  0
  3  4  1  0
  5 12  1  0
  5  6  2  0
  8  7  1  1
  8 10  1  0
  8  9  1  0
 11 10  1  6
 11 13  1  0
 12 11  1  0
 13 19  1  0
 13 14  2  0
 16 15  1  6
 16 18  1  0
 17 16  1  0
 18 20  1  0
 18 19  1  1
 20 22  1  0
 21 20  2  0
M  END
$$$$
