CLT.pdb
     RDKit          3D

 22 21  0  0  1  0  0  0  0  0999 V2000
   28.4574  -20.4772  -15.6547 N   0  0  0  0  0  0  0  0  0  0  0  0
   27.5783  -19.5595  -14.9486 C   0  0  1  0  0  0  0  0  0  0  0  0
   27.0400  -18.5199  -15.9015 C   0  0  0  0  0  0  0  0  0  0  0  0
   28.3997  -17.3675  -16.2604 S   0  0  0  0  0  0  0  0  0  0  0  0
   26.5087  -20.3753  -14.3195 C   0  0  0  0  0  0  0  0  0  0  0  0
   26.2526  -21.4861  -14.8429 O   0  0  0  0  0  0  0  0  0  0  0  0
   26.0124  -20.1421   -8.8523 C   0  0  0  0  0  0  0  0  0  0  0  0
   25.9920  -20.6996  -10.2300 C   0  0  1  0  0  0  0  0  0  0  0  0
   26.2245  -22.2140  -10.1121 C   0  0  0  0  0  0  0  0  0  0  0  0
   24.8441  -20.3845  -11.0896 C   0  0  0  0  0  0  0  0  0  0  0  0
   24.7864  -20.8201  -12.5008 C   0  0  2  0  0  0  0  0  0  0  0  0
   25.7964  -19.9396  -13.1807 N   0  0  0  0  0  0  0  0  0  0  0  0
   23.5626  -20.6591  -13.2623 C   0  0  0  0  0  0  0  0  0  0  0  0
   23.1372  -19.4828  -13.5459 O   0  0  0  0  0  0  0  0  0  0  0  0
   20.0136  -22.5560  -16.1965 C   0  0  0  0  0  0  0  0  0  0  0  0
   21.2897  -22.6708  -15.4187 C   0  0  1  0  0  0  0  0  0  0  0  0
   22.3426  -22.7115  -16.3614 O   0  0  0  0  0  0  0  0  0  0  0  0
   21.5321  -21.5080  -14.4714 C   0  0  2  0  0  0  0  0  0  0  0  0
   22.7744  -21.7243  -13.7461 N   0  0  0  0  0  0  0  0  0  0  0  0
   20.3678  -21.2026  -13.6485 C   0  0  0  0  0  0  0  0  0  0  0  0
   19.4380  -20.4068  -13.9029 O   0  0  0  0  0  0  0  0  0  0  0  0
   20.2511  -21.8688  -12.4182 O   0  0  0  0  0  0  0  0  0  0  0  0
  2  1  1  6
  2  3  1  0
  2  5  1  0
  3  4  1  0
  5 12  1  0
  5  6  2  0
  8  7  1  1
  8 10  1  0
  8  9  1  0
 11 10  1  1
 11 13  1  0
 12 11  1  0
 13 19  1  0
 13 14  2  0
 16 15  1  6
 16 18  1  0
 17 16  1  0
 18 20  1  0
 18 19  1  1
 20 22  1  0
 21 20  2  0
M  END
$$$$
