CLT.pdb
     RDKit          3D

 22 21  0  0  1  0  0  0  0  0999 V2000
   16.4178  -10.7516  -16.6262 N   0  0  0  0  0  0  0  0  0  0  0  0
   17.2854   -9.7099  -17.1513 C   0  0  1  0  0  0  0  0  0  0  0  0
   16.4808   -8.4704  -17.4587 C   0  0  0  0  0  0  0  0  0  0  0  0
   15.6630   -8.7462  -19.0590 S   0  0  0  0  0  0  0  0  0  0  0  0
   18.3466   -9.4734  -16.1398 C   0  0  0  0  0  0  0  0  0  0  0  0
   17.9814   -9.3353  -14.9477 O   0  0  0  0  0  0  0  0  0  0  0  0
   23.0177  -10.2480  -13.4781 C   0  0  0  0  0  0  0  0  0  0  0  0
   23.0661  -10.1446  -14.9600 C   0  0  1  0  0  0  0  0  0  0  0  0
   24.0114  -11.2469  -15.4630 C   0  0  0  0  0  0  0  0  0  0  0  0
   21.7962  -10.1304  -15.6969 C   0  0  0  0  0  0  0  0  0  0  0  0
   20.7673   -9.0975  -15.4537 C   0  0  2  0  0  0  0  0  0  0  0  0
   19.7149   -9.4026  -16.4817 N   0  0  0  0  0  0  0  0  0  0  0  0
   21.0873   -7.6949  -15.6366 C   0  0  0  0  0  0  0  0  0  0  0  0
   21.5255   -7.2825  -16.7693 O   0  0  0  0  0  0  0  0  0  0  0  0
   19.1196   -4.8861  -16.0283 C   0  0  0  0  0  0  0  0  0  0  0  0
   20.0681   -4.4596  -14.9489 C   0  0  1  0  0  0  0  0  0  0  0  0
   19.3687   -4.5611  -13.7244 O   0  0  0  0  0  0  0  0  0  0  0  0
   21.3197   -5.3168  -14.8645 C   0  0  2  0  0  0  0  0  0  0  0  0
   20.9430   -6.7042  -14.6427 N   0  0  0  0  0  0  0  0  0  0  0  0
   22.3081   -4.7770  -13.9383 C   0  0  0  0  0  0  0  0  0  0  0  0
   22.7492   -5.3063  -12.8954 O   0  0  0  0  0  0  0  0  0  0  0  0
   22.8463   -3.5134  -14.2291 O   0  0  0  0  0  0  0  0  0  0  0  0
  2  1  1  1
  2  3  1  0
  2  5  1  0
  3  4  1  0
  5 12  1  0
  5  6  2  0
  8  7  1  1
  8 10  1  0
  8  9  1  0
 11 10  1  6
 11 13  1  0
 12 11  1  0
 13 19  1  0
 13 14  2  0
 16 15  1  6
 16 18  1  0
 17 16  1  0
 18 20  1  0
 18 19  1  1
 20 22  1  0
 21 20  2  0
M  END
$$$$
