CLT.pdb
     RDKit          3D

 22 21  0  0  1  0  0  0  0  0999 V2000
   18.3644  -11.7111  -17.5119 N   0  0  0  0  0  0  0  0  0  0  0  0
   18.9191  -10.4381  -17.9424 C   0  0  1  0  0  0  0  0  0  0  0  0
   17.8117   -9.5120  -18.3833 C   0  0  0  0  0  0  0  0  0  0  0  0
   17.2063  -10.1254  -19.9842 S   0  0  0  0  0  0  0  0  0  0  0  0
   19.7061   -9.8969  -16.8053 C   0  0  0  0  0  0  0  0  0  0  0  0
   19.1393   -9.8494  -15.6873 O   0  0  0  0  0  0  0  0  0  0  0  0
   24.6021  -11.6765  -15.4043 C   0  0  0  0  0  0  0  0  0  0  0  0
   23.2849  -11.0034  -15.2586 C   0  0  1  0  0  0  0  0  0  0  0  0
   22.9483  -10.9806  -13.7594 C   0  0  0  0  0  0  0  0  0  0  0  0
   23.1051   -9.6867  -15.8830 C   0  0  0  0  0  0  0  0  0  0  0  0
   21.8309   -8.9447  -15.7805 C   0  0  2  0  0  0  0  0  0  0  0  0
   21.0370   -9.4484  -16.9525 N   0  0  0  0  0  0  0  0  0  0  0  0
   21.8191   -7.4995  -15.9016 C   0  0  0  0  0  0  0  0  0  0  0  0
   22.2557   -6.9450  -16.9726 O   0  0  0  0  0  0  0  0  0  0  0  0
   19.1640   -5.3151  -16.3606 C   0  0  0  0  0  0  0  0  0  0  0  0
   19.9106   -4.6796  -15.2269 C   0  0  1  0  0  0  0  0  0  0  0  0
   19.2066   -4.9974  -14.0428 O   0  0  0  0  0  0  0  0  0  0  0  0
   21.3409   -5.1727  -15.0875 C   0  0  2  0  0  0  0  0  0  0  0  0
   21.3409   -6.6166  -14.9107 N   0  0  0  0  0  0  0  0  0  0  0  0
   22.1009   -4.4175  -14.0985 C   0  0  0  0  0  0  0  0  0  0  0  0
   22.3340   -3.1895  -14.0866 O   0  0  0  0  0  0  0  0  0  0  0  0
   22.6466   -5.1297  -13.0187 O   0  0  0  0  0  0  0  0  0  0  0  0
  2  1  1  1
  2  3  1  0
  2  5  1  0
  3  4  1  0
  5 12  1  0
  5  6  2  0
  8  7  1  1
  8 10  1  0
  8  9  1  0
 11 10  1  6
 11 13  1  0
 12 11  1  0
 13 19  1  0
 13 14  2  0
 16 15  1  6
 16 18  1  0
 17 16  1  0
 18 20  1  0
 18 19  1  1
 20 22  1  0
 21 20  2  0
M  END
$$$$
