CLT.pdb
     RDKit          3D

 22 21  0  0  1  0  0  0  0  0999 V2000
   16.1000  -10.5507  -16.0739 N   0  0  0  0  0  0  0  0  0  0  0  0
   17.0033   -9.6007  -16.7024 C   0  0  1  0  0  0  0  0  0  0  0  0
   16.2317   -8.4038  -17.2028 C   0  0  0  0  0  0  0  0  0  0  0  0
   15.3106   -8.9385  -18.6763 S   0  0  0  0  0  0  0  0  0  0  0  0
   18.0332   -9.2435  -15.6940 C   0  0  0  0  0  0  0  0  0  0  0  0
   17.6752   -9.2226  -14.4920 O   0  0  0  0  0  0  0  0  0  0  0  0
   22.5008   -9.5087  -12.7955 C   0  0  0  0  0  0  0  0  0  0  0  0
   22.6019   -9.6155  -14.2745 C   0  0  1  0  0  0  0  0  0  0  0  0
   23.5116  -10.8148  -14.5835 C   0  0  0  0  0  0  0  0  0  0  0  0
   21.3585   -9.6527  -15.0546 C   0  0  0  0  0  0  0  0  0  0  0  0
   20.3832   -8.5427  -15.0169 C   0  0  2  0  0  0  0  0  0  0  0  0
   19.3649   -8.9361  -16.0494 N   0  0  0  0  0  0  0  0  0  0  0  0
   20.7955   -7.1997  -15.3769 C   0  0  0  0  0  0  0  0  0  0  0  0
   21.3653   -6.9879  -16.5063 O   0  0  0  0  0  0  0  0  0  0  0  0
   18.8785   -4.0833  -15.9338 C   0  0  0  0  0  0  0  0  0  0  0  0
   19.9566   -3.7517  -14.9467 C   0  0  1  0  0  0  0  0  0  0  0  0
   19.3554   -3.7521  -13.6671 O   0  0  0  0  0  0  0  0  0  0  0  0
   21.1054   -4.7459  -14.9428 C   0  0  2  0  0  0  0  0  0  0  0  0
   20.6078   -6.0601  -14.5668 N   0  0  0  0  0  0  0  0  0  0  0  0
   22.2575   -4.2691  -14.1871 C   0  0  0  0  0  0  0  0  0  0  0  0
   22.7784   -4.7884  -13.1765 O   0  0  0  0  0  0  0  0  0  0  0  0
   22.8763   -3.0877  -14.6259 O   0  0  0  0  0  0  0  0  0  0  0  0
  2  1  1  1
  2  3  1  0
  2  5  1  0
  3  4  1  0
  5 12  1  0
  5  6  2  0
  8  7  1  1
  8 10  1  0
  8  9  1  0
 11 10  1  6
 11 13  1  0
 12 11  1  0
 13 19  1  0
 13 14  2  0
 16 15  1  6
 16 18  1  0
 17 16  1  0
 18 20  1  0
 18 19  1  1
 20 22  1  0
 21 20  2  0
M  END
$$$$
