CLT.pdb
     RDKit          3D

 22 21  0  0  1  0  0  0  0  0999 V2000
   27.7688  -17.4735  -16.7175 N   0  0  0  0  0  0  0  0  0  0  0  0
   27.0037  -17.1082  -15.5366 C   0  0  1  0  0  0  0  0  0  0  0  0
   26.0538  -15.9811  -15.8617 C   0  0  0  0  0  0  0  0  0  0  0  0
   26.7800  -14.4573  -15.1861 S   0  0  0  0  0  0  0  0  0  0  0  0
   26.3073  -18.3341  -15.0701 C   0  0  0  0  0  0  0  0  0  0  0  0
   25.9656  -19.1665  -15.9440 O   0  0  0  0  0  0  0  0  0  0  0  0
   25.8897  -22.4267  -11.2836 C   0  0  0  0  0  0  0  0  0  0  0  0
   25.4163  -21.0564  -10.9562 C   0  0  1  0  0  0  0  0  0  0  0  0
   25.7583  -20.7966   -9.4808 C   0  0  0  0  0  0  0  0  0  0  0  0
   25.8410  -19.9496  -11.8225 C   0  0  0  0  0  0  0  0  0  0  0  0
   25.4348  -19.8726  -13.2416 C   0  0  2  0  0  0  0  0  0  0  0  0
   26.0302  -18.5737  -13.7064 N   0  0  0  0  0  0  0  0  0  0  0  0
   24.0297  -19.7983  -13.5930 C   0  0  0  0  0  0  0  0  0  0  0  0
   23.3701  -18.7226  -13.3627 O   0  0  0  0  0  0  0  0  0  0  0  0
   20.1361  -21.5056  -16.1634 C   0  0  0  0  0  0  0  0  0  0  0  0
   21.5913  -21.4740  -15.8055 C   0  0  1  0  0  0  0  0  0  0  0  0
   22.2617  -20.8291  -16.8700 O   0  0  0  0  0  0  0  0  0  0  0  0
   21.8857  -20.7202  -14.5197 C   0  0  2  0  0  0  0  0  0  0  0  0
   23.2995  -20.8419  -14.1993 N   0  0  0  0  0  0  0  0  0  0  0  0
   20.9644  -21.0651  -13.4435 C   0  0  0  0  0  0  0  0  0  0  0  0
   19.8640  -20.5348  -13.1784 O   0  0  0  0  0  0  0  0  0  0  0  0
   21.3317  -22.1160  -12.5880 O   0  0  0  0  0  0  0  0  0  0  0  0
  2  1  1  6
  2  3  1  0
  2  5  1  0
  3  4  1  0
  5 12  1  0
  5  6  2  0
  8  7  1  6
  8 10  1  0
  8  9  1  0
 11 10  1  1
 11 13  1  0
 12 11  1  0
 13 19  1  0
 13 14  2  0
 16 15  1  6
 16 18  1  0
 17 16  1  0
 18 20  1  0
 18 19  1  1
 20 22  1  0
 21 20  2  0
M  END
$$$$
