WNV.pdb
     RDKit          3D

 30 31  0  0  1  0  0  0  0  0999 V2000
   24.0679  -19.7396  -11.6354 N   0  0  0  0  0  0  0  0  0  0  0  0
   25.4771  -19.7932  -11.8194 C   0  0  1  0  0  0  0  0  0  0  0  0
   26.1670  -20.9376  -11.1366 C   0  0  0  0  0  0  0  0  0  0  0  0
   26.2288  -20.8339   -9.6707 C   0  0  0  0  0  0  0  0  0  0  0  0
   25.1896  -21.0645   -8.7641 C   0  0  0  0  0  0  0  0  0  0  0  0
   25.6302  -20.8841   -7.5232 N   0  0  0  0  0  0  0  0  0  0  0  0
   26.9275  -20.5394   -7.5469 C   0  0  0  0  0  0  0  0  0  0  0  0
   27.7859  -20.2548   -6.5096 C   0  0  0  0  0  0  0  0  0  0  0  0
   29.0895  -19.9181   -6.7914 C   0  0  0  0  0  0  0  0  0  0  0  0
   29.5024  -19.8731   -8.0886 C   0  0  0  0  0  0  0  0  0  0  0  0
   28.6188  -20.1647   -9.1317 C   0  0  0  0  0  0  0  0  0  0  0  0
   27.3081  -20.5057   -8.8778 C   0  0  0  0  0  0  0  0  0  0  0  0
   25.8388  -19.7360  -13.2739 C   0  0  0  0  0  0  0  0  0  0  0  0
   25.4031  -20.5807  -14.0740 O   0  0  0  0  0  0  0  0  0  0  0  0
   28.9608  -16.5312  -17.3211 N   0  0  0  0  0  0  0  0  0  0  0  0
   27.6404  -16.8094  -16.8267 C   0  0  0  0  0  0  0  0  0  0  0  0
   26.7503  -16.8678  -17.7115 O   0  0  0  0  0  0  0  0  0  0  0  0
   27.4162  -17.0012  -15.3844 C   0  0  0  0  0  0  0  0  0  0  0  0
   26.9409  -18.4300  -15.1534 C   0  0  2  0  0  0  0  0  0  0  0  0
   26.6889  -18.7074  -13.7558 N   0  0  0  0  0  0  0  0  0  0  0  0
   27.8571  -19.4220  -15.7489 C   0  0  0  0  0  0  0  0  0  0  0  0
   29.0213  -19.5960  -15.3088 O   0  0  0  0  0  0  0  0  0  0  0  0
   26.5447  -22.6357  -18.0342 C   0  0  0  0  0  0  0  0  0  0  0  0
   27.9105  -22.5616  -17.3844 C   0  0  2  0  0  0  0  0  0  0  0  0
   27.8144  -23.0346  -15.9658 C   0  0  0  0  0  0  0  0  0  0  0  0
   28.4131  -21.1407  -17.5137 C   0  0  2  0  0  0  0  0  0  0  0  0
   27.4805  -20.2502  -16.8645 N   0  0  0  0  0  0  0  0  0  0  0  0
   28.6634  -20.7577  -18.9242 C   0  0  0  0  0  0  0  0  0  0  0  0
   27.8594  -20.0691  -19.6065 O   0  0  0  0  0  0  0  0  0  0  0  0
   29.8278  -21.1532  -19.5725 O   0  0  0  0  0  0  0  0  0  0  0  0
  2  1  1  6
  2 13  1  0
  2  3  1  0
  3  4  1  0
  4  5  2  0
  6  5  1  0
  7  6  1  0
  8  7  2  0
  9  8  1  0
 10 11  1  0
 10  9  2  0
 11 12  2  0
 12  7  1  0
 12  4  1  0
 13 14  2  0
 16 15  1  0
 17 16  2  0
 18 16  1  0
 19 18  1  1
 19 21  1  0
 20 19  1  0
 20 13  1  0
 21 22  2  0
 24 23  1  1
 24 26  1  0
 25 24  1  0
 26 28  1  0
 27 21  1  0
 26 27  1  6
 28 29  2  0
 28 30  1  0
M  END
$$$$
