WNV.pdb
     RDKit          3D

 30 31  0  0  1  0  0  0  0  0999 V2000
   27.8583  -22.1645  -13.2053 N   0  0  0  0  0  0  0  0  0  0  0  0
   26.7221  -21.6842  -12.4973 C   0  0  1  0  0  0  0  0  0  0  0  0
   26.9249  -20.3882  -11.7686 C   0  0  0  0  0  0  0  0  0  0  0  0
   27.9156  -20.4404  -10.6826 C   0  0  0  0  0  0  0  0  0  0  0  0
   29.3066  -20.5006  -10.8118 C   0  0  0  0  0  0  0  0  0  0  0  0
   29.8673  -20.5216   -9.6070 N   0  0  0  0  0  0  0  0  0  0  0  0
   28.9152  -20.4785   -8.6615 C   0  0  0  0  0  0  0  0  0  0  0  0
   29.0300  -20.4830   -7.2901 C   0  0  0  0  0  0  0  0  0  0  0  0
   27.8899  -20.4357   -6.5219 C   0  0  0  0  0  0  0  0  0  0  0  0
   26.6738  -20.3858   -7.1333 C   0  0  0  0  0  0  0  0  0  0  0  0
   26.5731  -20.3820   -8.5275 C   0  0  0  0  0  0  0  0  0  0  0  0
   27.6987  -20.4279   -9.3210 C   0  0  0  0  0  0  0  0  0  0  0  0
   25.5146  -21.6205  -13.3847 C   0  0  0  0  0  0  0  0  0  0  0  0
   25.4691  -20.8343  -14.3457 O   0  0  0  0  0  0  0  0  0  0  0  0
   24.5496  -24.4713  -15.3656 N   0  0  0  0  0  0  0  0  0  0  0  0
   23.3557  -24.8995  -14.6899 C   0  0  0  0  0  0  0  0  0  0  0  0
   23.0698  -26.1127  -14.8480 O   0  0  0  0  0  0  0  0  0  0  0  0
   22.5745  -23.9415  -13.8905 C   0  0  0  0  0  0  0  0  0  0  0  0
   23.2386  -22.5739  -13.9875 C   0  0  2  0  0  0  0  0  0  0  0  0
   24.4023  -22.4650  -13.1346 N   0  0  0  0  0  0  0  0  0  0  0  0
   22.2827  -21.4754  -13.7474 C   0  0  0  0  0  0  0  0  0  0  0  0
   22.0145  -21.0728  -12.5875 O   0  0  0  0  0  0  0  0  0  0  0  0
   19.9848  -17.4923  -15.3840 C   0  0  0  0  0  0  0  0  0  0  0  0
   20.8052  -18.7163  -15.7327 C   0  0  2  0  0  0  0  0  0  0  0  0
   20.3314  -19.2791  -17.0381 C   0  0  0  0  0  0  0  0  0  0  0  0
   20.7009  -19.6923  -14.5817 C   0  0  2  0  0  0  0  0  0  0  0  0
   21.5998  -20.7970  -14.8178 N   0  0  0  0  0  0  0  0  0  0  0  0
   19.3076  -20.1441  -14.3506 C   0  0  0  0  0  0  0  0  0  0  0  0
   18.8241  -21.1861  -14.8670 O   0  0  0  0  0  0  0  0  0  0  0  0
   18.4510  -19.4172  -13.5317 O   0  0  0  0  0  0  0  0  0  0  0  0
  2  1  1  6
  2 13  1  0
  2  3  1  0
  3  4  1  0
  4  5  2  0
  6  5  1  0
  7  6  1  0
  8  7  2  0
  9  8  1  0
 10 11  1  0
 10  9  2  0
 11 12  2  0
 12  7  1  0
 12  4  1  0
 13 14  2  0
 16 15  1  0
 17 16  2  0
 18 16  1  0
 19 18  1  1
 19 21  1  0
 20 19  1  0
 20 13  1  0
 21 22  2  0
 24 23  1  1
 24 26  1  0
 25 24  1  0
 26 28  1  0
 27 21  1  0
 26 27  1  6
 28 29  2  0
 28 30  1  0
M  END
$$$$
