WNV.pdb
     RDKit          3D

 30 31  0  0  1  0  0  0  0  0999 V2000
   28.0948  -20.4461   -9.9800 N   0  0  0  0  0  0  0  0  0  0  0  0
   26.7962  -20.9900   -9.7788 C   0  0  1  0  0  0  0  0  0  0  0  0
   26.1156  -20.5656   -8.5105 C   0  0  0  0  0  0  0  0  0  0  0  0
   27.0068  -19.9725   -7.5018 C   0  0  0  0  0  0  0  0  0  0  0  0
   27.3011  -18.6166   -7.3288 C   0  0  0  0  0  0  0  0  0  0  0  0
   28.1366  -18.4671   -6.3060 N   0  0  0  0  0  0  0  0  0  0  0  0
   28.4243  -19.6660   -5.7748 C   0  0  0  0  0  0  0  0  0  0  0  0
   29.2393  -19.9909   -4.7145 C   0  0  0  0  0  0  0  0  0  0  0  0
   29.3788  -21.3117   -4.3565 C   0  0  0  0  0  0  0  0  0  0  0  0
   28.7091  -22.2683   -5.0576 C   0  0  0  0  0  0  0  0  0  0  0  0
   27.8848  -21.9229   -6.1323 C   0  0  0  0  0  0  0  0  0  0  0  0
   27.7264  -20.6079   -6.5119 C   0  0  0  0  0  0  0  0  0  0  0  0
   25.9154  -20.7510  -10.9691 C   0  0  0  0  0  0  0  0  0  0  0  0
   26.0429  -19.7282  -11.6628 O   0  0  0  0  0  0  0  0  0  0  0  0
   26.2564  -23.6206  -14.3370 N   0  0  0  0  0  0  0  0  0  0  0  0
   25.1989  -22.6482  -14.3014 C   0  0  0  0  0  0  0  0  0  0  0  0
   25.3284  -21.7020  -15.1178 O   0  0  0  0  0  0  0  0  0  0  0  0
   24.0796  -22.8072  -13.3585 C   0  0  0  0  0  0  0  0  0  0  0  0
   24.0295  -21.5823  -12.4542 C   0  0  2  0  0  0  0  0  0  0  0  0
   24.9195  -21.6990  -11.3192 N   0  0  0  0  0  0  0  0  0  0  0  0
   22.6520  -21.2588  -12.0350 C   0  0  0  0  0  0  0  0  0  0  0  0
   22.1360  -21.7666  -11.0077 O   0  0  0  0  0  0  0  0  0  0  0  0
   20.1434  -18.5463  -14.2742 C   0  0  0  0  0  0  0  0  0  0  0  0
   20.1499  -18.6070  -12.7611 C   0  0  2  0  0  0  0  0  0  0  0  0
   21.1196  -17.5979  -12.2255 C   0  0  0  0  0  0  0  0  0  0  0  0
   20.4699  -20.0276  -12.3517 C   0  0  2  0  0  0  0  0  0  0  0  0
   21.8146  -20.3466  -12.7691 N   0  0  0  0  0  0  0  0  0  0  0  0
   19.4776  -21.0003  -12.8693 C   0  0  0  0  0  0  0  0  0  0  0  0
   18.3153  -21.1186  -12.3990 O   0  0  0  0  0  0  0  0  0  0  0  0
   19.7957  -21.8472  -13.9249 O   0  0  0  0  0  0  0  0  0  0  0  0
  2  1  1  6
  2 13  1  0
  2  3  1  0
  3  4  1  0
  4  5  2  0
  6  5  1  0
  7  6  1  0
  8  7  2  0
  9  8  1  0
 10 11  1  0
 10  9  2  0
 11 12  2  0
 12  7  1  0
 12  4  1  0
 13 14  2  0
 16 15  1  0
 17 16  2  0
 18 16  1  0
 19 18  1  1
 19 21  1  0
 20 19  1  0
 20 13  1  0
 21 22  2  0
 24 23  1  6
 24 26  1  0
 25 24  1  0
 26 28  1  0
 27 21  1  0
 26 27  1  6
 28 29  2  0
 28 30  1  0
M  END
$$$$
