WNV.pdb
     RDKit          3D

 30 31  0  0  1  0  0  0  0  0999 V2000
   26.1769  -22.4648  -13.5056 N   0  0  0  0  0  0  0  0  0  0  0  0
   25.7019  -21.4085  -12.6803 C   0  0  1  0  0  0  0  0  0  0  0  0
   26.3994  -20.0925  -12.8632 C   0  0  0  0  0  0  0  0  0  0  0  0
   27.8405  -20.1128  -12.5695 C   0  0  0  0  0  0  0  0  0  0  0  0
   28.8726  -19.6204  -13.3743 C   0  0  0  0  0  0  0  0  0  0  0  0
   30.0405  -19.8063  -12.7677 N   0  0  0  0  0  0  0  0  0  0  0  0
   29.8468  -20.4058  -11.5822 C   0  0  0  0  0  0  0  0  0  0  0  0
   30.7590  -20.7906  -10.6263 C   0  0  0  0  0  0  0  0  0  0  0  0
   30.3098  -21.4001   -9.4779 C   0  0  0  0  0  0  0  0  0  0  0  0
   28.9744  -21.6098   -9.3113 C   0  0  0  0  0  0  0  0  0  0  0  0
   28.0597  -21.2135  -10.2912 C   0  0  0  0  0  0  0  0  0  0  0  0
   28.4821  -20.6003  -11.4505 C   0  0  0  0  0  0  0  0  0  0  0  0
   24.2150  -21.2515  -12.7986 C   0  0  0  0  0  0  0  0  0  0  0  0
   23.6023  -21.6961  -13.7838 O   0  0  0  0  0  0  0  0  0  0  0  0
   19.6893  -21.7207   -9.6786 N   0  0  0  0  0  0  0  0  0  0  0  0
   20.1372  -20.4409  -10.1551 C   0  0  0  0  0  0  0  0  0  0  0  0
   19.2160  -19.6363  -10.4425 O   0  0  0  0  0  0  0  0  0  0  0  0
   21.5771  -20.1586  -10.2732 C   0  0  0  0  0  0  0  0  0  0  0  0
   22.0439  -20.5902  -11.6576 C   0  0  2  0  0  0  0  0  0  0  0  0
   23.4859  -20.5888  -11.7777 N   0  0  0  0  0  0  0  0  0  0  0  0
   21.4074  -19.7992  -12.7287 C   0  0  0  0  0  0  0  0  0  0  0  0
   21.8068  -18.6454  -13.0262 O   0  0  0  0  0  0  0  0  0  0  0  0
   21.4428  -20.5446  -16.0868 C   0  0  0  0  0  0  0  0  0  0  0  0
   19.9528  -20.3707  -15.8802 C   0  0  2  0  0  0  0  0  0  0  0  0
   19.3509  -19.7376  -17.0978 C   0  0  0  0  0  0  0  0  0  0  0  0
   19.7470  -19.5645  -14.6169 C   0  0  2  0  0  0  0  0  0  0  0  0
   20.2957  -20.2935  -13.4982 N   0  0  0  0  0  0  0  0  0  0  0  0
   18.3249  -19.2019  -14.4053 C   0  0  0  0  0  0  0  0  0  0  0  0
   17.4859  -19.9759  -13.8732 O   0  0  0  0  0  0  0  0  0  0  0  0
   17.8425  -17.9579  -14.7959 O   0  0  0  0  0  0  0  0  0  0  0  0
  2  1  1  6
  2 13  1  0
  2  3  1  0
  3  4  1  0
  4  5  2  0
  6  5  1  0
  7  6  1  0
  8  7  2  0
  9  8  1  0
 10 11  1  0
 10  9  2  0
 11 12  2  0
 12  7  1  0
 12  4  1  0
 13 14  2  0
 16 15  1  0
 17 16  2  0
 18 16  1  0
 19 18  1  1
 19 21  1  0
 20 19  1  0
 20 13  1  0
 21 22  2  0
 24 23  1  6
 24 26  1  0
 25 24  1  0
 26 28  1  0
 27 21  1  0
 26 27  1  1
 28 29  2  0
 28 30  1  0
M  END
$$$$
