WNV.pdb
     RDKit          3D

 30 31  0  0  1  0  0  0  0  0999 V2000
   23.9872  -19.9382  -16.1026 N   0  0  0  0  0  0  0  0  0  0  0  0
   23.9345  -20.7360  -14.9264 C   0  0  1  0  0  0  0  0  0  0  0  0
   24.9903  -20.4355  -13.9033 C   0  0  0  0  0  0  0  0  0  0  0  0
   26.3649  -20.4086  -14.4261 C   0  0  0  0  0  0  0  0  0  0  0  0
   27.3143  -19.3970  -14.2515 C   0  0  0  0  0  0  0  0  0  0  0  0
   28.4460  -19.7356  -14.8606 N   0  0  0  0  0  0  0  0  0  0  0  0
   28.3069  -20.9368  -15.4437 C   0  0  0  0  0  0  0  0  0  0  0  0
   29.2079  -21.6725  -16.1791 C   0  0  0  0  0  0  0  0  0  0  0  0
   28.8234  -22.8932  -16.6834 C   0  0  0  0  0  0  0  0  0  0  0  0
   27.5614  -23.3470  -16.4452 C   0  0  0  0  0  0  0  0  0  0  0  0
   26.6572  -22.5883  -15.6965 C   0  0  0  0  0  0  0  0  0  0  0  0
   27.0162  -21.3628  -15.1789 C   0  0  0  0  0  0  0  0  0  0  0  0
   22.5663  -20.7110  -14.3124 C   0  0  0  0  0  0  0  0  0  0  0  0
   22.1676  -19.7178  -13.6813 O   0  0  0  0  0  0  0  0  0  0  0  0
   19.7338  -19.6941  -16.7648 N   0  0  0  0  0  0  0  0  0  0  0  0
   19.4130  -20.1336  -15.4347 C   0  0  0  0  0  0  0  0  0  0  0  0
   19.2073  -19.2072  -14.6113 O   0  0  0  0  0  0  0  0  0  0  0  0
   19.3463  -21.5717  -15.1272 C   0  0  0  0  0  0  0  0  0  0  0  0
   20.3288  -21.8732  -14.0027 C   0  0  2  0  0  0  0  0  0  0  0  0
   21.7050  -21.8303  -14.4476 N   0  0  0  0  0  0  0  0  0  0  0  0
   20.0166  -23.1437  -13.3197 C   0  0  0  0  0  0  0  0  0  0  0  0
   20.3908  -24.2519  -13.7794 O   0  0  0  0  0  0  0  0  0  0  0  0
   17.2519  -23.4707  -10.0142 C   0  0  0  0  0  0  0  0  0  0  0  0
   18.6218  -24.1139   -9.9603 C   0  0  2  0  0  0  0  0  0  0  0  0
   19.5722  -23.2041   -9.2431 C   0  0  0  0  0  0  0  0  0  0  0  0
   19.0447  -24.4322  -11.3774 C   0  0  2  0  0  0  0  0  0  0  0  0
   19.2690  -23.1973  -12.0907 N   0  0  0  0  0  0  0  0  0  0  0  0
   18.0728  -25.3110  -12.0716 C   0  0  0  0  0  0  0  0  0  0  0  0
   17.1724  -24.8765  -12.8375 O   0  0  0  0  0  0  0  0  0  0  0  0
   18.1141  -26.6902  -11.9024 O   0  0  0  0  0  0  0  0  0  0  0  0
  2  1  1  6
  2 13  1  0
  2  3  1  0
  3  4  1  0
  4  5  2  0
  6  5  1  0
  7  6  1  0
  8  7  2  0
  9  8  1  0
 10 11  1  0
 10  9  2  0
 11 12  2  0
 12  7  1  0
 12  4  1  0
 13 14  2  0
 16 15  1  0
 17 16  2  0
 18 16  1  0
 19 18  1  6
 19 21  1  0
 20 19  1  0
 20 13  1  0
 21 22  2  0
 24 23  1  6
 24 26  1  0
 25 24  1  0
 26 28  1  0
 27 21  1  0
 26 27  1  6
 28 29  2  0
 28 30  1  0
M  END
$$$$
