WNV.pdb
     RDKit          3D

 30 31  0  0  1  0  0  0  0  0999 V2000
   24.2898  -16.4994  -17.2349 N   0  0  0  0  0  0  0  0  0  0  0  0
   25.1025  -17.4676  -16.5832 C   0  0  1  0  0  0  0  0  0  0  0  0
   26.4776  -16.9987  -16.2080 C   0  0  0  0  0  0  0  0  0  0  0  0
   27.4133  -16.8688  -17.3355 C   0  0  0  0  0  0  0  0  0  0  0  0
   28.2250  -17.8698  -17.8778 C   0  0  0  0  0  0  0  0  0  0  0  0
   28.9237  -17.3769  -18.8954 N   0  0  0  0  0  0  0  0  0  0  0  0
   28.6217  -16.0803  -19.0686 C   0  0  0  0  0  0  0  0  0  0  0  0
   29.0996  -15.1765  -19.9899 C   0  0  0  0  0  0  0  0  0  0  0  0
   28.6330  -13.8828  -19.9640 C   0  0  0  0  0  0  0  0  0  0  0  0
   27.7099  -13.5240  -19.0289 C   0  0  0  0  0  0  0  0  0  0  0  0
   27.2339  -14.4533  -18.0994 C   0  0  0  0  0  0  0  0  0  0  0  0
   27.6835  -15.7557  -18.1033 C   0  0  0  0  0  0  0  0  0  0  0  0
   24.3962  -18.0658  -15.4029 C   0  0  0  0  0  0  0  0  0  0  0  0
   24.0625  -17.3624  -14.4347 O   0  0  0  0  0  0  0  0  0  0  0  0
   21.0047  -19.5418  -13.6762 N   0  0  0  0  0  0  0  0  0  0  0  0
   21.2136  -20.8105  -14.3181 C   0  0  0  0  0  0  0  0  0  0  0  0
   20.1636  -21.4605  -14.5497 O   0  0  0  0  0  0  0  0  0  0  0  0
   22.5767  -21.2548  -14.6520 C   0  0  0  0  0  0  0  0  0  0  0  0
   23.5567  -20.1631  -14.2414 C   0  0  2  0  0  0  0  0  0  0  0  0
   24.0983  -19.4527  -15.3797 N   0  0  0  0  0  0  0  0  0  0  0  0
   24.6246  -20.6788  -13.3628 C   0  0  0  0  0  0  0  0  0  0  0  0
   25.6840  -21.1705  -13.8269 O   0  0  0  0  0  0  0  0  0  0  0  0
   24.1394  -20.7652   -9.0874 C   0  0  0  0  0  0  0  0  0  0  0  0
   25.5096  -20.7299   -9.7313 C   0  0  2  0  0  0  0  0  0  0  0  0
   25.9857  -19.3115   -9.8134 C   0  0  0  0  0  0  0  0  0  0  0  0
   25.4110  -21.4121  -11.0778 C   0  0  2  0  0  0  0  0  0  0  0  0
   24.5246  -20.6523  -11.9270 N   0  0  0  0  0  0  0  0  0  0  0  0
   24.9952  -22.8307  -10.9617 C   0  0  0  0  0  0  0  0  0  0  0  0
   23.8173  -23.2250  -11.1696 O   0  0  0  0  0  0  0  0  0  0  0  0
   25.9124  -23.8138  -10.6083 O   0  0  0  0  0  0  0  0  0  0  0  0
  2  1  1  1
  2 13  1  0
  2  3  1  0
  3  4  1  0
  4  5  2  0
  6  5  1  0
  7  6  1  0
  8  7  2  0
  9  8  1  0
 10 11  1  0
 10  9  2  0
 11 12  2  0
 12  7  1  0
 12  4  1  0
 13 14  2  0
 16 15  1  0
 17 16  2  0
 18 16  1  0
 19 18  1  6
 19 21  1  0
 20 19  1  0
 20 13  1  0
 21 22  2  0
 24 23  1  6
 24 26  1  0
 25 24  1  0
 26 28  1  0
 27 21  1  0
 26 27  1  6
 28 29  2  0
 28 30  1  0
M  END
$$$$
