WNV.pdb
     RDKit          3D

 30 31  0  0  1  0  0  0  0  0999 V2000
   28.2368  -22.2033  -10.9105 N   0  0  0  0  0  0  0  0  0  0  0  0
   27.1961  -21.3326  -10.4844 C   0  0  1  0  0  0  0  0  0  0  0  0
   27.6449  -20.1444   -9.6853 C   0  0  0  0  0  0  0  0  0  0  0  0
   28.4464  -20.4692   -8.4955 C   0  0  0  0  0  0  0  0  0  0  0  0
   29.6739  -21.1379   -8.4619 C   0  0  0  0  0  0  0  0  0  0  0  0
   30.0969  -21.2340   -7.2056 N   0  0  0  0  0  0  0  0  0  0  0  0
   29.2074  -20.6585   -6.3810 C   0  0  0  0  0  0  0  0  0  0  0  0
   29.2281  -20.5258   -5.0114 C   0  0  0  0  0  0  0  0  0  0  0  0
   28.1824  -19.8898   -4.3836 C   0  0  0  0  0  0  0  0  0  0  0  0
   27.1502  -19.4060   -5.1291 C   0  0  0  0  0  0  0  0  0  0  0  0
   27.1431  -19.5484   -6.5197 C   0  0  0  0  0  0  0  0  0  0  0  0
   28.1779  -20.1803   -7.1742 C   0  0  0  0  0  0  0  0  0  0  0  0
   26.3321  -20.9123  -11.6362 C   0  0  0  0  0  0  0  0  0  0  0  0
   26.7914  -20.2192  -12.5594 O   0  0  0  0  0  0  0  0  0  0  0  0
   23.1550  -24.2626  -13.2084 N   0  0  0  0  0  0  0  0  0  0  0  0
   24.2829  -23.3753  -13.2838 C   0  0  0  0  0  0  0  0  0  0  0  0
   25.3479  -23.8386  -12.8046 O   0  0  0  0  0  0  0  0  0  0  0  0
   24.1350  -22.0411  -13.8881 C   0  0  0  0  0  0  0  0  0  0  0  0
   24.0614  -21.0082  -12.7708 C   0  0  2  0  0  0  0  0  0  0  0  0
   24.9699  -21.3059  -11.6847 N   0  0  0  0  0  0  0  0  0  0  0  0
   22.6808  -20.8119  -12.2876 C   0  0  0  0  0  0  0  0  0  0  0  0
   22.2617  -21.3632  -11.2388 O   0  0  0  0  0  0  0  0  0  0  0  0
   19.7149  -18.6870  -14.6003 C   0  0  0  0  0  0  0  0  0  0  0  0
   19.7906  -18.5594  -13.0933 C   0  0  2  0  0  0  0  0  0  0  0  0
   20.5970  -17.3484  -12.7351 C   0  0  0  0  0  0  0  0  0  0  0  0
   20.3606  -19.8481  -12.5432 C   0  0  2  0  0  0  0  0  0  0  0  0
   21.7300  -19.9818  -12.9800 N   0  0  0  0  0  0  0  0  0  0  0  0
   19.5394  -21.0280  -12.9069 C   0  0  0  0  0  0  0  0  0  0  0  0
   18.4294  -21.2890  -12.3723 O   0  0  0  0  0  0  0  0  0  0  0  0
   19.9709  -21.9219  -13.8803 O   0  0  0  0  0  0  0  0  0  0  0  0
  2  1  1  6
  2 13  1  0
  2  3  1  0
  3  4  1  0
  4  5  2  0
  6  5  1  0
  7  6  1  0
  8  7  2  0
  9  8  1  0
 10 11  1  0
 10  9  2  0
 11 12  2  0
 12  7  1  0
 12  4  1  0
 13 14  2  0
 16 15  1  0
 17 16  2  0
 18 16  1  0
 19 18  1  6
 19 21  1  0
 20 19  1  0
 20 13  1  0
 21 22  2  0
 24 23  1  6
 24 26  1  0
 25 24  1  0
 26 28  1  0
 27 21  1  0
 26 27  1  6
 28 29  2  0
 28 30  1  0
M  END
$$$$
