WNV.pdb
     RDKit          3D

 30 31  0  0  1  0  0  0  0  0999 V2000
   28.4769  -22.2175  -10.3969 N   0  0  0  0  0  0  0  0  0  0  0  0
   27.3527  -21.3934  -10.1146 C   0  0  1  0  0  0  0  0  0  0  0  0
   27.6430  -20.1826   -9.2771 C   0  0  0  0  0  0  0  0  0  0  0  0
   28.5649  -20.4161   -8.1550 C   0  0  0  0  0  0  0  0  0  0  0  0
   29.7880  -21.0925   -8.1947 C   0  0  0  0  0  0  0  0  0  0  0  0
   30.3408  -21.0886   -6.9860 N   0  0  0  0  0  0  0  0  0  0  0  0
   29.5441  -20.4374   -6.1237 C   0  0  0  0  0  0  0  0  0  0  0  0
   29.7094  -20.1920   -4.7797 C   0  0  0  0  0  0  0  0  0  0  0  0
   28.7368  -19.4952   -4.1010 C   0  0  0  0  0  0  0  0  0  0  0  0
   27.6326  -19.0640   -4.7719 C   0  0  0  0  0  0  0  0  0  0  0  0
   27.4787  -19.3210   -6.1372 C   0  0  0  0  0  0  0  0  0  0  0  0
   28.4376  -20.0158   -6.8416 C   0  0  0  0  0  0  0  0  0  0  0  0
   26.6238  -21.0180  -11.3706 C   0  0  0  0  0  0  0  0  0  0  0  0
   27.2444  -20.7428  -12.4111 O   0  0  0  0  0  0  0  0  0  0  0  0
   23.2141  -23.9668  -14.6911 N   0  0  0  0  0  0  0  0  0  0  0  0
   23.9542  -22.7694  -14.4015 C   0  0  0  0  0  0  0  0  0  0  0  0
   23.9131  -21.8960  -15.3038 O   0  0  0  0  0  0  0  0  0  0  0  0
   24.6817  -22.6396  -13.1283 C   0  0  0  0  0  0  0  0  0  0  0  0
   24.3803  -21.2692  -12.5352 C   0  0  2  0  0  0  0  0  0  0  0  0
   25.2058  -20.9737  -11.3841 N   0  0  0  0  0  0  0  0  0  0  0  0
   22.9455  -21.0988  -12.2346 C   0  0  0  0  0  0  0  0  0  0  0  0
   22.4074  -21.6486  -11.2407 O   0  0  0  0  0  0  0  0  0  0  0  0
   20.2856  -18.9397  -14.8507 C   0  0  0  0  0  0  0  0  0  0  0  0
   20.2208  -18.7879  -13.3455 C   0  0  2  0  0  0  0  0  0  0  0  0
   21.0361  -17.6019  -12.9282 C   0  0  0  0  0  0  0  0  0  0  0  0
   20.6841  -20.0870  -12.7243 C   0  0  2  0  0  0  0  0  0  0  0  0
   22.0740  -20.2972  -13.0532 N   0  0  0  0  0  0  0  0  0  0  0  0
   19.8350  -21.2359  -13.1217 C   0  0  0  0  0  0  0  0  0  0  0  0
   20.1196  -22.0088  -14.0744 O   0  0  0  0  0  0  0  0  0  0  0  0
   18.6555  -21.5172  -12.4416 O   0  0  0  0  0  0  0  0  0  0  0  0
  2  1  1  6
  2 13  1  0
  2  3  1  0
  3  4  1  0
  4  5  2  0
  6  5  1  0
  7  6  1  0
  8  7  2  0
  9  8  1  0
 10 11  1  0
 10  9  2  0
 11 12  2  0
 12  7  1  0
 12  4  1  0
 13 14  2  0
 16 15  1  0
 17 16  2  0
 18 16  1  0
 19 18  1  1
 19 21  1  0
 20 19  1  0
 20 13  1  0
 21 22  2  0
 24 23  1  6
 24 26  1  0
 25 24  1  0
 26 28  1  0
 27 21  1  0
 26 27  1  6
 28 29  2  0
 28 30  1  0
M  END
$$$$
