WNV.pdb
     RDKit          3D

 30 31  0  0  1  0  0  0  0  0999 V2000
   28.0547  -22.2498  -14.0430 N   0  0  0  0  0  0  0  0  0  0  0  0
   26.9240  -21.8082  -13.3020 C   0  0  1  0  0  0  0  0  0  0  0  0
   27.0842  -20.4789  -12.6243 C   0  0  0  0  0  0  0  0  0  0  0  0
   27.9059  -20.5041  -11.4046 C   0  0  0  0  0  0  0  0  0  0  0  0
   29.2949  -20.6437  -11.3258 C   0  0  0  0  0  0  0  0  0  0  0  0
   29.6767  -20.6076  -10.0533 N   0  0  0  0  0  0  0  0  0  0  0  0
   28.6044  -20.4496   -9.2611 C   0  0  0  0  0  0  0  0  0  0  0  0
   28.5230  -20.3627   -7.8900 C   0  0  0  0  0  0  0  0  0  0  0  0
   27.2904  -20.2036   -7.3005 C   0  0  0  0  0  0  0  0  0  0  0  0
   26.1786  -20.1357   -8.0845 C   0  0  0  0  0  0  0  0  0  0  0  0
   26.2772  -20.2255   -9.4759 C   0  0  0  0  0  0  0  0  0  0  0  0
   27.4990  -20.3843  -10.0926 C   0  0  0  0  0  0  0  0  0  0  0  0
   25.6789  -21.8406  -14.1376 C   0  0  0  0  0  0  0  0  0  0  0  0
   25.6677  -21.3658  -15.2857 O   0  0  0  0  0  0  0  0  0  0  0  0
   20.2035  -24.4952  -14.5656 N   0  0  0  0  0  0  0  0  0  0  0  0
   21.4352  -23.9767  -15.0941 C   0  0  0  0  0  0  0  0  0  0  0  0
   21.3729  -23.5922  -16.2886 O   0  0  0  0  0  0  0  0  0  0  0  0
   22.6396  -23.9271  -14.2491 C   0  0  0  0  0  0  0  0  0  0  0  0
   23.2435  -22.5320  -14.3469 C   0  0  2  0  0  0  0  0  0  0  0  0
   24.4907  -22.4197  -13.6220 N   0  0  0  0  0  0  0  0  0  0  0  0
   22.2847  -21.4838  -13.9469 C   0  0  0  0  0  0  0  0  0  0  0  0
   22.0816  -21.1980  -12.7400 O   0  0  0  0  0  0  0  0  0  0  0  0
   21.8310  -18.0489  -15.6840 C   0  0  0  0  0  0  0  0  0  0  0  0
   20.4549  -18.6676  -15.5547 C   0  0  2  0  0  0  0  0  0  0  0  0
   19.4554  -17.5983  -15.2339 C   0  0  0  0  0  0  0  0  0  0  0  0
   20.5290  -19.7576  -14.5085 C   0  0  2  0  0  0  0  0  0  0  0  0
   21.5249  -20.7246  -14.9053 N   0  0  0  0  0  0  0  0  0  0  0  0
   19.2097  -20.3851  -14.2542 C   0  0  0  0  0  0  0  0  0  0  0  0
   18.7075  -21.2656  -15.0016 O   0  0  0  0  0  0  0  0  0  0  0  0
   18.4491  -20.0186  -13.1498 O   0  0  0  0  0  0  0  0  0  0  0  0
  2  1  1  6
  2 13  1  0
  2  3  1  0
  3  4  1  0
  4  5  2  0
  6  5  1  0
  7  6  1  0
  8  7  2  0
  9  8  1  0
 10 11  1  0
 10  9  2  0
 11 12  2  0
 12  7  1  0
 12  4  1  0
 13 14  2  0
 16 15  1  0
 17 16  2  0
 18 16  1  0
 19 18  1  1
 19 21  1  0
 20 19  1  0
 20 13  1  0
 21 22  2  0
 24 23  1  1
 24 26  1  0
 25 24  1  0
 26 28  1  0
 27 21  1  0
 26 27  1  6
 28 29  2  0
 28 30  1  0
M  END
$$$$
