WNV.pdb
     RDKit          3D

 30 31  0  0  1  0  0  0  0  0999 V2000
   27.9744  -21.6749  -14.6550 N   0  0  0  0  0  0  0  0  0  0  0  0
   26.8922  -21.4565  -13.7584 C   0  0  1  0  0  0  0  0  0  0  0  0
   26.9488  -20.1681  -12.9912 C   0  0  0  0  0  0  0  0  0  0  0  0
   27.6287  -20.2552  -11.6898 C   0  0  0  0  0  0  0  0  0  0  0  0
   29.0001  -20.4058  -11.4628 C   0  0  0  0  0  0  0  0  0  0  0  0
   29.2370  -20.4318  -10.1552 N   0  0  0  0  0  0  0  0  0  0  0  0
   28.0827  -20.3055   -9.4814 C   0  0  0  0  0  0  0  0  0  0  0  0
   27.8482  -20.2830   -8.1255 C   0  0  0  0  0  0  0  0  0  0  0  0
   26.5573  -20.1451   -7.6707 C   0  0  0  0  0  0  0  0  0  0  0  0
   25.5404  -20.0343   -8.5700 C   0  0  0  0  0  0  0  0  0  0  0  0
   25.7942  -20.0589   -9.9444 C   0  0  0  0  0  0  0  0  0  0  0  0
   27.0774  -20.1952  -10.4273 C   0  0  0  0  0  0  0  0  0  0  0  0
   25.5711  -21.6139  -14.4509 C   0  0  0  0  0  0  0  0  0  0  0  0
   25.3575  -21.0737  -15.5491 O   0  0  0  0  0  0  0  0  0  0  0  0
   24.1322  -25.9975  -14.6357 N   0  0  0  0  0  0  0  0  0  0  0  0
   23.3542  -24.8933  -15.1262 C   0  0  0  0  0  0  0  0  0  0  0  0
   23.3095  -24.7980  -16.3782 O   0  0  0  0  0  0  0  0  0  0  0  0
   22.6866  -23.9821  -14.1822 C   0  0  0  0  0  0  0  0  0  0  0  0
   23.2193  -22.5731  -14.4093 C   0  0  2  0  0  0  0  0  0  0  0  0
   24.5430  -22.3888  -13.8547 N   0  0  0  0  0  0  0  0  0  0  0  0
   22.2794  -21.5412  -13.9297 C   0  0  0  0  0  0  0  0  0  0  0  0
   22.2057  -21.2258  -12.7154 O   0  0  0  0  0  0  0  0  0  0  0  0
   20.4317  -18.8834  -16.6259 C   0  0  0  0  0  0  0  0  0  0  0  0
   20.7451  -18.5430  -15.1840 C   0  0  2  0  0  0  0  0  0  0  0  0
   22.1425  -18.0102  -15.0897 C   0  0  0  0  0  0  0  0  0  0  0  0
   20.5151  -19.7840  -14.3502 C   0  0  2  0  0  0  0  0  0  0  0  0
   21.3920  -20.8326  -14.8144 N   0  0  0  0  0  0  0  0  0  0  0  0
   19.0931  -20.2045  -14.3460 C   0  0  0  0  0  0  0  0  0  0  0  0
   18.6535  -21.1623  -15.0355 O   0  0  0  0  0  0  0  0  0  0  0  0
   18.1579  -19.5415  -13.5596 O   0  0  0  0  0  0  0  0  0  0  0  0
  2  1  1  6
  2 13  1  0
  2  3  1  0
  3  4  1  0
  4  5  2  0
  6  5  1  0
  7  6  1  0
  8  7  2  0
  9  8  1  0
 10 11  1  0
 10  9  2  0
 11 12  2  0
 12  7  1  0
 12  4  1  0
 13 14  2  0
 16 15  1  0
 17 16  2  0
 18 16  1  0
 19 18  1  1
 19 21  1  0
 20 19  1  0
 20 13  1  0
 21 22  2  0
 24 23  1  6
 24 26  1  0
 25 24  1  0
 26 28  1  0
 27 21  1  0
 26 27  1  6
 28 29  2  0
 28 30  1  0
M  END
$$$$
