WNV.pdb
     RDKit          3D

 30 31  0  0  1  0  0  0  0  0999 V2000
   24.4159  -19.4169  -16.8561 N   0  0  0  0  0  0  0  0  0  0  0  0
   25.3189  -18.9716  -15.8516 C   0  0  1  0  0  0  0  0  0  0  0  0
   25.2010  -17.5213  -15.4846 C   0  0  0  0  0  0  0  0  0  0  0  0
   25.5406  -16.5827  -16.5649 C   0  0  0  0  0  0  0  0  0  0  0  0
   24.7720  -15.5075  -17.0211 C   0  0  0  0  0  0  0  0  0  0  0  0
   25.4149  -14.8822  -18.0020 N   0  0  0  0  0  0  0  0  0  0  0  0
   26.5905  -15.4877  -18.2336 C   0  0  0  0  0  0  0  0  0  0  0  0
   27.5732  -15.1899  -19.1498 C   0  0  0  0  0  0  0  0  0  0  0  0
   28.7035  -15.9723  -19.1986 C   0  0  0  0  0  0  0  0  0  0  0  0
   28.8260  -17.0234  -18.3411 C   0  0  0  0  0  0  0  0  0  0  0  0
   27.8193  -17.3136  -17.4158 C   0  0  0  0  0  0  0  0  0  0  0  0
   26.6772  -16.5460  -17.3448 C   0  0  0  0  0  0  0  0  0  0  0  0
   25.2508  -19.8433  -14.6329 C   0  0  0  0  0  0  0  0  0  0  0  0
   24.2437  -20.5310  -14.3952 O   0  0  0  0  0  0  0  0  0  0  0  0
   28.1665  -21.6617  -14.1774 N   0  0  0  0  0  0  0  0  0  0  0  0
   28.6509  -21.3337  -12.8648 C   0  0  0  0  0  0  0  0  0  0  0  0
   29.8591  -21.6153  -12.6658 O   0  0  0  0  0  0  0  0  0  0  0  0
   27.7503  -20.7170  -11.8770 C   0  0  0  0  0  0  0  0  0  0  0  0
   26.3558  -20.6248  -12.4833 C   0  0  2  0  0  0  0  0  0  0  0  0
   26.3453  -19.8931  -13.7315 N   0  0  0  0  0  0  0  0  0  0  0  0
   25.3702  -20.0844  -11.5269 C   0  0  0  0  0  0  0  0  0  0  0  0
   25.2033  -18.8479  -11.3759 O   0  0  0  0  0  0  0  0  0  0  0  0
   21.8145  -21.2763  -11.7126 C   0  0  0  0  0  0  0  0  0  0  0  0
   22.3359  -20.0224  -11.0426 C   0  0  2  0  0  0  0  0  0  0  0  0
   22.8631  -19.0828  -12.0840 C   0  0  0  0  0  0  0  0  0  0  0  0
   23.3731  -20.4347  -10.0216 C   0  0  2  0  0  0  0  0  0  0  0  0
   24.5407  -20.9313  -10.7103 N   0  0  0  0  0  0  0  0  0  0  0  0
   22.8420  -21.4139   -9.0428 C   0  0  0  0  0  0  0  0  0  0  0  0
   23.2177  -22.6150   -8.9933 O   0  0  0  0  0  0  0  0  0  0  0  0
   21.8799  -21.0386   -8.1121 O   0  0  0  0  0  0  0  0  0  0  0  0
  2  1  1  6
  2 13  1  0
  2  3  1  0
  3  4  1  0
  4  5  2  0
  6  5  1  0
  7  6  1  0
  8  7  2  0
  9  8  1  0
 10 11  1  0
 10  9  2  0
 11 12  2  0
 12  7  1  0
 12  4  1  0
 13 14  2  0
 16 15  1  0
 17 16  2  0
 18 16  1  0
 19 18  1  1
 19 21  1  0
 20 19  1  0
 20 13  1  0
 21 22  2  0
 24 23  1  6
 24 26  1  0
 25 24  1  0
 26 28  1  0
 27 21  1  0
 26 27  1  6
 28 29  2  0
 28 30  1  0
M  END
$$$$
