WNV.pdb
     RDKit          3D

 30 31  0  0  1  0  0  0  0  0999 V2000
   26.1554  -19.3636  -17.8530 N   0  0  0  0  0  0  0  0  0  0  0  0
   24.8459  -18.8815  -17.5784 C   0  0  1  0  0  0  0  0  0  0  0  0
   23.9309  -18.8075  -18.7655 C   0  0  0  0  0  0  0  0  0  0  0  0
   24.3829  -17.9065  -19.8366 C   0  0  0  0  0  0  0  0  0  0  0  0
   25.3513  -18.1718  -20.8097 C   0  0  0  0  0  0  0  0  0  0  0  0
   25.4782  -17.1205  -21.6129 N   0  0  0  0  0  0  0  0  0  0  0  0
   24.6360  -16.1490  -21.2269 C   0  0  0  0  0  0  0  0  0  0  0  0
   24.4285  -14.8962  -21.7573 C   0  0  0  0  0  0  0  0  0  0  0  0
   23.4987  -14.0670  -21.1742 C   0  0  0  0  0  0  0  0  0  0  0  0
   22.8045  -14.5022  -20.0861 C   0  0  0  0  0  0  0  0  0  0  0  0
   23.0263  -15.7775  -19.5585 C   0  0  0  0  0  0  0  0  0  0  0  0
   23.9509  -16.6287  -20.1232 C   0  0  0  0  0  0  0  0  0  0  0  0
   24.2097  -19.6436  -16.4541 C   0  0  0  0  0  0  0  0  0  0  0  0
   23.0970  -19.3154  -16.0093 O   0  0  0  0  0  0  0  0  0  0  0  0
   24.1581  -24.9442  -13.6145 N   0  0  0  0  0  0  0  0  0  0  0  0
   23.5345  -23.7323  -14.0699 C   0  0  0  0  0  0  0  0  0  0  0  0
   22.5203  -23.3856  -13.4143 O   0  0  0  0  0  0  0  0  0  0  0  0
   24.0909  -23.0016  -15.2204 C   0  0  0  0  0  0  0  0  0  0  0  0
   24.3601  -21.5632  -14.7972 C   0  0  2  0  0  0  0  0  0  0  0  0
   24.8770  -20.7574  -15.8822 N   0  0  0  0  0  0  0  0  0  0  0  0
   25.2253  -21.4893  -13.6038 C   0  0  0  0  0  0  0  0  0  0  0  0
   26.3594  -22.0299  -13.5738 O   0  0  0  0  0  0  0  0  0  0  0  0
   27.0707  -20.1980   -9.4914 C   0  0  0  0  0  0  0  0  0  0  0  0
   26.3297  -19.8624  -10.7687 C   0  0  2  0  0  0  0  0  0  0  0  0
   25.5604  -18.5904  -10.5796 C   0  0  0  0  0  0  0  0  0  0  0  0
   25.4591  -21.0460  -11.1287 C   0  0  2  0  0  0  0  0  0  0  0  0
   24.8307  -20.7978  -12.4045 N   0  0  0  0  0  0  0  0  0  0  0  0
   24.4703  -21.3609  -10.0696 C   0  0  0  0  0  0  0  0  0  0  0  0
   23.2462  -21.0789  -10.1608 O   0  0  0  0  0  0  0  0  0  0  0  0
   24.8620  -21.9983   -8.8979 O   0  0  0  0  0  0  0  0  0  0  0  0
  2  1  1  6
  2 13  1  0
  2  3  1  0
  3  4  1  0
  4  5  2  0
  6  5  1  0
  7  6  1  0
  8  7  2  0
  9  8  1  0
 10 11  1  0
 10  9  2  0
 11 12  2  0
 12  7  1  0
 12  4  1  0
 13 14  2  0
 16 15  1  0
 17 16  2  0
 18 16  1  0
 19 18  1  6
 19 21  1  0
 20 19  1  0
 20 13  1  0
 21 22  2  0
 24 23  1  1
 24 26  1  0
 25 24  1  0
 26 28  1  0
 27 21  1  0
 26 27  1  6
 28 29  2  0
 28 30  1  0
M  END
$$$$
