CME.pdb
     RDKit          3D

 24 23  0  0  1  0  0  0  0  0999 V2000
   17.1970  -11.7346  -12.0549 N   0  0  0  0  0  0  0  0  0  0  0  0
   17.6411  -10.5058  -11.4765 C   0  0  1  0  0  0  0  0  0  0  0  0
   18.6242   -9.8733  -12.4494 C   0  0  0  0  0  0  0  0  0  0  0  0
   20.1105  -10.8674  -12.6269 S   0  0  0  0  0  0  0  0  0  0  0  0
   16.5187   -9.5744  -11.1739 C   0  0  0  0  0  0  0  0  0  0  0  0
   15.5896   -9.4137  -12.0172 O   0  0  0  0  0  0  0  0  0  0  0  0
   10.8256   -7.5399   -6.5357 C   0  0  0  0  0  0  0  0  0  0  0  0
   12.1901   -8.5911   -7.1314 S   0  0  0  0  0  0  0  0  0  0  0  0
   13.2607   -7.6592   -8.2930 C   0  0  0  0  0  0  0  0  0  0  0  0
   14.4129   -8.5455   -8.6465 C   0  0  0  0  0  0  0  0  0  0  0  0
   15.3774   -7.9462   -9.6076 C   0  0  2  0  0  0  0  0  0  0  0  0
   16.4291   -8.8431   -9.9730 N   0  0  0  0  0  0  0  0  0  0  0  0
   15.8882   -6.6194   -9.1594 C   0  0  0  0  0  0  0  0  0  0  0  0
   16.7379   -6.6140   -8.2366 O   0  0  0  0  0  0  0  0  0  0  0  0
   15.4710   -5.3915   -9.7108 N   0  0  0  0  0  0  0  0  0  0  0  0
   15.9705   -4.1109   -9.2341 C   0  0  1  0  0  0  0  0  0  0  0  0
   16.7626   -3.4251  -10.2873 C   0  0  0  0  0  0  0  0  0  0  0  0
   16.0407   -2.8500  -11.4478 C   0  0  0  0  0  0  0  0  0  0  0  0
   16.7926   -2.2117  -12.5063 C   0  0  0  0  0  0  0  0  0  0  0  0
   18.0232   -2.0562  -12.6040 O   0  0  0  0  0  0  0  0  0  0  0  0
   14.9387   -3.3235   -8.5657 C   0  0  0  0  0  0  0  0  0  0  0  0
   15.2901   -2.1696   -7.8621 O   0  0  0  0  0  0  0  0  0  0  0  0
   16.0641   -1.6774  -13.6005 O   0  0  0  0  0  0  0  0  0  0  0  0
   13.7345   -3.6462   -8.5927 O   0  0  0  0  0  0  0  0  0  0  0  0
  2  1  1  6
  3  4  1  0
  3  2  1  0
  5  6  2  0
  5  2  1  0
  7  8  1  0
  8  9  1  0
  9 10  1  0
 11 10  1  1
 11 13  1  0
 11 12  1  0
 12  5  1  0
 13 15  1  0
 14 13  2  0
 15 16  1  0
 16 21  1  0
 17 18  1  0
 16 17  1  6
 19 20  2  0
 19 18  1  0
 21 24  2  0
 21 22  1  0
 23 19  1  0
M  END
$$$$
