CME.pdb
     RDKit          3D

 24 23  0  0  1  0  0  0  0  0999 V2000
   27.9487  -21.3465  -15.8586 N   0  0  0  0  0  0  0  0  0  0  0  0
   26.8290  -22.2294  -15.9492 C   0  0  1  0  0  0  0  0  0  0  0  0
   27.3698  -23.6246  -16.2218 C   0  0  0  0  0  0  0  0  0  0  0  0
   29.0056  -23.5662  -16.9631 S   0  0  0  0  0  0  0  0  0  0  0  0
   25.9860  -22.2164  -14.7212 C   0  0  0  0  0  0  0  0  0  0  0  0
   24.9155  -22.8894  -14.6856 O   0  0  0  0  0  0  0  0  0  0  0  0
   25.7351  -19.9856   -7.0615 C   0  0  0  0  0  0  0  0  0  0  0  0
   26.6136  -20.1069   -8.6538 S   0  0  0  0  0  0  0  0  0  0  0  0
   25.4748  -20.6724   -9.9757 C   0  0  0  0  0  0  0  0  0  0  0  0
   26.2893  -20.8580  -11.2168 C   0  0  0  0  0  0  0  0  0  0  0  0
   25.5171  -21.3429  -12.3923 C   0  0  2  0  0  0  0  0  0  0  0  0
   26.3196  -21.4795  -13.5676 N   0  0  0  0  0  0  0  0  0  0  0  0
   24.2789  -20.5492  -12.6352 C   0  0  0  0  0  0  0  0  0  0  0  0
   24.4236  -19.3514  -12.9785 O   0  0  0  0  0  0  0  0  0  0  0  0
   22.9756  -21.0683  -12.5005 N   0  0  0  0  0  0  0  0  0  0  0  0
   21.7885  -20.2962  -12.8343 C   0  0  1  0  0  0  0  0  0  0  0  0
   21.3961  -20.5121  -14.2508 C   0  0  0  0  0  0  0  0  0  0  0  0
   21.0218  -21.8825  -14.6758 C   0  0  0  0  0  0  0  0  0  0  0  0
   19.9131  -22.0651  -15.5871 C   0  0  0  0  0  0  0  0  0  0  0  0
   19.1219  -21.2145  -16.0327 O   0  0  0  0  0  0  0  0  0  0  0  0
   20.7370  -20.4277  -11.8302 C   0  0  0  0  0  0  0  0  0  0  0  0
   20.8529  -21.3875  -10.8224 O   0  0  0  0  0  0  0  0  0  0  0  0
   19.6605  -23.3786  -16.0606 O   0  0  0  0  0  0  0  0  0  0  0  0
   19.7180  -19.7090  -11.8368 O   0  0  0  0  0  0  0  0  0  0  0  0
  2  1  1  1
  3  4  1  0
  3  2  1  0
  5  6  2  0
  5  2  1  0
  7  8  1  0
  8  9  1  0
  9 10  1  0
 11 10  1  1
 11 13  1  0
 11 12  1  0
 12  5  1  0
 13 15  1  0
 14 13  2  0
 15 16  1  0
 16 21  1  0
 17 18  1  0
 16 17  1  6
 19 20  2  0
 19 18  1  0
 21 24  2  0
 21 22  1  0
 23 19  1  0
M  END
$$$$
