CME.pdb
     RDKit          3D

 24 23  0  0  1  0  0  0  0  0999 V2000
   28.8550  -21.4290  -16.4963 N   0  0  0  0  0  0  0  0  0  0  0  0
   27.9090  -20.4567  -16.0475 C   0  0  1  0  0  0  0  0  0  0  0  0
   27.2512  -19.8578  -17.2811 C   0  0  0  0  0  0  0  0  0  0  0  0
   28.3028  -18.6253  -18.0583 S   0  0  0  0  0  0  0  0  0  0  0  0
   26.8886  -21.0302  -15.1262 C   0  0  0  0  0  0  0  0  0  0  0  0
   26.2752  -22.0889  -15.4472 O   0  0  0  0  0  0  0  0  0  0  0  0
   24.3569  -20.9484   -7.5753 C   0  0  0  0  0  0  0  0  0  0  0  0
   25.5173  -20.4346   -8.8835 S   0  0  0  0  0  0  0  0  0  0  0  0
   24.9484  -21.0349  -10.5206 C   0  0  0  0  0  0  0  0  0  0  0  0
   25.9212  -20.5354  -11.5416 C   0  0  0  0  0  0  0  0  0  0  0  0
   25.6231  -20.9618  -12.9353 C   0  0  2  0  0  0  0  0  0  0  0  0
   26.5582  -20.4476  -13.8868 N   0  0  0  0  0  0  0  0  0  0  0  0
   24.2084  -20.7020  -13.3270 C   0  0  0  0  0  0  0  0  0  0  0  0
   23.8958  -19.5171  -13.5949 O   0  0  0  0  0  0  0  0  0  0  0  0
   23.2210  -21.7042  -13.4096 N   0  0  0  0  0  0  0  0  0  0  0  0
   21.8315  -21.4081  -13.7233 C   0  0  1  0  0  0  0  0  0  0  0  0
   20.9846  -22.6198  -13.5765 C   0  0  0  0  0  0  0  0  0  0  0  0
   19.5309  -22.4983  -13.8422 C   0  0  0  0  0  0  0  0  0  0  0  0
   18.6955  -23.6774  -13.7729 C   0  0  0  0  0  0  0  0  0  0  0  0
   18.2058  -24.2281  -12.7704 O   0  0  0  0  0  0  0  0  0  0  0  0
   21.3600  -20.1897  -13.0719 C   0  0  0  0  0  0  0  0  0  0  0  0
   21.4406  -20.0669  -11.6832 O   0  0  0  0  0  0  0  0  0  0  0  0
   18.3668  -24.3232  -14.9928 O   0  0  0  0  0  0  0  0  0  0  0  0
   20.8746  -19.2376  -13.7144 O   0  0  0  0  0  0  0  0  0  0  0  0
  2  1  1  6
  3  4  1  0
  3  2  1  0
  5  6  2  0
  5  2  1  0
  7  8  1  0
  8  9  1  0
  9 10  1  0
 11 10  1  1
 11 13  1  0
 11 12  1  0
 12  5  1  0
 13 15  1  0
 14 13  2  0
 15 16  1  0
 16 21  1  0
 17 18  1  0
 16 17  1  1
 19 20  2  0
 19 18  1  0
 21 24  2  0
 21 22  1  0
 23 19  1  0
M  END
$$$$
