CME.pdb
     RDKit          3D

 24 23  0  0  1  0  0  0  0  0999 V2000
   20.7107  -15.3912  -18.7031 N   0  0  0  0  0  0  0  0  0  0  0  0
   21.2007  -14.2702  -19.4413 C   0  0  1  0  0  0  0  0  0  0  0  0
   20.0241  -13.6735  -20.1981 C   0  0  0  0  0  0  0  0  0  0  0  0
   19.3558  -14.8306  -21.3995 S   0  0  0  0  0  0  0  0  0  0  0  0
   21.8474  -13.2479  -18.5720 C   0  0  0  0  0  0  0  0  0  0  0  0
   21.2502  -12.8335  -17.5367 O   0  0  0  0  0  0  0  0  0  0  0  0
   27.1595  -10.4642  -14.6490 C   0  0  0  0  0  0  0  0  0  0  0  0
   26.3712  -11.6046  -15.8321 S   0  0  0  0  0  0  0  0  0  0  0  0
   26.0147  -10.7463  -17.4133 C   0  0  0  0  0  0  0  0  0  0  0  0
   25.2639  -11.7053  -18.2821 C   0  0  0  0  0  0  0  0  0  0  0  0
   23.7923  -11.7096  -18.0646 C   0  0  2  0  0  0  0  0  0  0  0  0
   23.1174  -12.7014  -18.8424 N   0  0  0  0  0  0  0  0  0  0  0  0
   23.1843  -10.3565  -18.2126 C   0  0  0  0  0  0  0  0  0  0  0  0
   22.9917   -9.9389  -19.3797 O   0  0  0  0  0  0  0  0  0  0  0  0
   22.8214   -9.5367  -17.1253 N   0  0  0  0  0  0  0  0  0  0  0  0
   22.2367   -8.2164  -17.3031 C   0  0  1  0  0  0  0  0  0  0  0  0
   21.1408   -7.9856  -16.3270 C   0  0  0  0  0  0  0  0  0  0  0  0
   20.4860   -6.6553  -16.3064 C   0  0  0  0  0  0  0  0  0  0  0  0
   19.4450   -6.3914  -15.3370 C   0  0  0  0  0  0  0  0  0  0  0  0
   19.0040   -7.1373  -14.4441 O   0  0  0  0  0  0  0  0  0  0  0  0
   23.2478   -7.1699  -17.4209 C   0  0  0  0  0  0  0  0  0  0  0  0
   22.9241   -5.9542  -18.0272 O   0  0  0  0  0  0  0  0  0  0  0  0
   18.8163   -5.1200  -15.3767 O   0  0  0  0  0  0  0  0  0  0  0  0
   24.4118   -7.3198  -16.9993 O   0  0  0  0  0  0  0  0  0  0  0  0
  2  1  1  1
  3  4  1  0
  3  2  1  0
  5  6  2  0
  5  2  1  0
  7  8  1  0
  8  9  1  0
  9 10  1  0
 11 10  1  6
 11 13  1  0
 11 12  1  0
 12  5  1  0
 13 15  1  0
 14 13  2  0
 15 16  1  0
 16 21  1  0
 17 18  1  0
 16 17  1  1
 19 20  2  0
 19 18  1  0
 21 24  2  0
 21 22  1  0
 23 19  1  0
M  END
$$$$
