CME.pdb
     RDKit          3D

 24 23  0  0  1  0  0  0  0  0999 V2000
   17.3098  -23.6028   -8.5921 N   0  0  0  0  0  0  0  0  0  0  0  0
   18.5676  -23.9325   -9.1845 C   0  0  1  0  0  0  0  0  0  0  0  0
   18.3019  -24.9554  -10.2782 C   0  0  0  0  0  0  0  0  0  0  0  0
   18.2712  -26.6290   -9.6246 S   0  0  0  0  0  0  0  0  0  0  0  0
   19.2754  -22.7412   -9.7311 C   0  0  0  0  0  0  0  0  0  0  0  0
   18.6219  -21.8459  -10.3407 O   0  0  0  0  0  0  0  0  0  0  0  0
   25.3195  -20.9787   -7.8609 C   0  0  0  0  0  0  0  0  0  0  0  0
   25.3498  -20.5055   -9.6207 S   0  0  0  0  0  0  0  0  0  0  0  0
   23.6433  -20.3222  -10.2674 C   0  0  0  0  0  0  0  0  0  0  0  0
   22.8341  -21.4543   -9.7183 C   0  0  0  0  0  0  0  0  0  0  0  0
   21.4289  -21.4983  -10.2046 C   0  0  2  0  0  0  0  0  0  0  0  0
   20.6653  -22.5485   -9.6060 N   0  0  0  0  0  0  0  0  0  0  0  0
   21.3339  -21.4997  -11.6922 C   0  0  0  0  0  0  0  0  0  0  0  0
   21.3780  -22.6129  -12.2687 O   0  0  0  0  0  0  0  0  0  0  0  0
   21.1997  -20.3325  -12.4705 N   0  0  0  0  0  0  0  0  0  0  0  0
   21.0625  -20.3701  -13.9184 C   0  0  1  0  0  0  0  0  0  0  0  0
   19.9381  -19.5093  -14.3674 C   0  0  0  0  0  0  0  0  0  0  0  0
   19.6447  -19.4360  -15.8191 C   0  0  0  0  0  0  0  0  0  0  0  0
   18.5794  -18.5755  -16.2855 C   0  0  0  0  0  0  0  0  0  0  0  0
   17.9179  -17.7374  -15.6466 O   0  0  0  0  0  0  0  0  0  0  0  0
   22.3399  -20.1994  -14.6043 C   0  0  0  0  0  0  0  0  0  0  0  0
   23.3996  -19.5635  -13.9542 O   0  0  0  0  0  0  0  0  0  0  0  0
   18.2085  -18.6694  -17.6518 O   0  0  0  0  0  0  0  0  0  0  0  0
   22.5272  -20.6005  -15.7701 O   0  0  0  0  0  0  0  0  0  0  0  0
  2  1  1  6
  3  4  1  0
  3  2  1  0
  5  6  2  0
  5  2  1  0
  7  8  1  0
  8  9  1  0
  9 10  1  0
 11 10  1  6
 11 13  1  0
 11 12  1  0
 12  5  1  0
 13 15  1  0
 14 13  2  0
 15 16  1  0
 16 21  1  0
 17 18  1  0
 16 17  1  6
 19 20  2  0
 19 18  1  0
 21 24  2  0
 21 22  1  0
 23 19  1  0
M  END
$$$$
