CME.pdb
     RDKit          3D

 24 23  0  0  1  0  0  0  0  0999 V2000
   18.1422  -12.0466  -16.9907 N   0  0  0  0  0  0  0  0  0  0  0  0
   18.7840  -10.9832  -17.6969 C   0  0  1  0  0  0  0  0  0  0  0  0
   17.7369   -9.9109  -17.9558 C   0  0  0  0  0  0  0  0  0  0  0  0
   16.5334  -10.4442  -19.1790 S   0  0  0  0  0  0  0  0  0  0  0  0
   19.9481  -10.4216  -16.9563 C   0  0  0  0  0  0  0  0  0  0  0  0
   19.7918   -9.9764  -15.7826 O   0  0  0  0  0  0  0  0  0  0  0  0
   26.9144  -10.2291  -14.7724 C   0  0  0  0  0  0  0  0  0  0  0  0
   25.4949  -10.8433  -15.7365 S   0  0  0  0  0  0  0  0  0  0  0  0
   24.8782   -9.5430  -16.8736 C   0  0  0  0  0  0  0  0  0  0  0  0
   23.6621  -10.0862  -17.5549 C   0  0  0  0  0  0  0  0  0  0  0  0
   22.3756   -9.7064  -16.9117 C   0  0  2  0  0  0  0  0  0  0  0  0
   21.2459  -10.3555  -17.5004 N   0  0  0  0  0  0  0  0  0  0  0  0
   22.1967   -8.2300  -16.8092 C   0  0  0  0  0  0  0  0  0  0  0  0
   21.9736   -7.6041  -17.8732 O   0  0  0  0  0  0  0  0  0  0  0  0
   22.2648   -7.5141  -15.5972 N   0  0  0  0  0  0  0  0  0  0  0  0
   21.9565   -6.0950  -15.5094 C   0  0  1  0  0  0  0  0  0  0  0  0
   20.6885   -5.7828  -16.2179 C   0  0  0  0  0  0  0  0  0  0  0  0
   20.1248   -4.4180  -16.0823 C   0  0  0  0  0  0  0  0  0  0  0  0
   18.8448   -4.1156  -16.6847 C   0  0  0  0  0  0  0  0  0  0  0  0
   18.5303   -4.1149  -17.8885 O   0  0  0  0  0  0  0  0  0  0  0  0
   22.1002   -5.5758  -14.1526 C   0  0  0  0  0  0  0  0  0  0  0  0
   22.1948   -4.1988  -13.9405 O   0  0  0  0  0  0  0  0  0  0  0  0
   17.7760   -3.7678  -15.8186 O   0  0  0  0  0  0  0  0  0  0  0  0
   22.1479   -6.3241  -13.1562 O   0  0  0  0  0  0  0  0  0  0  0  0
  2  1  1  1
  3  4  1  0
  3  2  1  0
  5  6  2  0
  5  2  1  0
  7  8  1  0
  8  9  1  0
  9 10  1  0
 11 10  1  6
 11 13  1  0
 11 12  1  0
 12  5  1  0
 13 15  1  0
 14 13  2  0
 15 16  1  0
 16 21  1  0
 17 18  1  0
 16 17  1  1
 19 20  2  0
 19 18  1  0
 21 24  2  0
 21 22  1  0
 23 19  1  0
M  END
$$$$
