CME.pdb
     RDKit          3D

 24 23  0  0  1  0  0  0  0  0999 V2000
   19.1678  -14.8815  -16.0278 N   0  0  0  0  0  0  0  0  0  0  0  0
   19.3814  -13.8396  -16.9820 C   0  0  1  0  0  0  0  0  0  0  0  0
   18.0356  -13.1835  -17.2492 C   0  0  0  0  0  0  0  0  0  0  0  0
   17.0080  -14.1957  -18.3209 S   0  0  0  0  0  0  0  0  0  0  0  0
   20.3807  -12.8351  -16.5222 C   0  0  0  0  0  0  0  0  0  0  0  0
   20.3027  -12.3598  -15.3526 O   0  0  0  0  0  0  0  0  0  0  0  0
   26.6124  -10.1165  -14.9272 C   0  0  0  0  0  0  0  0  0  0  0  0
   25.3015  -11.1932  -15.5938 S   0  0  0  0  0  0  0  0  0  0  0  0
   24.7707  -10.6110  -17.2501 C   0  0  0  0  0  0  0  0  0  0  0  0
   23.6816  -11.5247  -17.7162 C   0  0  0  0  0  0  0  0  0  0  0  0
   22.3971  -11.3756  -16.9808 C   0  0  2  0  0  0  0  0  0  0  0  0
   21.4343  -12.3716  -17.3345 N   0  0  0  0  0  0  0  0  0  0  0  0
   21.8447   -9.9933  -17.0607 C   0  0  0  0  0  0  0  0  0  0  0  0
   21.5049   -9.5762  -18.1939 O   0  0  0  0  0  0  0  0  0  0  0  0
   21.6881   -9.1458  -15.9457 N   0  0  0  0  0  0  0  0  0  0  0  0
   21.1412   -7.8021  -16.0562 C   0  0  1  0  0  0  0  0  0  0  0  0
   19.6676   -7.8425  -16.2403 C   0  0  0  0  0  0  0  0  0  0  0  0
   18.8113   -7.9597  -15.0354 C   0  0  0  0  0  0  0  0  0  0  0  0
   17.3735   -7.8837  -15.1762 C   0  0  0  0  0  0  0  0  0  0  0  0
   16.5719   -8.7833  -15.4865 O   0  0  0  0  0  0  0  0  0  0  0  0
   21.6537   -6.9047  -15.0251 C   0  0  0  0  0  0  0  0  0  0  0  0
   21.2633   -5.5640  -15.0121 O   0  0  0  0  0  0  0  0  0  0  0  0
   16.7545   -6.6297  -14.9361 O   0  0  0  0  0  0  0  0  0  0  0  0
   22.4442   -7.2906  -14.1412 O   0  0  0  0  0  0  0  0  0  0  0  0
  2  1  1  1
  3  4  1  0
  3  2  1  0
  5  6  2  0
  5  2  1  0
  7  8  1  0
  8  9  1  0
  9 10  1  0
 11 10  1  6
 11 13  1  0
 11 12  1  0
 12  5  1  0
 13 15  1  0
 14 13  2  0
 15 16  1  0
 16 21  1  0
 17 18  1  0
 16 17  1  1
 19 20  2  0
 19 18  1  0
 21 24  2  0
 21 22  1  0
 23 19  1  0
M  END
$$$$
