CME.pdb
     RDKit          3D

 24 23  0  0  1  0  0  0  0  0999 V2000
   24.5384  -12.9542  -18.1577 N   0  0  0  0  0  0  0  0  0  0  0  0
   23.9340  -12.0577  -17.2235 C   0  0  1  0  0  0  0  0  0  0  0  0
   25.0039  -11.0716  -16.7807 C   0  0  0  0  0  0  0  0  0  0  0  0
   26.3295  -11.8919  -15.8869 S   0  0  0  0  0  0  0  0  0  0  0  0
   22.7557  -11.3446  -17.7911 C   0  0  0  0  0  0  0  0  0  0  0  0
   22.4689  -11.4788  -19.0157 O   0  0  0  0  0  0  0  0  0  0  0  0
   15.9756  -10.9395  -20.0763 C   0  0  0  0  0  0  0  0  0  0  0  0
   17.4581  -11.6113  -19.2563 S   0  0  0  0  0  0  0  0  0  0  0  0
   18.4815  -10.2553  -18.5651 C   0  0  0  0  0  0  0  0  0  0  0  0
   19.7557  -10.8649  -18.0721 C   0  0  0  0  0  0  0  0  0  0  0  0
   20.7065   -9.8953  -17.4645 C   0  0  2  0  0  0  0  0  0  0  0  0
   21.9209  -10.5080  -17.0242 N   0  0  0  0  0  0  0  0  0  0  0  0
   20.0751   -9.0547  -16.4076 C   0  0  0  0  0  0  0  0  0  0  0  0
   20.0044   -9.5414  -15.2537 O   0  0  0  0  0  0  0  0  0  0  0  0
   19.5618   -7.7622  -16.6363 N   0  0  0  0  0  0  0  0  0  0  0  0
   19.3943   -6.7878  -15.5689 C   0  0  1  0  0  0  0  0  0  0  0  0
   20.7033   -6.2126  -15.1655 C   0  0  0  0  0  0  0  0  0  0  0  0
   20.7178   -5.1658  -14.1154 C   0  0  0  0  0  0  0  0  0  0  0  0
   21.9815   -4.6051  -13.6893 C   0  0  0  0  0  0  0  0  0  0  0  0
   22.5100   -3.5299  -14.0249 O   0  0  0  0  0  0  0  0  0  0  0  0
   18.3134   -5.8446  -15.8394 C   0  0  0  0  0  0  0  0  0  0  0  0
   17.6289   -5.2475  -14.7787 O   0  0  0  0  0  0  0  0  0  0  0  0
   22.7536   -5.3524  -12.7626 O   0  0  0  0  0  0  0  0  0  0  0  0
   17.9654   -5.5472  -16.9993 O   0  0  0  0  0  0  0  0  0  0  0  0
  2  1  1  6
  3  4  1  0
  3  2  1  0
  5  6  2  0
  5  2  1  0
  7  8  1  0
  8  9  1  0
  9 10  1  0
 11 10  1  1
 11 13  1  0
 11 12  1  0
 12  5  1  0
 13 15  1  0
 14 13  2  0
 15 16  1  0
 16 21  1  0
 17 18  1  0
 16 17  1  6
 19 20  2  0
 19 18  1  0
 21 24  2  0
 21 22  1  0
 23 19  1  0
M  END
$$$$
