CME.pdb
     RDKit          3D

 24 23  0  0  1  0  0  0  0  0999 V2000
   28.6541  -20.1284  -17.3693 N   0  0  0  0  0  0  0  0  0  0  0  0
   28.4683  -19.3796  -16.1667 C   0  0  1  0  0  0  0  0  0  0  0  0
   27.5938  -18.1824  -16.5058 C   0  0  0  0  0  0  0  0  0  0  0  0
   28.5261  -16.9027  -17.3558 S   0  0  0  0  0  0  0  0  0  0  0  0
   27.8609  -20.1892  -15.0737 C   0  0  0  0  0  0  0  0  0  0  0  0
   27.0359  -21.1063  -15.3538 O   0  0  0  0  0  0  0  0  0  0  0  0
   31.5809  -22.7994   -9.9581 C   0  0  0  0  0  0  0  0  0  0  0  0
   29.8768  -22.1545  -10.0005 S   0  0  0  0  0  0  0  0  0  0  0  0
   29.6818  -20.9405  -11.3615 C   0  0  0  0  0  0  0  0  0  0  0  0
   28.2668  -20.4559  -11.3276 C   0  0  0  0  0  0  0  0  0  0  0  0
   27.5250  -20.6342  -12.6047 C   0  0  2  0  0  0  0  0  0  0  0  0
   28.1588  -19.9880  -13.7115 N   0  0  0  0  0  0  0  0  0  0  0  0
   26.0817  -20.2802  -12.4867 C   0  0  0  0  0  0  0  0  0  0  0  0
   25.7970  -19.0639  -12.3727 O   0  0  0  0  0  0  0  0  0  0  0  0
   25.0386  -21.2278  -12.4964 N   0  0  0  0  0  0  0  0  0  0  0  0
   23.6354  -20.8458  -12.4534 C   0  0  1  0  0  0  0  0  0  0  0  0
   22.8650  -21.5350  -13.5204 C   0  0  0  0  0  0  0  0  0  0  0  0
   21.4095  -21.2697  -13.6200 C   0  0  0  0  0  0  0  0  0  0  0  0
   20.8100  -21.0801  -14.9229 C   0  0  0  0  0  0  0  0  0  0  0  0
   21.3311  -21.2024  -16.0461 O   0  0  0  0  0  0  0  0  0  0  0  0
   23.0845  -20.8973  -11.1025 C   0  0  0  0  0  0  0  0  0  0  0  0
   21.8237  -20.3554  -10.8437 O   0  0  0  0  0  0  0  0  0  0  0  0
   19.4429  -20.7028  -14.9693 O   0  0  0  0  0  0  0  0  0  0  0  0
   23.7055  -21.4100  -10.1505 O   0  0  0  0  0  0  0  0  0  0  0  0
  2  1  1  6
  3  4  1  0
  3  2  1  0
  5  6  2  0
  5  2  1  0
  7  8  1  0
  8  9  1  0
  9 10  1  0
 11 10  1  1
 11 13  1  0
 11 12  1  0
 12  5  1  0
 13 15  1  0
 14 13  2  0
 15 16  1  0
 16 21  1  0
 17 18  1  0
 16 17  1  6
 19 20  2  0
 19 18  1  0
 21 24  2  0
 21 22  1  0
 23 19  1  0
M  END
$$$$
