CME.pdb
     RDKit          3D

 24 23  0  0  1  0  0  0  0  0999 V2000
   28.5530  -21.4316  -16.0820 N   0  0  0  0  0  0  0  0  0  0  0  0
   27.9976  -20.4078  -15.2544 C   0  0  1  0  0  0  0  0  0  0  0  0
   27.3476  -19.3832  -16.1713 C   0  0  0  0  0  0  0  0  0  0  0  0
   28.5550  -18.2287  -16.8334 S   0  0  0  0  0  0  0  0  0  0  0  0
   27.0155  -20.9367  -14.2671 C   0  0  0  0  0  0  0  0  0  0  0  0
   26.4209  -22.0297  -14.4947 O   0  0  0  0  0  0  0  0  0  0  0  0
   26.1822  -21.0611   -6.9850 C   0  0  0  0  0  0  0  0  0  0  0  0
   25.5554  -19.7709   -8.1094 S   0  0  0  0  0  0  0  0  0  0  0  0
   25.0088  -20.5104   -9.6964 C   0  0  0  0  0  0  0  0  0  0  0  0
   26.0100  -20.1218  -10.7379 C   0  0  0  0  0  0  0  0  0  0  0  0
   25.7596  -20.7097  -12.0813 C   0  0  2  0  0  0  0  0  0  0  0  0
   26.7019  -20.2737  -13.0642 N   0  0  0  0  0  0  0  0  0  0  0  0
   24.3478  -20.5417  -12.5295 C   0  0  0  0  0  0  0  0  0  0  0  0
   24.0583  -19.4769  -13.1260 O   0  0  0  0  0  0  0  0  0  0  0  0
   23.3389  -21.5031  -12.3197 N   0  0  0  0  0  0  0  0  0  0  0  0
   21.9682  -21.3076  -12.7667 C   0  0  1  0  0  0  0  0  0  0  0  0
   21.1831  -22.5618  -12.6347 C   0  0  0  0  0  0  0  0  0  0  0  0
   19.7541  -22.5420  -13.0302 C   0  0  0  0  0  0  0  0  0  0  0  0
   18.9915  -23.7709  -12.9979 C   0  0  0  0  0  0  0  0  0  0  0  0
   19.0345  -24.6936  -12.1643 O   0  0  0  0  0  0  0  0  0  0  0  0
   21.3707  -20.0934  -12.2189 C   0  0  0  0  0  0  0  0  0  0  0  0
   20.5776  -19.2802  -13.0312 O   0  0  0  0  0  0  0  0  0  0  0  0
   18.0558  -23.9919  -14.0416 O   0  0  0  0  0  0  0  0  0  0  0  0
   21.5454  -19.7423  -11.0352 O   0  0  0  0  0  0  0  0  0  0  0  0
  2  1  1  6
  3  4  1  0
  3  2  1  0
  5  6  2  0
  5  2  1  0
  7  8  1  0
  8  9  1  0
  9 10  1  0
 11 10  1  1
 11 13  1  0
 11 12  1  0
 12  5  1  0
 13 15  1  0
 14 13  2  0
 15 16  1  0
 16 21  1  0
 17 18  1  0
 16 17  1  1
 19 20  2  0
 19 18  1  0
 21 24  2  0
 21 22  1  0
 23 19  1  0
M  END
$$$$
