CME.pdb
     RDKit          3D

 24 23  0  0  1  0  0  0  0  0999 V2000
   14.3468  -12.1317  -11.0088 N   0  0  0  0  0  0  0  0  0  0  0  0
   15.5655  -11.4825  -10.6414 C   0  0  1  0  0  0  0  0  0  0  0  0
   16.6775  -12.0917  -11.4814 C   0  0  0  0  0  0  0  0  0  0  0  0
   17.0170  -13.7887  -10.9978 S   0  0  0  0  0  0  0  0  0  0  0  0
   15.5081  -10.0055  -10.8259 C   0  0  0  0  0  0  0  0  0  0  0  0
   14.9165   -9.5196  -11.8329 O   0  0  0  0  0  0  0  0  0  0  0  0
   13.9764   -6.4412   -6.2755 C   0  0  0  0  0  0  0  0  0  0  0  0
   14.1726   -5.0610   -7.4496 S   0  0  0  0  0  0  0  0  0  0  0  0
   15.1960   -5.5753   -8.8822 C   0  0  0  0  0  0  0  0  0  0  0  0
   15.3450   -7.0623   -8.8131 C   0  0  0  0  0  0  0  0  0  0  0  0
   16.0145   -7.6689   -9.9950 C   0  0  2  0  0  0  0  0  0  0  0  0
   16.0892   -9.0948   -9.9216 N   0  0  0  0  0  0  0  0  0  0  0  0
   17.3338   -7.0425  -10.2941 C   0  0  0  0  0  0  0  0  0  0  0  0
   18.3347   -7.4976   -9.6904 O   0  0  0  0  0  0  0  0  0  0  0  0
   17.5097   -5.9821  -11.2055 N   0  0  0  0  0  0  0  0  0  0  0  0
   18.8061   -5.6486  -11.7755 C   0  0  1  0  0  0  0  0  0  0  0  0
   19.4381   -6.8436  -12.3915 C   0  0  0  0  0  0  0  0  0  0  0  0
   20.6891   -6.6573  -13.1654 C   0  0  0  0  0  0  0  0  0  0  0  0
   21.3330   -7.8074  -13.7616 C   0  0  0  0  0  0  0  0  0  0  0  0
   21.9823   -8.7122  -13.2068 O   0  0  0  0  0  0  0  0  0  0  0  0
   18.7642   -4.4331  -12.5831 C   0  0  0  0  0  0  0  0  0  0  0  0
   19.8815   -3.5974  -12.6417 O   0  0  0  0  0  0  0  0  0  0  0  0
   21.2336   -7.9609  -15.1688 O   0  0  0  0  0  0  0  0  0  0  0  0
   17.7524   -4.1005  -13.2316 O   0  0  0  0  0  0  0  0  0  0  0  0
  2  1  1  6
  3  4  1  0
  3  2  1  0
  5  6  2  0
  5  2  1  0
  7  8  1  0
  8  9  1  0
  9 10  1  0
 11 10  1  1
 11 13  1  0
 11 12  1  0
 12  5  1  0
 13 15  1  0
 14 13  2  0
 15 16  1  0
 16 21  1  0
 17 18  1  0
 16 17  1  6
 19 20  2  0
 19 18  1  0
 21 24  2  0
 21 22  1  0
 23 19  1  0
M  END
$$$$
