CME.pdb
     RDKit          3D

 24 23  0  0  1  0  0  0  0  0999 V2000
   28.3478  -20.6631  -16.0772 N   0  0  0  0  0  0  0  0  0  0  0  0
   28.3658  -20.2366  -14.7136 C   0  0  1  0  0  0  0  0  0  0  0  0
   28.4053  -18.7162  -14.7122 C   0  0  0  0  0  0  0  0  0  0  0  0
   26.8692  -18.0147  -15.3264 S   0  0  0  0  0  0  0  0  0  0  0  0
   27.1969  -20.7389  -13.9388 C   0  0  0  0  0  0  0  0  0  0  0  0
   26.2725  -21.3673  -14.5310 O   0  0  0  0  0  0  0  0  0  0  0  0
   26.6842  -19.3441   -7.7058 C   0  0  0  0  0  0  0  0  0  0  0  0
   25.3910  -20.6283   -7.7185 S   0  0  0  0  0  0  0  0  0  0  0  0
   24.9991  -21.1300   -9.4386 C   0  0  0  0  0  0  0  0  0  0  0  0
   26.1201  -20.6554  -10.3082 C   0  0  0  0  0  0  0  0  0  0  0  0
   25.9157  -20.8972  -11.7617 C   0  0  2  0  0  0  0  0  0  0  0  0
   27.0570  -20.5501  -12.5497 N   0  0  0  0  0  0  0  0  0  0  0  0
   24.6583  -20.2837  -12.2764 C   0  0  0  0  0  0  0  0  0  0  0  0
   24.7702  -19.2523  -12.9814 O   0  0  0  0  0  0  0  0  0  0  0  0
   23.3717  -20.7957  -12.0147 N   0  0  0  0  0  0  0  0  0  0  0  0
   22.2357  -20.5374  -12.8862 C   0  0  1  0  0  0  0  0  0  0  0  0
   22.5938  -20.7732  -14.3085 C   0  0  0  0  0  0  0  0  0  0  0  0
   21.5507  -20.5607  -15.3409 C   0  0  0  0  0  0  0  0  0  0  0  0
   21.8650  -20.8136  -16.7302 C   0  0  0  0  0  0  0  0  0  0  0  0
   22.9233  -21.2421  -17.2246 O   0  0  0  0  0  0  0  0  0  0  0  0
   21.0079  -21.1614  -12.4019 C   0  0  0  0  0  0  0  0  0  0  0  0
   19.7677  -20.6746  -12.8202 O   0  0  0  0  0  0  0  0  0  0  0  0
   20.8552  -20.5500  -17.6915 O   0  0  0  0  0  0  0  0  0  0  0  0
   21.0195  -22.1260  -11.6117 O   0  0  0  0  0  0  0  0  0  0  0  0
  2  1  1  6
  3  4  1  0
  3  2  1  0
  5  6  2  0
  5  2  1  0
  7  8  1  0
  8  9  1  0
  9 10  1  0
 11 10  1  1
 11 13  1  0
 11 12  1  0
 12  5  1  0
 13 15  1  0
 14 13  2  0
 15 16  1  0
 16 21  1  0
 17 18  1  0
 16 17  1  6
 19 20  2  0
 19 18  1  0
 21 24  2  0
 21 22  1  0
 23 19  1  0
M  END
$$$$
