CME.pdb
     RDKit          3D

 24 23  0  0  1  0  0  0  0  0999 V2000
   28.2625  -20.9954  -15.9520 N   0  0  0  0  0  0  0  0  0  0  0  0
   27.8327  -20.1006  -14.9244 C   0  0  1  0  0  0  0  0  0  0  0  0
   27.3772  -18.8162  -15.5996 C   0  0  0  0  0  0  0  0  0  0  0  0
   25.9665  -19.0998  -16.6760 S   0  0  0  0  0  0  0  0  0  0  0  0
   26.7457  -20.6727  -14.0818 C   0  0  0  0  0  0  0  0  0  0  0  0
   26.1255  -21.7046  -14.4701 O   0  0  0  0  0  0  0  0  0  0  0  0
   27.0085  -21.0596   -6.7410 C   0  0  0  0  0  0  0  0  0  0  0  0
   26.1416  -20.0701   -8.0024 S   0  0  0  0  0  0  0  0  0  0  0  0
   26.1018  -20.9621   -9.6046 C   0  0  0  0  0  0  0  0  0  0  0  0
   25.4331  -20.0653  -10.5979 C   0  0  0  0  0  0  0  0  0  0  0  0
   25.3468  -20.6266  -11.9728 C   0  0  2  0  0  0  0  0  0  0  0  0
   26.3578  -20.1176  -12.8464 N   0  0  0  0  0  0  0  0  0  0  0  0
   23.9793  -20.5152  -12.5558 C   0  0  0  0  0  0  0  0  0  0  0  0
   23.7242  -19.4869  -13.2274 O   0  0  0  0  0  0  0  0  0  0  0  0
   22.9754  -21.4907  -12.3925 N   0  0  0  0  0  0  0  0  0  0  0  0
   21.6631  -21.3724  -13.0095 C   0  0  1  0  0  0  0  0  0  0  0  0
   21.3615  -22.5617  -13.8471 C   0  0  0  0  0  0  0  0  0  0  0  0
   20.0681  -22.6023  -14.5710 C   0  0  0  0  0  0  0  0  0  0  0  0
   19.7438  -23.7562  -15.3811 C   0  0  0  0  0  0  0  0  0  0  0  0
   19.0167  -24.7262  -15.1006 O   0  0  0  0  0  0  0  0  0  0  0  0
   20.6358  -20.9556  -12.0597 C   0  0  0  0  0  0  0  0  0  0  0  0
   19.3718  -20.5819  -12.5209 O   0  0  0  0  0  0  0  0  0  0  0  0
   20.3123  -23.8294  -16.6791 O   0  0  0  0  0  0  0  0  0  0  0  0
   20.8442  -20.9138  -10.8310 O   0  0  0  0  0  0  0  0  0  0  0  0
  2  1  1  6
  3  4  1  0
  3  2  1  0
  5  6  2  0
  5  2  1  0
  7  8  1  0
  8  9  1  0
  9 10  1  0
 11 10  1  1
 11 13  1  0
 11 12  1  0
 12  5  1  0
 13 15  1  0
 14 13  2  0
 15 16  1  0
 16 21  1  0
 17 18  1  0
 16 17  1  1
 19 20  2  0
 19 18  1  0
 21 24  2  0
 21 22  1  0
 23 19  1  0
M  END
$$$$
