CME.pdb
     RDKit          3D

 24 23  0  0  1  0  0  0  0  0999 V2000
   16.2433   -7.2553   -8.7422 N   0  0  0  0  0  0  0  0  0  0  0  0
   16.2322   -7.6543  -10.1141 C   0  0  1  0  0  0  0  0  0  0  0  0
   15.0189   -7.0096  -10.7663 C   0  0  0  0  0  0  0  0  0  0  0  0
   13.4977   -7.8486  -10.3071 S   0  0  0  0  0  0  0  0  0  0  0  0
   17.4830   -7.2806  -10.8316 C   0  0  0  0  0  0  0  0  0  0  0  0
   17.9751   -6.1254  -10.6784 O   0  0  0  0  0  0  0  0  0  0  0  0
   24.0843   -9.8633  -14.3331 C   0  0  0  0  0  0  0  0  0  0  0  0
   22.5561  -10.1592  -13.3850 S   0  0  0  0  0  0  0  0  0  0  0  0
   21.4350   -8.7124  -13.5033 C   0  0  0  0  0  0  0  0  0  0  0  0
   20.2682   -8.9775  -12.6054 C   0  0  0  0  0  0  0  0  0  0  0  0
   19.3128   -7.8434  -12.4873 C   0  0  2  0  0  0  0  0  0  0  0  0
   18.1673   -8.1608  -11.6928 N   0  0  0  0  0  0  0  0  0  0  0  0
   18.9470   -7.2585  -13.8088 C   0  0  0  0  0  0  0  0  0  0  0  0
   18.0312   -7.8244  -14.4527 O   0  0  0  0  0  0  0  0  0  0  0  0
   19.5685   -6.1210  -14.3619 N   0  0  0  0  0  0  0  0  0  0  0  0
   19.1558   -5.5454  -15.6328 C   0  0  1  0  0  0  0  0  0  0  0  0
   17.8703   -4.8143  -15.4917 C   0  0  0  0  0  0  0  0  0  0  0  0
   17.8722   -3.5225  -14.7636 C   0  0  0  0  0  0  0  0  0  0  0  0
   16.6668   -2.7231  -14.7330 C   0  0  0  0  0  0  0  0  0  0  0  0
   16.2055   -1.9741  -15.6129 O   0  0  0  0  0  0  0  0  0  0  0  0
   20.2442   -4.8438  -16.3070 C   0  0  0  0  0  0  0  0  0  0  0  0
   20.0277   -4.2608  -17.5573 O   0  0  0  0  0  0  0  0  0  0  0  0
   15.8747   -2.7724  -13.5568 O   0  0  0  0  0  0  0  0  0  0  0  0
   21.3821   -4.7453  -15.8067 O   0  0  0  0  0  0  0  0  0  0  0  0
  2  1  1  1
  3  4  1  0
  3  2  1  0
  5  6  2  0
  5  2  1  0
  7  8  1  0
  8  9  1  0
  9 10  1  0
 11 10  1  6
 11 13  1  0
 11 12  1  0
 12  5  1  0
 13 15  1  0
 14 13  2  0
 15 16  1  0
 16 21  1  0
 17 18  1  0
 16 17  1  1
 19 20  2  0
 19 18  1  0
 21 24  2  0
 21 22  1  0
 23 19  1  0
M  END
$$$$
