RCI.pdb
     RDKit          3D

 26 25  0  0  1  0  0  0  0  0999 V2000
   26.3342  -21.0676  -16.1109 N   0  0  0  0  0  0  0  0  0  0  0  0
   26.2964  -21.8846  -14.9538 C   0  0  0  0  0  0  0  0  0  0  0  0
   27.3207  -22.0008  -14.1622 N   0  0  0  0  0  0  0  0  0  0  0  0
   25.1190  -22.6145  -14.6166 N   0  0  0  0  0  0  0  0  0  0  0  0
   23.9094  -22.4527  -15.4001 C   0  0  0  0  0  0  0  0  0  0  0  0
   22.7194  -22.4693  -14.4535 C   0  0  0  0  0  0  0  0  0  0  0  0
   22.6234  -21.1885  -13.6599 C   0  0  0  0  0  0  0  0  0  0  0  0
   22.1775  -20.1087  -14.6288 C   0  0  2  0  0  0  0  0  0  0  0  0
   22.4562  -20.5667  -15.9949 N   0  0  0  0  0  0  0  0  0  0  0  0
   22.9015  -18.8427  -14.3977 C   0  0  0  0  0  0  0  0  0  0  0  0
   22.7811  -18.1851  -13.3190 O   0  0  0  0  0  0  0  0  0  0  0  0
   27.2551  -22.5801  -13.2980 N   0  0  0  0  0  0  0  0  0  0  0  0
   23.7565  -18.3212  -15.3772 C   0  0  1  0  0  0  0  0  0  0  0  0
   24.5185  -17.0651  -15.1828 C   0  0  0  0  0  0  0  0  0  0  0  0
   25.9871  -17.4181  -15.0297 S   0  0  0  0  0  0  0  0  0  0  0  0
   27.0851  -16.0033  -15.0461 C   0  0  0  0  0  0  0  0  0  0  0  0
   24.3606  -16.2175  -16.3880 O   0  0  0  0  0  0  0  0  0  0  0  0
   24.4260  -16.7345  -17.5540 C   0  0  0  0  0  0  0  0  0  0  0  0
   20.9465  -11.8269  -18.4897 C   0  0  0  0  0  0  0  0  0  0  0  0
   22.2848  -12.4833  -18.6203 C   0  0  2  0  0  0  0  0  0  0  0  0
   22.6427  -13.3143  -17.4099 C   0  0  0  0  0  0  0  0  0  0  0  0
   22.5360  -12.5610  -16.1276 C   0  0  2  0  0  0  0  0  0  0  0  0
   23.9577  -14.0394  -17.5722 N   0  0  0  0  0  0  0  0  0  0  0  0
   24.1320  -14.8225  -16.3343 C   0  0  0  0  0  0  0  0  0  0  0  0
   25.1096  -13.1171  -17.7538 O   0  0  0  0  0  0  0  0  0  0  0  0
   25.8782  -12.7887  -16.8077 O   0  0  0  0  0  0  0  0  0  0  0  0
  2  3  2  0
  2  1  1  0
  4  2  1  0
  5  4  1  0
  6  5  1  0
  7  6  1  0
  8 10  1  0
  8  7  1  0
  8  9  1  6
 10 11  2  0
 12 13  1  0
 12 10  1  0
 13 16  1  0
 13 14  1  1
 15 14  1  0
 16 23  1  0
 16 17  2  0
 18 19  1  0
 19 20  1  0
 20 21  1  1
 22 20  1  0
 22 24  1  0
 22 23  1  6
 24 25  2  0
 24 26  1  0
M  END
$$$$
