RCI.pdb
     RDKit          3D

 26 25  0  0  1  0  0  0  0  0999 V2000
   20.1159  -23.5353  -18.7763 N   0  0  0  0  0  0  0  0  0  0  0  0
   21.2737  -24.1554  -19.3082 C   0  0  0  0  0  0  0  0  0  0  0  0
   21.2143  -25.2853  -19.9478 N   0  0  0  0  0  0  0  0  0  0  0  0
   22.5567  -23.5524  -19.1568 N   0  0  0  0  0  0  0  0  0  0  0  0
   22.7052  -22.3348  -18.3831 C   0  0  0  0  0  0  0  0  0  0  0  0
   24.1500  -21.8724  -18.4900 C   0  0  0  0  0  0  0  0  0  0  0  0
   24.3960  -20.6268  -17.6732 C   0  0  0  0  0  0  0  0  0  0  0  0
   25.8685  -20.2911  -17.8244 C   0  0  2  0  0  0  0  0  0  0  0  0
   26.5703  -21.4869  -18.3055 N   0  0  0  0  0  0  0  0  0  0  0  0
   26.4638  -19.8793  -16.5374 C   0  0  0  0  0  0  0  0  0  0  0  0
   27.0418  -20.7061  -15.7673 O   0  0  0  0  0  0  0  0  0  0  0  0
   22.0817  -25.7211  -20.3281 N   0  0  0  0  0  0  0  0  0  0  0  0
   26.4078  -18.5430  -16.1210 C   0  0  2  0  0  0  0  0  0  0  0  0
   26.8383  -18.1104  -14.7705 C   0  0  0  0  0  0  0  0  0  0  0  0
   26.6876  -16.6023  -14.6831 S   0  0  0  0  0  0  0  0  0  0  0  0
   27.7045  -15.6968  -15.8465 C   0  0  0  0  0  0  0  0  0  0  0  0
   25.9486  -18.7322  -13.7619 O   0  0  0  0  0  0  0  0  0  0  0  0
   24.6816  -18.5952  -13.8466 C   0  0  0  0  0  0  0  0  0  0  0  0
   25.2847  -23.5596  -13.3434 C   0  0  0  0  0  0  0  0  0  0  0  0
   24.9928  -22.1103  -13.1118 C   0  0  2  0  0  0  0  0  0  0  0  0
   25.6361  -21.5846  -11.8496 C   0  0  0  0  0  0  0  0  0  0  0  0
   25.2425  -22.3451  -10.6289 C   0  0  2  0  0  0  0  0  0  0  0  0
   25.4837  -20.0894  -11.7001 N   0  0  0  0  0  0  0  0  0  0  0  0
   26.4234  -19.4978  -12.6712 C   0  0  0  0  0  0  0  0  0  0  0  0
   25.8026  -19.6083  -10.3300 O   0  0  0  0  0  0  0  0  0  0  0  0
   26.9441  -19.1783  -10.0048 O   0  0  0  0  0  0  0  0  0  0  0  0
  2  3  2  0
  2  1  1  0
  4  2  1  0
  5  4  1  0
  6  5  1  0
  7  6  1  0
  8 10  1  0
  8  7  1  0
  8  9  1  1
 10 11  2  0
 12 13  1  0
 12 10  1  0
 13 16  1  0
 13 14  1  6
 15 14  1  0
 16 23  1  0
 16 17  2  0
 18 19  1  0
 19 20  1  0
 20 21  1  6
 22 20  1  0
 22 24  1  0
 22 23  1  1
 24 25  2  0
 24 26  1  0
M  END
$$$$
