RCI.pdb
     RDKit          3D

 26 25  0  0  1  0  0  0  0  0999 V2000
   20.7433  -27.0864  -12.4066 N   0  0  0  0  0  0  0  0  0  0  0  0
   19.8096  -26.0335  -12.5721 C   0  0  0  0  0  0  0  0  0  0  0  0
   18.7731  -25.9077  -11.7980 N   0  0  0  0  0  0  0  0  0  0  0  0
   19.9791  -25.0664  -13.6058 N   0  0  0  0  0  0  0  0  0  0  0  0
   21.1229  -25.1393  -14.4943 C   0  0  0  0  0  0  0  0  0  0  0  0
   21.7107  -23.7439  -14.6344 C   0  0  0  0  0  0  0  0  0  0  0  0
   22.7942  -23.4928  -13.6134 C   0  0  0  0  0  0  0  0  0  0  0  0
   22.3308  -22.3219  -12.7661 C   0  0  2  0  0  0  0  0  0  0  0  0
   21.1977  -21.6792  -13.4420 N   0  0  0  0  0  0  0  0  0  0  0  0
   23.4045  -21.3237  -12.5902 C   0  0  0  0  0  0  0  0  0  0  0  0
   23.3971  -20.2116  -13.2016 O   0  0  0  0  0  0  0  0  0  0  0  0
   18.0624  -25.1685  -11.9858 N   0  0  0  0  0  0  0  0  0  0  0  0
   24.4805  -21.5778  -11.7300 C   0  0  1  0  0  0  0  0  0  0  0  0
   25.6324  -20.6545  -11.6005 C   0  0  0  0  0  0  0  0  0  0  0  0
   26.3824  -21.0046  -10.3278 S   0  0  0  0  0  0  0  0  0  0  0  0
   26.0267  -19.9205   -8.9473 C   0  0  0  0  0  0  0  0  0  0  0  0
   26.5407  -20.8570  -12.7536 O   0  0  0  0  0  0  0  0  0  0  0  0
   27.2499  -21.9157  -12.8387 C   0  0  0  0  0  0  0  0  0  0  0  0
   26.8923  -21.9976  -18.2137 C   0  0  0  0  0  0  0  0  0  0  0  0
   27.6546  -21.1970  -17.2051 C   0  0  2  0  0  0  0  0  0  0  0  0
   26.8230  -20.8522  -15.9913 C   0  0  0  0  0  0  0  0  0  0  0  0
   25.5592  -20.1365  -16.3289 C   0  0  2  0  0  0  0  0  0  0  0  0
   27.6285  -20.1702  -14.9109 N   0  0  0  0  0  0  0  0  0  0  0  0
   26.6807  -19.9240  -13.8078 C   0  0  0  0  0  0  0  0  0  0  0  0
   28.2282  -18.8855  -15.3586 O   0  0  0  0  0  0  0  0  0  0  0  0
   29.2564  -18.8288  -16.0889 O   0  0  0  0  0  0  0  0  0  0  0  0
  2  3  2  0
  2  1  1  0
  4  2  1  0
  5  4  1  0
  6  5  1  0
  7  6  1  0
  8 10  1  0
  8  7  1  0
  8  9  1  6
 10 11  2  0
 12 13  1  0
 12 10  1  0
 13 16  1  0
 13 14  1  6
 15 14  1  0
 16 23  1  0
 16 17  2  0
 18 19  1  0
 19 20  1  0
 20 21  1  1
 22 20  1  0
 22 24  1  0
 22 23  1  6
 24 25  2  0
 24 26  1  0
M  END
$$$$
