RCI.pdb
     RDKit          3D

 26 25  0  0  1  0  0  0  0  0999 V2000
   26.4312  -20.5777   -8.6912 N   0  0  0  0  0  0  0  0  0  0  0  0
   25.1723  -20.9914   -9.1929 C   0  0  0  0  0  0  0  0  0  0  0  0
   24.2116  -21.3731   -8.4050 N   0  0  0  0  0  0  0  0  0  0  0  0
   24.9158  -21.0022  -10.5953 N   0  0  0  0  0  0  0  0  0  0  0  0
   25.3199  -22.1367  -11.4033 C   0  0  0  0  0  0  0  0  0  0  0  0
   26.7378  -21.8932  -11.8960 C   0  0  0  0  0  0  0  0  0  0  0  0
   26.9539  -22.4716  -13.2737 C   0  0  0  0  0  0  0  0  0  0  0  0
   27.1700  -21.2967  -14.2099 C   0  0  2  0  0  0  0  0  0  0  0  0
   27.4720  -20.1090  -13.4025 N   0  0  0  0  0  0  0  0  0  0  0  0
   25.9667  -21.0236  -15.0210 C   0  0  0  0  0  0  0  0  0  0  0  0
   25.8057  -21.5227  -16.1766 O   0  0  0  0  0  0  0  0  0  0  0  0
   23.3195  -21.7387   -8.8016 N   0  0  0  0  0  0  0  0  0  0  0  0
   24.9507  -20.1923  -14.5319 C   0  0  1  0  0  0  0  0  0  0  0  0
   23.8370  -19.7102  -15.3824 C   0  0  0  0  0  0  0  0  0  0  0  0
   22.5647  -20.4132  -14.9443 S   0  0  0  0  0  0  0  0  0  0  0  0
   21.2005  -19.3066  -14.5953 C   0  0  0  0  0  0  0  0  0  0  0  0
   23.6677  -18.2536  -15.1700 O   0  0  0  0  0  0  0  0  0  0  0  0
   23.3738  -17.7997  -14.0130 C   0  0  0  0  0  0  0  0  0  0  0  0
   26.4517  -13.3261  -15.4461 C   0  0  0  0  0  0  0  0  0  0  0  0
   25.1300  -13.7820  -15.9795 C   0  0  2  0  0  0  0  0  0  0  0  0
   25.0747  -15.2777  -16.1884 C   0  0  0  0  0  0  0  0  0  0  0  0
   25.6401  -15.7092  -17.4988 C   0  0  2  0  0  0  0  0  0  0  0  0
   23.7067  -15.8525  -15.9066 N   0  0  0  0  0  0  0  0  0  0  0  0
   23.8165  -17.2942  -16.1989 C   0  0  0  0  0  0  0  0  0  0  0  0
   22.6391  -15.2462  -16.7451 O   0  0  0  0  0  0  0  0  0  0  0  0
   22.4211  -15.6017  -17.9366 O   0  0  0  0  0  0  0  0  0  0  0  0
  2  3  2  0
  2  1  1  0
  4  2  1  0
  5  4  1  0
  6  5  1  0
  7  6  1  0
  8 10  1  0
  8  7  1  0
  8  9  1  1
 10 11  2  0
 12 13  1  0
 12 10  1  0
 13 16  1  0
 13 14  1  6
 15 14  1  0
 16 23  1  0
 16 17  2  0
 18 19  1  0
 19 20  1  0
 20 21  1  1
 22 20  1  0
 22 24  1  0
 22 23  1  6
 24 25  2  0
 24 26  1  0
M  END
$$$$
