RCI.pdb
     RDKit          3D

 26 25  0  0  1  0  0  0  0  0999 V2000
   24.9247  -15.0546  -14.9139 N   0  0  0  0  0  0  0  0  0  0  0  0
   24.9851  -15.6292  -16.2077 C   0  0  0  0  0  0  0  0  0  0  0  0
   24.0357  -15.4591  -17.0789 N   0  0  0  0  0  0  0  0  0  0  0  0
   26.1030  -16.4223  -16.6001 N   0  0  0  0  0  0  0  0  0  0  0  0
   27.1228  -16.7775  -15.6321 C   0  0  0  0  0  0  0  0  0  0  0  0
   27.1374  -18.2910  -15.4850 C   0  0  0  0  0  0  0  0  0  0  0  0
   28.1182  -18.7365  -14.4272 C   0  0  0  0  0  0  0  0  0  0  0  0
   28.0379  -20.2511  -14.3697 C   0  0  2  0  0  0  0  0  0  0  0  0
   28.1204  -20.7728  -15.7389 N   0  0  0  0  0  0  0  0  0  0  0  0
   26.7676  -20.7025  -13.7674 C   0  0  0  0  0  0  0  0  0  0  0  0
   25.9101  -21.3690  -14.4240 O   0  0  0  0  0  0  0  0  0  0  0  0
   24.0935  -15.9128  -18.0158 N   0  0  0  0  0  0  0  0  0  0  0  0
   26.4657  -20.4042  -12.4324 C   0  0  2  0  0  0  0  0  0  0  0  0
   25.2457  -20.9091  -11.7593 C   0  0  0  0  0  0  0  0  0  0  0  0
   25.3513  -20.5883  -10.2792 S   0  0  0  0  0  0  0  0  0  0  0  0
   26.8081  -21.2639   -9.4863 C   0  0  0  0  0  0  0  0  0  0  0  0
   24.0663  -20.2024  -12.3118 O   0  0  0  0  0  0  0  0  0  0  0  0
   23.9761  -18.9313  -12.2249 C   0  0  0  0  0  0  0  0  0  0  0  0
   20.8700  -19.6156  -17.1613 C   0  0  0  0  0  0  0  0  0  0  0  0
   20.7934  -19.4913  -15.6721 C   0  0  2  0  0  0  0  0  0  0  0  0
   21.9518  -20.1657  -14.9744 C   0  0  0  0  0  0  0  0  0  0  0  0
   22.2304  -21.5369  -15.4897 C   0  0  2  0  0  0  0  0  0  0  0  0
   21.8396  -20.1016  -13.4695 N   0  0  0  0  0  0  0  0  0  0  0  0
   22.9934  -20.8630  -12.9548 C   0  0  0  0  0  0  0  0  0  0  0  0
   20.5749  -20.6916  -12.9569 O   0  0  0  0  0  0  0  0  0  0  0  0
   19.4842  -20.0564  -12.9339 O   0  0  0  0  0  0  0  0  0  0  0  0
  2  3  2  0
  2  1  1  0
  4  2  1  0
  5  4  1  0
  6  5  1  0
  7  6  1  0
  8 10  1  0
  8  7  1  0
  8  9  1  6
 10 11  2  0
 12 13  1  0
 12 10  1  0
 13 16  1  0
 13 14  1  1
 15 14  1  0
 16 23  1  0
 16 17  2  0
 18 19  1  0
 19 20  1  0
 20 21  1  6
 22 20  1  0
 22 24  1  0
 22 23  1  1
 24 25  2  0
 24 26  1  0
M  END
$$$$
