RCI.pdb
     RDKit          3D

 26 25  0  0  1  0  0  0  0  0999 V2000
   30.3529  -24.5563  -17.4684 N   0  0  0  0  0  0  0  0  0  0  0  0
   30.2229  -23.3587  -18.2143 C   0  0  0  0  0  0  0  0  0  0  0  0
   30.5346  -23.2981  -19.4747 N   0  0  0  0  0  0  0  0  0  0  0  0
   29.7399  -22.1668  -17.5987 N   0  0  0  0  0  0  0  0  0  0  0  0
   29.0265  -22.2330  -16.3379 C   0  0  0  0  0  0  0  0  0  0  0  0
   28.0710  -21.0522  -16.2654 C   0  0  0  0  0  0  0  0  0  0  0  0
   26.6560  -21.4993  -15.9876 C   0  0  0  0  0  0  0  0  0  0  0  0
   26.7454  -22.6132  -14.9604 C   0  0  2  0  0  0  0  0  0  0  0  0
   26.8464  -23.8932  -15.6711 N   0  0  0  0  0  0  0  0  0  0  0  0
   25.5501  -22.6465  -14.0940 C   0  0  0  0  0  0  0  0  0  0  0  0
   24.5031  -23.2879  -14.4150 O   0  0  0  0  0  0  0  0  0  0  0  0
   30.4108  -22.4094  -20.0055 N   0  0  0  0  0  0  0  0  0  0  0  0
   25.5354  -21.9605  -12.8727 C   0  0  2  0  0  0  0  0  0  0  0  0
   24.3374  -21.9094  -12.0019 C   0  0  0  0  0  0  0  0  0  0  0  0
   24.7383  -21.2863  -10.6768 S   0  0  0  0  0  0  0  0  0  0  0  0
   25.7856  -19.8422  -10.8346 C   0  0  0  0  0  0  0  0  0  0  0  0
   23.3176  -21.0443  -12.6401 O   0  0  0  0  0  0  0  0  0  0  0  0
   23.6598  -19.9497  -13.2021 C   0  0  0  0  0  0  0  0  0  0  0  0
   19.8680  -20.5288  -17.0063 C   0  0  0  0  0  0  0  0  0  0  0  0
   19.9829  -20.0415  -15.5962 C   0  0  2  0  0  0  0  0  0  0  0  0
   20.9523  -20.8619  -14.7772 C   0  0  0  0  0  0  0  0  0  0  0  0
   20.7943  -22.3309  -14.9777 C   0  0  2  0  0  0  0  0  0  0  0  0
   20.9738  -20.4536  -13.3232 N   0  0  0  0  0  0  0  0  0  0  0  0
   21.9390  -21.3599  -12.6729 C   0  0  0  0  0  0  0  0  0  0  0  0
   19.6450  -20.5749  -12.6674 O   0  0  0  0  0  0  0  0  0  0  0  0
   19.2680  -21.6243  -12.0756 O   0  0  0  0  0  0  0  0  0  0  0  0
  2  3  2  0
  2  1  1  0
  4  2  1  0
  5  4  1  0
  6  5  1  0
  7  6  1  0
  8 10  1  0
  8  7  1  0
  8  9  1  6
 10 11  2  0
 12 13  1  0
 12 10  1  0
 13 16  1  0
 13 14  1  1
 15 14  1  0
 16 23  1  0
 16 17  2  0
 18 19  1  0
 19 20  1  0
 20 21  1  6
 22 20  1  0
 22 24  1  0
 22 23  1  1
 24 25  2  0
 24 26  1  0
M  END
$$$$
