RCI.pdb
     RDKit          3D

 26 25  0  0  1  0  0  0  0  0999 V2000
   20.0930  -24.0824  -14.3303 N   0  0  0  0  0  0  0  0  0  0  0  0
   18.7841  -23.5737  -14.5196 C   0  0  0  0  0  0  0  0  0  0  0  0
   17.7700  -24.3553  -14.7434 N   0  0  0  0  0  0  0  0  0  0  0  0
   18.5345  -22.1709  -14.4701 N   0  0  0  0  0  0  0  0  0  0  0  0
   19.6026  -21.2500  -14.1321 C   0  0  0  0  0  0  0  0  0  0  0  0
   19.8539  -21.3365  -12.6349 C   0  0  0  0  0  0  0  0  0  0  0  0
   20.8474  -20.2957  -12.1777 C   0  0  0  0  0  0  0  0  0  0  0  0
   21.9277  -21.0337  -11.4082 C   0  0  2  0  0  0  0  0  0  0  0  0
   21.6538  -20.8935   -9.9732 N   0  0  0  0  0  0  0  0  0  0  0  0
   23.2668  -20.4791  -11.6903 C   0  0  0  0  0  0  0  0  0  0  0  0
   23.6497  -19.3672  -11.2132 O   0  0  0  0  0  0  0  0  0  0  0  0
   16.8222  -23.9536  -14.9085 N   0  0  0  0  0  0  0  0  0  0  0  0
   24.1691  -21.1742  -12.5058 C   0  0  2  0  0  0  0  0  0  0  0  0
   25.4968  -20.6270  -12.8721 C   0  0  0  0  0  0  0  0  0  0  0  0
   26.4654  -21.7867  -13.0195 S   0  0  0  0  0  0  0  0  0  0  0  0
   27.0169  -22.4817  -11.4638 C   0  0  0  0  0  0  0  0  0  0  0  0
   25.3866  -19.9359  -14.1782 O   0  0  0  0  0  0  0  0  0  0  0  0
   24.5484  -20.3394  -15.0533 C   0  0  0  0  0  0  0  0  0  0  0  0
   25.3684  -14.5722  -16.5880 C   0  0  0  0  0  0  0  0  0  0  0  0
   26.1286  -15.8391  -16.8255 C   0  0  2  0  0  0  0  0  0  0  0  0
   26.2544  -16.6815  -15.5772 C   0  0  0  0  0  0  0  0  0  0  0  0
   27.5206  -16.4371  -14.8286 C   0  0  2  0  0  0  0  0  0  0  0  0
   25.9827  -18.1447  -15.8350 N   0  0  0  0  0  0  0  0  0  0  0  0
   26.1742  -18.8166  -14.5358 C   0  0  0  0  0  0  0  0  0  0  0  0
   26.8966  -18.7342  -16.8488 O   0  0  0  0  0  0  0  0  0  0  0  0
   27.9689  -19.3250  -16.5412 O   0  0  0  0  0  0  0  0  0  0  0  0
  2  3  2  0
  2  1  1  0
  4  2  1  0
  5  4  1  0
  6  5  1  0
  7  6  1  0
  8 10  1  0
  8  7  1  0
  8  9  1  1
 10 11  2  0
 12 13  1  0
 12 10  1  0
 13 16  1  0
 13 14  1  1
 15 14  1  0
 16 23  1  0
 16 17  2  0
 18 19  1  0
 19 20  1  0
 20 21  1  1
 22 20  1  0
 22 24  1  0
 22 23  1  6
 24 25  2  0
 24 26  1  0
M  END
$$$$
