RCI.pdb
     RDKit          3D

 26 25  0  0  1  0  0  0  0  0999 V2000
   28.2161  -28.8881  -16.2215 N   0  0  0  0  0  0  0  0  0  0  0  0
   27.0316  -28.9594  -16.9958 C   0  0  0  0  0  0  0  0  0  0  0  0
   26.1281  -29.8698  -16.7853 N   0  0  0  0  0  0  0  0  0  0  0  0
   26.7898  -28.0233  -18.0437 N   0  0  0  0  0  0  0  0  0  0  0  0
   27.5868  -26.8159  -18.1432 C   0  0  0  0  0  0  0  0  0  0  0  0
   26.8497  -25.6948  -17.4275 C   0  0  0  0  0  0  0  0  0  0  0  0
   27.7626  -24.9380  -16.4931 C   0  0  0  0  0  0  0  0  0  0  0  0
   27.9758  -23.5671  -17.1087 C   0  0  2  0  0  0  0  0  0  0  0  0
   29.2662  -23.5674  -17.8078 N   0  0  0  0  0  0  0  0  0  0  0  0
   27.9965  -22.5094  -16.0785 C   0  0  0  0  0  0  0  0  0  0  0  0
   29.0369  -22.2510  -15.3992 O   0  0  0  0  0  0  0  0  0  0  0  0
   25.3494  -30.0057  -17.4650 N   0  0  0  0  0  0  0  0  0  0  0  0
   26.8508  -21.7474  -15.8157 C   0  0  2  0  0  0  0  0  0  0  0  0
   26.7996  -20.7310  -14.7384 C   0  0  0  0  0  0  0  0  0  0  0  0
   26.1650  -19.4720  -15.3016 S   0  0  0  0  0  0  0  0  0  0  0  0
   27.3383  -18.1843  -15.7172 C   0  0  0  0  0  0  0  0  0  0  0  0
   25.9444  -21.2392  -13.6403 O   0  0  0  0  0  0  0  0  0  0  0  0
   24.8980  -21.9237  -13.9008 C   0  0  0  0  0  0  0  0  0  0  0  0
   25.7142  -21.1919   -7.4239 C   0  0  0  0  0  0  0  0  0  0  0  0
   25.0792  -21.5418   -8.7330 C   0  0  2  0  0  0  0  0  0  0  0  0
   25.9179  -21.1155   -9.9156 C   0  0  0  0  0  0  0  0  0  0  0  0
   26.4604  -19.7329   -9.7833 C   0  0  2  0  0  0  0  0  0  0  0  0
   25.2287  -21.3658  -11.2360 N   0  0  0  0  0  0  0  0  0  0  0  0
   26.2181  -21.0117  -12.2711 C   0  0  0  0  0  0  0  0  0  0  0  0
   23.9985  -20.5495  -11.4117 O   0  0  0  0  0  0  0  0  0  0  0  0
   24.0092  -19.4012  -11.9358 O   0  0  0  0  0  0  0  0  0  0  0  0
  2  3  2  0
  2  1  1  0
  4  2  1  0
  5  4  1  0
  6  5  1  0
  7  6  1  0
  8 10  1  0
  8  7  1  0
  8  9  1  1
 10 11  2  0
 12 13  1  0
 12 10  1  0
 13 16  1  0
 13 14  1  6
 15 14  1  0
 16 23  1  0
 16 17  2  0
 18 19  1  0
 19 20  1  0
 20 21  1  6
 22 20  1  0
 22 24  1  0
 22 23  1  6
 24 25  2  0
 24 26  1  0
M  END
$$$$
