RCI.pdb
     RDKit          3D

 26 25  0  0  1  0  0  0  0  0999 V2000
   19.8204  -18.1017  -15.0795 N   0  0  0  0  0  0  0  0  0  0  0  0
   19.5742  -17.0123  -15.9513 C   0  0  0  0  0  0  0  0  0  0  0  0
   18.6162  -16.1615  -15.7326 N   0  0  0  0  0  0  0  0  0  0  0  0
   20.3792  -16.8119  -17.1109 N   0  0  0  0  0  0  0  0  0  0  0  0
   20.5289  -17.8723  -18.0887 C   0  0  0  0  0  0  0  0  0  0  0  0
   20.9332  -19.1436  -17.3587 C   0  0  0  0  0  0  0  0  0  0  0  0
   21.8985  -19.9693  -18.1747 C   0  0  0  0  0  0  0  0  0  0  0  0
   23.1589  -19.1380  -18.3298 C   0  0  2  0  0  0  0  0  0  0  0  0
   23.4165  -18.9479  -19.7620 N   0  0  0  0  0  0  0  0  0  0  0  0
   24.3267  -19.8090  -17.7244 C   0  0  0  0  0  0  0  0  0  0  0  0
   25.0450  -20.6283  -18.3749 O   0  0  0  0  0  0  0  0  0  0  0  0
   18.4624  -15.3628  -16.3848 N   0  0  0  0  0  0  0  0  0  0  0  0
   24.6825  -19.5576  -16.3930 C   0  0  2  0  0  0  0  0  0  0  0  0
   25.8528  -20.1970  -15.7466 C   0  0  0  0  0  0  0  0  0  0  0  0
   27.1130  -19.6187  -16.3648 S   0  0  0  0  0  0  0  0  0  0  0  0
   27.1674  -17.8286  -16.3761 C   0  0  0  0  0  0  0  0  0  0  0  0
   25.8421  -19.8668  -14.3021 O   0  0  0  0  0  0  0  0  0  0  0  0
   25.5584  -18.6842  -13.9122 C   0  0  0  0  0  0  0  0  0  0  0  0
   24.2349  -19.8618   -9.2212 C   0  0  0  0  0  0  0  0  0  0  0  0
   25.2608  -20.8702   -9.6335 C   0  0  2  0  0  0  0  0  0  0  0  0
   25.2276  -21.1567  -11.1169 C   0  0  0  0  0  0  0  0  0  0  0  0
   25.2230  -22.6137  -11.4339 C   0  0  2  0  0  0  0  0  0  0  0  0
   26.2731  -20.3797  -11.8813 N   0  0  0  0  0  0  0  0  0  0  0  0
   26.1337  -20.8071  -13.2863 C   0  0  0  0  0  0  0  0  0  0  0  0
   27.6564  -20.6467  -11.4062 O   0  0  0  0  0  0  0  0  0  0  0  0
   28.1429  -20.1013  -10.3769 O   0  0  0  0  0  0  0  0  0  0  0  0
  2  3  2  0
  2  1  1  0
  4  2  1  0
  5  4  1  0
  6  5  1  0
  7  6  1  0
  8 10  1  0
  8  7  1  0
  8  9  1  6
 10 11  2  0
 12 13  1  0
 12 10  1  0
 13 16  1  0
 13 14  1  6
 15 14  1  0
 16 23  1  0
 16 17  2  0
 18 19  1  0
 19 20  1  0
 20 21  1  6
 22 20  1  0
 22 24  1  0
 22 23  1  1
 24 25  2  0
 24 26  1  0
M  END
$$$$
