RCI.pdb
     RDKit          3D

 26 25  0  0  1  0  0  0  0  0999 V2000
   17.4075  -25.4151   -8.7358 N   0  0  0  0  0  0  0  0  0  0  0  0
   16.8475  -24.4264   -7.8893 C   0  0  0  0  0  0  0  0  0  0  0  0
   15.5804  -24.1380   -7.9160 N   0  0  0  0  0  0  0  0  0  0  0  0
   17.6660  -23.7072   -6.9698 N   0  0  0  0  0  0  0  0  0  0  0  0
   19.0882  -23.9797   -6.8896 C   0  0  0  0  0  0  0  0  0  0  0  0
   19.8407  -22.7042   -7.2353 C   0  0  0  0  0  0  0  0  0  0  0  0
   21.0462  -22.9877   -8.0988 C   0  0  0  0  0  0  0  0  0  0  0  0
   21.0596  -21.9306   -9.1879 C   0  0  2  0  0  0  0  0  0  0  0  0
   19.9410  -22.1909  -10.1015 N   0  0  0  0  0  0  0  0  0  0  0  0
   22.3181  -21.9654   -9.9594 C   0  0  0  0  0  0  0  0  0  0  0  0
   22.6628  -22.9792  -10.6406 O   0  0  0  0  0  0  0  0  0  0  0  0
   15.1804  -23.4598   -7.2328 N   0  0  0  0  0  0  0  0  0  0  0  0
   23.1832  -20.8636   -9.9627 C   0  0  1  0  0  0  0  0  0  0  0  0
   24.5608  -20.9337  -10.5044 C   0  0  0  0  0  0  0  0  0  0  0  0
   24.6022  -20.1488  -11.8033 S   0  0  0  0  0  0  0  0  0  0  0  0
   26.2559  -19.8176  -12.4057 C   0  0  0  0  0  0  0  0  0  0  0  0
   25.4881  -20.2974   -9.5395 O   0  0  0  0  0  0  0  0  0  0  0  0
   25.3116  -19.0854   -9.1777 C   0  0  0  0  0  0  0  0  0  0  0  0
   27.2183  -20.1117   -4.8560 C   0  0  0  0  0  0  0  0  0  0  0  0
   26.9304  -19.9864   -6.3191 C   0  0  2  0  0  0  0  0  0  0  0  0
   28.0778  -20.4652   -7.1781 C   0  0  0  0  0  0  0  0  0  0  0  0
   29.4061  -19.9748   -6.7108 C   0  0  2  0  0  0  0  0  0  0  0  0
   27.8365  -20.2325   -8.6508 N   0  0  0  0  0  0  0  0  0  0  0  0
   26.5964  -20.9656   -8.9683 C   0  0  0  0  0  0  0  0  0  0  0  0
   28.9485  -20.7257   -9.5055 O   0  0  0  0  0  0  0  0  0  0  0  0
   29.0236  -21.9198   -9.9079 O   0  0  0  0  0  0  0  0  0  0  0  0
  2  3  2  0
  2  1  1  0
  4  2  1  0
  5  4  1  0
  6  5  1  0
  7  6  1  0
  8 10  1  0
  8  7  1  0
  8  9  1  6
 10 11  2  0
 12 13  1  0
 12 10  1  0
 13 16  1  0
 13 14  1  6
 15 14  1  0
 16 23  1  0
 16 17  2  0
 18 19  1  0
 19 20  1  0
 20 21  1  6
 22 20  1  0
 22 24  1  0
 22 23  1  6
 24 25  2  0
 24 26  1  0
M  END
$$$$
