RCI.pdb
     RDKit          3D

 26 25  0  0  1  0  0  0  0  0999 V2000
   22.3358  -25.3000  -16.0625 N   0  0  0  0  0  0  0  0  0  0  0  0
   23.6849  -25.7197  -15.9551 C   0  0  0  0  0  0  0  0  0  0  0  0
   24.1870  -26.6234  -16.7430 N   0  0  0  0  0  0  0  0  0  0  0  0
   24.5455  -25.1574  -14.9673 N   0  0  0  0  0  0  0  0  0  0  0  0
   24.0559  -24.1259  -14.0732 C   0  0  0  0  0  0  0  0  0  0  0  0
   24.8585  -22.8579  -14.3195 C   0  0  0  0  0  0  0  0  0  0  0  0
   25.9954  -22.7206  -13.3358 C   0  0  0  0  0  0  0  0  0  0  0  0
   25.3700  -22.4063  -11.9890 C   0  0  2  0  0  0  0  0  0  0  0  0
   24.1291  -21.6565  -12.2169 N   0  0  0  0  0  0  0  0  0  0  0  0
   26.2704  -21.5874  -11.1530 C   0  0  0  0  0  0  0  0  0  0  0  0
   27.4738  -21.9232  -10.9304 O   0  0  0  0  0  0  0  0  0  0  0  0
   25.1604  -26.9669  -16.5970 N   0  0  0  0  0  0  0  0  0  0  0  0
   25.8166  -20.3966  -10.5711 C   0  0  1  0  0  0  0  0  0  0  0  0
   26.6799  -19.5477   -9.7166 C   0  0  0  0  0  0  0  0  0  0  0  0
   25.9826  -18.2150   -9.5106 S   0  0  0  0  0  0  0  0  0  0  0  0
   26.8024  -17.1332   -8.3422 C   0  0  0  0  0  0  0  0  0  0  0  0
   26.8421  -20.2036   -8.3978 O   0  0  0  0  0  0  0  0  0  0  0  0
   25.8919  -20.8971   -7.9004 C   0  0  0  0  0  0  0  0  0  0  0  0
   31.1779  -21.4584   -4.2082 C   0  0  0  0  0  0  0  0  0  0  0  0
   29.7423  -21.1020   -4.4349 C   0  0  2  0  0  0  0  0  0  0  0  0
   29.5011  -20.5147   -5.8062 C   0  0  0  0  0  0  0  0  0  0  0  0
   30.0503  -19.1370   -5.9602 C   0  0  2  0  0  0  0  0  0  0  0  0
   28.0614  -20.6392   -6.2456 N   0  0  0  0  0  0  0  0  0  0  0  0
   28.0222  -20.1129   -7.6230 C   0  0  0  0  0  0  0  0  0  0  0  0
   27.1239  -19.8718   -5.3839 O   0  0  0  0  0  0  0  0  0  0  0  0
   26.7891  -18.6798   -5.6302 O   0  0  0  0  0  0  0  0  0  0  0  0
  2  3  2  0
  2  1  1  0
  4  2  1  0
  5  4  1  0
  6  5  1  0
  7  6  1  0
  8 10  1  0
  8  7  1  0
  8  9  1  6
 10 11  2  0
 12 13  1  0
 12 10  1  0
 13 16  1  0
 13 14  1  1
 15 14  1  0
 16 23  1  0
 16 17  2  0
 18 19  1  0
 19 20  1  0
 20 21  1  6
 22 20  1  0
 22 24  1  0
 22 23  1  1
 24 25  2  0
 24 26  1  0
M  END
$$$$
