RET.pdb
     RDKit          3D

 28 27  0  0  1  0  0  0  0  0999 V2000
    7.6414  -11.5283   19.4114 N   0  0  0  0  0  0  0  0  0  0  0  0
    8.3622  -12.5743   18.7801 C   0  0  0  0  0  0  0  0  0  0  0  0
    9.4954  -12.3723   18.2012 N   0  0  0  0  0  0  0  0  0  0  0  0
    7.8366  -13.8944   18.7741 N   0  0  0  0  0  0  0  0  0  0  0  0
    7.0371  -14.3637   19.8832 C   0  0  0  0  0  0  0  0  0  0  0  0
    6.6297  -15.7914   19.5870 C   0  0  0  0  0  0  0  0  0  0  0  0
    7.4029  -16.7993   20.3907 C   0  0  0  0  0  0  0  0  0  0  0  0
    8.5864  -17.2227   19.5153 C   0  0  2  0  0  0  0  0  0  0  0  0
    8.3505  -18.4818   18.8808 N   0  0  0  0  0  0  0  0  0  0  0  0
    9.7995  -17.3523   20.3996 C   0  0  0  0  0  0  0  0  0  0  0  0
   10.0498  -18.4408   20.9964 O   0  0  0  0  0  0  0  0  0  0  0  0
   10.0326  -13.1292   17.7326 N   0  0  0  0  0  0  0  0  0  0  0  0
   10.6956  -16.2934   20.6021 C   0  0  2  0  0  0  0  0  0  0  0  0
   11.8754  -16.4695   21.4634 C   0  0  0  0  0  0  0  0  0  0  0  0
   12.8060  -15.3266   21.2606 C   0  0  0  0  0  0  0  0  0  0  0  0
   13.5985  -15.4342   20.0034 C   0  0  0  0  0  0  0  0  0  0  0  0
   14.5402  -14.3497   19.7336 O   0  0  0  0  0  0  0  0  0  0  0  0
   14.3864  -13.5916   18.7631 C   0  0  0  0  0  0  0  0  0  0  0  0
   11.3501  -16.4335   22.8512 O   0  0  0  0  0  0  0  0  0  0  0  0
   10.8447  -15.3502   23.2461 O   0  0  0  0  0  0  0  0  0  0  0  0
   15.6371  -14.1426   20.5652 C   0  0  0  0  0  0  0  0  0  0  0  0
    8.5575  -16.8105   24.5548 C   0  0  2  0  0  0  0  0  0  0  0  0
    9.5224  -17.6271   25.3460 O   0  0  0  0  0  0  0  0  0  0  0  0
    9.2823  -18.9683   25.0539 C   0  0  2  0  0  0  0  0  0  0  0  0
   10.9519  -17.2788   25.1183 N   0  0  0  0  0  0  0  0  0  0  0  0
   11.3691  -17.5196   23.7584 C   0  0  0  0  0  0  0  0  0  0  0  0
   11.8841  -17.8114   26.1440 O   0  0  0  0  0  0  0  0  0  0  0  0
   11.7539  -17.6915   27.5056 O   0  0  0  0  0  0  0  0  0  0  0  0
  2  4  1  0
  2  1  1  0
  3  2  2  0
  5  4  1  0
  6  5  1  0
  7  8  1  0
  7  6  1  0
  8  9  1  1
 10 11  2  0
 10  8  1  0
 12 10  1  0
 13 12  1  0
 13 14  1  6
 15 14  1  0
 16 15  1  0
 17 16  2  0
 18 13  1  0
 18 25  1  0
 19 18  2  0
 20 16  1  0
 22 21  1  1
 22 24  1  0
 22 23  1  0
 24 25  1  1
 24 26  1  0
 26 27  1  0
 28 26  2  0
M  END
$$$$
