RET.pdb
     RDKit          3D

 28 27  0  0  1  0  0  0  0  0999 V2000
    8.9387  -12.9843   15.5583 N   0  0  0  0  0  0  0  0  0  0  0  0
    8.7545  -14.3803   15.7306 C   0  0  0  0  0  0  0  0  0  0  0  0
    9.3444  -15.2462   14.9808 N   0  0  0  0  0  0  0  0  0  0  0  0
    7.8968  -14.8609   16.7564 N   0  0  0  0  0  0  0  0  0  0  0  0
    7.0647  -13.9410   17.4988 C   0  0  0  0  0  0  0  0  0  0  0  0
    6.5107  -14.6833   18.6962 C   0  0  0  0  0  0  0  0  0  0  0  0
    6.7608  -13.9685   19.9948 C   0  0  0  0  0  0  0  0  0  0  0  0
    8.2391  -14.1950   20.3261 C   0  0  2  0  0  0  0  0  0  0  0  0
    8.9014  -14.9423   19.3030 N   0  0  0  0  0  0  0  0  0  0  0  0
    8.3159  -14.9741   21.6135 C   0  0  0  0  0  0  0  0  0  0  0  0
    7.2666  -15.2381   22.2716 O   0  0  0  0  0  0  0  0  0  0  0  0
    9.1902  -16.2703   15.0726 N   0  0  0  0  0  0  0  0  0  0  0  0
    9.5308  -15.4372   22.1376 C   0  0  1  0  0  0  0  0  0  0  0  0
    9.5564  -16.2105   23.3890 C   0  0  0  0  0  0  0  0  0  0  0  0
   10.8603  -16.9179   23.5022 C   0  0  0  0  0  0  0  0  0  0  0  0
   10.9629  -17.7624   24.7255 C   0  0  0  0  0  0  0  0  0  0  0  0
   12.2064  -18.5109   24.8965 O   0  0  0  0  0  0  0  0  0  0  0  0
   13.2769  -17.9317   25.1389 C   0  0  0  0  0  0  0  0  0  0  0  0
    9.4518  -15.1996   24.4708 O   0  0  0  0  0  0  0  0  0  0  0  0
   10.2262  -14.2090   24.4081 O   0  0  0  0  0  0  0  0  0  0  0  0
   12.2163  -19.8988   24.7906 C   0  0  0  0  0  0  0  0  0  0  0  0
    7.4064  -12.4480   25.3604 C   0  0  2  0  0  0  0  0  0  0  0  0
    7.4862  -13.3146   26.5714 O   0  0  0  0  0  0  0  0  0  0  0  0
    6.2835  -14.0108   26.6747 C   0  0  2  0  0  0  0  0  0  0  0  0
    8.6460  -14.2481   26.5822 N   0  0  0  0  0  0  0  0  0  0  0  0
    8.5494  -15.2608   25.5594 C   0  0  0  0  0  0  0  0  0  0  0  0
    8.9991  -14.7723   27.9258 O   0  0  0  0  0  0  0  0  0  0  0  0
    9.2303  -14.0288   29.0568 O   0  0  0  0  0  0  0  0  0  0  0  0
  2  4  1  0
  2  1  1  0
  3  2  2  0
  5  4  1  0
  6  5  1  0
  7  8  1  0
  7  6  1  0
  8  9  1  6
 10 11  2  0
 10  8  1  0
 12 10  1  0
 13 12  1  0
 13 14  1  1
 15 14  1  0
 16 15  1  0
 17 16  2  0
 18 13  1  0
 18 25  1  0
 19 18  2  0
 20 16  1  0
 22 21  1  1
 22 24  1  0
 22 23  1  0
 24 25  1  1
 24 26  1  0
 26 27  1  0
 28 26  2  0
M  END
$$$$
