RET.pdb
     RDKit          3D

 28 27  0  0  1  0  0  0  0  0999 V2000
    6.4127  -13.2219   15.6537 N   0  0  0  0  0  0  0  0  0  0  0  0
    7.3442  -13.2712   16.7225 C   0  0  0  0  0  0  0  0  0  0  0  0
    8.6047  -13.0760   16.5413 N   0  0  0  0  0  0  0  0  0  0  0  0
    6.8947  -13.5428   18.0428 N   0  0  0  0  0  0  0  0  0  0  0  0
    7.8426  -13.6256   19.1310 C   0  0  0  0  0  0  0  0  0  0  0  0
    8.7247  -14.8308   18.8840 C   0  0  0  0  0  0  0  0  0  0  0  0
    8.8453  -15.7241   20.0870 C   0  0  0  0  0  0  0  0  0  0  0  0
    9.8434  -16.8208   19.7032 C   0  0  2  0  0  0  0  0  0  0  0  0
    9.2413  -17.8156   18.8715 N   0  0  0  0  0  0  0  0  0  0  0  0
   10.3221  -17.4817   20.9698 C   0  0  0  0  0  0  0  0  0  0  0  0
    9.6656  -18.4315   21.4901 O   0  0  0  0  0  0  0  0  0  0  0  0
    9.3124  -13.2291   17.2873 N   0  0  0  0  0  0  0  0  0  0  0  0
   11.4971  -17.0855   21.6237 C   0  0  2  0  0  0  0  0  0  0  0  0
   11.9395  -17.7758   22.8453 C   0  0  0  0  0  0  0  0  0  0  0  0
   13.4135  -17.6299   22.9850 C   0  0  0  0  0  0  0  0  0  0  0  0
   14.1777  -18.4635   22.0149 C   0  0  0  0  0  0  0  0  0  0  0  0
   15.6348  -18.3807   22.0928 O   0  0  0  0  0  0  0  0  0  0  0  0
   16.2746  -19.0633   22.9082 C   0  0  0  0  0  0  0  0  0  0  0  0
   11.2685  -17.0597   23.9590 O   0  0  0  0  0  0  0  0  0  0  0  0
   11.7224  -15.9273   24.2698 O   0  0  0  0  0  0  0  0  0  0  0  0
   16.3405  -17.5285   21.2482 C   0  0  0  0  0  0  0  0  0  0  0  0
    8.1268  -15.3358   24.5649 C   0  0  2  0  0  0  0  0  0  0  0  0
    8.3200  -16.2972   25.6883 O   0  0  0  0  0  0  0  0  0  0  0  0
    7.4317  -17.3542   25.4993 C   0  0  2  0  0  0  0  0  0  0  0  0
    9.7157  -16.7932   25.8380 N   0  0  0  0  0  0  0  0  0  0  0  0
   10.1599  -17.5474   24.6912 C   0  0  0  0  0  0  0  0  0  0  0  0
    9.9987  -17.4454   27.1416 O   0  0  0  0  0  0  0  0  0  0  0  0
    9.8061  -16.8984   28.3863 O   0  0  0  0  0  0  0  0  0  0  0  0
  2  4  1  0
  2  1  1  0
  3  2  2  0
  5  4  1  0
  6  5  1  0
  7  8  1  0
  7  6  1  0
  8  9  1  6
 10 11  2  0
 10  8  1  0
 12 10  1  0
 13 12  1  0
 13 14  1  6
 15 14  1  0
 16 15  1  0
 17 16  2  0
 18 13  1  0
 18 25  1  0
 19 18  2  0
 20 16  1  0
 22 21  1  1
 22 24  1  0
 22 23  1  0
 24 25  1  1
 24 26  1  0
 26 27  1  0
 28 26  2  0
M  END
$$$$
