RET.pdb
     RDKit          3D

 28 27  0  0  1  0  0  0  0  0999 V2000
   10.0215  -13.4575   19.5438 N   0  0  0  0  0  0  0  0  0  0  0  0
    9.0788  -13.3732   18.4871 C   0  0  0  0  0  0  0  0  0  0  0  0
    9.0657  -12.3866   17.6587 N   0  0  0  0  0  0  0  0  0  0  0  0
    8.1095  -14.3983   18.3183 N   0  0  0  0  0  0  0  0  0  0  0  0
    7.0590  -14.5738   19.2958 C   0  0  0  0  0  0  0  0  0  0  0  0
    7.5951  -14.1183   20.6363 C   0  0  0  0  0  0  0  0  0  0  0  0
    7.1171  -14.9713   21.7780 C   0  0  0  0  0  0  0  0  0  0  0  0
    7.8872  -16.2913   21.6733 C   0  0  2  0  0  0  0  0  0  0  0  0
    7.0813  -17.3300   21.1117 N   0  0  0  0  0  0  0  0  0  0  0  0
    8.2996  -16.7037   23.0626 C   0  0  0  0  0  0  0  0  0  0  0  0
    7.4283  -16.9757   23.9404 O   0  0  0  0  0  0  0  0  0  0  0  0
    8.4143  -12.3375   16.8498 N   0  0  0  0  0  0  0  0  0  0  0  0
    9.6442  -16.8052   23.4458 C   0  0  2  0  0  0  0  0  0  0  0  0
   10.0023  -17.2880   24.7887 C   0  0  0  0  0  0  0  0  0  0  0  0
   11.3226  -17.9710   24.7287 C   0  0  0  0  0  0  0  0  0  0  0  0
   11.8304  -18.3801   26.0684 C   0  0  0  0  0  0  0  0  0  0  0  0
   13.1106  -19.0847   26.0912 O   0  0  0  0  0  0  0  0  0  0  0  0
   13.7320  -19.3225   25.0436 C   0  0  0  0  0  0  0  0  0  0  0  0
   10.1208  -16.0646   25.6208 O   0  0  0  0  0  0  0  0  0  0  0  0
   10.7752  -15.1032   25.1387 O   0  0  0  0  0  0  0  0  0  0  0  0
   13.6638  -19.5068   27.2969 C   0  0  0  0  0  0  0  0  0  0  0  0
    8.3793  -13.1541   26.2466 C   0  0  2  0  0  0  0  0  0  0  0  0
    8.6767  -13.7258   27.5914 O   0  0  0  0  0  0  0  0  0  0  0  0
    7.5163  -14.3415   28.0565 C   0  0  2  0  0  0  0  0  0  0  0  0
    9.8281  -14.6693   27.6159 N   0  0  0  0  0  0  0  0  0  0  0  0
    9.5531  -15.8948   26.9061 C   0  0  0  0  0  0  0  0  0  0  0  0
   10.4318  -14.8660   28.9582 O   0  0  0  0  0  0  0  0  0  0  0  0
   10.8900  -13.8818   29.7989 O   0  0  0  0  0  0  0  0  0  0  0  0
  2  4  1  0
  2  1  1  0
  3  2  2  0
  5  4  1  0
  6  5  1  0
  7  8  1  0
  7  6  1  0
  8  9  1  1
 10 11  2  0
 10  8  1  0
 12 10  1  0
 13 12  1  0
 13 14  1  6
 15 14  1  0
 16 15  1  0
 17 16  2  0
 18 13  1  0
 18 25  1  0
 19 18  2  0
 20 16  1  0
 22 21  1  1
 22 24  1  0
 22 23  1  0
 24 25  1  1
 24 26  1  0
 26 27  1  0
 28 26  2  0
M  END
$$$$
