RET.pdb
     RDKit          3D

 28 27  0  0  1  0  0  0  0  0999 V2000
    9.6330  -14.2107   17.6606 N   0  0  0  0  0  0  0  0  0  0  0  0
    8.3532  -13.6914   17.3365 C   0  0  0  0  0  0  0  0  0  0  0  0
    7.9262  -13.6317   16.1225 N   0  0  0  0  0  0  0  0  0  0  0  0
    7.4987  -13.2170   18.3679 N   0  0  0  0  0  0  0  0  0  0  0  0
    7.9057  -13.3142   19.7515 C   0  0  0  0  0  0  0  0  0  0  0  0
    8.0677  -14.7825   20.0828 C   0  0  0  0  0  0  0  0  0  0  0  0
    9.4604  -15.1317   20.5279 C   0  0  0  0  0  0  0  0  0  0  0  0
    9.3287  -16.3971   21.3810 C   0  0  2  0  0  0  0  0  0  0  0  0
    7.9603  -16.7206   21.6386 N   0  0  0  0  0  0  0  0  0  0  0  0
   10.0175  -16.1475   22.6976 C   0  0  0  0  0  0  0  0  0  0  0  0
   11.2178  -15.7451   22.7319 O   0  0  0  0  0  0  0  0  0  0  0  0
    6.9745  -13.2942   15.8750 N   0  0  0  0  0  0  0  0  0  0  0  0
    9.3757  -16.3447   23.9281 C   0  0  1  0  0  0  0  0  0  0  0  0
   10.0727  -16.0460   25.1889 C   0  0  0  0  0  0  0  0  0  0  0  0
    9.3123  -15.0083   25.9362 C   0  0  0  0  0  0  0  0  0  0  0  0
    9.9114  -14.6859   27.2617 C   0  0  0  0  0  0  0  0  0  0  0  0
    9.2341  -13.6573   28.0485 O   0  0  0  0  0  0  0  0  0  0  0  0
    8.1823  -13.1323   27.6505 C   0  0  0  0  0  0  0  0  0  0  0  0
   10.0492  -17.3173   25.9547 O   0  0  0  0  0  0  0  0  0  0  0  0
    8.9316  -17.8773   26.1039 O   0  0  0  0  0  0  0  0  0  0  0  0
    9.7579  -13.2419   29.2695 C   0  0  0  0  0  0  0  0  0  0  0  0
   11.4353  -20.7164   25.4040 C   0  0  2  0  0  0  0  0  0  0  0  0
   11.7745  -20.2968   26.7942 O   0  0  0  0  0  0  0  0  0  0  0  0
   13.1384  -20.0134   26.8307 C   0  0  2  0  0  0  0  0  0  0  0  0
   10.9764  -19.1461   27.2996 N   0  0  0  0  0  0  0  0  0  0  0  0
   11.1818  -17.9479   26.5227 C   0  0  0  0  0  0  0  0  0  0  0  0
   11.0580  -18.9405   28.7678 O   0  0  0  0  0  0  0  0  0  0  0  0
   10.7487  -19.8607   29.7389 O   0  0  0  0  0  0  0  0  0  0  0  0
  2  4  1  0
  2  1  1  0
  3  2  2  0
  5  4  1  0
  6  5  1  0
  7  8  1  0
  7  6  1  0
  8  9  1  1
 10 11  2  0
 10  8  1  0
 12 10  1  0
 13 12  1  0
 13 14  1  6
 15 14  1  0
 16 15  1  0
 17 16  2  0
 18 13  1  0
 18 25  1  0
 19 18  2  0
 20 16  1  0
 22 21  1  1
 22 24  1  0
 22 23  1  0
 24 25  1  1
 24 26  1  0
 26 27  1  0
 28 26  2  0
M  END
$$$$
