RET.pdb
     RDKit          3D

 28 27  0  0  1  0  0  0  0  0999 V2000
    7.7622  -13.4253   15.1544 N   0  0  0  0  0  0  0  0  0  0  0  0
    8.2890  -14.0780   16.2984 C   0  0  0  0  0  0  0  0  0  0  0  0
    9.3193  -14.8487   16.2329 N   0  0  0  0  0  0  0  0  0  0  0  0
    7.6767  -13.8899   17.5668 N   0  0  0  0  0  0  0  0  0  0  0  0
    8.4741  -13.9278   18.7719 C   0  0  0  0  0  0  0  0  0  0  0  0
    7.5418  -13.7327   19.9486 C   0  0  0  0  0  0  0  0  0  0  0  0
    6.6096  -14.8938   20.1553 C   0  0  0  0  0  0  0  0  0  0  0  0
    7.4940  -16.1431   20.2132 C   0  0  2  0  0  0  0  0  0  0  0  0
    6.7761  -17.3171   19.8256 N   0  0  0  0  0  0  0  0  0  0  0  0
    7.9650  -16.3174   21.6338 C   0  0  0  0  0  0  0  0  0  0  0  0
    7.1429  -16.5921   22.5571 O   0  0  0  0  0  0  0  0  0  0  0  0
    9.7720  -15.2583   17.0745 N   0  0  0  0  0  0  0  0  0  0  0  0
    9.3124  -16.1866   21.9978 C   0  0  2  0  0  0  0  0  0  0  0  0
    9.7674  -16.6016   23.3340 C   0  0  0  0  0  0  0  0  0  0  0  0
   11.2481  -16.7455   23.3254 C   0  0  0  0  0  0  0  0  0  0  0  0
   11.7049  -18.0549   22.7806 C   0  0  0  0  0  0  0  0  0  0  0  0
   13.1494  -18.2406   22.6595 O   0  0  0  0  0  0  0  0  0  0  0  0
   13.6487  -18.7537   21.6457 C   0  0  0  0  0  0  0  0  0  0  0  0
    9.3887  -15.4850   24.2357 O   0  0  0  0  0  0  0  0  0  0  0  0
    9.8783  -14.3526   23.9845 O   0  0  0  0  0  0  0  0  0  0  0  0
   14.0018  -17.8428   23.6856 C   0  0  0  0  0  0  0  0  0  0  0  0
    7.0641  -12.9677   24.9511 C   0  0  2  0  0  0  0  0  0  0  0  0
    7.2433  -13.7139   26.2297 O   0  0  0  0  0  0  0  0  0  0  0  0
    6.1235  -14.5239   26.4086 C   0  0  2  0  0  0  0  0  0  0  0  0
    8.4973  -14.5131   26.3029 N   0  0  0  0  0  0  0  0  0  0  0  0
    8.5199  -15.5939   25.3476 C   0  0  0  0  0  0  0  0  0  0  0  0
    8.8935  -14.9084   27.6782 O   0  0  0  0  0  0  0  0  0  0  0  0
    9.1747  -16.1804   28.1124 O   0  0  0  0  0  0  0  0  0  0  0  0
  2  4  1  0
  2  1  1  0
  3  2  2  0
  5  4  1  0
  6  5  1  0
  7  8  1  0
  7  6  1  0
  8  9  1  1
 10 11  2  0
 10  8  1  0
 12 10  1  0
 13 12  1  0
 13 14  1  6
 15 14  1  0
 16 15  1  0
 17 16  2  0
 18 13  1  0
 18 25  1  0
 19 18  2  0
 20 16  1  0
 22 21  1  1
 22 24  1  0
 22 23  1  0
 24 25  1  1
 24 26  1  0
 26 27  1  0
 28 26  2  0
M  END
$$$$
