RET.pdb
     RDKit          3D

 28 27  0  0  1  0  0  0  0  0999 V2000
    8.2736  -12.7965   17.0055 N   0  0  0  0  0  0  0  0  0  0  0  0
    8.0040  -13.7599   15.9998 C   0  0  0  0  0  0  0  0  0  0  0  0
    8.0925  -13.4823   14.7448 N   0  0  0  0  0  0  0  0  0  0  0  0
    7.6230  -15.0790   16.3656 N   0  0  0  0  0  0  0  0  0  0  0  0
    7.9414  -15.5898   17.6798 C   0  0  0  0  0  0  0  0  0  0  0  0
    6.8420  -15.1520   18.6240 C   0  0  0  0  0  0  0  0  0  0  0  0
    6.9953  -15.7237   20.0058 C   0  0  0  0  0  0  0  0  0  0  0  0
    8.0606  -14.8712   20.7021 C   0  0  2  0  0  0  0  0  0  0  0  0
    9.3575  -15.0825   20.1389 N   0  0  0  0  0  0  0  0  0  0  0  0
    8.0998  -15.2668   22.1555 C   0  0  0  0  0  0  0  0  0  0  0  0
    7.0605  -15.1860   22.8746 O   0  0  0  0  0  0  0  0  0  0  0  0
    7.8963  -14.1783   13.9977 N   0  0  0  0  0  0  0  0  0  0  0  0
    9.2677  -15.7356   22.7731 C   0  0  1  0  0  0  0  0  0  0  0  0
    9.2218  -16.2792   24.1395 C   0  0  0  0  0  0  0  0  0  0  0  0
   10.4753  -17.0334   24.4100 C   0  0  0  0  0  0  0  0  0  0  0  0
   10.6701  -18.1916   23.4931 C   0  0  0  0  0  0  0  0  0  0  0  0
   11.9908  -18.8171   23.5070 O   0  0  0  0  0  0  0  0  0  0  0  0
   12.5813  -19.0953   22.4515 C   0  0  0  0  0  0  0  0  0  0  0  0
    9.1635  -15.0909   25.0269 O   0  0  0  0  0  0  0  0  0  0  0  0
    9.9172  -14.1236   24.7418 O   0  0  0  0  0  0  0  0  0  0  0  0
   12.6187  -19.1161   24.7128 C   0  0  0  0  0  0  0  0  0  0  0  0
    7.3960  -12.1547   25.3960 C   0  0  2  0  0  0  0  0  0  0  0  0
    7.3696  -12.7949   26.7426 O   0  0  0  0  0  0  0  0  0  0  0  0
    6.1199  -13.3899   26.9048 C   0  0  2  0  0  0  0  0  0  0  0  0
    8.4631  -13.7780   26.9759 N   0  0  0  0  0  0  0  0  0  0  0  0
    8.3263  -14.9602   26.1605 C   0  0  0  0  0  0  0  0  0  0  0  0
    8.7436  -14.0554   28.4073 O   0  0  0  0  0  0  0  0  0  0  0  0
    8.9950  -13.1244   29.3848 O   0  0  0  0  0  0  0  0  0  0  0  0
  2  4  1  0
  2  1  1  0
  3  2  2  0
  5  4  1  0
  6  5  1  0
  7  8  1  0
  7  6  1  0
  8  9  1  6
 10 11  2  0
 10  8  1  0
 12 10  1  0
 13 12  1  0
 13 14  1  6
 15 14  1  0
 16 15  1  0
 17 16  2  0
 18 13  1  0
 18 25  1  0
 19 18  2  0
 20 16  1  0
 22 21  1  1
 22 24  1  0
 22 23  1  0
 24 25  1  1
 24 26  1  0
 26 27  1  0
 28 26  2  0
M  END
$$$$
