RET.pdb
     RDKit          3D

 28 27  0  0  1  0  0  0  0  0999 V2000
    7.0160  -13.2399   14.1957 N   0  0  0  0  0  0  0  0  0  0  0  0
    8.3175  -13.7928   14.3099 C   0  0  0  0  0  0  0  0  0  0  0  0
    9.0269  -14.0923   13.2770 N   0  0  0  0  0  0  0  0  0  0  0  0
    8.8759  -14.0319   15.5944 N   0  0  0  0  0  0  0  0  0  0  0  0
    8.1403  -13.6719   16.7855 C   0  0  0  0  0  0  0  0  0  0  0  0
    7.2297  -14.8302   17.1333 C   0  0  0  0  0  0  0  0  0  0  0  0
    6.9785  -14.9541   18.6102 C   0  0  0  0  0  0  0  0  0  0  0  0
    8.3340  -14.7403   19.2908 C   0  0  2  0  0  0  0  0  0  0  0  0
    9.3833  -15.4292   18.6066 N   0  0  0  0  0  0  0  0  0  0  0  0
    8.2429  -15.2802   20.6946 C   0  0  0  0  0  0  0  0  0  0  0  0
    7.3191  -14.9007   21.4733 O   0  0  0  0  0  0  0  0  0  0  0  0
   10.0008  -14.4499   13.3457 N   0  0  0  0  0  0  0  0  0  0  0  0
    9.1597  -16.2126   21.1996 C   0  0  1  0  0  0  0  0  0  0  0  0
    8.9734  -16.7908   22.5397 C   0  0  0  0  0  0  0  0  0  0  0  0
   10.0751  -17.7514   22.8171 C   0  0  0  0  0  0  0  0  0  0  0  0
   11.3999  -17.2795   22.3249 C   0  0  0  0  0  0  0  0  0  0  0  0
   12.5312  -18.1797   22.5384 O   0  0  0  0  0  0  0  0  0  0  0  0
   13.5884  -17.7739   23.0462 C   0  0  0  0  0  0  0  0  0  0  0  0
    9.0775  -15.6425   23.4744 O   0  0  0  0  0  0  0  0  0  0  0  0
    9.9559  -14.7760   23.2242 O   0  0  0  0  0  0  0  0  0  0  0  0
   12.4462  -19.5206   22.1744 C   0  0  0  0  0  0  0  0  0  0  0  0
    7.5129  -12.1625   26.3352 C   0  0  2  0  0  0  0  0  0  0  0  0
    7.3224  -13.3703   25.4815 O   0  0  0  0  0  0  0  0  0  0  0  0
    6.9670  -12.9362   24.2059 C   0  0  1  0  0  0  0  0  0  0  0  0
    8.5031  -14.2757   25.4275 N   0  0  0  0  0  0  0  0  0  0  0  0
    8.2657  -15.4451   24.6168 C   0  0  0  0  0  0  0  0  0  0  0  0
    9.1149  -14.5656   26.7490 O   0  0  0  0  0  0  0  0  0  0  0  0
    9.7005  -13.6556   27.5943 O   0  0  0  0  0  0  0  0  0  0  0  0
  2  4  1  0
  2  1  1  0
  3  2  2  0
  5  4  1  0
  6  5  1  0
  7  8  1  0
  7  6  1  0
  8  9  1  6
 10 11  2  0
 10  8  1  0
 12 10  1  0
 13 12  1  0
 13 14  1  6
 15 14  1  0
 16 15  1  0
 17 16  2  0
 18 13  1  0
 18 25  1  0
 19 18  2  0
 20 16  1  0
 22 21  1  1
 22 24  1  0
 22 23  1  0
 24 25  1  1
 24 26  1  0
 26 27  1  0
 28 26  2  0
M  END
$$$$
