RET.pdb
     RDKit          3D

 28 27  0  0  1  0  0  0  0  0999 V2000
    9.6290  -13.2093   18.1254 N   0  0  0  0  0  0  0  0  0  0  0  0
    8.5231  -13.1959   17.2372 C   0  0  0  0  0  0  0  0  0  0  0  0
    8.6716  -13.1073   15.9605 N   0  0  0  0  0  0  0  0  0  0  0  0
    7.2008  -13.2822   17.7501 N   0  0  0  0  0  0  0  0  0  0  0  0
    6.9789  -13.3879   19.1746 C   0  0  0  0  0  0  0  0  0  0  0  0
    6.9984  -14.8577   19.5368 C   0  0  0  0  0  0  0  0  0  0  0  0
    7.9480  -15.1711   20.6592 C   0  0  0  0  0  0  0  0  0  0  0  0
    7.7817  -16.6656   20.9512 C   0  0  2  0  0  0  0  0  0  0  0  0
    6.5176  -17.1552   20.4970 N   0  0  0  0  0  0  0  0  0  0  0  0
    7.8634  -16.8627   22.4428 C   0  0  0  0  0  0  0  0  0  0  0  0
    6.8144  -17.0481   23.1277 O   0  0  0  0  0  0  0  0  0  0  0  0
    7.8707  -13.1109   15.2976 N   0  0  0  0  0  0  0  0  0  0  0  0
    9.0826  -16.8510   23.1343 C   0  0  2  0  0  0  0  0  0  0  0  0
    9.1179  -17.0799   24.5873 C   0  0  0  0  0  0  0  0  0  0  0  0
   10.4011  -17.7399   24.9492 C   0  0  0  0  0  0  0  0  0  0  0  0
   10.5272  -18.0120   26.4086 C   0  0  0  0  0  0  0  0  0  0  0  0
   11.7973  -18.5792   26.8570 O   0  0  0  0  0  0  0  0  0  0  0  0
   12.3859  -19.4445   26.1900 C   0  0  0  0  0  0  0  0  0  0  0  0
    9.0754  -15.7256   25.1934 O   0  0  0  0  0  0  0  0  0  0  0  0
    9.8753  -14.8669   24.7375 O   0  0  0  0  0  0  0  0  0  0  0  0
   12.3779  -18.1576   28.0499 C   0  0  0  0  0  0  0  0  0  0  0  0
    6.5677  -12.8907   25.3379 C   0  0  2  0  0  0  0  0  0  0  0  0
    7.0365  -13.2400   26.7097 O   0  0  0  0  0  0  0  0  0  0  0  0
    6.0236  -13.9675   27.3316 C   0  0  2  0  0  0  0  0  0  0  0  0
    8.3266  -13.9822   26.7467 N   0  0  0  0  0  0  0  0  0  0  0  0
    8.2055  -15.3259   26.2359 C   0  0  0  0  0  0  0  0  0  0  0  0
    9.0534  -13.8854   28.0379 O   0  0  0  0  0  0  0  0  0  0  0  0
    9.5646  -14.9309   28.7667 O   0  0  0  0  0  0  0  0  0  0  0  0
  2  4  1  0
  2  1  1  0
  3  2  2  0
  5  4  1  0
  6  5  1  0
  7  8  1  0
  7  6  1  0
  8  9  1  1
 10 11  2  0
 10  8  1  0
 12 10  1  0
 13 12  1  0
 13 14  1  6
 15 14  1  0
 16 15  1  0
 17 16  2  0
 18 13  1  0
 18 25  1  0
 19 18  2  0
 20 16  1  0
 22 21  1  1
 22 24  1  0
 22 23  1  0
 24 25  1  1
 24 26  1  0
 26 27  1  0
 28 26  2  0
M  END
$$$$
