RET.pdb
     RDKit          3D

 28 27  0  0  1  0  0  0  0  0999 V2000
    7.2366  -15.2881   14.3371 N   0  0  0  0  0  0  0  0  0  0  0  0
    7.8312  -14.4072   15.2767 C   0  0  0  0  0  0  0  0  0  0  0  0
    9.0323  -13.9635   15.1340 N   0  0  0  0  0  0  0  0  0  0  0  0
    7.0968  -13.9877   16.4184 N   0  0  0  0  0  0  0  0  0  0  0  0
    7.7130  -13.1279   17.4037 C   0  0  0  0  0  0  0  0  0  0  0  0
    8.5826  -13.9924   18.2915 C   0  0  0  0  0  0  0  0  0  0  0  0
    7.9282  -14.3290   19.6023 C   0  0  0  0  0  0  0  0  0  0  0  0
    8.8707  -13.8104   20.6928 C   0  0  2  0  0  0  0  0  0  0  0  0
   10.2414  -13.9147   20.3000 N   0  0  0  0  0  0  0  0  0  0  0  0
    8.6620  -14.6474   21.9282 C   0  0  0  0  0  0  0  0  0  0  0  0
    7.5115  -14.7585   22.4457 O   0  0  0  0  0  0  0  0  0  0  0  0
    9.6198  -14.1820   14.3044 N   0  0  0  0  0  0  0  0  0  0  0  0
    9.7121  -15.3325   22.5552 C   0  0  1  0  0  0  0  0  0  0  0  0
    9.4631  -16.1334   23.7640 C   0  0  0  0  0  0  0  0  0  0  0  0
   10.6447  -16.9965   24.0328 C   0  0  0  0  0  0  0  0  0  0  0  0
   10.8903  -18.0016   22.9607 C   0  0  0  0  0  0  0  0  0  0  0  0
   11.2098  -19.3578   23.4016 O   0  0  0  0  0  0  0  0  0  0  0  0
   12.3787  -19.7747   23.4023 C   0  0  0  0  0  0  0  0  0  0  0  0
    9.3193  -15.1438   24.8610 O   0  0  0  0  0  0  0  0  0  0  0  0
   10.1955  -14.2433   24.9407 O   0  0  0  0  0  0  0  0  0  0  0  0
   10.2027  -20.2165   23.8331 C   0  0  0  0  0  0  0  0  0  0  0  0
    6.8805  -12.4804   25.5475 C   0  0  2  0  0  0  0  0  0  0  0  0
    7.0636  -13.2615   26.8045 O   0  0  0  0  0  0  0  0  0  0  0  0
    5.9208  -14.0365   26.9925 C   0  0  2  0  0  0  0  0  0  0  0  0
    8.2904  -14.1047   26.8293 N   0  0  0  0  0  0  0  0  0  0  0  0
    8.2752  -15.1319   25.8164 C   0  0  0  0  0  0  0  0  0  0  0  0
    8.6758  -14.5876   28.1796 O   0  0  0  0  0  0  0  0  0  0  0  0
    8.8320  -13.8194   29.3069 O   0  0  0  0  0  0  0  0  0  0  0  0
  2  4  1  0
  2  1  1  0
  3  2  2  0
  5  4  1  0
  6  5  1  0
  7  8  1  0
  7  6  1  0
  8  9  1  6
 10 11  2  0
 10  8  1  0
 12 10  1  0
 13 12  1  0
 13 14  1  6
 15 14  1  0
 16 15  1  0
 17 16  2  0
 18 13  1  0
 18 25  1  0
 19 18  2  0
 20 16  1  0
 22 21  1  1
 22 24  1  0
 22 23  1  0
 24 25  1  1
 24 26  1  0
 26 27  1  0
 28 26  2  0
M  END
$$$$
