RET.pdb
     RDKit          3D

 28 27  0  0  1  0  0  0  0  0999 V2000
    7.0593  -13.0399   17.8665 N   0  0  0  0  0  0  0  0  0  0  0  0
    7.6318  -13.3231   19.1332 C   0  0  0  0  0  0  0  0  0  0  0  0
    7.1432  -12.8482   20.2267 N   0  0  0  0  0  0  0  0  0  0  0  0
    8.7804  -14.1548   19.2221 N   0  0  0  0  0  0  0  0  0  0  0  0
    9.3857  -14.6892   18.0231 C   0  0  0  0  0  0  0  0  0  0  0  0
    9.7498  -16.1334   18.2941 C   0  0  0  0  0  0  0  0  0  0  0  0
   10.4185  -16.3282   19.6262 C   0  0  0  0  0  0  0  0  0  0  0  0
   10.8699  -17.7915   19.6648 C   0  0  2  0  0  0  0  0  0  0  0  0
    9.7604  -18.6833   19.7974 N   0  0  0  0  0  0  0  0  0  0  0  0
   11.7734  -17.9710   20.8571 C   0  0  0  0  0  0  0  0  0  0  0  0
   12.9463  -17.4934   20.8558 O   0  0  0  0  0  0  0  0  0  0  0  0
    7.5525  -13.0482   21.1613 N   0  0  0  0  0  0  0  0  0  0  0  0
   11.3682  -18.6633   22.0067 C   0  0  1  0  0  0  0  0  0  0  0  0
   12.2608  -18.7601   23.1723 C   0  0  0  0  0  0  0  0  0  0  0  0
   11.4852  -19.2451   24.3455 C   0  0  0  0  0  0  0  0  0  0  0  0
   12.3439  -19.5777   25.5168 C   0  0  0  0  0  0  0  0  0  0  0  0
   11.6492  -19.9211   26.7558 O   0  0  0  0  0  0  0  0  0  0  0  0
   10.4097  -19.9274   26.8171 C   0  0  0  0  0  0  0  0  0  0  0  0
   13.2744  -19.7786   22.7998 O   0  0  0  0  0  0  0  0  0  0  0  0
   12.8483  -20.8812   22.3665 O   0  0  0  0  0  0  0  0  0  0  0  0
   12.3680  -20.2508   27.9014 C   0  0  0  0  0  0  0  0  0  0  0  0
   15.6359  -20.3018   20.1596 C   0  0  2  0  0  0  0  0  0  0  0  0
   16.3860  -20.5412   21.4260 O   0  0  0  0  0  0  0  0  0  0  0  0
   17.2564  -19.4691   21.6125 C   0  0  2  0  0  0  0  0  0  0  0  0
   15.5223  -20.7419   22.6219 N   0  0  0  0  0  0  0  0  0  0  0  0
   14.6761  -19.6044   22.8891 C   0  0  0  0  0  0  0  0  0  0  0  0
   16.2373  -21.2617   23.8149 O   0  0  0  0  0  0  0  0  0  0  0  0
   16.9948  -22.4052   23.8781 O   0  0  0  0  0  0  0  0  0  0  0  0
  2  4  1  0
  2  1  1  0
  3  2  2  0
  5  4  1  0
  6  5  1  0
  7  8  1  0
  7  6  1  0
  8  9  1  1
 10 11  2  0
 10  8  1  0
 12 10  1  0
 13 12  1  0
 13 14  1  1
 15 14  1  0
 16 15  1  0
 17 16  2  0
 18 13  1  0
 18 25  1  0
 19 18  2  0
 20 16  1  0
 22 21  1  6
 22 24  1  0
 22 23  1  0
 24 25  1  1
 24 26  1  0
 26 27  1  0
 28 26  2  0
M  END
$$$$
