RET.pdb
     RDKit          3D

 28 27  0  0  1  0  0  0  0  0999 V2000
    8.2932  -15.2416   17.6597 N   0  0  0  0  0  0  0  0  0  0  0  0
    8.3828  -13.8362   17.8305 C   0  0  0  0  0  0  0  0  0  0  0  0
    8.1374  -13.0130   16.8703 N   0  0  0  0  0  0  0  0  0  0  0  0
    8.7529  -13.2975   19.0922 N   0  0  0  0  0  0  0  0  0  0  0  0
    7.7464  -13.0457   20.0988 C   0  0  0  0  0  0  0  0  0  0  0  0
    6.9483  -14.3190   20.2821 C   0  0  0  0  0  0  0  0  0  0  0  0
    7.1706  -14.9609   21.6231 C   0  0  0  0  0  0  0  0  0  0  0  0
    7.8239  -16.3174   21.3413 C   0  0  2  0  0  0  0  0  0  0  0  0
    6.8630  -17.2900   20.9236 N   0  0  0  0  0  0  0  0  0  0  0  0
    8.4698  -16.7991   22.6146 C   0  0  0  0  0  0  0  0  0  0  0  0
    7.7679  -17.2812   23.5519 O   0  0  0  0  0  0  0  0  0  0  0  0
    8.1701  -11.9807   16.9898 N   0  0  0  0  0  0  0  0  0  0  0  0
    9.8549  -16.7386   22.8214 C   0  0  2  0  0  0  0  0  0  0  0  0
   10.4466  -17.2580   24.0643 C   0  0  0  0  0  0  0  0  0  0  0  0
   11.8871  -17.5522   23.8366 C   0  0  0  0  0  0  0  0  0  0  0  0
   12.5693  -18.1006   25.0423 C   0  0  0  0  0  0  0  0  0  0  0  0
   13.9691  -18.4871   24.8780 O   0  0  0  0  0  0  0  0  0  0  0  0
   14.4623  -19.4129   25.5412 C   0  0  0  0  0  0  0  0  0  0  0  0
   10.3216  -16.1506   25.0447 O   0  0  0  0  0  0  0  0  0  0  0  0
   10.5164  -14.9819   24.6190 O   0  0  0  0  0  0  0  0  0  0  0  0
   14.7844  -17.8206   23.9676 C   0  0  0  0  0  0  0  0  0  0  0  0
    8.8086  -13.1379   28.0997 C   0  0  2  0  0  0  0  0  0  0  0  0
    8.7789  -14.3752   27.2678 O   0  0  0  0  0  0  0  0  0  0  0  0
    8.4130  -14.0078   25.9743 C   0  0  1  0  0  0  0  0  0  0  0  0
   10.0548  -15.1425   27.2640 N   0  0  0  0  0  0  0  0  0  0  0  0
    9.9968  -16.3062   26.4134 C   0  0  0  0  0  0  0  0  0  0  0  0
   10.6185  -15.4024   28.6128 O   0  0  0  0  0  0  0  0  0  0  0  0
   10.9008  -14.4632   29.5739 O   0  0  0  0  0  0  0  0  0  0  0  0
  2  4  1  0
  2  1  1  0
  3  2  2  0
  5  4  1  0
  6  5  1  0
  7  8  1  0
  7  6  1  0
  8  9  1  1
 10 11  2  0
 10  8  1  0
 12 10  1  0
 13 12  1  0
 13 14  1  6
 15 14  1  0
 16 15  1  0
 17 16  2  0
 18 13  1  0
 18 25  1  0
 19 18  2  0
 20 16  1  0
 22 21  1  1
 22 24  1  0
 22 23  1  0
 24 25  1  1
 24 26  1  0
 26 27  1  0
 28 26  2  0
M  END
$$$$
