RET.pdb
     RDKit          3D

 28 27  0  0  1  0  0  0  0  0999 V2000
   10.1355  -15.7911   13.4044 N   0  0  0  0  0  0  0  0  0  0  0  0
    8.8224  -16.2742   13.6382 C   0  0  0  0  0  0  0  0  0  0  0  0
    8.0057  -16.5302   12.6752 N   0  0  0  0  0  0  0  0  0  0  0  0
    8.3728  -16.4899   14.9687 N   0  0  0  0  0  0  0  0  0  0  0  0
    7.7876  -15.4048   15.7234 C   0  0  0  0  0  0  0  0  0  0  0  0
    8.2488  -14.1059   15.0973 C   0  0  0  0  0  0  0  0  0  0  0  0
    8.5448  -13.0389   16.1141 C   0  0  0  0  0  0  0  0  0  0  0  0
    8.1734  -13.6350   17.4754 C   0  0  2  0  0  0  0  0  0  0  0  0
    7.9528  -12.6176   18.4552 N   0  0  0  0  0  0  0  0  0  0  0  0
    9.3174  -14.5014   17.9345 C   0  0  0  0  0  0  0  0  0  0  0  0
    9.3258  -15.7435   17.6875 O   0  0  0  0  0  0  0  0  0  0  0  0
    7.0416  -16.8862   12.8325 N   0  0  0  0  0  0  0  0  0  0  0  0
   10.4100  -13.9852   18.6450 C   0  0  1  0  0  0  0  0  0  0  0  0
   11.4985  -14.8714   19.0860 C   0  0  0  0  0  0  0  0  0  0  0  0
   12.8059  -14.2594   18.7258 C   0  0  0  0  0  0  0  0  0  0  0  0
   13.9684  -14.9613   19.3390 C   0  0  0  0  0  0  0  0  0  0  0  0
   15.2935  -14.4598   18.9809 O   0  0  0  0  0  0  0  0  0  0  0  0
   16.3182  -14.9135   19.5143 C   0  0  0  0  0  0  0  0  0  0  0  0
   11.3753  -14.9297   20.5641 O   0  0  0  0  0  0  0  0  0  0  0  0
   11.6509  -13.8818   21.2052 O   0  0  0  0  0  0  0  0  0  0  0  0
   15.4354  -13.4559   18.0271 C   0  0  0  0  0  0  0  0  0  0  0  0
    8.6681  -15.0464   22.9628 C   0  0  2  0  0  0  0  0  0  0  0  0
    9.6226  -16.1298   23.3353 O   0  0  0  0  0  0  0  0  0  0  0  0
    9.0486  -17.3454   22.9679 C   0  0  2  0  0  0  0  0  0  0  0  0
   10.9809  -15.9806   22.7441 N   0  0  0  0  0  0  0  0  0  0  0  0
   10.9688  -16.0656   21.3040 C   0  0  0  0  0  0  0  0  0  0  0  0
   12.0272  -16.8101   23.3937 O   0  0  0  0  0  0  0  0  0  0  0  0
   12.3913  -16.7748   24.7172 O   0  0  0  0  0  0  0  0  0  0  0  0
  2  4  1  0
  2  1  1  0
  3  2  2  0
  5  4  1  0
  6  5  1  0
  7  8  1  0
  7  6  1  0
  8  9  1  1
 10 11  2  0
 10  8  1  0
 12 10  1  0
 13 12  1  0
 13 14  1  1
 15 14  1  0
 16 15  1  0
 17 16  2  0
 18 13  1  0
 18 25  1  0
 19 18  2  0
 20 16  1  0
 22 21  1  1
 22 24  1  0
 22 23  1  0
 24 25  1  1
 24 26  1  0
 26 27  1  0
 28 26  2  0
M  END
$$$$
