LRW.pdb
     RDKit          3D

 34 35  0  0  1  0  0  0  0  0999 V2000
   34.2932  -21.3545  -10.4157 C   0  0  0  0  0  0  0  0  0  0  0  0
   33.2136  -22.2812  -10.9061 C   0  0  1  0  0  0  0  0  0  0  0  0
   32.8954  -23.3475   -9.9071 C   0  0  0  0  0  0  0  0  0  0  0  0
   31.9462  -21.5070  -11.2663 C   0  0  0  0  0  0  0  0  0  0  0  0
   30.8866  -22.4365  -11.8030 C   0  0  2  0  0  0  0  0  0  0  0  0
   31.4175  -23.3355  -12.8071 N   0  0  0  0  0  0  0  0  0  0  0  0
   29.7876  -21.6609  -12.4251 C   0  0  0  0  0  0  0  0  0  0  0  0
   29.3689  -20.6255  -11.8398 O   0  0  0  0  0  0  0  0  0  0  0  0
   27.9814  -25.6424  -17.5870 N   0  0  0  0  0  0  0  0  0  0  0  0
   26.9396  -24.8662  -18.1530 C   0  0  0  0  0  0  0  0  0  0  0  0
   25.8937  -25.4769  -18.5784 N   0  0  0  0  0  0  0  0  0  0  0  0
   27.0202  -23.4562  -18.2603 N   0  0  0  0  0  0  0  0  0  0  0  0
   28.1009  -22.7052  -17.7050 C   0  0  0  0  0  0  0  0  0  0  0  0
   28.0951  -22.7031  -16.1904 C   0  0  0  0  0  0  0  0  0  0  0  0
   27.9637  -21.2962  -15.6487 C   0  0  0  0  0  0  0  0  0  0  0  0
   28.0727  -21.2587  -14.1454 C   0  0  2  0  0  0  0  0  0  0  0  0
   29.1788  -22.0176  -13.6437 N   0  0  0  0  0  0  0  0  0  0  0  0
   26.8263  -21.9008  -13.6216 C   0  0  0  0  0  0  0  0  0  0  0  0
   26.8272  -23.0280  -13.0654 O   0  0  0  0  0  0  0  0  0  0  0  0
   25.1489  -24.9550  -19.0531 N   0  0  0  0  0  0  0  0  0  0  0  0
   25.5693  -21.2241  -13.7468 C   0  0  1  0  0  0  0  0  0  0  0  0
   24.7928  -20.8081  -12.5900 C   0  0  0  0  0  0  0  0  0  0  0  0
   25.6177  -19.8854  -11.7192 C   0  0  0  0  0  0  0  0  0  0  0  0
   25.2397  -20.1010  -10.3010 C   0  0  0  0  0  0  0  0  0  0  0  0
   24.0019  -20.4719   -9.7943 N   0  0  0  0  0  0  0  0  0  0  0  0
   24.0612  -20.5600   -8.4636 C   0  0  0  0  0  0  0  0  0  0  0  0
   25.3097  -20.2558   -8.0818 C   0  0  0  0  0  0  0  0  0  0  0  0
   25.9454  -20.1822   -6.8500 C   0  0  0  0  0  0  0  0  0  0  0  0
   27.2712  -19.8348   -6.7556 C   0  0  0  0  0  0  0  0  0  0  0  0
   28.0274  -19.5448   -7.8719 C   0  0  0  0  0  0  0  0  0  0  0  0
   27.4192  -19.6111   -9.1048 C   0  0  0  0  0  0  0  0  0  0  0  0
   26.0924  -19.9588   -9.2001 C   0  0  0  0  0  0  0  0  0  0  0  0
   23.5723  -20.0860  -12.9989 O   0  0  0  0  0  0  0  0  0  0  0  0
   23.4868  -19.3879  -14.0245 O   0  0  0  0  0  0  0  0  0  0  0  0
  2  1  1  1
  2  4  1  0
  3  2  1  0
  5  4  1  0
  5  6  1  6
  7  8  2  0
  7  5  1  0
  9 10  1  0
 10 12  1  0
 11 10  2  0
 12 13  1  0
 13 14  1  0
 14 15  1  0
 16 15  1  6
 16 17  1  0
 17  7  1  0
 18 19  2  0
 18 16  1  0
 20 18  1  0
 21 20  1  0
 21 22  1  1
 22 23  1  0
 23 31  1  0
 23 24  2  0
 24 25  1  0
 26 25  1  0
 26 27  2  0
 28 27  1  0
 29 28  2  0
 30 31  2  0
 30 29  1  0
 31 26  1  0
 32 21  1  0
 33 32  2  0
 34 32  1  0
M  END
$$$$
