LRW.pdb
     RDKit          3D

 34 35  0  0  1  0  0  0  0  0999 V2000
   28.4944  -21.8169  -20.2836 C   0  0  0  0  0  0  0  0  0  0  0  0
   27.6406  -22.2009  -19.1053 C   0  0  1  0  0  0  0  0  0  0  0  0
   27.1001  -23.5892  -19.2352 C   0  0  0  0  0  0  0  0  0  0  0  0
   28.4160  -22.0618  -17.7958 C   0  0  0  0  0  0  0  0  0  0  0  0
   27.5740  -22.5074  -16.6264 C   0  0  2  0  0  0  0  0  0  0  0  0
   26.1586  -22.3510  -16.8916 N   0  0  0  0  0  0  0  0  0  0  0  0
   27.9003  -21.7077  -15.4221 C   0  0  0  0  0  0  0  0  0  0  0  0
   29.0708  -21.7625  -14.9564 O   0  0  0  0  0  0  0  0  0  0  0  0
   25.1327  -16.6838  -17.1729 N   0  0  0  0  0  0  0  0  0  0  0  0
   24.4239  -16.8120  -15.9525 C   0  0  0  0  0  0  0  0  0  0  0  0
   23.1615  -17.0379  -16.0077 N   0  0  0  0  0  0  0  0  0  0  0  0
   25.0613  -16.6991  -14.6927 N   0  0  0  0  0  0  0  0  0  0  0  0
   26.4677  -16.4873  -14.5609 C   0  0  0  0  0  0  0  0  0  0  0  0
   27.2568  -17.7802  -14.5567 C   0  0  0  0  0  0  0  0  0  0  0  0
   26.6840  -18.7640  -13.5597 C   0  0  0  0  0  0  0  0  0  0  0  0
   27.3726  -20.1035  -13.6304 C   0  0  2  0  0  0  0  0  0  0  0  0
   26.9691  -20.8828  -14.7622 N   0  0  0  0  0  0  0  0  0  0  0  0
   26.9490  -20.8544  -12.4070 C   0  0  0  0  0  0  0  0  0  0  0  0
   26.9647  -22.1096  -12.3431 O   0  0  0  0  0  0  0  0  0  0  0  0
   22.6293  -17.2057  -15.1468 N   0  0  0  0  0  0  0  0  0  0  0  0
   26.5036  -20.1370  -11.2491 C   0  0  2  0  0  0  0  0  0  0  0  0
   26.0690  -20.8122  -10.0370 C   0  0  0  0  0  0  0  0  0  0  0  0
   27.2722  -21.2665   -9.2394 C   0  0  0  0  0  0  0  0  0  0  0  0
   26.9682  -21.1280   -7.7940 C   0  0  0  0  0  0  0  0  0  0  0  0
   25.7860  -21.4390   -7.1365 N   0  0  0  0  0  0  0  0  0  0  0  0
   25.9035  -21.1700   -5.8344 C   0  0  0  0  0  0  0  0  0  0  0  0
   27.1361  -20.6890   -5.6185 C   0  0  0  0  0  0  0  0  0  0  0  0
   27.8102  -20.2497   -4.4874 C   0  0  0  0  0  0  0  0  0  0  0  0
   29.1051  -19.7972   -4.5643 C   0  0  0  0  0  0  0  0  0  0  0  0
   29.7910  -19.7582   -5.7601 C   0  0  0  0  0  0  0  0  0  0  0  0
   29.1436  -20.1887   -6.8959 C   0  0  0  0  0  0  0  0  0  0  0  0
   27.8477  -20.6418   -6.8196 C   0  0  0  0  0  0  0  0  0  0  0  0
   25.2648  -19.9141   -9.1856 O   0  0  0  0  0  0  0  0  0  0  0  0
   25.5368  -18.7176   -8.9836 O   0  0  0  0  0  0  0  0  0  0  0  0
  2  1  1  6
  2  4  1  0
  3  2  1  0
  5  4  1  0
  5  6  1  6
  7  8  2  0
  7  5  1  0
  9 10  1  0
 10 12  1  0
 11 10  2  0
 12 13  1  0
 13 14  1  0
 14 15  1  0
 16 15  1  6
 16 17  1  0
 17  7  1  0
 18 19  2  0
 18 16  1  0
 20 18  1  0
 21 20  1  0
 21 22  1  6
 22 23  1  0
 23 31  1  0
 23 24  2  0
 24 25  1  0
 26 25  1  0
 26 27  2  0
 28 27  1  0
 29 28  2  0
 30 31  2  0
 30 29  1  0
 31 26  1  0
 32 21  1  0
 33 32  2  0
 34 32  1  0
M  END
$$$$
