LRW.pdb
     RDKit          3D

 34 35  0  0  1  0  0  0  0  0999 V2000
   27.4168  -16.2849  -16.6373 C   0  0  0  0  0  0  0  0  0  0  0  0
   26.5739  -15.3379  -15.8264 C   0  0  1  0  0  0  0  0  0  0  0  0
   25.9573  -14.2717  -16.6745 C   0  0  0  0  0  0  0  0  0  0  0  0
   25.4871  -16.0891  -15.0584 C   0  0  0  0  0  0  0  0  0  0  0  0
   25.1295  -17.3757  -15.7597 C   0  0  2  0  0  0  0  0  0  0  0  0
   23.9618  -17.2227  -16.6029 N   0  0  0  0  0  0  0  0  0  0  0  0
   24.8369  -18.4386  -14.7691 C   0  0  0  0  0  0  0  0  0  0  0  0
   23.7718  -18.3660  -14.0983 O   0  0  0  0  0  0  0  0  0  0  0  0
   22.6035  -23.6360  -14.2669 N   0  0  0  0  0  0  0  0  0  0  0  0
   22.8986  -24.7916  -13.5015 C   0  0  0  0  0  0  0  0  0  0  0  0
   21.9169  -25.4892  -13.0573 N   0  0  0  0  0  0  0  0  0  0  0  0
   24.2275  -25.1913  -13.2179 N   0  0  0  0  0  0  0  0  0  0  0  0
   25.3556  -24.3648  -13.5082 C   0  0  0  0  0  0  0  0  0  0  0  0
   25.1994  -22.9539  -12.9801 C   0  0  0  0  0  0  0  0  0  0  0  0
   25.4925  -21.9335  -14.0585 C   0  0  0  0  0  0  0  0  0  0  0  0
   25.3380  -20.5208  -13.5546 C   0  0  2  0  0  0  0  0  0  0  0  0
   25.6885  -19.5348  -14.5324 N   0  0  0  0  0  0  0  0  0  0  0  0
   26.3031  -20.3759  -12.4197 C   0  0  0  0  0  0  0  0  0  0  0  0
   27.5471  -20.4720  -12.5718 O   0  0  0  0  0  0  0  0  0  0  0  0
   22.0885  -26.4000  -12.6174 N   0  0  0  0  0  0  0  0  0  0  0  0
   25.8146  -20.1170  -11.0977 C   0  0  2  0  0  0  0  0  0  0  0  0
   26.6973  -20.0418   -9.9447 C   0  0  0  0  0  0  0  0  0  0  0  0
   25.9284  -19.5517   -8.7370 C   0  0  0  0  0  0  0  0  0  0  0  0
   26.8944  -19.1547   -7.6834 C   0  0  0  0  0  0  0  0  0  0  0  0
   27.7106  -18.0325   -7.6525 N   0  0  0  0  0  0  0  0  0  0  0  0
   28.4423  -18.0308   -6.5360 C   0  0  0  0  0  0  0  0  0  0  0  0
   28.1269  -19.1261   -5.8303 C   0  0  0  0  0  0  0  0  0  0  0  0
   28.5563  -19.6412   -4.6150 C   0  0  0  0  0  0  0  0  0  0  0  0
   28.0445  -20.8171   -4.1223 C   0  0  0  0  0  0  0  0  0  0  0  0
   27.0872  -21.5359   -4.8070 C   0  0  0  0  0  0  0  0  0  0  0  0
   26.6452  -21.0453   -6.0146 C   0  0  0  0  0  0  0  0  0  0  0  0
   27.1570  -19.8685   -6.5083 C   0  0  0  0  0  0  0  0  0  0  0  0
   27.2666  -21.3647   -9.6221 O   0  0  0  0  0  0  0  0  0  0  0  0
   26.5849  -22.3798   -9.3954 O   0  0  0  0  0  0  0  0  0  0  0  0
  2  1  1  6
  2  4  1  0
  3  2  1  0
  5  4  1  0
  5  6  1  1
  7  8  2  0
  7  5  1  0
  9 10  1  0
 10 12  1  0
 11 10  2  0
 12 13  1  0
 13 14  1  0
 14 15  1  0
 16 15  1  6
 16 17  1  0
 17  7  1  0
 18 19  2  0
 18 16  1  0
 20 18  1  0
 21 20  1  0
 21 22  1  1
 22 23  1  0
 23 31  1  0
 23 24  2  0
 24 25  1  0
 26 25  1  0
 26 27  2  0
 28 27  1  0
 29 28  2  0
 30 31  2  0
 30 29  1  0
 31 26  1  0
 32 21  1  0
 33 32  2  0
 34 32  1  0
M  END
$$$$
