LRW.pdb
     RDKit          3D

 34 35  0  0  1  0  0  0  0  0999 V2000
   25.6021  -24.7277  -19.1279 C   0  0  0  0  0  0  0  0  0  0  0  0
   27.0212  -24.5808  -18.6493 C   0  0  1  0  0  0  0  0  0  0  0  0
   27.9963  -24.5776  -19.7831 C   0  0  0  0  0  0  0  0  0  0  0  0
   27.1902  -23.3146  -17.8105 C   0  0  0  0  0  0  0  0  0  0  0  0
   26.5291  -23.4735  -16.4641 C   0  0  2  0  0  0  0  0  0  0  0  0
   25.0912  -23.3211  -16.5491 N   0  0  0  0  0  0  0  0  0  0  0  0
   27.0376  -22.4535  -15.5167 C   0  0  0  0  0  0  0  0  0  0  0  0
   28.2759  -22.4055  -15.2840 O   0  0  0  0  0  0  0  0  0  0  0  0
   24.1036  -15.7582  -15.4527 N   0  0  0  0  0  0  0  0  0  0  0  0
   25.2860  -15.6259  -14.6829 C   0  0  0  0  0  0  0  0  0  0  0  0
   25.2819  -14.7917  -13.7073 N   0  0  0  0  0  0  0  0  0  0  0  0
   26.4546  -16.3778  -14.9572 N   0  0  0  0  0  0  0  0  0  0  0  0
   26.5176  -17.3405  -16.0106 C   0  0  0  0  0  0  0  0  0  0  0  0
   27.0841  -18.6696  -15.5560 C   0  0  0  0  0  0  0  0  0  0  0  0
   26.4038  -19.1473  -14.2915 C   0  0  0  0  0  0  0  0  0  0  0  0
   26.7757  -20.5690  -13.9541 C   0  0  2  0  0  0  0  0  0  0  0  0
   26.2089  -21.5265  -14.8557 N   0  0  0  0  0  0  0  0  0  0  0  0
   26.1942  -20.8415  -12.6021 C   0  0  0  0  0  0  0  0  0  0  0  0
   24.9799  -21.1164  -12.4297 O   0  0  0  0  0  0  0  0  0  0  0  0
   26.0982  -14.7149  -13.0907 N   0  0  0  0  0  0  0  0  0  0  0  0
   27.0344  -20.7933  -11.4422 C   0  0  2  0  0  0  0  0  0  0  0  0
   26.5035  -20.9101  -10.0936 C   0  0  0  0  0  0  0  0  0  0  0  0
   27.6335  -20.8619   -9.0881 C   0  0  0  0  0  0  0  0  0  0  0  0
   27.0717  -20.5464   -7.7518 C   0  0  0  0  0  0  0  0  0  0  0  0
   25.7707  -20.7347   -7.3064 N   0  0  0  0  0  0  0  0  0  0  0  0
   25.6569  -20.3220   -6.0420 C   0  0  0  0  0  0  0  0  0  0  0  0
   26.8531  -19.8663   -5.6438 C   0  0  0  0  0  0  0  0  0  0  0  0
   27.3272  -19.3254   -4.4566 C   0  0  0  0  0  0  0  0  0  0  0  0
   28.6379  -18.9340   -4.3290 C   0  0  0  0  0  0  0  0  0  0  0  0
   29.5376  -19.0590   -5.3667 C   0  0  0  0  0  0  0  0  0  0  0  0
   29.0911  -19.5928   -6.5542 C   0  0  0  0  0  0  0  0  0  0  0  0
   27.7795  -19.9848   -6.6826 C   0  0  0  0  0  0  0  0  0  0  0  0
   25.5705  -19.8074   -9.7906 O   0  0  0  0  0  0  0  0  0  0  0  0
   25.8000  -18.6116  -10.0433 O   0  0  0  0  0  0  0  0  0  0  0  0
  2  1  1  6
  2  4  1  0
  3  2  1  0
  5  4  1  0
  5  6  1  6
  7  8  2  0
  7  5  1  0
  9 10  1  0
 10 12  1  0
 11 10  2  0
 12 13  1  0
 13 14  1  0
 14 15  1  0
 16 15  1  6
 16 17  1  0
 17  7  1  0
 18 19  2  0
 18 16  1  0
 20 18  1  0
 21 20  1  0
 21 22  1  6
 22 23  1  0
 23 31  1  0
 23 24  2  0
 24 25  1  0
 26 25  1  0
 26 27  2  0
 28 27  1  0
 29 28  2  0
 30 31  2  0
 30 29  1  0
 31 26  1  0
 32 21  1  0
 33 32  2  0
 34 32  1  0
M  END
$$$$
