LRW.pdb
     RDKit          3D

 34 35  0  0  1  0  0  0  0  0999 V2000
   29.4001  -15.7029  -18.4054 C   0  0  0  0  0  0  0  0  0  0  0  0
   28.9815  -17.0715  -17.9401 C   0  0  1  0  0  0  0  0  0  0  0  0
   30.1177  -18.0433  -17.9677 C   0  0  0  0  0  0  0  0  0  0  0  0
   28.3759  -17.0143  -16.5382 C   0  0  0  0  0  0  0  0  0  0  0  0
   28.4078  -18.3742  -15.8866 C   0  0  2  0  0  0  0  0  0  0  0  0
   27.9344  -19.4109  -16.7806 N   0  0  0  0  0  0  0  0  0  0  0  0
   27.5467  -18.3881  -14.6805 C   0  0  0  0  0  0  0  0  0  0  0  0
   27.7223  -17.5033  -13.7995 O   0  0  0  0  0  0  0  0  0  0  0  0
   20.6970  -19.1365  -17.0676 N   0  0  0  0  0  0  0  0  0  0  0  0
   21.1561  -20.1949  -16.2445 C   0  0  0  0  0  0  0  0  0  0  0  0
   20.9368  -21.3993  -16.6305 N   0  0  0  0  0  0  0  0  0  0  0  0
   21.8398  -19.9628  -15.0260 N   0  0  0  0  0  0  0  0  0  0  0  0
   22.0692  -18.6495  -14.5132 C   0  0  0  0  0  0  0  0  0  0  0  0
   23.5381  -18.3574  -14.2874 C   0  0  0  0  0  0  0  0  0  0  0  0
   24.2326  -19.5326  -13.6342 C   0  0  0  0  0  0  0  0  0  0  0  0
   25.6758  -19.2306  -13.3195 C   0  0  2  0  0  0  0  0  0  0  0  0
   26.5342  -19.3418  -14.4605 N   0  0  0  0  0  0  0  0  0  0  0  0
   26.1143  -20.2714  -12.3373 C   0  0  0  0  0  0  0  0  0  0  0  0
   26.4498  -21.4319  -12.6845 O   0  0  0  0  0  0  0  0  0  0  0  0
   21.2772  -22.1900  -16.0724 N   0  0  0  0  0  0  0  0  0  0  0  0
   26.1621  -19.9573  -10.9399 C   0  0  2  0  0  0  0  0  0  0  0  0
   26.3660  -20.9752   -9.9219 C   0  0  0  0  0  0  0  0  0  0  0  0
   27.4999  -20.5692   -9.0057 C   0  0  0  0  0  0  0  0  0  0  0  0
   27.0041  -20.5562   -7.6075 C   0  0  0  0  0  0  0  0  0  0  0  0
   25.8001  -21.0491   -7.1239 N   0  0  0  0  0  0  0  0  0  0  0  0
   25.7198  -20.8464   -5.8070 C   0  0  0  0  0  0  0  0  0  0  0  0
   26.8434  -20.2313   -5.4115 C   0  0  0  0  0  0  0  0  0  0  0  0
   27.3099  -19.7813   -4.1840 C   0  0  0  0  0  0  0  0  0  0  0  0
   28.5347  -19.1692   -4.0717 C   0  0  0  0  0  0  0  0  0  0  0  0
   29.3523  -18.9744   -5.1651 C   0  0  0  0  0  0  0  0  0  0  0  0
   28.9116  -19.4123   -6.3933 C   0  0  0  0  0  0  0  0  0  0  0  0
   27.6860  -20.0250   -6.5064 C   0  0  0  0  0  0  0  0  0  0  0  0
   25.1534  -21.1580   -9.1005 O   0  0  0  0  0  0  0  0  0  0  0  0
   25.0109  -22.0644   -8.2611 O   0  0  0  0  0  0  0  0  0  0  0  0
  2  1  1  1
  2  4  1  0
  3  2  1  0
  5  4  1  0
  5  6  1  6
  7  8  2  0
  7  5  1  0
  9 10  1  0
 10 12  1  0
 11 10  2  0
 12 13  1  0
 13 14  1  0
 14 15  1  0
 16 15  1  6
 16 17  1  0
 17  7  1  0
 18 19  2  0
 18 16  1  0
 20 18  1  0
 21 20  1  0
 21 22  1  1
 22 23  1  0
 23 31  1  0
 23 24  2  0
 24 25  1  0
 26 25  1  0
 26 27  2  0
 28 27  1  0
 29 28  2  0
 30 31  2  0
 30 29  1  0
 31 26  1  0
 32 21  1  0
 33 32  2  0
 34 32  1  0
M  END
$$$$
