LRW.pdb
     RDKit          3D

 34 35  0  0  1  0  0  0  0  0999 V2000
   27.6793  -16.3585  -17.8350 C   0  0  0  0  0  0  0  0  0  0  0  0
   27.7208  -17.6867  -17.1288 C   0  0  1  0  0  0  0  0  0  0  0  0
   29.0642  -18.3348  -17.2349 C   0  0  0  0  0  0  0  0  0  0  0  0
   27.3248  -17.5411  -15.6600 C   0  0  0  0  0  0  0  0  0  0  0  0
   27.5978  -18.8174  -14.9040 C   0  0  2  0  0  0  0  0  0  0  0  0
   27.4848  -19.9829  -15.7566 N   0  0  0  0  0  0  0  0  0  0  0  0
   26.6310  -18.9744  -13.7917 C   0  0  0  0  0  0  0  0  0  0  0  0
   26.4145  -17.9910  -13.0328 O   0  0  0  0  0  0  0  0  0  0  0  0
   19.4695  -20.5804  -15.4406 N   0  0  0  0  0  0  0  0  0  0  0  0
   19.5377  -20.8774  -14.0567 C   0  0  0  0  0  0  0  0  0  0  0  0
   18.4714  -20.7387  -13.3556 N   0  0  0  0  0  0  0  0  0  0  0  0
   20.7326  -21.3164  -13.4357 N   0  0  0  0  0  0  0  0  0  0  0  0
   21.9010  -21.6641  -14.1802 C   0  0  0  0  0  0  0  0  0  0  0  0
   23.0616  -20.7262  -13.9205 C   0  0  0  0  0  0  0  0  0  0  0  0
   23.8481  -21.1581  -12.7019 C   0  0  0  0  0  0  0  0  0  0  0  0
   25.0179  -20.2455  -12.4337 C   0  0  2  0  0  0  0  0  0  0  0  0
   25.9343  -20.1702  -13.5317 N   0  0  0  0  0  0  0  0  0  0  0  0
   25.7608  -20.8485  -11.2827 C   0  0  0  0  0  0  0  0  0  0  0  0
   26.3884  -21.9336  -11.3752 O   0  0  0  0  0  0  0  0  0  0  0  0
   18.4721  -20.9881  -12.3605 N   0  0  0  0  0  0  0  0  0  0  0  0
   25.7723  -20.1818  -10.0142 C   0  0  2  0  0  0  0  0  0  0  0  0
   26.4664  -20.7250   -8.8578 C   0  0  0  0  0  0  0  0  0  0  0  0
   27.2904  -19.6426   -8.1949 C   0  0  0  0  0  0  0  0  0  0  0  0
   28.0230  -20.2337   -7.0483 C   0  0  0  0  0  0  0  0  0  0  0  0
   28.5921  -21.4964   -6.9581 N   0  0  0  0  0  0  0  0  0  0  0  0
   29.1605  -21.6565   -5.7609 C   0  0  0  0  0  0  0  0  0  0  0  0
   28.9792  -20.5282   -5.0601 C   0  0  0  0  0  0  0  0  0  0  0  0
   29.3431  -20.1226   -3.7834 C   0  0  0  0  0  0  0  0  0  0  0  0
   29.0138  -18.8737   -3.3150 C   0  0  0  0  0  0  0  0  0  0  0  0
   28.3112  -17.9710   -4.0853 C   0  0  0  0  0  0  0  0  0  0  0  0
   27.9392  -18.3502   -5.3551 C   0  0  0  0  0  0  0  0  0  0  0  0
   28.2685  -19.5998   -5.8246 C   0  0  0  0  0  0  0  0  0  0  0  0
   25.5125  -21.2519   -7.8625 O   0  0  0  0  0  0  0  0  0  0  0  0
   24.3382  -20.8592   -7.7474 O   0  0  0  0  0  0  0  0  0  0  0  0
  2  1  1  1
  2  4  1  0
  3  2  1  0
  5  4  1  0
  5  6  1  6
  7  8  2  0
  7  5  1  0
  9 10  1  0
 10 12  1  0
 11 10  2  0
 12 13  1  0
 13 14  1  0
 14 15  1  0
 16 15  1  6
 16 17  1  0
 17  7  1  0
 18 19  2  0
 18 16  1  0
 20 18  1  0
 21 20  1  0
 21 22  1  6
 22 23  1  0
 23 31  1  0
 23 24  2  0
 24 25  1  0
 26 25  1  0
 26 27  2  0
 28 27  1  0
 29 28  2  0
 30 31  2  0
 30 29  1  0
 31 26  1  0
 32 21  1  0
 33 32  2  0
 34 32  1  0
M  END
$$$$
