LRW.pdb
     RDKit          3D

 34 35  0  0  1  0  0  0  0  0999 V2000
   17.3582  -23.5316  -13.3583 C   0  0  0  0  0  0  0  0  0  0  0  0
   18.0873  -22.2604  -13.0158 C   0  0  1  0  0  0  0  0  0  0  0  0
   17.5318  -21.6103  -11.7890 C   0  0  0  0  0  0  0  0  0  0  0  0
   19.5839  -22.5149  -12.8408 C   0  0  0  0  0  0  0  0  0  0  0  0
   20.3000  -21.2454  -12.4529 C   0  0  2  0  0  0  0  0  0  0  0  0
   20.0150  -20.1638  -13.3732 N   0  0  0  0  0  0  0  0  0  0  0  0
   21.7662  -21.4616  -12.4481 C   0  0  0  0  0  0  0  0  0  0  0  0
   22.2476  -22.3383  -11.6803 O   0  0  0  0  0  0  0  0  0  0  0  0
   29.4092  -21.2762  -16.3534 N   0  0  0  0  0  0  0  0  0  0  0  0
   29.0301  -22.4240  -15.6138 C   0  0  0  0  0  0  0  0  0  0  0  0
   29.9578  -23.2042  -15.1912 N   0  0  0  0  0  0  0  0  0  0  0  0
   27.6758  -22.7288  -15.3327 N   0  0  0  0  0  0  0  0  0  0  0  0
   26.6061  -21.8396  -15.6572 C   0  0  0  0  0  0  0  0  0  0  0  0
   26.2314  -20.9295  -14.5060 C   0  0  0  0  0  0  0  0  0  0  0  0
   24.7543  -20.6017  -14.5300 C   0  0  0  0  0  0  0  0  0  0  0  0
   24.0499  -21.0829  -13.2868 C   0  0  2  0  0  0  0  0  0  0  0  0
   22.6604  -20.7370  -13.2595 N   0  0  0  0  0  0  0  0  0  0  0  0
   24.7008  -20.3758  -12.1394 C   0  0  0  0  0  0  0  0  0  0  0  0
   24.5981  -19.1357  -11.9617 O   0  0  0  0  0  0  0  0  0  0  0  0
   29.7263  -24.0026  -14.5900 N   0  0  0  0  0  0  0  0  0  0  0  0
   25.4773  -21.1195  -11.1920 C   0  0  2  0  0  0  0  0  0  0  0  0
   26.3793  -20.4752  -10.2511 C   0  0  0  0  0  0  0  0  0  0  0  0
   25.9988  -20.8467   -8.8343 C   0  0  0  0  0  0  0  0  0  0  0  0
   26.7395  -19.9698   -7.8944 C   0  0  0  0  0  0  0  0  0  0  0  0
   26.7846  -18.5827   -7.8765 N   0  0  0  0  0  0  0  0  0  0  0  0
   27.5649  -18.1643   -6.8775 C   0  0  0  0  0  0  0  0  0  0  0  0
   28.0349  -19.2438   -6.2365 C   0  0  0  0  0  0  0  0  0  0  0  0
   28.8731  -19.4221   -5.1445 C   0  0  0  0  0  0  0  0  0  0  0  0
   29.1926  -20.6798   -4.6934 C   0  0  0  0  0  0  0  0  0  0  0  0
   28.6994  -21.8161   -5.2999 C   0  0  0  0  0  0  0  0  0  0  0  0
   27.8659  -21.6649   -6.3848 C   0  0  0  0  0  0  0  0  0  0  0  0
   27.5457  -20.4065   -6.8367 C   0  0  0  0  0  0  0  0  0  0  0  0
   27.7757  -20.8958  -10.4781 O   0  0  0  0  0  0  0  0  0  0  0  0
   28.1013  -21.9721  -11.0090 O   0  0  0  0  0  0  0  0  0  0  0  0
  2  1  1  1
  2  4  1  0
  3  2  1  0
  5  4  1  0
  5  6  1  6
  7  8  2  0
  7  5  1  0
  9 10  1  0
 10 12  1  0
 11 10  2  0
 12 13  1  0
 13 14  1  0
 14 15  1  0
 16 15  1  6
 16 17  1  0
 17  7  1  0
 18 19  2  0
 18 16  1  0
 20 18  1  0
 21 20  1  0
 21 22  1  1
 22 23  1  0
 23 31  1  0
 23 24  2  0
 24 25  1  0
 26 25  1  0
 26 27  2  0
 28 27  1  0
 29 28  2  0
 30 31  2  0
 30 29  1  0
 31 26  1  0
 32 21  1  0
 33 32  2  0
 34 32  1  0
M  END
$$$$
