LRW.pdb
     RDKit          3D

 34 35  0  0  1  0  0  0  0  0999 V2000
   32.5437  -21.9071  -11.7121 C   0  0  0  0  0  0  0  0  0  0  0  0
   31.5285  -21.7759  -12.8152 C   0  0  1  0  0  0  0  0  0  0  0  0
   30.9629  -23.1012  -13.2152 C   0  0  0  0  0  0  0  0  0  0  0  0
   30.4009  -20.8254  -12.4146 C   0  0  0  0  0  0  0  0  0  0  0  0
   29.4406  -20.6229  -13.5599 C   0  0  2  0  0  0  0  0  0  0  0  0
   29.8458  -19.5260  -14.4147 N   0  0  0  0  0  0  0  0  0  0  0  0
   28.0835  -20.3201  -13.0472 C   0  0  0  0  0  0  0  0  0  0  0  0
   27.8631  -19.1832  -12.5484 O   0  0  0  0  0  0  0  0  0  0  0  0
   25.3187  -24.9166  -15.2576 N   0  0  0  0  0  0  0  0  0  0  0  0
   24.4230  -24.0776  -15.9662 C   0  0  0  0  0  0  0  0  0  0  0  0
   23.2633  -24.5430  -16.2598 N   0  0  0  0  0  0  0  0  0  0  0  0
   24.7680  -22.7596  -16.3534 N   0  0  0  0  0  0  0  0  0  0  0  0
   25.3836  -21.8331  -15.4573 C   0  0  0  0  0  0  0  0  0  0  0  0
   24.3883  -21.1634  -14.5327 C   0  0  0  0  0  0  0  0  0  0  0  0
   24.5915  -21.6079  -13.1005 C   0  0  0  0  0  0  0  0  0  0  0  0
   25.7691  -20.9192  -12.4583 C   0  0  2  0  0  0  0  0  0  0  0  0
   27.0164  -21.2382  -13.0857 N   0  0  0  0  0  0  0  0  0  0  0  0
   25.8388  -21.4356  -11.0552 C   0  0  0  0  0  0  0  0  0  0  0  0
   26.7623  -22.1888  -10.6557 O   0  0  0  0  0  0  0  0  0  0  0  0
   22.6152  -23.9903  -16.8317 N   0  0  0  0  0  0  0  0  0  0  0  0
   24.8245  -21.0714  -10.1107 C   0  0  1  0  0  0  0  0  0  0  0  0
   25.0413  -21.1376   -8.6744 C   0  0  0  0  0  0  0  0  0  0  0  0
   26.2112  -20.2589   -8.2879 C   0  0  0  0  0  0  0  0  0  0  0  0
   26.4569  -20.4025   -6.8319 C   0  0  0  0  0  0  0  0  0  0  0  0
   25.7533  -21.1764   -5.9195 N   0  0  0  0  0  0  0  0  0  0  0  0
   26.2793  -21.0362   -4.7007 C   0  0  0  0  0  0  0  0  0  0  0  0
   27.3135  -20.1879   -4.7889 C   0  0  0  0  0  0  0  0  0  0  0  0
   28.2171  -19.6773   -3.8671 C   0  0  0  0  0  0  0  0  0  0  0  0
   29.2024  -18.8000   -4.2507 C   0  0  0  0  0  0  0  0  0  0  0  0
   29.3390  -18.3883   -5.5598 C   0  0  0  0  0  0  0  0  0  0  0  0
   28.4548  -18.8810   -6.4924 C   0  0  0  0  0  0  0  0  0  0  0  0
   27.4685  -19.7591   -6.1093 C   0  0  0  0  0  0  0  0  0  0  0  0
   23.8522  -20.6729   -7.9339 O   0  0  0  0  0  0  0  0  0  0  0  0
   23.1653  -19.6908   -8.2653 O   0  0  0  0  0  0  0  0  0  0  0  0
  2  1  1  1
  2  4  1  0
  3  2  1  0
  5  4  1  0
  5  6  1  6
  7  8  2  0
  7  5  1  0
  9 10  1  0
 10 12  1  0
 11 10  2  0
 12 13  1  0
 13 14  1  0
 14 15  1  0
 16 15  1  6
 16 17  1  0
 17  7  1  0
 18 19  2  0
 18 16  1  0
 20 18  1  0
 21 20  1  0
 21 22  1  1
 22 23  1  0
 23 31  1  0
 23 24  2  0
 24 25  1  0
 26 25  1  0
 26 27  2  0
 28 27  1  0
 29 28  2  0
 30 31  2  0
 30 29  1  0
 31 26  1  0
 32 21  1  0
 33 32  2  0
 34 32  1  0
M  END
$$$$
