LRW.pdb
     RDKit          3D

 34 35  0  0  1  0  0  0  0  0999 V2000
   21.5294  -13.3590  -17.1784 C   0  0  0  0  0  0  0  0  0  0  0  0
   22.7958  -14.1611  -17.0460 C   0  0  1  0  0  0  0  0  0  0  0  0
   23.9992  -13.2859  -16.8974 C   0  0  0  0  0  0  0  0  0  0  0  0
   22.7094  -15.1352  -15.8717 C   0  0  0  0  0  0  0  0  0  0  0  0
   23.9732  -15.9509  -15.7600 C   0  0  2  0  0  0  0  0  0  0  0  0
   24.4850  -16.3316  -17.0605 N   0  0  0  0  0  0  0  0  0  0  0  0
   23.7191  -17.1926  -14.9919 C   0  0  0  0  0  0  0  0  0  0  0  0
   23.1232  -17.1092  -13.8839 O   0  0  0  0  0  0  0  0  0  0  0  0
   26.3954  -23.4801  -16.5880 N   0  0  0  0  0  0  0  0  0  0  0  0
   25.5243  -24.5105  -16.1549 C   0  0  0  0  0  0  0  0  0  0  0  0
   26.0446  -25.6153  -15.7592 N   0  0  0  0  0  0  0  0  0  0  0  0
   24.1163  -24.3564  -16.1471 N   0  0  0  0  0  0  0  0  0  0  0  0
   23.4815  -23.0955  -16.3644 C   0  0  0  0  0  0  0  0  0  0  0  0
   24.0004  -22.0119  -15.4420 C   0  0  0  0  0  0  0  0  0  0  0  0
   23.1909  -20.7414  -15.5855 C   0  0  0  0  0  0  0  0  0  0  0  0
   23.7131  -19.6375  -14.7013 C   0  0  2  0  0  0  0  0  0  0  0  0
   24.1087  -18.4718  -15.4332 N   0  0  0  0  0  0  0  0  0  0  0  0
   24.9423  -20.1793  -14.0411 C   0  0  0  0  0  0  0  0  0  0  0  0
   26.0629  -20.2018  -14.6101 O   0  0  0  0  0  0  0  0  0  0  0  0
   25.4434  -26.3888  -15.4547 N   0  0  0  0  0  0  0  0  0  0  0  0
   24.8649  -20.6989  -12.7079 C   0  0  2  0  0  0  0  0  0  0  0  0
   25.9415  -21.4744  -12.1131 C   0  0  0  0  0  0  0  0  0  0  0  0
   26.9075  -20.5538  -11.3995 C   0  0  0  0  0  0  0  0  0  0  0  0
   26.4532  -20.3764   -9.9985 C   0  0  0  0  0  0  0  0  0  0  0  0
   25.1602  -20.4683   -9.5021 N   0  0  0  0  0  0  0  0  0  0  0  0
   25.1589  -20.2397   -8.1869 C   0  0  0  0  0  0  0  0  0  0  0  0
   26.4213  -19.9994   -7.8051 C   0  0  0  0  0  0  0  0  0  0  0  0
   27.0155  -19.7057   -6.5855 C   0  0  0  0  0  0  0  0  0  0  0  0
   28.3706  -19.5019   -6.4875 C   0  0  0  0  0  0  0  0  0  0  0  0
   29.1982  -19.5788   -7.5880 C   0  0  0  0  0  0  0  0  0  0  0  0
   28.6322  -19.8690   -8.8087 C   0  0  0  0  0  0  0  0  0  0  0  0
   27.2761  -20.0732   -8.9075 C   0  0  0  0  0  0  0  0  0  0  0  0
   25.4198  -22.4448  -11.1310 O   0  0  0  0  0  0  0  0  0  0  0  0
   24.2560  -22.4351  -10.6930 O   0  0  0  0  0  0  0  0  0  0  0  0
  2  1  1  1
  2  4  1  0
  3  2  1  0
  5  4  1  0
  5  6  1  6
  7  8  2  0
  7  5  1  0
  9 10  1  0
 10 12  1  0
 11 10  2  0
 12 13  1  0
 13 14  1  0
 14 15  1  0
 16 15  1  6
 16 17  1  0
 17  7  1  0
 18 19  2  0
 18 16  1  0
 20 18  1  0
 21 20  1  0
 21 22  1  1
 22 23  1  0
 23 31  1  0
 23 24  2  0
 24 25  1  0
 26 25  1  0
 26 27  2  0
 28 27  1  0
 29 28  2  0
 30 31  2  0
 30 29  1  0
 31 26  1  0
 32 21  1  0
 33 32  2  0
 34 32  1  0
M  END
$$$$
