LRW.pdb
     RDKit          3D

 34 35  0  0  1  0  0  0  0  0999 V2000
   28.6171  -22.3352  -20.1910 C   0  0  0  0  0  0  0  0  0  0  0  0
   28.6434  -22.8011  -18.7603 C   0  0  1  0  0  0  0  0  0  0  0  0
   30.0091  -23.2429  -18.3410 C   0  0  0  0  0  0  0  0  0  0  0  0
   28.1338  -21.7114  -17.8178 C   0  0  0  0  0  0  0  0  0  0  0  0
   28.3481  -22.1071  -16.3781 C   0  0  2  0  0  0  0  0  0  0  0  0
   27.7391  -23.3859  -16.0749 N   0  0  0  0  0  0  0  0  0  0  0  0
   27.7540  -21.0961  -15.4719 C   0  0  0  0  0  0  0  0  0  0  0  0
   27.7782  -19.8836  -15.8166 O   0  0  0  0  0  0  0  0  0  0  0  0
   20.8215  -17.7087  -14.0801 N   0  0  0  0  0  0  0  0  0  0  0  0
   21.2681  -18.2552  -15.3089 C   0  0  0  0  0  0  0  0  0  0  0  0
   20.3999  -18.4527  -16.2336 N   0  0  0  0  0  0  0  0  0  0  0  0
   22.6261  -18.5843  -15.5406 N   0  0  0  0  0  0  0  0  0  0  0  0
   23.6014  -18.5961  -14.4971 C   0  0  0  0  0  0  0  0  0  0  0  0
   23.6986  -19.9380  -13.8015 C   0  0  0  0  0  0  0  0  0  0  0  0
   24.7937  -20.7877  -14.4087 C   0  0  0  0  0  0  0  0  0  0  0  0
   26.1135  -20.5923  -13.7064 C   0  0  2  0  0  0  0  0  0  0  0  0
   27.1586  -21.4156  -14.2363 N   0  0  0  0  0  0  0  0  0  0  0  0
   25.8969  -21.0171  -12.2876 C   0  0  0  0  0  0  0  0  0  0  0  0
   25.3374  -22.1006  -11.9828 O   0  0  0  0  0  0  0  0  0  0  0  0
   20.6902  -18.8328  -17.1411 N   0  0  0  0  0  0  0  0  0  0  0  0
   26.3356  -20.1728  -11.2161 C   0  0  2  0  0  0  0  0  0  0  0  0
   26.2361  -20.5729   -9.8217 C   0  0  0  0  0  0  0  0  0  0  0  0
   26.9222  -19.5511   -8.9413 C   0  0  0  0  0  0  0  0  0  0  0  0
   26.9412  -20.0568   -7.5468 C   0  0  0  0  0  0  0  0  0  0  0  0
   26.0934  -20.9893   -6.9651 N   0  0  0  0  0  0  0  0  0  0  0  0
   26.4305  -21.1780   -5.6873 C   0  0  0  0  0  0  0  0  0  0  0  0
   27.4810  -20.3916   -5.4136 C   0  0  0  0  0  0  0  0  0  0  0  0
   28.2429  -20.1701   -4.2746 C   0  0  0  0  0  0  0  0  0  0  0  0
   29.2904  -19.2812   -4.2836 C   0  0  0  0  0  0  0  0  0  0  0  0
   29.6317  -18.5723   -5.4163 C   0  0  0  0  0  0  0  0  0  0  0  0
   28.8909  -18.7749   -6.5585 C   0  0  0  0  0  0  0  0  0  0  0  0
   27.8425  -19.6643   -6.5502 C   0  0  0  0  0  0  0  0  0  0  0  0
   24.8267  -20.6751   -9.3958 O   0  0  0  0  0  0  0  0  0  0  0  0
   24.3995  -21.5314   -8.6017 O   0  0  0  0  0  0  0  0  0  0  0  0
  2  1  1  6
  2  4  1  0
  3  2  1  0
  5  4  1  0
  5  6  1  6
  7  8  2  0
  7  5  1  0
  9 10  1  0
 10 12  1  0
 11 10  2  0
 12 13  1  0
 13 14  1  0
 14 15  1  0
 16 15  1  6
 16 17  1  0
 17  7  1  0
 18 19  2  0
 18 16  1  0
 20 18  1  0
 21 20  1  0
 21 22  1  6
 22 23  1  0
 23 31  1  0
 23 24  2  0
 24 25  1  0
 26 25  1  0
 26 27  2  0
 28 27  1  0
 29 28  2  0
 30 31  2  0
 30 29  1  0
 31 26  1  0
 32 21  1  0
 33 32  2  0
 34 32  1  0
M  END
$$$$
