SED.pdb
     RDKit          3D

 24 23  0  0  1  0  0  0  0  0999 V2000
    8.3990  -14.0012   20.9620 O   0  0  0  0  0  0  0  0  0  0  0  0
    7.8419  -13.9548   19.7094 C   0  0  0  0  0  0  0  0  0  0  0  0
    8.8359  -13.5450   18.6408 C   0  0  2  0  0  0  0  0  0  0  0  0
    8.2349  -13.5788   17.3444 N   0  0  0  0  0  0  0  0  0  0  0  0
   10.0379  -14.4174   18.7396 C   0  0  0  0  0  0  0  0  0  0  0  0
    9.9945  -15.5609   18.2184 O   0  0  0  0  0  0  0  0  0  0  0  0
   11.2273  -14.0260   19.3901 N   0  0  0  0  0  0  0  0  0  0  0  0
   12.3576  -14.8958   19.4519 C   0  0  1  0  0  0  0  0  0  0  0  0
   13.5515  -14.3890   18.6872 C   0  0  0  0  0  0  0  0  0  0  0  0
   13.5248  -14.6599   17.2269 C   0  0  0  0  0  0  0  0  0  0  0  0
   14.8368  -14.8952   16.6094 C   0  0  0  0  0  0  0  0  0  0  0  0
   15.8856  -14.2642   16.8900 O   0  0  0  0  0  0  0  0  0  0  0  0
   12.7914  -15.0054   20.8773 C   0  0  0  0  0  0  0  0  0  0  0  0
   12.8250  -13.9841   21.5953 O   0  0  0  0  0  0  0  0  0  0  0  0
   14.9005  -15.9030   15.6377 O   0  0  0  0  0  0  0  0  0  0  0  0
   13.1735  -16.2213   21.4726 N   0  0  0  0  0  0  0  0  0  0  0  0
   13.6557  -16.3353   22.8415 C   0  0  1  0  0  0  0  0  0  0  0  0
   13.2127  -17.6043   23.4891 C   0  0  0  0  0  0  0  0  0  0  0  0
   11.7488  -17.5957   23.6550 C   0  0  0  0  0  0  0  0  0  0  0  0
   11.1853  -16.6793   24.2671 O   0  0  0  0  0  0  0  0  0  0  0  0
   15.1086  -16.1060   22.8248 C   0  0  0  0  0  0  0  0  0  0  0  0
   15.7287  -16.0862   21.7428 O   0  0  0  0  0  0  0  0  0  0  0  0
   11.0020  -18.6242   23.1192 O   0  0  0  0  0  0  0  0  0  0  0  0
   15.8120  -15.9093   23.9953 O   0  0  0  0  0  0  0  0  0  0  0  0
  2  1  1  0
  2  3  1  0
  3  4  1  6
  5  3  1  0
  5  6  2  0
  7  5  1  0
  8  7  1  0
  8 13  1  0
  8  9  1  6
 10 11  1  0
 10  9  1  0
 11 12  2  0
 13 16  1  0
 14 13  2  0
 15 11  1  0
 16 17  1  0
 17 21  1  0
 17 18  1  6
 19 18  1  0
 20 19  2  0
 21 22  2  0
 21 24  1  0
 23 19  1  0
M  END
$$$$
