SED.pdb
     RDKit          3D

 24 23  0  0  1  0  0  0  0  0999 V2000
    7.8177  -13.5249   20.8970 O   0  0  0  0  0  0  0  0  0  0  0  0
    8.2439  -12.5629   20.0170 C   0  0  0  0  0  0  0  0  0  0  0  0
    8.5621  -13.1234   18.6450 C   0  0  2  0  0  0  0  0  0  0  0  0
    7.4002  -13.7042   18.0486 N   0  0  0  0  0  0  0  0  0  0  0  0
    9.6885  -14.0888   18.7673 C   0  0  0  0  0  0  0  0  0  0  0  0
    9.4480  -15.3141   18.6190 O   0  0  0  0  0  0  0  0  0  0  0  0
   11.0164  -13.6985   19.0418 N   0  0  0  0  0  0  0  0  0  0  0  0
   12.0727  -14.6571   19.0988 C   0  0  1  0  0  0  0  0  0  0  0  0
   13.3134  -14.2323   18.3590 C   0  0  0  0  0  0  0  0  0  0  0  0
   14.4454  -15.1917   18.4258 C   0  0  0  0  0  0  0  0  0  0  0  0
   15.6867  -14.7417   17.7817 C   0  0  0  0  0  0  0  0  0  0  0  0
   16.6724  -14.2521   18.3863 O   0  0  0  0  0  0  0  0  0  0  0  0
   12.4771  -14.8296   20.5266 C   0  0  0  0  0  0  0  0  0  0  0  0
   12.7123  -13.8247   21.2299 O   0  0  0  0  0  0  0  0  0  0  0  0
   15.7549  -14.8779   16.3886 O   0  0  0  0  0  0  0  0  0  0  0  0
   12.6117  -16.0882   21.1402 N   0  0  0  0  0  0  0  0  0  0  0  0
   12.8993  -16.2715   22.5555 C   0  0  1  0  0  0  0  0  0  0  0  0
   12.1739  -17.4425   23.1289 C   0  0  0  0  0  0  0  0  0  0  0  0
   12.5755  -17.6402   24.5325 C   0  0  0  0  0  0  0  0  0  0  0  0
   11.8880  -17.1904   25.4582 O   0  0  0  0  0  0  0  0  0  0  0  0
   14.3613  -16.2909   22.7162 C   0  0  0  0  0  0  0  0  0  0  0  0
   15.0769  -16.8807   21.8821 O   0  0  0  0  0  0  0  0  0  0  0  0
   13.7330  -18.3362   24.8125 O   0  0  0  0  0  0  0  0  0  0  0  0
   14.9687  -15.6627   23.7840 O   0  0  0  0  0  0  0  0  0  0  0  0
  2  1  1  0
  2  3  1  0
  3  4  1  1
  5  3  1  0
  5  6  2  0
  7  5  1  0
  8  7  1  0
  8 13  1  0
  8  9  1  6
 10 11  1  0
 10  9  1  0
 11 12  2  0
 13 16  1  0
 14 13  2  0
 15 11  1  0
 16 17  1  0
 17 21  1  0
 17 18  1  6
 19 18  1  0
 20 19  2  0
 21 22  2  0
 21 24  1  0
 23 19  1  0
M  END
$$$$
