SED.pdb
     RDKit          3D

 24 23  0  0  1  0  0  0  0  0999 V2000
   14.7811  -13.9808   19.0302 O   0  0  0  0  0  0  0  0  0  0  0  0
   14.0937  -14.6305   18.0367 C   0  0  0  0  0  0  0  0  0  0  0  0
   12.6479  -14.9000   18.4042 C   0  0  2  0  0  0  0  0  0  0  0  0
   11.8962  -13.6848   18.4441 N   0  0  0  0  0  0  0  0  0  0  0  0
   12.6080  -15.6427   19.6934 C   0  0  0  0  0  0  0  0  0  0  0  0
   12.2508  -15.0273   20.7302 O   0  0  0  0  0  0  0  0  0  0  0  0
   12.9513  -17.0062   19.8125 N   0  0  0  0  0  0  0  0  0  0  0  0
   12.8543  -17.6872   21.0635 C   0  0  1  0  0  0  0  0  0  0  0  0
   12.3899  -19.1140   20.9392 C   0  0  0  0  0  0  0  0  0  0  0  0
   12.3141  -19.6323   19.5492 C   0  0  0  0  0  0  0  0  0  0  0  0
   11.2609  -20.6279   19.3085 C   0  0  0  0  0  0  0  0  0  0  0  0
   11.3950  -21.8666   19.4647 O   0  0  0  0  0  0  0  0  0  0  0  0
   14.2153  -17.7436   21.6769 C   0  0  0  0  0  0  0  0  0  0  0  0
   14.9614  -18.7171   21.4417 O   0  0  0  0  0  0  0  0  0  0  0  0
   10.0226  -20.1373   18.8727 O   0  0  0  0  0  0  0  0  0  0  0  0
   14.7179  -16.7399   22.5247 N   0  0  0  0  0  0  0  0  0  0  0  0
   16.1156  -16.6400   22.9198 C   0  0  1  0  0  0  0  0  0  0  0  0
   16.7026  -15.3119   22.5767 C   0  0  0  0  0  0  0  0  0  0  0  0
   18.0972  -15.2458   23.0469 C   0  0  0  0  0  0  0  0  0  0  0  0
   18.3711  -14.7652   24.1542 O   0  0  0  0  0  0  0  0  0  0  0  0
   16.2092  -17.0276   24.3357 C   0  0  0  0  0  0  0  0  0  0  0  0
   17.3204  -17.0832   24.8993 O   0  0  0  0  0  0  0  0  0  0  0  0
   19.1062  -15.7272   22.2390 O   0  0  0  0  0  0  0  0  0  0  0  0
   15.0797  -17.3357   25.0658 O   0  0  0  0  0  0  0  0  0  0  0  0
  2  1  1  0
  2  3  1  0
  3  4  1  1
  5  3  1  0
  5  6  2  0
  7  5  1  0
  8  7  1  0
  8 13  1  0
  8  9  1  6
 10 11  1  0
 10  9  1  0
 11 12  2  0
 13 16  1  0
 14 13  2  0
 15 11  1  0
 16 17  1  0
 17 21  1  0
 17 18  1  1
 19 18  1  0
 20 19  2  0
 21 22  2  0
 21 24  1  0
 23 19  1  0
M  END
$$$$
