SED.pdb
     RDKit          3D

 24 23  0  0  1  0  0  0  0  0999 V2000
   11.0017  -19.0264   19.0528 O   0  0  0  0  0  0  0  0  0  0  0  0
   11.4036  -18.7318   17.7748 C   0  0  0  0  0  0  0  0  0  0  0  0
   12.1601  -19.8712   17.1211 C   0  0  2  0  0  0  0  0  0  0  0  0
   11.3977  -21.0796   17.1609 N   0  0  0  0  0  0  0  0  0  0  0  0
   13.4886  -20.0083   17.7782 C   0  0  0  0  0  0  0  0  0  0  0  0
   13.7064  -21.0243   18.4864 O   0  0  0  0  0  0  0  0  0  0  0  0
   14.5196  -19.0538   17.6471 N   0  0  0  0  0  0  0  0  0  0  0  0
   15.7901  -19.2466   18.2689 C   0  0  1  0  0  0  0  0  0  0  0  0
   16.9294  -18.6003   17.5265 C   0  0  0  0  0  0  0  0  0  0  0  0
   18.2774  -18.8583   18.0943 C   0  0  0  0  0  0  0  0  0  0  0  0
   19.3898  -18.2099   17.3868 C   0  0  0  0  0  0  0  0  0  0  0  0
   20.3905  -17.6938   17.9427 O   0  0  0  0  0  0  0  0  0  0  0  0
   15.7565  -18.6079   19.6190 C   0  0  0  0  0  0  0  0  0  0  0  0
   15.2915  -17.4560   19.7485 O   0  0  0  0  0  0  0  0  0  0  0  0
   19.3080  -18.1758   15.9882 O   0  0  0  0  0  0  0  0  0  0  0  0
   16.2295  -19.2435   20.7814 N   0  0  0  0  0  0  0  0  0  0  0  0
   16.0883  -18.6897   22.1204 C   0  0  1  0  0  0  0  0  0  0  0  0
   15.7065  -19.7291   23.1205 C   0  0  0  0  0  0  0  0  0  0  0  0
   15.5452  -19.1098   24.4475 C   0  0  0  0  0  0  0  0  0  0  0  0
   15.8344  -17.9205   24.6317 O   0  0  0  0  0  0  0  0  0  0  0  0
   17.3149  -17.9373   22.4252 C   0  0  0  0  0  0  0  0  0  0  0  0
   17.4357  -17.3496   23.5186 O   0  0  0  0  0  0  0  0  0  0  0  0
   15.0652  -19.8696   25.4939 O   0  0  0  0  0  0  0  0  0  0  0  0
   18.3505  -17.8653   21.5163 O   0  0  0  0  0  0  0  0  0  0  0  0
  2  1  1  0
  2  3  1  0
  3  4  1  1
  5  3  1  0
  5  6  2  0
  7  5  1  0
  8  7  1  0
  8 13  1  0
  8  9  1  6
 10 11  1  0
 10  9  1  0
 11 12  2  0
 13 16  1  0
 14 13  2  0
 15 11  1  0
 16 17  1  0
 17 21  1  0
 17 18  1  1
 19 18  1  0
 20 19  2  0
 21 22  2  0
 21 24  1  0
 23 19  1  0
M  END
$$$$
