SED.pdb
     RDKit          3D

 24 23  0  0  1  0  0  0  0  0999 V2000
   16.0320  -16.1198   17.6633 O   0  0  0  0  0  0  0  0  0  0  0  0
   15.5466  -15.5994   16.4906 C   0  0  0  0  0  0  0  0  0  0  0  0
   15.0426  -14.1781   16.6445 C   0  0  2  0  0  0  0  0  0  0  0  0
   16.1291  -13.2494   16.6556 N   0  0  0  0  0  0  0  0  0  0  0  0
   14.2025  -14.0939   17.8703 C   0  0  0  0  0  0  0  0  0  0  0  0
   14.6954  -13.5694   18.9013 O   0  0  0  0  0  0  0  0  0  0  0  0
   12.8771  -14.5740   17.9351 N   0  0  0  0  0  0  0  0  0  0  0  0
   12.1007  -14.4449   19.1261 C   0  0  1  0  0  0  0  0  0  0  0  0
   10.6357  -14.7280   18.9249 C   0  0  0  0  0  0  0  0  0  0  0  0
   10.3134  -15.5657   17.7413 C   0  0  0  0  0  0  0  0  0  0  0  0
    8.8858  -15.8536   17.5477 C   0  0  0  0  0  0  0  0  0  0  0  0
    8.2967  -15.8491   16.4388 O   0  0  0  0  0  0  0  0  0  0  0  0
   12.5873  -15.4505   20.1180 C   0  0  0  0  0  0  0  0  0  0  0  0
   12.8377  -16.6164   19.7469 O   0  0  0  0  0  0  0  0  0  0  0  0
    8.1451  -16.1529   18.6991 O   0  0  0  0  0  0  0  0  0  0  0  0
   12.7850  -15.1537   21.4788 N   0  0  0  0  0  0  0  0  0  0  0  0
   13.1357  -16.1496   22.4812 C   0  0  1  0  0  0  0  0  0  0  0  0
   14.2693  -15.7040   23.3428 C   0  0  0  0  0  0  0  0  0  0  0  0
   15.5011  -15.6126   22.5398 C   0  0  0  0  0  0  0  0  0  0  0  0
   15.5220  -16.0000   21.3643 O   0  0  0  0  0  0  0  0  0  0  0  0
   11.9039  -16.5188   23.1953 C   0  0  0  0  0  0  0  0  0  0  0  0
   11.8743  -17.5415   23.9087 O   0  0  0  0  0  0  0  0  0  0  0  0
   16.6422  -15.0879   23.1100 O   0  0  0  0  0  0  0  0  0  0  0  0
   10.7635  -15.7490   23.0930 O   0  0  0  0  0  0  0  0  0  0  0  0
  2  1  1  0
  2  3  1  0
  3  4  1  1
  5  3  1  0
  5  6  2  0
  7  5  1  0
  8  7  1  0
  8 13  1  0
  8  9  1  6
 10 11  1  0
 10  9  1  0
 11 12  2  0
 13 16  1  0
 14 13  2  0
 15 11  1  0
 16 17  1  0
 17 21  1  0
 17 18  1  1
 19 18  1  0
 20 19  2  0
 21 22  2  0
 21 24  1  0
 23 19  1  0
M  END
$$$$
