SED.pdb
     RDKit          3D

 24 23  0  0  1  0  0  0  0  0999 V2000
   14.9416  -17.1691   18.0549 O   0  0  0  0  0  0  0  0  0  0  0  0
   15.7348  -16.0891   17.7616 C   0  0  0  0  0  0  0  0  0  0  0  0
   14.9341  -14.8325   17.4828 C   0  0  2  0  0  0  0  0  0  0  0  0
   15.7972  -13.7325   17.1857 N   0  0  0  0  0  0  0  0  0  0  0  0
   14.0389  -14.5636   18.6411 C   0  0  0  0  0  0  0  0  0  0  0  0
   14.5229  -14.0011   19.6563 O   0  0  0  0  0  0  0  0  0  0  0  0
   12.6707  -14.9084   18.6588 N   0  0  0  0  0  0  0  0  0  0  0  0
   11.8544  -14.6393   19.7986 C   0  0  1  0  0  0  0  0  0  0  0  0
   10.3784  -14.6608   19.5022 C   0  0  0  0  0  0  0  0  0  0  0  0
    9.9168  -13.6374   18.5295 C   0  0  0  0  0  0  0  0  0  0  0  0
    8.5488  -13.8228   18.0271 C   0  0  0  0  0  0  0  0  0  0  0  0
    7.8078  -14.7974   18.3058 O   0  0  0  0  0  0  0  0  0  0  0  0
   12.0917  -15.7105   20.8125 C   0  0  0  0  0  0  0  0  0  0  0  0
   12.0877  -16.9088   20.4608 O   0  0  0  0  0  0  0  0  0  0  0  0
    8.0537  -12.8264   17.1751 O   0  0  0  0  0  0  0  0  0  0  0  0
   12.3252  -15.4419   22.1735 N   0  0  0  0  0  0  0  0  0  0  0  0
   12.6309  -16.4683   23.1597 C   0  0  1  0  0  0  0  0  0  0  0  0
   13.8150  -16.1104   23.9940 C   0  0  0  0  0  0  0  0  0  0  0  0
   15.0165  -16.0262   23.1456 C   0  0  0  0  0  0  0  0  0  0  0  0
   15.1817  -16.8083   22.2006 O   0  0  0  0  0  0  0  0  0  0  0  0
   11.3952  -16.7564   23.9037 C   0  0  0  0  0  0  0  0  0  0  0  0
   10.3623  -16.0918   23.6868 O   0  0  0  0  0  0  0  0  0  0  0  0
   15.9658  -15.0616   23.4124 O   0  0  0  0  0  0  0  0  0  0  0  0
   11.3511  -17.7596   24.8499 O   0  0  0  0  0  0  0  0  0  0  0  0
  2  1  1  0
  2  3  1  0
  3  4  1  1
  5  3  1  0
  5  6  2  0
  7  5  1  0
  8  7  1  0
  8 13  1  0
  8  9  1  6
 10 11  1  0
 10  9  1  0
 11 12  2  0
 13 16  1  0
 14 13  2  0
 15 11  1  0
 16 17  1  0
 17 21  1  0
 17 18  1  1
 19 18  1  0
 20 19  2  0
 21 22  2  0
 21 24  1  0
 23 19  1  0
M  END
$$$$
