SED.pdb
     RDKit          3D

 24 23  0  0  1  0  0  0  0  0999 V2000
   20.7262  -18.3425   14.3398 O   0  0  0  0  0  0  0  0  0  0  0  0
   19.9069  -18.0129   15.3894 C   0  0  0  0  0  0  0  0  0  0  0  0
   18.7868  -17.0745   14.9861 C   0  0  2  0  0  0  0  0  0  0  0  0
   19.3068  -15.8160   14.5512 N   0  0  0  0  0  0  0  0  0  0  0  0
   17.8360  -16.9409   16.1234 C   0  0  0  0  0  0  0  0  0  0  0  0
   17.5935  -15.7914   16.5718 O   0  0  0  0  0  0  0  0  0  0  0  0
   17.1905  -18.0414   16.7264 N   0  0  0  0  0  0  0  0  0  0  0  0
   16.1826  -17.8547   17.7200 C   0  0  1  0  0  0  0  0  0  0  0  0
   14.9232  -18.6365   17.4562 C   0  0  0  0  0  0  0  0  0  0  0  0
   13.8370  -18.4336   18.4488 C   0  0  0  0  0  0  0  0  0  0  0  0
   12.6116  -19.2059   18.2031 C   0  0  0  0  0  0  0  0  0  0  0  0
   12.4289  -19.9693   17.2229 O   0  0  0  0  0  0  0  0  0  0  0  0
   16.7122  -18.3461   19.0277 C   0  0  0  0  0  0  0  0  0  0  0  0
   17.2372  -19.4771   19.0982 O   0  0  0  0  0  0  0  0  0  0  0  0
   11.5830  -19.0657   19.1444 O   0  0  0  0  0  0  0  0  0  0  0  0
   16.6529  -17.5910   20.2131 N   0  0  0  0  0  0  0  0  0  0  0  0
   17.1991  -18.0394   21.4859 C   0  0  1  0  0  0  0  0  0  0  0  0
   17.7600  -16.9111   22.2850 C   0  0  0  0  0  0  0  0  0  0  0  0
   18.9420  -16.3556   21.6033 C   0  0  0  0  0  0  0  0  0  0  0  0
   19.6074  -17.0480   20.8223 O   0  0  0  0  0  0  0  0  0  0  0  0
   16.1654  -18.8405   22.1592 C   0  0  0  0  0  0  0  0  0  0  0  0
   16.4286  -19.4417   23.2198 O   0  0  0  0  0  0  0  0  0  0  0  0
   19.3070  -15.0470   21.8421 O   0  0  0  0  0  0  0  0  0  0  0  0
   14.8923  -18.9439   21.6373 O   0  0  0  0  0  0  0  0  0  0  0  0
  2  1  1  0
  2  3  1  0
  3  4  1  1
  5  3  1  0
  5  6  2  0
  7  5  1  0
  8  7  1  0
  8 13  1  0
  8  9  1  6
 10 11  1  0
 10  9  1  0
 11 12  2  0
 13 16  1  0
 14 13  2  0
 15 11  1  0
 16 17  1  0
 17 21  1  0
 17 18  1  1
 19 18  1  0
 20 19  2  0
 21 22  2  0
 21 24  1  0
 23 19  1  0
M  END
$$$$
