SED.pdb
     RDKit          3D

 24 23  0  0  1  0  0  0  0  0999 V2000
   10.9207  -13.0689   19.6824 O   0  0  0  0  0  0  0  0  0  0  0  0
   10.3663  -13.3577   18.4615 C   0  0  0  0  0  0  0  0  0  0  0  0
    8.8633  -13.5429   18.5294 C   0  0  2  0  0  0  0  0  0  0  0  0
    8.2078  -12.3022   18.8019 N   0  0  0  0  0  0  0  0  0  0  0  0
    8.5513  -14.5912   19.5389 C   0  0  0  0  0  0  0  0  0  0  0  0
    8.0377  -14.2391   20.6314 O   0  0  0  0  0  0  0  0  0  0  0  0
    8.8030  -15.9642   19.3325 N   0  0  0  0  0  0  0  0  0  0  0  0
    8.5029  -16.9311   20.3391 C   0  0  1  0  0  0  0  0  0  0  0  0
    8.1740  -18.2932   19.7883 C   0  0  0  0  0  0  0  0  0  0  0  0
    6.8929  -18.3774   19.0414 C   0  0  0  0  0  0  0  0  0  0  0  0
    6.5583  -19.7095   18.5199 C   0  0  0  0  0  0  0  0  0  0  0  0
    5.6507  -20.4501   18.9722 O   0  0  0  0  0  0  0  0  0  0  0  0
    9.7125  -17.1094   21.1977 C   0  0  0  0  0  0  0  0  0  0  0  0
   10.8496  -16.9428   20.7090 O   0  0  0  0  0  0  0  0  0  0  0  0
    7.3207  -20.1683   17.4373 O   0  0  0  0  0  0  0  0  0  0  0  0
    9.6438  -17.4626   22.5576 N   0  0  0  0  0  0  0  0  0  0  0  0
   10.8131  -17.6543   23.4036 C   0  0  1  0  0  0  0  0  0  0  0  0
   10.4842  -17.5273   24.8533 C   0  0  0  0  0  0  0  0  0  0  0  0
   11.6692  -17.8553   25.6648 C   0  0  0  0  0  0  0  0  0  0  0  0
   12.7507  -18.1263   25.1272 O   0  0  0  0  0  0  0  0  0  0  0  0
   11.4501  -18.9193   23.0066 C   0  0  0  0  0  0  0  0  0  0  0  0
   10.7528  -19.8826   22.6308 O   0  0  0  0  0  0  0  0  0  0  0  0
   11.5665  -17.8587   27.0403 O   0  0  0  0  0  0  0  0  0  0  0  0
   12.8215  -19.0674   23.0408 O   0  0  0  0  0  0  0  0  0  0  0  0
  2  1  1  0
  2  3  1  0
  3  4  1  1
  5  3  1  0
  5  6  2  0
  7  5  1  0
  8  7  1  0
  8 13  1  0
  8  9  1  6
 10 11  1  0
 10  9  1  0
 11 12  2  0
 13 16  1  0
 14 13  2  0
 15 11  1  0
 16 17  1  0
 17 21  1  0
 17 18  1  1
 19 18  1  0
 20 19  2  0
 21 22  2  0
 21 24  1  0
 23 19  1  0
M  END
$$$$
