NTK.pdb
     RDKit          3D

 25 24  0  0  1  0  0  0  0  0999 V2000
   19.6197  -20.4839  -15.9688 N   0  0  0  0  0  0  0  0  0  0  0  0
   18.6701  -19.4356  -15.8612 C   0  0  0  0  0  0  0  0  0  0  0  0
   17.4481  -19.7295  -16.0884 O   0  0  0  0  0  0  0  0  0  0  0  0
   18.9856  -18.0490  -15.5098 C   0  0  0  0  0  0  0  0  0  0  0  0
   20.5115  -17.8561  -15.4079 C   0  0  2  0  0  0  0  0  0  0  0  0
   20.9291  -18.5991  -14.2454 N   0  0  0  0  0  0  0  0  0  0  0  0
   20.6838  -16.3905  -15.2192 C   0  0  0  0  0  0  0  0  0  0  0  0
   20.5477  -15.9356  -14.0584 O   0  0  0  0  0  0  0  0  0  0  0  0
   22.7273  -12.1895  -16.4688 C   0  0  0  0  0  0  0  0  0  0  0  0
   22.5214  -13.6851  -16.6814 C   0  0  1  0  0  0  0  0  0  0  0  0
   23.5715  -14.4106  -16.1415 O   0  0  0  0  0  0  0  0  0  0  0  0
   21.1915  -14.0594  -16.0090 C   0  0  2  0  0  0  0  0  0  0  0  0
   20.9893  -15.4752  -16.2464 N   0  0  0  0  0  0  0  0  0  0  0  0
   20.1285  -13.2295  -16.6142 C   0  0  0  0  0  0  0  0  0  0  0  0
   19.6690  -13.4463  -17.7677 O   0  0  0  0  0  0  0  0  0  0  0  0
   19.6175  -12.1506  -15.8528 N   0  0  0  0  0  0  0  0  0  0  0  0
   18.5758  -11.2406  -16.3558 C   0  0  1  0  0  0  0  0  0  0  0  0
   17.4230  -11.4095  -15.3973 C   0  0  0  0  0  0  0  0  0  0  0  0
   16.2146  -10.5983  -15.7102 C   0  0  0  0  0  0  0  0  0  0  0  0
   15.0809  -10.8580  -14.7333 C   0  0  0  0  0  0  0  0  0  0  0  0
   13.8294  -10.1115  -15.1406 C   0  0  0  0  0  0  0  0  0  0  0  0
   12.7677  -10.2641  -14.1795 N   0  0  0  0  0  0  0  0  0  0  0  0
   19.1133   -9.8720  -16.2548 C   0  0  0  0  0  0  0  0  0  0  0  0
   20.1263   -9.6547  -15.5518 O   0  0  0  0  0  0  0  0  0  0  0  0
   18.5356   -8.8081  -16.9157 O   0  0  0  0  0  0  0  0  0  0  0  0
  1  2  1  0
  2  3  2  0
  2  4  1  0
  4  5  1  0
  5  6  1  1
  7 13  1  0
  7  5  1  0
  8  7  2  0
 10  9  1  1
 10 12  1  0
 11 10  1  0
 12 13  1  6
 12 14  1  0
 14 15  2  0
 16 14  1  0
 16 17  1  0
 17 23  1  0
 17 18  1  1
 18 19  1  0
 19 20  1  0
 21 22  1  0
 21 20  1  0
 23 25  1  0
 24 23  2  0
M  END
$$$$
