NTK.pdb
     RDKit          3D

 25 24  0  0  1  0  0  0  0  0999 V2000
   23.5954  -17.7798  -19.7786 N   0  0  0  0  0  0  0  0  0  0  0  0
   22.8901  -19.0087  -19.8449 C   0  0  0  0  0  0  0  0  0  0  0  0
   22.3493  -19.3117  -20.9615 O   0  0  0  0  0  0  0  0  0  0  0  0
   22.7380  -19.9511  -18.7338 C   0  0  0  0  0  0  0  0  0  0  0  0
   23.5233  -19.4586  -17.5022 C   0  0  2  0  0  0  0  0  0  0  0  0
   24.9174  -19.5539  -17.8558 N   0  0  0  0  0  0  0  0  0  0  0  0
   23.1582  -20.4193  -16.4267 C   0  0  0  0  0  0  0  0  0  0  0  0
   23.7776  -21.5091  -16.3882 O   0  0  0  0  0  0  0  0  0  0  0  0
   23.3250  -19.8493  -12.8110 C   0  0  0  0  0  0  0  0  0  0  0  0
   21.8921  -20.3013  -13.0697 C   0  0  1  0  0  0  0  0  0  0  0  0
   21.0426  -19.2123  -13.1822 O   0  0  0  0  0  0  0  0  0  0  0  0
   21.9042  -21.1255  -14.3664 C   0  0  2  0  0  0  0  0  0  0  0  0
   22.1696  -20.1964  -15.4473 N   0  0  0  0  0  0  0  0  0  0  0  0
   20.5864  -21.7817  -14.4986 C   0  0  0  0  0  0  0  0  0  0  0  0
   19.7328  -21.4287  -15.3561 O   0  0  0  0  0  0  0  0  0  0  0  0
   20.2873  -22.8486  -13.6170 N   0  0  0  0  0  0  0  0  0  0  0  0
   18.9752  -23.5148  -13.5853 C   0  0  1  0  0  0  0  0  0  0  0  0
   19.1702  -24.7038  -12.6774 C   0  0  0  0  0  0  0  0  0  0  0  0
   18.0045  -25.6245  -12.5798 C   0  0  0  0  0  0  0  0  0  0  0  0
   18.3198  -26.8640  -11.7604 C   0  0  0  0  0  0  0  0  0  0  0  0
   17.1295  -27.7965  -11.7037 C   0  0  0  0  0  0  0  0  0  0  0  0
   17.4294  -29.0196  -11.0050 N   0  0  0  0  0  0  0  0  0  0  0  0
   18.0259  -22.5685  -12.9725 C   0  0  0  0  0  0  0  0  0  0  0  0
   18.4193  -21.7916  -12.0730 O   0  0  0  0  0  0  0  0  0  0  0  0
   16.7035  -22.5048  -13.3593 O   0  0  0  0  0  0  0  0  0  0  0  0
  1  2  1  0
  2  3  2  0
  2  4  1  0
  4  5  1  0
  5  6  1  6
  7 13  1  0
  7  5  1  0
  8  7  2  0
 10  9  1  6
 10 12  1  0
 11 10  1  0
 12 13  1  6
 12 14  1  0
 14 15  2  0
 16 14  1  0
 16 17  1  0
 17 23  1  0
 17 18  1  1
 18 19  1  0
 19 20  1  0
 21 22  1  0
 21 20  1  0
 23 25  1  0
 24 23  2  0
M  END
$$$$
