NTK.pdb
     RDKit          3D

 25 24  0  0  1  0  0  0  0  0999 V2000
   26.1436  -15.1503  -18.7306 N   0  0  0  0  0  0  0  0  0  0  0  0
   25.1014  -14.9504  -19.6717 C   0  0  0  0  0  0  0  0  0  0  0  0
   25.0186  -15.7831  -20.6366 O   0  0  0  0  0  0  0  0  0  0  0  0
   24.1177  -13.8663  -19.6184 C   0  0  0  0  0  0  0  0  0  0  0  0
   24.4831  -12.8658  -18.5041 C   0  0  2  0  0  0  0  0  0  0  0  0
   24.4908  -13.6227  -17.2774 N   0  0  0  0  0  0  0  0  0  0  0  0
   23.3802  -11.8679  -18.5316 C   0  0  0  0  0  0  0  0  0  0  0  0
   23.2656  -11.1587  -19.5597 O   0  0  0  0  0  0  0  0  0  0  0  0
   19.7578  -12.5641  -17.7197 C   0  0  0  0  0  0  0  0  0  0  0  0
   20.1557  -11.3505  -16.8871 C   0  0  1  0  0  0  0  0  0  0  0  0
   20.4650  -11.7217  -15.5883 O   0  0  0  0  0  0  0  0  0  0  0  0
   21.3669  -10.7048  -17.5776 C   0  0  2  0  0  0  0  0  0  0  0  0
   22.4539  -11.6601  -17.4899 N   0  0  0  0  0  0  0  0  0  0  0  0
   21.6696   -9.4411  -16.8732 C   0  0  0  0  0  0  0  0  0  0  0  0
   22.6654   -9.3072  -16.1122 O   0  0  0  0  0  0  0  0  0  0  0  0
   20.7940   -8.3464  -17.0728 N   0  0  0  0  0  0  0  0  0  0  0  0
   20.9454   -7.0634  -16.3676 C   0  0  1  0  0  0  0  0  0  0  0  0
   20.1168   -6.0868  -17.1650 C   0  0  0  0  0  0  0  0  0  0  0  0
   20.0582   -4.7059  -16.6120 C   0  0  0  0  0  0  0  0  0  0  0  0
   19.2034   -3.7831  -17.4634 C   0  0  0  0  0  0  0  0  0  0  0  0
   19.2334   -2.3673  -16.9304 C   0  0  0  0  0  0  0  0  0  0  0  0
   18.3155   -1.5038  -17.6275 N   0  0  0  0  0  0  0  0  0  0  0  0
   20.3598   -7.2369  -15.0263 C   0  0  0  0  0  0  0  0  0  0  0  0
   19.4421   -8.0710  -14.8542 O   0  0  0  0  0  0  0  0  0  0  0  0
   20.7919   -6.5065  -13.9389 O   0  0  0  0  0  0  0  0  0  0  0  0
  1  2  1  0
  2  3  2  0
  2  4  1  0
  4  5  1  0
  5  6  1  1
  7 13  1  0
  7  5  1  0
  8  7  2  0
 10  9  1  6
 10 12  1  0
 11 10  1  0
 12 13  1  1
 12 14  1  0
 14 15  2  0
 16 14  1  0
 16 17  1  0
 17 23  1  0
 17 18  1  6
 18 19  1  0
 19 20  1  0
 21 22  1  0
 21 20  1  0
 23 25  1  0
 24 23  2  0
M  END
$$$$
