NTK.pdb
     RDKit          3D

 25 24  0  0  1  0  0  0  0  0999 V2000
   12.5416  -13.6495  -10.9336 N   0  0  0  0  0  0  0  0  0  0  0  0
   12.9545  -12.3579  -11.3496 C   0  0  0  0  0  0  0  0  0  0  0  0
   12.5076  -11.9344  -12.4686 O   0  0  0  0  0  0  0  0  0  0  0  0
   13.8498  -11.4782  -10.5943 C   0  0  0  0  0  0  0  0  0  0  0  0
   14.9690  -10.9408  -11.5079 C   0  0  2  0  0  0  0  0  0  0  0  0
   15.8836  -12.0377  -11.7031 N   0  0  0  0  0  0  0  0  0  0  0  0
   15.5862   -9.8389  -10.7219 C   0  0  0  0  0  0  0  0  0  0  0  0
   16.0433  -10.1207   -9.5886 O   0  0  0  0  0  0  0  0  0  0  0  0
   18.4792   -7.8218  -11.3130 C   0  0  0  0  0  0  0  0  0  0  0  0
   17.3704   -6.7878  -11.1521 C   0  0  1  0  0  0  0  0  0  0  0  0
   16.8992   -6.3716  -12.3870 O   0  0  0  0  0  0  0  0  0  0  0  0
   16.2519   -7.4473  -10.3306 C   0  0  2  0  0  0  0  0  0  0  0  0
   15.6967   -8.5024  -11.1554 N   0  0  0  0  0  0  0  0  0  0  0  0
   15.2558   -6.4055  -10.0031 C   0  0  0  0  0  0  0  0  0  0  0  0
   14.0258   -6.5398  -10.2431 O   0  0  0  0  0  0  0  0  0  0  0  0
   15.7203   -5.2138   -9.3955 N   0  0  0  0  0  0  0  0  0  0  0  0
   14.8269   -4.1028   -9.0297 C   0  0  1  0  0  0  0  0  0  0  0  0
   13.9866   -4.6423   -7.8987 C   0  0  0  0  0  0  0  0  0  0  0  0
   13.0172   -3.6764   -7.3130 C   0  0  0  0  0  0  0  0  0  0  0  0
   12.1992   -4.2936   -6.1917 C   0  0  0  0  0  0  0  0  0  0  0  0
   11.1858   -3.3086   -5.6512 C   0  0  0  0  0  0  0  0  0  0  0  0
   10.3901   -3.8729   -4.5916 N   0  0  0  0  0  0  0  0  0  0  0  0
   15.6810   -3.0065   -8.5388 C   0  0  0  0  0  0  0  0  0  0  0  0
   16.7803   -3.2709   -8.0013 O   0  0  0  0  0  0  0  0  0  0  0  0
   15.3102   -1.6829   -8.6526 O   0  0  0  0  0  0  0  0  0  0  0  0
  1  2  1  0
  2  3  2  0
  2  4  1  0
  4  5  1  0
  5  6  1  1
  7 13  1  0
  7  5  1  0
  8  7  2  0
 10  9  1  6
 10 12  1  0
 11 10  1  0
 12 13  1  6
 12 14  1  0
 14 15  2  0
 16 14  1  0
 16 17  1  0
 17 23  1  0
 17 18  1  1
 18 19  1  0
 19 20  1  0
 21 22  1  0
 21 20  1  0
 23 25  1  0
 24 23  2  0
M  END
$$$$
