NTK.pdb
     RDKit          3D

 25 24  0  0  1  0  0  0  0  0999 V2000
   15.7617  -13.2573  -17.1177 N   0  0  0  0  0  0  0  0  0  0  0  0
   16.5660  -12.2036  -17.6224 C   0  0  0  0  0  0  0  0  0  0  0  0
   16.7615  -12.1714  -18.8841 O   0  0  0  0  0  0  0  0  0  0  0  0
   17.1845  -11.1547  -16.8080 C   0  0  0  0  0  0  0  0  0  0  0  0
   18.6815  -11.4544  -16.5955 C   0  0  2  0  0  0  0  0  0  0  0  0
   18.7382  -12.5598  -15.6722 N   0  0  0  0  0  0  0  0  0  0  0  0
   19.2240  -10.2052  -15.9971 C   0  0  0  0  0  0  0  0  0  0  0  0
   18.6724   -9.7739  -14.9565 O   0  0  0  0  0  0  0  0  0  0  0  0
   22.4644   -9.5981  -14.5649 C   0  0  0  0  0  0  0  0  0  0  0  0
   22.3387   -8.5305  -15.6461 C   0  0  1  0  0  0  0  0  0  0  0  0
   22.9513   -8.9405  -16.8196 O   0  0  0  0  0  0  0  0  0  0  0  0
   20.8382   -8.2834  -15.8664 C   0  0  2  0  0  0  0  0  0  0  0  0
   20.3114   -9.4705  -16.5108 N   0  0  0  0  0  0  0  0  0  0  0  0
   20.6965   -7.0762  -16.7073 C   0  0  0  0  0  0  0  0  0  0  0  0
   20.3443   -7.1260  -17.9165 O   0  0  0  0  0  0  0  0  0  0  0  0
   20.9722   -5.8205  -16.1139 N   0  0  0  0  0  0  0  0  0  0  0  0
   20.8736   -4.5499  -16.8503 C   0  0  1  0  0  0  0  0  0  0  0  0
   19.4418   -4.4898  -17.3221 C   0  0  0  0  0  0  0  0  0  0  0  0
   19.0441   -3.2144  -17.9788 C   0  0  0  0  0  0  0  0  0  0  0  0
   17.6094   -3.2488  -18.4764 C   0  0  0  0  0  0  0  0  0  0  0  0
   17.2370   -1.9484  -19.1545 C   0  0  0  0  0  0  0  0  0  0  0  0
   15.8416   -1.8989  -19.5073 N   0  0  0  0  0  0  0  0  0  0  0  0
   21.1261   -3.4690  -15.8808 C   0  0  0  0  0  0  0  0  0  0  0  0
   20.7739   -3.6121  -14.6879 O   0  0  0  0  0  0  0  0  0  0  0  0
   21.7455   -2.2910  -16.2429 O   0  0  0  0  0  0  0  0  0  0  0  0
  1  2  1  0
  2  3  2  0
  2  4  1  0
  4  5  1  0
  5  6  1  1
  7 13  1  0
  7  5  1  0
  8  7  2  0
 10  9  1  1
 10 12  1  0
 11 10  1  0
 12 13  1  6
 12 14  1  0
 14 15  2  0
 16 14  1  0
 16 17  1  0
 17 23  1  0
 17 18  1  1
 18 19  1  0
 19 20  1  0
 21 22  1  0
 21 20  1  0
 23 25  1  0
 24 23  2  0
M  END
$$$$
