NTK.pdb
     RDKit          3D

 25 24  0  0  1  0  0  0  0  0999 V2000
   26.6264  -22.5132  -10.6049 N   0  0  0  0  0  0  0  0  0  0  0  0
   26.1737  -21.1729  -10.5017 C   0  0  0  0  0  0  0  0  0  0  0  0
   26.1153  -20.6651   -9.3312 O   0  0  0  0  0  0  0  0  0  0  0  0
   25.7716  -20.3325  -11.6321 C   0  0  0  0  0  0  0  0  0  0  0  0
   25.8471  -21.1322  -12.9476 C   0  0  2  0  0  0  0  0  0  0  0  0
   27.2496  -21.2613  -13.2542 N   0  0  0  0  0  0  0  0  0  0  0  0
   25.1407  -20.2759  -13.9380 C   0  0  0  0  0  0  0  0  0  0  0  0
   25.8435  -19.5648  -14.6952 O   0  0  0  0  0  0  0  0  0  0  0  0
   25.0316  -20.2873  -16.5200 C   0  0  0  0  0  0  0  0  0  0  0  0
   23.5078  -20.2728  -16.4737 C   0  0  1  0  0  0  0  0  0  0  0  0
   23.0007  -21.5625  -16.4734 O   0  0  0  0  0  0  0  0  0  0  0  0
   23.1005  -19.5215  -15.1968 C   0  0  2  0  0  0  0  0  0  0  0  0
   23.7414  -20.2044  -14.0901 N   0  0  0  0  0  0  0  0  0  0  0  0
   21.6259  -19.5559  -15.1017 C   0  0  0  0  0  0  0  0  0  0  0  0
   21.0020  -20.4893  -14.5289 O   0  0  0  0  0  0  0  0  0  0  0  0
   20.9004  -18.4884  -15.6840 N   0  0  0  0  0  0  0  0  0  0  0  0
   19.4344  -18.3827  -15.6064 C   0  0  1  0  0  0  0  0  0  0  0  0
   19.0939  -17.1603  -16.4225 C   0  0  0  0  0  0  0  0  0  0  0  0
   17.6388  -16.8881  -16.5791 C   0  0  0  0  0  0  0  0  0  0  0  0
   17.3736  -15.6646  -17.4393 C   0  0  0  0  0  0  0  0  0  0  0  0
   15.8993  -15.3251  -17.4634 C   0  0  0  0  0  0  0  0  0  0  0  0
   15.6095  -14.2210  -18.3416 N   0  0  0  0  0  0  0  0  0  0  0  0
   18.8806  -19.5856  -16.2531 C   0  0  0  0  0  0  0  0  0  0  0  0
   19.4387  -20.0541  -17.2712 O   0  0  0  0  0  0  0  0  0  0  0  0
   17.7567  -20.2238  -15.7714 O   0  0  0  0  0  0  0  0  0  0  0  0
  1  2  1  0
  2  3  2  0
  2  4  1  0
  4  5  1  0
  5  6  1  6
  7 13  1  0
  7  5  1  0
  8  7  2  0
 10  9  1  1
 10 12  1  0
 11 10  1  0
 12 13  1  1
 12 14  1  0
 14 15  2  0
 16 14  1  0
 16 17  1  0
 17 23  1  0
 17 18  1  6
 18 19  1  0
 19 20  1  0
 21 22  1  0
 21 20  1  0
 23 25  1  0
 24 23  2  0
M  END
$$$$
