NTK.pdb
     RDKit          3D

 25 24  0  0  1  0  0  0  0  0999 V2000
   31.8389  -23.5178  -18.8170 N   0  0  0  0  0  0  0  0  0  0  0  0
   30.9940  -22.4491  -19.2119 C   0  0  0  0  0  0  0  0  0  0  0  0
   30.9261  -22.1895  -20.4606 O   0  0  0  0  0  0  0  0  0  0  0  0
   30.1971  -21.6265  -18.2987 C   0  0  0  0  0  0  0  0  0  0  0  0
   28.9587  -22.4075  -17.8166 C   0  0  2  0  0  0  0  0  0  0  0  0
   28.1531  -22.6381  -18.9894 N   0  0  0  0  0  0  0  0  0  0  0  0
   28.2920  -21.4833  -16.8603 C   0  0  0  0  0  0  0  0  0  0  0  0
   29.0232  -20.8429  -16.0677 O   0  0  0  0  0  0  0  0  0  0  0  0
   26.7071  -18.4178  -17.1114 C   0  0  0  0  0  0  0  0  0  0  0  0
   25.6028  -19.2771  -16.5059 C   0  0  1  0  0  0  0  0  0  0  0  0
   24.7492  -19.7507  -17.4895 O   0  0  0  0  0  0  0  0  0  0  0  0
   26.2862  -20.4372  -15.7656 C   0  0  2  0  0  0  0  0  0  0  0  0
   26.9009  -21.2725  -16.7787 N   0  0  0  0  0  0  0  0  0  0  0  0
   25.2495  -21.1566  -14.9957 C   0  0  0  0  0  0  0  0  0  0  0  0
   24.6025  -22.1294  -15.4685 O   0  0  0  0  0  0  0  0  0  0  0  0
   24.9854  -20.7211  -13.6745 N   0  0  0  0  0  0  0  0  0  0  0  0
   23.9855  -21.3637  -12.8064 C   0  0  1  0  0  0  0  0  0  0  0  0
   24.3171  -20.8807  -11.4161 C   0  0  0  0  0  0  0  0  0  0  0  0
   23.3974  -21.3530  -10.3451 C   0  0  0  0  0  0  0  0  0  0  0  0
   23.8130  -20.8551   -8.9716 C   0  0  0  0  0  0  0  0  0  0  0  0
   22.9430  -21.4549   -7.8887 C   0  0  0  0  0  0  0  0  0  0  0  0
   23.3845  -21.0848   -6.5687 N   0  0  0  0  0  0  0  0  0  0  0  0
   22.6662  -20.8479  -13.2133 C   0  0  0  0  0  0  0  0  0  0  0  0
   22.5670  -19.6811  -13.6563 O   0  0  0  0  0  0  0  0  0  0  0  0
   21.5221  -21.6132  -13.1246 O   0  0  0  0  0  0  0  0  0  0  0  0
  1  2  1  0
  2  3  2  0
  2  4  1  0
  4  5  1  0
  5  6  1  6
  7 13  1  0
  7  5  1  0
  8  7  2  0
 10  9  1  6
 10 12  1  0
 11 10  1  0
 12 13  1  6
 12 14  1  0
 14 15  2  0
 16 14  1  0
 16 17  1  0
 17 23  1  0
 17 18  1  1
 18 19  1  0
 19 20  1  0
 21 22  1  0
 21 20  1  0
 23 25  1  0
 24 23  2  0
M  END
$$$$
