NTK.pdb
     RDKit          3D

 25 24  0  0  1  0  0  0  0  0999 V2000
   18.9238   -9.5043  -18.2099 N   0  0  0  0  0  0  0  0  0  0  0  0
   18.0481  -10.1207  -17.2798 C   0  0  0  0  0  0  0  0  0  0  0  0
   16.9954  -10.6730  -17.7468 O   0  0  0  0  0  0  0  0  0  0  0  0
   18.2612  -10.1712  -15.8314 C   0  0  0  0  0  0  0  0  0  0  0  0
   19.5336   -9.3895  -15.4495 C   0  0  2  0  0  0  0  0  0  0  0  0
   20.6363  -10.2892  -15.6785 N   0  0  0  0  0  0  0  0  0  0  0  0
   19.3576   -9.0867  -14.0037 C   0  0  0  0  0  0  0  0  0  0  0  0
   19.3565  -10.0536  -13.2049 O   0  0  0  0  0  0  0  0  0  0  0  0
   21.5253   -7.4427  -11.8017 C   0  0  0  0  0  0  0  0  0  0  0  0
   20.2472   -6.6238  -11.6592 C   0  0  1  0  0  0  0  0  0  0  0  0
   20.2847   -5.5029  -12.4733 O   0  0  0  0  0  0  0  0  0  0  0  0
   19.0760   -7.5420  -12.0414 C   0  0  2  0  0  0  0  0  0  0  0  0
   19.1931   -7.7952  -13.4641 N   0  0  0  0  0  0  0  0  0  0  0  0
   17.8206   -6.8429  -11.6953 C   0  0  0  0  0  0  0  0  0  0  0  0
   17.1709   -6.1567  -12.5294 O   0  0  0  0  0  0  0  0  0  0  0  0
   17.3430   -6.9594  -10.3674 N   0  0  0  0  0  0  0  0  0  0  0  0
   16.1000   -6.3201   -9.9064 C   0  0  1  0  0  0  0  0  0  0  0  0
   15.2795   -7.4472   -9.3298 C   0  0  0  0  0  0  0  0  0  0  0  0
   13.9413   -7.0548   -8.8090 C   0  0  0  0  0  0  0  0  0  0  0  0
   13.1675   -8.2425   -8.2634 C   0  0  0  0  0  0  0  0  0  0  0  0
   11.7935   -7.8248   -7.7870 C   0  0  0  0  0  0  0  0  0  0  0  0
   11.0471   -8.9298   -7.2428 N   0  0  0  0  0  0  0  0  0  0  0  0
   16.4716   -5.3752   -8.8382 C   0  0  0  0  0  0  0  0  0  0  0  0
   17.5060   -5.5793   -8.1629 O   0  0  0  0  0  0  0  0  0  0  0  0
   15.7136   -4.2590   -8.5520 O   0  0  0  0  0  0  0  0  0  0  0  0
  1  2  1  0
  2  3  2  0
  2  4  1  0
  4  5  1  0
  5  6  1  1
  7 13  1  0
  7  5  1  0
  8  7  2  0
 10  9  1  6
 10 12  1  0
 11 10  1  0
 12 13  1  6
 12 14  1  0
 14 15  2  0
 16 14  1  0
 16 17  1  0
 17 23  1  0
 17 18  1  1
 18 19  1  0
 19 20  1  0
 21 22  1  0
 21 20  1  0
 23 25  1  0
 24 23  2  0
M  END
$$$$
