NTK.pdb
     RDKit          3D

 25 24  0  0  1  0  0  0  0  0999 V2000
   18.9835  -15.2298  -18.5317 N   0  0  0  0  0  0  0  0  0  0  0  0
   18.0182  -14.3564  -17.9685 C   0  0  0  0  0  0  0  0  0  0  0  0
   16.7998  -14.5375  -18.3059 O   0  0  0  0  0  0  0  0  0  0  0  0
   18.3136  -13.2687  -17.0328 C   0  0  0  0  0  0  0  0  0  0  0  0
   19.8139  -13.2592  -16.6790 C   0  0  2  0  0  0  0  0  0  0  0  0
   20.0154  -14.3619  -15.7728 N   0  0  0  0  0  0  0  0  0  0  0  0
   20.0241  -11.9474  -16.0096 C   0  0  0  0  0  0  0  0  0  0  0  0
   19.2801  -11.6654  -15.0401 O   0  0  0  0  0  0  0  0  0  0  0  0
   22.9055  -10.6053  -14.2215 C   0  0  0  0  0  0  0  0  0  0  0  0
   22.6396   -9.6013  -15.3376 C   0  0  1  0  0  0  0  0  0  0  0  0
   23.4492   -9.8542  -16.4335 O   0  0  0  0  0  0  0  0  0  0  0  0
   21.1543   -9.7225  -15.7116 C   0  0  2  0  0  0  0  0  0  0  0  0
   20.9970  -10.9982  -16.3823 N   0  0  0  0  0  0  0  0  0  0  0  0
   20.8125   -8.5807  -16.5858 C   0  0  0  0  0  0  0  0  0  0  0  0
   20.8239   -8.6589  -17.8438 O   0  0  0  0  0  0  0  0  0  0  0  0
   20.4607   -7.3564  -15.9677 N   0  0  0  0  0  0  0  0  0  0  0  0
   20.0707   -6.1595  -16.7303 C   0  0  1  0  0  0  0  0  0  0  0  0
   18.6215   -5.9340  -16.3763 C   0  0  0  0  0  0  0  0  0  0  0  0
   18.0018   -4.7242  -16.9832 C   0  0  0  0  0  0  0  0  0  0  0  0
   16.5300   -4.5957  -16.6307 C   0  0  0  0  0  0  0  0  0  0  0  0
   15.8733   -3.4907  -17.4289 C   0  0  0  0  0  0  0  0  0  0  0  0
   14.5014   -3.2823  -17.0433 N   0  0  0  0  0  0  0  0  0  0  0  0
   20.8881   -5.0417  -16.2260 C   0  0  0  0  0  0  0  0  0  0  0  0
   21.4037   -5.1156  -15.0875 O   0  0  0  0  0  0  0  0  0  0  0  0
   21.1106   -3.9030  -16.9719 O   0  0  0  0  0  0  0  0  0  0  0  0
  1  2  1  0
  2  3  2  0
  2  4  1  0
  4  5  1  0
  5  6  1  1
  7 13  1  0
  7  5  1  0
  8  7  2  0
 10  9  1  1
 10 12  1  0
 11 10  1  0
 12 13  1  6
 12 14  1  0
 14 15  2  0
 16 14  1  0
 16 17  1  0
 17 23  1  0
 17 18  1  1
 18 19  1  0
 19 20  1  0
 21 22  1  0
 21 20  1  0
 23 25  1  0
 24 23  2  0
M  END
$$$$
