NTK.pdb
     RDKit          3D

 25 24  0  0  1  0  0  0  0  0999 V2000
   26.3162  -20.4969   -8.6849 N   0  0  0  0  0  0  0  0  0  0  0  0
   25.6950  -21.0846   -9.8165 C   0  0  0  0  0  0  0  0  0  0  0  0
   25.6401  -22.3601   -9.8555 O   0  0  0  0  0  0  0  0  0  0  0  0
   25.1139  -20.3410  -10.9368 C   0  0  0  0  0  0  0  0  0  0  0  0
   25.6317  -20.9001  -12.2768 C   0  0  2  0  0  0  0  0  0  0  0  0
   27.0620  -20.7230  -12.2551 N   0  0  0  0  0  0  0  0  0  0  0  0
   24.9836  -20.0437  -13.3061 C   0  0  0  0  0  0  0  0  0  0  0  0
   25.4112  -18.8721  -13.4382 O   0  0  0  0  0  0  0  0  0  0  0  0
   25.3456  -19.7475  -16.5367 C   0  0  0  0  0  0  0  0  0  0  0  0
   23.8506  -20.0447  -16.5047 C   0  0  1  0  0  0  0  0  0  0  0  0
   23.6108  -21.3961  -16.6953 O   0  0  0  0  0  0  0  0  0  0  0  0
   23.3257  -19.5806  -15.1372 C   0  0  2  0  0  0  0  0  0  0  0  0
   23.9260  -20.4500  -14.1444 N   0  0  0  0  0  0  0  0  0  0  0  0
   21.8514  -19.6843  -15.1588 C   0  0  0  0  0  0  0  0  0  0  0  0
   21.2313  -20.6738  -14.6846 O   0  0  0  0  0  0  0  0  0  0  0  0
   21.1218  -18.6192  -15.7404 N   0  0  0  0  0  0  0  0  0  0  0  0
   19.6618  -18.6568  -15.9228 C   0  0  1  0  0  0  0  0  0  0  0  0
   19.3293  -17.3638  -16.6254 C   0  0  0  0  0  0  0  0  0  0  0  0
   17.8892  -17.1709  -16.9494 C   0  0  0  0  0  0  0  0  0  0  0  0
   17.6360  -15.8635  -17.6801 C   0  0  0  0  0  0  0  0  0  0  0  0
   16.1750  -15.7185  -18.0462 C   0  0  0  0  0  0  0  0  0  0  0  0
   15.9033  -14.4737  -18.7177 N   0  0  0  0  0  0  0  0  0  0  0  0
   19.3672  -19.7971  -16.8087 C   0  0  0  0  0  0  0  0  0  0  0  0
   20.0405  -19.9615  -17.8514 O   0  0  0  0  0  0  0  0  0  0  0  0
   18.3656  -20.7027  -16.5275 O   0  0  0  0  0  0  0  0  0  0  0  0
  1  2  1  0
  2  3  2  0
  2  4  1  0
  4  5  1  0
  5  6  1  1
  7 13  1  0
  7  5  1  0
  8  7  2  0
 10  9  1  1
 10 12  1  0
 11 10  1  0
 12 13  1  1
 12 14  1  0
 14 15  2  0
 16 14  1  0
 16 17  1  0
 17 23  1  0
 17 18  1  6
 18 19  1  0
 19 20  1  0
 21 22  1  0
 21 20  1  0
 23 25  1  0
 24 23  2  0
M  END
$$$$
