NTK.pdb
     RDKit          3D

 25 24  0  0  1  0  0  0  0  0999 V2000
   17.4452  -13.1631  -19.1181 N   0  0  0  0  0  0  0  0  0  0  0  0
   17.0946  -11.8987  -18.5792 C   0  0  0  0  0  0  0  0  0  0  0  0
   16.1490  -11.2610  -19.1543 O   0  0  0  0  0  0  0  0  0  0  0  0
   17.7324  -11.2742  -17.4178 C   0  0  0  0  0  0  0  0  0  0  0  0
   18.8933  -12.1511  -16.9083 C   0  0  2  0  0  0  0  0  0  0  0  0
   18.2884  -13.1821  -16.1027 N   0  0  0  0  0  0  0  0  0  0  0  0
   19.7211  -11.2241  -16.0906 C   0  0  0  0  0  0  0  0  0  0  0  0
   19.3252  -10.9649  -14.9291 O   0  0  0  0  0  0  0  0  0  0  0  0
   24.0539   -9.3334  -14.9848 C   0  0  0  0  0  0  0  0  0  0  0  0
   23.1704  -10.2920  -15.7753 C   0  0  1  0  0  0  0  0  0  0  0  0
   23.2714  -11.5816  -15.2784 O   0  0  0  0  0  0  0  0  0  0  0  0
   21.7284   -9.7725  -15.6672 C   0  0  2  0  0  0  0  0  0  0  0  0
   20.9170  -10.6163  -16.5224 N   0  0  0  0  0  0  0  0  0  0  0  0
   21.7222   -8.3594  -16.1009 C   0  0  0  0  0  0  0  0  0  0  0  0
   22.0238   -8.0052  -17.2723 O   0  0  0  0  0  0  0  0  0  0  0  0
   21.3604   -7.3766  -15.1479 N   0  0  0  0  0  0  0  0  0  0  0  0
   21.4872   -5.9324  -15.4022 C   0  0  1  0  0  0  0  0  0  0  0  0
   20.0708   -5.4132  -15.3819 C   0  0  0  0  0  0  0  0  0  0  0  0
   19.9352   -3.9366  -15.5131 C   0  0  0  0  0  0  0  0  0  0  0  0
   18.4829   -3.4991  -15.5938 C   0  0  0  0  0  0  0  0  0  0  0  0
   18.3749   -2.0012  -15.7783 C   0  0  0  0  0  0  0  0  0  0  0  0
   17.0076   -1.5646  -15.8964 N   0  0  0  0  0  0  0  0  0  0  0  0
   22.2450   -5.3611  -14.2747 C   0  0  0  0  0  0  0  0  0  0  0  0
   22.9237   -4.3231  -14.4471 O   0  0  0  0  0  0  0  0  0  0  0  0
   22.2330   -5.9335  -13.0198 O   0  0  0  0  0  0  0  0  0  0  0  0
  1  2  1  0
  2  3  2  0
  2  4  1  0
  4  5  1  0
  5  6  1  1
  7 13  1  0
  7  5  1  0
  8  7  2  0
 10  9  1  1
 10 12  1  0
 11 10  1  0
 12 13  1  6
 12 14  1  0
 14 15  2  0
 16 14  1  0
 16 17  1  0
 17 23  1  0
 17 18  1  1
 18 19  1  0
 19 20  1  0
 21 22  1  0
 21 20  1  0
 23 25  1  0
 24 23  2  0
M  END
$$$$
