NTK.pdb
     RDKit          3D

 25 24  0  0  1  0  0  0  0  0999 V2000
   26.6765  -16.4960  -18.4782 N   0  0  0  0  0  0  0  0  0  0  0  0
   26.8239  -16.0811  -17.1299 C   0  0  0  0  0  0  0  0  0  0  0  0
   27.0571  -16.9886  -16.2620 O   0  0  0  0  0  0  0  0  0  0  0  0
   26.7301  -14.6961  -16.6620 C   0  0  0  0  0  0  0  0  0  0  0  0
   26.3942  -13.7556  -17.8362 C   0  0  2  0  0  0  0  0  0  0  0  0
   27.4795  -13.8893  -18.7753 N   0  0  0  0  0  0  0  0  0  0  0  0
   26.3576  -12.4012  -17.2219 C   0  0  0  0  0  0  0  0  0  0  0  0
   25.4379  -12.1604  -16.4038 O   0  0  0  0  0  0  0  0  0  0  0  0
   29.3946  -10.4599  -16.0102 C   0  0  0  0  0  0  0  0  0  0  0  0
   28.5762   -9.4663  -16.8272 C   0  0  1  0  0  0  0  0  0  0  0  0
   29.1340   -9.2796  -18.0819 O   0  0  0  0  0  0  0  0  0  0  0  0
   27.1528  -10.0343  -16.9372 C   0  0  2  0  0  0  0  0  0  0  0  0
   27.2790  -11.3689  -17.4892 N   0  0  0  0  0  0  0  0  0  0  0  0
   26.3723   -9.1343  -17.8123 C   0  0  0  0  0  0  0  0  0  0  0  0
   26.1744   -9.3751  -19.0336 O   0  0  0  0  0  0  0  0  0  0  0  0
   25.8326   -7.9578  -17.2384 N   0  0  0  0  0  0  0  0  0  0  0  0
   25.0786   -6.9622  -18.0173 C   0  0  1  0  0  0  0  0  0  0  0  0
   23.8607   -6.6613  -17.1793 C   0  0  0  0  0  0  0  0  0  0  0  0
   22.9488   -5.6247  -17.7361 C   0  0  0  0  0  0  0  0  0  0  0  0
   21.8003   -5.3060  -16.7945 C   0  0  0  0  0  0  0  0  0  0  0  0
   20.8007   -4.3781  -17.4496 C   0  0  0  0  0  0  0  0  0  0  0  0
   19.7261   -4.0203  -16.5600 N   0  0  0  0  0  0  0  0  0  0  0  0
   25.9262   -5.7606  -18.1166 C   0  0  0  0  0  0  0  0  0  0  0  0
   25.6287   -4.8584  -18.9320 O   0  0  0  0  0  0  0  0  0  0  0  0
   27.0486   -5.5900  -17.3333 O   0  0  0  0  0  0  0  0  0  0  0  0
  1  2  1  0
  2  3  2  0
  2  4  1  0
  4  5  1  0
  5  6  1  6
  7 13  1  0
  7  5  1  0
  8  7  2  0
 10  9  1  1
 10 12  1  0
 11 10  1  0
 12 13  1  6
 12 14  1  0
 14 15  2  0
 16 14  1  0
 16 17  1  0
 17 23  1  0
 17 18  1  1
 18 19  1  0
 19 20  1  0
 21 22  1  0
 21 20  1  0
 23 25  1  0
 24 23  2  0
M  END
$$$$
