NTK.pdb
     RDKit          3D

 25 24  0  0  1  0  0  0  0  0999 V2000
   18.1190  -10.4675  -17.9924 N   0  0  0  0  0  0  0  0  0  0  0  0
   17.3073  -11.3654  -17.2531 C   0  0  0  0  0  0  0  0  0  0  0  0
   17.2070  -12.5599  -17.6941 O   0  0  0  0  0  0  0  0  0  0  0  0
   16.5804  -11.0263  -16.0273 C   0  0  0  0  0  0  0  0  0  0  0  0
   16.8064   -9.5457  -15.6629 C   0  0  2  0  0  0  0  0  0  0  0  0
   18.2350   -9.3665  -15.5962 N   0  0  0  0  0  0  0  0  0  0  0  0
   16.1670   -9.3952  -14.3281 C   0  0  0  0  0  0  0  0  0  0  0  0
   14.9299   -9.5878  -14.2529 O   0  0  0  0  0  0  0  0  0  0  0  0
   16.5937  -11.1628  -11.1635 C   0  0  0  0  0  0  0  0  0  0  0  0
   16.9035   -9.7061  -10.8370 C   0  0  1  0  0  0  0  0  0  0  0  0
   18.2688   -9.4712  -10.8708 O   0  0  0  0  0  0  0  0  0  0  0  0
   16.1712   -8.8433  -11.8763 C   0  0  2  0  0  0  0  0  0  0  0  0
   16.8467   -9.0536  -13.1418 N   0  0  0  0  0  0  0  0  0  0  0  0
   16.2409   -7.4367  -11.4276 C   0  0  0  0  0  0  0  0  0  0  0  0
   16.9540   -6.5723  -12.0047 O   0  0  0  0  0  0  0  0  0  0  0  0
   15.4688   -7.0626  -10.3012 N   0  0  0  0  0  0  0  0  0  0  0  0
   15.4996   -5.7084   -9.7256 C   0  0  1  0  0  0  0  0  0  0  0  0
   14.0980   -5.4747   -9.2185 C   0  0  0  0  0  0  0  0  0  0  0  0
   13.8850   -4.1779   -8.5193 C   0  0  0  0  0  0  0  0  0  0  0  0
   12.4325   -3.9698   -8.1268 C   0  0  0  0  0  0  0  0  0  0  0  0
   12.2384   -2.6322   -7.4468 C   0  0  0  0  0  0  0  0  0  0  0  0
   12.7414   -2.6299   -6.0972 N   0  0  0  0  0  0  0  0  0  0  0  0
   16.4416   -5.7428   -8.5926 C   0  0  0  0  0  0  0  0  0  0  0  0
   16.7942   -6.8444   -8.1135 O   0  0  0  0  0  0  0  0  0  0  0  0
   16.9573   -4.5918   -8.0344 O   0  0  0  0  0  0  0  0  0  0  0  0
  1  2  1  0
  2  3  2  0
  2  4  1  0
  4  5  1  0
  5  6  1  1
  7 13  1  0
  7  5  1  0
  8  7  2  0
 10  9  1  6
 10 12  1  0
 11 10  1  0
 12 13  1  6
 12 14  1  0
 14 15  2  0
 16 14  1  0
 16 17  1  0
 17 23  1  0
 17 18  1  1
 18 19  1  0
 19 20  1  0
 21 22  1  0
 21 20  1  0
 23 25  1  0
 24 23  2  0
M  END
$$$$
