NTK.pdb
     RDKit          3D

 25 24  0  0  1  0  0  0  0  0999 V2000
   28.6171  -17.5054  -19.3070 N   0  0  0  0  0  0  0  0  0  0  0  0
   27.2861  -17.8585  -19.6470 C   0  0  0  0  0  0  0  0  0  0  0  0
   26.6644  -17.0854  -20.4514 O   0  0  0  0  0  0  0  0  0  0  0  0
   26.5762  -19.0385  -19.1475 C   0  0  0  0  0  0  0  0  0  0  0  0
   27.3965  -19.7280  -18.0395 C   0  0  2  0  0  0  0  0  0  0  0  0
   28.4266  -20.4763  -18.7151 N   0  0  0  0  0  0  0  0  0  0  0  0
   26.4186  -20.6206  -17.3613 C   0  0  0  0  0  0  0  0  0  0  0  0
   26.2037  -21.7433  -17.8774 O   0  0  0  0  0  0  0  0  0  0  0  0
   26.7359  -22.0635  -14.1860 C   0  0  0  0  0  0  0  0  0  0  0  0
   25.3694  -21.3959  -14.0798 C   0  0  1  0  0  0  0  0  0  0  0  0
   25.4667  -20.1687  -13.4434 O   0  0  0  0  0  0  0  0  0  0  0  0
   24.8327  -21.2325  -15.5102 C   0  0  2  0  0  0  0  0  0  0  0  0
   25.7164  -20.3001  -16.1821 N   0  0  0  0  0  0  0  0  0  0  0  0
   23.4462  -20.7284  -15.4191 C   0  0  0  0  0  0  0  0  0  0  0  0
   23.1576  -19.5062  -15.5257 O   0  0  0  0  0  0  0  0  0  0  0  0
   22.4124  -21.6715  -15.2025 N   0  0  0  0  0  0  0  0  0  0  0  0
   21.0020  -21.2860  -15.0333 C   0  0  1  0  0  0  0  0  0  0  0  0
   20.2593  -22.5931  -14.9067 C   0  0  0  0  0  0  0  0  0  0  0  0
   18.8045  -22.4697  -14.6162 C   0  0  0  0  0  0  0  0  0  0  0  0
   18.1469  -23.8213  -14.3972 C   0  0  0  0  0  0  0  0  0  0  0  0
   16.6965  -23.6626  -13.9966 C   0  0  0  0  0  0  0  0  0  0  0  0
   16.1239  -24.8972  -13.5255 N   0  0  0  0  0  0  0  0  0  0  0  0
   20.9093  -20.5340  -13.7692 C   0  0  0  0  0  0  0  0  0  0  0  0
   20.0820  -19.6004  -13.6630 O   0  0  0  0  0  0  0  0  0  0  0  0
   21.7091  -20.8255  -12.6839 O   0  0  0  0  0  0  0  0  0  0  0  0
  1  2  1  0
  2  3  2  0
  2  4  1  0
  4  5  1  0
  5  6  1  6
  7 13  1  0
  7  5  1  0
  8  7  2  0
 10  9  1  6
 10 12  1  0
 11 10  1  0
 12 13  1  6
 12 14  1  0
 14 15  2  0
 16 14  1  0
 16 17  1  0
 17 23  1  0
 17 18  1  1
 18 19  1  0
 19 20  1  0
 21 22  1  0
 21 20  1  0
 23 25  1  0
 24 23  2  0
M  END
$$$$
