DNR.pdb
     RDKit          3D

 28 27  0  0  1  0  0  0  0  0999 V2000
   12.7676  -17.4554   16.4810 N   0  0  0  0  0  0  0  0  0  0  0  0
   13.4003  -18.5551   17.1740 C   0  0  1  0  0  0  0  0  0  0  0  0
   14.4648  -19.1885   16.2662 C   0  0  0  0  0  0  0  0  0  0  0  0
   14.9583  -18.2360   15.2692 C   0  0  0  0  0  0  0  0  0  0  0  0
   15.0540  -18.5173   14.0481 O   0  0  0  0  0  0  0  0  0  0  0  0
   14.1591  -18.0475   18.3520 C   0  0  0  0  0  0  0  0  0  0  0  0
   14.9299  -18.7871   18.9940 O   0  0  0  0  0  0  0  0  0  0  0  0
   15.3479  -16.9506   15.6607 O   0  0  0  0  0  0  0  0  0  0  0  0
   13.7836  -14.3912   17.8484 N   0  0  0  0  0  0  0  0  0  0  0  0
   14.7842  -13.9710   18.7393 C   0  0  0  0  0  0  0  0  0  0  0  0
   15.2392  -12.8036   18.5941 O   0  0  0  0  0  0  0  0  0  0  0  0
   15.2988  -14.8177   19.7969 C   0  0  0  0  0  0  0  0  0  0  0  0
   14.6810  -16.1653   19.9394 C   0  0  2  0  0  0  0  0  0  0  0  0
   14.0228  -16.6817   18.7831 N   0  0  0  0  0  0  0  0  0  0  0  0
   13.7239  -16.1354   21.0888 C   0  0  0  0  0  0  0  0  0  0  0  0
   12.9052  -15.1837   21.1503 O   0  0  0  0  0  0  0  0  0  0  0  0
   13.3510  -22.2682   20.1482 N   0  0  0  0  0  0  0  0  0  0  0  0
   11.9810  -21.9739   20.4331 C   0  0  0  0  0  0  0  0  0  0  0  0
   11.0790  -22.4880   19.6451 N   0  0  0  0  0  0  0  0  0  0  0  0
   11.6618  -21.1618   21.5274 N   0  0  0  0  0  0  0  0  0  0  0  0
   12.6065  -20.0876   21.9225 C   0  0  0  0  0  0  0  0  0  0  0  0
   11.9555  -19.3700   23.0343 C   0  0  0  0  0  0  0  0  0  0  0  0
   12.6032  -18.2948   23.7594 C   0  0  0  0  0  0  0  0  0  0  0  0
   12.8047  -16.9200   23.2590 C   0  0  2  0  0  0  0  0  0  0  0  0
   13.7079  -17.1183   22.0871 N   0  0  0  0  0  0  0  0  0  0  0  0
   13.5111  -15.9596   24.1114 C   0  0  0  0  0  0  0  0  0  0  0  0
   12.8805  -15.3743   25.2382 O   0  0  0  0  0  0  0  0  0  0  0  0
   14.6764  -15.6110   23.8997 O   0  0  0  0  0  0  0  0  0  0  0  0
  2  1  1  6
  2  3  1  0
  3  4  1  0
  4  8  1  0
  4  5  2  0
  6 14  1  0
  6  2  1  0
  7  6  2  0
  9 10  1  0
 10 11  2  0
 12 10  1  0
 13 12  1  6
 13 14  1  0
 15 16  2  0
 15 13  1  0
 18 17  1  0
 19 18  2  0
 20 18  1  0
 21 20  1  0
 22 21  1  0
 22 23  1  0
 24 23  1  1
 24 26  1  0
 24 25  1  0
 25 15  1  0
 26 27  1  0
 28 26  2  0
M  END
$$$$
