DNR.pdb
     RDKit          3D

 28 27  0  0  1  0  0  0  0  0999 V2000
   13.8206  -16.3883   19.6573 N   0  0  0  0  0  0  0  0  0  0  0  0
   12.9378  -17.4432   20.1022 C   0  0  1  0  0  0  0  0  0  0  0  0
   13.7294  -18.4511   20.9484 C   0  0  0  0  0  0  0  0  0  0  0  0
   14.6915  -19.1985   20.1356 C   0  0  0  0  0  0  0  0  0  0  0  0
   15.8979  -19.3332   20.4612 O   0  0  0  0  0  0  0  0  0  0  0  0
   11.9107  -16.8917   21.0306 C   0  0  0  0  0  0  0  0  0  0  0  0
   12.2129  -16.5084   22.1774 O   0  0  0  0  0  0  0  0  0  0  0  0
   14.2819  -19.7997   18.9406 O   0  0  0  0  0  0  0  0  0  0  0  0
    7.3866  -15.0153   22.9833 N   0  0  0  0  0  0  0  0  0  0  0  0
    7.3067  -15.0576   21.5821 C   0  0  0  0  0  0  0  0  0  0  0  0
    6.3023  -14.5204   21.0405 O   0  0  0  0  0  0  0  0  0  0  0  0
    8.3197  -15.6849   20.7572 C   0  0  0  0  0  0  0  0  0  0  0  0
    9.5259  -16.2088   21.4564 C   0  0  2  0  0  0  0  0  0  0  0  0
   10.5340  -16.7852   20.6267 N   0  0  0  0  0  0  0  0  0  0  0  0
    9.0904  -17.2070   22.4821 C   0  0  0  0  0  0  0  0  0  0  0  0
    8.7593  -18.3532   22.0866 O   0  0  0  0  0  0  0  0  0  0  0  0
   11.9085  -18.9462   30.5739 N   0  0  0  0  0  0  0  0  0  0  0  0
   10.9233  -19.9301   30.2480 C   0  0  0  0  0  0  0  0  0  0  0  0
   10.6871  -20.8598   31.1305 N   0  0  0  0  0  0  0  0  0  0  0  0
   10.2587  -19.8615   29.0183 N   0  0  0  0  0  0  0  0  0  0  0  0
   10.4257  -18.6483   28.1799 C   0  0  0  0  0  0  0  0  0  0  0  0
    9.7017  -18.9250   26.9253 C   0  0  0  0  0  0  0  0  0  0  0  0
    9.5739  -17.9479   25.8622 C   0  0  0  0  0  0  0  0  0  0  0  0
    8.5649  -17.9778   24.7842 C   0  0  2  0  0  0  0  0  0  0  0  0
    9.0390  -16.9135   23.8510 N   0  0  0  0  0  0  0  0  0  0  0  0
    7.1852  -17.6008   25.1040 C   0  0  0  0  0  0  0  0  0  0  0  0
    6.5618  -16.4928   24.4766 O   0  0  0  0  0  0  0  0  0  0  0  0
    6.4988  -18.2164   25.9251 O   0  0  0  0  0  0  0  0  0  0  0  0
  2  1  1  1
  2  3  1  0
  3  4  1  0
  4  8  1  0
  4  5  2  0
  6 14  1  0
  6  2  1  0
  7  6  2  0
  9 10  1  0
 10 11  2  0
 12 10  1  0
 13 12  1  6
 13 14  1  0
 15 16  2  0
 15 13  1  0
 18 17  1  0
 19 18  2  0
 20 18  1  0
 21 20  1  0
 22 21  1  0
 22 23  1  0
 24 23  1  1
 24 26  1  0
 24 25  1  0
 25 15  1  0
 26 27  1  0
 28 26  2  0
M  END
$$$$
