DNR.pdb
     RDKit          3D

 28 27  0  0  1  0  0  0  0  0999 V2000
    9.3304  -15.1494   13.6736 N   0  0  0  0  0  0  0  0  0  0  0  0
    8.7689  -15.6994   14.8870 C   0  0  1  0  0  0  0  0  0  0  0  0
    9.2364  -17.1525   15.0553 C   0  0  0  0  0  0  0  0  0  0  0  0
    8.6894  -18.0189   14.0090 C   0  0  0  0  0  0  0  0  0  0  0  0
    8.0233  -17.5774   13.0390 O   0  0  0  0  0  0  0  0  0  0  0  0
    9.3177  -14.9840   16.0736 C   0  0  0  0  0  0  0  0  0  0  0  0
   10.2984  -14.2213   15.9740 O   0  0  0  0  0  0  0  0  0  0  0  0
    8.8995  -19.4010   14.0626 O   0  0  0  0  0  0  0  0  0  0  0  0
    7.1699  -12.3244   18.9937 N   0  0  0  0  0  0  0  0  0  0  0  0
    7.1299  -13.6235   19.5251 C   0  0  0  0  0  0  0  0  0  0  0  0
    6.0017  -14.0844   19.8499 O   0  0  0  0  0  0  0  0  0  0  0  0
    8.3178  -14.4332   19.7075 C   0  0  0  0  0  0  0  0  0  0  0  0
    9.2481  -14.5322   18.5487 C   0  0  2  0  0  0  0  0  0  0  0  0
    8.7272  -15.1541   17.3744 N   0  0  0  0  0  0  0  0  0  0  0  0
   10.4864  -15.2480   18.9871 C   0  0  0  0  0  0  0  0  0  0  0  0
   10.6646  -16.4232   18.5784 O   0  0  0  0  0  0  0  0  0  0  0  0
   17.8034  -15.6783   17.8962 N   0  0  0  0  0  0  0  0  0  0  0  0
   16.9977  -15.0121   16.9206 C   0  0  0  0  0  0  0  0  0  0  0  0
   17.0901  -15.4183   15.6855 N   0  0  0  0  0  0  0  0  0  0  0  0
   16.1533  -13.9690   17.3175 N   0  0  0  0  0  0  0  0  0  0  0  0
   16.0621  -13.6296   18.7594 C   0  0  0  0  0  0  0  0  0  0  0  0
   15.1498  -14.6269   19.3492 C   0  0  0  0  0  0  0  0  0  0  0  0
   13.7090  -14.4679   19.3494 C   0  0  0  0  0  0  0  0  0  0  0  0
   12.7450  -15.3681   20.0139 C   0  0  2  0  0  0  0  0  0  0  0  0
   11.4429  -14.6625   19.8268 N   0  0  0  0  0  0  0  0  0  0  0  0
   12.8532  -15.5659   21.4620 C   0  0  0  0  0  0  0  0  0  0  0  0
   11.8235  -15.1441   22.3404 O   0  0  0  0  0  0  0  0  0  0  0  0
   13.8317  -16.1020   21.9907 O   0  0  0  0  0  0  0  0  0  0  0  0
  2  1  1  6
  2  3  1  0
  3  4  1  0
  4  8  1  0
  4  5  2  0
  6 14  1  0
  6  2  1  0
  7  6  2  0
  9 10  1  0
 10 11  2  0
 12 10  1  0
 13 12  1  1
 13 14  1  0
 15 16  2  0
 15 13  1  0
 18 17  1  0
 19 18  2  0
 20 18  1  0
 21 20  1  0
 22 21  1  0
 22 23  1  0
 24 23  1  1
 24 26  1  0
 24 25  1  0
 25 15  1  0
 26 27  1  0
 28 26  2  0
M  END
$$$$
