DNR.pdb
     RDKit          3D

 28 27  0  0  1  0  0  0  0  0999 V2000
   10.4142  -17.8696   23.3216 N   0  0  0  0  0  0  0  0  0  0  0  0
   11.1708  -17.3802   24.4521 C   0  0  1  0  0  0  0  0  0  0  0  0
   12.2897  -16.4521   23.9569 C   0  0  0  0  0  0  0  0  0  0  0  0
   12.2703  -16.3155   22.4988 C   0  0  0  0  0  0  0  0  0  0  0  0
   11.9478  -17.2569   21.7313 O   0  0  0  0  0  0  0  0  0  0  0  0
   10.3097  -16.5146   25.3066 C   0  0  0  0  0  0  0  0  0  0  0  0
   10.8003  -15.7728   26.1796 O   0  0  0  0  0  0  0  0  0  0  0  0
   12.6205  -15.0985   21.9042 O   0  0  0  0  0  0  0  0  0  0  0  0
    6.3842  -13.6200   27.1455 N   0  0  0  0  0  0  0  0  0  0  0  0
    7.4607  -13.2133   26.3411 C   0  0  0  0  0  0  0  0  0  0  0  0
    7.6527  -11.9736   26.2099 O   0  0  0  0  0  0  0  0  0  0  0  0
    8.3386  -14.1523   25.6720 C   0  0  0  0  0  0  0  0  0  0  0  0
    8.0259  -15.5991   25.8368 C   0  0  2  0  0  0  0  0  0  0  0  0
    8.8800  -16.5106   25.1463 N   0  0  0  0  0  0  0  0  0  0  0  0
    6.6067  -15.8333   25.4255 C   0  0  0  0  0  0  0  0  0  0  0  0
    5.7897  -14.8877   25.5601 O   0  0  0  0  0  0  0  0  0  0  0  0
    8.1100  -12.0722   19.5318 N   0  0  0  0  0  0  0  0  0  0  0  0
    8.1987  -13.3617   18.9200 C   0  0  0  0  0  0  0  0  0  0  0  0
    8.5700  -13.4108   17.6716 N   0  0  0  0  0  0  0  0  0  0  0  0
    7.8918  -14.5039   19.6682 N   0  0  0  0  0  0  0  0  0  0  0  0
    7.4675  -14.3427   21.0813 C   0  0  0  0  0  0  0  0  0  0  0  0
    7.2272  -15.7073   21.5861 C   0  0  0  0  0  0  0  0  0  0  0  0
    6.7835  -15.9756   22.9398 C   0  0  0  0  0  0  0  0  0  0  0  0
    6.2277  -17.2552   23.4243 C   0  0  2  0  0  0  0  0  0  0  0  0
    6.1613  -17.0541   24.9020 N   0  0  0  0  0  0  0  0  0  0  0  0
    7.0220  -18.4748   23.2528 C   0  0  0  0  0  0  0  0  0  0  0  0
    6.5913  -19.5177   22.3944 O   0  0  0  0  0  0  0  0  0  0  0  0
    8.0936  -18.6605   23.8370 O   0  0  0  0  0  0  0  0  0  0  0  0
  2  1  1  6
  2  3  1  0
  3  4  1  0
  4  8  1  0
  4  5  2  0
  6 14  1  0
  6  2  1  0
  7  6  2  0
  9 10  1  0
 10 11  2  0
 12 10  1  0
 13 12  1  6
 13 14  1  0
 15 16  2  0
 15 13  1  0
 18 17  1  0
 19 18  2  0
 20 18  1  0
 21 20  1  0
 22 21  1  0
 22 23  1  0
 24 23  1  6
 24 26  1  0
 24 25  1  0
 25 15  1  0
 26 27  1  0
 28 26  2  0
M  END
$$$$
