DNR.pdb
     RDKit          3D

 28 27  0  0  1  0  0  0  0  0999 V2000
   14.3242  -18.1192   16.2529 N   0  0  0  0  0  0  0  0  0  0  0  0
   14.9270  -17.9294   17.5531 C   0  0  1  0  0  0  0  0  0  0  0  0
   15.1196  -16.4284   17.8145 C   0  0  0  0  0  0  0  0  0  0  0  0
   16.2104  -15.8768   17.0078 C   0  0  0  0  0  0  0  0  0  0  0  0
   16.8523  -16.5615   16.1720 O   0  0  0  0  0  0  0  0  0  0  0  0
   13.9918  -18.3839   18.6207 C   0  0  0  0  0  0  0  0  0  0  0  0
   12.7706  -18.5060   18.4036 O   0  0  0  0  0  0  0  0  0  0  0  0
   16.5778  -14.5344   17.1501 O   0  0  0  0  0  0  0  0  0  0  0  0
   13.3624  -22.4961   21.9510 N   0  0  0  0  0  0  0  0  0  0  0  0
   14.2860  -21.5355   21.5086 C   0  0  0  0  0  0  0  0  0  0  0  0
   15.1854  -21.9175   20.7111 O   0  0  0  0  0  0  0  0  0  0  0  0
   14.2390  -20.1497   21.9301 C   0  0  0  0  0  0  0  0  0  0  0  0
   13.6269  -19.1790   20.9807 C   0  0  2  0  0  0  0  0  0  0  0  0
   14.4751  -18.6967   19.9392 N   0  0  0  0  0  0  0  0  0  0  0  0
   13.0838  -18.0231   21.7598 C   0  0  0  0  0  0  0  0  0  0  0  0
   13.8688  -17.0846   22.0476 O   0  0  0  0  0  0  0  0  0  0  0  0
    7.6365  -13.5660   18.4130 N   0  0  0  0  0  0  0  0  0  0  0  0
    8.0075  -12.7702   19.5417 C   0  0  0  0  0  0  0  0  0  0  0  0
    7.8600  -11.4790   19.4417 N   0  0  0  0  0  0  0  0  0  0  0  0
    8.5044  -13.3926   20.6925 N   0  0  0  0  0  0  0  0  0  0  0  0
    8.9643  -14.8008   20.6041 C   0  0  0  0  0  0  0  0  0  0  0  0
    9.4190  -15.1602   21.9602 C   0  0  0  0  0  0  0  0  0  0  0  0
    9.9652  -16.4633   22.2843 C   0  0  0  0  0  0  0  0  0  0  0  0
   11.2934  -16.7147   22.8789 C   0  0  2  0  0  0  0  0  0  0  0  0
   11.7478  -17.9503   22.1752 N   0  0  0  0  0  0  0  0  0  0  0  0
   11.3721  -17.0507   24.3033 C   0  0  0  0  0  0  0  0  0  0  0  0
   11.5371  -18.3913   24.7341 O   0  0  0  0  0  0  0  0  0  0  0  0
   11.2999  -16.1993   25.1945 O   0  0  0  0  0  0  0  0  0  0  0  0
  2  1  1  6
  2  3  1  0
  3  4  1  0
  4  8  1  0
  4  5  2  0
  6 14  1  0
  6  2  1  0
  7  6  2  0
  9 10  1  0
 10 11  2  0
 12 10  1  0
 13 12  1  1
 13 14  1  0
 15 16  2  0
 15 13  1  0
 18 17  1  0
 19 18  2  0
 20 18  1  0
 21 20  1  0
 22 21  1  0
 22 23  1  0
 24 23  1  6
 24 26  1  0
 24 25  1  0
 25 15  1  0
 26 27  1  0
 28 26  2  0
M  END
$$$$
