DNR.pdb
     RDKit          3D

 28 27  0  0  1  0  0  0  0  0999 V2000
    9.9791  -14.5582   16.1283 N   0  0  0  0  0  0  0  0  0  0  0  0
    8.8299  -14.1414   16.9001 C   0  0  1  0  0  0  0  0  0  0  0  0
    7.5481  -14.4179   16.1008 C   0  0  0  0  0  0  0  0  0  0  0  0
    7.7625  -14.2453   14.6624 C   0  0  0  0  0  0  0  0  0  0  0  0
    8.9068  -14.2156   14.1435 O   0  0  0  0  0  0  0  0  0  0  0  0
    8.7038  -14.9833   18.1233 C   0  0  0  0  0  0  0  0  0  0  0  0
    7.7268  -14.8716   18.8890 O   0  0  0  0  0  0  0  0  0  0  0  0
    6.6679  -14.1046   13.8025 O   0  0  0  0  0  0  0  0  0  0  0  0
    9.1306  -20.0277   20.5588 N   0  0  0  0  0  0  0  0  0  0  0  0
   10.1980  -19.1198   20.4709 C   0  0  0  0  0  0  0  0  0  0  0  0
   11.0690  -19.1563   21.3824 O   0  0  0  0  0  0  0  0  0  0  0  0
   10.3275  -18.1637   19.3896 C   0  0  0  0  0  0  0  0  0  0  0  0
    9.5609  -16.8935   19.5204 C   0  0  2  0  0  0  0  0  0  0  0  0
    9.7117  -15.9546   18.4561 N   0  0  0  0  0  0  0  0  0  0  0  0
    9.9268  -16.2434   20.8172 C   0  0  0  0  0  0  0  0  0  0  0  0
   10.9394  -15.4991   20.8390 O   0  0  0  0  0  0  0  0  0  0  0  0
    5.3107  -12.2244   27.1113 N   0  0  0  0  0  0  0  0  0  0  0  0
    6.2501  -11.5354   26.2821 C   0  0  0  0  0  0  0  0  0  0  0  0
    6.3760  -10.2498   26.4560 N   0  0  0  0  0  0  0  0  0  0  0  0
    6.9886  -12.2509   25.3327 N   0  0  0  0  0  0  0  0  0  0  0  0
    6.7724  -13.7141   25.2105 C   0  0  0  0  0  0  0  0  0  0  0  0
    8.0824  -14.2838   24.8442 C   0  0  0  0  0  0  0  0  0  0  0  0
    8.2936  -15.0462   23.6295 C   0  0  0  0  0  0  0  0  0  0  0  0
    9.5745  -15.6442   23.2019 C   0  0  2  0  0  0  0  0  0  0  0  0
    9.1902  -16.4324   21.9938 N   0  0  0  0  0  0  0  0  0  0  0  0
   10.2247  -16.6159   24.0855 C   0  0  0  0  0  0  0  0  0  0  0  0
   10.2286  -18.0002   23.7793 O   0  0  0  0  0  0  0  0  0  0  0  0
   10.7963  -16.2896   25.1301 O   0  0  0  0  0  0  0  0  0  0  0  0
  2  1  1  6
  2  3  1  0
  3  4  1  0
  4  8  1  0
  4  5  2  0
  6 14  1  0
  6  2  1  0
  7  6  2  0
  9 10  1  0
 10 11  2  0
 12 10  1  0
 13 12  1  6
 13 14  1  0
 15 16  2  0
 15 13  1  0
 18 17  1  0
 19 18  2  0
 20 18  1  0
 21 20  1  0
 22 21  1  0
 22 23  1  0
 24 23  1  1
 24 26  1  0
 24 25  1  0
 25 15  1  0
 26 27  1  0
 28 26  2  0
M  END
$$$$
