DNR.pdb
     RDKit          3D

 28 27  0  0  1  0  0  0  0  0999 V2000
    8.3432  -17.9788   19.3345 N   0  0  0  0  0  0  0  0  0  0  0  0
    9.5968  -17.7868   20.0285 C   0  0  1  0  0  0  0  0  0  0  0  0
   10.7432  -17.7252   19.0085 C   0  0  0  0  0  0  0  0  0  0  0  0
   10.5339  -18.6658   17.9056 C   0  0  0  0  0  0  0  0  0  0  0  0
    9.4814  -19.3402   17.7767 O   0  0  0  0  0  0  0  0  0  0  0  0
    9.6114  -16.4549   20.6971 C   0  0  0  0  0  0  0  0  0  0  0  0
   10.6318  -16.0302   21.2732 O   0  0  0  0  0  0  0  0  0  0  0  0
   11.5288  -18.8440   16.9382 O   0  0  0  0  0  0  0  0  0  0  0  0
    6.2198  -13.0723   18.7023 N   0  0  0  0  0  0  0  0  0  0  0  0
    7.4064  -13.1712   19.4463 C   0  0  0  0  0  0  0  0  0  0  0  0
    8.4961  -13.0795   18.8179 O   0  0  0  0  0  0  0  0  0  0  0  0
    7.4179  -13.3705   20.8817 C   0  0  0  0  0  0  0  0  0  0  0  0
    8.3713  -14.3845   21.4117 C   0  0  2  0  0  0  0  0  0  0  0  0
    8.4418  -15.6172   20.6959 N   0  0  0  0  0  0  0  0  0  0  0  0
    8.0363  -14.6558   22.8442 C   0  0  0  0  0  0  0  0  0  0  0  0
    7.0215  -14.0948   23.3293 O   0  0  0  0  0  0  0  0  0  0  0  0
    7.6481  -20.7496   25.3125 N   0  0  0  0  0  0  0  0  0  0  0  0
    6.8486  -20.7974   24.1279 C   0  0  0  0  0  0  0  0  0  0  0  0
    7.0504  -21.7885   23.3058 N   0  0  0  0  0  0  0  0  0  0  0  0
    5.8947  -19.7996   23.8973 N   0  0  0  0  0  0  0  0  0  0  0  0
    5.8388  -18.6353   24.8160 C   0  0  0  0  0  0  0  0  0  0  0  0
    6.8601  -17.6900   24.3281 C   0  0  0  0  0  0  0  0  0  0  0  0
    7.0704  -16.3860   24.9255 C   0  0  0  0  0  0  0  0  0  0  0  0
    8.3738  -15.7068   25.0694 C   0  0  2  0  0  0  0  0  0  0  0  0
    8.8039  -15.5025   23.6546 N   0  0  0  0  0  0  0  0  0  0  0  0
    9.4816  -16.4386   25.6902 C   0  0  0  0  0  0  0  0  0  0  0  0
   10.5815  -16.8970   24.9221 O   0  0  0  0  0  0  0  0  0  0  0  0
    9.5188  -16.6937   26.8976 O   0  0  0  0  0  0  0  0  0  0  0  0
  2  1  1  6
  2  3  1  0
  3  4  1  0
  4  8  1  0
  4  5  2  0
  6 14  1  0
  6  2  1  0
  7  6  2  0
  9 10  1  0
 10 11  2  0
 12 10  1  0
 13 12  1  6
 13 14  1  0
 15 16  2  0
 15 13  1  0
 18 17  1  0
 19 18  2  0
 20 18  1  0
 21 20  1  0
 22 21  1  0
 22 23  1  0
 24 23  1  6
 24 26  1  0
 24 25  1  0
 25 15  1  0
 26 27  1  0
 28 26  2  0
M  END
$$$$
