DNR.pdb
     RDKit          3D

 28 27  0  0  1  0  0  0  0  0999 V2000
   12.9396  -21.8102   12.3119 N   0  0  0  0  0  0  0  0  0  0  0  0
   13.8969  -21.3821   13.3071 C   0  0  1  0  0  0  0  0  0  0  0  0
   14.4538  -20.0035   12.9229 C   0  0  0  0  0  0  0  0  0  0  0  0
   15.4625  -20.1055   11.8661 C   0  0  0  0  0  0  0  0  0  0  0  0
   15.7671  -21.1950   11.3188 O   0  0  0  0  0  0  0  0  0  0  0  0
   13.2129  -21.1649   14.6132 C   0  0  0  0  0  0  0  0  0  0  0  0
   12.9250  -20.0196   15.0113 O   0  0  0  0  0  0  0  0  0  0  0  0
   16.1335  -18.9599   11.4247 O   0  0  0  0  0  0  0  0  0  0  0  0
   11.5752  -25.6138   16.1533 N   0  0  0  0  0  0  0  0  0  0  0  0
   11.0520  -24.3180   16.0171 C   0  0  0  0  0  0  0  0  0  0  0  0
   10.3996  -24.0616   14.9685 O   0  0  0  0  0  0  0  0  0  0  0  0
   11.2337  -23.2891   17.0214 C   0  0  0  0  0  0  0  0  0  0  0  0
   12.0965  -22.1332   16.6507 C   0  0  2  0  0  0  0  0  0  0  0  0
   12.8634  -22.2776   15.4556 N   0  0  0  0  0  0  0  0  0  0  0  0
   13.0083  -21.8278   17.7968 C   0  0  0  0  0  0  0  0  0  0  0  0
   14.1767  -22.2895   17.7605 O   0  0  0  0  0  0  0  0  0  0  0  0
   13.0217  -26.5157   21.1881 N   0  0  0  0  0  0  0  0  0  0  0  0
   12.7753  -25.9482   22.4773 C   0  0  0  0  0  0  0  0  0  0  0  0
   12.8720  -26.7374   23.5101 N   0  0  0  0  0  0  0  0  0  0  0  0
   12.4472  -24.5919   22.5839 N   0  0  0  0  0  0  0  0  0  0  0  0
   12.4334  -23.7590   21.3556 C   0  0  0  0  0  0  0  0  0  0  0  0
   13.7281  -23.0532   21.3350 C   0  0  0  0  0  0  0  0  0  0  0  0
   14.1285  -22.1815   20.2482 C   0  0  0  0  0  0  0  0  0  0  0  0
   13.5977  -20.8272   19.9926 C   0  0  2  0  0  0  0  0  0  0  0  0
   12.6110  -21.0550   18.8958 N   0  0  0  0  0  0  0  0  0  0  0  0
   14.5065  -19.8054   19.4654 C   0  0  0  0  0  0  0  0  0  0  0  0
   15.2499  -18.9653   20.3323 O   0  0  0  0  0  0  0  0  0  0  0  0
   14.6732  -19.6209   18.2561 O   0  0  0  0  0  0  0  0  0  0  0  0
  2  1  1  6
  2  3  1  0
  3  4  1  0
  4  8  1  0
  4  5  2  0
  6 14  1  0
  6  2  1  0
  7  6  2  0
  9 10  1  0
 10 11  2  0
 12 10  1  0
 13 12  1  1
 13 14  1  0
 15 16  2  0
 15 13  1  0
 18 17  1  0
 19 18  2  0
 20 18  1  0
 21 20  1  0
 22 21  1  0
 22 23  1  0
 24 23  1  6
 24 26  1  0
 24 25  1  0
 25 15  1  0
 26 27  1  0
 28 26  2  0
M  END
$$$$
