DNR.pdb
     RDKit          3D

 28 27  0  0  1  0  0  0  0  0999 V2000
   12.5283  -15.8535   17.8845 N   0  0  0  0  0  0  0  0  0  0  0  0
   13.2739  -15.2690   18.9766 C   0  0  1  0  0  0  0  0  0  0  0  0
   14.1354  -14.1127   18.4480 C   0  0  0  0  0  0  0  0  0  0  0  0
   15.1235  -14.5793   17.4729 C   0  0  0  0  0  0  0  0  0  0  0  0
   15.2811  -15.7940   17.1915 O   0  0  0  0  0  0  0  0  0  0  0  0
   12.3408  -14.6335   19.9494 C   0  0  0  0  0  0  0  0  0  0  0  0
   12.7642  -14.0358   20.9577 O   0  0  0  0  0  0  0  0  0  0  0  0
   15.9422  -13.6590   16.8095 O   0  0  0  0  0  0  0  0  0  0  0  0
    8.8055  -12.2067   18.0926 N   0  0  0  0  0  0  0  0  0  0  0  0
    8.6237  -13.4771   18.6623 C   0  0  0  0  0  0  0  0  0  0  0  0
    8.4128  -14.4416   17.8774 O   0  0  0  0  0  0  0  0  0  0  0  0
    8.6702  -13.7095   20.0920 C   0  0  0  0  0  0  0  0  0  0  0  0
    9.9833  -14.1175   20.6642 C   0  0  2  0  0  0  0  0  0  0  0  0
   10.9171  -14.6919   19.7504 N   0  0  0  0  0  0  0  0  0  0  0  0
    9.7401  -15.0669   21.7945 C   0  0  0  0  0  0  0  0  0  0  0  0
    8.9216  -14.7264   22.6853 O   0  0  0  0  0  0  0  0  0  0  0  0
   11.3178  -23.4211   22.4637 N   0  0  0  0  0  0  0  0  0  0  0  0
   10.5915  -23.1983   23.6752 C   0  0  0  0  0  0  0  0  0  0  0  0
   10.6701  -24.1130   24.6004 N   0  0  0  0  0  0  0  0  0  0  0  0
    9.8377  -22.0284   23.8237 N   0  0  0  0  0  0  0  0  0  0  0  0
    9.7994  -21.0536   22.7053 C   0  0  0  0  0  0  0  0  0  0  0  0
    9.9607  -19.7253   23.3253 C   0  0  0  0  0  0  0  0  0  0  0  0
    9.9773  -18.4974   22.5551 C   0  0  0  0  0  0  0  0  0  0  0  0
   10.1337  -17.1374   23.1091 C   0  0  2  0  0  0  0  0  0  0  0  0
   10.3846  -16.3069   21.8943 N   0  0  0  0  0  0  0  0  0  0  0  0
   11.2760  -16.8641   23.9857 C   0  0  0  0  0  0  0  0  0  0  0  0
   12.4949  -16.3575   23.4683 O   0  0  0  0  0  0  0  0  0  0  0  0
   11.2423  -17.0568   25.2047 O   0  0  0  0  0  0  0  0  0  0  0  0
  2  1  1  6
  2  3  1  0
  3  4  1  0
  4  8  1  0
  4  5  2  0
  6 14  1  0
  6  2  1  0
  7  6  2  0
  9 10  1  0
 10 11  2  0
 12 10  1  0
 13 12  1  6
 13 14  1  0
 15 16  2  0
 15 13  1  0
 18 17  1  0
 19 18  2  0
 20 18  1  0
 21 20  1  0
 22 21  1  0
 22 23  1  0
 24 23  1  6
 24 26  1  0
 24 25  1  0
 25 15  1  0
 26 27  1  0
 28 26  2  0
M  END
$$$$
