DNR.pdb
     RDKit          3D

 28 27  0  0  1  0  0  0  0  0999 V2000
   10.7883  -19.1553   17.5616 N   0  0  0  0  0  0  0  0  0  0  0  0
   11.8151  -18.1422   17.6592 C   0  0  1  0  0  0  0  0  0  0  0  0
   12.0645  -17.5300   16.2731 C   0  0  0  0  0  0  0  0  0  0  0  0
   12.7658  -18.4645   15.3899 C   0  0  0  0  0  0  0  0  0  0  0  0
   12.2342  -19.5152   14.9509 O   0  0  0  0  0  0  0  0  0  0  0  0
   11.3335  -17.0061   18.4950 C   0  0  0  0  0  0  0  0  0  0  0  0
   12.1271  -16.1769   18.9805 O   0  0  0  0  0  0  0  0  0  0  0  0
   14.0842  -18.2051   15.0001 O   0  0  0  0  0  0  0  0  0  0  0  0
    8.1706  -13.9200   21.4087 N   0  0  0  0  0  0  0  0  0  0  0  0
    7.6529  -14.1346   20.1213 C   0  0  0  0  0  0  0  0  0  0  0  0
    6.6679  -13.4315   19.7660 O   0  0  0  0  0  0  0  0  0  0  0  0
    8.2029  -15.1166   19.2084 C   0  0  0  0  0  0  0  0  0  0  0  0
    9.4309  -15.8329   19.6521 C   0  0  2  0  0  0  0  0  0  0  0  0
    9.9311  -16.8335   18.7657 N   0  0  0  0  0  0  0  0  0  0  0  0
    9.1748  -16.4375   20.9963 C   0  0  0  0  0  0  0  0  0  0  0  0
    8.7666  -17.6254   21.0409 O   0  0  0  0  0  0  0  0  0  0  0  0
   14.4153  -20.7545   24.4700 N   0  0  0  0  0  0  0  0  0  0  0  0
   14.7533  -20.0360   23.2807 C   0  0  0  0  0  0  0  0  0  0  0  0
   15.6021  -20.5923   22.4628 N   0  0  0  0  0  0  0  0  0  0  0  0
   14.1716  -18.7861   23.0398 N   0  0  0  0  0  0  0  0  0  0  0  0
   13.1101  -18.3008   23.9564 C   0  0  0  0  0  0  0  0  0  0  0  0
   11.8843  -18.2153   23.1410 C   0  0  0  0  0  0  0  0  0  0  0  0
   11.2522  -16.9546   22.8056 C   0  0  0  0  0  0  0  0  0  0  0  0
    9.9696  -16.4648   23.3495 C   0  0  2  0  0  0  0  0  0  0  0  0
    9.3711  -15.7354   22.1927 N   0  0  0  0  0  0  0  0  0  0  0  0
    9.9980  -15.4786   24.4332 C   0  0  0  0  0  0  0  0  0  0  0  0
    9.9831  -15.8800   25.7929 O   0  0  0  0  0  0  0  0  0  0  0  0
   10.0354  -14.2619   24.2271 O   0  0  0  0  0  0  0  0  0  0  0  0
  2  1  1  6
  2  3  1  0
  3  4  1  0
  4  8  1  0
  4  5  2  0
  6 14  1  0
  6  2  1  0
  7  6  2  0
  9 10  1  0
 10 11  2  0
 12 10  1  0
 13 12  1  6
 13 14  1  0
 15 16  2  0
 15 13  1  0
 18 17  1  0
 19 18  2  0
 20 18  1  0
 21 20  1  0
 22 21  1  0
 22 23  1  0
 24 23  1  6
 24 26  1  0
 24 25  1  0
 25 15  1  0
 26 27  1  0
 28 26  2  0
M  END
$$$$
