DNR.pdb
     RDKit          3D

 28 27  0  0  1  0  0  0  0  0999 V2000
   10.2840  -19.5267   18.8783 N   0  0  0  0  0  0  0  0  0  0  0  0
    8.9888  -19.0723   19.3322 C   0  0  1  0  0  0  0  0  0  0  0  0
    8.4614  -20.0258   20.4143 C   0  0  0  0  0  0  0  0  0  0  0  0
    8.0666  -21.3175   19.8481 C   0  0  0  0  0  0  0  0  0  0  0  0
    8.2790  -21.6285   18.6491 O   0  0  0  0  0  0  0  0  0  0  0  0
    9.1211  -17.7557   20.0179 C   0  0  0  0  0  0  0  0  0  0  0  0
   10.1699  -17.4364   20.6107 O   0  0  0  0  0  0  0  0  0  0  0  0
    7.4240  -22.2672   20.6496 O   0  0  0  0  0  0  0  0  0  0  0  0
    8.3251  -12.8529   21.6951 N   0  0  0  0  0  0  0  0  0  0  0  0
    7.6354  -13.0812   20.4936 C   0  0  0  0  0  0  0  0  0  0  0  0
    7.1566  -12.0776   19.8982 O   0  0  0  0  0  0  0  0  0  0  0  0
    7.4607  -14.4043   19.9287 C   0  0  0  0  0  0  0  0  0  0  0  0
    8.1205  -15.5324   20.6428 C   0  0  2  0  0  0  0  0  0  0  0  0
    8.0361  -16.8110   20.0142 N   0  0  0  0  0  0  0  0  0  0  0  0
    7.5603  -15.6172   22.0274 C   0  0  0  0  0  0  0  0  0  0  0  0
    6.3388  -15.8850   22.1543 O   0  0  0  0  0  0  0  0  0  0  0  0
    5.3918  -22.1173   23.9445 N   0  0  0  0  0  0  0  0  0  0  0  0
    5.7676  -20.8019   23.5282 C   0  0  0  0  0  0  0  0  0  0  0  0
    4.9058  -20.1253   22.8223 N   0  0  0  0  0  0  0  0  0  0  0  0
    7.0219  -20.2954   23.8875 N   0  0  0  0  0  0  0  0  0  0  0  0
    7.0949  -19.2164   24.9038 C   0  0  0  0  0  0  0  0  0  0  0  0
    7.9173  -18.1516   24.2998 C   0  0  0  0  0  0  0  0  0  0  0  0
    8.1713  -16.8869   24.9612 C   0  0  0  0  0  0  0  0  0  0  0  0
    7.6872  -15.5674   24.5076 C   0  0  2  0  0  0  0  0  0  0  0  0
    8.3390  -15.4112   23.1737 N   0  0  0  0  0  0  0  0  0  0  0  0
    8.0920  -14.3756   25.2584 C   0  0  0  0  0  0  0  0  0  0  0  0
    7.3564  -13.9325   26.3863 O   0  0  0  0  0  0  0  0  0  0  0  0
    9.0804  -13.7005   24.9557 O   0  0  0  0  0  0  0  0  0  0  0  0
  2  1  1  1
  2  3  1  0
  3  4  1  0
  4  8  1  0
  4  5  2  0
  6 14  1  0
  6  2  1  0
  7  6  2  0
  9 10  1  0
 10 11  2  0
 12 10  1  0
 13 12  1  6
 13 14  1  0
 15 16  2  0
 15 13  1  0
 18 17  1  0
 19 18  2  0
 20 18  1  0
 21 20  1  0
 22 21  1  0
 22 23  1  0
 24 23  1  1
 24 26  1  0
 24 25  1  0
 25 15  1  0
 26 27  1  0
 28 26  2  0
M  END
$$$$
