DNR.pdb
     RDKit          3D

 28 27  0  0  1  0  0  0  0  0999 V2000
   15.4824  -17.8442   16.7018 N   0  0  0  0  0  0  0  0  0  0  0  0
   14.1050  -17.5103   16.4167 C   0  0  1  0  0  0  0  0  0  0  0  0
   13.6428  -18.2680   15.1635 C   0  0  0  0  0  0  0  0  0  0  0  0
   14.2967  -17.7603   13.9554 C   0  0  0  0  0  0  0  0  0  0  0  0
   14.5638  -18.4905   12.9680 O   0  0  0  0  0  0  0  0  0  0  0  0
   13.2222  -18.0088   17.5091 C   0  0  0  0  0  0  0  0  0  0  0  0
   11.9826  -17.8981   17.4419 O   0  0  0  0  0  0  0  0  0  0  0  0
   14.6518  -16.4101   13.8654 O   0  0  0  0  0  0  0  0  0  0  0  0
   15.1866  -21.9709   20.2619 N   0  0  0  0  0  0  0  0  0  0  0  0
   13.9274  -21.3671   20.1155 C   0  0  0  0  0  0  0  0  0  0  0  0
   13.0546  -21.9949   19.4560 O   0  0  0  0  0  0  0  0  0  0  0  0
   13.6065  -20.0742   20.6860 C   0  0  0  0  0  0  0  0  0  0  0  0
   12.9804  -19.0749   19.7762 C   0  0  2  0  0  0  0  0  0  0  0  0
   13.7792  -18.6359   18.6780 N   0  0  0  0  0  0  0  0  0  0  0  0
   12.5489  -17.8930   20.5855 C   0  0  0  0  0  0  0  0  0  0  0  0
   13.4206  -17.0446   20.9019 O   0  0  0  0  0  0  0  0  0  0  0  0
    8.5350  -13.0289   17.7048 N   0  0  0  0  0  0  0  0  0  0  0  0
    7.5294  -12.8685   18.7087 C   0  0  0  0  0  0  0  0  0  0  0  0
    6.3369  -12.5193   18.3150 N   0  0  0  0  0  0  0  0  0  0  0  0
    7.8530  -13.0893   20.0523 N   0  0  0  0  0  0  0  0  0  0  0  0
    9.2396  -13.4888   20.3994 C   0  0  0  0  0  0  0  0  0  0  0  0
    9.1087  -14.6369   21.3156 C   0  0  0  0  0  0  0  0  0  0  0  0
    9.7314  -15.9204   21.0580 C   0  0  0  0  0  0  0  0  0  0  0  0
   10.8989  -16.4690   21.7769 C   0  0  2  0  0  0  0  0  0  0  0  0
   11.2241  -17.7006   20.9985 N   0  0  0  0  0  0  0  0  0  0  0  0
   10.7179  -16.9390   23.1533 C   0  0  0  0  0  0  0  0  0  0  0  0
   11.0318  -16.1105   24.2601 O   0  0  0  0  0  0  0  0  0  0  0  0
   10.2893  -18.0650   23.4226 O   0  0  0  0  0  0  0  0  0  0  0  0
  2  1  1  1
  2  3  1  0
  3  4  1  0
  4  8  1  0
  4  5  2  0
  6 14  1  0
  6  2  1  0
  7  6  2  0
  9 10  1  0
 10 11  2  0
 12 10  1  0
 13 12  1  1
 13 14  1  0
 15 16  2  0
 15 13  1  0
 18 17  1  0
 19 18  2  0
 20 18  1  0
 21 20  1  0
 22 21  1  0
 22 23  1  0
 24 23  1  6
 24 26  1  0
 24 25  1  0
 25 15  1  0
 26 27  1  0
 28 26  2  0
M  END
$$$$
