DNR.pdb
     RDKit          3D

 28 27  0  0  1  0  0  0  0  0999 V2000
    9.2393  -22.3299   20.2890 N   0  0  0  0  0  0  0  0  0  0  0  0
    8.4653  -21.1484   19.9809 C   0  0  1  0  0  0  0  0  0  0  0  0
    6.9814  -21.4179   20.2706 C   0  0  0  0  0  0  0  0  0  0  0  0
    6.5018  -22.6069   19.5627 C   0  0  0  0  0  0  0  0  0  0  0  0
    7.2505  -23.3249   18.8533 O   0  0  0  0  0  0  0  0  0  0  0  0
    8.8371  -20.0393   20.9043 C   0  0  0  0  0  0  0  0  0  0  0  0
    8.2366  -18.9475   20.8806 O   0  0  0  0  0  0  0  0  0  0  0  0
    5.1586  -22.9862   19.6599 O   0  0  0  0  0  0  0  0  0  0  0  0
   13.6205  -20.0764   24.0901 N   0  0  0  0  0  0  0  0  0  0  0  0
   12.3285  -20.3808   23.6324 C   0  0  0  0  0  0  0  0  0  0  0  0
   12.1742  -21.4635   23.0042 O   0  0  0  0  0  0  0  0  0  0  0  0
   11.1921  -19.5093   23.8546 C   0  0  0  0  0  0  0  0  0  0  0  0
   10.3958  -19.1247   22.6562 C   0  0  2  0  0  0  0  0  0  0  0  0
    9.9053  -20.1990   21.8548 N   0  0  0  0  0  0  0  0  0  0  0  0
   11.2163  -18.2032   21.8103 C   0  0  0  0  0  0  0  0  0  0  0  0
   11.9491  -18.7110   20.9243 O   0  0  0  0  0  0  0  0  0  0  0  0
    6.8541  -13.3390   18.9199 N   0  0  0  0  0  0  0  0  0  0  0  0
    8.2068  -13.2613   18.4628 C   0  0  0  0  0  0  0  0  0  0  0  0
    8.4025  -12.9341   17.2164 N   0  0  0  0  0  0  0  0  0  0  0  0
    9.2532  -13.5318   19.3520 N   0  0  0  0  0  0  0  0  0  0  0  0
   10.6424  -13.2045   18.9450 C   0  0  0  0  0  0  0  0  0  0  0  0
   11.4961  -13.5961   20.0819 C   0  0  0  0  0  0  0  0  0  0  0  0
   11.1966  -14.7308   20.9329 C   0  0  0  0  0  0  0  0  0  0  0  0
   11.9801  -15.9805   21.0064 C   0  0  2  0  0  0  0  0  0  0  0  0
   11.1975  -16.8113   21.9685 N   0  0  0  0  0  0  0  0  0  0  0  0
   13.3299  -15.9298   21.5750 C   0  0  0  0  0  0  0  0  0  0  0  0
   13.5577  -16.1838   22.9511 O   0  0  0  0  0  0  0  0  0  0  0  0
   14.3290  -15.6669   20.8990 O   0  0  0  0  0  0  0  0  0  0  0  0
  2  1  1  1
  2  3  1  0
  3  4  1  0
  4  8  1  0
  4  5  2  0
  6 14  1  0
  6  2  1  0
  7  6  2  0
  9 10  1  0
 10 11  2  0
 12 10  1  0
 13 12  1  1
 13 14  1  0
 15 16  2  0
 15 13  1  0
 18 17  1  0
 19 18  2  0
 20 18  1  0
 21 20  1  0
 22 21  1  0
 22 23  1  0
 24 23  1  1
 24 26  1  0
 24 25  1  0
 25 15  1  0
 26 27  1  0
 28 26  2  0
M  END
$$$$
