DNR.pdb
     RDKit          3D

 28 27  0  0  1  0  0  0  0  0999 V2000
   10.7009  -18.5395   19.6914 N   0  0  0  0  0  0  0  0  0  0  0  0
   11.5307  -17.9181   20.6991 C   0  0  1  0  0  0  0  0  0  0  0  0
   12.8199  -17.3941   20.0496 C   0  0  0  0  0  0  0  0  0  0  0  0
   13.6430  -18.4873   19.5278 C   0  0  0  0  0  0  0  0  0  0  0  0
   13.2137  -19.3248   18.6950 O   0  0  0  0  0  0  0  0  0  0  0  0
   10.8560  -16.7034   21.2380 C   0  0  0  0  0  0  0  0  0  0  0  0
   11.3909  -16.0020   22.1185 O   0  0  0  0  0  0  0  0  0  0  0  0
   14.9673  -18.6328   19.9548 O   0  0  0  0  0  0  0  0  0  0  0  0
    7.2817  -12.1793   20.1019 N   0  0  0  0  0  0  0  0  0  0  0  0
    7.1179  -13.4154   20.7473 C   0  0  0  0  0  0  0  0  0  0  0  0
    6.3404  -13.4547   21.7398 O   0  0  0  0  0  0  0  0  0  0  0  0
    7.7987  -14.6207   20.3183 C   0  0  0  0  0  0  0  0  0  0  0  0
    8.9099  -15.1083   21.1817 C   0  0  2  0  0  0  0  0  0  0  0  0
    9.5615  -16.3039   20.7539 N   0  0  0  0  0  0  0  0  0  0  0  0
    8.3919  -15.2908   22.5732 C   0  0  0  0  0  0  0  0  0  0  0  0
    7.7094  -16.3173   22.8189 O   0  0  0  0  0  0  0  0  0  0  0  0
   11.6628  -19.2700   28.2871 N   0  0  0  0  0  0  0  0  0  0  0  0
   11.1835  -19.4840   26.9569 C   0  0  0  0  0  0  0  0  0  0  0  0
   11.6714  -20.4970   26.2977 N   0  0  0  0  0  0  0  0  0  0  0  0
   10.2250  -18.6170   26.4201 N   0  0  0  0  0  0  0  0  0  0  0  0
   10.1422  -17.2294   26.9400 C   0  0  0  0  0  0  0  0  0  0  0  0
    9.0057  -16.6050   26.2377 C   0  0  0  0  0  0  0  0  0  0  0  0
    9.0573  -15.2574   25.7061 C   0  0  0  0  0  0  0  0  0  0  0  0
    7.9900  -14.6001   24.9251 C   0  0  2  0  0  0  0  0  0  0  0  0
    8.6372  -14.3696   23.5998 N   0  0  0  0  0  0  0  0  0  0  0  0
    7.5276  -13.2746   25.3460 C   0  0  0  0  0  0  0  0  0  0  0  0
    6.5594  -13.1251   26.3707 O   0  0  0  0  0  0  0  0  0  0  0  0
    7.9478  -12.2299   24.8398 O   0  0  0  0  0  0  0  0  0  0  0  0
  2  1  1  6
  2  3  1  0
  3  4  1  0
  4  8  1  0
  4  5  2  0
  6 14  1  0
  6  2  1  0
  7  6  2  0
  9 10  1  0
 10 11  2  0
 12 10  1  0
 13 12  1  6
 13 14  1  0
 15 16  2  0
 15 13  1  0
 18 17  1  0
 19 18  2  0
 20 18  1  0
 21 20  1  0
 22 21  1  0
 22 23  1  0
 24 23  1  1
 24 26  1  0
 24 25  1  0
 25 15  1  0
 26 27  1  0
 28 26  2  0
M  END
$$$$
