DNR.pdb
     RDKit          3D

 28 27  0  0  1  0  0  0  0  0999 V2000
   10.6740  -17.2792   16.6388 N   0  0  0  0  0  0  0  0  0  0  0  0
   11.8044  -16.6514   17.2854 C   0  0  1  0  0  0  0  0  0  0  0  0
   12.4002  -15.5851   16.3546 C   0  0  0  0  0  0  0  0  0  0  0  0
   13.0483  -16.1894   15.1886 C   0  0  0  0  0  0  0  0  0  0  0  0
   12.6226  -17.2369   14.6399 O   0  0  0  0  0  0  0  0  0  0  0  0
   11.3504  -15.8958   18.4871 C   0  0  0  0  0  0  0  0  0  0  0  0
   12.1626  -15.3110   19.2299 O   0  0  0  0  0  0  0  0  0  0  0  0
   14.1917  -15.6001   14.6384 O   0  0  0  0  0  0  0  0  0  0  0  0
    7.9308  -12.2027   18.9366 N   0  0  0  0  0  0  0  0  0  0  0  0
    7.8320  -13.5913   18.7533 C   0  0  0  0  0  0  0  0  0  0  0  0
    7.5135  -14.0050   17.6051 O   0  0  0  0  0  0  0  0  0  0  0  0
    8.0793  -14.5426   19.8181 C   0  0  0  0  0  0  0  0  0  0  0  0
    9.4666  -15.0711   19.9383 C   0  0  2  0  0  0  0  0  0  0  0  0
    9.9540  -15.8192   18.8248 N   0  0  0  0  0  0  0  0  0  0  0  0
    9.5577  -15.9027   21.1786 C   0  0  0  0  0  0  0  0  0  0  0  0
    9.1073  -17.0754   21.1371 O   0  0  0  0  0  0  0  0  0  0  0  0
   15.7747  -19.5912   21.6980 N   0  0  0  0  0  0  0  0  0  0  0  0
   15.3758  -19.4174   23.0602 C   0  0  0  0  0  0  0  0  0  0  0  0
   16.2305  -19.7542   23.9847 N   0  0  0  0  0  0  0  0  0  0  0  0
   14.1076  -18.9003   23.3481 N   0  0  0  0  0  0  0  0  0  0  0  0
   14.0031  -17.6954   24.2083 C   0  0  0  0  0  0  0  0  0  0  0  0
   12.5594  -17.4396   24.3667 C   0  0  0  0  0  0  0  0  0  0  0  0
   11.8073  -16.6006   23.4547 C   0  0  0  0  0  0  0  0  0  0  0  0
   10.3448  -16.3971   23.4820 C   0  0  2  0  0  0  0  0  0  0  0  0
   10.1201  -15.4267   22.3702 N   0  0  0  0  0  0  0  0  0  0  0  0
    9.7474  -15.7570   24.6574 C   0  0  0  0  0  0  0  0  0  0  0  0
    9.6380  -16.4443   25.8925 O   0  0  0  0  0  0  0  0  0  0  0  0
    9.3121  -14.6018   24.6387 O   0  0  0  0  0  0  0  0  0  0  0  0
  2  1  1  6
  2  3  1  0
  3  4  1  0
  4  8  1  0
  4  5  2  0
  6 14  1  0
  6  2  1  0
  7  6  2  0
  9 10  1  0
 10 11  2  0
 12 10  1  0
 13 12  1  6
 13 14  1  0
 15 16  2  0
 15 13  1  0
 18 17  1  0
 19 18  2  0
 20 18  1  0
 21 20  1  0
 22 21  1  0
 22 23  1  0
 24 23  1  1
 24 26  1  0
 24 25  1  0
 25 15  1  0
 26 27  1  0
 28 26  2  0
M  END
$$$$
