DNR.pdb
     RDKit          3D

 28 27  0  0  1  0  0  0  0  0999 V2000
    9.3928  -17.6396   21.5723 N   0  0  0  0  0  0  0  0  0  0  0  0
   10.5886  -17.3941   22.3469 C   0  0  1  0  0  0  0  0  0  0  0  0
   11.7067  -16.8958   21.4196 C   0  0  0  0  0  0  0  0  0  0  0  0
   12.1009  -17.9217   20.4516 C   0  0  0  0  0  0  0  0  0  0  0  0
   11.6170  -19.0815   20.4541 O   0  0  0  0  0  0  0  0  0  0  0  0
   10.3578  -16.2723   23.3005 C   0  0  0  0  0  0  0  0  0  0  0  0
   11.2860  -15.8056   23.9889 O   0  0  0  0  0  0  0  0  0  0  0  0
   13.0541  -17.6297   19.4700 O   0  0  0  0  0  0  0  0  0  0  0  0
    8.0104  -12.6366   26.3138 N   0  0  0  0  0  0  0  0  0  0  0  0
    7.1578  -12.9503   25.2432 C   0  0  0  0  0  0  0  0  0  0  0  0
    6.1136  -12.2557   25.1087 O   0  0  0  0  0  0  0  0  0  0  0  0
    7.4340  -14.0230   24.3088 C   0  0  0  0  0  0  0  0  0  0  0  0
    8.7501  -14.7076   24.4415 C   0  0  2  0  0  0  0  0  0  0  0  0
    9.0498  -15.6928   23.4534 N   0  0  0  0  0  0  0  0  0  0  0  0
    8.8367  -15.3214   25.8030 C   0  0  0  0  0  0  0  0  0  0  0  0
    8.0096  -16.2205   26.0986 O   0  0  0  0  0  0  0  0  0  0  0  0
   14.6533  -19.8087   30.1307 N   0  0  0  0  0  0  0  0  0  0  0  0
   13.3192  -20.0863   30.5641 C   0  0  0  0  0  0  0  0  0  0  0  0
   13.1072  -21.2218   31.1680 N   0  0  0  0  0  0  0  0  0  0  0  0
   12.3076  -19.1476   30.3315 N   0  0  0  0  0  0  0  0  0  0  0  0
   12.3104  -18.3926   29.0537 C   0  0  0  0  0  0  0  0  0  0  0  0
   11.2134  -17.4132   29.1642 C   0  0  0  0  0  0  0  0  0  0  0  0
   10.8487  -16.5193   28.0829 C   0  0  0  0  0  0  0  0  0  0  0  0
    9.7347  -15.5500   28.1076 C   0  0  2  0  0  0  0  0  0  0  0  0
    9.7950  -14.9346   26.7489 N   0  0  0  0  0  0  0  0  0  0  0  0
    9.8129  -14.4148   29.0312 C   0  0  0  0  0  0  0  0  0  0  0  0
    9.6892  -14.5968   30.4317 O   0  0  0  0  0  0  0  0  0  0  0  0
    9.9877  -13.2542   28.6481 O   0  0  0  0  0  0  0  0  0  0  0  0
  2  1  1  6
  2  3  1  0
  3  4  1  0
  4  8  1  0
  4  5  2  0
  6 14  1  0
  6  2  1  0
  7  6  2  0
  9 10  1  0
 10 11  2  0
 12 10  1  0
 13 12  1  6
 13 14  1  0
 15 16  2  0
 15 13  1  0
 18 17  1  0
 19 18  2  0
 20 18  1  0
 21 20  1  0
 22 21  1  0
 22 23  1  0
 24 23  1  1
 24 26  1  0
 24 25  1  0
 25 15  1  0
 26 27  1  0
 28 26  2  0
M  END
$$$$
