WNF.pdb
     RDKit          3D

 34 36  0  0  1  0  0  0  0  0999 V2000
    8.7582  -17.5789   20.9566 N   0  0  0  0  0  0  0  0  0  0  0  0
    9.0490  -16.6040   21.9589 C   0  0  1  0  0  0  0  0  0  0  0  0
    7.8139  -15.8015   22.3642 C   0  0  0  0  0  0  0  0  0  0  0  0
    7.2472  -15.0273   21.2381 C   0  0  0  0  0  0  0  0  0  0  0  0
    6.0160  -15.2489   20.6371 C   0  0  0  0  0  0  0  0  0  0  0  0
    5.8394  -14.3476   19.6549 N   0  0  0  0  0  0  0  0  0  0  0  0
    6.9096  -13.5328   19.5789 C   0  0  0  0  0  0  0  0  0  0  0  0
    7.1936  -12.4624   18.7399 C   0  0  0  0  0  0  0  0  0  0  0  0
    8.3920  -11.8000   18.8963 C   0  0  0  0  0  0  0  0  0  0  0  0
    9.2707  -12.2102   19.8712 C   0  0  0  0  0  0  0  0  0  0  0  0
    8.9872  -13.2825   20.7129 C   0  0  0  0  0  0  0  0  0  0  0  0
    7.7879  -13.9479   20.5580 C   0  0  0  0  0  0  0  0  0  0  0  0
    9.6428  -17.1952   23.1843 C   0  0  0  0  0  0  0  0  0  0  0  0
    8.8442  -17.3321   24.1717 O   0  0  0  0  0  0  0  0  0  0  0  0
   12.0767  -21.0468   23.9619 N   0  0  0  0  0  0  0  0  0  0  0  0
   12.6079  -19.8204   23.5088 C   0  0  0  0  0  0  0  0  0  0  0  0
   12.9051  -19.6222   22.2908 O   0  0  0  0  0  0  0  0  0  0  0  0
   12.8456  -18.6857   24.4535 C   0  0  0  0  0  0  0  0  0  0  0  0
   11.5001  -17.9937   24.6342 C   0  0  2  0  0  0  0  0  0  0  0  0
   10.9824  -17.6027   23.3287 N   0  0  0  0  0  0  0  0  0  0  0  0
   11.6980  -16.8133   25.5083 C   0  0  0  0  0  0  0  0  0  0  0  0
   12.4512  -15.8842   25.1130 O   0  0  0  0  0  0  0  0  0  0  0  0
   11.0712  -16.6877   26.7739 N   0  0  0  0  0  0  0  0  0  0  0  0
   11.3288  -15.5679   27.6880 C   0  0  1  0  0  0  0  0  0  0  0  0
   10.8502  -14.2845   27.1094 C   0  0  0  0  0  0  0  0  0  0  0  0
    9.3829  -14.2926   26.9587 C   0  0  0  0  0  0  0  0  0  0  0  0
    8.7805  -15.0696   25.9598 C   0  0  0  0  0  0  0  0  0  0  0  0
    7.4234  -15.1200   25.8047 C   0  0  0  0  0  0  0  0  0  0  0  0
    6.5736  -14.4144   26.6152 C   0  0  0  0  0  0  0  0  0  0  0  0
    7.1331  -13.6377   27.6107 C   0  0  0  0  0  0  0  0  0  0  0  0
    8.5041  -13.5891   27.7654 C   0  0  0  0  0  0  0  0  0  0  0  0
   10.6511  -15.8538   28.9594 C   0  0  0  0  0  0  0  0  0  0  0  0
   10.6747  -15.0644   29.9228 O   0  0  0  0  0  0  0  0  0  0  0  0
    9.9352  -17.0631   29.1315 O   0  0  0  0  0  0  0  0  0  0  0  0
  2  1  1  6
  3  2  1  0
  4  5  2  0
  4  3  1  0
  6  5  1  0
  7 12  2  0
  7  6  1  0
  8  7  1  0
  9 10  1  0
  9  8  2  0
 10 11  2  0
 11 12  1  0
 12  4  1  0
 13  2  1  0
 14 13  2  0
 16 15  1  0
 17 16  2  0
 19 18  1  6
 18 16  1  0
 19 20  1  0
 20 13  1  0
 21 19  1  0
 22 21  2  0
 23 21  1  0
 24 23  1  0
 24 25  1  6
 25 26  1  0
 26 31  1  0
 27 26  2  0
 27 28  1  0
 28 29  2  0
 29 30  1  0
 31 30  2  0
 32 34  1  0
 32 24  1  0
 33 32  2  0
M  END
$$$$
