WNF.pdb
     RDKit          3D

 34 36  0  0  1  0  0  0  0  0999 V2000
    7.8946  -17.4835   22.6184 N   0  0  0  0  0  0  0  0  0  0  0  0
    8.7597  -16.7356   21.7629 C   0  0  1  0  0  0  0  0  0  0  0  0
    8.4045  -15.2501   21.7328 C   0  0  0  0  0  0  0  0  0  0  0  0
    7.4531  -14.8737   22.8013 C   0  0  0  0  0  0  0  0  0  0  0  0
    6.1330  -15.2908   22.8988 C   0  0  0  0  0  0  0  0  0  0  0  0
    5.5834  -14.7516   24.0012 N   0  0  0  0  0  0  0  0  0  0  0  0
    6.4900  -13.9888   24.6425 C   0  0  0  0  0  0  0  0  0  0  0  0
    6.4017  -13.2390   25.8088 C   0  0  0  0  0  0  0  0  0  0  0  0
    7.5144  -12.5464   26.2350 C   0  0  0  0  0  0  0  0  0  0  0  0
    8.6761  -12.6137   25.5025 C   0  0  0  0  0  0  0  0  0  0  0  0
    8.7661  -13.3651   24.3337 C   0  0  0  0  0  0  0  0  0  0  0  0
    7.6531  -14.0592   23.9044 C   0  0  0  0  0  0  0  0  0  0  0  0
   10.1912  -16.8646   22.1337 C   0  0  0  0  0  0  0  0  0  0  0  0
   11.0205  -16.7722   21.1667 O   0  0  0  0  0  0  0  0  0  0  0  0
   13.0774  -17.3278   21.2019 N   0  0  0  0  0  0  0  0  0  0  0  0
   13.3719  -16.1124   21.8558 C   0  0  0  0  0  0  0  0  0  0  0  0
   14.2193  -15.2866   21.3964 O   0  0  0  0  0  0  0  0  0  0  0  0
   12.6899  -15.7376   23.1328 C   0  0  0  0  0  0  0  0  0  0  0  0
   12.1149  -17.0285   23.7028 C   0  0  2  0  0  0  0  0  0  0  0  0
   10.6825  -17.0747   23.4360 N   0  0  0  0  0  0  0  0  0  0  0  0
   12.3906  -17.0573   25.1588 C   0  0  0  0  0  0  0  0  0  0  0  0
   13.5686  -16.8583   25.5579 O   0  0  0  0  0  0  0  0  0  0  0  0
   11.3787  -17.2995   26.1220 N   0  0  0  0  0  0  0  0  0  0  0  0
   11.6688  -17.6518   27.5176 C   0  0  1  0  0  0  0  0  0  0  0  0
   10.5921  -17.1732   28.4247 C   0  0  0  0  0  0  0  0  0  0  0  0
   10.3043  -15.7459   28.1888 C   0  0  0  0  0  0  0  0  0  0  0  0
    9.2760  -15.3686   27.3143 C   0  0  0  0  0  0  0  0  0  0  0  0
    8.9655  -14.0568   27.0886 C   0  0  0  0  0  0  0  0  0  0  0  0
    9.6407  -13.0351   27.7027 C   0  0  0  0  0  0  0  0  0  0  0  0
   10.6608  -13.3706   28.5712 C   0  0  0  0  0  0  0  0  0  0  0  0
   10.9718  -14.6963   28.7978 C   0  0  0  0  0  0  0  0  0  0  0  0
   11.8103  -19.1116   27.5978 C   0  0  0  0  0  0  0  0  0  0  0  0
   11.5259  -19.8648   26.6472 O   0  0  0  0  0  0  0  0  0  0  0  0
   12.2843  -19.7196   28.7854 O   0  0  0  0  0  0  0  0  0  0  0  0
  2  1  1  1
  3  2  1  0
  4  5  2  0
  4  3  1  0
  6  5  1  0
  7 12  2  0
  7  6  1  0
  8  7  1  0
  9 10  1  0
  9  8  2  0
 10 11  2  0
 11 12  1  0
 12  4  1  0
 13  2  1  0
 14 13  2  0
 16 15  1  0
 17 16  2  0
 19 18  1  1
 18 16  1  0
 19 20  1  0
 20 13  1  0
 21 19  1  0
 22 21  2  0
 23 21  1  0
 24 23  1  0
 24 25  1  1
 25 26  1  0
 26 31  1  0
 27 26  2  0
 27 28  1  0
 28 29  2  0
 29 30  1  0
 31 30  2  0
 32 34  1  0
 32 24  1  0
 33 32  2  0
M  END
$$$$
