WNF.pdb
     RDKit          3D

 34 36  0  0  1  0  0  0  0  0999 V2000
    7.0740  -19.3161   22.8883 N   0  0  0  0  0  0  0  0  0  0  0  0
    7.6798  -18.0239   22.8330 C   0  0  1  0  0  0  0  0  0  0  0  0
    6.8255  -16.9525   23.5084 C   0  0  0  0  0  0  0  0  0  0  0  0
    6.4780  -15.8446   22.5917 C   0  0  0  0  0  0  0  0  0  0  0  0
    5.4831  -15.8711   21.6244 C   0  0  0  0  0  0  0  0  0  0  0  0
    5.4558  -14.6849   20.9914 N   0  0  0  0  0  0  0  0  0  0  0  0
    6.3978  -13.8681   21.5018 C   0  0  0  0  0  0  0  0  0  0  0  0
    6.7531  -12.5626   21.1860 C   0  0  0  0  0  0  0  0  0  0  0  0
    7.7766  -11.9673   21.8913 C   0  0  0  0  0  0  0  0  0  0  0  0
    8.4163  -12.6731   22.8829 C   0  0  0  0  0  0  0  0  0  0  0  0
    8.0610  -13.9814   23.2006 C   0  0  0  0  0  0  0  0  0  0  0  0
    7.0367  -14.5801   22.4955 C   0  0  0  0  0  0  0  0  0  0  0  0
    9.0326  -17.9938   23.4434 C   0  0  0  0  0  0  0  0  0  0  0  0
    9.2344  -18.8430   24.3759 O   0  0  0  0  0  0  0  0  0  0  0  0
   12.5373  -18.2214   21.1649 N   0  0  0  0  0  0  0  0  0  0  0  0
   12.1941  -16.9107   21.5597 C   0  0  0  0  0  0  0  0  0  0  0  0
   11.6914  -16.0717   20.7507 O   0  0  0  0  0  0  0  0  0  0  0  0
   12.4079  -16.4466   22.9651 C   0  0  0  0  0  0  0  0  0  0  0  0
   11.3375  -17.1308   23.8066 C   0  0  2  0  0  0  0  0  0  0  0  0
   10.0754  -17.1221   23.0771 N   0  0  0  0  0  0  0  0  0  0  0  0
   11.2195  -16.4015   25.0915 C   0  0  0  0  0  0  0  0  0  0  0  0
   12.1645  -15.6513   25.4531 O   0  0  0  0  0  0  0  0  0  0  0  0
   10.0823  -16.5144   25.9308 N   0  0  0  0  0  0  0  0  0  0  0  0
   10.0444  -15.9931   27.3031 C   0  0  1  0  0  0  0  0  0  0  0  0
    8.6765  -15.5350   27.6632 C   0  0  0  0  0  0  0  0  0  0  0  0
    8.2125  -14.4885   26.7330 C   0  0  0  0  0  0  0  0  0  0  0  0
    8.7984  -13.2154   26.7541 C   0  0  0  0  0  0  0  0  0  0  0  0
    8.4106  -12.2280   25.8923 C   0  0  0  0  0  0  0  0  0  0  0  0
    7.4272  -12.4243   24.9588 C   0  0  0  0  0  0  0  0  0  0  0  0
    6.8276  -13.6675   24.9099 C   0  0  0  0  0  0  0  0  0  0  0  0
    7.2218  -14.6632   25.7812 C   0  0  0  0  0  0  0  0  0  0  0  0
   10.4941  -17.0599   28.2071 C   0  0  0  0  0  0  0  0  0  0  0  0
   10.6982  -18.2255   27.8175 O   0  0  0  0  0  0  0  0  0  0  0  0
   10.7132  -16.7888   29.5793 O   0  0  0  0  0  0  0  0  0  0  0  0
  2  1  1  1
  3  2  1  0
  4  5  2  0
  4  3  1  0
  6  5  1  0
  7 12  2  0
  7  6  1  0
  8  7  1  0
  9 10  1  0
  9  8  2  0
 10 11  2  0
 11 12  1  0
 12  4  1  0
 13  2  1  0
 14 13  2  0
 16 15  1  0
 17 16  2  0
 19 18  1  6
 18 16  1  0
 19 20  1  0
 20 13  1  0
 21 19  1  0
 22 21  2  0
 23 21  1  0
 24 23  1  0
 24 25  1  1
 25 26  1  0
 26 31  1  0
 27 26  2  0
 27 28  1  0
 28 29  2  0
 29 30  1  0
 31 30  2  0
 32 34  1  0
 32 24  1  0
 33 32  2  0
M  END
$$$$
