WNF.pdb
     RDKit          3D

 34 36  0  0  1  0  0  0  0  0999 V2000
    7.7843  -18.4228   20.7183 N   0  0  0  0  0  0  0  0  0  0  0  0
    8.2540  -17.3756   21.5682 C   0  0  1  0  0  0  0  0  0  0  0  0
    7.2234  -16.2610   21.7404 C   0  0  0  0  0  0  0  0  0  0  0  0
    7.1150  -15.4002   20.5421 C   0  0  0  0  0  0  0  0  0  0  0  0
    6.3253  -15.6517   19.4290 C   0  0  0  0  0  0  0  0  0  0  0  0
    6.4798  -14.6488   18.5464 N   0  0  0  0  0  0  0  0  0  0  0  0
    7.3452  -13.7373   19.0314 C   0  0  0  0  0  0  0  0  0  0  0  0
    7.8194  -12.5445   18.4996 C   0  0  0  0  0  0  0  0  0  0  0  0
    8.7161  -11.8023   19.2375 C   0  0  0  0  0  0  0  0  0  0  0  0
    9.1166  -12.2556   20.4723 C   0  0  0  0  0  0  0  0  0  0  0  0
    8.6419  -13.4506   21.0065 C   0  0  0  0  0  0  0  0  0  0  0  0
    7.7442  -14.1960   20.2694 C   0  0  0  0  0  0  0  0  0  0  0  0
    8.6473  -17.8582   22.9158 C   0  0  0  0  0  0  0  0  0  0  0  0
    7.6817  -18.1644   23.6939 O   0  0  0  0  0  0  0  0  0  0  0  0
   11.4263  -18.7494   22.4607 N   0  0  0  0  0  0  0  0  0  0  0  0
   11.8209  -19.5735   23.5362 C   0  0  0  0  0  0  0  0  0  0  0  0
   12.6527  -20.5213   23.3907 O   0  0  0  0  0  0  0  0  0  0  0  0
   11.2723  -19.3639   24.9114 C   0  0  0  0  0  0  0  0  0  0  0  0
   10.2335  -18.2557   24.7907 C   0  0  2  0  0  0  0  0  0  0  0  0
    9.9686  -17.9978   23.3806 N   0  0  0  0  0  0  0  0  0  0  0  0
   10.7619  -17.0473   25.4669 C   0  0  0  0  0  0  0  0  0  0  0  0
   11.6607  -16.3752   24.8949 O   0  0  0  0  0  0  0  0  0  0  0  0
   10.2942  -16.6165   26.7343 N   0  0  0  0  0  0  0  0  0  0  0  0
   10.9248  -15.5296   27.4939 C   0  0  1  0  0  0  0  0  0  0  0  0
   10.6508  -14.2098   26.8662 C   0  0  0  0  0  0  0  0  0  0  0  0
    9.2002  -13.9490   26.8067 C   0  0  0  0  0  0  0  0  0  0  0  0
    8.3626  -14.7876   26.0588 C   0  0  0  0  0  0  0  0  0  0  0  0
    7.0113  -14.5907   25.9987 C   0  0  0  0  0  0  0  0  0  0  0  0
    6.3973  -13.5630   26.6649 C   0  0  0  0  0  0  0  0  0  0  0  0
    7.1927  -12.7165   27.4121 C   0  0  0  0  0  0  0  0  0  0  0  0
    8.5571  -12.9181   27.4714 C   0  0  0  0  0  0  0  0  0  0  0  0
   10.4053  -15.5740   28.8671 C   0  0  0  0  0  0  0  0  0  0  0  0
   10.6922  -14.7119   29.7194 O   0  0  0  0  0  0  0  0  0  0  0  0
    9.5441  -16.6223   29.2719 O   0  0  0  0  0  0  0  0  0  0  0  0
  2  1  1  6
  3  2  1  0
  4  5  2  0
  4  3  1  0
  6  5  1  0
  7 12  2  0
  7  6  1  0
  8  7  1  0
  9 10  1  0
  9  8  2  0
 10 11  2  0
 11 12  1  0
 12  4  1  0
 13  2  1  0
 14 13  2  0
 16 15  1  0
 17 16  2  0
 19 18  1  6
 18 16  1  0
 19 20  1  0
 20 13  1  0
 21 19  1  0
 22 21  2  0
 23 21  1  0
 24 23  1  0
 24 25  1  6
 25 26  1  0
 26 31  1  0
 27 26  2  0
 27 28  1  0
 28 29  2  0
 29 30  1  0
 31 30  2  0
 32 34  1  0
 32 24  1  0
 33 32  2  0
M  END
$$$$
