WNF.pdb
     RDKit          3D

 34 36  0  0  1  0  0  0  0  0999 V2000
    9.0327  -18.4644   21.6253 N   0  0  0  0  0  0  0  0  0  0  0  0
    9.4445  -17.2260   22.2054 C   0  0  1  0  0  0  0  0  0  0  0  0
    8.2965  -16.5037   22.9084 C   0  0  0  0  0  0  0  0  0  0  0  0
    7.4018  -15.8050   21.9596 C   0  0  0  0  0  0  0  0  0  0  0  0
    6.0516  -16.0658   21.7728 C   0  0  0  0  0  0  0  0  0  0  0  0
    5.5696  -15.2307   20.8354 N   0  0  0  0  0  0  0  0  0  0  0  0
    6.5509  -14.4222   20.3899 C   0  0  0  0  0  0  0  0  0  0  0  0
    6.5478  -13.4088   19.4393 C   0  0  0  0  0  0  0  0  0  0  0  0
    7.7242  -12.7372   19.1857 C   0  0  0  0  0  0  0  0  0  0  0  0
    8.8635  -13.0825   19.8738 C   0  0  0  0  0  0  0  0  0  0  0  0
    8.8679  -14.0976   20.8268 C   0  0  0  0  0  0  0  0  0  0  0  0
    7.6912  -14.7721   21.0824 C   0  0  0  0  0  0  0  0  0  0  0  0
   10.5578  -17.3842   23.1744 C   0  0  0  0  0  0  0  0  0  0  0  0
   10.7007  -18.5562   23.6617 O   0  0  0  0  0  0  0  0  0  0  0  0
   14.4835  -16.8718   22.4832 N   0  0  0  0  0  0  0  0  0  0  0  0
   14.0901  -15.6403   23.0490 C   0  0  0  0  0  0  0  0  0  0  0  0
   14.1604  -14.5485   22.4055 O   0  0  0  0  0  0  0  0  0  0  0  0
   13.5652  -15.5656   24.4473 C   0  0  0  0  0  0  0  0  0  0  0  0
   12.4881  -16.6380   24.5552 C   0  0  2  0  0  0  0  0  0  0  0  0
   11.4393  -16.3646   23.5803 N   0  0  0  0  0  0  0  0  0  0  0  0
   11.9530  -16.6221   25.9373 C   0  0  0  0  0  0  0  0  0  0  0  0
   12.7322  -16.8779   26.8933 O   0  0  0  0  0  0  0  0  0  0  0  0
   10.5962  -16.3289   26.2266 N   0  0  0  0  0  0  0  0  0  0  0  0
   10.0108  -16.4831   27.5643 C   0  0  1  0  0  0  0  0  0  0  0  0
    8.6854  -15.8143   27.6481 C   0  0  0  0  0  0  0  0  0  0  0  0
    8.8130  -14.3656   27.4020 C   0  0  0  0  0  0  0  0  0  0  0  0
    9.5650  -13.5655   28.2730 C   0  0  0  0  0  0  0  0  0  0  0  0
    9.7245  -12.2241   28.0645 C   0  0  0  0  0  0  0  0  0  0  0  0
    9.1588  -11.5837   26.9936 C   0  0  0  0  0  0  0  0  0  0  0  0
    8.4105  -12.3417   26.1145 C   0  0  0  0  0  0  0  0  0  0  0  0
    8.2516  -13.6965   26.3272 C   0  0  0  0  0  0  0  0  0  0  0  0
    9.8908  -17.9198   27.8451 C   0  0  0  0  0  0  0  0  0  0  0  0
    9.6051  -18.3594   28.9751 O   0  0  0  0  0  0  0  0  0  0  0  0
   10.1019  -18.8692   26.8161 O   0  0  0  0  0  0  0  0  0  0  0  0
  2  1  1  1
  3  2  1  0
  4  5  2  0
  4  3  1  0
  6  5  1  0
  7 12  2  0
  7  6  1  0
  8  7  1  0
  9 10  1  0
  9  8  2  0
 10 11  2  0
 11 12  1  0
 12  4  1  0
 13  2  1  0
 14 13  2  0
 16 15  1  0
 17 16  2  0
 19 18  1  1
 18 16  1  0
 19 20  1  0
 20 13  1  0
 21 19  1  0
 22 21  2  0
 23 21  1  0
 24 23  1  0
 24 25  1  6
 25 26  1  0
 26 31  1  0
 27 26  2  0
 27 28  1  0
 28 29  2  0
 29 30  1  0
 31 30  2  0
 32 34  1  0
 32 24  1  0
 33 32  2  0
M  END
$$$$
