WNF.pdb
     RDKit          3D

 34 36  0  0  1  0  0  0  0  0999 V2000
    7.7325  -18.0495   22.1703 N   0  0  0  0  0  0  0  0  0  0  0  0
    9.0102  -17.4149   22.1023 C   0  0  1  0  0  0  0  0  0  0  0  0
    8.9291  -15.9148   22.3795 C   0  0  0  0  0  0  0  0  0  0  0  0
    7.9264  -15.2355   21.5300 C   0  0  0  0  0  0  0  0  0  0  0  0
    6.5536  -15.4344   21.5750 C   0  0  0  0  0  0  0  0  0  0  0  0
    5.9657  -14.6409   20.6623 N   0  0  0  0  0  0  0  0  0  0  0  0
    6.8979  -13.9199   20.0094 C   0  0  0  0  0  0  0  0  0  0  0  0
    6.7880  -12.9759   18.9959 C   0  0  0  0  0  0  0  0  0  0  0  0
    7.9372  -12.3887   18.5124 C   0  0  0  0  0  0  0  0  0  0  0  0
    9.1552  -12.7473   19.0402 C   0  0  0  0  0  0  0  0  0  0  0  0
    9.2667  -13.6929   20.0561 C   0  0  0  0  0  0  0  0  0  0  0  0
    8.1174  -14.2829   20.5418 C   0  0  0  0  0  0  0  0  0  0  0  0
    9.9999  -18.0081   23.0361 C   0  0  0  0  0  0  0  0  0  0  0  0
   10.3827  -19.1932   22.7522 O   0  0  0  0  0  0  0  0  0  0  0  0
   14.5973  -19.0826   24.1225 N   0  0  0  0  0  0  0  0  0  0  0  0
   14.2223  -17.7226   24.0846 C   0  0  0  0  0  0  0  0  0  0  0  0
   14.9961  -16.7976   24.4805 O   0  0  0  0  0  0  0  0  0  0  0  0
   12.8821  -17.3052   23.5690 C   0  0  0  0  0  0  0  0  0  0  0  0
   11.8732  -17.6939   24.6427 C   0  0  2  0  0  0  0  0  0  0  0  0
   10.5294  -17.3751   24.1765 N   0  0  0  0  0  0  0  0  0  0  0  0
   12.2021  -16.9491   25.8812 C   0  0  0  0  0  0  0  0  0  0  0  0
   12.5573  -15.7441   25.7891 O   0  0  0  0  0  0  0  0  0  0  0  0
   12.1315  -17.5400   27.1681 N   0  0  0  0  0  0  0  0  0  0  0  0
   11.1056  -17.1859   28.1573 C   0  0  1  0  0  0  0  0  0  0  0  0
    9.7688  -17.0589   27.5188 C   0  0  0  0  0  0  0  0  0  0  0  0
    9.3760  -15.6418   27.4031 C   0  0  0  0  0  0  0  0  0  0  0  0
   10.1629  -14.6413   27.9898 C   0  0  0  0  0  0  0  0  0  0  0  0
    9.8430  -13.3167   27.8842 C   0  0  0  0  0  0  0  0  0  0  0  0
    8.7355  -12.8898   27.2000 C   0  0  0  0  0  0  0  0  0  0  0  0
    7.9369  -13.8491   26.6090 C   0  0  0  0  0  0  0  0  0  0  0  0
    8.2627  -15.1862   26.7168 C   0  0  0  0  0  0  0  0  0  0  0  0
   11.0942  -18.2275   29.1929 C   0  0  0  0  0  0  0  0  0  0  0  0
   11.1885  -19.4401   28.9236 O   0  0  0  0  0  0  0  0  0  0  0  0
   10.9720  -17.8759   30.5589 O   0  0  0  0  0  0  0  0  0  0  0  0
  2  1  1  1
  3  2  1  0
  4  5  2  0
  4  3  1  0
  6  5  1  0
  7 12  2  0
  7  6  1  0
  8  7  1  0
  9 10  1  0
  9  8  2  0
 10 11  2  0
 11 12  1  0
 12  4  1  0
 13  2  1  0
 14 13  2  0
 16 15  1  0
 17 16  2  0
 19 18  1  6
 18 16  1  0
 19 20  1  0
 20 13  1  0
 21 19  1  0
 22 21  2  0
 23 21  1  0
 24 23  1  0
 24 25  1  6
 25 26  1  0
 26 31  1  0
 27 26  2  0
 27 28  1  0
 28 29  2  0
 29 30  1  0
 31 30  2  0
 32 34  1  0
 32 24  1  0
 33 32  2  0
M  END
$$$$
