WNF.pdb
     RDKit          3D

 34 36  0  0  1  0  0  0  0  0999 V2000
    8.1352  -18.3228   21.2084 N   0  0  0  0  0  0  0  0  0  0  0  0
    8.7846  -17.3740   22.0556 C   0  0  1  0  0  0  0  0  0  0  0  0
    7.7926  -16.4526   22.7633 C   0  0  0  0  0  0  0  0  0  0  0  0
    7.1172  -15.5244   21.8300 C   0  0  0  0  0  0  0  0  0  0  0  0
    5.7721  -15.5496   21.4893 C   0  0  0  0  0  0  0  0  0  0  0  0
    5.5210  -14.5530   20.6220 N   0  0  0  0  0  0  0  0  0  0  0  0
    6.6514  -13.8640   20.3717 C   0  0  0  0  0  0  0  0  0  0  0  0
    6.8984  -12.7657   19.5574 C   0  0  0  0  0  0  0  0  0  0  0  0
    8.1800  -12.2624   19.4977 C   0  0  0  0  0  0  0  0  0  0  0  0
    9.1755  -12.8536   20.2395 C   0  0  0  0  0  0  0  0  0  0  0  0
    8.9292  -13.9540   21.0561 C   0  0  0  0  0  0  0  0  0  0  0  0
    7.6467  -14.4604   21.1174 C   0  0  0  0  0  0  0  0  0  0  0  0
    9.6434  -18.0117   23.0848 C   0  0  0  0  0  0  0  0  0  0  0  0
   10.0284  -19.2006   22.8204 O   0  0  0  0  0  0  0  0  0  0  0  0
   12.9280  -17.3861   21.2006 N   0  0  0  0  0  0  0  0  0  0  0  0
   12.7825  -17.5596   22.5935 C   0  0  0  0  0  0  0  0  0  0  0  0
   13.1886  -18.6040   23.1899 O   0  0  0  0  0  0  0  0  0  0  0  0
   12.1377  -16.5085   23.4394 C   0  0  0  0  0  0  0  0  0  0  0  0
   11.4666  -17.2435   24.5932 C   0  0  2  0  0  0  0  0  0  0  0  0
   10.0504  -17.4158   24.2934 N   0  0  0  0  0  0  0  0  0  0  0  0
   11.6604  -16.4465   25.8277 C   0  0  0  0  0  0  0  0  0  0  0  0
   12.8297  -16.2782   26.2647 O   0  0  0  0  0  0  0  0  0  0  0  0
   10.5796  -15.8640   26.5371 N   0  0  0  0  0  0  0  0  0  0  0  0
   10.5107  -15.8272   28.0034 C   0  0  1  0  0  0  0  0  0  0  0  0
    9.1308  -15.5232   28.4662 C   0  0  0  0  0  0  0  0  0  0  0  0
    8.5233  -14.4621   27.6410 C   0  0  0  0  0  0  0  0  0  0  0  0
    9.1154  -13.1935   27.5749 C   0  0  0  0  0  0  0  0  0  0  0  0
    8.5942  -12.1929   26.8034 C   0  0  0  0  0  0  0  0  0  0  0  0
    7.4634  -12.3710   26.0507 C   0  0  0  0  0  0  0  0  0  0  0  0
    6.8533  -13.6094   26.0919 C   0  0  0  0  0  0  0  0  0  0  0  0
    7.3823  -14.6183   26.8717 C   0  0  0  0  0  0  0  0  0  0  0  0
   10.9581  -17.1305   28.5122 C   0  0  0  0  0  0  0  0  0  0  0  0
   10.8177  -18.1857   27.8651 O   0  0  0  0  0  0  0  0  0  0  0  0
   11.5757  -17.2280   29.7825 O   0  0  0  0  0  0  0  0  0  0  0  0
  2  1  1  1
  3  2  1  0
  4  5  2  0
  4  3  1  0
  6  5  1  0
  7 12  2  0
  7  6  1  0
  8  7  1  0
  9 10  1  0
  9  8  2  0
 10 11  2  0
 11 12  1  0
 12  4  1  0
 13  2  1  0
 14 13  2  0
 16 15  1  0
 17 16  2  0
 19 18  1  6
 18 16  1  0
 19 20  1  0
 20 13  1  0
 21 19  1  0
 22 21  2  0
 23 21  1  0
 24 23  1  0
 24 25  1  6
 25 26  1  0
 26 31  1  0
 27 26  2  0
 27 28  1  0
 28 29  2  0
 29 30  1  0
 31 30  2  0
 32 34  1  0
 32 24  1  0
 33 32  2  0
M  END
$$$$
