WNF.pdb
     RDKit          3D

 34 36  0  0  1  0  0  0  0  0999 V2000
    6.3195  -18.1189   23.7786 N   0  0  0  0  0  0  0  0  0  0  0  0
    7.1050  -16.9264   23.7513 C   0  0  1  0  0  0  0  0  0  0  0  0
    7.6375  -16.5499   25.1328 C   0  0  0  0  0  0  0  0  0  0  0  0
    6.8169  -15.5101   25.7917 C   0  0  0  0  0  0  0  0  0  0  0  0
    5.7711  -15.7382   26.6751 C   0  0  0  0  0  0  0  0  0  0  0  0
    5.2670  -14.5563   27.0719 N   0  0  0  0  0  0  0  0  0  0  0  0
    5.9394  -13.5477   26.4840 C   0  0  0  0  0  0  0  0  0  0  0  0
    5.7949  -12.1688   26.5754 C   0  0  0  0  0  0  0  0  0  0  0  0
    6.6437  -11.3655   25.8450 C   0  0  0  0  0  0  0  0  0  0  0  0
    7.6059  -11.9426   25.0500 C   0  0  0  0  0  0  0  0  0  0  0  0
    7.7520  -13.3242   24.9578 C   0  0  0  0  0  0  0  0  0  0  0  0
    6.9029  -14.1310   25.6879 C   0  0  0  0  0  0  0  0  0  0  0  0
    8.2552  -17.0140   22.8170 C   0  0  0  0  0  0  0  0  0  0  0  0
    8.5261  -18.1855   22.3862 O   0  0  0  0  0  0  0  0  0  0  0  0
    7.9935  -14.0406   19.9761 N   0  0  0  0  0  0  0  0  0  0  0  0
    8.9028  -15.1053   19.7997 C   0  0  0  0  0  0  0  0  0  0  0  0
    8.6263  -16.1181   19.0863 O   0  0  0  0  0  0  0  0  0  0  0  0
   10.2488  -15.0873   20.4511 C   0  0  0  0  0  0  0  0  0  0  0  0
   10.2087  -16.1523   21.5401 C   0  0  2  0  0  0  0  0  0  0  0  0
    9.0428  -15.9297   22.3863 N   0  0  0  0  0  0  0  0  0  0  0  0
   11.4643  -16.0645   22.3228 C   0  0  0  0  0  0  0  0  0  0  0  0
   12.5631  -16.0404   21.7075 O   0  0  0  0  0  0  0  0  0  0  0  0
   11.4774  -16.0054   23.7394 N   0  0  0  0  0  0  0  0  0  0  0  0
   12.5511  -16.5859   24.5556 C   0  0  1  0  0  0  0  0  0  0  0  0
   12.0015  -17.2554   25.7641 C   0  0  0  0  0  0  0  0  0  0  0  0
   11.2286  -16.3038   26.5844 C   0  0  0  0  0  0  0  0  0  0  0  0
   10.9160  -15.0325   26.0839 C   0  0  0  0  0  0  0  0  0  0  0  0
   10.1825  -14.1330   26.8056 C   0  0  0  0  0  0  0  0  0  0  0  0
    9.7108  -14.4207   28.0593 C   0  0  0  0  0  0  0  0  0  0  0  0
   10.0003  -15.6650   28.5841 C   0  0  0  0  0  0  0  0  0  0  0  0
   10.7408  -16.5718   27.8526 C   0  0  0  0  0  0  0  0  0  0  0  0
   13.2919  -17.5401   23.7200 C   0  0  0  0  0  0  0  0  0  0  0  0
   12.7460  -18.2056   22.8194 O   0  0  0  0  0  0  0  0  0  0  0  0
   14.6799  -17.7365   23.9185 O   0  0  0  0  0  0  0  0  0  0  0  0
  2  1  1  1
  3  2  1  0
  4  5  2  0
  4  3  1  0
  6  5  1  0
  7 12  2  0
  7  6  1  0
  8  7  1  0
  9 10  1  0
  9  8  2  0
 10 11  2  0
 11 12  1  0
 12  4  1  0
 13  2  1  0
 14 13  2  0
 16 15  1  0
 17 16  2  0
 19 18  1  6
 18 16  1  0
 19 20  1  0
 20 13  1  0
 21 19  1  0
 22 21  2  0
 23 21  1  0
 24 23  1  0
 24 25  1  1
 25 26  1  0
 26 31  1  0
 27 26  2  0
 27 28  1  0
 28 29  2  0
 29 30  1  0
 31 30  2  0
 32 34  1  0
 32 24  1  0
 33 32  2  0
M  END
$$$$
