WNF.pdb
     RDKit          3D

 34 36  0  0  1  0  0  0  0  0999 V2000
    7.0685  -17.9284   21.7536 N   0  0  0  0  0  0  0  0  0  0  0  0
    7.8286  -16.9921   22.5186 C   0  0  1  0  0  0  0  0  0  0  0  0
    7.0211  -16.3881   23.6662 C   0  0  0  0  0  0  0  0  0  0  0  0
    7.2154  -14.9265   23.7872 C   0  0  0  0  0  0  0  0  0  0  0  0
    7.8447  -14.1101   22.8580 C   0  0  0  0  0  0  0  0  0  0  0  0
    7.8276  -12.8423   23.3059 N   0  0  0  0  0  0  0  0  0  0  0  0
    7.2095  -12.7840   24.5015 C   0  0  0  0  0  0  0  0  0  0  0  0
    6.9464  -11.7161   25.3504 C   0  0  0  0  0  0  0  0  0  0  0  0
    6.2821  -11.9601   26.5330 C   0  0  0  0  0  0  0  0  0  0  0  0
    5.8982  -13.2437   26.8422 C   0  0  0  0  0  0  0  0  0  0  0  0
    6.1611  -14.3148   25.9923 C   0  0  0  0  0  0  0  0  0  0  0  0
    6.8266  -14.0733   24.8075 C   0  0  0  0  0  0  0  0  0  0  0  0
    9.0702  -17.5796   23.0817 C   0  0  0  0  0  0  0  0  0  0  0  0
    8.9095  -18.6297   23.7909 O   0  0  0  0  0  0  0  0  0  0  0  0
   12.2519  -18.4507   20.7488 N   0  0  0  0  0  0  0  0  0  0  0  0
   12.5388  -17.2451   21.4240 C   0  0  0  0  0  0  0  0  0  0  0  0
   12.5892  -16.1292   20.8212 O   0  0  0  0  0  0  0  0  0  0  0  0
   12.7973  -17.2276   22.8967 C   0  0  0  0  0  0  0  0  0  0  0  0
   11.5087  -17.6975   23.5605 C   0  0  2  0  0  0  0  0  0  0  0  0
   10.3711  -17.0757   22.8939 N   0  0  0  0  0  0  0  0  0  0  0  0
   11.5606  -17.3235   24.9937 C   0  0  0  0  0  0  0  0  0  0  0  0
   12.4010  -16.4625   25.3666 O   0  0  0  0  0  0  0  0  0  0  0  0
   10.6995  -17.8968   25.9633 N   0  0  0  0  0  0  0  0  0  0  0  0
   10.9318  -17.7828   27.4087 C   0  0  1  0  0  0  0  0  0  0  0  0
    9.8216  -17.0493   28.0723 C   0  0  0  0  0  0  0  0  0  0  0  0
   10.0157  -15.5914   27.9595 C   0  0  0  0  0  0  0  0  0  0  0  0
    9.6485  -14.9194   26.7856 C   0  0  0  0  0  0  0  0  0  0  0  0
    9.7922  -13.5667   26.6533 C   0  0  0  0  0  0  0  0  0  0  0  0
   10.3034  -12.7893   27.6589 C   0  0  0  0  0  0  0  0  0  0  0  0
   10.6760  -13.4186   28.8305 C   0  0  0  0  0  0  0  0  0  0  0  0
   10.5292  -14.7850   28.9616 C   0  0  0  0  0  0  0  0  0  0  0  0
   11.0637  -19.1394   27.9562 C   0  0  0  0  0  0  0  0  0  0  0  0
   10.8355  -20.1596   27.2787 O   0  0  0  0  0  0  0  0  0  0  0  0
   11.4626  -19.3317   29.3009 O   0  0  0  0  0  0  0  0  0  0  0  0
  2  1  1  1
  3  2  1  0
  4  5  2  0
  4  3  1  0
  6  5  1  0
  7 12  2  0
  7  6  1  0
  8  7  1  0
  9 10  1  0
  9  8  2  0
 10 11  2  0
 11 12  1  0
 12  4  1  0
 13  2  1  0
 14 13  2  0
 16 15  1  0
 17 16  2  0
 19 18  1  6
 18 16  1  0
 19 20  1  0
 20 13  1  0
 21 19  1  0
 22 21  2  0
 23 21  1  0
 24 23  1  0
 24 25  1  1
 25 26  1  0
 26 31  1  0
 27 26  2  0
 27 28  1  0
 28 29  2  0
 29 30  1  0
 31 30  2  0
 32 34  1  0
 32 24  1  0
 33 32  2  0
M  END
$$$$
