WNF.pdb
     RDKit          3D

 34 36  0  0  1  0  0  0  0  0999 V2000
    6.7874  -18.7400   22.7351 N   0  0  0  0  0  0  0  0  0  0  0  0
    7.6165  -17.5829   22.6192 C   0  0  1  0  0  0  0  0  0  0  0  0
    6.8947  -16.3060   23.0466 C   0  0  0  0  0  0  0  0  0  0  0  0
    6.8038  -15.3140   21.9529 C   0  0  0  0  0  0  0  0  0  0  0  0
    6.0239  -15.4318   20.8110 C   0  0  0  0  0  0  0  0  0  0  0  0
    6.1936  -14.3364   20.0496 N   0  0  0  0  0  0  0  0  0  0  0  0
    7.0596  -13.4922   20.6430 C   0  0  0  0  0  0  0  0  0  0  0  0
    7.5466  -12.2502   20.2546 C   0  0  0  0  0  0  0  0  0  0  0  0
    8.4403  -11.6031   21.0804 C   0  0  0  0  0  0  0  0  0  0  0  0
    8.8254  -12.1966   22.2595 C   0  0  0  0  0  0  0  0  0  0  0  0
    8.3379  -13.4409   22.6500 C   0  0  0  0  0  0  0  0  0  0  0  0
    7.4431  -14.0913   21.8247 C   0  0  0  0  0  0  0  0  0  0  0  0
    8.8728  -17.6920   23.4024 C   0  0  0  0  0  0  0  0  0  0  0  0
    8.7607  -18.2464   24.5477 O   0  0  0  0  0  0  0  0  0  0  0  0
   12.3709  -15.4936   21.2028 N   0  0  0  0  0  0  0  0  0  0  0  0
   12.1580  -16.7985   21.6963 C   0  0  0  0  0  0  0  0  0  0  0  0
   11.6168  -17.7062   20.9932 O   0  0  0  0  0  0  0  0  0  0  0  0
   12.5668  -17.1754   23.0845 C   0  0  0  0  0  0  0  0  0  0  0  0
   11.2789  -17.2903   23.8907 C   0  0  2  0  0  0  0  0  0  0  0  0
   10.1389  -17.2414   22.9836 N   0  0  0  0  0  0  0  0  0  0  0  0
   11.2383  -16.1732   24.8640 C   0  0  0  0  0  0  0  0  0  0  0  0
   12.0417  -15.2137   24.7210 O   0  0  0  0  0  0  0  0  0  0  0  0
   10.3286  -16.1414   25.9510 N   0  0  0  0  0  0  0  0  0  0  0  0
   10.6419  -15.5116   27.2399 C   0  0  1  0  0  0  0  0  0  0  0  0
   10.4497  -14.0385   27.1758 C   0  0  0  0  0  0  0  0  0  0  0  0
    9.2584  -13.7000   26.3746 C   0  0  0  0  0  0  0  0  0  0  0  0
    8.0427  -14.3584   26.6049 C   0  0  0  0  0  0  0  0  0  0  0  0
    6.9126  -14.0556   25.8983 C   0  0  0  0  0  0  0  0  0  0  0  0
    6.9020  -13.0922   24.9243 C   0  0  0  0  0  0  0  0  0  0  0  0
    8.0832  -12.4229   24.6706 C   0  0  0  0  0  0  0  0  0  0  0  0
    9.2229  -12.7304   25.3863 C   0  0  0  0  0  0  0  0  0  0  0  0
    9.7716  -16.1090   28.2612 C   0  0  0  0  0  0  0  0  0  0  0  0
    8.8721  -16.9239   27.9805 O   0  0  0  0  0  0  0  0  0  0  0  0
    9.9326  -15.7679   29.6259 O   0  0  0  0  0  0  0  0  0  0  0  0
  2  1  1  1
  3  2  1  0
  4  5  2  0
  4  3  1  0
  6  5  1  0
  7 12  2  0
  7  6  1  0
  8  7  1  0
  9 10  1  0
  9  8  2  0
 10 11  2  0
 11 12  1  0
 12  4  1  0
 13  2  1  0
 14 13  2  0
 16 15  1  0
 17 16  2  0
 19 18  1  6
 18 16  1  0
 19 20  1  0
 20 13  1  0
 21 19  1  0
 22 21  2  0
 23 21  1  0
 24 23  1  0
 24 25  1  6
 25 26  1  0
 26 31  1  0
 27 26  2  0
 27 28  1  0
 28 29  2  0
 29 30  1  0
 31 30  2  0
 32 34  1  0
 32 24  1  0
 33 32  2  0
M  END
$$$$
