WNF.pdb
     RDKit          3D

 34 36  0  0  1  0  0  0  0  0999 V2000
    7.8259  -17.6191   21.2677 N   0  0  0  0  0  0  0  0  0  0  0  0
    8.3541  -16.8320   22.3360 C   0  0  1  0  0  0  0  0  0  0  0  0
    7.3614  -15.7805   22.8286 C   0  0  0  0  0  0  0  0  0  0  0  0
    6.9836  -14.8187   21.7699 C   0  0  0  0  0  0  0  0  0  0  0  0
    5.7129  -14.6537   21.2369 C   0  0  0  0  0  0  0  0  0  0  0  0
    5.7517  -13.6870   20.3028 N   0  0  0  0  0  0  0  0  0  0  0  0
    7.0036  -13.2016   20.1935 C   0  0  0  0  0  0  0  0  0  0  0  0
    7.5383  -12.2096   19.3807 C   0  0  0  0  0  0  0  0  0  0  0  0
    8.8810  -11.9188   19.4894 C   0  0  0  0  0  0  0  0  0  0  0  0
    9.6534  -12.6109   20.3923 C   0  0  0  0  0  0  0  0  0  0  0  0
    9.1187  -13.6049   21.2076 C   0  0  0  0  0  0  0  0  0  0  0  0
    7.7744  -13.8985   21.1004 C   0  0  0  0  0  0  0  0  0  0  0  0
    8.7815  -17.6497   23.4989 C   0  0  0  0  0  0  0  0  0  0  0  0
    8.0143  -18.6266   23.7963 O   0  0  0  0  0  0  0  0  0  0  0  0
   13.7035  -17.7274   25.4132 N   0  0  0  0  0  0  0  0  0  0  0  0
   12.5769  -17.9841   24.6029 C   0  0  0  0  0  0  0  0  0  0  0  0
   12.3385  -17.3197   23.5480 O   0  0  0  0  0  0  0  0  0  0  0  0
   11.6035  -19.0638   24.9535 C   0  0  0  0  0  0  0  0  0  0  0  0
   10.3060  -18.3602   25.3321 C   0  0  2  0  0  0  0  0  0  0  0  0
    9.9374  -17.4302   24.2718 N   0  0  0  0  0  0  0  0  0  0  0  0
   10.5186  -17.6522   26.6167 C   0  0  0  0  0  0  0  0  0  0  0  0
   10.7614  -18.3295   27.6506 O   0  0  0  0  0  0  0  0  0  0  0  0
   10.4606  -16.2399   26.7278 N   0  0  0  0  0  0  0  0  0  0  0  0
   10.4197  -15.5387   28.0173 C   0  0  1  0  0  0  0  0  0  0  0  0
    9.0477  -15.0498   28.3167 C   0  0  0  0  0  0  0  0  0  0  0  0
    8.5424  -14.2028   27.2199 C   0  0  0  0  0  0  0  0  0  0  0  0
    7.4490  -14.6230   26.4503 C   0  0  0  0  0  0  0  0  0  0  0  0
    6.9389  -13.8550   25.4412 C   0  0  0  0  0  0  0  0  0  0  0  0
    7.4662  -12.6312   25.1229 C   0  0  0  0  0  0  0  0  0  0  0  0
    8.5451  -12.1856   25.8611 C   0  0  0  0  0  0  0  0  0  0  0  0
    9.0578  -12.9631   26.8801 C   0  0  0  0  0  0  0  0  0  0  0  0
   10.8819  -16.4693   29.0555 C   0  0  0  0  0  0  0  0  0  0  0  0
   11.0752  -17.6795   28.8316 O   0  0  0  0  0  0  0  0  0  0  0  0
   11.1261  -16.0079   30.3716 O   0  0  0  0  0  0  0  0  0  0  0  0
  2  1  1  6
  3  2  1  0
  4  5  2  0
  4  3  1  0
  6  5  1  0
  7 12  2  0
  7  6  1  0
  8  7  1  0
  9 10  1  0
  9  8  2  0
 10 11  2  0
 11 12  1  0
 12  4  1  0
 13  2  1  0
 14 13  2  0
 16 15  1  0
 17 16  2  0
 19 18  1  6
 18 16  1  0
 19 20  1  0
 20 13  1  0
 21 19  1  0
 22 21  2  0
 23 21  1  0
 24 23  1  0
 24 25  1  1
 25 26  1  0
 26 31  1  0
 27 26  2  0
 27 28  1  0
 28 29  2  0
 29 30  1  0
 31 30  2  0
 32 34  1  0
 32 24  1  0
 33 32  2  0
M  END
$$$$
