WNF.pdb
     RDKit          3D

 34 36  0  0  1  0  0  0  0  0999 V2000
    6.5297  -18.7425   23.9953 N   0  0  0  0  0  0  0  0  0  0  0  0
    7.2580  -17.7744   23.2390 C   0  0  1  0  0  0  0  0  0  0  0  0
    6.6667  -16.3717   23.3684 C   0  0  0  0  0  0  0  0  0  0  0  0
    6.5210  -15.6959   22.0604 C   0  0  0  0  0  0  0  0  0  0  0  0
    5.5795  -16.0015   21.0877 C   0  0  0  0  0  0  0  0  0  0  0  0
    5.7477  -15.1753   20.0401 N   0  0  0  0  0  0  0  0  0  0  0  0
    6.7687  -14.3295   20.2794 C   0  0  0  0  0  0  0  0  0  0  0  0
    7.3169  -13.3085   19.5129 C   0  0  0  0  0  0  0  0  0  0  0  0
    8.3784  -12.5945   20.0254 C   0  0  0  0  0  0  0  0  0  0  0  0
    8.8656  -12.9063   21.2729 C   0  0  0  0  0  0  0  0  0  0  0  0
    8.3170  -13.9290   22.0421 C   0  0  0  0  0  0  0  0  0  0  0  0
    7.2541  -14.6460   21.5310 C   0  0  0  0  0  0  0  0  0  0  0  0
    8.6933  -17.7108   23.6123 C   0  0  0  0  0  0  0  0  0  0  0  0
    9.0227  -18.3820   24.6479 O   0  0  0  0  0  0  0  0  0  0  0  0
   11.2505  -16.5389   19.7232 N   0  0  0  0  0  0  0  0  0  0  0  0
   11.6796  -17.2309   20.8758 C   0  0  0  0  0  0  0  0  0  0  0  0
   11.8634  -18.4868   20.8800 O   0  0  0  0  0  0  0  0  0  0  0  0
   11.9417  -16.5075   22.1581 C   0  0  0  0  0  0  0  0  0  0  0  0
   11.0966  -17.2021   23.2189 C   0  0  2  0  0  0  0  0  0  0  0  0
    9.6852  -16.9854   22.9256 N   0  0  0  0  0  0  0  0  0  0  0  0
   11.4613  -16.6441   24.5427 C   0  0  0  0  0  0  0  0  0  0  0  0
   12.6770  -16.6007   24.8695 O   0  0  0  0  0  0  0  0  0  0  0  0
   10.4940  -16.1554   25.4570 N   0  0  0  0  0  0  0  0  0  0  0  0
   10.8350  -15.6676   26.7994 C   0  0  1  0  0  0  0  0  0  0  0  0
   10.4613  -14.2373   26.9593 C   0  0  0  0  0  0  0  0  0  0  0  0
    9.0045  -14.0935   27.1400 C   0  0  0  0  0  0  0  0  0  0  0  0
    8.4683  -12.8907   27.6199 C   0  0  0  0  0  0  0  0  0  0  0  0
    7.1225  -12.7128   27.7785 C   0  0  0  0  0  0  0  0  0  0  0  0
    6.2197  -13.6988   27.4786 C   0  0  0  0  0  0  0  0  0  0  0  0
    6.7132  -14.8979   27.0032 C   0  0  0  0  0  0  0  0  0  0  0  0
    8.0730  -15.0746   26.8435 C   0  0  0  0  0  0  0  0  0  0  0  0
   10.1313  -16.5052   27.7796 C   0  0  0  0  0  0  0  0  0  0  0  0
   10.2214  -16.3173   29.0078 O   0  0  0  0  0  0  0  0  0  0  0  0
    9.3115  -17.5756   27.3475 O   0  0  0  0  0  0  0  0  0  0  0  0
  2  1  1  1
  3  2  1  0
  4  5  2  0
  4  3  1  0
  6  5  1  0
  7 12  2  0
  7  6  1  0
  8  7  1  0
  9 10  1  0
  9  8  2  0
 10 11  2  0
 11 12  1  0
 12  4  1  0
 13  2  1  0
 14 13  2  0
 16 15  1  0
 17 16  2  0
 19 18  1  6
 18 16  1  0
 19 20  1  0
 20 13  1  0
 21 19  1  0
 22 21  2  0
 23 21  1  0
 24 23  1  0
 24 25  1  6
 25 26  1  0
 26 31  1  0
 27 26  2  0
 27 28  1  0
 28 29  2  0
 29 30  1  0
 31 30  2  0
 32 34  1  0
 32 24  1  0
 33 32  2  0
M  END
$$$$
