WNF.pdb
     RDKit          3D

 34 36  0  0  1  0  0  0  0  0999 V2000
    8.3592  -19.1972   21.9365 N   0  0  0  0  0  0  0  0  0  0  0  0
    8.9091  -17.9140   22.2377 C   0  0  1  0  0  0  0  0  0  0  0  0
    7.9982  -17.0904   23.1464 C   0  0  0  0  0  0  0  0  0  0  0  0
    7.2607  -16.0416   22.4083 C   0  0  0  0  0  0  0  0  0  0  0  0
    5.9074  -16.0622   22.1013 C   0  0  0  0  0  0  0  0  0  0  0  0
    5.5934  -14.9402   21.4298 N   0  0  0  0  0  0  0  0  0  0  0  0
    6.6896  -14.1720   21.2775 C   0  0  0  0  0  0  0  0  0  0  0  0
    6.8711  -12.9387   20.6640 C   0  0  0  0  0  0  0  0  0  0  0  0
    8.1310  -12.3802   20.6628 C   0  0  0  0  0  0  0  0  0  0  0  0
    9.1700  -13.0507   21.2642 C   0  0  0  0  0  0  0  0  0  0  0  0
    8.9894  -14.2865   21.8797 C   0  0  0  0  0  0  0  0  0  0  0  0
    7.7287  -14.8483   21.8819 C   0  0  0  0  0  0  0  0  0  0  0  0
   10.2492  -17.9944   22.8713 C   0  0  0  0  0  0  0  0  0  0  0  0
   10.5747  -19.1428   23.3261 O   0  0  0  0  0  0  0  0  0  0  0  0
   14.6567  -17.2104   21.6218 N   0  0  0  0  0  0  0  0  0  0  0  0
   13.7671  -16.1727   21.9730 C   0  0  0  0  0  0  0  0  0  0  0  0
   13.2798  -15.3800   21.1097 O   0  0  0  0  0  0  0  0  0  0  0  0
   13.3524  -15.9590   23.3938 C   0  0  0  0  0  0  0  0  0  0  0  0
   12.4039  -17.1012   23.7366 C   0  0  2  0  0  0  0  0  0  0  0  0
   11.1573  -16.9268   23.0011 N   0  0  0  0  0  0  0  0  0  0  0  0
   12.1696  -17.0878   25.2000 C   0  0  0  0  0  0  0  0  0  0  0  0
   13.1579  -17.1903   25.9743 O   0  0  0  0  0  0  0  0  0  0  0  0
   10.8748  -16.9631   25.7641 N   0  0  0  0  0  0  0  0  0  0  0  0
   10.6341  -16.8973   27.2111 C   0  0  1  0  0  0  0  0  0  0  0  0
    9.2104  -16.5826   27.5024 C   0  0  0  0  0  0  0  0  0  0  0  0
    8.8933  -15.1924   27.1248 C   0  0  0  0  0  0  0  0  0  0  0  0
    7.9397  -14.9310   26.1315 C   0  0  0  0  0  0  0  0  0  0  0  0
    7.6034  -13.6561   25.7714 C   0  0  0  0  0  0  0  0  0  0  0  0
    8.1784  -12.5603   26.3592 C   0  0  0  0  0  0  0  0  0  0  0  0
    9.1229  -12.7808   27.3424 C   0  0  0  0  0  0  0  0  0  0  0  0
    9.4601  -14.0696   27.7046 C   0  0  0  0  0  0  0  0  0  0  0  0
   11.0141  -18.1908   27.7942 C   0  0  0  0  0  0  0  0  0  0  0  0
   11.1816  -19.2134   27.1027 O   0  0  0  0  0  0  0  0  0  0  0  0
   11.2049  -18.3165   29.1915 O   0  0  0  0  0  0  0  0  0  0  0  0
  2  1  1  1
  3  2  1  0
  4  5  2  0
  4  3  1  0
  6  5  1  0
  7 12  2  0
  7  6  1  0
  8  7  1  0
  9 10  1  0
  9  8  2  0
 10 11  2  0
 11 12  1  0
 12  4  1  0
 13  2  1  0
 14 13  2  0
 16 15  1  0
 17 16  2  0
 19 18  1  1
 18 16  1  0
 19 20  1  0
 20 13  1  0
 21 19  1  0
 22 21  2  0
 23 21  1  0
 24 23  1  0
 24 25  1  6
 25 26  1  0
 26 31  1  0
 27 26  2  0
 27 28  1  0
 28 29  2  0
 29 30  1  0
 31 30  2  0
 32 34  1  0
 32 24  1  0
 33 32  2  0
M  END
$$$$
