AII.pdb
     RDKit          3D

 22 21  0  0  1  0  0  0  0  0999 V2000
    8.0601  -17.2786   21.1020 C   0  0  0  0  0  0  0  0  0  0  0  0
    7.9693  -15.7713   21.1107 C   0  0  2  0  0  0  0  0  0  0  0  0
    8.7048  -15.2764   19.9841 N   0  0  0  0  0  0  0  0  0  0  0  0
    8.4230  -15.1983   22.4053 C   0  0  0  0  0  0  0  0  0  0  0  0
    9.6213  -14.8188   22.4468 O   0  0  0  0  0  0  0  0  0  0  0  0
    5.2007  -12.1059   25.3886 C   0  0  0  0  0  0  0  0  0  0  0  0
    6.4182  -12.6368   24.6371 C   0  0  0  0  0  0  0  0  0  0  0  0
    7.0608  -13.7278   25.4401 C   0  0  2  0  0  0  0  0  0  0  0  0
    7.4331  -13.2746   26.8346 C   0  0  0  0  0  0  0  0  0  0  0  0
    8.1721  -14.4505   24.7509 C   0  0  2  0  0  0  0  0  0  0  0  0
    7.6068  -15.0684   23.5340 N   0  0  0  0  0  0  0  0  0  0  0  0
    8.8017  -15.5455   25.5284 C   0  0  0  0  0  0  0  0  0  0  0  0
    8.4152  -16.7538   25.3398 O   0  0  0  0  0  0  0  0  0  0  0  0
   11.4794  -14.4622   30.4715 C   0  0  0  0  0  0  0  0  0  0  0  0
   10.5695  -15.0534   29.4073 C   0  0  0  0  0  0  0  0  0  0  0  0
   11.3265  -15.8462   28.4055 C   0  0  2  0  0  0  0  0  0  0  0  0
   12.2979  -14.8550   27.7322 C   0  0  0  0  0  0  0  0  0  0  0  0
   10.4825  -16.3824   27.2613 C   0  0  2  0  0  0  0  0  0  0  0  0
    9.8261  -15.3650   26.4870 N   0  0  0  0  0  0  0  0  0  0  0  0
    9.5392  -17.3749   27.7460 C   0  0  0  0  0  0  0  0  0  0  0  0
    8.3082  -17.0561   27.8753 O   0  0  0  0  0  0  0  0  0  0  0  0
    9.8843  -18.6641   28.0837 O   0  0  0  0  0  0  0  0  0  0  0  0
  2  1  1  1
  3  2  1  0
  4  2  1  0
  4  5  2  0
  7  6  1  0
  7  8  1  0
  8 10  1  0
  8  9  1  1
 10 11  1  6
 10 12  1  0
 11  4  1  0
 12 19  1  0
 13 12  2  0
 14 15  1  0
 16 17  1  6
 16 18  1  0
 16 15  1  0
 18 20  1  0
 18 19  1  1
 20 21  2  0
 20 22  1  0
M  END
$$$$
