AII.pdb
     RDKit          3D

 22 21  0  0  1  0  0  0  0  0999 V2000
    5.3925  -18.6754   24.0401 C   0  0  0  0  0  0  0  0  0  0  0  0
    5.6481  -18.2637   22.6099 C   0  0  2  0  0  0  0  0  0  0  0  0
    5.8137  -19.4543   21.8287 N   0  0  0  0  0  0  0  0  0  0  0  0
    6.7971  -17.3266   22.5021 C   0  0  0  0  0  0  0  0  0  0  0  0
    7.9258  -17.8589   22.3456 O   0  0  0  0  0  0  0  0  0  0  0  0
    6.7365  -13.0372   19.4849 C   0  0  0  0  0  0  0  0  0  0  0  0
    7.1889  -14.3013   20.2103 C   0  0  0  0  0  0  0  0  0  0  0  0
    7.6130  -13.9493   21.6045 C   0  0  2  0  0  0  0  0  0  0  0  0
    8.7062  -12.9038   21.6281 C   0  0  0  0  0  0  0  0  0  0  0  0
    7.9091  -15.1158   22.4898 C   0  0  2  0  0  0  0  0  0  0  0  0
    6.6813  -15.9338   22.5648 N   0  0  0  0  0  0  0  0  0  0  0  0
    8.2805  -14.7807   23.8861 C   0  0  0  0  0  0  0  0  0  0  0  0
    7.5872  -13.9158   24.5312 O   0  0  0  0  0  0  0  0  0  0  0  0
    9.5505  -14.8340   29.0691 C   0  0  0  0  0  0  0  0  0  0  0  0
    9.1390  -15.0936   27.6292 C   0  0  0  0  0  0  0  0  0  0  0  0
    9.7104  -14.0887   26.6970 C   0  0  2  0  0  0  0  0  0  0  0  0
    8.5152  -13.2509   26.1982 C   0  0  0  0  0  0  0  0  0  0  0  0
   10.3124  -14.6768   25.4318 C   0  0  2  0  0  0  0  0  0  0  0  0
    9.3655  -15.3544   24.5893 N   0  0  0  0  0  0  0  0  0  0  0  0
   11.4438  -15.5285   25.7544 C   0  0  0  0  0  0  0  0  0  0  0  0
   11.4248  -16.7551   25.3954 O   0  0  0  0  0  0  0  0  0  0  0  0
   12.5610  -15.0991   26.4347 O   0  0  0  0  0  0  0  0  0  0  0  0
  2  1  1  1
  3  2  1  0
  4  2  1  0
  4  5  2  0
  7  6  1  0
  7  8  1  0
  8 10  1  0
  8  9  1  6
 10 11  1  1
 10 12  1  0
 11  4  1  0
 12 19  1  0
 13 12  2  0
 14 15  1  0
 16 17  1  6
 16 18  1  0
 16 15  1  0
 18 20  1  0
 18 19  1  1
 20 21  2  0
 20 22  1  0
M  END
$$$$
