AII.pdb
     RDKit          3D

 22 21  0  0  1  0  0  0  0  0999 V2000
    8.3762  -19.5801   22.5254 C   0  0  0  0  0  0  0  0  0  0  0  0
    8.6894  -18.5890   21.4300 C   0  0  2  0  0  0  0  0  0  0  0  0
    9.8396  -19.0639   20.7181 N   0  0  0  0  0  0  0  0  0  0  0  0
    8.8567  -17.2114   21.9631 C   0  0  0  0  0  0  0  0  0  0  0  0
    9.9488  -16.9761   22.5408 O   0  0  0  0  0  0  0  0  0  0  0  0
    7.6916  -12.8578   19.1382 C   0  0  0  0  0  0  0  0  0  0  0  0
    8.3701  -13.8673   20.0598 C   0  0  0  0  0  0  0  0  0  0  0  0
    7.6799  -13.8672   21.3907 C   0  0  2  0  0  0  0  0  0  0  0  0
    7.5501  -12.4770   21.9729 C   0  0  0  0  0  0  0  0  0  0  0  0
    8.2046  -14.8602   22.3761 C   0  0  2  0  0  0  0  0  0  0  0  0
    7.8902  -16.2060   21.8542 N   0  0  0  0  0  0  0  0  0  0  0  0
    7.6154  -14.7849   23.7351 C   0  0  0  0  0  0  0  0  0  0  0  0
    6.4463  -15.2700   23.9417 O   0  0  0  0  0  0  0  0  0  0  0  0
   10.7599  -14.3415   28.5470 C   0  0  0  0  0  0  0  0  0  0  0  0
    9.6467  -14.8021   27.6205 C   0  0  0  0  0  0  0  0  0  0  0  0
    8.7460  -13.6862   27.2346 C   0  0  2  0  0  0  0  0  0  0  0  0
    7.9117  -13.3657   28.4917 C   0  0  0  0  0  0  0  0  0  0  0  0
    7.7139  -14.0483   26.1798 C   0  0  2  0  0  0  0  0  0  0  0  0
    8.2546  -14.2090   24.8579 N   0  0  0  0  0  0  0  0  0  0  0  0
    6.6157  -13.0978   26.1944 C   0  0  0  0  0  0  0  0  0  0  0  0
    6.7006  -12.0342   25.4905 O   0  0  0  0  0  0  0  0  0  0  0  0
    5.4635  -13.2644   26.9291 O   0  0  0  0  0  0  0  0  0  0  0  0
  2  1  1  1
  3  2  1  0
  4  2  1  0
  4  5  2  0
  7  6  1  0
  7  8  1  0
  8 10  1  0
  8  9  1  1
 10 11  1  6
 10 12  1  0
 11  4  1  0
 12 19  1  0
 13 12  2  0
 14 15  1  0
 16 17  1  1
 16 18  1  0
 16 15  1  0
 18 20  1  0
 18 19  1  6
 20 21  2  0
 20 22  1  0
M  END
$$$$
