AII.pdb
     RDKit          3D

 22 21  0  0  1  0  0  0  0  0999 V2000
    7.3621  -17.2169   21.5723 C   0  0  0  0  0  0  0  0  0  0  0  0
    7.5038  -15.7137   21.5539 C   0  0  2  0  0  0  0  0  0  0  0  0
    8.1485  -15.3442   20.3279 N   0  0  0  0  0  0  0  0  0  0  0  0
    8.2086  -15.2107   22.7623 C   0  0  0  0  0  0  0  0  0  0  0  0
    9.4477  -15.0333   22.6401 O   0  0  0  0  0  0  0  0  0  0  0  0
    6.0254  -11.6401   26.1032 C   0  0  0  0  0  0  0  0  0  0  0  0
    7.0401  -12.3615   25.2207 C   0  0  0  0  0  0  0  0  0  0  0  0
    7.5582  -13.5683   25.9439 C   0  0  2  0  0  0  0  0  0  0  0  0
    8.1973  -13.2161   27.2691 C   0  0  0  0  0  0  0  0  0  0  0  0
    8.4021  -14.4860   25.1206 C   0  0  2  0  0  0  0  0  0  0  0  0
    7.5779  -14.9372   23.9807 N   0  0  0  0  0  0  0  0  0  0  0  0
    8.8764  -15.7101   25.8109 C   0  0  0  0  0  0  0  0  0  0  0  0
    8.0261  -16.6035   26.1625 O   0  0  0  0  0  0  0  0  0  0  0  0
   13.8197  -17.8232   24.3775 C   0  0  0  0  0  0  0  0  0  0  0  0
   12.3800  -17.5209   24.7592 C   0  0  0  0  0  0  0  0  0  0  0  0
   12.1846  -17.5109   26.2313 C   0  0  2  0  0  0  0  0  0  0  0  0
   12.4199  -18.9626   26.6963 C   0  0  0  0  0  0  0  0  0  0  0  0
   10.7649  -17.1989   26.6742 C   0  0  2  0  0  0  0  0  0  0  0  0
   10.2288  -15.9858   26.1205 N   0  0  0  0  0  0  0  0  0  0  0  0
   10.6694  -17.2111   28.1234 C   0  0  0  0  0  0  0  0  0  0  0  0
   10.6984  -16.1034   28.7608 O   0  0  0  0  0  0  0  0  0  0  0  0
   10.5469  -18.3566   28.8770 O   0  0  0  0  0  0  0  0  0  0  0  0
  2  1  1  1
  3  2  1  0
  4  2  1  0
  4  5  2  0
  7  6  1  0
  7  8  1  0
  8 10  1  0
  8  9  1  1
 10 11  1  6
 10 12  1  0
 11  4  1  0
 12 19  1  0
 13 12  2  0
 14 15  1  0
 16 17  1  6
 16 18  1  0
 16 15  1  0
 18 20  1  0
 18 19  1  1
 20 21  2  0
 20 22  1  0
M  END
$$$$
