AII.pdb
     RDKit          3D

 22 21  0  0  1  0  0  0  0  0999 V2000
    6.2089  -18.8558   23.2915 C   0  0  0  0  0  0  0  0  0  0  0  0
    6.3659  -18.4158   21.8555 C   0  0  2  0  0  0  0  0  0  0  0  0
    6.6283  -19.5801   21.0613 N   0  0  0  0  0  0  0  0  0  0  0  0
    7.4038  -17.3612   21.7116 C   0  0  0  0  0  0  0  0  0  0  0  0
    8.5539  -17.7630   21.3991 O   0  0  0  0  0  0  0  0  0  0  0  0
    6.6008  -12.7823   19.0723 C   0  0  0  0  0  0  0  0  0  0  0  0
    7.3652  -14.0082   19.5639 C   0  0  0  0  0  0  0  0  0  0  0  0
    7.6979  -13.8369   21.0158 C   0  0  2  0  0  0  0  0  0  0  0  0
    8.5034  -12.5837   21.2788 C   0  0  0  0  0  0  0  0  0  0  0  0
    8.2740  -15.0448   21.6801 C   0  0  2  0  0  0  0  0  0  0  0  0
    7.1655  -15.9958   21.9013 N   0  0  0  0  0  0  0  0  0  0  0  0
    8.9001  -14.8090   23.0038 C   0  0  0  0  0  0  0  0  0  0  0  0
   10.0143  -14.1773   23.0692 O   0  0  0  0  0  0  0  0  0  0  0  0
    7.4605  -11.3961   27.2008 C   0  0  0  0  0  0  0  0  0  0  0  0
    7.9619  -12.8305   27.1665 C   0  0  0  0  0  0  0  0  0  0  0  0
    7.6642  -13.4935   25.8714 C   0  0  2  0  0  0  0  0  0  0  0  0
    6.2752  -14.1424   26.0411 C   0  0  0  0  0  0  0  0  0  0  0  0
    8.5840  -14.6551   25.5346 C   0  0  2  0  0  0  0  0  0  0  0  0
    8.3539  -15.2315   24.2383 N   0  0  0  0  0  0  0  0  0  0  0  0
    8.5378  -15.6613   26.5811 C   0  0  0  0  0  0  0  0  0  0  0  0
    7.9423  -16.7697   26.3561 O   0  0  0  0  0  0  0  0  0  0  0  0
    9.1024  -15.5027   27.8266 O   0  0  0  0  0  0  0  0  0  0  0  0
  2  1  1  1
  3  2  1  0
  4  2  1  0
  4  5  2  0
  7  6  1  0
  7  8  1  0
  8 10  1  0
  8  9  1  6
 10 11  1  1
 10 12  1  0
 11  4  1  0
 12 19  1  0
 13 12  2  0
 14 15  1  0
 16 17  1  1
 16 18  1  0
 16 15  1  0
 18 20  1  0
 18 19  1  6
 20 21  2  0
 20 22  1  0
M  END
$$$$
