AII.pdb
     RDKit          3D

 22 21  0  0  1  0  0  0  0  0999 V2000
   11.3736  -19.2958   20.8336 C   0  0  0  0  0  0  0  0  0  0  0  0
   11.0843  -18.0134   20.0905 C   0  0  2  0  0  0  0  0  0  0  0  0
   12.1983  -17.7379   19.2313 N   0  0  0  0  0  0  0  0  0  0  0  0
   10.7690  -16.8962   21.0192 C   0  0  0  0  0  0  0  0  0  0  0  0
   11.7490  -16.2043   21.3969 O   0  0  0  0  0  0  0  0  0  0  0  0
    6.6797  -13.6079   20.1293 C   0  0  0  0  0  0  0  0  0  0  0  0
    8.0611  -14.1480   20.4886 C   0  0  0  0  0  0  0  0  0  0  0  0
    8.0208  -14.7385   21.8662 C   0  0  2  0  0  0  0  0  0  0  0  0
    7.4686  -13.7728   22.8915 C   0  0  0  0  0  0  0  0  0  0  0  0
    9.2876  -15.3932   22.3117 C   0  0  2  0  0  0  0  0  0  0  0  0
    9.4807  -16.5938   21.4729 N   0  0  0  0  0  0  0  0  0  0  0  0
    9.3077  -15.8540   23.7214 C   0  0  0  0  0  0  0  0  0  0  0  0
    8.8243  -17.0053   24.0139 O   0  0  0  0  0  0  0  0  0  0  0  0
   10.0822  -13.6145   29.5382 C   0  0  0  0  0  0  0  0  0  0  0  0
   10.1109  -14.8007   28.5884 C   0  0  0  0  0  0  0  0  0  0  0  0
   10.0317  -14.3779   27.1671 C   0  0  2  0  0  0  0  0  0  0  0  0
    8.6849  -13.6400   27.0226 C   0  0  0  0  0  0  0  0  0  0  0  0
    9.9410  -15.5251   26.1748 C   0  0  2  0  0  0  0  0  0  0  0  0
    9.8343  -15.1099   24.8030 N   0  0  0  0  0  0  0  0  0  0  0  0
    8.8677  -16.4323   26.5420 C   0  0  0  0  0  0  0  0  0  0  0  0
    9.0941  -17.3535   27.3988 O   0  0  0  0  0  0  0  0  0  0  0  0
    7.5949  -16.3695   26.0214 O   0  0  0  0  0  0  0  0  0  0  0  0
  2  1  1  1
  3  2  1  0
  4  2  1  0
  4  5  2  0
  7  6  1  0
  7  8  1  0
  8 10  1  0
  8  9  1  1
 10 11  1  6
 10 12  1  0
 11  4  1  0
 12 19  1  0
 13 12  2  0
 14 15  1  0
 16 17  1  1
 16 18  1  0
 16 15  1  0
 18 20  1  0
 18 19  1  6
 20 21  2  0
 20 22  1  0
M  END
$$$$
