AII.pdb
     RDKit          3D

 22 21  0  0  1  0  0  0  0  0999 V2000
    6.5255  -16.0208   20.9442 C   0  0  0  0  0  0  0  0  0  0  0  0
    6.9958  -14.6027   21.1635 C   0  0  2  0  0  0  0  0  0  0  0  0
    7.7616  -14.2075   20.0178 N   0  0  0  0  0  0  0  0  0  0  0  0
    7.7380  -14.4590   22.4435 C   0  0  0  0  0  0  0  0  0  0  0  0
    8.9890  -14.5633   22.3665 O   0  0  0  0  0  0  0  0  0  0  0  0
    5.8025  -11.3544   26.4803 C   0  0  0  0  0  0  0  0  0  0  0  0
    6.7528  -11.9402   25.4398 C   0  0  0  0  0  0  0  0  0  0  0  0
    7.2033  -13.2984   25.8872 C   0  0  2  0  0  0  0  0  0  0  0  0
    7.8723  -13.2662   27.2437 C   0  0  0  0  0  0  0  0  0  0  0  0
    7.9846  -14.0715   24.8752 C   0  0  2  0  0  0  0  0  0  0  0  0
    7.1290  -14.2221   23.6804 N   0  0  0  0  0  0  0  0  0  0  0  0
    8.3841  -15.4398   25.2851 C   0  0  0  0  0  0  0  0  0  0  0  0
    7.4773  -16.3040   25.5606 O   0  0  0  0  0  0  0  0  0  0  0  0
   12.3794  -18.0998   22.6733 C   0  0  0  0  0  0  0  0  0  0  0  0
   11.1530  -17.6310   23.4389 C   0  0  0  0  0  0  0  0  0  0  0  0
   11.3587  -17.6880   24.9086 C   0  0  2  0  0  0  0  0  0  0  0  0
   11.4880  -19.1850   25.2570 C   0  0  0  0  0  0  0  0  0  0  0  0
   10.1708  -17.2118   25.7278 C   0  0  2  0  0  0  0  0  0  0  0  0
    9.7212  -15.8873   25.3978 N   0  0  0  0  0  0  0  0  0  0  0  0
   10.4463  -17.3428   27.1479 C   0  0  0  0  0  0  0  0  0  0  0  0
   10.4266  -18.5032   27.6836 O   0  0  0  0  0  0  0  0  0  0  0  0
   10.7337  -16.2821   27.9771 O   0  0  0  0  0  0  0  0  0  0  0  0
  2  1  1  6
  3  2  1  0
  4  2  1  0
  4  5  2  0
  7  6  1  0
  7  8  1  0
  8 10  1  0
  8  9  1  1
 10 11  1  6
 10 12  1  0
 11  4  1  0
 12 19  1  0
 13 12  2  0
 14 15  1  0
 16 17  1  1
 16 18  1  0
 16 15  1  0
 18 20  1  0
 18 19  1  1
 20 21  2  0
 20 22  1  0
M  END
$$$$
