AII.pdb
     RDKit          3D

 22 21  0  0  1  0  0  0  0  0999 V2000
    6.1623  -18.5680   23.6123 C   0  0  0  0  0  0  0  0  0  0  0  0
    6.2138  -18.1323   22.1674 C   0  0  2  0  0  0  0  0  0  0  0  0
    6.4199  -19.2986   21.3597 N   0  0  0  0  0  0  0  0  0  0  0  0
    7.2366  -17.0765   21.9452 C   0  0  0  0  0  0  0  0  0  0  0  0
    8.3746  -17.4809   21.5945 O   0  0  0  0  0  0  0  0  0  0  0  0
    6.6496  -12.7334   19.0060 C   0  0  0  0  0  0  0  0  0  0  0  0
    7.3336  -13.9295   19.6619 C   0  0  0  0  0  0  0  0  0  0  0  0
    7.6029  -13.6188   21.1037 C   0  0  2  0  0  0  0  0  0  0  0  0
    8.4257  -12.3614   21.2786 C   0  0  0  0  0  0  0  0  0  0  0  0
    8.1179  -14.7643   21.9128 C   0  0  2  0  0  0  0  0  0  0  0  0
    6.9969  -15.7073   22.1033 N   0  0  0  0  0  0  0  0  0  0  0  0
    8.6150  -14.4184   23.2667 C   0  0  0  0  0  0  0  0  0  0  0  0
    9.2890  -13.3400   23.4330 O   0  0  0  0  0  0  0  0  0  0  0  0
    6.3253  -11.7027   26.0892 C   0  0  0  0  0  0  0  0  0  0  0  0
    7.3856  -12.6229   25.5071 C   0  0  0  0  0  0  0  0  0  0  0  0
    7.5836  -13.8388   26.3364 C   0  0  2  0  0  0  0  0  0  0  0  0
    8.1851  -13.3456   27.6684 C   0  0  0  0  0  0  0  0  0  0  0  0
    8.6190  -14.8086   25.7918 C   0  0  2  0  0  0  0  0  0  0  0  0
    8.3989  -15.1991   24.4263 N   0  0  0  0  0  0  0  0  0  0  0  0
    8.7426  -15.9640   26.6633 C   0  0  0  0  0  0  0  0  0  0  0  0
    7.9637  -16.9627   26.4907 O   0  0  0  0  0  0  0  0  0  0  0  0
    9.6596  -16.0625   27.6852 O   0  0  0  0  0  0  0  0  0  0  0  0
  2  1  1  1
  3  2  1  0
  4  2  1  0
  4  5  2  0
  7  6  1  0
  7  8  1  0
  8 10  1  0
  8  9  1  6
 10 11  1  1
 10 12  1  0
 11  4  1  0
 12 19  1  0
 13 12  2  0
 14 15  1  0
 16 17  1  1
 16 18  1  0
 16 15  1  0
 18 20  1  0
 18 19  1  6
 20 21  2  0
 20 22  1  0
M  END
$$$$
