AII.pdb
     RDKit          3D

 22 21  0  0  1  0  0  0  0  0999 V2000
    8.4426  -17.4297   21.1146 C   0  0  0  0  0  0  0  0  0  0  0  0
    8.3386  -15.9233   21.0993 C   0  0  2  0  0  0  0  0  0  0  0  0
    9.1588  -15.4332   20.0306 N   0  0  0  0  0  0  0  0  0  0  0  0
    8.6809  -15.3329   22.4200 C   0  0  0  0  0  0  0  0  0  0  0  0
    9.8729  -14.9570   22.5600 O   0  0  0  0  0  0  0  0  0  0  0  0
    5.2084  -12.2108   25.1344 C   0  0  0  0  0  0  0  0  0  0  0  0
    6.4474  -12.7779   24.4473 C   0  0  0  0  0  0  0  0  0  0  0  0
    7.0571  -13.8362   25.3168 C   0  0  2  0  0  0  0  0  0  0  0  0
    7.3207  -13.3457   26.7234 C   0  0  0  0  0  0  0  0  0  0  0  0
    8.2299  -14.5459   24.7225 C   0  0  2  0  0  0  0  0  0  0  0  0
    7.7704  -15.1834   23.4715 N   0  0  0  0  0  0  0  0  0  0  0  0
    8.8150  -15.6236   25.5568 C   0  0  0  0  0  0  0  0  0  0  0  0
    8.6860  -16.8451   25.1878 O   0  0  0  0  0  0  0  0  0  0  0  0
   10.7271  -13.6826   30.0197 C   0  0  0  0  0  0  0  0  0  0  0  0
   11.2656  -14.4609   28.8306 C   0  0  0  0  0  0  0  0  0  0  0  0
   10.8078  -15.8737   28.8365 C   0  0  2  0  0  0  0  0  0  0  0  0
   12.0664  -16.7220   29.1113 C   0  0  0  0  0  0  0  0  0  0  0  0
   10.3012  -16.3751   27.4945 C   0  0  2  0  0  0  0  0  0  0  0  0
    9.5283  -15.4116   26.7597 N   0  0  0  0  0  0  0  0  0  0  0  0
    9.5792  -17.6249   27.6575 C   0  0  0  0  0  0  0  0  0  0  0  0
    8.3781  -17.6002   28.0941 O   0  0  0  0  0  0  0  0  0  0  0  0
   10.1083  -18.8626   27.3687 O   0  0  0  0  0  0  0  0  0  0  0  0
  2  1  1  1
  3  2  1  0
  4  2  1  0
  4  5  2  0
  7  6  1  0
  7  8  1  0
  8 10  1  0
  8  9  1  1
 10 11  1  6
 10 12  1  0
 11  4  1  0
 12 19  1  0
 13 12  2  0
 14 15  1  0
 16 17  1  6
 16 18  1  0
 16 15  1  0
 18 20  1  0
 18 19  1  1
 20 21  2  0
 20 22  1  0
M  END
$$$$
