AII.pdb
     RDKit          3D

 22 21  0  0  1  0  0  0  0  0999 V2000
   12.0405  -18.9131   21.0974 C   0  0  0  0  0  0  0  0  0  0  0  0
   11.6462  -17.6148   20.4349 C   0  0  2  0  0  0  0  0  0  0  0  0
   12.7831  -17.1217   19.7141 N   0  0  0  0  0  0  0  0  0  0  0  0
   11.1036  -16.6374   21.4148 C   0  0  0  0  0  0  0  0  0  0  0  0
   11.9472  -15.8767   21.9548 O   0  0  0  0  0  0  0  0  0  0  0  0
    6.6732  -13.8451   20.5088 C   0  0  0  0  0  0  0  0  0  0  0  0
    8.0873  -14.2334   20.9313 C   0  0  0  0  0  0  0  0  0  0  0  0
    8.0348  -14.9395   22.2529 C   0  0  2  0  0  0  0  0  0  0  0  0
    7.3309  -14.1238   23.3149 C   0  0  0  0  0  0  0  0  0  0  0  0
    9.3371  -15.5007   22.7231 C   0  0  2  0  0  0  0  0  0  0  0  0
    9.7492  -16.5317   21.7487 N   0  0  0  0  0  0  0  0  0  0  0  0
    9.3066  -16.1611   24.0508 C   0  0  0  0  0  0  0  0  0  0  0  0
    8.8404  -17.3517   24.1507 O   0  0  0  0  0  0  0  0  0  0  0  0
   10.4147  -13.1191   28.8528 C   0  0  0  0  0  0  0  0  0  0  0  0
    9.7531  -13.9705   27.7818 C   0  0  0  0  0  0  0  0  0  0  0  0
   10.4163  -15.2907   27.6316 C   0  0  2  0  0  0  0  0  0  0  0  0
   11.8417  -14.9896   27.1246 C   0  0  0  0  0  0  0  0  0  0  0  0
    9.8132  -16.1775   26.5551 C   0  0  2  0  0  0  0  0  0  0  0  0
    9.7655  -15.5724   25.2524 N   0  0  0  0  0  0  0  0  0  0  0  0
    8.5067  -16.6608   26.9665 C   0  0  0  0  0  0  0  0  0  0  0  0
    7.4580  -16.1363   26.4577 O   0  0  0  0  0  0  0  0  0  0  0  0
    8.3128  -17.6666   27.8863 O   0  0  0  0  0  0  0  0  0  0  0  0
  2  1  1  1
  3  2  1  0
  4  2  1  0
  4  5  2  0
  7  6  1  0
  7  8  1  0
  8 10  1  0
  8  9  1  1
 10 11  1  6
 10 12  1  0
 11  4  1  0
 12 19  1  0
 13 12  2  0
 14 15  1  0
 16 17  1  6
 16 18  1  0
 16 15  1  0
 18 20  1  0
 18 19  1  6
 20 21  2  0
 20 22  1  0
M  END
$$$$
