AII.pdb
     RDKit          3D

 22 21  0  0  1  0  0  0  0  0999 V2000
    7.1118  -17.0000   21.6343 C   0  0  0  0  0  0  0  0  0  0  0  0
    7.2291  -15.4952   21.5877 C   0  0  2  0  0  0  0  0  0  0  0  0
    7.8801  -15.1391   20.3611 N   0  0  0  0  0  0  0  0  0  0  0  0
    7.9134  -14.9572   22.7928 C   0  0  0  0  0  0  0  0  0  0  0  0
    9.1409  -14.7154   22.6641 O   0  0  0  0  0  0  0  0  0  0  0  0
    5.4446  -11.5299   26.1687 C   0  0  0  0  0  0  0  0  0  0  0  0
    6.4868  -12.1667   25.2537 C   0  0  0  0  0  0  0  0  0  0  0  0
    7.1225  -13.3280   25.9573 C   0  0  2  0  0  0  0  0  0  0  0  0
    7.7141  -12.9385   27.2941 C   0  0  0  0  0  0  0  0  0  0  0  0
    8.0614  -14.1370   25.1230 C   0  0  2  0  0  0  0  0  0  0  0  0
    7.2759  -14.7179   24.0149 N   0  0  0  0  0  0  0  0  0  0  0  0
    8.7178  -15.2716   25.8169 C   0  0  0  0  0  0  0  0  0  0  0  0
    8.0209  -16.2977   26.1430 O   0  0  0  0  0  0  0  0  0  0  0  0
   14.5737  -17.4484   26.4892 C   0  0  0  0  0  0  0  0  0  0  0  0
   13.1105  -17.5180   26.8940 C   0  0  0  0  0  0  0  0  0  0  0  0
   12.3253  -16.3853   26.3409 C   0  0  2  0  0  0  0  0  0  0  0  0
   12.7909  -15.1343   27.1138 C   0  0  0  0  0  0  0  0  0  0  0  0
   10.8326  -16.4632   26.6143 C   0  0  2  0  0  0  0  0  0  0  0  0
   10.0900  -15.3210   26.1567 N   0  0  0  0  0  0  0  0  0  0  0  0
   10.5858  -16.7310   28.0204 C   0  0  0  0  0  0  0  0  0  0  0  0
   10.2860  -15.7615   28.7977 O   0  0  0  0  0  0  0  0  0  0  0  0
   10.6533  -17.9830   28.5888 O   0  0  0  0  0  0  0  0  0  0  0  0
  2  1  1  1
  3  2  1  0
  4  2  1  0
  4  5  2  0
  7  6  1  0
  7  8  1  0
  8 10  1  0
  8  9  1  1
 10 11  1  6
 10 12  1  0
 11  4  1  0
 12 19  1  0
 13 12  2  0
 14 15  1  0
 16 17  1  1
 16 18  1  0
 16 15  1  0
 18 20  1  0
 18 19  1  1
 20 21  2  0
 20 22  1  0
M  END
$$$$
