AII.pdb
     RDKit          3D

 22 21  0  0  1  0  0  0  0  0999 V2000
    8.1536  -17.3593   21.2672 C   0  0  0  0  0  0  0  0  0  0  0  0
    7.9692  -15.8613   21.2192 C   0  0  2  0  0  0  0  0  0  0  0  0
    8.6430  -15.3688   20.0537 N   0  0  0  0  0  0  0  0  0  0  0  0
    8.4194  -15.2091   22.4769 C   0  0  0  0  0  0  0  0  0  0  0  0
    9.5903  -14.7498   22.4675 O   0  0  0  0  0  0  0  0  0  0  0  0
    5.3627  -12.0404   25.5266 C   0  0  0  0  0  0  0  0  0  0  0  0
    6.5645  -12.6009   24.7713 C   0  0  0  0  0  0  0  0  0  0  0  0
    7.1487  -13.7442   25.5454 C   0  0  2  0  0  0  0  0  0  0  0  0
    7.5353  -13.3494   26.9537 C   0  0  0  0  0  0  0  0  0  0  0  0
    8.2268  -14.5010   24.8404 C   0  0  2  0  0  0  0  0  0  0  0  0
    7.6284  -15.0890   23.6245 N   0  0  0  0  0  0  0  0  0  0  0  0
    8.8240  -15.6237   25.6038 C   0  0  0  0  0  0  0  0  0  0  0  0
    8.3351  -16.8023   25.4752 O   0  0  0  0  0  0  0  0  0  0  0  0
   10.5517  -13.9200   29.5142 C   0  0  0  0  0  0  0  0  0  0  0  0
   11.4940  -14.5708   28.5151 C   0  0  0  0  0  0  0  0  0  0  0  0
   11.3203  -16.0448   28.4647 C   0  0  2  0  0  0  0  0  0  0  0  0
   12.7345  -16.6279   28.2661 C   0  0  0  0  0  0  0  0  0  0  0  0
   10.5350  -16.5439   27.2633 C   0  0  2  0  0  0  0  0  0  0  0  0
    9.9231  -15.5015   26.4858 N   0  0  0  0  0  0  0  0  0  0  0  0
    9.5646  -17.5453   27.6696 C   0  0  0  0  0  0  0  0  0  0  0  0
    9.8540  -18.7838   27.5419 O   0  0  0  0  0  0  0  0  0  0  0  0
    8.3269  -17.2491   28.1946 O   0  0  0  0  0  0  0  0  0  0  0  0
  2  1  1  1
  3  2  1  0
  4  2  1  0
  4  5  2  0
  7  6  1  0
  7  8  1  0
  8 10  1  0
  8  9  1  1
 10 11  1  6
 10 12  1  0
 11  4  1  0
 12 19  1  0
 13 12  2  0
 14 15  1  0
 16 17  1  6
 16 18  1  0
 16 15  1  0
 18 20  1  0
 18 19  1  1
 20 21  2  0
 20 22  1  0
M  END
$$$$
