AII.pdb
     RDKit          3D

 22 21  0  0  1  0  0  0  0  0999 V2000
   10.5497  -19.2161   21.4790 C   0  0  0  0  0  0  0  0  0  0  0  0
   10.6858  -18.0548   20.5235 C   0  0  2  0  0  0  0  0  0  0  0  0
   12.0229  -18.0603   20.0067 N   0  0  0  0  0  0  0  0  0  0  0  0
   10.3091  -16.7666   21.1630 C   0  0  0  0  0  0  0  0  0  0  0  0
   11.2454  -16.1345   21.7156 O   0  0  0  0  0  0  0  0  0  0  0  0
    7.1421  -13.0157   19.1077 C   0  0  0  0  0  0  0  0  0  0  0  0
    8.2781  -13.7041   19.8590 C   0  0  0  0  0  0  0  0  0  0  0  0
    7.7714  -14.2002   21.1800 C   0  0  2  0  0  0  0  0  0  0  0  0
    7.1410  -13.1004   22.0057 C   0  0  0  0  0  0  0  0  0  0  0  0
    8.7414  -15.0259   21.9607 C   0  0  2  0  0  0  0  0  0  0  0  0
    9.0098  -16.2483   21.1758 N   0  0  0  0  0  0  0  0  0  0  0  0
    8.2716  -15.4736   23.2943 C   0  0  0  0  0  0  0  0  0  0  0  0
    7.6427  -16.5864   23.3989 O   0  0  0  0  0  0  0  0  0  0  0  0
    6.4393  -11.7181   26.9167 C   0  0  0  0  0  0  0  0  0  0  0  0
    6.7979  -12.8665   25.9880 C   0  0  0  0  0  0  0  0  0  0  0  0
    7.6247  -13.8954   26.6684 C   0  0  2  0  0  0  0  0  0  0  0  0
    8.9840  -13.2231   26.9503 C   0  0  0  0  0  0  0  0  0  0  0  0
    7.9704  -15.0959   25.8033 C   0  0  2  0  0  0  0  0  0  0  0  0
    8.4677  -14.7572   24.4981 N   0  0  0  0  0  0  0  0  0  0  0  0
    6.8428  -16.0080   25.7239 C   0  0  0  0  0  0  0  0  0  0  0  0
    6.5816  -16.7665   26.7190 O   0  0  0  0  0  0  0  0  0  0  0  0
    6.0164  -16.1162   24.6282 O   0  0  0  0  0  0  0  0  0  0  0  0
  2  1  1  1
  3  2  1  0
  4  2  1  0
  4  5  2  0
  7  6  1  0
  7  8  1  0
  8 10  1  0
  8  9  1  1
 10 11  1  6
 10 12  1  0
 11  4  1  0
 12 19  1  0
 13 12  2  0
 14 15  1  0
 16 17  1  6
 16 18  1  0
 16 15  1  0
 18 20  1  0
 18 19  1  6
 20 21  2  0
 20 22  1  0
M  END
$$$$
