AII.pdb
     RDKit          3D

 22 21  0  0  1  0  0  0  0  0999 V2000
    8.1829  -17.6622   21.1963 C   0  0  0  0  0  0  0  0  0  0  0  0
    8.0839  -16.1572   21.1225 C   0  0  2  0  0  0  0  0  0  0  0  0
    8.8319  -15.7192   19.9807 N   0  0  0  0  0  0  0  0  0  0  0  0
    8.5168  -15.5125   22.3902 C   0  0  0  0  0  0  0  0  0  0  0  0
    9.7188  -15.1450   22.4356 O   0  0  0  0  0  0  0  0  0  0  0  0
    5.1451  -12.3224   25.1144 C   0  0  0  0  0  0  0  0  0  0  0  0
    6.3970  -12.8459   24.4160 C   0  0  0  0  0  0  0  0  0  0  0  0
    7.0711  -13.8557   25.2956 C   0  0  2  0  0  0  0  0  0  0  0  0
    7.4162  -13.2951   26.6577 C   0  0  0  0  0  0  0  0  0  0  0  0
    8.2123  -14.5842   24.6639 C   0  0  2  0  0  0  0  0  0  0  0  0
    7.6781  -15.3055   23.4905 N   0  0  0  0  0  0  0  0  0  0  0  0
    8.8751  -15.5988   25.5190 C   0  0  0  0  0  0  0  0  0  0  0  0
    8.4791  -16.8177   25.4708 O   0  0  0  0  0  0  0  0  0  0  0  0
   11.1521  -14.6539   30.6410 C   0  0  0  0  0  0  0  0  0  0  0  0
   10.6507  -14.6922   29.2068 C   0  0  0  0  0  0  0  0  0  0  0  0
   11.4334  -15.6354   28.3683 C   0  0  2  0  0  0  0  0  0  0  0  0
   12.5023  -14.7790   27.6588 C   0  0  0  0  0  0  0  0  0  0  0  0
   10.6456  -16.2700   27.2345 C   0  0  2  0  0  0  0  0  0  0  0  0
    9.9418  -15.3284   26.4076 N   0  0  0  0  0  0  0  0  0  0  0  0
    9.7569  -17.2990   27.7455 C   0  0  0  0  0  0  0  0  0  0  0  0
   10.2542  -18.3886   28.1920 O   0  0  0  0  0  0  0  0  0  0  0  0
    8.3858  -17.1818   27.7842 O   0  0  0  0  0  0  0  0  0  0  0  0
  2  1  1  1
  3  2  1  0
  4  2  1  0
  4  5  2  0
  7  6  1  0
  7  8  1  0
  8 10  1  0
  8  9  1  1
 10 11  1  6
 10 12  1  0
 11  4  1  0
 12 19  1  0
 13 12  2  0
 14 15  1  0
 16 17  1  6
 16 18  1  0
 16 15  1  0
 18 20  1  0
 18 19  1  1
 20 21  2  0
 20 22  1  0
M  END
$$$$
