AII.pdb
     RDKit          3D

 22 21  0  0  1  0  0  0  0  0999 V2000
    8.5608  -17.7885   21.1730 C   0  0  0  0  0  0  0  0  0  0  0  0
    8.4679  -16.2816   21.1461 C   0  0  2  0  0  0  0  0  0  0  0  0
    9.2519  -15.8087   20.0430 N   0  0  0  0  0  0  0  0  0  0  0  0
    8.8632  -15.6808   22.4473 C   0  0  0  0  0  0  0  0  0  0  0  0
   10.0643  -15.3203   22.5422 O   0  0  0  0  0  0  0  0  0  0  0  0
    5.5486  -12.3256   25.0040 C   0  0  0  0  0  0  0  0  0  0  0  0
    6.7803  -12.9583   24.3627 C   0  0  0  0  0  0  0  0  0  0  0  0
    7.3301  -14.0123   25.2763 C   0  0  2  0  0  0  0  0  0  0  0  0
    7.5945  -13.4865   26.6700 C   0  0  0  0  0  0  0  0  0  0  0  0
    8.4791  -14.7918   24.7246 C   0  0  2  0  0  0  0  0  0  0  0  0
    7.9912  -15.5063   23.5272 N   0  0  0  0  0  0  0  0  0  0  0  0
    9.0469  -15.8207   25.6295 C   0  0  0  0  0  0  0  0  0  0  0  0
    8.8583  -17.0619   25.3677 O   0  0  0  0  0  0  0  0  0  0  0  0
   11.1089  -14.5200   30.8592 C   0  0  0  0  0  0  0  0  0  0  0  0
   10.3656  -15.2398   29.7460 C   0  0  0  0  0  0  0  0  0  0  0  0
   11.2938  -15.8402   28.7543 C   0  0  2  0  0  0  0  0  0  0  0  0
   12.1041  -14.6642   28.1715 C   0  0  0  0  0  0  0  0  0  0  0  0
   10.6087  -16.4601   27.5480 C   0  0  2  0  0  0  0  0  0  0  0  0
    9.8052  -15.5404   26.7902 N   0  0  0  0  0  0  0  0  0  0  0  0
    9.8481  -17.6333   27.9414 C   0  0  0  0  0  0  0  0  0  0  0  0
    8.5738  -17.5580   28.0088 O   0  0  0  0  0  0  0  0  0  0  0  0
   10.4146  -18.8484   28.2541 O   0  0  0  0  0  0  0  0  0  0  0  0
  2  1  1  1
  3  2  1  0
  4  2  1  0
  4  5  2  0
  7  6  1  0
  7  8  1  0
  8 10  1  0
  8  9  1  1
 10 11  1  6
 10 12  1  0
 11  4  1  0
 12 19  1  0
 13 12  2  0
 14 15  1  0
 16 17  1  6
 16 18  1  0
 16 15  1  0
 18 20  1  0
 18 19  1  1
 20 21  2  0
 20 22  1  0
M  END
$$$$
