HPF.pdb
     RDKit          3D

 29 31  0  0  1  0  0  0  0  0999 V2000
   20.6277  -11.2576  -21.7155 N   0  0  0  0  0  0  0  0  0  0  0  0
   20.1637   -9.9039  -21.5230 C   0  0  1  0  0  0  0  0  0  0  0  0
   18.6375   -9.9807  -21.3280 C   0  0  0  0  0  0  0  0  0  0  0  0
   18.3029  -10.8403  -20.1382 C   0  0  0  0  0  0  0  0  0  0  0  0
   18.1596  -10.3799  -18.8402 C   0  0  0  0  0  0  0  0  0  0  0  0
   17.8707  -11.4425  -18.0910 N   0  0  0  0  0  0  0  0  0  0  0  0
   17.8225  -12.5566  -18.8482 C   0  0  0  0  0  0  0  0  0  0  0  0
   18.0932  -12.1611  -20.1150 N   0  0  0  0  0  0  0  0  0  0  0  0
   20.8004   -9.1404  -20.4649 C   0  0  0  0  0  0  0  0  0  0  0  0
   20.9298   -9.7447  -19.3430 O   0  0  0  0  0  0  0  0  0  0  0  0
   21.2941   -7.7747  -20.5667 N   0  0  0  0  0  0  0  0  0  0  0  0
   21.5453   -7.1243  -21.8307 C   0  0  0  0  0  0  0  0  0  0  0  0
   21.6625   -5.6600  -21.5077 C   0  0  0  0  0  0  0  0  0  0  0  0
   21.2780   -5.5066  -20.0719 C   0  0  0  0  0  0  0  0  0  0  0  0
   21.6337   -6.8972  -19.5108 C   0  0  1  0  0  0  0  0  0  0  0  0
   20.8920   -7.0138  -18.2507 C   0  0  0  0  0  0  0  0  0  0  0  0
   19.7374   -7.4400  -18.0699 O   0  0  0  0  0  0  0  0  0  0  0  0
   21.5728   -6.5840  -17.0517 N   0  0  0  0  0  0  0  0  0  0  0  0
   20.9346   -6.6291  -15.7374 C   0  0  1  0  0  0  0  0  0  0  0  0
   21.8157   -7.5294  -14.9028 C   0  0  0  0  0  0  0  0  0  0  0  0
   21.4260   -7.6367  -13.4947 C   0  0  0  0  0  0  0  0  0  0  0  0
   20.5140   -8.5843  -13.0927 C   0  0  0  0  0  0  0  0  0  0  0  0
   20.1265   -8.7181  -11.7747 C   0  0  0  0  0  0  0  0  0  0  0  0
   20.6720   -7.8730  -10.8330 C   0  0  0  0  0  0  0  0  0  0  0  0
   21.5886   -6.9215  -11.2448 C   0  0  0  0  0  0  0  0  0  0  0  0
   21.9712   -6.7932  -12.5596 C   0  0  0  0  0  0  0  0  0  0  0  0
   20.9349   -5.2645  -15.1961 C   0  0  0  0  0  0  0  0  0  0  0  0
   19.9435   -4.7866  -14.3512 O   0  0  0  0  0  0  0  0  0  0  0  0
   21.8740   -4.4808  -15.5051 O   0  0  0  0  0  0  0  0  0  0  0  0
  2  1  1  1
  2  3  1  0
  3  4  1  0
  4  5  2  0
  5  6  1  0
  7  6  1  0
  8  4  1  0
  8  7  2  0
  9 10  2  0
  9  2  1  0
 11  9  1  0
 12 11  1  0
 13 14  1  0
 13 12  1  0
 14 15  1  0
 15 11  1  0
 15 16  1  1
 17 16  2  0
 18 16  1  0
 19 18  1  0
 19 20  1  1
 21 20  1  0
 21 22  2  0
 23 22  1  0
 24 23  2  0
 25 26  2  0
 25 24  1  0
 26 21  1  0
 27 19  1  0
 28 27  1  0
 29 27  2  0
M  END
$$$$
