HPF.pdb
     RDKit          3D

 29 31  0  0  1  0  0  0  0  0999 V2000
   25.5758  -18.0842  -20.1299 N   0  0  0  0  0  0  0  0  0  0  0  0
   24.9881  -17.6604  -18.8809 C   0  0  1  0  0  0  0  0  0  0  0  0
   23.4880  -17.4345  -19.1497 C   0  0  0  0  0  0  0  0  0  0  0  0
   23.2817  -16.1753  -19.9484 C   0  0  0  0  0  0  0  0  0  0  0  0
   22.9942  -14.9317  -19.4117 C   0  0  0  0  0  0  0  0  0  0  0  0
   22.8834  -14.0918  -20.4394 N   0  0  0  0  0  0  0  0  0  0  0  0
   23.0866  -14.7394  -21.6040 C   0  0  0  0  0  0  0  0  0  0  0  0
   23.3324  -16.0306  -21.2772 N   0  0  0  0  0  0  0  0  0  0  0  0
   25.2018  -18.5237  -17.7333 C   0  0  0  0  0  0  0  0  0  0  0  0
   24.7827  -19.7276  -17.8567 O   0  0  0  0  0  0  0  0  0  0  0  0
   25.8383  -18.1465  -16.4796 N   0  0  0  0  0  0  0  0  0  0  0  0
   26.8015  -17.0759  -16.3805 C   0  0  0  0  0  0  0  0  0  0  0  0
   26.9087  -16.7724  -14.9114 C   0  0  0  0  0  0  0  0  0  0  0  0
   25.8418  -17.5674  -14.2314 C   0  0  0  0  0  0  0  0  0  0  0  0
   25.6694  -18.7457  -15.2097 C   0  0  1  0  0  0  0  0  0  0  0  0
   24.3633  -19.3326  -14.8915 C   0  0  0  0  0  0  0  0  0  0  0  0
   23.2334  -18.9270  -15.2177 O   0  0  0  0  0  0  0  0  0  0  0  0
   24.3670  -20.5392  -14.0979 N   0  0  0  0  0  0  0  0  0  0  0  0
   23.1326  -21.1536  -13.6125 C   0  0  1  0  0  0  0  0  0  0  0  0
   23.5811  -22.2486  -12.6728 C   0  0  0  0  0  0  0  0  0  0  0  0
   24.4903  -21.8123  -11.6103 C   0  0  0  0  0  0  0  0  0  0  0  0
   23.9960  -21.2726  -10.4459 C   0  0  0  0  0  0  0  0  0  0  0  0
   24.8214  -20.8550   -9.4215 C   0  0  0  0  0  0  0  0  0  0  0  0
   26.1850  -20.9834   -9.5731 C   0  0  0  0  0  0  0  0  0  0  0  0
   26.6753  -21.5267  -10.7475 C   0  0  0  0  0  0  0  0  0  0  0  0
   25.8477  -21.9415  -11.7647 C   0  0  0  0  0  0  0  0  0  0  0  0
   22.3817  -20.1252  -12.8820 C   0  0  0  0  0  0  0  0  0  0  0  0
   22.9290  -18.9015  -12.5236 O   0  0  0  0  0  0  0  0  0  0  0  0
   21.1832  -20.3515  -12.5598 O   0  0  0  0  0  0  0  0  0  0  0  0
  2  1  1  6
  2  3  1  0
  3  4  1  0
  4  5  2  0
  5  6  1  0
  7  6  1  0
  8  4  1  0
  8  7  2  0
  9 10  2  0
  9  2  1  0
 11  9  1  0
 12 11  1  0
 13 14  1  0
 13 12  1  0
 14 15  1  0
 15 11  1  0
 15 16  1  6
 17 16  2  0
 18 16  1  0
 19 18  1  0
 19 20  1  1
 21 20  1  0
 21 22  2  0
 23 22  1  0
 24 23  2  0
 25 26  2  0
 25 24  1  0
 26 21  1  0
 27 19  1  0
 28 27  1  0
 29 27  2  0
M  END
$$$$
