HPF.pdb
     RDKit          3D

 29 31  0  0  1  0  0  0  0  0999 V2000
   22.6588  -21.5693  -14.3113 N   0  0  0  0  0  0  0  0  0  0  0  0
   23.4133  -20.6342  -13.5105 C   0  0  1  0  0  0  0  0  0  0  0  0
   22.3971  -19.6490  -12.9023 C   0  0  0  0  0  0  0  0  0  0  0  0
   21.7143  -18.8617  -13.9887 C   0  0  0  0  0  0  0  0  0  0  0  0
   22.3632  -18.1034  -14.9484 C   0  0  0  0  0  0  0  0  0  0  0  0
   21.4139  -17.5672  -15.7134 N   0  0  0  0  0  0  0  0  0  0  0  0
   20.1925  -17.9471  -15.2881 C   0  0  0  0  0  0  0  0  0  0  0  0
   20.4011  -18.7500  -14.2175 N   0  0  0  0  0  0  0  0  0  0  0  0
   24.2843  -21.1989  -12.4955 C   0  0  0  0  0  0  0  0  0  0  0  0
   23.6971  -21.6893  -11.4683 O   0  0  0  0  0  0  0  0  0  0  0  0
   25.7382  -21.2545  -12.5433 N   0  0  0  0  0  0  0  0  0  0  0  0
   26.4798  -21.3215  -13.7800 C   0  0  0  0  0  0  0  0  0  0  0  0
   27.8975  -20.9797  -13.4122 C   0  0  0  0  0  0  0  0  0  0  0  0
   27.8744  -20.5371  -11.9851 C   0  0  0  0  0  0  0  0  0  0  0  0
   26.6385  -21.2884  -11.4530 C   0  0  1  0  0  0  0  0  0  0  0  0
   26.2560  -20.5916  -10.2201 C   0  0  0  0  0  0  0  0  0  0  0  0
   25.5823  -19.5532  -10.0962 O   0  0  0  0  0  0  0  0  0  0  0  0
   26.7095  -21.1704   -8.9771 N   0  0  0  0  0  0  0  0  0  0  0  0
   26.5877  -20.4659   -7.7021 C   0  0  1  0  0  0  0  0  0  0  0  0
   27.2119  -21.3889   -6.6814 C   0  0  0  0  0  0  0  0  0  0  0  0
   28.0439  -20.7214   -5.6771 C   0  0  0  0  0  0  0  0  0  0  0  0
   28.2461  -19.3621   -5.7292 C   0  0  0  0  0  0  0  0  0  0  0  0
   29.0194  -18.6983   -4.7982 C   0  0  0  0  0  0  0  0  0  0  0  0
   29.6075  -19.4237   -3.7850 C   0  0  0  0  0  0  0  0  0  0  0  0
   29.4001  -20.7911   -3.7392 C   0  0  0  0  0  0  0  0  0  0  0  0
   28.6282  -21.4470   -4.6695 C   0  0  0  0  0  0  0  0  0  0  0  0
   27.3575  -19.2204   -7.8073 C   0  0  0  0  0  0  0  0  0  0  0  0
   28.5374  -19.1201   -8.5304 O   0  0  0  0  0  0  0  0  0  0  0  0
   26.9377  -18.1866   -7.2185 O   0  0  0  0  0  0  0  0  0  0  0  0
  2  1  1  1
  2  3  1  0
  3  4  1  0
  4  5  2  0
  5  6  1  0
  7  6  1  0
  8  4  1  0
  8  7  2  0
  9 10  2  0
  9  2  1  0
 11  9  1  0
 12 11  1  0
 13 14  1  0
 13 12  1  0
 14 15  1  0
 15 11  1  0
 15 16  1  1
 17 16  2  0
 18 16  1  0
 19 18  1  0
 19 20  1  1
 21 20  1  0
 21 22  2  0
 23 22  1  0
 24 23  2  0
 25 26  2  0
 25 24  1  0
 26 21  1  0
 27 19  1  0
 28 27  1  0
 29 27  2  0
M  END
$$$$
