HPF.pdb
     RDKit          3D

 29 31  0  0  1  0  0  0  0  0999 V2000
   21.4113  -19.6582  -14.7874 N   0  0  0  0  0  0  0  0  0  0  0  0
   22.8401  -19.5045  -14.6464 C   0  0  1  0  0  0  0  0  0  0  0  0
   23.1373  -17.9964  -14.7510 C   0  0  0  0  0  0  0  0  0  0  0  0
   21.9367  -17.1941  -14.3253 C   0  0  0  0  0  0  0  0  0  0  0  0
   20.7181  -17.1774  -14.9826 C   0  0  0  0  0  0  0  0  0  0  0  0
   19.9302  -16.3492  -14.2990 N   0  0  0  0  0  0  0  0  0  0  0  0
   20.5871  -15.8381  -13.2386 C   0  0  0  0  0  0  0  0  0  0  0  0
   21.8300  -16.3752  -13.2731 N   0  0  0  0  0  0  0  0  0  0  0  0
   23.4452  -20.0880  -13.4627 C   0  0  0  0  0  0  0  0  0  0  0  0
   23.0002  -19.6590  -12.3410 O   0  0  0  0  0  0  0  0  0  0  0  0
   24.4934  -21.0981  -13.4411 N   0  0  0  0  0  0  0  0  0  0  0  0
   24.7950  -21.9390  -14.5749 C   0  0  0  0  0  0  0  0  0  0  0  0
   26.1407  -22.5407  -14.2767 C   0  0  0  0  0  0  0  0  0  0  0  0
   26.6509  -21.8599  -13.0483 C   0  0  0  0  0  0  0  0  0  0  0  0
   25.3353  -21.4475  -12.3597 C   0  0  1  0  0  0  0  0  0  0  0  0
   25.7042  -20.3969  -11.4047 C   0  0  0  0  0  0  0  0  0  0  0  0
   25.8256  -19.1756  -11.6078 O   0  0  0  0  0  0  0  0  0  0  0  0
   25.9639  -20.8130  -10.0464 N   0  0  0  0  0  0  0  0  0  0  0  0
   27.0408  -20.2304   -9.2478 C   0  0  1  0  0  0  0  0  0  0  0  0
   26.5676  -20.3306   -7.8163 C   0  0  0  0  0  0  0  0  0  0  0  0
   27.5435  -19.8941   -6.8146 C   0  0  0  0  0  0  0  0  0  0  0  0
   27.7684  -18.5551   -6.5958 C   0  0  0  0  0  0  0  0  0  0  0  0
   28.6761  -18.1065   -5.6576 C   0  0  0  0  0  0  0  0  0  0  0  0
   29.3792  -19.0325   -4.9181 C   0  0  0  0  0  0  0  0  0  0  0  0
   29.1481  -20.3781   -5.1440 C   0  0  0  0  0  0  0  0  0  0  0  0
   28.2419  -20.8190   -6.0800 C   0  0  0  0  0  0  0  0  0  0  0  0
   28.2398  -21.0527   -9.4514 C   0  0  0  0  0  0  0  0  0  0  0  0
   29.5146  -20.5158   -9.5603 O   0  0  0  0  0  0  0  0  0  0  0  0
   28.1195  -22.3059   -9.5322 O   0  0  0  0  0  0  0  0  0  0  0  0
  2  1  1  1
  2  3  1  0
  3  4  1  0
  4  5  2  0
  5  6  1  0
  7  6  1  0
  8  4  1  0
  8  7  2  0
  9 10  2  0
  9  2  1  0
 11  9  1  0
 12 11  1  0
 13 14  1  0
 13 12  1  0
 14 15  1  0
 15 11  1  0
 15 16  1  1
 17 16  2  0
 18 16  1  0
 19 18  1  0
 19 20  1  1
 21 20  1  0
 21 22  2  0
 23 22  1  0
 24 23  2  0
 25 26  2  0
 25 24  1  0
 26 21  1  0
 27 19  1  0
 28 27  1  0
 29 27  2  0
M  END
$$$$
