HPF.pdb
     RDKit          3D

 29 31  0  0  1  0  0  0  0  0999 V2000
   27.1793  -21.9962  -18.6630 N   0  0  0  0  0  0  0  0  0  0  0  0
   26.5595  -20.9920  -17.8309 C   0  0  1  0  0  0  0  0  0  0  0  0
   25.0365  -21.1696  -17.9798 C   0  0  0  0  0  0  0  0  0  0  0  0
   24.5795  -20.6754  -19.3264 C   0  0  0  0  0  0  0  0  0  0  0  0
   24.3140  -21.4812  -20.4207 C   0  0  0  0  0  0  0  0  0  0  0  0
   23.9437  -20.6685  -21.4088 N   0  0  0  0  0  0  0  0  0  0  0  0
   23.9599  -19.3850  -20.9973 C   0  0  0  0  0  0  0  0  0  0  0  0
   24.3568  -19.4112  -19.7026 N   0  0  0  0  0  0  0  0  0  0  0  0
   26.9607  -20.9622  -16.4360 C   0  0  0  0  0  0  0  0  0  0  0  0
   26.9640  -22.0925  -15.8335 O   0  0  0  0  0  0  0  0  0  0  0  0
   27.3515  -19.7824  -15.6780 N   0  0  0  0  0  0  0  0  0  0  0  0
   27.9155  -18.6056  -16.2951 C   0  0  0  0  0  0  0  0  0  0  0  0
   27.8134  -17.5238  -15.2551 C   0  0  0  0  0  0  0  0  0  0  0  0
   27.0071  -18.0868  -14.1301 C   0  0  0  0  0  0  0  0  0  0  0  0
   27.2893  -19.5947  -14.2775 C   0  0  1  0  0  0  0  0  0  0  0  0
   26.2172  -20.2691  -13.5376 C   0  0  0  0  0  0  0  0  0  0  0  0
   25.0339  -20.4443  -13.8793 O   0  0  0  0  0  0  0  0  0  0  0  0
   26.5588  -20.8079  -12.2420 N   0  0  0  0  0  0  0  0  0  0  0  0
   25.5885  -21.5287  -11.4200 C   0  0  1  0  0  0  0  0  0  0  0  0
   26.3853  -22.0739  -10.2576 C   0  0  0  0  0  0  0  0  0  0  0  0
   26.8129  -21.0694   -9.2808 C   0  0  0  0  0  0  0  0  0  0  0  0
   28.1498  -20.8364   -9.0582 C   0  0  0  0  0  0  0  0  0  0  0  0
   28.5901  -19.8951   -8.1496 C   0  0  0  0  0  0  0  0  0  0  0  0
   27.6575  -19.1669   -7.4434 C   0  0  0  0  0  0  0  0  0  0  0  0
   26.3141  -19.4069   -7.6722 C   0  0  0  0  0  0  0  0  0  0  0  0
   25.8814  -20.3460   -8.5792 C   0  0  0  0  0  0  0  0  0  0  0  0
   24.5943  -20.5560  -10.9502 C   0  0  0  0  0  0  0  0  0  0  0  0
   24.8103  -19.1855  -10.9696 O   0  0  0  0  0  0  0  0  0  0  0  0
   23.4890  -20.9720  -10.5067 O   0  0  0  0  0  0  0  0  0  0  0  0
  2  1  1  6
  2  3  1  0
  3  4  1  0
  4  5  2  0
  5  6  1  0
  7  6  1  0
  8  4  1  0
  8  7  2  0
  9 10  2  0
  9  2  1  0
 11  9  1  0
 12 11  1  0
 13 14  1  0
 13 12  1  0
 14 15  1  0
 15 11  1  0
 15 16  1  6
 17 16  2  0
 18 16  1  0
 19 18  1  0
 19 20  1  1
 21 20  1  0
 21 22  2  0
 23 22  1  0
 24 23  2  0
 25 26  2  0
 25 24  1  0
 26 21  1  0
 27 19  1  0
 28 27  1  0
 29 27  2  0
M  END
$$$$
