HPF.pdb
     RDKit          3D

 29 31  0  0  1  0  0  0  0  0999 V2000
   24.8305  -21.8979  -17.6241 N   0  0  0  0  0  0  0  0  0  0  0  0
   24.9843  -20.9277  -16.5659 C   0  0  1  0  0  0  0  0  0  0  0  0
   23.5650  -20.5287  -16.1191 C   0  0  0  0  0  0  0  0  0  0  0  0
   22.8848  -19.7204  -17.1917 C   0  0  0  0  0  0  0  0  0  0  0  0
   21.9017  -20.1965  -18.0426 C   0  0  0  0  0  0  0  0  0  0  0  0
   21.5666  -19.1830  -18.8392 N   0  0  0  0  0  0  0  0  0  0  0  0
   22.2878  -18.0850  -18.5369 C   0  0  0  0  0  0  0  0  0  0  0  0
   23.0992  -18.4396  -17.5121 N   0  0  0  0  0  0  0  0  0  0  0  0
   25.8102  -21.3184  -15.4376 C   0  0  0  0  0  0  0  0  0  0  0  0
   25.4584  -22.3930  -14.8360 O   0  0  0  0  0  0  0  0  0  0  0  0
   26.9800  -20.6085  -14.9408 N   0  0  0  0  0  0  0  0  0  0  0  0
   27.8687  -19.8637  -15.8007 C   0  0  0  0  0  0  0  0  0  0  0  0
   28.6828  -18.9992  -14.8777 C   0  0  0  0  0  0  0  0  0  0  0  0
   28.0860  -19.1470  -13.5158 C   0  0  0  0  0  0  0  0  0  0  0  0
   27.4553  -20.5500  -13.6100 C   0  0  1  0  0  0  0  0  0  0  0  0
   26.4727  -20.6128  -12.5226 C   0  0  0  0  0  0  0  0  0  0  0  0
   25.2998  -20.1982  -12.5158 O   0  0  0  0  0  0  0  0  0  0  0  0
   26.9022  -21.2335  -11.2914 N   0  0  0  0  0  0  0  0  0  0  0  0
   25.9731  -21.5169  -10.1990 C   0  0  1  0  0  0  0  0  0  0  0  0
   26.8397  -22.0085   -9.0629 C   0  0  0  0  0  0  0  0  0  0  0  0
   27.5340  -20.9543   -8.3193 C   0  0  0  0  0  0  0  0  0  0  0  0
   26.8227  -20.0231   -7.5995 C   0  0  0  0  0  0  0  0  0  0  0  0
   27.4423  -19.0188   -6.8831 C   0  0  0  0  0  0  0  0  0  0  0  0
   28.8184  -18.9490   -6.8918 C   0  0  0  0  0  0  0  0  0  0  0  0
   29.5275  -19.8890   -7.6186 C   0  0  0  0  0  0  0  0  0  0  0  0
   28.9046  -20.8877   -8.3302 C   0  0  0  0  0  0  0  0  0  0  0  0
   25.3162  -20.2554   -9.8356 C   0  0  0  0  0  0  0  0  0  0  0  0
   25.8493  -19.0109  -10.1397 O   0  0  0  0  0  0  0  0  0  0  0  0
   24.2162  -20.2903   -9.2190 O   0  0  0  0  0  0  0  0  0  0  0  0
  2  1  1  6
  2  3  1  0
  3  4  1  0
  4  5  2  0
  5  6  1  0
  7  6  1  0
  8  4  1  0
  8  7  2  0
  9 10  2  0
  9  2  1  0
 11  9  1  0
 12 11  1  0
 13 14  1  0
 13 12  1  0
 14 15  1  0
 15 11  1  0
 15 16  1  1
 17 16  2  0
 18 16  1  0
 19 18  1  0
 19 20  1  1
 21 20  1  0
 21 22  2  0
 23 22  1  0
 24 23  2  0
 25 26  2  0
 25 24  1  0
 26 21  1  0
 27 19  1  0
 28 27  1  0
 29 27  2  0
M  END
$$$$
