HPF.pdb
     RDKit          3D

 29 31  0  0  1  0  0  0  0  0999 V2000
   26.8382  -20.7032  -19.0576 N   0  0  0  0  0  0  0  0  0  0  0  0
   25.9798  -20.1054  -18.0622 C   0  0  1  0  0  0  0  0  0  0  0  0
   24.5970  -20.7676  -18.2124 C   0  0  0  0  0  0  0  0  0  0  0  0
   23.9547  -20.3534  -19.5094 C   0  0  0  0  0  0  0  0  0  0  0  0
   23.5937  -21.2177  -20.5292 C   0  0  0  0  0  0  0  0  0  0  0  0
   23.0669  -20.4660  -21.4943 N   0  0  0  0  0  0  0  0  0  0  0  0
   23.0745  -19.1657  -21.1390 C   0  0  0  0  0  0  0  0  0  0  0  0
   23.6290  -19.1176  -19.9042 N   0  0  0  0  0  0  0  0  0  0  0  0
   26.4467  -20.1476  -16.6881 C   0  0  0  0  0  0  0  0  0  0  0  0
   26.6225  -21.3168  -16.1956 O   0  0  0  0  0  0  0  0  0  0  0  0
   26.7262  -18.9989  -15.8387 N   0  0  0  0  0  0  0  0  0  0  0  0
   27.0720  -17.7002  -16.3655 C   0  0  0  0  0  0  0  0  0  0  0  0
   26.9003  -16.7462  -15.2154 C   0  0  0  0  0  0  0  0  0  0  0  0
   26.2688  -17.5230  -14.1060 C   0  0  0  0  0  0  0  0  0  0  0  0
   26.7460  -18.9532  -14.4252 C   0  0  1  0  0  0  0  0  0  0  0  0
   25.8381  -19.8428  -13.6931 C   0  0  0  0  0  0  0  0  0  0  0  0
   24.6767  -20.1760  -13.9893 O   0  0  0  0  0  0  0  0  0  0  0  0
   26.3381  -20.4179  -12.4663 N   0  0  0  0  0  0  0  0  0  0  0  0
   25.5479  -21.3537  -11.6684 C   0  0  1  0  0  0  0  0  0  0  0  0
   26.4807  -21.8259  -10.5774 C   0  0  0  0  0  0  0  0  0  0  0  0
   26.4087  -21.0575   -9.3322 C   0  0  0  0  0  0  0  0  0  0  0  0
   25.7408  -21.5590   -8.2397 C   0  0  0  0  0  0  0  0  0  0  0  0
   25.6560  -20.8661   -7.0489 C   0  0  0  0  0  0  0  0  0  0  0  0
   26.2604  -19.6315   -6.9545 C   0  0  0  0  0  0  0  0  0  0  0  0
   26.9302  -19.1328   -8.0580 C   0  0  0  0  0  0  0  0  0  0  0  0
   27.0117  -19.8281   -9.2419 C   0  0  0  0  0  0  0  0  0  0  0  0
   24.4218  -20.6072  -11.0941 C   0  0  0  0  0  0  0  0  0  0  0  0
   23.2638  -21.2198  -10.6369 O   0  0  0  0  0  0  0  0  0  0  0  0
   24.4978  -19.3510  -11.0061 O   0  0  0  0  0  0  0  0  0  0  0  0
  2  1  1  6
  2  3  1  0
  3  4  1  0
  4  5  2  0
  5  6  1  0
  7  6  1  0
  8  4  1  0
  8  7  2  0
  9 10  2  0
  9  2  1  0
 11  9  1  0
 12 11  1  0
 13 14  1  0
 13 12  1  0
 14 15  1  0
 15 11  1  0
 15 16  1  1
 17 16  2  0
 18 16  1  0
 19 18  1  0
 19 20  1  1
 21 20  1  0
 21 22  2  0
 23 22  1  0
 24 23  2  0
 25 26  2  0
 25 24  1  0
 26 21  1  0
 27 19  1  0
 28 27  1  0
 29 27  2  0
M  END
$$$$
