HPF.pdb
     RDKit          3D

 29 31  0  0  1  0  0  0  0  0999 V2000
   23.2769  -20.9998  -15.9353 N   0  0  0  0  0  0  0  0  0  0  0  0
   23.7946  -20.1409  -14.8964 C   0  0  1  0  0  0  0  0  0  0  0  0
   22.5778  -19.5822  -14.1343 C   0  0  0  0  0  0  0  0  0  0  0  0
   21.7499  -18.7068  -15.0368 C   0  0  0  0  0  0  0  0  0  0  0  0
   20.6584  -19.1330  -15.7746 C   0  0  0  0  0  0  0  0  0  0  0  0
   20.2102  -18.0684  -16.4377 N   0  0  0  0  0  0  0  0  0  0  0  0
   20.9624  -16.9853  -16.1579 C   0  0  0  0  0  0  0  0  0  0  0  0
   21.9117  -17.4028  -15.2869 N   0  0  0  0  0  0  0  0  0  0  0  0
   24.7696  -20.7247  -13.9929 C   0  0  0  0  0  0  0  0  0  0  0  0
   24.3967  -21.7871  -13.3825 O   0  0  0  0  0  0  0  0  0  0  0  0
   26.1076  -20.2169  -13.7260 N   0  0  0  0  0  0  0  0  0  0  0  0
   26.8441  -19.4131  -14.6722 C   0  0  0  0  0  0  0  0  0  0  0  0
   27.9661  -18.7975  -13.8821 C   0  0  0  0  0  0  0  0  0  0  0  0
   27.7112  -19.1291  -12.4475 C   0  0  0  0  0  0  0  0  0  0  0  0
   26.9011  -20.4339  -12.5755 C   0  0  1  0  0  0  0  0  0  0  0  0
   26.2188  -20.6006  -11.2877 C   0  0  0  0  0  0  0  0  0  0  0  0
   25.0502  -20.2980  -10.9872 O   0  0  0  0  0  0  0  0  0  0  0  0
   26.9854  -21.1917  -10.2159 N   0  0  0  0  0  0  0  0  0  0  0  0
   26.4196  -21.4126   -8.8864 C   0  0  1  0  0  0  0  0  0  0  0  0
   27.5769  -21.8908   -8.0407 C   0  0  0  0  0  0  0  0  0  0  0  0
   28.0130  -20.9488   -7.0069 C   0  0  0  0  0  0  0  0  0  0  0  0
   27.5101  -21.0317   -5.7295 C   0  0  0  0  0  0  0  0  0  0  0  0
   27.9008  -20.1650   -4.7287 C   0  0  0  0  0  0  0  0  0  0  0  0
   28.8244  -19.1853   -5.0218 C   0  0  0  0  0  0  0  0  0  0  0  0
   29.3256  -19.1075   -6.3092 C   0  0  0  0  0  0  0  0  0  0  0  0
   28.9328  -19.9743   -7.3023 C   0  0  0  0  0  0  0  0  0  0  0  0
   25.9228  -20.1216   -8.3947 C   0  0  0  0  0  0  0  0  0  0  0  0
   26.5271  -18.9117   -8.7049 O   0  0  0  0  0  0  0  0  0  0  0  0
   24.9005  -20.0971   -7.6559 O   0  0  0  0  0  0  0  0  0  0  0  0
  2  1  1  6
  2  3  1  0
  3  4  1  0
  4  5  2  0
  5  6  1  0
  7  6  1  0
  8  4  1  0
  8  7  2  0
  9 10  2  0
  9  2  1  0
 11  9  1  0
 12 11  1  0
 13 14  1  0
 13 12  1  0
 14 15  1  0
 15 11  1  0
 15 16  1  1
 17 16  2  0
 18 16  1  0
 19 18  1  0
 19 20  1  1
 21 20  1  0
 21 22  2  0
 23 22  1  0
 24 23  2  0
 25 26  2  0
 25 24  1  0
 26 21  1  0
 27 19  1  0
 28 27  1  0
 29 27  2  0
M  END
$$$$
