HPF.pdb
     RDKit          3D

 29 31  0  0  1  0  0  0  0  0999 V2000
   28.2943  -20.6945  -16.7258 N   0  0  0  0  0  0  0  0  0  0  0  0
   28.4944  -20.1110  -15.4202 C   0  0  1  0  0  0  0  0  0  0  0  0
   27.9897  -18.6576  -15.5010 C   0  0  0  0  0  0  0  0  0  0  0  0
   28.8269  -17.8643  -16.4685 C   0  0  0  0  0  0  0  0  0  0  0  0
   30.1390  -17.4778  -16.2531 C   0  0  0  0  0  0  0  0  0  0  0  0
   30.5156  -16.7965  -17.3338 N   0  0  0  0  0  0  0  0  0  0  0  0
   29.5080  -16.7305  -18.2268 C   0  0  0  0  0  0  0  0  0  0  0  0
   28.4698  -17.3993  -17.6708 N   0  0  0  0  0  0  0  0  0  0  0  0
   27.9118  -20.8176  -14.2937 C   0  0  0  0  0  0  0  0  0  0  0  0
   26.6657  -21.0954  -14.3950 O   0  0  0  0  0  0  0  0  0  0  0  0
   28.6078  -21.2291  -13.0831 N   0  0  0  0  0  0  0  0  0  0  0  0
   30.0093  -21.5743  -13.0635 C   0  0  0  0  0  0  0  0  0  0  0  0
   30.4021  -21.5592  -11.6118 C   0  0  0  0  0  0  0  0  0  0  0  0
   29.2341  -21.0106  -10.8583 C   0  0  0  0  0  0  0  0  0  0  0  0
   28.0653  -21.3929  -11.7872 C   0  0  1  0  0  0  0  0  0  0  0  0
   26.9495  -20.5267  -11.3915 C   0  0  0  0  0  0  0  0  0  0  0  0
   26.8407  -19.2951  -11.5285 O   0  0  0  0  0  0  0  0  0  0  0  0
   25.8199  -21.1672  -10.7595 N   0  0  0  0  0  0  0  0  0  0  0  0
   24.6289  -20.4213  -10.3571 C   0  0  1  0  0  0  0  0  0  0  0  0
   23.5365  -20.8912  -11.2893 C   0  0  0  0  0  0  0  0  0  0  0  0
   22.2099  -20.3355  -11.0109 C   0  0  0  0  0  0  0  0  0  0  0  0
   21.3803  -20.9352  -10.0925 C   0  0  0  0  0  0  0  0  0  0  0  0
   20.1262  -20.4377   -9.8007 C   0  0  0  0  0  0  0  0  0  0  0  0
   19.6934  -19.3036  -10.4528 C   0  0  0  0  0  0  0  0  0  0  0  0
   20.5333  -18.7059  -11.3759 C   0  0  0  0  0  0  0  0  0  0  0  0
   21.7822  -19.2060  -11.6622 C   0  0  0  0  0  0  0  0  0  0  0  0
   24.3179  -20.7944   -8.9717 C   0  0  0  0  0  0  0  0  0  0  0  0
   23.6591  -19.9484   -8.0911 O   0  0  0  0  0  0  0  0  0  0  0  0
   24.6594  -21.9334   -8.5503 O   0  0  0  0  0  0  0  0  0  0  0  0
  2  1  1  6
  2  3  1  0
  3  4  1  0
  4  5  2  0
  5  6  1  0
  7  6  1  0
  8  4  1  0
  8  7  2  0
  9 10  2  0
  9  2  1  0
 11  9  1  0
 12 11  1  0
 13 14  1  0
 13 12  1  0
 14 15  1  0
 15 11  1  0
 15 16  1  6
 17 16  2  0
 18 16  1  0
 19 18  1  0
 19 20  1  6
 21 20  1  0
 21 22  2  0
 23 22  1  0
 24 23  2  0
 25 26  2  0
 25 24  1  0
 26 21  1  0
 27 19  1  0
 28 27  1  0
 29 27  2  0
M  END
$$$$
