HPF.pdb
     RDKit          3D

 29 31  0  0  1  0  0  0  0  0999 V2000
   24.6423  -18.4102  -15.4990 N   0  0  0  0  0  0  0  0  0  0  0  0
   25.6968  -18.3151  -14.5170 C   0  0  1  0  0  0  0  0  0  0  0  0
   25.6323  -16.8913  -13.9323 C   0  0  0  0  0  0  0  0  0  0  0  0
   25.8776  -15.8694  -15.0102 C   0  0  0  0  0  0  0  0  0  0  0  0
   24.9098  -15.0452  -15.5592 C   0  0  0  0  0  0  0  0  0  0  0  0
   25.5239  -14.2970  -16.4741 N   0  0  0  0  0  0  0  0  0  0  0  0
   26.8351  -14.6040  -16.5344 C   0  0  0  0  0  0  0  0  0  0  0  0
   27.0338  -15.5815  -15.6181 N   0  0  0  0  0  0  0  0  0  0  0  0
   25.7075  -19.3226  -13.4718 C   0  0  0  0  0  0  0  0  0  0  0  0
   24.7413  -19.2649  -12.6330 O   0  0  0  0  0  0  0  0  0  0  0  0
   26.7019  -20.3716  -13.2980 N   0  0  0  0  0  0  0  0  0  0  0  0
   27.4604  -20.9223  -14.3959 C   0  0  0  0  0  0  0  0  0  0  0  0
   28.6022  -21.6642  -13.7574 C   0  0  0  0  0  0  0  0  0  0  0  0
   28.5580  -21.3439  -12.2985 C   0  0  0  0  0  0  0  0  0  0  0  0
   27.0619  -21.0318  -12.1002 C   0  0  1  0  0  0  0  0  0  0  0  0
   26.9811  -20.2771  -10.8449 C   0  0  0  0  0  0  0  0  0  0  0  0
   27.6425  -19.2827  -10.4969 O   0  0  0  0  0  0  0  0  0  0  0  0
   26.0137  -20.7305   -9.8732 N   0  0  0  0  0  0  0  0  0  0  0  0
   26.3671  -20.9586   -8.4733 C   0  0  1  0  0  0  0  0  0  0  0  0
   26.8041  -19.6090   -7.9527 C   0  0  0  0  0  0  0  0  0  0  0  0
   27.5680  -19.6503   -6.7034 C   0  0  0  0  0  0  0  0  0  0  0  0
   28.9426  -19.6148   -6.7238 C   0  0  0  0  0  0  0  0  0  0  0  0
   29.6955  -19.6472   -5.5673 C   0  0  0  0  0  0  0  0  0  0  0  0
   29.0461  -19.7181   -4.3540 C   0  0  0  0  0  0  0  0  0  0  0  0
   27.6628  -19.7540   -4.3411 C   0  0  0  0  0  0  0  0  0  0  0  0
   26.9180  -19.7211   -5.4969 C   0  0  0  0  0  0  0  0  0  0  0  0
   25.1561  -21.4103   -7.7771 C   0  0  0  0  0  0  0  0  0  0  0  0
   25.1839  -22.0217   -6.5319 O   0  0  0  0  0  0  0  0  0  0  0  0
   24.0325  -21.2404   -8.3250 O   0  0  0  0  0  0  0  0  0  0  0  0
  2  1  1  6
  2  3  1  0
  3  4  1  0
  4  5  2  0
  5  6  1  0
  7  6  1  0
  8  4  1  0
  8  7  2  0
  9 10  2  0
  9  2  1  0
 11  9  1  0
 12 11  1  0
 13 14  1  0
 13 12  1  0
 14 15  1  0
 15 11  1  0
 15 16  1  1
 17 16  2  0
 18 16  1  0
 19 18  1  0
 19 20  1  1
 21 20  1  0
 21 22  2  0
 23 22  1  0
 24 23  2  0
 25 26  2  0
 25 24  1  0
 26 21  1  0
 27 19  1  0
 28 27  1  0
 29 27  2  0
M  END
$$$$
