HPF.pdb
     RDKit          3D

 29 31  0  0  1  0  0  0  0  0999 V2000
   17.3758  -23.7947  -13.7953 N   0  0  0  0  0  0  0  0  0  0  0  0
   18.2975  -23.7214  -12.6862 C   0  0  1  0  0  0  0  0  0  0  0  0
   18.5959  -22.2279  -12.4545 C   0  0  0  0  0  0  0  0  0  0  0  0
   19.1621  -21.6058  -13.7031 C   0  0  0  0  0  0  0  0  0  0  0  0
   20.5103  -21.5171  -14.0059 C   0  0  0  0  0  0  0  0  0  0  0  0
   20.5943  -20.9021  -15.1843 N   0  0  0  0  0  0  0  0  0  0  0  0
   19.3659  -20.5952  -15.6468 C   0  0  0  0  0  0  0  0  0  0  0  0
   18.4916  -21.0406  -14.7131 N   0  0  0  0  0  0  0  0  0  0  0  0
   17.8946  -24.3831  -11.4584 C   0  0  0  0  0  0  0  0  0  0  0  0
   17.2802  -23.6500  -10.6067 O   0  0  0  0  0  0  0  0  0  0  0  0
   18.1244  -25.7798  -11.1184 N   0  0  0  0  0  0  0  0  0  0  0  0
   18.3913  -26.7943  -12.1100 C   0  0  0  0  0  0  0  0  0  0  0  0
   18.9353  -27.9674  -11.3420 C   0  0  0  0  0  0  0  0  0  0  0  0
   19.1398  -27.5012   -9.9371 C   0  0  0  0  0  0  0  0  0  0  0  0
   18.0944  -26.3735   -9.8350 C   0  0  1  0  0  0  0  0  0  0  0  0
   18.5069  -25.5581   -8.6875 C   0  0  0  0  0  0  0  0  0  0  0  0
   19.4681  -24.7729   -8.6028 O   0  0  0  0  0  0  0  0  0  0  0  0
   17.7062  -25.6655   -7.4904 N   0  0  0  0  0  0  0  0  0  0  0  0
   18.0606  -24.9711   -6.2539 C   0  0  1  0  0  0  0  0  0  0  0  0
   16.7620  -24.3932   -5.7410 C   0  0  0  0  0  0  0  0  0  0  0  0
   15.7974  -25.3839   -5.2569 C   0  0  0  0  0  0  0  0  0  0  0  0
   15.7927  -25.7665   -3.9359 C   0  0  0  0  0  0  0  0  0  0  0  0
   14.8962  -26.6930   -3.4428 C   0  0  0  0  0  0  0  0  0  0  0  0
   13.9776  -27.2520   -4.3043 C   0  0  0  0  0  0  0  0  0  0  0  0
   13.9885  -26.8627   -5.6322 C   0  0  0  0  0  0  0  0  0  0  0  0
   14.8840  -25.9386   -6.1177 C   0  0  0  0  0  0  0  0  0  0  0  0
   18.5833  -25.9723   -5.3161 C   0  0  0  0  0  0  0  0  0  0  0  0
   19.2711  -25.6370   -4.1586 O   0  0  0  0  0  0  0  0  0  0  0  0
   18.4055  -27.1969   -5.5619 O   0  0  0  0  0  0  0  0  0  0  0  0
  2  1  1  6
  2  3  1  0
  3  4  1  0
  4  5  2  0
  5  6  1  0
  7  6  1  0
  8  4  1  0
  8  7  2  0
  9 10  2  0
  9  2  1  0
 11  9  1  0
 12 11  1  0
 13 14  1  0
 13 12  1  0
 14 15  1  0
 15 11  1  0
 15 16  1  1
 17 16  2  0
 18 16  1  0
 19 18  1  0
 19 20  1  1
 21 20  1  0
 21 22  2  0
 23 22  1  0
 24 23  2  0
 25 26  2  0
 25 24  1  0
 26 21  1  0
 27 19  1  0
 28 27  1  0
 29 27  2  0
M  END
$$$$
