HPF.pdb
     RDKit          3D

 29 31  0  0  1  0  0  0  0  0999 V2000
   22.0122  -13.2180  -18.8275 N   0  0  0  0  0  0  0  0  0  0  0  0
   20.8907  -12.7087  -18.0740 C   0  0  1  0  0  0  0  0  0  0  0  0
   20.6159  -13.7220  -16.9466 C   0  0  0  0  0  0  0  0  0  0  0  0
   20.1207  -15.0232  -17.5195 C   0  0  0  0  0  0  0  0  0  0  0  0
   20.8469  -16.2014  -17.5600 C   0  0  0  0  0  0  0  0  0  0  0  0
   20.0648  -17.1087  -18.1421 N   0  0  0  0  0  0  0  0  0  0  0  0
   18.8762  -16.5663  -18.4737 C   0  0  0  0  0  0  0  0  0  0  0  0
   18.9313  -15.2720  -18.0786 N   0  0  0  0  0  0  0  0  0  0  0  0
   21.0104  -11.3562  -17.5600 C   0  0  0  0  0  0  0  0  0  0  0  0
   21.9143  -11.1767  -16.6705 O   0  0  0  0  0  0  0  0  0  0  0  0
   20.2077  -10.2095  -17.9601 N   0  0  0  0  0  0  0  0  0  0  0  0
   19.4665  -10.1651  -19.1980 C   0  0  0  0  0  0  0  0  0  0  0  0
   18.5045   -9.0193  -19.0444 C   0  0  0  0  0  0  0  0  0  0  0  0
   18.6046   -8.5641  -17.6246 C   0  0  0  0  0  0  0  0  0  0  0  0
   20.0440   -8.9858  -17.2702 C   0  0  1  0  0  0  0  0  0  0  0  0
   20.0973   -9.0072  -15.8044 C   0  0  0  0  0  0  0  0  0  0  0  0
   19.7197   -9.9048  -15.0302 O   0  0  0  0  0  0  0  0  0  0  0  0
   20.6582   -7.8452  -15.1557 N   0  0  0  0  0  0  0  0  0  0  0  0
   20.7785   -7.7493  -13.7021 C   0  0  1  0  0  0  0  0  0  0  0  0
   22.1660   -7.2030  -13.4572 C   0  0  0  0  0  0  0  0  0  0  0  0
   22.4409   -5.9145  -14.0977 C   0  0  0  0  0  0  0  0  0  0  0  0
   23.0883   -5.8611  -15.3099 C   0  0  0  0  0  0  0  0  0  0  0  0
   23.3601   -4.6663  -15.9454 C   0  0  0  0  0  0  0  0  0  0  0  0
   22.9697   -3.4901  -15.3433 C   0  0  0  0  0  0  0  0  0  0  0  0
   22.3192   -3.5513  -14.1235 C   0  0  0  0  0  0  0  0  0  0  0  0
   22.0507   -4.7450  -13.4952 C   0  0  0  0  0  0  0  0  0  0  0  0
   19.7622   -6.7991  -13.2338 C   0  0  0  0  0  0  0  0  0  0  0  0
   19.3797   -6.6962  -11.9040 O   0  0  0  0  0  0  0  0  0  0  0  0
   19.2038   -6.0352  -14.0682 O   0  0  0  0  0  0  0  0  0  0  0  0
  2  1  1  1
  2  3  1  0
  3  4  1  0
  4  5  2  0
  5  6  1  0
  7  6  1  0
  8  4  1  0
  8  7  2  0
  9 10  2  0
  9  2  1  0
 11  9  1  0
 12 11  1  0
 13 14  1  0
 13 12  1  0
 14 15  1  0
 15 11  1  0
 15 16  1  1
 17 16  2  0
 18 16  1  0
 19 18  1  0
 19 20  1  6
 21 20  1  0
 21 22  2  0
 23 22  1  0
 24 23  2  0
 25 26  2  0
 25 24  1  0
 26 21  1  0
 27 19  1  0
 28 27  1  0
 29 27  2  0
M  END
$$$$
