TVV.pdb
     RDKit          3D

 22 21  0  0  1  0  0  0  0  0999 V2000
   12.7439  -19.3212   20.4469 C   0  0  0  0  0  0  0  0  0  0  0  0
   12.2091  -18.4201   21.5409 C   0  0  1  0  0  0  0  0  0  0  0  0
   13.3221  -18.0874   22.3438 O   0  0  0  0  0  0  0  0  0  0  0  0
   11.7275  -17.1184   20.9388 C   0  0  2  0  0  0  0  0  0  0  0  0
   12.7928  -16.4618   20.2251 N   0  0  0  0  0  0  0  0  0  0  0  0
   11.1800  -16.1994   21.9480 C   0  0  0  0  0  0  0  0  0  0  0  0
   11.8343  -15.2221   22.4135 O   0  0  0  0  0  0  0  0  0  0  0  0
    7.3816  -14.9073   21.7759 C   0  0  0  0  0  0  0  0  0  0  0  0
    7.7357  -15.5109   23.0857 C   0  0  2  0  0  0  0  0  0  0  0  0
    7.0155  -14.7747   24.1947 C   0  0  0  0  0  0  0  0  0  0  0  0
    9.2160  -15.5442   23.3710 C   0  0  2  0  0  0  0  0  0  0  0  0
    9.8604  -16.4096   22.4273 N   0  0  0  0  0  0  0  0  0  0  0  0
    9.5234  -15.9323   24.7584 C   0  0  0  0  0  0  0  0  0  0  0  0
    9.9579  -17.0976   24.9745 O   0  0  0  0  0  0  0  0  0  0  0  0
   10.5199  -14.7437   29.4544 C   0  0  0  0  0  0  0  0  0  0  0  0
    9.7969  -14.3519   28.1833 C   0  0  1  0  0  0  0  0  0  0  0  0
   10.1881  -12.9932   27.7187 C   0  0  0  0  0  0  0  0  0  0  0  0
    9.8985  -15.4186   27.1275 C   0  0  2  0  0  0  0  0  0  0  0  0
    9.3546  -15.0585   25.8670 N   0  0  0  0  0  0  0  0  0  0  0  0
    9.2653  -16.6773   27.6393 C   0  0  0  0  0  0  0  0  0  0  0  0
   10.0177  -17.5805   28.3554 O   0  0  0  0  0  0  0  0  0  0  0  0
    8.0628  -16.8842   27.4060 O   0  0  0  0  0  0  0  0  0  0  0  0
  2  1  1  6
  2  4  1  0
  3  2  1  0
  4  5  1  1
  4  6  1  0
  6  7  2  0
  6 12  1  0
  9  8  1  6
  9 11  1  0
 10  9  1  0
 11 13  1  0
 11 12  1  6
 13 14  2  0
 13 19  1  0
 16 15  1  1
 17 16  1  0
 18 16  1  0
 18 20  1  0
 18 19  1  6
 20 21  1  0
 22 20  2  0
M  END
$$$$
