TVV.pdb
     RDKit          3D

 22 21  0  0  1  0  0  0  0  0999 V2000
    6.2669  -16.8748   22.5249 C   0  0  0  0  0  0  0  0  0  0  0  0
    7.1840  -16.2558   21.4902 C   0  0  1  0  0  0  0  0  0  0  0  0
    6.5333  -16.4253   20.2485 O   0  0  0  0  0  0  0  0  0  0  0  0
    7.2694  -14.7620   21.7138 C   0  0  2  0  0  0  0  0  0  0  0  0
    7.8801  -14.1112   20.5830 N   0  0  0  0  0  0  0  0  0  0  0  0
    8.0143  -14.4167   22.9339 C   0  0  0  0  0  0  0  0  0  0  0  0
    9.2735  -14.3004   22.9597 O   0  0  0  0  0  0  0  0  0  0  0  0
    6.6310  -11.7681   25.6192 C   0  0  0  0  0  0  0  0  0  0  0  0
    7.0025  -13.0679   26.2339 C   0  0  2  0  0  0  0  0  0  0  0  0
    7.6191  -12.8274   27.5950 C   0  0  0  0  0  0  0  0  0  0  0  0
    7.9312  -13.9066   25.3925 C   0  0  2  0  0  0  0  0  0  0  0  0
    7.2982  -14.2024   24.1409 N   0  0  0  0  0  0  0  0  0  0  0  0
    8.3744  -15.1330   26.0776 C   0  0  0  0  0  0  0  0  0  0  0  0
    7.5096  -16.0055   26.3678 O   0  0  0  0  0  0  0  0  0  0  0  0
   10.8742  -17.6441   24.8119 C   0  0  0  0  0  0  0  0  0  0  0  0
   11.2200  -17.3337   26.2527 C   0  0  1  0  0  0  0  0  0  0  0  0
   12.5302  -16.6377   26.3713 C   0  0  0  0  0  0  0  0  0  0  0  0
   10.0885  -16.6458   26.9665 C   0  0  2  0  0  0  0  0  0  0  0  0
    9.7292  -15.3826   26.4285 N   0  0  0  0  0  0  0  0  0  0  0  0
   10.4270  -16.5266   28.4220 C   0  0  0  0  0  0  0  0  0  0  0  0
   10.5347  -17.6601   29.1954 O   0  0  0  0  0  0  0  0  0  0  0  0
   10.6056  -15.3974   28.9080 O   0  0  0  0  0  0  0  0  0  0  0  0
  2  1  1  1
  2  4  1  0
  3  2  1  0
  4  5  1  6
  4  6  1  0
  6  7  2  0
  6 12  1  0
  9  8  1  6
  9 11  1  0
 10  9  1  0
 11 13  1  0
 11 12  1  6
 13 14  2  0
 13 19  1  0
 16 15  1  6
 17 16  1  0
 18 16  1  0
 18 20  1  0
 18 19  1  6
 20 21  1  0
 22 20  2  0
M  END
$$$$
