TVV.pdb
     RDKit          3D

 22 21  0  0  1  0  0  0  0  0999 V2000
    7.0785  -17.3334   22.7638 C   0  0  0  0  0  0  0  0  0  0  0  0
    7.8402  -16.6302   21.6592 C   0  0  1  0  0  0  0  0  0  0  0  0
    7.2362  -17.0435   20.4516 O   0  0  0  0  0  0  0  0  0  0  0  0
    7.6078  -15.1380   21.7503 C   0  0  2  0  0  0  0  0  0  0  0  0
    8.0925  -14.4733   20.5677 N   0  0  0  0  0  0  0  0  0  0  0  0
    8.2394  -14.5409   22.9367 C   0  0  0  0  0  0  0  0  0  0  0  0
    9.4644  -14.2289   22.9786 O   0  0  0  0  0  0  0  0  0  0  0  0
    6.4917  -11.8153   25.4108 C   0  0  0  0  0  0  0  0  0  0  0  0
    6.9244  -13.0678   26.0812 C   0  0  2  0  0  0  0  0  0  0  0  0
    7.4063  -12.7534   27.4810 C   0  0  0  0  0  0  0  0  0  0  0  0
    7.9873  -13.8333   25.3341 C   0  0  2  0  0  0  0  0  0  0  0  0
    7.4482  -14.3001   24.0906 N   0  0  0  0  0  0  0  0  0  0  0  0
    8.5599  -14.9371   26.1237 C   0  0  0  0  0  0  0  0  0  0  0  0
    7.8021  -15.8860   26.4684 O   0  0  0  0  0  0  0  0  0  0  0  0
   12.2878  -17.7821   27.4890 C   0  0  0  0  0  0  0  0  0  0  0  0
   11.7890  -16.5831   26.7108 C   0  0  1  0  0  0  0  0  0  0  0  0
   11.9090  -16.7863   25.2413 C   0  0  0  0  0  0  0  0  0  0  0  0
   10.4224  -16.1476   27.1644 C   0  0  2  0  0  0  0  0  0  0  0  0
    9.9251  -14.9866   26.5171 N   0  0  0  0  0  0  0  0  0  0  0  0
   10.4352  -15.9623   28.6519 C   0  0  0  0  0  0  0  0  0  0  0  0
   10.3546  -17.0591   29.4797 O   0  0  0  0  0  0  0  0  0  0  0  0
   10.5191  -14.8125   29.1146 O   0  0  0  0  0  0  0  0  0  0  0  0
  2  1  1  1
  2  4  1  0
  3  2  1  0
  4  5  1  6
  4  6  1  0
  6  7  2  0
  6 12  1  0
  9  8  1  6
  9 11  1  0
 10  9  1  0
 11 13  1  0
 11 12  1  6
 13 14  2  0
 13 19  1  0
 16 15  1  1
 17 16  1  0
 18 16  1  0
 18 20  1  0
 18 19  1  6
 20 21  1  0
 22 20  2  0
M  END
$$$$
