TVV.pdb
     RDKit          3D

 22 21  0  0  1  0  0  0  0  0999 V2000
    8.5961  -17.9974   22.4245 C   0  0  0  0  0  0  0  0  0  0  0  0
    9.3118  -17.1495   21.3933 C   0  0  1  0  0  0  0  0  0  0  0  0
    9.0238  -17.7393   20.1430 O   0  0  0  0  0  0  0  0  0  0  0  0
    8.6954  -15.7684   21.3528 C   0  0  2  0  0  0  0  0  0  0  0  0
    9.1617  -15.0354   20.2037 N   0  0  0  0  0  0  0  0  0  0  0  0
    8.9733  -14.9916   22.5703 C   0  0  0  0  0  0  0  0  0  0  0  0
   10.0645  -14.3812   22.7612 O   0  0  0  0  0  0  0  0  0  0  0  0
    6.2647  -12.7055   24.5736 C   0  0  0  0  0  0  0  0  0  0  0  0
    6.8767  -13.7866   25.3873 C   0  0  2  0  0  0  0  0  0  0  0  0
    7.0490  -13.3118   26.8140 C   0  0  0  0  0  0  0  0  0  0  0  0
    8.1935  -14.2920   24.8538 C   0  0  2  0  0  0  0  0  0  0  0  0
    7.9798  -14.9173   23.5818 N   0  0  0  0  0  0  0  0  0  0  0  0
    8.8828  -15.1950   25.7914 C   0  0  0  0  0  0  0  0  0  0  0  0
    8.6983  -16.4382   25.6742 O   0  0  0  0  0  0  0  0  0  0  0  0
   12.5010  -14.2744   27.9074 C   0  0  0  0  0  0  0  0  0  0  0  0
   11.4182  -15.0769   28.5971 C   0  0  1  0  0  0  0  0  0  0  0  0
   10.7721  -14.3080   29.6954 C   0  0  0  0  0  0  0  0  0  0  0  0
   10.4522  -15.6788   27.6134 C   0  0  2  0  0  0  0  0  0  0  0  0
    9.7463  -14.7350   26.8228 N   0  0  0  0  0  0  0  0  0  0  0  0
    9.5006  -16.5755   28.3465 C   0  0  0  0  0  0  0  0  0  0  0  0
    9.9164  -17.8186   28.7667 O   0  0  0  0  0  0  0  0  0  0  0  0
    8.3441  -16.1772   28.5634 O   0  0  0  0  0  0  0  0  0  0  0  0
  2  1  1  1
  2  4  1  0
  3  2  1  0
  4  5  1  6
  4  6  1  0
  6  7  2  0
  6 12  1  0
  9  8  1  6
  9 11  1  0
 10  9  1  0
 11 13  1  0
 11 12  1  6
 13 14  2  0
 13 19  1  0
 16 15  1  6
 17 16  1  0
 18 16  1  0
 18 20  1  0
 18 19  1  1
 20 21  1  0
 22 20  2  0
M  END
$$$$
