TVV.pdb
     RDKit          3D

 22 21  0  0  1  0  0  0  0  0999 V2000
    7.6019  -19.1400   18.9977 C   0  0  0  0  0  0  0  0  0  0  0  0
    8.5580  -18.9399   17.8398 C   0  0  1  0  0  0  0  0  0  0  0  0
    8.0005  -19.6489   16.7533 O   0  0  0  0  0  0  0  0  0  0  0  0
    8.5614  -17.4841   17.4278 C   0  0  2  0  0  0  0  0  0  0  0  0
    9.3530  -17.2924   16.2396 N   0  0  0  0  0  0  0  0  0  0  0  0
    9.0593  -16.5989   18.4915 C   0  0  0  0  0  0  0  0  0  0  0  0
   10.2840  -16.5124   18.7956 O   0  0  0  0  0  0  0  0  0  0  0  0
    7.2846  -12.9872   19.3627 C   0  0  0  0  0  0  0  0  0  0  0  0
    7.4485  -13.9073   20.5169 C   0  0  2  0  0  0  0  0  0  0  0  0
    7.7530  -13.1066   21.7645 C   0  0  0  0  0  0  0  0  0  0  0  0
    8.5036  -14.9662   20.3182 C   0  0  2  0  0  0  0  0  0  0  0  0
    8.1329  -15.8023   19.2145 N   0  0  0  0  0  0  0  0  0  0  0  0
    8.7574  -15.7571   21.5347 C   0  0  0  0  0  0  0  0  0  0  0  0
    7.8187  -16.4603   22.0013 O   0  0  0  0  0  0  0  0  0  0  0  0
   11.5787  -18.3217   22.0612 C   0  0  0  0  0  0  0  0  0  0  0  0
   11.4910  -17.4198   23.2740 C   0  0  1  0  0  0  0  0  0  0  0  0
   12.7102  -16.5810   23.4311 C   0  0  0  0  0  0  0  0  0  0  0  0
   10.2010  -16.6467   23.3072 C   0  0  2  0  0  0  0  0  0  0  0  0
   10.0085  -15.7677   22.2097 N   0  0  0  0  0  0  0  0  0  0  0  0
   10.1077  -15.9036   24.6058 C   0  0  0  0  0  0  0  0  0  0  0  0
   10.1701  -14.5286   24.6144 O   0  0  0  0  0  0  0  0  0  0  0  0
    9.9745  -16.5477   25.6597 O   0  0  0  0  0  0  0  0  0  0  0  0
  2  1  1  1
  2  4  1  0
  3  2  1  0
  4  5  1  6
  4  6  1  0
  6  7  2  0
  6 12  1  0
  9  8  1  6
  9 11  1  0
 10  9  1  0
 11 13  1  0
 11 12  1  6
 13 14  2  0
 13 19  1  0
 16 15  1  6
 17 16  1  0
 18 16  1  0
 18 20  1  0
 18 19  1  6
 20 21  1  0
 22 20  2  0
M  END
$$$$
