TVV.pdb
     RDKit          3D

 22 21  0  0  1  0  0  0  0  0999 V2000
   11.7738  -18.8610   22.5876 C   0  0  0  0  0  0  0  0  0  0  0  0
   12.6682  -18.0385   21.6830 C   0  0  1  0  0  0  0  0  0  0  0  0
   13.2770  -18.9597   20.8028 O   0  0  0  0  0  0  0  0  0  0  0  0
   11.8212  -17.1331   20.8159 C   0  0  2  0  0  0  0  0  0  0  0  0
   12.6379  -16.4389   19.8534 N   0  0  0  0  0  0  0  0  0  0  0  0
   11.0577  -16.1527   21.6025 C   0  0  0  0  0  0  0  0  0  0  0  0
   11.5971  -15.1626   22.1756 O   0  0  0  0  0  0  0  0  0  0  0  0
    7.3808  -15.0138   20.3438 C   0  0  0  0  0  0  0  0  0  0  0  0
    7.4280  -15.4202   21.7714 C   0  0  2  0  0  0  0  0  0  0  0  0
    6.4726  -14.5639   22.5743 C   0  0  0  0  0  0  0  0  0  0  0  0
    8.8044  -15.3641   22.3849 C   0  0  2  0  0  0  0  0  0  0  0  0
    9.6532  -16.3158   21.7304 N   0  0  0  0  0  0  0  0  0  0  0  0
    8.7898  -15.5657   23.8440 C   0  0  0  0  0  0  0  0  0  0  0  0
    8.9376  -16.7372   24.2905 O   0  0  0  0  0  0  0  0  0  0  0  0
    9.8580  -12.7767   26.9373 C   0  0  0  0  0  0  0  0  0  0  0  0
    8.5825  -13.5834   27.0573 C   0  0  1  0  0  0  0  0  0  0  0  0
    7.3712  -12.7312   26.9112 C   0  0  0  0  0  0  0  0  0  0  0  0
    8.5972  -14.7940   26.1644 C   0  0  2  0  0  0  0  0  0  0  0  0
    8.6173  -14.5054   24.7750 N   0  0  0  0  0  0  0  0  0  0  0  0
    7.4312  -15.6712   26.5081 C   0  0  0  0  0  0  0  0  0  0  0  0
    7.4968  -16.4992   27.6057 O   0  0  0  0  0  0  0  0  0  0  0  0
    6.4182  -15.6348   25.7900 O   0  0  0  0  0  0  0  0  0  0  0  0
  2  1  1  1
  2  4  1  0
  3  2  1  0
  4  5  1  6
  4  6  1  0
  6  7  2  0
  6 12  1  0
  9  8  1  6
  9 11  1  0
 10  9  1  0
 11 13  1  0
 11 12  1  6
 13 14  2  0
 13 19  1  0
 16 15  1  6
 17 16  1  0
 18 16  1  0
 18 20  1  0
 18 19  1  6
 20 21  1  0
 22 20  2  0
M  END
$$$$
