TVV.pdb
     RDKit          3D

 22 21  0  0  1  0  0  0  0  0999 V2000
    2.9511  -18.5882   20.9008 C   0  0  0  0  0  0  0  0  0  0  0  0
    4.2060  -17.8739   21.3585 C   0  0  1  0  0  0  0  0  0  0  0  0
    4.9214  -18.8118   22.1347 O   0  0  0  0  0  0  0  0  0  0  0  0
    5.0828  -17.5684   20.1640 C   0  0  2  0  0  0  0  0  0  0  0  0
    5.4027  -18.7748   19.4445 N   0  0  0  0  0  0  0  0  0  0  0  0
    6.3280  -16.8822   20.5399 C   0  0  0  0  0  0  0  0  0  0  0  0
    7.4258  -17.4899   20.6990 O   0  0  0  0  0  0  0  0  0  0  0  0
    7.1342  -13.0693   19.3381 C   0  0  0  0  0  0  0  0  0  0  0  0
    7.2774  -13.2827   20.8007 C   0  0  2  0  0  0  0  0  0  0  0  0
    8.4462  -12.4732   21.3194 C   0  0  0  0  0  0  0  0  0  0  0  0
    7.4377  -14.7276   21.2017 C   0  0  2  0  0  0  0  0  0  0  0  0
    6.3077  -15.4761   20.7353 N   0  0  0  0  0  0  0  0  0  0  0  0
    7.6407  -14.9008   22.6503 C   0  0  0  0  0  0  0  0  0  0  0  0
    6.8535  -14.3122   23.4424 O   0  0  0  0  0  0  0  0  0  0  0  0
    6.7091  -17.1571   24.9401 C   0  0  0  0  0  0  0  0  0  0  0  0
    8.2007  -17.0739   25.1858 C   0  0  1  0  0  0  0  0  0  0  0  0
    8.9004  -18.3230   24.7796 C   0  0  0  0  0  0  0  0  0  0  0  0
    8.7957  -15.8177   24.6106 C   0  0  2  0  0  0  0  0  0  0  0  0
    8.6803  -15.6988   23.2010 N   0  0  0  0  0  0  0  0  0  0  0  0
   10.2290  -15.7138   25.0370 C   0  0  0  0  0  0  0  0  0  0  0  0
   11.2267  -15.7000   24.0888 O   0  0  0  0  0  0  0  0  0  0  0  0
   10.4928  -15.6415   26.2488 O   0  0  0  0  0  0  0  0  0  0  0  0
  2  1  1  6
  2  4  1  0
  3  2  1  0
  4  5  1  1
  4  6  1  0
  6  7  2  0
  6 12  1  0
  9  8  1  6
  9 11  1  0
 10  9  1  0
 11 13  1  0
 11 12  1  1
 13 14  2  0
 13 19  1  0
 16 15  1  6
 17 16  1  0
 18 16  1  0
 18 20  1  0
 18 19  1  6
 20 21  1  0
 22 20  2  0
M  END
$$$$
