TVV.pdb
     RDKit          3D

 22 21  0  0  1  0  0  0  0  0999 V2000
    5.4359  -17.9997   22.0215 C   0  0  0  0  0  0  0  0  0  0  0  0
    6.3148  -17.2700   23.0164 C   0  0  1  0  0  0  0  0  0  0  0  0
    7.5172  -18.0075   23.0811 O   0  0  0  0  0  0  0  0  0  0  0  0
    6.6898  -15.9120   22.4647 C   0  0  2  0  0  0  0  0  0  0  0  0
    7.2839  -16.0386   21.1585 N   0  0  0  0  0  0  0  0  0  0  0  0
    7.6096  -15.1796   23.3480 C   0  0  0  0  0  0  0  0  0  0  0  0
    8.8532  -15.1012   23.1311 O   0  0  0  0  0  0  0  0  0  0  0  0
    5.8787  -13.1756   26.7789 C   0  0  0  0  0  0  0  0  0  0  0  0
    7.1237  -12.7405   26.0963 C   0  0  2  0  0  0  0  0  0  0  0  0
    6.7911  -11.6981   25.0507 C   0  0  0  0  0  0  0  0  0  0  0  0
    7.9087  -13.8639   25.4672 C   0  0  2  0  0  0  0  0  0  0  0  0
    7.0890  -14.5285   24.4972 N   0  0  0  0  0  0  0  0  0  0  0  0
    8.4490  -14.8102   26.4584 C   0  0  0  0  0  0  0  0  0  0  0  0
    7.7394  -15.7985   26.7951 O   0  0  0  0  0  0  0  0  0  0  0  0
   11.6691  -16.6862   25.9379 C   0  0  0  0  0  0  0  0  0  0  0  0
   11.6592  -16.1654   27.3594 C   0  0  1  0  0  0  0  0  0  0  0  0
   12.7109  -15.1358   27.5803 C   0  0  0  0  0  0  0  0  0  0  0  0
   10.2820  -15.7446   27.7941 C   0  0  2  0  0  0  0  0  0  0  0  0
    9.7312  -14.6654   27.0550 N   0  0  0  0  0  0  0  0  0  0  0  0
   10.3053  -15.4281   29.2591 C   0  0  0  0  0  0  0  0  0  0  0  0
   10.0051  -14.1557   29.6901 O   0  0  0  0  0  0  0  0  0  0  0  0
   10.5976  -16.3274   30.0648 O   0  0  0  0  0  0  0  0  0  0  0  0
  2  1  1  6
  2  4  1  0
  3  2  1  0
  4  5  1  6
  4  6  1  0
  6  7  2  0
  6 12  1  0
  9  8  1  6
  9 11  1  0
 10  9  1  0
 11 13  1  0
 11 12  1  6
 13 14  2  0
 13 19  1  0
 16 15  1  6
 17 16  1  0
 18 16  1  0
 18 20  1  0
 18 19  1  6
 20 21  1  0
 22 20  2  0
M  END
$$$$
