TVV.pdb
     RDKit          3D

 22 21  0  0  1  0  0  0  0  0999 V2000
    6.4406  -16.7974   20.2850 C   0  0  0  0  0  0  0  0  0  0  0  0
    7.0437  -16.3904   21.6137 C   0  0  1  0  0  0  0  0  0  0  0  0
    8.2909  -17.0483   21.6879 O   0  0  0  0  0  0  0  0  0  0  0  0
    7.3552  -14.9100   21.5995 C   0  0  2  0  0  0  0  0  0  0  0  0
    8.1929  -14.5759   20.4762 N   0  0  0  0  0  0  0  0  0  0  0  0
    8.0034  -14.4589   22.8402 C   0  0  0  0  0  0  0  0  0  0  0  0
    9.2434  -14.2231   22.9205 O   0  0  0  0  0  0  0  0  0  0  0  0
    5.9346  -11.9889   25.3366 C   0  0  0  0  0  0  0  0  0  0  0  0
    6.5970  -13.1293   26.0195 C   0  0  2  0  0  0  0  0  0  0  0  0
    7.0991  -12.6855   27.3764 C   0  0  0  0  0  0  0  0  0  0  0  0
    7.7251  -13.7492   25.2341 C   0  0  2  0  0  0  0  0  0  0  0  0
    7.2114  -14.2770   24.0044 N   0  0  0  0  0  0  0  0  0  0  0  0
    8.4594  -14.7730   25.9973 C   0  0  0  0  0  0  0  0  0  0  0  0
    7.9793  -15.9390   26.0554 O   0  0  0  0  0  0  0  0  0  0  0  0
   11.9257  -14.1011   28.5313 C   0  0  0  0  0  0  0  0  0  0  0  0
   11.8587  -15.2548   27.5533 C   0  0  1  0  0  0  0  0  0  0  0  0
   12.6694  -16.4166   28.0094 C   0  0  0  0  0  0  0  0  0  0  0  0
   10.4410  -15.5975   27.1849 C   0  0  2  0  0  0  0  0  0  0  0  0
    9.6832  -14.5126   26.6722 N   0  0  0  0  0  0  0  0  0  0  0  0
    9.7594  -16.2077   28.3724 C   0  0  0  0  0  0  0  0  0  0  0  0
    9.9642  -17.5353   28.6727 O   0  0  0  0  0  0  0  0  0  0  0  0
    9.0156  -15.4981   29.0699 O   0  0  0  0  0  0  0  0  0  0  0  0
  2  1  1  6
  2  4  1  0
  3  2  1  0
  4  5  1  6
  4  6  1  0
  6  7  2  0
  6 12  1  0
  9  8  1  6
  9 11  1  0
 10  9  1  0
 11 13  1  0
 11 12  1  6
 13 14  2  0
 13 19  1  0
 16 15  1  1
 17 16  1  0
 18 16  1  0
 18 20  1  0
 18 19  1  1
 20 21  1  0
 22 20  2  0
M  END
$$$$
