TVV.pdb
     RDKit          3D

 22 21  0  0  1  0  0  0  0  0999 V2000
    6.0000  -16.6586   20.4990 C   0  0  0  0  0  0  0  0  0  0  0  0
    6.7203  -16.2813   21.7770 C   0  0  1  0  0  0  0  0  0  0  0  0
    7.7965  -17.1879   21.8944 O   0  0  0  0  0  0  0  0  0  0  0  0
    7.3456  -14.9121   21.6241 C   0  0  2  0  0  0  0  0  0  0  0  0
    8.1856  -14.8629   20.4548 N   0  0  0  0  0  0  0  0  0  0  0  0
    8.1304  -14.5163   22.8032 C   0  0  0  0  0  0  0  0  0  0  0  0
    9.3876  -14.6403   22.8643 O   0  0  0  0  0  0  0  0  0  0  0  0
    7.8413  -12.0709   27.1333 C   0  0  0  0  0  0  0  0  0  0  0  0
    7.2248  -12.6291   25.9030 C   0  0  2  0  0  0  0  0  0  0  0  0
    5.9420  -13.3485   26.2600 C   0  0  0  0  0  0  0  0  0  0  0  0
    8.1279  -13.5506   25.1224 C   0  0  2  0  0  0  0  0  0  0  0  0
    7.4569  -13.9702   23.9273 N   0  0  0  0  0  0  0  0  0  0  0  0
    8.5935  -14.7022   25.9142 C   0  0  0  0  0  0  0  0  0  0  0  0
    7.8057  -15.6742   26.0821 O   0  0  0  0  0  0  0  0  0  0  0  0
   12.1175  -17.6733   27.4781 C   0  0  0  0  0  0  0  0  0  0  0  0
   11.7096  -16.4087   26.7524 C   0  0  1  0  0  0  0  0  0  0  0  0
   11.9666  -16.5010   25.2894 C   0  0  0  0  0  0  0  0  0  0  0  0
   10.3114  -15.9828   27.1082 C   0  0  2  0  0  0  0  0  0  0  0  0
    9.8873  -14.7732   26.4990 N   0  0  0  0  0  0  0  0  0  0  0  0
   10.1891  -15.8978   28.5998 C   0  0  0  0  0  0  0  0  0  0  0  0
    9.9997  -17.0439   29.3382 O   0  0  0  0  0  0  0  0  0  0  0  0
   10.2615  -14.7850   29.1474 O   0  0  0  0  0  0  0  0  0  0  0  0
  2  1  1  6
  2  4  1  0
  3  2  1  0
  4  5  1  6
  4  6  1  0
  6  7  2  0
  6 12  1  0
  9  8  1  1
  9 11  1  0
 10  9  1  0
 11 13  1  0
 11 12  1  6
 13 14  2  0
 13 19  1  0
 16 15  1  1
 17 16  1  0
 18 16  1  0
 18 20  1  0
 18 19  1  6
 20 21  1  0
 22 20  2  0
M  END
$$$$
