TVV.pdb
     RDKit          3D

 22 21  0  0  1  0  0  0  0  0999 V2000
    6.6991  -17.0009   20.4213 C   0  0  0  0  0  0  0  0  0  0  0  0
    7.2495  -16.6111   21.7777 C   0  0  1  0  0  0  0  0  0  0  0  0
    8.4025  -17.4038   21.9676 O   0  0  0  0  0  0  0  0  0  0  0  0
    7.7327  -15.1779   21.7387 C   0  0  2  0  0  0  0  0  0  0  0  0
    8.6836  -14.9893   20.6732 N   0  0  0  0  0  0  0  0  0  0  0  0
    8.3368  -14.7523   23.0102 C   0  0  0  0  0  0  0  0  0  0  0  0
    9.5872  -14.7060   23.1947 O   0  0  0  0  0  0  0  0  0  0  0  0
    6.4651  -11.9055   25.2888 C   0  0  0  0  0  0  0  0  0  0  0  0
    6.8968  -13.1135   26.0370 C   0  0  2  0  0  0  0  0  0  0  0  0
    7.3568  -12.7144   27.4225 C   0  0  0  0  0  0  0  0  0  0  0  0
    7.9753  -13.9132   25.3505 C   0  0  2  0  0  0  0  0  0  0  0  0
    7.4881  -14.3748   24.0839 N   0  0  0  0  0  0  0  0  0  0  0  0
    8.4762  -15.0259   26.1755 C   0  0  0  0  0  0  0  0  0  0  0  0
    7.6852  -15.9680   26.4586 O   0  0  0  0  0  0  0  0  0  0  0  0
   11.4898  -17.2565   25.4488 C   0  0  0  0  0  0  0  0  0  0  0  0
   11.5493  -16.8162   26.8961 C   0  0  1  0  0  0  0  0  0  0  0  0
   12.7222  -15.9394   27.1615 C   0  0  0  0  0  0  0  0  0  0  0  0
   10.2368  -16.2508   27.3659 C   0  0  2  0  0  0  0  0  0  0  0  0
    9.8078  -15.0912   26.6692 N   0  0  0  0  0  0  0  0  0  0  0  0
   10.3157  -15.9867   28.8393 C   0  0  0  0  0  0  0  0  0  0  0  0
   10.4272  -17.0395   29.7191 O   0  0  0  0  0  0  0  0  0  0  0  0
   10.2787  -14.8125   29.2433 O   0  0  0  0  0  0  0  0  0  0  0  0
  2  1  1  6
  2  4  1  0
  3  2  1  0
  4  5  1  6
  4  6  1  0
  6  7  2  0
  6 12  1  0
  9  8  1  6
  9 11  1  0
 10  9  1  0
 11 13  1  0
 11 12  1  6
 13 14  2  0
 13 19  1  0
 16 15  1  6
 17 16  1  0
 18 16  1  0
 18 20  1  0
 18 19  1  6
 20 21  1  0
 22 20  2  0
M  END
$$$$
