TVV.pdb
     RDKit          3D

 22 21  0  0  1  0  0  0  0  0999 V2000
    7.8636  -17.4811   20.3051 C   0  0  0  0  0  0  0  0  0  0  0  0
    8.2049  -16.8852   21.6554 C   0  0  1  0  0  0  0  0  0  0  0  0
    9.5050  -17.3436   21.9609 O   0  0  0  0  0  0  0  0  0  0  0  0
    8.3124  -15.3808   21.5357 C   0  0  2  0  0  0  0  0  0  0  0  0
    9.2647  -15.0171   20.5178 N   0  0  0  0  0  0  0  0  0  0  0  0
    8.6892  -14.7403   22.8048 C   0  0  0  0  0  0  0  0  0  0  0  0
    9.8711  -14.3714   23.0633 O   0  0  0  0  0  0  0  0  0  0  0  0
    6.0709  -12.3427   24.9053 C   0  0  0  0  0  0  0  0  0  0  0  0
    6.6907  -13.4439   25.6854 C   0  0  2  0  0  0  0  0  0  0  0  0
    6.9430  -12.9808   27.1040 C   0  0  0  0  0  0  0  0  0  0  0  0
    7.9665  -13.9823   25.0884 C   0  0  2  0  0  0  0  0  0  0  0  0
    7.6901  -14.5219   23.7895 N   0  0  0  0  0  0  0  0  0  0  0  0
    8.6316  -14.9708   25.9545 C   0  0  0  0  0  0  0  0  0  0  0  0
    8.3152  -16.1867   25.8323 O   0  0  0  0  0  0  0  0  0  0  0  0
   12.5738  -14.5283   27.4635 C   0  0  0  0  0  0  0  0  0  0  0  0
   11.5362  -15.1739   28.3570 C   0  0  1  0  0  0  0  0  0  0  0  0
   11.2006  -14.3168   29.5266 C   0  0  0  0  0  0  0  0  0  0  0  0
   10.3411  -15.6501   27.5773 C   0  0  2  0  0  0  0  0  0  0  0  0
    9.6133  -14.6228   26.9222 N   0  0  0  0  0  0  0  0  0  0  0  0
    9.4463  -16.4397   28.4844 C   0  0  0  0  0  0  0  0  0  0  0  0
    9.8551  -17.6689   28.9498 O   0  0  0  0  0  0  0  0  0  0  0  0
    8.3427  -15.9664   28.8026 O   0  0  0  0  0  0  0  0  0  0  0  0
  2  1  1  6
  2  4  1  0
  3  2  1  0
  4  5  1  6
  4  6  1  0
  6  7  2  0
  6 12  1  0
  9  8  1  6
  9 11  1  0
 10  9  1  0
 11 13  1  0
 11 12  1  6
 13 14  2  0
 13 19  1  0
 16 15  1  6
 17 16  1  0
 18 16  1  0
 18 20  1  0
 18 19  1  1
 20 21  1  0
 22 20  2  0
M  END
$$$$
