TVV.pdb
     RDKit          3D

 22 21  0  0  1  0  0  0  0  0999 V2000
    6.2589  -16.3672   20.1078 C   0  0  0  0  0  0  0  0  0  0  0  0
    6.8985  -16.1128   21.4573 C   0  0  1  0  0  0  0  0  0  0  0  0
    8.0811  -16.8843   21.4743 O   0  0  0  0  0  0  0  0  0  0  0  0
    7.3430  -14.6694   21.5463 C   0  0  2  0  0  0  0  0  0  0  0  0
    8.1819  -14.3242   20.4272 N   0  0  0  0  0  0  0  0  0  0  0  0
    8.0576  -14.3762   22.7978 C   0  0  0  0  0  0  0  0  0  0  0  0
    9.3195  -14.3399   22.8756 O   0  0  0  0  0  0  0  0  0  0  0  0
    6.6097  -11.7557   25.5724 C   0  0  0  0  0  0  0  0  0  0  0  0
    6.9495  -13.0958   26.1149 C   0  0  2  0  0  0  0  0  0  0  0  0
    7.5137  -12.9493   27.5116 C   0  0  0  0  0  0  0  0  0  0  0  0
    7.9056  -13.8857   25.2571 C   0  0  2  0  0  0  0  0  0  0  0  0
    7.3075  -14.1213   23.9759 N   0  0  0  0  0  0  0  0  0  0  0  0
    8.3393  -15.1425   25.8910 C   0  0  0  0  0  0  0  0  0  0  0  0
    7.4837  -16.0540   26.0663 O   0  0  0  0  0  0  0  0  0  0  0  0
   10.9265  -17.5972   24.7312 C   0  0  0  0  0  0  0  0  0  0  0  0
   11.1907  -17.3161   26.1952 C   0  0  1  0  0  0  0  0  0  0  0  0
   12.4903  -16.6206   26.4009 C   0  0  0  0  0  0  0  0  0  0  0  0
   10.0193  -16.6451   26.8589 C   0  0  2  0  0  0  0  0  0  0  0  0
    9.6751  -15.3801   26.3155 N   0  0  0  0  0  0  0  0  0  0  0  0
   10.2849  -16.5370   28.3302 C   0  0  0  0  0  0  0  0  0  0  0  0
   10.3779  -17.6775   29.0953 O   0  0  0  0  0  0  0  0  0  0  0  0
   10.4175  -15.4105   28.8369 O   0  0  0  0  0  0  0  0  0  0  0  0
  2  1  1  6
  2  4  1  0
  3  2  1  0
  4  5  1  6
  4  6  1  0
  6  7  2  0
  6 12  1  0
  9  8  1  6
  9 11  1  0
 10  9  1  0
 11 13  1  0
 11 12  1  6
 13 14  2  0
 13 19  1  0
 16 15  1  6
 17 16  1  0
 18 16  1  0
 18 20  1  0
 18 19  1  6
 20 21  1  0
 22 20  2  0
M  END
$$$$
