TVV.pdb
     RDKit          3D

 22 21  0  0  1  0  0  0  0  0999 V2000
    5.9480  -16.2604   20.3081 C   0  0  0  0  0  0  0  0  0  0  0  0
    6.6559  -15.9550   21.6121 C   0  0  1  0  0  0  0  0  0  0  0  0
    7.7866  -16.8003   21.6433 O   0  0  0  0  0  0  0  0  0  0  0  0
    7.1948  -14.5417   21.5803 C   0  0  2  0  0  0  0  0  0  0  0  0
    7.9809  -14.3222   20.3933 N   0  0  0  0  0  0  0  0  0  0  0  0
    8.0043  -14.2207   22.7655 C   0  0  0  0  0  0  0  0  0  0  0  0
    9.2624  -14.3480   22.7926 O   0  0  0  0  0  0  0  0  0  0  0  0
    7.7821  -12.3128   27.3706 C   0  0  0  0  0  0  0  0  0  0  0  0
    7.1701  -12.6459   26.0591 C   0  0  2  0  0  0  0  0  0  0  0  0
    5.8321  -13.3178   26.2799 C   0  0  0  0  0  0  0  0  0  0  0  0
    8.0354  -13.5073   25.1741 C   0  0  2  0  0  0  0  0  0  0  0  0
    7.3548  -13.7465   23.9354 N   0  0  0  0  0  0  0  0  0  0  0  0
    8.4406  -14.7672   25.8208 C   0  0  0  0  0  0  0  0  0  0  0  0
    7.6010  -15.7078   25.8838 O   0  0  0  0  0  0  0  0  0  0  0  0
   11.7023  -18.1581   26.9525 C   0  0  0  0  0  0  0  0  0  0  0  0
   11.3405  -16.8382   26.3050 C   0  0  1  0  0  0  0  0  0  0  0  0
   11.3541  -16.9268   24.8195 C   0  0  0  0  0  0  0  0  0  0  0  0
   10.0756  -16.2595   26.8776 C   0  0  2  0  0  0  0  0  0  0  0  0
    9.7316  -14.9765   26.3779 N   0  0  0  0  0  0  0  0  0  0  0  0
   10.1793  -16.2370   28.3729 C   0  0  0  0  0  0  0  0  0  0  0  0
   10.0654  -17.4093   29.0853 O   0  0  0  0  0  0  0  0  0  0  0  0
   10.3679  -15.1516   28.9470 O   0  0  0  0  0  0  0  0  0  0  0  0
  2  1  1  6
  2  4  1  0
  3  2  1  0
  4  5  1  6
  4  6  1  0
  6  7  2  0
  6 12  1  0
  9  8  1  1
  9 11  1  0
 10  9  1  0
 11 13  1  0
 11 12  1  6
 13 14  2  0
 13 19  1  0
 16 15  1  1
 17 16  1  0
 18 16  1  0
 18 20  1  0
 18 19  1  6
 20 21  1  0
 22 20  2  0
M  END
$$$$
