VKA.pdb
     RDKit          3D

 22 21  0  0  1  0  0  0  0  0999 V2000
   15.5085  -11.9867  -14.0289 C   0  0  0  0  0  0  0  0  0  0  0  0
   15.2260  -12.4886  -15.4072 C   0  0  2  0  0  0  0  0  0  0  0  0
   13.8521  -13.1067  -15.5494 C   0  0  0  0  0  0  0  0  0  0  0  0
   16.3036  -13.4251  -15.9123 C   0  0  2  0  0  0  0  0  0  0  0  0
   16.3060  -14.5766  -15.0265 N   0  0  0  0  0  0  0  0  0  0  0  0
   17.6175  -12.7386  -15.8494 C   0  0  0  0  0  0  0  0  0  0  0  0
   18.4186  -13.0103  -14.9340 O   0  0  0  0  0  0  0  0  0  0  0  0
   17.9944  -11.7615  -16.8224 N   0  0  0  0  0  0  0  0  0  0  0  0
   19.2865  -11.1514  -16.8608 C   0  0  1  0  0  0  0  0  0  0  0  0
   19.6574  -10.8377  -18.3024 C   0  0  0  0  0  0  0  0  0  0  0  0
   20.9945  -10.1979  -18.4153 C   0  0  0  0  0  0  0  0  0  0  0  0
   21.9148  -11.0412  -19.2475 C   0  0  0  0  0  0  0  0  0  0  0  0
   23.3043  -10.4864  -19.3153 C   0  0  0  0  0  0  0  0  0  0  0  0
   24.1096  -11.2537  -20.2666 N   0  0  0  0  0  0  0  0  0  0  0  0
   19.2707   -9.9259  -16.0333 C   0  0  0  0  0  0  0  0  0  0  0  0
   18.2872   -9.1555  -16.0628 O   0  0  0  0  0  0  0  0  0  0  0  0
   21.6311   -8.4454  -13.5115 C   0  0  0  0  0  0  0  0  0  0  0  0
   20.4091   -8.3701  -14.4041 C   0  0  2  0  0  0  0  0  0  0  0  0
   20.3628   -9.5771  -15.1784 N   0  0  0  0  0  0  0  0  0  0  0  0
   20.4254   -7.1979  -15.2851 C   0  0  0  0  0  0  0  0  0  0  0  0
   19.9509   -5.9451  -14.9013 O   0  0  0  0  0  0  0  0  0  0  0  0
   20.8841   -7.2934  -16.4528 O   0  0  0  0  0  0  0  0  0  0  0  0
  2  3  1  1
  2  1  1  0
  4  2  1  0
  4  6  1  0
  4  5  1  1
  6  7  2  0
  8  6  1  0
  8  9  1  0
  9 10  1  6
 10 11  1  0
 12 11  1  0
 13 12  1  0
 14 13  1  0
 15 19  1  0
 15  9  1  0
 16 15  2  0
 18 17  1  6
 18 20  1  0
 18 19  1  0
 20 21  1  0
 22 20  2  0
M  END
$$$$
