VKA.pdb
     RDKit          3D

 22 21  0  0  1  0  0  0  0  0999 V2000
   29.0246  -33.0039  -15.5526 C   0  0  0  0  0  0  0  0  0  0  0  0
   29.4235  -33.0156  -16.9920 C   0  0  2  0  0  0  0  0  0  0  0  0
   30.6619  -33.8418  -17.2634 C   0  0  0  0  0  0  0  0  0  0  0  0
   29.5589  -31.6202  -17.5645 C   0  0  2  0  0  0  0  0  0  0  0  0
   30.5911  -30.9496  -16.7926 N   0  0  0  0  0  0  0  0  0  0  0  0
   28.2697  -30.9016  -17.4127 C   0  0  0  0  0  0  0  0  0  0  0  0
   28.1231  -30.0738  -16.4925 O   0  0  0  0  0  0  0  0  0  0  0  0
   27.1772  -31.1359  -18.3043 N   0  0  0  0  0  0  0  0  0  0  0  0
   25.9431  -30.4177  -18.2376 C   0  0  1  0  0  0  0  0  0  0  0  0
   25.5193  -30.0050  -19.6391 C   0  0  0  0  0  0  0  0  0  0  0  0
   24.2626  -29.2109  -19.6384 C   0  0  0  0  0  0  0  0  0  0  0  0
   24.5640  -27.7456  -19.5244 C   0  0  0  0  0  0  0  0  0  0  0  0
   23.3267  -26.9031  -19.4753 C   0  0  0  0  0  0  0  0  0  0  0  0
   23.6807  -25.4947  -19.2917 N   0  0  0  0  0  0  0  0  0  0  0  0
   24.9181  -31.2700  -17.5976 C   0  0  0  0  0  0  0  0  0  0  0  0
   24.7839  -32.4639  -17.9413 O   0  0  0  0  0  0  0  0  0  0  0  0
   22.3184  -30.6728  -14.9459 C   0  0  0  0  0  0  0  0  0  0  0  0
   22.9902  -31.5400  -15.9910 C   0  0  2  0  0  0  0  0  0  0  0  0
   24.0516  -30.7714  -16.5749 N   0  0  0  0  0  0  0  0  0  0  0  0
   22.0595  -31.9968  -17.0281 C   0  0  0  0  0  0  0  0  0  0  0  0
   21.3444  -33.1898  -16.9433 O   0  0  0  0  0  0  0  0  0  0  0  0
   21.8739  -31.3004  -18.0594 O   0  0  0  0  0  0  0  0  0  0  0  0
  2  3  1  1
  2  1  1  0
  4  2  1  0
  4  6  1  0
  4  5  1  1
  6  7  2  0
  8  6  1  0
  8  9  1  0
  9 10  1  6
 10 11  1  0
 12 11  1  0
 13 12  1  0
 14 13  1  0
 15 19  1  0
 15  9  1  0
 16 15  2  0
 18 17  1  1
 18 20  1  0
 18 19  1  0
 20 21  1  0
 22 20  2  0
M  END
$$$$
