VKA.pdb
     RDKit          3D

 22 21  0  0  1  0  0  0  0  0999 V2000
   38.2275   -7.3196  -10.2295 C   0  0  0  0  0  0  0  0  0  0  0  0
   39.6430   -7.6748   -9.9111 C   0  0  2  0  0  0  0  0  0  0  0  0
   40.3868   -8.2788  -11.0824 C   0  0  0  0  0  0  0  0  0  0  0  0
   39.7555   -8.5497   -8.6801 C   0  0  2  0  0  0  0  0  0  0  0  0
   39.1547   -7.8090   -7.5841 N   0  0  0  0  0  0  0  0  0  0  0  0
   41.1881   -8.8047   -8.3902 C   0  0  0  0  0  0  0  0  0  0  0  0
   41.9067   -7.8870   -7.9486 O   0  0  0  0  0  0  0  0  0  0  0  0
   41.7742  -10.0904   -8.6062 N   0  0  0  0  0  0  0  0  0  0  0  0
   43.1537  -10.3742   -8.3616 C   0  0  1  0  0  0  0  0  0  0  0  0
   43.3016  -11.8166   -7.9013 C   0  0  0  0  0  0  0  0  0  0  0  0
   44.7187  -12.1851   -7.6445 C   0  0  0  0  0  0  0  0  0  0  0  0
   44.8161  -13.6005   -7.1567 C   0  0  0  0  0  0  0  0  0  0  0  0
   46.2263  -14.0191   -6.8750 C   0  0  0  0  0  0  0  0  0  0  0  0
   46.2535  -15.3867   -6.3541 N   0  0  0  0  0  0  0  0  0  0  0  0
   43.9282  -10.1242   -9.5963 C   0  0  0  0  0  0  0  0  0  0  0  0
   43.6154  -10.6916  -10.6649 O   0  0  0  0  0  0  0  0  0  0  0  0
   46.8069   -7.8636  -10.4512 C   0  0  0  0  0  0  0  0  0  0  0  0
   45.8092   -8.9489  -10.8010 C   0  0  2  0  0  0  0  0  0  0  0  0
   45.0495   -9.2369   -9.6184 N   0  0  0  0  0  0  0  0  0  0  0  0
   46.4532  -10.1664  -11.3041 C   0  0  0  0  0  0  0  0  0  0  0  0
   46.6751  -10.4117  -12.6577 O   0  0  0  0  0  0  0  0  0  0  0  0
   46.8369  -11.0547  -10.4999 O   0  0  0  0  0  0  0  0  0  0  0  0
  2  3  1  6
  2  1  1  0
  4  2  1  0
  4  6  1  0
  4  5  1  1
  6  7  2  0
  8  6  1  0
  8  9  1  0
  9 10  1  6
 10 11  1  0
 12 11  1  0
 13 12  1  0
 14 13  1  0
 15 19  1  0
 15  9  1  0
 16 15  2  0
 18 17  1  1
 18 20  1  0
 18 19  1  0
 20 21  1  0
 22 20  2  0
M  END
$$$$
