VKA.pdb
     RDKit          3D

 22 21  0  0  1  0  0  0  0  0999 V2000
   25.6680  -21.6152  -10.8427 C   0  0  0  0  0  0  0  0  0  0  0  0
   26.6891  -21.2344  -11.8644 C   0  0  2  0  0  0  0  0  0  0  0  0
   27.1220  -19.7876  -11.7680 C   0  0  0  0  0  0  0  0  0  0  0  0
   26.2547  -21.5842  -13.2724 C   0  0  2  0  0  0  0  0  0  0  0  0
   27.3707  -21.2644  -14.1460 N   0  0  0  0  0  0  0  0  0  0  0  0
   25.0759  -20.7614  -13.6394 C   0  0  0  0  0  0  0  0  0  0  0  0
   25.2006  -19.5316  -13.7994 O   0  0  0  0  0  0  0  0  0  0  0  0
   23.7844  -21.3481  -13.8169 N   0  0  0  0  0  0  0  0  0  0  0  0
   22.6150  -20.5886  -14.1313 C   0  0  1  0  0  0  0  0  0  0  0  0
   22.0515  -21.0530  -15.4659 C   0  0  0  0  0  0  0  0  0  0  0  0
   20.8638  -20.2624  -15.8834 C   0  0  0  0  0  0  0  0  0  0  0  0
   20.2697  -20.8260  -17.1405 C   0  0  0  0  0  0  0  0  0  0  0  0
   19.0768  -20.0535  -17.6129 C   0  0  0  0  0  0  0  0  0  0  0  0
   18.5619  -20.6285  -18.8566 N   0  0  0  0  0  0  0  0  0  0  0  0
   21.6235  -20.7505  -13.0462 C   0  0  0  0  0  0  0  0  0  0  0  0
   21.3283  -21.8890  -12.6239 O   0  0  0  0  0  0  0  0  0  0  0  0
   19.8543  -18.3450  -10.7797 C   0  0  0  0  0  0  0  0  0  0  0  0
   20.0676  -19.7382  -11.3359 C   0  0  2  0  0  0  0  0  0  0  0  0
   20.9716  -19.6287  -12.4445 N   0  0  0  0  0  0  0  0  0  0  0  0
   18.8158  -20.3748  -11.7579 C   0  0  0  0  0  0  0  0  0  0  0  0
   17.9229  -20.9713  -10.8698 O   0  0  0  0  0  0  0  0  0  0  0  0
   18.5018  -20.4015  -12.9760 O   0  0  0  0  0  0  0  0  0  0  0  0
  2  3  1  6
  2  1  1  0
  4  2  1  0
  4  6  1  0
  4  5  1  6
  6  7  2  0
  8  6  1  0
  8  9  1  0
  9 10  1  6
 10 11  1  0
 12 11  1  0
 13 12  1  0
 14 13  1  0
 15 19  1  0
 15  9  1  0
 16 15  2  0
 18 17  1  6
 18 20  1  0
 18 19  1  0
 20 21  1  0
 22 20  2  0
M  END
$$$$
