VKA.pdb
     RDKit          3D

 22 21  0  0  1  0  0  0  0  0999 V2000
   28.3772  -18.8114  -16.0045 C   0  0  0  0  0  0  0  0  0  0  0  0
   27.0554  -19.2073  -15.4322 C   0  0  2  0  0  0  0  0  0  0  0  0
   26.1773  -18.0262  -15.0806 C   0  0  0  0  0  0  0  0  0  0  0  0
   27.1951  -20.1551  -14.2594 C   0  0  2  0  0  0  0  0  0  0  0  0
   27.9336  -21.3101  -14.7405 N   0  0  0  0  0  0  0  0  0  0  0  0
   25.8460  -20.5735  -13.8049 C   0  0  0  0  0  0  0  0  0  0  0  0
   25.1592  -21.3354  -14.5129 O   0  0  0  0  0  0  0  0  0  0  0  0
   25.3056  -20.1208  -12.5614 N   0  0  0  0  0  0  0  0  0  0  0  0
   24.0549  -20.5744  -12.0387 C   0  0  1  0  0  0  0  0  0  0  0  0
   23.9386  -20.1698  -10.5769 C   0  0  0  0  0  0  0  0  0  0  0  0
   22.6116  -20.5110  -10.0001 C   0  0  0  0  0  0  0  0  0  0  0  0
   22.7710  -21.3707   -8.7810 C   0  0  0  0  0  0  0  0  0  0  0  0
   21.4603  -21.8428   -8.2312 C   0  0  0  0  0  0  0  0  0  0  0  0
   21.6645  -22.5259   -6.9529 N   0  0  0  0  0  0  0  0  0  0  0  0
   22.9546  -19.9997  -12.8424 C   0  0  0  0  0  0  0  0  0  0  0  0
   22.8739  -18.7642  -13.0121 O   0  0  0  0  0  0  0  0  0  0  0  0
   20.6445  -21.3574  -15.3641 C   0  0  0  0  0  0  0  0  0  0  0  0
   20.9209  -20.3100  -14.3048 C   0  0  2  0  0  0  0  0  0  0  0  0
   21.9531  -20.8207  -13.4492 N   0  0  0  0  0  0  0  0  0  0  0  0
   19.7284  -19.9715  -13.5214 C   0  0  0  0  0  0  0  0  0  0  0  0
   18.6247  -19.3089  -14.0548 O   0  0  0  0  0  0  0  0  0  0  0  0
   19.6659  -20.2804  -12.3034 O   0  0  0  0  0  0  0  0  0  0  0  0
  2  3  1  1
  2  1  1  0
  4  2  1  0
  4  6  1  0
  4  5  1  6
  6  7  2  0
  8  6  1  0
  8  9  1  0
  9 10  1  1
 10 11  1  0
 12 11  1  0
 13 12  1  0
 14 13  1  0
 15 19  1  0
 15  9  1  0
 16 15  2  0
 18 17  1  6
 18 20  1  0
 18 19  1  0
 20 21  1  0
 22 20  2  0
M  END
$$$$
