VKA.pdb
     RDKit          3D

 22 21  0  0  1  0  0  0  0  0999 V2000
   16.5747  -11.7310  -14.9750 C   0  0  0  0  0  0  0  0  0  0  0  0
   16.4354  -12.0423  -16.4293 C   0  0  2  0  0  0  0  0  0  0  0  0
   15.0925  -12.6408  -16.7875 C   0  0  0  0  0  0  0  0  0  0  0  0
   17.5727  -12.8975  -16.9478 C   0  0  2  0  0  0  0  0  0  0  0  0
   17.5133  -14.1560  -16.2243 N   0  0  0  0  0  0  0  0  0  0  0  0
   18.8620  -12.2175  -16.6706 C   0  0  0  0  0  0  0  0  0  0  0  0
   19.4725  -12.4496  -15.6090 O   0  0  0  0  0  0  0  0  0  0  0  0
   19.4304  -11.2917  -17.5997 N   0  0  0  0  0  0  0  0  0  0  0  0
   20.6889  -10.6463  -17.3927 C   0  0  1  0  0  0  0  0  0  0  0  0
   21.4213  -10.5239  -18.7204 C   0  0  0  0  0  0  0  0  0  0  0  0
   22.8981  -10.5032  -18.5511 C   0  0  0  0  0  0  0  0  0  0  0  0
   23.5824  -10.4873  -19.8862 C   0  0  0  0  0  0  0  0  0  0  0  0
   25.0756  -10.4913  -19.7704 C   0  0  0  0  0  0  0  0  0  0  0  0
   25.6855  -10.6026  -21.0963 N   0  0  0  0  0  0  0  0  0  0  0  0
   20.4603   -9.3186  -16.7830 C   0  0  0  0  0  0  0  0  0  0  0  0
   19.5987   -8.5460  -17.2544 O   0  0  0  0  0  0  0  0  0  0  0  0
   21.7346   -7.6367  -13.6809 C   0  0  0  0  0  0  0  0  0  0  0  0
   20.9660   -7.6192  -14.9866 C   0  0  2  0  0  0  0  0  0  0  0  0
   21.2041   -8.8707  -15.6465 N   0  0  0  0  0  0  0  0  0  0  0  0
   21.3531   -6.5021  -15.8540 C   0  0  0  0  0  0  0  0  0  0  0  0
   20.8069   -5.2245  -15.7466 O   0  0  0  0  0  0  0  0  0  0  0  0
   22.2191   -6.6712  -16.7508 O   0  0  0  0  0  0  0  0  0  0  0  0
  2  3  1  1
  2  1  1  0
  4  2  1  0
  4  6  1  0
  4  5  1  1
  6  7  2  0
  8  6  1  0
  8  9  1  0
  9 10  1  6
 10 11  1  0
 12 11  1  0
 13 12  1  0
 14 13  1  0
 15 19  1  0
 15  9  1  0
 16 15  2  0
 18 17  1  1
 18 20  1  0
 18 19  1  0
 20 21  1  0
 22 20  2  0
M  END
$$$$
