VKA.pdb
     RDKit          3D

 22 21  0  0  1  0  0  0  0  0999 V2000
   28.5064  -18.0841  -16.5339 C   0  0  0  0  0  0  0  0  0  0  0  0
   27.2925  -18.6870  -15.9060 C   0  0  2  0  0  0  0  0  0  0  0  0
   26.3213  -17.6574  -15.3706 C   0  0  0  0  0  0  0  0  0  0  0  0
   27.6395  -19.7150  -14.8496 C   0  0  2  0  0  0  0  0  0  0  0  0
   28.4263  -20.7432  -15.5088 N   0  0  0  0  0  0  0  0  0  0  0  0
   26.3890  -20.3051  -14.3115 C   0  0  0  0  0  0  0  0  0  0  0  0
   25.7003  -21.0607  -15.0245 O   0  0  0  0  0  0  0  0  0  0  0  0
   25.9469  -20.0272  -12.9809 N   0  0  0  0  0  0  0  0  0  0  0  0
   24.7849  -20.6238  -12.4003 C   0  0  1  0  0  0  0  0  0  0  0  0
   24.7923  -20.3921  -10.8968 C   0  0  0  0  0  0  0  0  0  0  0  0
   23.6525  -21.0614  -10.2164 C   0  0  0  0  0  0  0  0  0  0  0  0
   23.7658  -20.9136   -8.7277 C   0  0  0  0  0  0  0  0  0  0  0  0
   22.6445  -21.5819   -7.9936 C   0  0  0  0  0  0  0  0  0  0  0  0
   22.8566  -21.4842   -6.5486 N   0  0  0  0  0  0  0  0  0  0  0  0
   23.5765  -20.0441  -13.0253 C   0  0  0  0  0  0  0  0  0  0  0  0
   23.3760  -18.8111  -12.9904 O   0  0  0  0  0  0  0  0  0  0  0  0
   21.4294  -20.8661  -15.7566 C   0  0  0  0  0  0  0  0  0  0  0  0
   21.4408  -20.3286  -14.3400 C   0  0  2  0  0  0  0  0  0  0  0  0
   22.6026  -20.8574  -13.6851 N   0  0  0  0  0  0  0  0  0  0  0  0
   20.2286  -20.6802  -13.5935 C   0  0  0  0  0  0  0  0  0  0  0  0
   20.2265  -21.5442  -12.5001 O   0  0  0  0  0  0  0  0  0  0  0  0
   19.1178  -20.1951  -13.9307 O   0  0  0  0  0  0  0  0  0  0  0  0
  2  3  1  1
  2  1  1  0
  4  2  1  0
  4  6  1  0
  4  5  1  6
  6  7  2  0
  8  6  1  0
  8  9  1  0
  9 10  1  1
 10 11  1  0
 12 11  1  0
 13 12  1  0
 14 13  1  0
 15 19  1  0
 15  9  1  0
 16 15  2  0
 18 17  1  6
 18 20  1  0
 18 19  1  0
 20 21  1  0
 22 20  2  0
M  END
$$$$
