VKA.pdb
     RDKit          3D

 22 21  0  0  1  0  0  0  0  0999 V2000
   28.6600  -13.1002  -15.9424 C   0  0  0  0  0  0  0  0  0  0  0  0
   27.4181  -12.3952  -16.3804 C   0  0  2  0  0  0  0  0  0  0  0  0
   27.3603  -10.9506  -15.9333 C   0  0  0  0  0  0  0  0  0  0  0  0
   26.1611  -13.1419  -15.9859 C   0  0  2  0  0  0  0  0  0  0  0  0
   26.2971  -14.4926  -16.5035 N   0  0  0  0  0  0  0  0  0  0  0  0
   24.9851  -12.4815  -16.6042 C   0  0  0  0  0  0  0  0  0  0  0  0
   24.8014  -12.5620  -17.8344 O   0  0  0  0  0  0  0  0  0  0  0  0
   24.0450  -11.7461  -15.8176 N   0  0  0  0  0  0  0  0  0  0  0  0
   22.8815  -11.1230  -16.3663 C   0  0  1  0  0  0  0  0  0  0  0  0
   21.6411  -11.8843  -15.9237 C   0  0  0  0  0  0  0  0  0  0  0  0
   21.1416  -12.8101  -16.9741 C   0  0  0  0  0  0  0  0  0  0  0  0
   19.9185  -13.5374  -16.4988 C   0  0  0  0  0  0  0  0  0  0  0  0
   19.4367  -14.5609  -17.4803 C   0  0  0  0  0  0  0  0  0  0  0  0
   18.3169  -15.3156  -16.9155 N   0  0  0  0  0  0  0  0  0  0  0  0
   22.8303   -9.7129  -15.9239 C   0  0  0  0  0  0  0  0  0  0  0  0
   22.9689   -9.4235  -14.7161 O   0  0  0  0  0  0  0  0  0  0  0  0
   22.6207   -6.4376  -17.7523 C   0  0  0  0  0  0  0  0  0  0  0  0
   22.7004   -7.2539  -16.4783 C   0  0  2  0  0  0  0  0  0  0  0  0
   22.6234   -8.6387  -16.8452 N   0  0  0  0  0  0  0  0  0  0  0  0
   21.6376   -6.9176  -15.5255 C   0  0  0  0  0  0  0  0  0  0  0  0
   21.7310   -5.8682  -14.6134 O   0  0  0  0  0  0  0  0  0  0  0  0
   20.5746   -7.5904  -15.5037 O   0  0  0  0  0  0  0  0  0  0  0  0
  2  3  1  1
  2  1  1  0
  4  2  1  0
  4  6  1  0
  4  5  1  6
  6  7  2  0
  8  6  1  0
  8  9  1  0
  9 10  1  1
 10 11  1  0
 12 11  1  0
 13 12  1  0
 14 13  1  0
 15 19  1  0
 15  9  1  0
 16 15  2  0
 18 17  1  6
 18 20  1  0
 18 19  1  0
 20 21  1  0
 22 20  2  0
M  END
$$$$
