VKA.pdb
     RDKit          3D

 22 21  0  0  1  0  0  0  0  0999 V2000
   18.9742  -13.5914  -17.5778 C   0  0  0  0  0  0  0  0  0  0  0  0
   18.4190  -13.5974  -16.1911 C   0  0  2  0  0  0  0  0  0  0  0  0
   17.1459  -14.4047  -16.0593 C   0  0  0  0  0  0  0  0  0  0  0  0
   18.2424  -12.2002  -15.6342 C   0  0  2  0  0  0  0  0  0  0  0  0
   17.2208  -11.5546  -16.4406 N   0  0  0  0  0  0  0  0  0  0  0  0
   19.5224  -11.4597  -15.7555 C   0  0  0  0  0  0  0  0  0  0  0  0
   20.5354  -11.8649  -15.1530 O   0  0  0  0  0  0  0  0  0  0  0  0
   19.6267  -10.2790  -16.5546 N   0  0  0  0  0  0  0  0  0  0  0  0
   20.8060   -9.4733  -16.6123 C   0  0  1  0  0  0  0  0  0  0  0  0
   21.2684   -9.3527  -18.0566 C   0  0  0  0  0  0  0  0  0  0  0  0
   22.0209  -10.5516  -18.5109 C   0  0  0  0  0  0  0  0  0  0  0  0
   22.4753  -10.3830  -19.9307 C   0  0  0  0  0  0  0  0  0  0  0  0
   23.1518  -11.6055  -20.4701 C   0  0  0  0  0  0  0  0  0  0  0  0
   23.6293  -11.3603  -21.8318 N   0  0  0  0  0  0  0  0  0  0  0  0
   20.5168   -8.1451  -16.0301 C   0  0  0  0  0  0  0  0  0  0  0  0
   19.4751   -7.5303  -16.3439 O   0  0  0  0  0  0  0  0  0  0  0  0
   22.0820   -6.0721  -13.3341 C   0  0  0  0  0  0  0  0  0  0  0  0
   21.1744   -6.2180  -14.5386 C   0  0  2  0  0  0  0  0  0  0  0  0
   21.4031   -7.5190  -15.0986 N   0  0  0  0  0  0  0  0  0  0  0  0
   21.4048   -5.1793  -15.5477 C   0  0  0  0  0  0  0  0  0  0  0  0
   20.8708   -3.8951  -15.4601 O   0  0  0  0  0  0  0  0  0  0  0  0
   22.1157   -5.4267  -16.5558 O   0  0  0  0  0  0  0  0  0  0  0  0
  2  3  1  6
  2  1  1  0
  4  2  1  0
  4  6  1  0
  4  5  1  6
  6  7  2  0
  8  6  1  0
  8  9  1  0
  9 10  1  6
 10 11  1  0
 12 11  1  0
 13 12  1  0
 14 13  1  0
 15 19  1  0
 15  9  1  0
 16 15  2  0
 18 17  1  1
 18 20  1  0
 18 19  1  0
 20 21  1  0
 22 20  2  0
M  END
$$$$
