VKA.pdb
     RDKit          3D

 22 21  0  0  1  0  0  0  0  0999 V2000
   14.8702  -14.9111  -15.9302 C   0  0  0  0  0  0  0  0  0  0  0  0
   16.1821  -15.0092  -16.6378 C   0  0  2  0  0  0  0  0  0  0  0  0
   16.8188  -16.3779  -16.5315 C   0  0  0  0  0  0  0  0  0  0  0  0
   17.1475  -13.9211  -16.2167 C   0  0  2  0  0  0  0  0  0  0  0  0
   17.5048  -14.1908  -14.8346 N   0  0  0  0  0  0  0  0  0  0  0  0
   16.4727  -12.6034  -16.3147 C   0  0  0  0  0  0  0  0  0  0  0  0
   16.0510  -12.2003  -17.4161 O   0  0  0  0  0  0  0  0  0  0  0  0
   16.2907  -11.7728  -15.1655 N   0  0  0  0  0  0  0  0  0  0  0  0
   15.7737  -10.4419  -15.2343 C   0  0  1  0  0  0  0  0  0  0  0  0
   14.6543  -10.2787  -14.2172 C   0  0  0  0  0  0  0  0  0  0  0  0
   13.3535  -10.7921  -14.7216 C   0  0  0  0  0  0  0  0  0  0  0  0
   12.3029  -10.7079  -13.6539 C   0  0  0  0  0  0  0  0  0  0  0  0
   11.0047  -11.3279  -14.0702 C   0  0  0  0  0  0  0  0  0  0  0  0
   10.1008  -11.4274  -12.9233 N   0  0  0  0  0  0  0  0  0  0  0  0
   16.8692   -9.4809  -14.9834 C   0  0  0  0  0  0  0  0  0  0  0  0
   17.5563   -9.5627  -13.9428 O   0  0  0  0  0  0  0  0  0  0  0  0
   18.6112   -6.9383  -17.0850 C   0  0  0  0  0  0  0  0  0  0  0  0
   18.2740   -7.5203  -15.7273 C   0  0  2  0  0  0  0  0  0  0  0  0
   17.1829   -8.4345  -15.9065 N   0  0  0  0  0  0  0  0  0  0  0  0
   17.9223   -6.4909  -14.7439 C   0  0  0  0  0  0  0  0  0  0  0  0
   16.6600   -6.3868  -14.1628 O   0  0  0  0  0  0  0  0  0  0  0  0
   18.7799   -5.6433  -14.3846 O   0  0  0  0  0  0  0  0  0  0  0  0
  2  3  1  1
  2  1  1  0
  4  2  1  0
  4  6  1  0
  4  5  1  1
  6  7  2  0
  8  6  1  0
  8  9  1  0
  9 10  1  1
 10 11  1  0
 12 11  1  0
 13 12  1  0
 14 13  1  0
 15 19  1  0
 15  9  1  0
 16 15  2  0
 18 17  1  6
 18 20  1  0
 18 19  1  0
 20 21  1  0
 22 20  2  0
M  END
$$$$
