GAP.pdb
     RDKit          3D

 17 17  0  0  1  0  0  0  0  0999 V2000
   28.9420  -23.5516  -17.6510 N   0  0  0  0  0  0  0  0  0  0  0  0
   28.2130  -22.3156  -17.7114 C   0  0  0  0  0  0  0  0  0  0  0  0
   27.8827  -21.8149  -16.3258 C   0  0  0  0  0  0  0  0  0  0  0  0
   28.0433  -22.5844  -15.3500 O   0  0  0  0  0  0  0  0  0  0  0  0
   26.8624  -18.4799  -14.9127 C   0  0  0  0  0  0  0  0  0  0  0  0
   27.0203  -19.9648  -14.8424 C   0  0  2  0  0  0  0  0  0  0  0  0
   27.4007  -20.5064  -16.1146 N   0  0  0  0  0  0  0  0  0  0  0  0
   25.8486  -20.6462  -14.2392 C   0  0  0  0  0  0  0  0  0  0  0  0
   25.0541  -21.2074  -15.0409 O   0  0  0  0  0  0  0  0  0  0  0  0
   25.5818  -20.6982  -12.8544 N   0  0  0  0  0  0  0  0  0  0  0  0
   26.4962  -20.0956  -11.8609 C   0  0  0  0  0  0  0  0  0  0  0  0
   26.3765  -21.1122  -10.7056 C   0  0  0  0  0  0  0  0  0  0  0  0
   24.8870  -21.2859  -10.6913 C   0  0  0  0  0  0  0  0  0  0  0  0
   24.4827  -21.2817  -12.1334 C   0  0  1  0  0  0  0  0  0  0  0  0
   23.2154  -20.5208  -12.3395 C   0  0  0  0  0  0  0  0  0  0  0  0
   21.9553  -21.0001  -12.1359 O   0  0  0  0  0  0  0  0  0  0  0  0
   23.3467  -19.3251  -12.7410 O   0  0  0  0  0  0  0  0  0  0  0  0
  1  2  1  0
  2  3  1  0
  3  4  2  0
  6  5  1  6
  7  3  1  0
  7  6  1  0
  8  6  1  0
  8  9  2  0
 10  8  1  0
 11 10  1  0
 12 11  1  0
 13 14  1  0
 13 12  1  0
 14 10  1  0
 15 16  1  0
 14 15  1  1
 17 15  2  0
M  END
$$$$
