GAP.pdb
     RDKit          3D

 17 17  0  0  1  0  0  0  0  0999 V2000
   20.9324  -17.0640  -16.4733 N   0  0  0  0  0  0  0  0  0  0  0  0
   22.2888  -17.5155  -16.3356 C   0  0  0  0  0  0  0  0  0  0  0  0
   22.4565  -18.3493  -15.0880 C   0  0  0  0  0  0  0  0  0  0  0  0
   22.1988  -17.8329  -13.9757 O   0  0  0  0  0  0  0  0  0  0  0  0
   22.9704  -21.9645  -14.3458 C   0  0  0  0  0  0  0  0  0  0  0  0
   23.1745  -20.5199  -14.0200 C   0  0  2  0  0  0  0  0  0  0  0  0
   22.8948  -19.6882  -15.1544 N   0  0  0  0  0  0  0  0  0  0  0  0
   24.4935  -20.2446  -13.3993 C   0  0  0  0  0  0  0  0  0  0  0  0
   25.3657  -19.7251  -14.1464 O   0  0  0  0  0  0  0  0  0  0  0  0
   24.8166  -20.5258  -12.0546 N   0  0  0  0  0  0  0  0  0  0  0  0
   23.8104  -21.0435  -11.1028 C   0  0  0  0  0  0  0  0  0  0  0  0
   24.2472  -20.3300   -9.8057 C   0  0  0  0  0  0  0  0  0  0  0  0
   25.7268  -20.5585   -9.8919 C   0  0  0  0  0  0  0  0  0  0  0  0
   26.0597  -20.3971  -11.3432 C   0  0  1  0  0  0  0  0  0  0  0  0
   27.0619  -21.4105  -11.7861 C   0  0  0  0  0  0  0  0  0  0  0  0
   28.4167  -21.2627  -11.7463 O   0  0  0  0  0  0  0  0  0  0  0  0
   26.5882  -22.4971  -12.2368 O   0  0  0  0  0  0  0  0  0  0  0  0
  1  2  1  0
  2  3  1  0
  3  4  2  0
  6  5  1  6
  7  3  1  0
  7  6  1  0
  8  6  1  0
  8  9  2  0
 10  8  1  0
 11 10  1  0
 12 11  1  0
 13 14  1  0
 13 12  1  0
 14 10  1  0
 15 16  1  0
 14 15  1  6
 17 15  2  0
M  END
$$$$
