GAP.pdb
     RDKit          3D

 17 17  0  0  1  0  0  0  0  0999 V2000
   29.2046  -20.8147  -18.9290 N   0  0  0  0  0  0  0  0  0  0  0  0
   28.0721  -19.9946  -18.6011 C   0  0  0  0  0  0  0  0  0  0  0  0
   27.8554  -19.9452  -17.1076 C   0  0  0  0  0  0  0  0  0  0  0  0
   28.3957  -20.8176  -16.3885 O   0  0  0  0  0  0  0  0  0  0  0  0
   26.3344  -17.4445  -14.7622 C   0  0  0  0  0  0  0  0  0  0  0  0
   26.7993  -18.8221  -15.1099 C   0  0  2  0  0  0  0  0  0  0  0  0
   27.0615  -18.9414  -16.5149 N   0  0  0  0  0  0  0  0  0  0  0  0
   25.9087  -19.8862  -14.5849 C   0  0  0  0  0  0  0  0  0  0  0  0
   25.0814  -20.3758  -15.4002 O   0  0  0  0  0  0  0  0  0  0  0  0
   25.9359  -20.3665  -13.2582 N   0  0  0  0  0  0  0  0  0  0  0  0
   26.9555  -19.9161  -12.2866 C   0  0  0  0  0  0  0  0  0  0  0  0
   27.1925  -21.2188  -11.4932 C   0  0  0  0  0  0  0  0  0  0  0  0
   25.7677  -21.6431  -11.2963 C   0  0  0  0  0  0  0  0  0  0  0  0
   25.0820  -21.3075  -12.5849 C   0  0  1  0  0  0  0  0  0  0  0  0
   23.7188  -20.7492  -12.3449 C   0  0  0  0  0  0  0  0  0  0  0  0
   22.5938  -21.4749  -12.0869 O   0  0  0  0  0  0  0  0  0  0  0  0
   23.6222  -19.4855  -12.3910 O   0  0  0  0  0  0  0  0  0  0  0  0
  1  2  1  0
  2  3  1  0
  3  4  2  0
  6  5  1  6
  7  3  1  0
  7  6  1  0
  8  6  1  0
  8  9  2  0
 10  8  1  0
 11 10  1  0
 12 11  1  0
 13 14  1  0
 13 12  1  0
 14 10  1  0
 15 16  1  0
 14 15  1  1
 17 15  2  0
M  END
$$$$
