GAP.pdb
     RDKit          3D

 17 17  0  0  1  0  0  0  0  0999 V2000
   15.2393  -11.0001  -15.6544 N   0  0  0  0  0  0  0  0  0  0  0  0
   15.6725   -9.6396  -15.4997 C   0  0  0  0  0  0  0  0  0  0  0  0
   17.1760   -9.5612  -15.3852 C   0  0  0  0  0  0  0  0  0  0  0  0
   17.7467  -10.1930  -14.4657 O   0  0  0  0  0  0  0  0  0  0  0  0
   19.9058   -8.2244  -17.5756 C   0  0  0  0  0  0  0  0  0  0  0  0
   19.3684   -8.6598  -16.2503 C   0  0  2  0  0  0  0  0  0  0  0  0
   17.9411   -8.7949  -16.2888 N   0  0  0  0  0  0  0  0  0  0  0  0
   19.8502   -7.8228  -15.1241 C   0  0  0  0  0  0  0  0  0  0  0  0
   19.0653   -6.9229  -14.7203 O   0  0  0  0  0  0  0  0  0  0  0  0
   21.1057   -7.9744  -14.4978 N   0  0  0  0  0  0  0  0  0  0  0  0
   22.0378   -9.0596  -14.8718 C   0  0  0  0  0  0  0  0  0  0  0  0
   22.6531   -9.3973  -13.4971 C   0  0  0  0  0  0  0  0  0  0  0  0
   22.9135   -8.0060  -13.0017 C   0  0  0  0  0  0  0  0  0  0  0  0
   21.7319   -7.2056  -13.4562 C   0  0  1  0  0  0  0  0  0  0  0  0
   22.1440   -5.8530  -13.9338 C   0  0  0  0  0  0  0  0  0  0  0  0
   22.4297   -4.7804  -13.1421 O   0  0  0  0  0  0  0  0  0  0  0  0
   22.2280   -5.7118  -15.1913 O   0  0  0  0  0  0  0  0  0  0  0  0
  1  2  1  0
  2  3  1  0
  3  4  2  0
  6  5  1  6
  7  3  1  0
  7  6  1  0
  8  6  1  0
  8  9  2  0
 10  8  1  0
 11 10  1  0
 12 11  1  0
 13 14  1  0
 13 12  1  0
 14 10  1  0
 15 16  1  0
 14 15  1  6
 17 15  2  0
M  END
$$$$
