GAP.pdb
     RDKit          3D

 17 17  0  0  1  0  0  0  0  0999 V2000
   14.0094  -12.5507  -13.9111 N   0  0  0  0  0  0  0  0  0  0  0  0
   14.5616  -11.2737  -14.2678 C   0  0  0  0  0  0  0  0  0  0  0  0
   15.1084  -10.5633  -13.0529 C   0  0  0  0  0  0  0  0  0  0  0  0
   14.5196  -10.7007  -11.9554 O   0  0  0  0  0  0  0  0  0  0  0  0
   18.2150   -8.6008  -12.3013 C   0  0  0  0  0  0  0  0  0  0  0  0
   16.7827   -8.9559  -12.0626 C   0  0  2  0  0  0  0  0  0  0  0  0
   16.2612   -9.7548  -13.1335 N   0  0  0  0  0  0  0  0  0  0  0  0
   15.9379   -7.7796  -11.7406 C   0  0  0  0  0  0  0  0  0  0  0  0
   15.2699   -7.2933  -12.6926 O   0  0  0  0  0  0  0  0  0  0  0  0
   15.8445   -7.1907  -10.4615 N   0  0  0  0  0  0  0  0  0  0  0  0
   16.4952   -7.7911   -9.2773 C   0  0  0  0  0  0  0  0  0  0  0  0
   15.4542   -7.4711   -8.1835 C   0  0  0  0  0  0  0  0  0  0  0  0
   15.1737   -6.0392   -8.5299 C   0  0  0  0  0  0  0  0  0  0  0  0
   15.1721   -5.9961  -10.0270 C   0  0  1  0  0  0  0  0  0  0  0  0
   15.8431   -4.7636  -10.5351 C   0  0  0  0  0  0  0  0  0  0  0  0
   17.1063   -4.6952  -11.0437 O   0  0  0  0  0  0  0  0  0  0  0  0
   15.1592   -3.6972  -10.4778 O   0  0  0  0  0  0  0  0  0  0  0  0
  1  2  1  0
  2  3  1  0
  3  4  2  0
  6  5  1  6
  7  3  1  0
  7  6  1  0
  8  6  1  0
  8  9  2  0
 10  8  1  0
 11 10  1  0
 12 11  1  0
 13 14  1  0
 13 12  1  0
 14 10  1  0
 15 16  1  0
 14 15  1  1
 17 15  2  0
M  END
$$$$
