GAP.pdb
     RDKit          3D

 17 17  0  0  1  0  0  0  0  0999 V2000
   11.3441  -19.4118    1.2574 N   0  0  0  0  0  0  0  0  0  0  0  0
   11.9655  -18.4174    2.0868 C   0  0  0  0  0  0  0  0  0  0  0  0
   13.4237  -18.7370    2.3128 C   0  0  0  0  0  0  0  0  0  0  0  0
   13.8696  -19.8401    1.9196 O   0  0  0  0  0  0  0  0  0  0  0  0
   16.3677  -16.7907    3.6150 C   0  0  0  0  0  0  0  0  0  0  0  0
   15.6677  -18.0593    3.2471 C   0  0  2  0  0  0  0  0  0  0  0  0
   14.2841  -17.8216    2.9538 N   0  0  0  0  0  0  0  0  0  0  0  0
   15.8820  -19.1482    4.2316 C   0  0  0  0  0  0  0  0  0  0  0  0
   14.9470  -19.3526    5.0519 O   0  0  0  0  0  0  0  0  0  0  0  0
   17.0445  -19.9456    4.2987 N   0  0  0  0  0  0  0  0  0  0  0  0
   18.0915  -19.8869    3.2562 C   0  0  0  0  0  0  0  0  0  0  0  0
   18.5291  -21.3662    3.2040 C   0  0  0  0  0  0  0  0  0  0  0  0
   18.6221  -21.6417    4.6752 C   0  0  0  0  0  0  0  0  0  0  0  0
   17.4643  -20.9090    5.2804 C   0  0  1  0  0  0  0  0  0  0  0  0
   17.8465  -20.2601    6.5690 C   0  0  0  0  0  0  0  0  0  0  0  0
   18.1400  -18.9398    6.7408 O   0  0  0  0  0  0  0  0  0  0  0  0
   17.8973  -21.0242    7.5798 O   0  0  0  0  0  0  0  0  0  0  0  0
  1  2  1  0
  2  3  1  0
  3  4  2  0
  6  5  1  1
  7  3  1  0
  7  6  1  0
  8  6  1  0
  8  9  2  0
 10  8  1  0
 11 10  1  0
 12 11  1  0
 13 14  1  0
 13 12  1  0
 14 10  1  0
 15 16  1  0
 14 15  1  1
 17 15  2  0
M  END
$$$$
