GAP.pdb
     RDKit          3D

 17 17  0  0  1  0  0  0  0  0999 V2000
   20.1085  -21.0456  -13.0737 N   0  0  0  0  0  0  0  0  0  0  0  0
   21.1330  -21.7060  -13.8332 C   0  0  0  0  0  0  0  0  0  0  0  0
   22.4586  -20.9994  -13.6809 C   0  0  0  0  0  0  0  0  0  0  0  0
   22.4660  -19.7605  -13.4929 O   0  0  0  0  0  0  0  0  0  0  0  0
   26.0146  -22.0653  -13.2459 C   0  0  0  0  0  0  0  0  0  0  0  0
   24.9793  -21.1037  -13.7340 C   0  0  2  0  0  0  0  0  0  0  0  0
   23.6776  -21.7057  -13.7463 N   0  0  0  0  0  0  0  0  0  0  0  0
   25.3429  -20.4615  -15.0209 C   0  0  0  0  0  0  0  0  0  0  0  0
   24.7371  -20.8781  -16.0448 O   0  0  0  0  0  0  0  0  0  0  0  0
   26.3048  -19.4379  -15.1578 N   0  0  0  0  0  0  0  0  0  0  0  0
   26.9847  -18.8450  -13.9863 C   0  0  0  0  0  0  0  0  0  0  0  0
   27.1066  -17.3741  -14.4380 C   0  0  0  0  0  0  0  0  0  0  0  0
   27.5823  -17.5926  -15.8433 C   0  0  0  0  0  0  0  0  0  0  0  0
   26.8138  -18.7817  -16.3319 C   0  0  1  0  0  0  0  0  0  0  0  0
   27.6759  -19.6879  -17.1463 C   0  0  0  0  0  0  0  0  0  0  0  0
   28.0675  -19.4714  -18.4342 O   0  0  0  0  0  0  0  0  0  0  0  0
   28.0658  -20.7475  -16.5689 O   0  0  0  0  0  0  0  0  0  0  0  0
  1  2  1  0
  2  3  1  0
  3  4  2  0
  6  5  1  6
  7  3  1  0
  7  6  1  0
  8  6  1  0
  8  9  2  0
 10  8  1  0
 11 10  1  0
 12 11  1  0
 13 14  1  0
 13 12  1  0
 14 10  1  0
 15 16  1  0
 14 15  1  1
 17 15  2  0
M  END
$$$$
