GAP.pdb
     RDKit          3D

 17 17  0  0  1  0  0  0  0  0999 V2000
   17.3465  -14.1618  -18.1889 N   0  0  0  0  0  0  0  0  0  0  0  0
   17.6435  -12.7736  -18.4064 C   0  0  0  0  0  0  0  0  0  0  0  0
   18.8968  -12.3674  -17.6688 C   0  0  0  0  0  0  0  0  0  0  0  0
   19.0656  -12.7709  -16.4945 O   0  0  0  0  0  0  0  0  0  0  0  0
   22.0201  -10.4954  -18.6167 C   0  0  0  0  0  0  0  0  0  0  0  0
   21.0491  -11.0509  -17.6251 C   0  0  2  0  0  0  0  0  0  0  0  0
   19.8716  -11.5483  -18.2754 N   0  0  0  0  0  0  0  0  0  0  0  0
   20.7559  -10.1154  -16.5116 C   0  0  0  0  0  0  0  0  0  0  0  0
   19.6776   -9.4679  -16.5943 O   0  0  0  0  0  0  0  0  0  0  0  0
   21.5961   -9.9157  -15.3954 N   0  0  0  0  0  0  0  0  0  0  0  0
   22.8581  -10.6671  -15.2250 C   0  0  0  0  0  0  0  0  0  0  0  0
   22.8744  -10.8590  -13.6935 C   0  0  0  0  0  0  0  0  0  0  0  0
   22.4931   -9.4709  -13.2730 C   0  0  0  0  0  0  0  0  0  0  0  0
   21.4605   -9.0351  -14.2665 C   0  0  1  0  0  0  0  0  0  0  0  0
   21.6466   -7.6050  -14.6508 C   0  0  0  0  0  0  0  0  0  0  0  0
   21.2723   -6.5245  -13.9083 O   0  0  0  0  0  0  0  0  0  0  0  0
   22.2034   -7.4009  -15.7718 O   0  0  0  0  0  0  0  0  0  0  0  0
  1  2  1  0
  2  3  1  0
  3  4  2  0
  6  5  1  6
  7  3  1  0
  7  6  1  0
  8  6  1  0
  8  9  2  0
 10  8  1  0
 11 10  1  0
 12 11  1  0
 13 14  1  0
 13 12  1  0
 14 10  1  0
 15 16  1  0
 14 15  1  6
 17 15  2  0
M  END
$$$$
