GAP.pdb
     RDKit          3D

 17 17  0  0  1  0  0  0  0  0999 V2000
   29.4014  -23.0241  -17.5763 N   0  0  0  0  0  0  0  0  0  0  0  0
   28.4247  -21.9715  -17.6037 C   0  0  0  0  0  0  0  0  0  0  0  0
   28.0717  -21.5257  -16.2050 C   0  0  0  0  0  0  0  0  0  0  0  0
   28.3131  -22.2949  -15.2456 O   0  0  0  0  0  0  0  0  0  0  0  0
   26.8845  -18.2966  -14.6992 C   0  0  0  0  0  0  0  0  0  0  0  0
   27.0873  -19.7775  -14.6745 C   0  0  2  0  0  0  0  0  0  0  0  0
   27.4799  -20.2685  -15.9636 N   0  0  0  0  0  0  0  0  0  0  0  0
   25.9384  -20.5120  -14.0899 C   0  0  0  0  0  0  0  0  0  0  0  0
   25.1571  -21.0699  -14.9067 O   0  0  0  0  0  0  0  0  0  0  0  0
   25.6792  -20.6165  -12.7066 N   0  0  0  0  0  0  0  0  0  0  0  0
   26.5949  -20.0448  -11.6962 C   0  0  0  0  0  0  0  0  0  0  0  0
   26.4877  -21.1038  -10.5784 C   0  0  0  0  0  0  0  0  0  0  0  0
   24.9995  -21.2877  -10.5631 C   0  0  0  0  0  0  0  0  0  0  0  0
   24.5876  -21.2332  -12.0021 C   0  0  1  0  0  0  0  0  0  0  0  0
   23.3144  -20.4737  -12.1738 C   0  0  0  0  0  0  0  0  0  0  0  0
   22.0591  -20.9643  -11.9681 O   0  0  0  0  0  0  0  0  0  0  0  0
   23.4354  -19.2673  -12.5457 O   0  0  0  0  0  0  0  0  0  0  0  0
  1  2  1  0
  2  3  1  0
  3  4  2  0
  6  5  1  6
  7  3  1  0
  7  6  1  0
  8  6  1  0
  8  9  2  0
 10  8  1  0
 11 10  1  0
 12 11  1  0
 13 14  1  0
 13 12  1  0
 14 10  1  0
 15 16  1  0
 14 15  1  1
 17 15  2  0
M  END
$$$$
