GAP.pdb
     RDKit          3D

 17 17  0  0  1  0  0  0  0  0999 V2000
   22.9862  -15.4602  -19.2735 N   0  0  0  0  0  0  0  0  0  0  0  0
   23.0408  -14.0724  -19.6390 C   0  0  0  0  0  0  0  0  0  0  0  0
   23.2782  -13.2036  -18.4272 C   0  0  0  0  0  0  0  0  0  0  0  0
   22.6822  -13.4780  -17.3596 O   0  0  0  0  0  0  0  0  0  0  0  0
   25.5522  -10.3036  -17.6639 C   0  0  0  0  0  0  0  0  0  0  0  0
   24.3488  -11.1550  -17.4151 C   0  0  2  0  0  0  0  0  0  0  0  0
   24.1525  -12.0981  -18.4776 N   0  0  0  0  0  0  0  0  0  0  0  0
   23.1337  -10.3655  -17.0968 C   0  0  0  0  0  0  0  0  0  0  0  0
   22.3286  -10.1706  -18.0469 O   0  0  0  0  0  0  0  0  0  0  0  0
   22.8385   -9.8344  -15.8231 N   0  0  0  0  0  0  0  0  0  0  0  0
   23.6630  -10.1493  -14.6368 C   0  0  0  0  0  0  0  0  0  0  0  0
   22.5784  -10.2099  -13.5402 C   0  0  0  0  0  0  0  0  0  0  0  0
   21.8042   -8.9768  -13.8991 C   0  0  0  0  0  0  0  0  0  0  0  0
   21.7844   -8.9540  -15.3966 C   0  0  1  0  0  0  0  0  0  0  0  0
   21.9699   -7.5690  -15.9208 C   0  0  0  0  0  0  0  0  0  0  0  0
   20.9886   -6.6339  -16.0681 O   0  0  0  0  0  0  0  0  0  0  0  0
   23.1531   -7.2568  -16.2535 O   0  0  0  0  0  0  0  0  0  0  0  0
  1  2  1  0
  2  3  1  0
  3  4  2  0
  6  5  1  6
  7  3  1  0
  7  6  1  0
  8  6  1  0
  8  9  2  0
 10  8  1  0
 11 10  1  0
 12 11  1  0
 13 14  1  0
 13 12  1  0
 14 10  1  0
 15 16  1  0
 14 15  1  1
 17 15  2  0
M  END
$$$$
