GAP.pdb
     RDKit          3D

 17 17  0  0  1  0  0  0  0  0999 V2000
   26.5564  -20.4159  -19.8129 N   0  0  0  0  0  0  0  0  0  0  0  0
   25.7281  -19.6696  -18.9074 C   0  0  0  0  0  0  0  0  0  0  0  0
   26.2266  -19.7989  -17.4881 C   0  0  0  0  0  0  0  0  0  0  0  0
   26.7905  -20.8621  -17.1392 O   0  0  0  0  0  0  0  0  0  0  0  0
   26.4184  -17.4880  -14.5266 C   0  0  0  0  0  0  0  0  0  0  0  0
   26.3651  -18.8424  -15.1571 C   0  0  2  0  0  0  0  0  0  0  0  0
   26.0688  -18.7511  -16.5574 N   0  0  0  0  0  0  0  0  0  0  0  0
   25.4837  -19.7883  -14.4295 C   0  0  0  0  0  0  0  0  0  0  0  0
   24.3362  -19.9718  -14.9177 O   0  0  0  0  0  0  0  0  0  0  0  0
   25.8497  -20.4746  -13.2519 N   0  0  0  0  0  0  0  0  0  0  0  0
   27.2159  -20.3902  -12.6928 C   0  0  0  0  0  0  0  0  0  0  0  0
   27.3960  -21.8256  -12.1547 C   0  0  0  0  0  0  0  0  0  0  0  0
   26.0677  -21.9982  -11.4804 C   0  0  0  0  0  0  0  0  0  0  0  0
   25.0818  -21.3333  -12.3911 C   0  0  1  0  0  0  0  0  0  0  0  0
   24.0560  -20.5732  -11.6181 C   0  0  0  0  0  0  0  0  0  0  0  0
   22.9293  -21.0978  -11.0575 O   0  0  0  0  0  0  0  0  0  0  0  0
   24.2719  -19.3307  -11.4847 O   0  0  0  0  0  0  0  0  0  0  0  0
  1  2  1  0
  2  3  1  0
  3  4  2  0
  6  5  1  1
  7  3  1  0
  7  6  1  0
  8  6  1  0
  8  9  2  0
 10  8  1  0
 11 10  1  0
 12 11  1  0
 13 14  1  0
 13 12  1  0
 14 10  1  0
 15 16  1  0
 14 15  1  1
 17 15  2  0
M  END
$$$$
