GAP.pdb
     RDKit          3D

 17 17  0  0  1  0  0  0  0  0999 V2000
   15.0119  -10.0114  -10.7098 N   0  0  0  0  0  0  0  0  0  0  0  0
   15.0499   -9.4617  -12.0361 C   0  0  0  0  0  0  0  0  0  0  0  0
   16.4623   -9.1040  -12.4323 C   0  0  0  0  0  0  0  0  0  0  0  0
   17.3040   -8.8759  -11.5325 O   0  0  0  0  0  0  0  0  0  0  0  0
   18.3389   -9.0914  -15.6864 C   0  0  0  0  0  0  0  0  0  0  0  0
   18.1651   -8.7079  -14.2520 C   0  0  2  0  0  0  0  0  0  0  0  0
   16.8455   -9.0235  -13.7872 N   0  0  0  0  0  0  0  0  0  0  0  0
   18.5689   -7.3082  -13.9712 C   0  0  0  0  0  0  0  0  0  0  0  0
   17.6370   -6.4638  -13.8852 O   0  0  0  0  0  0  0  0  0  0  0  0
   19.9034   -6.8819  -13.8008 N   0  0  0  0  0  0  0  0  0  0  0  0
   21.0404   -7.8225  -13.8943 C   0  0  0  0  0  0  0  0  0  0  0  0
   21.9808   -7.2458  -12.8146 C   0  0  0  0  0  0  0  0  0  0  0  0
   21.8793   -5.7899  -13.1600 C   0  0  0  0  0  0  0  0  0  0  0  0
   20.4420   -5.5775  -13.5241 C   0  0  1  0  0  0  0  0  0  0  0  0
   20.3084   -4.6606  -14.6940 C   0  0  0  0  0  0  0  0  0  0  0  0
   20.3107   -3.2981  -14.6438 O   0  0  0  0  0  0  0  0  0  0  0  0
   20.1815   -5.2207  -15.8247 O   0  0  0  0  0  0  0  0  0  0  0  0
  1  2  1  0
  2  3  1  0
  3  4  2  0
  6  5  1  6
  7  3  1  0
  7  6  1  0
  8  6  1  0
  8  9  2  0
 10  8  1  0
 11 10  1  0
 12 11  1  0
 13 14  1  0
 13 12  1  0
 14 10  1  0
 15 16  1  0
 14 15  1  6
 17 15  2  0
M  END
$$$$
