GAP.pdb
     RDKit          3D

 17 17  0  0  1  0  0  0  0  0999 V2000
   20.1493  -21.0255  -12.7998 N   0  0  0  0  0  0  0  0  0  0  0  0
   21.2772  -21.6358  -13.4464 C   0  0  0  0  0  0  0  0  0  0  0  0
   22.5142  -20.7838  -13.2924 C   0  0  0  0  0  0  0  0  0  0  0  0
   22.3979  -19.5366  -13.3245 O   0  0  0  0  0  0  0  0  0  0  0  0
   26.1441  -21.4471  -12.5864 C   0  0  0  0  0  0  0  0  0  0  0  0
   25.0330  -20.6600  -13.2035 C   0  0  2  0  0  0  0  0  0  0  0  0
   23.7871  -21.3647  -13.1147 N   0  0  0  0  0  0  0  0  0  0  0  0
   25.3463  -20.1888  -14.5749 C   0  0  0  0  0  0  0  0  0  0  0  0
   24.8640  -20.8656  -15.5227 O   0  0  0  0  0  0  0  0  0  0  0  0
   26.1342  -19.0553  -14.8683 N   0  0  0  0  0  0  0  0  0  0  0  0
   26.7612  -18.2445  -13.8027 C   0  0  0  0  0  0  0  0  0  0  0  0
   26.6389  -16.8297  -14.4076 C   0  0  0  0  0  0  0  0  0  0  0  0
   27.0865  -17.1271  -15.8077 C   0  0  0  0  0  0  0  0  0  0  0  0
   26.4900  -18.4628  -16.1295 C   0  0  1  0  0  0  0  0  0  0  0  0
   27.4476  -19.3148  -16.8941 C   0  0  0  0  0  0  0  0  0  0  0  0
   27.7046  -19.2241  -18.2300 O   0  0  0  0  0  0  0  0  0  0  0  0
   28.0647  -20.1949  -16.2212 O   0  0  0  0  0  0  0  0  0  0  0  0
  1  2  1  0
  2  3  1  0
  3  4  2  0
  6  5  1  6
  7  3  1  0
  7  6  1  0
  8  6  1  0
  8  9  2  0
 10  8  1  0
 11 10  1  0
 12 11  1  0
 13 14  1  0
 13 12  1  0
 14 10  1  0
 15 16  1  0
 14 15  1  1
 17 15  2  0
M  END
$$$$
