GAP.pdb
     RDKit          3D

 17 17  0  0  1  0  0  0  0  0999 V2000
   18.0976  -15.1810  -17.5380 N   0  0  0  0  0  0  0  0  0  0  0  0
   18.3168  -13.8085  -17.9000 C   0  0  0  0  0  0  0  0  0  0  0  0
   19.5484  -13.2606  -17.2199 C   0  0  0  0  0  0  0  0  0  0  0  0
   19.8065  -13.6260  -16.0494 O   0  0  0  0  0  0  0  0  0  0  0  0
   22.4182  -11.0788  -18.2844 C   0  0  0  0  0  0  0  0  0  0  0  0
   21.5006  -11.6622  -17.2586 C   0  0  2  0  0  0  0  0  0  0  0  0
   20.4051  -12.3522  -17.8756 N   0  0  0  0  0  0  0  0  0  0  0  0
   21.0740  -10.6783  -16.2333 C   0  0  0  0  0  0  0  0  0  0  0  0
   19.9465  -10.1424  -16.4074 O   0  0  0  0  0  0  0  0  0  0  0  0
   21.8414  -10.3188  -15.1048 N   0  0  0  0  0  0  0  0  0  0  0  0
   23.1108  -11.0016  -14.7754 C   0  0  0  0  0  0  0  0  0  0  0  0
   23.0421  -11.0089  -13.2334 C   0  0  0  0  0  0  0  0  0  0  0  0
   22.5997   -9.5943  -13.0055 C   0  0  0  0  0  0  0  0  0  0  0  0
   21.6160   -9.3150  -14.0999 C   0  0  1  0  0  0  0  0  0  0  0  0
   21.7861   -7.9354  -14.6434 C   0  0  0  0  0  0  0  0  0  0  0  0
   22.4374   -7.6066  -15.7952 O   0  0  0  0  0  0  0  0  0  0  0  0
   21.2719   -7.0023  -13.9556 O   0  0  0  0  0  0  0  0  0  0  0  0
  1  2  1  0
  2  3  1  0
  3  4  2  0
  6  5  1  6
  7  3  1  0
  7  6  1  0
  8  6  1  0
  8  9  2  0
 10  8  1  0
 11 10  1  0
 12 11  1  0
 13 14  1  0
 13 12  1  0
 14 10  1  0
 15 16  1  0
 14 15  1  6
 17 15  2  0
M  END
$$$$
