DVD.pdb
     RDKit          3D

 24 23  0  0  1  0  0  0  0  0999 V2000
   21.2741  -13.6176  -18.1766 N   0  0  0  0  0  0  0  0  0  0  0  0
   21.5470  -12.2437  -18.4556 C   0  0  1  0  0  0  0  0  0  0  0  0
   20.3263  -11.5088  -18.9775 C   0  0  0  0  0  0  0  0  0  0  0  0
   19.8895  -12.0258  -20.2857 C   0  0  0  0  0  0  0  0  0  0  0  0
   20.6384  -12.6818  -21.0580 O   0  0  0  0  0  0  0  0  0  0  0  0
   22.0988  -11.5080  -17.2826 C   0  0  0  0  0  0  0  0  0  0  0  0
   21.4135  -11.4875  -16.2401 O   0  0  0  0  0  0  0  0  0  0  0  0
   18.6001  -11.7872  -20.6974 O   0  0  0  0  0  0  0  0  0  0  0  0
   26.2245  -10.2790  -17.0985 C   0  0  0  0  0  0  0  0  0  0  0  0
   25.2978  -10.4605  -15.9357 C   0  0  1  0  0  0  0  0  0  0  0  0
   25.9192   -9.7118  -14.7684 C   0  0  0  0  0  0  0  0  0  0  0  0
   23.8687  -10.1163  -16.1418 C   0  0  2  0  0  0  0  0  0  0  0  0
   23.3472  -10.8473  -17.3139 N   0  0  0  0  0  0  0  0  0  0  0  0
   23.6152   -8.6824  -16.3052 C   0  0  0  0  0  0  0  0  0  0  0  0
   23.8692   -8.0589  -17.3833 O   0  0  0  0  0  0  0  0  0  0  0  0
   23.0614   -7.8906  -15.2749 N   0  0  0  0  0  0  0  0  0  0  0  0
   22.8380   -6.4445  -15.5118 C   0  0  1  0  0  0  0  0  0  0  0  0
   21.6283   -6.3076  -16.4456 C   0  0  0  0  0  0  0  0  0  0  0  0
   21.1800   -4.9212  -16.6197 C   0  0  0  0  0  0  0  0  0  0  0  0
   21.9087   -3.9333  -16.8748 O   0  0  0  0  0  0  0  0  0  0  0  0
   22.5623   -5.8399  -14.1941 C   0  0  0  0  0  0  0  0  0  0  0  0
   22.5180   -4.4659  -13.9446 O   0  0  0  0  0  0  0  0  0  0  0  0
   19.8034   -4.6858  -16.4866 O   0  0  0  0  0  0  0  0  0  0  0  0
   22.3429   -6.5567  -13.1766 O   0  0  0  0  0  0  0  0  0  0  0  0
  2  1  1  1
  2  3  1  0
  4  3  1  0
  4  8  1  0
  5  4  2  0
  6  2  1  0
  6  7  2  0
 10  9  1  6
 10 12  1  0
 10 11  1  0
 12 13  1  6
 13  6  1  0
 14 12  1  0
 15 14  2  0
 16 14  1  0
 17 21  1  0
 17 16  1  0
 17 18  1  6
 19 20  2  0
 19 18  1  0
 21 22  1  0
 23 19  1  0
 24 21  2  0
M  END
$$$$
