DVD.pdb
     RDKit          3D

 24 23  0  0  1  0  0  0  0  0999 V2000
   21.3798  -13.3697  -17.9442 N   0  0  0  0  0  0  0  0  0  0  0  0
   21.5612  -11.9659  -18.1352 C   0  0  1  0  0  0  0  0  0  0  0  0
   20.4235  -11.3400  -18.9202 C   0  0  0  0  0  0  0  0  0  0  0  0
   20.2553  -11.9678  -20.2420 C   0  0  0  0  0  0  0  0  0  0  0  0
   21.2093  -12.1735  -21.0391 O   0  0  0  0  0  0  0  0  0  0  0  0
   21.7437  -11.2214  -16.8569 C   0  0  0  0  0  0  0  0  0  0  0  0
   20.9011  -11.4074  -15.9556 O   0  0  0  0  0  0  0  0  0  0  0  0
   18.9974  -12.3541  -20.6387 O   0  0  0  0  0  0  0  0  0  0  0  0
   24.4599  -11.4698  -14.3950 C   0  0  0  0  0  0  0  0  0  0  0  0
   24.2796  -10.0222  -14.7353 C   0  0  1  0  0  0  0  0  0  0  0  0
   25.4829   -9.6233  -15.5734 C   0  0  0  0  0  0  0  0  0  0  0  0
   22.9916   -9.6221  -15.3549 C   0  0  2  0  0  0  0  0  0  0  0  0
   22.8184  -10.3305  -16.6387 N   0  0  0  0  0  0  0  0  0  0  0  0
   22.8518   -8.1792  -15.5681 C   0  0  0  0  0  0  0  0  0  0  0  0
   23.3268   -7.5866  -16.5874 O   0  0  0  0  0  0  0  0  0  0  0  0
   22.1700   -7.3431  -14.6564 N   0  0  0  0  0  0  0  0  0  0  0  0
   22.1315   -5.8816  -14.9014 C   0  0  1  0  0  0  0  0  0  0  0  0
   20.7341   -5.5355  -15.4320 C   0  0  0  0  0  0  0  0  0  0  0  0
   20.5409   -4.1011  -15.6734 C   0  0  0  0  0  0  0  0  0  0  0  0
   21.3912   -3.3072  -16.1409 O   0  0  0  0  0  0  0  0  0  0  0  0
   22.3819   -5.2302  -13.6010 C   0  0  0  0  0  0  0  0  0  0  0  0
   22.7002   -3.8797  -13.4379 O   0  0  0  0  0  0  0  0  0  0  0  0
   19.2820   -3.5743  -15.3478 O   0  0  0  0  0  0  0  0  0  0  0  0
   22.3212   -5.8808  -12.5192 O   0  0  0  0  0  0  0  0  0  0  0  0
  2  1  1  1
  2  3  1  0
  4  3  1  0
  4  8  1  0
  5  4  2  0
  6  2  1  0
  6  7  2  0
 10  9  1  6
 10 12  1  0
 10 11  1  0
 12 13  1  6
 13  6  1  0
 14 12  1  0
 15 14  2  0
 16 14  1  0
 17 21  1  0
 17 16  1  0
 17 18  1  1
 19 20  2  0
 19 18  1  0
 21 22  1  0
 23 19  1  0
 24 21  2  0
M  END
$$$$
