DVD.pdb
     RDKit          3D

 24 23  0  0  1  0  0  0  0  0999 V2000
   18.2922  -12.6720  -16.9074 N   0  0  0  0  0  0  0  0  0  0  0  0
   18.6645  -11.3302  -17.2249 C   0  0  1  0  0  0  0  0  0  0  0  0
   17.4771  -10.4902  -17.6572 C   0  0  0  0  0  0  0  0  0  0  0  0
   16.8741  -10.9895  -18.9048 C   0  0  0  0  0  0  0  0  0  0  0  0
   15.7871  -11.6256  -18.9442 O   0  0  0  0  0  0  0  0  0  0  0  0
   19.3732  -10.6413  -16.1091 C   0  0  0  0  0  0  0  0  0  0  0  0
   18.7970  -10.5912  -15.0035 O   0  0  0  0  0  0  0  0  0  0  0  0
   17.5206  -10.7561  -20.0949 O   0  0  0  0  0  0  0  0  0  0  0  0
   23.5462  -10.1518  -16.1549 C   0  0  0  0  0  0  0  0  0  0  0  0
   22.6782   -9.9981  -14.9438 C   0  0  1  0  0  0  0  0  0  0  0  0
   23.5115   -9.2637  -13.9067 C   0  0  0  0  0  0  0  0  0  0  0  0
   21.3381   -9.3900  -15.1374 C   0  0  2  0  0  0  0  0  0  0  0  0
   20.6499  -10.0556  -16.2614 N   0  0  0  0  0  0  0  0  0  0  0  0
   21.3640   -7.9429  -15.3658 C   0  0  0  0  0  0  0  0  0  0  0  0
   21.7520   -7.4276  -16.4610 O   0  0  0  0  0  0  0  0  0  0  0  0
   20.9507   -7.0153  -14.3839 N   0  0  0  0  0  0  0  0  0  0  0  0
   21.0720   -5.5640  -14.6603 C   0  0  1  0  0  0  0  0  0  0  0  0
   19.6790   -4.9416  -14.4979 C   0  0  0  0  0  0  0  0  0  0  0  0
   19.6648   -3.4866  -14.6876 C   0  0  0  0  0  0  0  0  0  0  0  0
   20.5357   -2.8083  -15.2819 O   0  0  0  0  0  0  0  0  0  0  0  0
   22.0146   -5.0230  -13.6620 C   0  0  0  0  0  0  0  0  0  0  0  0
   22.8509   -3.9240  -13.8737 O   0  0  0  0  0  0  0  0  0  0  0  0
   18.5691   -2.7947  -14.1499 O   0  0  0  0  0  0  0  0  0  0  0  0
   22.1248   -5.5422  -12.5151 O   0  0  0  0  0  0  0  0  0  0  0  0
  2  1  1  1
  2  3  1  0
  4  3  1  0
  4  8  1  0
  5  4  2  0
  6  2  1  0
  6  7  2  0
 10  9  1  6
 10 12  1  0
 10 11  1  0
 12 13  1  6
 13  6  1  0
 14 12  1  0
 15 14  2  0
 16 14  1  0
 17 21  1  0
 17 16  1  0
 17 18  1  1
 19 20  2  0
 19 18  1  0
 21 22  1  0
 23 19  1  0
 24 21  2  0
M  END
$$$$
