DVD.pdb
     RDKit          3D

 24 23  0  0  1  0  0  0  0  0999 V2000
   23.0503  -13.9995  -19.1164 N   0  0  0  0  0  0  0  0  0  0  0  0
   23.0074  -12.5804  -19.2722 C   0  0  1  0  0  0  0  0  0  0  0  0
   21.7871  -12.1233  -20.0497 C   0  0  0  0  0  0  0  0  0  0  0  0
   21.7468  -12.7037  -21.4029 C   0  0  0  0  0  0  0  0  0  0  0  0
   22.7670  -12.8422  -22.1294 O   0  0  0  0  0  0  0  0  0  0  0  0
   23.0657  -11.8484  -17.9751 C   0  0  0  0  0  0  0  0  0  0  0  0
   22.2927  -12.2190  -17.0684 O   0  0  0  0  0  0  0  0  0  0  0  0
   20.5397  -13.1198  -21.9115 O   0  0  0  0  0  0  0  0  0  0  0  0
   26.5451   -9.7286  -16.8442 C   0  0  0  0  0  0  0  0  0  0  0  0
   25.4644  -10.2316  -15.9370 C   0  0  1  0  0  0  0  0  0  0  0  0
   25.6737   -9.5471  -14.5965 C   0  0  0  0  0  0  0  0  0  0  0  0
   24.0649  -10.1292  -16.4206 C   0  0  2  0  0  0  0  0  0  0  0  0
   23.9503  -10.7710  -17.7453 N   0  0  0  0  0  0  0  0  0  0  0  0
   23.5553   -8.7573  -16.4944 C   0  0  0  0  0  0  0  0  0  0  0  0
   23.7977   -7.9868  -17.4758 O   0  0  0  0  0  0  0  0  0  0  0  0
   22.7492   -8.1949  -15.4799 N   0  0  0  0  0  0  0  0  0  0  0  0
   22.2875   -6.7927  -15.6140 C   0  0  1  0  0  0  0  0  0  0  0  0
   20.7815   -6.8247  -15.9053 C   0  0  0  0  0  0  0  0  0  0  0  0
   20.1615   -5.4948  -15.9167 C   0  0  0  0  0  0  0  0  0  0  0  0
   20.4955   -4.5277  -16.6413 O   0  0  0  0  0  0  0  0  0  0  0  0
   22.5646   -6.1333  -14.3231 C   0  0  0  0  0  0  0  0  0  0  0  0
   22.7293   -4.7562  -14.1543 O   0  0  0  0  0  0  0  0  0  0  0  0
   19.0934   -5.2931  -15.0297 O   0  0  0  0  0  0  0  0  0  0  0  0
   22.6737   -6.8010  -13.2557 O   0  0  0  0  0  0  0  0  0  0  0  0
  2  1  1  1
  2  3  1  0
  4  3  1  0
  4  8  1  0
  5  4  2  0
  6  2  1  0
  6  7  2  0
 10  9  1  6
 10 12  1  0
 10 11  1  0
 12 13  1  6
 13  6  1  0
 14 12  1  0
 15 14  2  0
 16 14  1  0
 17 21  1  0
 17 16  1  0
 17 18  1  1
 19 20  2  0
 19 18  1  0
 21 22  1  0
 23 19  1  0
 24 21  2  0
M  END
$$$$
