DVD.pdb
     RDKit          3D

 24 23  0  0  1  0  0  0  0  0999 V2000
   18.2553  -12.5714  -16.2022 N   0  0  0  0  0  0  0  0  0  0  0  0
   18.8479  -11.3765  -16.7127 C   0  0  1  0  0  0  0  0  0  0  0  0
   17.8286  -10.4622  -17.3665 C   0  0  0  0  0  0  0  0  0  0  0  0
   17.2984  -11.0329  -18.6167 C   0  0  0  0  0  0  0  0  0  0  0  0
   16.9324  -12.2332  -18.7313 O   0  0  0  0  0  0  0  0  0  0  0  0
   19.6025  -10.6114  -15.6798 C   0  0  0  0  0  0  0  0  0  0  0  0
   19.0549  -10.4441  -14.5712 O   0  0  0  0  0  0  0  0  0  0  0  0
   17.1924  -10.2248  -19.7233 O   0  0  0  0  0  0  0  0  0  0  0  0
   23.1361  -11.1852  -14.2670 C   0  0  0  0  0  0  0  0  0  0  0  0
   22.9729   -9.7667  -14.7199 C   0  0  1  0  0  0  0  0  0  0  0  0
   23.8204   -9.6139  -15.9720 C   0  0  0  0  0  0  0  0  0  0  0  0
   21.5885   -9.2628  -14.8999 C   0  0  2  0  0  0  0  0  0  0  0  0
   20.8912  -10.0810  -15.9121 N   0  0  0  0  0  0  0  0  0  0  0  0
   21.5095   -7.8481  -15.2734 C   0  0  0  0  0  0  0  0  0  0  0  0
   21.6597   -7.4444  -16.4693 O   0  0  0  0  0  0  0  0  0  0  0  0
   21.2521   -6.8302  -14.3285 N   0  0  0  0  0  0  0  0  0  0  0  0
   21.2598   -5.4143  -14.7672 C   0  0  1  0  0  0  0  0  0  0  0  0
   19.8198   -4.8922  -14.6791 C   0  0  0  0  0  0  0  0  0  0  0  0
   19.7075   -3.4485  -14.9164 C   0  0  0  0  0  0  0  0  0  0  0  0
   19.2988   -2.5923  -14.0968 O   0  0  0  0  0  0  0  0  0  0  0  0
   22.1451   -4.6898  -13.8348 C   0  0  0  0  0  0  0  0  0  0  0  0
   22.7709   -3.4732  -14.1179 O   0  0  0  0  0  0  0  0  0  0  0  0
   20.0964   -2.9891  -16.1838 O   0  0  0  0  0  0  0  0  0  0  0  0
   22.3986   -5.1452  -12.6836 O   0  0  0  0  0  0  0  0  0  0  0  0
  2  1  1  1
  2  3  1  0
  4  3  1  0
  4  8  1  0
  5  4  2  0
  6  2  1  0
  6  7  2  0
 10  9  1  6
 10 12  1  0
 10 11  1  0
 12 13  1  6
 13  6  1  0
 14 12  1  0
 15 14  2  0
 16 14  1  0
 17 21  1  0
 17 16  1  0
 17 18  1  1
 19 20  2  0
 19 18  1  0
 21 22  1  0
 23 19  1  0
 24 21  2  0
M  END
$$$$
