DVD.pdb
     RDKit          3D

 24 23  0  0  1  0  0  0  0  0999 V2000
   17.2328  -19.6775  -15.8735 N   0  0  0  0  0  0  0  0  0  0  0  0
   18.0620  -18.5569  -15.5630 C   0  0  1  0  0  0  0  0  0  0  0  0
   19.4588  -18.6971  -16.1391 C   0  0  0  0  0  0  0  0  0  0  0  0
   20.0463  -20.0154  -15.8448 C   0  0  0  0  0  0  0  0  0  0  0  0
   21.2319  -20.3275  -16.1359 O   0  0  0  0  0  0  0  0  0  0  0  0
   17.4775  -17.2582  -16.0030 C   0  0  0  0  0  0  0  0  0  0  0  0
   17.0686  -17.1787  -17.1792 O   0  0  0  0  0  0  0  0  0  0  0  0
   19.2715  -20.9635  -15.2206 O   0  0  0  0  0  0  0  0  0  0  0  0
   14.3990  -15.9243  -15.0023 C   0  0  0  0  0  0  0  0  0  0  0  0
   15.3803  -14.8058  -14.8294 C   0  0  1  0  0  0  0  0  0  0  0  0
   15.5677  -14.6244  -13.3323 C   0  0  0  0  0  0  0  0  0  0  0  0
   16.6683  -14.9089  -15.5599 C   0  0  2  0  0  0  0  0  0  0  0  0
   17.3744  -16.1384  -15.1478 N   0  0  0  0  0  0  0  0  0  0  0  0
   17.5517  -13.7532  -15.3831 C   0  0  0  0  0  0  0  0  0  0  0  0
   18.4278  -13.6930  -14.4642 O   0  0  0  0  0  0  0  0  0  0  0  0
   17.4968  -12.6236  -16.2294 N   0  0  0  0  0  0  0  0  0  0  0  0
   18.4379  -11.5009  -16.0027 C   0  0  1  0  0  0  0  0  0  0  0  0
   18.4487  -10.6395  -17.2723 C   0  0  0  0  0  0  0  0  0  0  0  0
   19.3124   -9.4578  -17.1678 C   0  0  0  0  0  0  0  0  0  0  0  0
   20.4634   -9.4228  -16.6719 O   0  0  0  0  0  0  0  0  0  0  0  0
   17.9165  -10.7410  -14.8501 C   0  0  0  0  0  0  0  0  0  0  0  0
   18.7102  -10.0621  -13.9222 O   0  0  0  0  0  0  0  0  0  0  0  0
   18.7945   -8.2558  -17.6729 O   0  0  0  0  0  0  0  0  0  0  0  0
   16.6754  -10.6578  -14.6267 O   0  0  0  0  0  0  0  0  0  0  0  0
  2  1  1  6
  2  3  1  0
  4  3  1  0
  4  8  1  0
  5  4  2  0
  6  2  1  0
  6  7  2  0
 10  9  1  1
 10 12  1  0
 10 11  1  0
 12 13  1  1
 13  6  1  0
 14 12  1  0
 15 14  2  0
 16 14  1  0
 17 21  1  0
 17 16  1  0
 17 18  1  6
 19 20  2  0
 19 18  1  0
 21 22  1  0
 23 19  1  0
 24 21  2  0
M  END
$$$$
