DVD.pdb
     RDKit          3D

 24 23  0  0  1  0  0  0  0  0999 V2000
   19.1242  -13.0471  -16.8152 N   0  0  0  0  0  0  0  0  0  0  0  0
   19.2990  -11.6650  -17.1301 C   0  0  1  0  0  0  0  0  0  0  0  0
   18.0153  -11.0186  -17.6167 C   0  0  0  0  0  0  0  0  0  0  0  0
   17.5832  -11.5616  -18.9160 C   0  0  0  0  0  0  0  0  0  0  0  0
   18.3637  -11.7357  -19.8897 O   0  0  0  0  0  0  0  0  0  0  0  0
   19.8479  -10.8720  -15.9936 C   0  0  0  0  0  0  0  0  0  0  0  0
   19.2240  -10.9038  -14.9135 O   0  0  0  0  0  0  0  0  0  0  0  0
   16.2623  -11.8999  -19.0883 O   0  0  0  0  0  0  0  0  0  0  0  0
   22.9675  -11.4483  -14.2692 C   0  0  0  0  0  0  0  0  0  0  0  0
   22.9269   -9.9889  -14.6047 C   0  0  1  0  0  0  0  0  0  0  0  0
   23.9565   -9.7699  -15.7007 C   0  0  0  0  0  0  0  0  0  0  0  0
   21.6045   -9.4011  -14.9347 C   0  0  2  0  0  0  0  0  0  0  0  0
   21.0277  -10.1019  -16.0992 N   0  0  0  0  0  0  0  0  0  0  0  0
   21.6380   -7.9598  -15.1967 C   0  0  0  0  0  0  0  0  0  0  0  0
   21.9884   -7.4737  -16.3176 O   0  0  0  0  0  0  0  0  0  0  0  0
   21.2744   -7.0056  -14.2207 N   0  0  0  0  0  0  0  0  0  0  0  0
   21.3276   -5.5637  -14.5606 C   0  0  1  0  0  0  0  0  0  0  0  0
   19.8987   -5.0119  -14.4715 C   0  0  0  0  0  0  0  0  0  0  0  0
   19.8126   -3.5711  -14.7358 C   0  0  0  0  0  0  0  0  0  0  0  0
   20.4907   -2.9294  -15.5727 O   0  0  0  0  0  0  0  0  0  0  0  0
   22.2057   -4.9275  -13.5595 C   0  0  0  0  0  0  0  0  0  0  0  0
   22.8038   -5.5965  -12.4887 O   0  0  0  0  0  0  0  0  0  0  0  0
   18.8804   -2.8486  -13.9760 O   0  0  0  0  0  0  0  0  0  0  0  0
   22.4771   -3.6945  -13.6143 O   0  0  0  0  0  0  0  0  0  0  0  0
  2  1  1  1
  2  3  1  0
  4  3  1  0
  4  8  1  0
  5  4  2  0
  6  2  1  0
  6  7  2  0
 10  9  1  6
 10 12  1  0
 10 11  1  0
 12 13  1  6
 13  6  1  0
 14 12  1  0
 15 14  2  0
 16 14  1  0
 17 21  1  0
 17 16  1  0
 17 18  1  1
 19 20  2  0
 19 18  1  0
 21 22  1  0
 23 19  1  0
 24 21  2  0
M  END
$$$$
