DVD.pdb
     RDKit          3D

 24 23  0  0  1  0  0  0  0  0999 V2000
   19.5740  -13.5187  -16.5911 N   0  0  0  0  0  0  0  0  0  0  0  0
   19.4727  -12.1287  -16.9036 C   0  0  1  0  0  0  0  0  0  0  0  0
   18.0336  -11.6826  -17.0838 C   0  0  0  0  0  0  0  0  0  0  0  0
   17.3503  -12.4414  -18.1454 C   0  0  0  0  0  0  0  0  0  0  0  0
   17.8670  -12.6816  -19.2693 O   0  0  0  0  0  0  0  0  0  0  0  0
   20.1354  -11.2537  -15.8953 C   0  0  0  0  0  0  0  0  0  0  0  0
   19.7889  -11.3819  -14.7035 O   0  0  0  0  0  0  0  0  0  0  0  0
   16.0828  -12.9179  -17.9106 O   0  0  0  0  0  0  0  0  0  0  0  0
   23.5294  -11.3643  -14.7901 C   0  0  0  0  0  0  0  0  0  0  0  0
   23.2521   -9.9372  -15.1511 C   0  0  1  0  0  0  0  0  0  0  0  0
   24.0031   -9.6659  -16.4441 C   0  0  0  0  0  0  0  0  0  0  0  0
   21.8312   -9.5128  -15.2138 C   0  0  2  0  0  0  0  0  0  0  0  0
   21.1228  -10.3037  -16.2398 N   0  0  0  0  0  0  0  0  0  0  0  0
   21.6436   -8.0841  -15.4797 C   0  0  0  0  0  0  0  0  0  0  0  0
   21.2733   -7.6392  -16.6113 O   0  0  0  0  0  0  0  0  0  0  0  0
   21.8545   -7.0973  -14.4913 N   0  0  0  0  0  0  0  0  0  0  0  0
   21.6549   -5.6697  -14.8371 C   0  0  1  0  0  0  0  0  0  0  0  0
   20.1550   -5.4550  -15.0787 C   0  0  0  0  0  0  0  0  0  0  0  0
   19.8017   -4.0559  -15.3444 C   0  0  0  0  0  0  0  0  0  0  0  0
   19.4133   -3.2161  -14.4983 O   0  0  0  0  0  0  0  0  0  0  0  0
   22.1232   -4.8864  -13.6774 C   0  0  0  0  0  0  0  0  0  0  0  0
   22.4170   -3.5209  -13.7081 O   0  0  0  0  0  0  0  0  0  0  0  0
   19.9112   -3.6230  -16.6745 O   0  0  0  0  0  0  0  0  0  0  0  0
   22.2926   -5.4256  -12.5470 O   0  0  0  0  0  0  0  0  0  0  0  0
  2  1  1  1
  2  3  1  0
  4  3  1  0
  4  8  1  0
  5  4  2  0
  6  2  1  0
  6  7  2  0
 10  9  1  6
 10 12  1  0
 10 11  1  0
 12 13  1  6
 13  6  1  0
 14 12  1  0
 15 14  2  0
 16 14  1  0
 17 21  1  0
 17 16  1  0
 17 18  1  1
 19 20  2  0
 19 18  1  0
 21 22  1  0
 23 19  1  0
 24 21  2  0
M  END
$$$$
