DVD.pdb
     RDKit          3D

 24 23  0  0  1  0  0  0  0  0999 V2000
   18.7827  -13.0453  -16.3070 N   0  0  0  0  0  0  0  0  0  0  0  0
   18.9987  -11.7334  -16.8286 C   0  0  1  0  0  0  0  0  0  0  0  0
   17.6988  -10.9900  -17.0733 C   0  0  0  0  0  0  0  0  0  0  0  0
   16.8130  -11.7185  -17.9976 C   0  0  0  0  0  0  0  0  0  0  0  0
   17.1903  -12.1634  -19.1145 O   0  0  0  0  0  0  0  0  0  0  0  0
   19.8857  -10.9012  -15.9670 C   0  0  0  0  0  0  0  0  0  0  0  0
   19.5951  -10.8112  -14.7568 O   0  0  0  0  0  0  0  0  0  0  0  0
   15.5045  -11.9307  -17.6349 O   0  0  0  0  0  0  0  0  0  0  0  0
   24.3954   -9.0262  -15.1912 C   0  0  0  0  0  0  0  0  0  0  0  0
   23.3197   -9.8722  -15.8004 C   0  0  1  0  0  0  0  0  0  0  0  0
   23.5797  -11.2971  -15.3406 C   0  0  0  0  0  0  0  0  0  0  0  0
   21.9137   -9.4480  -15.5850 C   0  0  2  0  0  0  0  0  0  0  0  0
   21.0210  -10.2254  -16.4674 N   0  0  0  0  0  0  0  0  0  0  0  0
   21.6816   -8.0159  -15.7910 C   0  0  0  0  0  0  0  0  0  0  0  0
   21.6102   -7.4913  -16.9465 O   0  0  0  0  0  0  0  0  0  0  0  0
   21.5125   -7.1154  -14.7160 N   0  0  0  0  0  0  0  0  0  0  0  0
   21.3032   -5.6759  -15.0015 C   0  0  1  0  0  0  0  0  0  0  0  0
   19.8326   -5.3524  -14.7069 C   0  0  0  0  0  0  0  0  0  0  0  0
   19.5098   -3.9278  -14.8458 C   0  0  0  0  0  0  0  0  0  0  0  0
   19.4133   -3.0955  -13.9132 O   0  0  0  0  0  0  0  0  0  0  0  0
   22.2016   -4.9326  -14.0970 C   0  0  0  0  0  0  0  0  0  0  0  0
   22.7201   -3.6623  -14.3607 O   0  0  0  0  0  0  0  0  0  0  0  0
   19.2895   -3.4588  -16.1496 O   0  0  0  0  0  0  0  0  0  0  0  0
   22.5684   -5.4204  -12.9903 O   0  0  0  0  0  0  0  0  0  0  0  0
  2  1  1  1
  2  3  1  0
  4  3  1  0
  4  8  1  0
  5  4  2  0
  6  2  1  0
  6  7  2  0
 10  9  1  1
 10 12  1  0
 10 11  1  0
 12 13  1  6
 13  6  1  0
 14 12  1  0
 15 14  2  0
 16 14  1  0
 17 21  1  0
 17 16  1  0
 17 18  1  1
 19 20  2  0
 19 18  1  0
 21 22  1  0
 23 19  1  0
 24 21  2  0
M  END
$$$$
