DVD.pdb
     RDKit          3D

 24 23  0  0  1  0  0  0  0  0999 V2000
   17.5524  -13.8610  -15.8682 N   0  0  0  0  0  0  0  0  0  0  0  0
   17.4166  -12.4398  -15.9094 C   0  0  1  0  0  0  0  0  0  0  0  0
   16.2741  -11.9453  -15.0418 C   0  0  0  0  0  0  0  0  0  0  0  0
   14.9820  -12.5220  -15.4510 C   0  0  0  0  0  0  0  0  0  0  0  0
   14.6595  -12.7193  -16.6530 O   0  0  0  0  0  0  0  0  0  0  0  0
   18.6670  -11.7225  -15.5304 C   0  0  0  0  0  0  0  0  0  0  0  0
   19.2176  -12.0493  -14.4594 O   0  0  0  0  0  0  0  0  0  0  0  0
   14.0717  -12.8672  -14.4810 O   0  0  0  0  0  0  0  0  0  0  0  0
   21.8009  -11.8817  -17.4563 C   0  0  0  0  0  0  0  0  0  0  0  0
   21.4865  -10.4437  -17.1782 C   0  0  1  0  0  0  0  0  0  0  0  0
   21.0022   -9.8471  -18.4892 C   0  0  0  0  0  0  0  0  0  0  0  0
   20.5746  -10.1515  -16.0441 C   0  0  2  0  0  0  0  0  0  0  0  0
   19.2361  -10.7056  -16.3293 N   0  0  0  0  0  0  0  0  0  0  0  0
   20.4573   -8.7271  -15.7211 C   0  0  0  0  0  0  0  0  0  0  0  0
   19.4894   -8.0090  -16.1251 O   0  0  0  0  0  0  0  0  0  0  0  0
   21.4111   -8.0508  -14.9286 N   0  0  0  0  0  0  0  0  0  0  0  0
   21.2449   -6.6000  -14.6735 C   0  0  1  0  0  0  0  0  0  0  0  0
   22.0693   -6.2493  -13.4280 C   0  0  0  0  0  0  0  0  0  0  0  0
   22.0559   -4.8182  -13.1039 C   0  0  0  0  0  0  0  0  0  0  0  0
   21.1454   -4.2039  -12.4993 O   0  0  0  0  0  0  0  0  0  0  0  0
   21.7616   -5.9012  -15.8662 C   0  0  0  0  0  0  0  0  0  0  0  0
   21.2396   -4.7101  -16.3767 O   0  0  0  0  0  0  0  0  0  0  0  0
   23.1716   -4.0721  -13.5123 O   0  0  0  0  0  0  0  0  0  0  0  0
   22.7425   -6.3570  -16.5198 O   0  0  0  0  0  0  0  0  0  0  0  0
  2  1  1  1
  2  3  1  0
  4  3  1  0
  4  8  1  0
  5  4  2  0
  6  2  1  0
  6  7  2  0
 10  9  1  6
 10 12  1  0
 10 11  1  0
 12 13  1  6
 13  6  1  0
 14 12  1  0
 15 14  2  0
 16 14  1  0
 17 21  1  0
 17 16  1  0
 17 18  1  1
 19 20  2  0
 19 18  1  0
 21 22  1  0
 23 19  1  0
 24 21  2  0
M  END
$$$$
