DVD.pdb
     RDKit          3D

 24 23  0  0  1  0  0  0  0  0999 V2000
   17.8309  -11.7417  -15.6798 N   0  0  0  0  0  0  0  0  0  0  0  0
   18.2022  -10.3878  -15.9423 C   0  0  1  0  0  0  0  0  0  0  0  0
   17.0259   -9.4360  -15.8293 C   0  0  0  0  0  0  0  0  0  0  0  0
   16.0957   -9.5728  -16.9631 C   0  0  0  0  0  0  0  0  0  0  0  0
   16.3986  -10.1447  -18.0443 O   0  0  0  0  0  0  0  0  0  0  0  0
   19.3094   -9.9060  -15.0682 C   0  0  0  0  0  0  0  0  0  0  0  0
   19.2496  -10.1867  -13.8539 O   0  0  0  0  0  0  0  0  0  0  0  0
   14.8282   -9.0537  -16.8488 O   0  0  0  0  0  0  0  0  0  0  0  0
   22.8473  -10.8313  -14.9464 C   0  0  0  0  0  0  0  0  0  0  0  0
   22.7635   -9.3410  -15.0726 C   0  0  1  0  0  0  0  0  0  0  0  0
   23.1747   -9.0053  -16.4965 C   0  0  0  0  0  0  0  0  0  0  0  0
   21.4881   -8.6933  -14.6766 C   0  0  2  0  0  0  0  0  0  0  0  0
   20.4012   -9.1572  -15.5617 N   0  0  0  0  0  0  0  0  0  0  0  0
   21.5331   -7.2287  -14.6811 C   0  0  0  0  0  0  0  0  0  0  0  0
   21.2473   -6.5363  -15.7080 O   0  0  0  0  0  0  0  0  0  0  0  0
   21.8911   -6.4800  -13.5381 N   0  0  0  0  0  0  0  0  0  0  0  0
   21.9624   -5.0023  -13.6318 C   0  0  1  0  0  0  0  0  0  0  0  0
   22.6962   -4.6536  -14.9333 C   0  0  0  0  0  0  0  0  0  0  0  0
   22.7462   -3.2128  -15.2064 C   0  0  0  0  0  0  0  0  0  0  0  0
   23.2398   -2.3339  -14.4607 O   0  0  0  0  0  0  0  0  0  0  0  0
   20.5697   -4.5149  -13.6607 C   0  0  0  0  0  0  0  0  0  0  0  0
   20.1886   -3.1878  -13.4480 O   0  0  0  0  0  0  0  0  0  0  0  0
   22.1865   -2.7845  -16.4195 O   0  0  0  0  0  0  0  0  0  0  0  0
   19.6050   -5.2992  -13.8873 O   0  0  0  0  0  0  0  0  0  0  0  0
  2  1  1  1
  2  3  1  0
  4  3  1  0
  4  8  1  0
  5  4  2  0
  6  2  1  0
  6  7  2  0
 10  9  1  6
 10 12  1  0
 10 11  1  0
 12 13  1  6
 13  6  1  0
 14 12  1  0
 15 14  2  0
 16 14  1  0
 17 21  1  0
 17 16  1  0
 17 18  1  6
 19 20  2  0
 19 18  1  0
 21 22  1  0
 23 19  1  0
 24 21  2  0
M  END
$$$$
