DVD.pdb
     RDKit          3D

 24 23  0  0  1  0  0  0  0  0999 V2000
   19.2526  -13.3542  -18.6970 N   0  0  0  0  0  0  0  0  0  0  0  0
   19.3707  -12.6564  -17.4565 C   0  0  1  0  0  0  0  0  0  0  0  0
   20.7081  -12.9018  -16.7830 C   0  0  0  0  0  0  0  0  0  0  0  0
   20.8753  -14.3107  -16.3873 C   0  0  0  0  0  0  0  0  0  0  0  0
   19.9663  -15.1760  -16.5003 O   0  0  0  0  0  0  0  0  0  0  0  0
   19.1497  -11.1882  -17.5890 C   0  0  0  0  0  0  0  0  0  0  0  0
   19.7400  -10.5974  -18.5161 O   0  0  0  0  0  0  0  0  0  0  0  0
   22.0808  -14.7156  -15.8660 O   0  0  0  0  0  0  0  0  0  0  0  0
   16.2548   -7.2736  -16.7540 C   0  0  0  0  0  0  0  0  0  0  0  0
   16.6764   -8.6945  -16.9710 C   0  0  1  0  0  0  0  0  0  0  0  0
   16.0925   -9.1179  -18.3086 C   0  0  0  0  0  0  0  0  0  0  0  0
   18.1237   -9.0023  -16.8542 C   0  0  2  0  0  0  0  0  0  0  0  0
   18.3105  -10.4604  -16.7161 N   0  0  0  0  0  0  0  0  0  0  0  0
   18.7953   -8.3148  -15.7482 C   0  0  0  0  0  0  0  0  0  0  0  0
   18.5181   -8.5424  -14.5288 O   0  0  0  0  0  0  0  0  0  0  0  0
   19.8075   -7.3525  -15.9598 N   0  0  0  0  0  0  0  0  0  0  0  0
   20.3832   -6.6373  -14.7959 C   0  0  1  0  0  0  0  0  0  0  0  0
   21.7761   -6.1368  -15.2001 C   0  0  0  0  0  0  0  0  0  0  0  0
   22.4413   -5.3542  -14.1521 C   0  0  0  0  0  0  0  0  0  0  0  0
   23.4697   -4.6510  -14.2925 O   0  0  0  0  0  0  0  0  0  0  0  0
   19.4775   -5.5089  -14.5054 C   0  0  0  0  0  0  0  0  0  0  0  0
   18.9652   -4.6343  -15.4669 O   0  0  0  0  0  0  0  0  0  0  0  0
   21.8662   -5.4019  -12.8733 O   0  0  0  0  0  0  0  0  0  0  0  0
   19.0992   -5.2586  -13.3258 O   0  0  0  0  0  0  0  0  0  0  0  0
  2  1  1  6
  2  3  1  0
  4  3  1  0
  4  8  1  0
  5  4  2  0
  6  2  1  0
  6  7  2  0
 10  9  1  6
 10 12  1  0
 10 11  1  0
 12 13  1  1
 13  6  1  0
 14 12  1  0
 15 14  2  0
 16 14  1  0
 17 21  1  0
 17 16  1  0
 17 18  1  6
 19 20  2  0
 19 18  1  0
 21 22  1  0
 23 19  1  0
 24 21  2  0
M  END
$$$$
