DVD.pdb
     RDKit          3D

 24 23  0  0  1  0  0  0  0  0999 V2000
   15.8271  -13.9069  -17.0064 N   0  0  0  0  0  0  0  0  0  0  0  0
   16.7537  -13.3092  -16.0986 C   0  0  1  0  0  0  0  0  0  0  0  0
   17.8267  -14.2826  -15.6472 C   0  0  0  0  0  0  0  0  0  0  0  0
   17.2717  -15.3723  -14.8261 C   0  0  0  0  0  0  0  0  0  0  0  0
   17.3857  -15.4237  -13.5722 O   0  0  0  0  0  0  0  0  0  0  0  0
   17.4016  -12.0842  -16.6476 C   0  0  0  0  0  0  0  0  0  0  0  0
   18.3675  -12.2403  -17.4220 O   0  0  0  0  0  0  0  0  0  0  0  0
   16.5920  -16.3924  -15.4476 O   0  0  0  0  0  0  0  0  0  0  0  0
   16.1494   -9.8427  -19.1023 C   0  0  0  0  0  0  0  0  0  0  0  0
   16.5416   -9.0105  -17.9201 C   0  0  1  0  0  0  0  0  0  0  0  0
   15.2494   -8.6044  -17.2312 C   0  0  0  0  0  0  0  0  0  0  0  0
   17.5359   -9.5858  -16.9802 C   0  0  2  0  0  0  0  0  0  0  0  0
   16.9653  -10.7797  -16.3253 N   0  0  0  0  0  0  0  0  0  0  0  0
   18.0102   -8.6464  -15.9606 C   0  0  0  0  0  0  0  0  0  0  0  0
   17.4594   -8.5350  -14.8205 O   0  0  0  0  0  0  0  0  0  0  0  0
   19.1219   -7.8008  -16.1708 N   0  0  0  0  0  0  0  0  0  0  0  0
   19.4865   -6.8097  -15.1304 C   0  0  1  0  0  0  0  0  0  0  0  0
   21.0149   -6.6752  -15.1315 C   0  0  0  0  0  0  0  0  0  0  0  0
   21.5124   -5.6702  -14.1851 C   0  0  0  0  0  0  0  0  0  0  0  0
   20.8186   -4.9953  -13.3881 O   0  0  0  0  0  0  0  0  0  0  0  0
   18.8416   -5.5393  -15.5151 C   0  0  0  0  0  0  0  0  0  0  0  0
   18.7134   -5.0799  -16.8283 O   0  0  0  0  0  0  0  0  0  0  0  0
   22.8976   -5.4482  -14.1765 O   0  0  0  0  0  0  0  0  0  0  0  0
   18.3502   -4.7639  -14.6466 O   0  0  0  0  0  0  0  0  0  0  0  0
  2  1  1  6
  2  3  1  0
  4  3  1  0
  4  8  1  0
  5  4  2  0
  6  2  1  0
  6  7  2  0
 10  9  1  6
 10 12  1  0
 10 11  1  0
 12 13  1  1
 13  6  1  0
 14 12  1  0
 15 14  2  0
 16 14  1  0
 17 21  1  0
 17 16  1  0
 17 18  1  6
 19 20  2  0
 19 18  1  0
 21 22  1  0
 23 19  1  0
 24 21  2  0
M  END
$$$$
