AMY.pdb
     RDKit          3D

 26 26  0  0  1  0  0  0  0  0999 V2000
   18.2230  -10.0063  -20.5774 C   0  0  0  0  0  0  0  0  0  0  0  0
   19.4925  -10.8416  -20.6132 C   0  0  2  0  0  0  0  0  0  0  0  0
   19.1716  -12.1948  -21.0124 N   0  0  0  0  0  0  0  0  0  0  0  0
   20.1559  -10.8876  -19.2859 C   0  0  0  0  0  0  0  0  0  0  0  0
   19.6649  -11.6091  -18.3889 O   0  0  0  0  0  0  0  0  0  0  0  0
   26.8490   -9.5740  -15.2404 C   0  0  0  0  0  0  0  0  0  0  0  0
   25.9862   -9.6192  -16.8103 S   0  0  0  0  0  0  0  0  0  0  0  0
   24.2069   -9.8833  -16.6337 C   0  0  0  0  0  0  0  0  0  0  0  0
   23.4769   -9.8737  -17.9555 C   0  0  0  0  0  0  0  0  0  0  0  0
   22.0245  -10.1440  -17.7722 C   0  0  2  0  0  0  0  0  0  0  0  0
   21.3355  -10.1172  -19.0404 N   0  0  0  0  0  0  0  0  0  0  0  0
   21.3695   -9.1142  -16.8944 C   0  0  0  0  0  0  0  0  0  0  0  0
   20.9494   -8.0219  -17.3574 O   0  0  0  0  0  0  0  0  0  0  0  0
   17.0402   -5.4627  -10.0684 O   0  0  0  0  0  0  0  0  0  0  0  0
   17.7494   -6.3414  -10.9116 C   0  0  0  0  0  0  0  0  0  0  0  0
   17.2626   -6.6149  -12.1741 C   0  0  0  0  0  0  0  0  0  0  0  0
   17.9509   -7.4802  -13.0177 C   0  0  0  0  0  0  0  0  0  0  0  0
   19.1299   -8.0871  -12.6255 C   0  0  0  0  0  0  0  0  0  0  0  0
   19.8461   -8.9943  -13.5241 C   0  0  0  0  0  0  0  0  0  0  0  0
   20.5475   -8.2970  -14.6619 C   0  0  2  0  0  0  0  0  0  0  0  0
   21.1860   -9.3145  -15.4900 N   0  0  0  0  0  0  0  0  0  0  0  0
   21.4454   -7.2211  -14.2572 C   0  0  0  0  0  0  0  0  0  0  0  0
   22.7729   -7.3908  -13.8686 O   0  0  0  0  0  0  0  0  0  0  0  0
   19.5898   -7.7940  -11.3606 C   0  0  0  0  0  0  0  0  0  0  0  0
   18.9117   -6.9357  -10.5173 C   0  0  0  0  0  0  0  0  0  0  0  0
   21.0202   -6.0454  -14.2470 O   0  0  0  0  0  0  0  0  0  0  0  0
  2  1  1  1
  2  3  1  0
  4  2  1  0
  5  4  2  0
  7  6  1  0
  7  8  1  0
  9  8  1  0
 10  9  1  6
 10 11  1  0
 11  4  1  0
 12 10  1  0
 12 21  1  0
 13 12  2  0
 15 14  1  0
 16 15  2  0
 17 16  1  0
 18 17  2  0
 18 24  1  0
 19 18  1  0
 20 22  1  0
 20 21  1  0
 20 19  1  1
 22 23  1  0
 24 25  2  0
 25 15  1  0
 26 22  2  0
M  END
$$$$
