AMY.pdb
     RDKit          3D

 26 26  0  0  1  0  0  0  0  0999 V2000
   19.8909  -13.9235  -18.8533 C   0  0  0  0  0  0  0  0  0  0  0  0
   20.9431  -14.6241  -18.0092 C   0  0  2  0  0  0  0  0  0  0  0  0
   20.3655  -15.7970  -17.3893 N   0  0  0  0  0  0  0  0  0  0  0  0
   21.4677  -13.7374  -16.9403 C   0  0  0  0  0  0  0  0  0  0  0  0
   20.7239  -13.4458  -15.9769 O   0  0  0  0  0  0  0  0  0  0  0  0
   27.8860  -13.0431  -16.1336 C   0  0  0  0  0  0  0  0  0  0  0  0
   26.9247  -14.2015  -15.1614 S   0  0  0  0  0  0  0  0  0  0  0  0
   25.1641  -13.7957  -15.1126 C   0  0  0  0  0  0  0  0  0  0  0  0
   24.8265  -12.5476  -15.8928 C   0  0  0  0  0  0  0  0  0  0  0  0
   23.3536  -12.3602  -16.0007 C   0  0  2  0  0  0  0  0  0  0  0  0
   22.8011  -13.2258  -17.0153 N   0  0  0  0  0  0  0  0  0  0  0  0
   22.9945  -10.9511  -16.3820 C   0  0  0  0  0  0  0  0  0  0  0  0
   23.1158  -10.5350  -17.5637 O   0  0  0  0  0  0  0  0  0  0  0  0
   18.7093   -3.9164  -18.5949 O   0  0  0  0  0  0  0  0  0  0  0  0
   19.3156   -5.1240  -18.1946 C   0  0  0  0  0  0  0  0  0  0  0  0
   18.5374   -6.1341  -17.6656 C   0  0  0  0  0  0  0  0  0  0  0  0
   19.1211   -7.3314  -17.2658 C   0  0  0  0  0  0  0  0  0  0  0  0
   20.4819   -7.5472  -17.3833 C   0  0  0  0  0  0  0  0  0  0  0  0
   21.0837   -8.8133  -16.9607 C   0  0  0  0  0  0  0  0  0  0  0  0
   22.0844   -8.6691  -15.8423 C   0  0  2  0  0  0  0  0  0  0  0  0
   22.4966  -10.0065  -15.4302 N   0  0  0  0  0  0  0  0  0  0  0  0
   21.6467   -7.8232  -14.7376 C   0  0  0  0  0  0  0  0  0  0  0  0
   21.0257   -8.2809  -13.5771 O   0  0  0  0  0  0  0  0  0  0  0  0
   21.2311   -6.5208  -17.9147 C   0  0  0  0  0  0  0  0  0  0  0  0
   20.6584   -5.3290  -18.3140 C   0  0  0  0  0  0  0  0  0  0  0  0
   21.8280   -6.5881  -14.8084 O   0  0  0  0  0  0  0  0  0  0  0  0
  2  1  1  1
  2  3  1  0
  4  2  1  0
  5  4  2  0
  7  6  1  0
  7  8  1  0
  9  8  1  0
 10  9  1  6
 10 11  1  0
 11  4  1  0
 12 10  1  0
 12 21  1  0
 13 12  2  0
 15 14  1  0
 16 15  2  0
 17 16  1  0
 18 17  2  0
 18 24  1  0
 19 18  1  0
 20 22  1  0
 20 21  1  0
 20 19  1  6
 22 23  1  0
 24 25  2  0
 25 15  1  0
 26 22  2  0
M  END
$$$$
