AMY.pdb
     RDKit          3D

 26 26  0  0  1  0  0  0  0  0999 V2000
   31.6046  -22.6045   -9.7177 C   0  0  0  0  0  0  0  0  0  0  0  0
   30.4927  -21.7041  -10.2310 C   0  0  2  0  0  0  0  0  0  0  0  0
   30.9289  -20.3251  -10.1936 N   0  0  0  0  0  0  0  0  0  0  0  0
   29.2622  -21.8306   -9.4102 C   0  0  0  0  0  0  0  0  0  0  0  0
   28.6945  -22.9438   -9.3386 O   0  0  0  0  0  0  0  0  0  0  0  0
   28.0479  -18.0814   -4.2689 C   0  0  0  0  0  0  0  0  0  0  0  0
   28.5200  -19.8022   -4.1035 S   0  0  0  0  0  0  0  0  0  0  0  0
   28.3101  -20.7446   -5.6313 C   0  0  0  0  0  0  0  0  0  0  0  0
   27.6078  -19.9606   -6.7141 C   0  0  0  0  0  0  0  0  0  0  0  0
   27.5015  -20.7515   -7.9708 C   0  0  2  0  0  0  0  0  0  0  0  0
   28.7368  -20.6962   -8.7157 N   0  0  0  0  0  0  0  0  0  0  0  0
   26.4202  -20.2263   -8.8736 C   0  0  0  0  0  0  0  0  0  0  0  0
   26.3138  -18.9993   -9.1329 O   0  0  0  0  0  0  0  0  0  0  0  0
   21.5305  -19.3754  -16.0544 O   0  0  0  0  0  0  0  0  0  0  0  0
   22.3633  -19.8128  -15.0050 C   0  0  0  0  0  0  0  0  0  0  0  0
   23.4247  -19.0261  -14.6048 C   0  0  0  0  0  0  0  0  0  0  0  0
   24.2556  -19.4443  -13.5710 C   0  0  0  0  0  0  0  0  0  0  0  0
   24.0492  -20.6457  -12.9183 C   0  0  0  0  0  0  0  0  0  0  0  0
   24.9300  -21.0734  -11.8297 C   0  0  0  0  0  0  0  0  0  0  0  0
   24.5088  -20.5715  -10.4720 C   0  0  2  0  0  0  0  0  0  0  0  0
   25.4549  -21.0852   -9.4873 N   0  0  0  0  0  0  0  0  0  0  0  0
   23.1130  -20.8261  -10.1337 C   0  0  0  0  0  0  0  0  0  0  0  0
   22.0294  -20.0810  -10.5950 O   0  0  0  0  0  0  0  0  0  0  0  0
   22.9823  -21.4079  -13.3403 C   0  0  0  0  0  0  0  0  0  0  0  0
   22.1528  -20.9991  -14.3662 C   0  0  0  0  0  0  0  0  0  0  0  0
   22.8355  -21.7786   -9.3727 O   0  0  0  0  0  0  0  0  0  0  0  0
  2  1  1  1
  2  3  1  0
  4  2  1  0
  5  4  2  0
  7  6  1  0
  7  8  1  0
  9  8  1  0
 10  9  1  1
 10 11  1  0
 11  4  1  0
 12 10  1  0
 12 21  1  0
 13 12  2  0
 15 14  1  0
 16 15  2  0
 17 16  1  0
 18 17  2  0
 18 24  1  0
 19 18  1  0
 20 22  1  0
 20 21  1  0
 20 19  1  6
 22 23  1  0
 24 25  2  0
 25 15  1  0
 26 22  2  0
M  END
$$$$
