AMY.pdb
     RDKit          3D

 26 26  0  0  1  0  0  0  0  0999 V2000
   27.3287  -19.4983  -16.5164 C   0  0  0  0  0  0  0  0  0  0  0  0
   27.9929  -20.5253  -15.6137 C   0  0  2  0  0  0  0  0  0  0  0  0
   28.5460  -21.5929  -16.4184 N   0  0  0  0  0  0  0  0  0  0  0  0
   27.0284  -21.1136  -14.6505 C   0  0  0  0  0  0  0  0  0  0  0  0
   26.4457  -22.1794  -14.9525 O   0  0  0  0  0  0  0  0  0  0  0  0
   27.3570  -20.2938   -7.8791 C   0  0  0  0  0  0  0  0  0  0  0  0
   25.6284  -20.3470   -8.3484 S   0  0  0  0  0  0  0  0  0  0  0  0
   25.3586  -21.0833   -9.9768 C   0  0  0  0  0  0  0  0  0  0  0  0
   26.2399  -20.4839  -11.0466 C   0  0  0  0  0  0  0  0  0  0  0  0
   25.9344  -21.0616  -12.3841 C   0  0  2  0  0  0  0  0  0  0  0  0
   26.7712  -20.4688  -13.4002 N   0  0  0  0  0  0  0  0  0  0  0  0
   24.5082  -20.8131  -12.7893 C   0  0  0  0  0  0  0  0  0  0  0  0
   24.0845  -19.6546  -13.0392 O   0  0  0  0  0  0  0  0  0  0  0  0
   15.9494  -22.3776  -14.7334 O   0  0  0  0  0  0  0  0  0  0  0  0
   17.3052  -22.5163  -14.3746 C   0  0  0  0  0  0  0  0  0  0  0  0
   18.2879  -22.2061  -15.2932 C   0  0  0  0  0  0  0  0  0  0  0  0
   19.6302  -22.3382  -14.9542 C   0  0  0  0  0  0  0  0  0  0  0  0
   20.0201  -22.7784  -13.7028 C   0  0  0  0  0  0  0  0  0  0  0  0
   21.4368  -22.9109  -13.3576 C   0  0  0  0  0  0  0  0  0  0  0  0
   22.1549  -21.5931  -13.2146 C   0  0  2  0  0  0  0  0  0  0  0  0
   23.5551  -21.8723  -12.9142 N   0  0  0  0  0  0  0  0  0  0  0  0
   21.5310  -20.6560  -12.2872 C   0  0  0  0  0  0  0  0  0  0  0  0
   21.6953  -20.6711  -10.9034 O   0  0  0  0  0  0  0  0  0  0  0  0
   19.0166  -23.0796  -12.8086 C   0  0  0  0  0  0  0  0  0  0  0  0
   17.6815  -22.9510  -13.1381 C   0  0  0  0  0  0  0  0  0  0  0  0
   20.7853  -19.7594  -12.7381 O   0  0  0  0  0  0  0  0  0  0  0  0
  2  1  1  6
  2  3  1  0
  4  2  1  0
  5  4  2  0
  7  6  1  0
  7  8  1  0
  9  8  1  0
 10  9  1  1
 10 11  1  0
 11  4  1  0
 12 10  1  0
 12 21  1  0
 13 12  2  0
 15 14  1  0
 16 15  2  0
 17 16  1  0
 18 17  2  0
 18 24  1  0
 19 18  1  0
 20 22  1  0
 20 21  1  0
 20 19  1  1
 22 23  1  0
 24 25  2  0
 25 15  1  0
 26 22  2  0
M  END
$$$$
