AMY.pdb
     RDKit          3D

 26 26  0  0  1  0  0  0  0  0999 V2000
   29.0805  -19.2479  -15.9522 C   0  0  0  0  0  0  0  0  0  0  0  0
   27.9219  -18.9232  -15.0233 C   0  0  2  0  0  0  0  0  0  0  0  0
   28.2825  -17.8135  -14.1677 N   0  0  0  0  0  0  0  0  0  0  0  0
   27.5656  -20.0817  -14.1659 C   0  0  0  0  0  0  0  0  0  0  0  0
   27.1519  -21.1310  -14.7083 O   0  0  0  0  0  0  0  0  0  0  0  0
   32.1649  -22.0358   -9.6474 C   0  0  0  0  0  0  0  0  0  0  0  0
   30.4956  -21.4467   -9.3693 S   0  0  0  0  0  0  0  0  0  0  0  0
   29.4726  -21.4865  -10.8588 C   0  0  0  0  0  0  0  0  0  0  0  0
   28.0480  -21.0544  -10.6056 C   0  0  0  0  0  0  0  0  0  0  0  0
   27.2530  -21.0512  -11.8641 C   0  0  2  0  0  0  0  0  0  0  0  0
   27.6932  -19.9950  -12.7442 N   0  0  0  0  0  0  0  0  0  0  0  0
   25.7902  -20.8239  -11.6022 C   0  0  0  0  0  0  0  0  0  0  0  0
   25.3900  -19.9031  -10.8431 O   0  0  0  0  0  0  0  0  0  0  0  0
   18.1165  -17.5458  -12.8242 O   0  0  0  0  0  0  0  0  0  0  0  0
   19.4159  -18.0893  -12.7777 C   0  0  0  0  0  0  0  0  0  0  0  0
   20.0287  -18.2858  -11.5565 C   0  0  0  0  0  0  0  0  0  0  0  0
   21.3108  -18.8209  -11.4943 C   0  0  0  0  0  0  0  0  0  0  0  0
   22.0052  -19.1693  -12.6382 C   0  0  0  0  0  0  0  0  0  0  0  0
   23.3538  -19.7340  -12.5589 C   0  0  0  0  0  0  0  0  0  0  0  0
   23.3806  -21.2021  -12.2171 C   0  0  2  0  0  0  0  0  0  0  0  0
   24.7736  -21.6355  -12.1970 N   0  0  0  0  0  0  0  0  0  0  0  0
   22.5179  -22.0370  -13.0454 C   0  0  0  0  0  0  0  0  0  0  0  0
   22.8433  -22.5111  -14.3149 O   0  0  0  0  0  0  0  0  0  0  0  0
   21.3671  -18.9615  -13.8411 C   0  0  0  0  0  0  0  0  0  0  0  0
   20.0940  -18.4306  -13.9106 C   0  0  0  0  0  0  0  0  0  0  0  0
   21.3935  -22.3690  -12.6110 O   0  0  0  0  0  0  0  0  0  0  0  0
  2  1  1  6
  2  3  1  0
  4  2  1  0
  5  4  2  0
  7  6  1  0
  7  8  1  0
  9  8  1  0
 10  9  1  1
 10 11  1  0
 11  4  1  0
 12 10  1  0
 12 21  1  0
 13 12  2  0
 15 14  1  0
 16 15  2  0
 17 16  1  0
 18 17  2  0
 18 24  1  0
 19 18  1  0
 20 22  1  0
 20 21  1  0
 20 19  1  6
 22 23  1  0
 24 25  2  0
 25 15  1  0
 26 22  2  0
M  END
$$$$
