AMY.pdb
     RDKit          3D

 26 26  0  0  1  0  0  0  0  0999 V2000
   22.8481  -14.4903  -19.1550 C   0  0  0  0  0  0  0  0  0  0  0  0
   22.7701  -12.9852  -19.3530 C   0  0  2  0  0  0  0  0  0  0  0  0
   23.8021  -12.5631  -20.2751 N   0  0  0  0  0  0  0  0  0  0  0  0
   22.9543  -12.2540  -18.0742 C   0  0  0  0  0  0  0  0  0  0  0  0
   22.1698  -12.4851  -17.1267 O   0  0  0  0  0  0  0  0  0  0  0  0
   28.6872  -12.8603  -14.8507 C   0  0  0  0  0  0  0  0  0  0  0  0
   27.9510  -11.3553  -15.4865 S   0  0  0  0  0  0  0  0  0  0  0  0
   26.2051  -11.5458  -15.9131 C   0  0  0  0  0  0  0  0  0  0  0  0
   25.5803  -10.2673  -16.4186 C   0  0  0  0  0  0  0  0  0  0  0  0
   24.1456  -10.4665  -16.7620 C   0  0  2  0  0  0  0  0  0  0  0  0
   24.0111  -11.3009  -17.9323 N   0  0  0  0  0  0  0  0  0  0  0  0
   23.4570   -9.1657  -17.0683 C   0  0  0  0  0  0  0  0  0  0  0  0
   23.8264   -8.4307  -18.0210 O   0  0  0  0  0  0  0  0  0  0  0  0
   17.4728   -2.9908  -18.5676 O   0  0  0  0  0  0  0  0  0  0  0  0
   18.1895   -4.1619  -18.2497 C   0  0  0  0  0  0  0  0  0  0  0  0
   19.4813   -4.3161  -18.7113 C   0  0  0  0  0  0  0  0  0  0  0  0
   20.2013   -5.4662  -18.4063 C   0  0  0  0  0  0  0  0  0  0  0  0
   19.6548   -6.4797  -17.6407 C   0  0  0  0  0  0  0  0  0  0  0  0
   20.4243   -7.6846  -17.3247 C   0  0  0  0  0  0  0  0  0  0  0  0
   21.7180   -7.4092  -16.6014 C   0  0  2  0  0  0  0  0  0  0  0  0
   22.3482   -8.6900  -16.3000 N   0  0  0  0  0  0  0  0  0  0  0  0
   21.5947   -6.5289  -15.4450 C   0  0  0  0  0  0  0  0  0  0  0  0
   21.7170   -5.1411  -15.4795 O   0  0  0  0  0  0  0  0  0  0  0  0
   18.3645   -6.2962  -17.1950 C   0  0  0  0  0  0  0  0  0  0  0  0
   17.6433   -5.1568  -17.4939 C   0  0  0  0  0  0  0  0  0  0  0  0
   21.3625   -7.0282  -14.3224 O   0  0  0  0  0  0  0  0  0  0  0  0
  2  1  1  1
  2  3  1  0
  4  2  1  0
  5  4  2  0
  7  6  1  0
  7  8  1  0
  9  8  1  0
 10  9  1  6
 10 11  1  0
 11  4  1  0
 12 10  1  0
 12 21  1  0
 13 12  2  0
 15 14  1  0
 16 15  2  0
 17 16  1  0
 18 17  2  0
 18 24  1  0
 19 18  1  0
 20 22  1  0
 20 21  1  0
 20 19  1  1
 22 23  1  0
 24 25  2  0
 25 15  1  0
 26 22  2  0
M  END
$$$$
