AMY.pdb
     RDKit          3D

 26 26  0  0  1  0  0  0  0  0999 V2000
   29.4225   -7.9560  -20.8770 C   0  0  0  0  0  0  0  0  0  0  0  0
   28.8752   -7.7659  -19.4717 C   0  0  2  0  0  0  0  0  0  0  0  0
   29.9081   -8.0666  -18.5042 N   0  0  0  0  0  0  0  0  0  0  0  0
   27.7140   -8.6534  -19.2111 C   0  0  0  0  0  0  0  0  0  0  0  0
   27.7378   -9.8253  -19.6497 O   0  0  0  0  0  0  0  0  0  0  0  0
   24.9454  -13.0547  -14.1608 C   0  0  0  0  0  0  0  0  0  0  0  0
   26.0914  -11.8899  -14.8964 S   0  0  0  0  0  0  0  0  0  0  0  0
   25.3227  -10.8302  -16.1425 C   0  0  0  0  0  0  0  0  0  0  0  0
   26.3083   -9.9075  -16.8188 C   0  0  0  0  0  0  0  0  0  0  0  0
   25.6395   -9.0616  -17.8450 C   0  0  2  0  0  0  0  0  0  0  0  0
   26.5882   -8.1723  -18.4719 N   0  0  0  0  0  0  0  0  0  0  0  0
   24.5608   -8.2024  -17.2466 C   0  0  0  0  0  0  0  0  0  0  0  0
   24.8321   -7.2183  -16.5103 O   0  0  0  0  0  0  0  0  0  0  0  0
   16.6423   -4.2936  -16.3166 O   0  0  0  0  0  0  0  0  0  0  0  0
   17.6695   -5.2038  -16.6368 C   0  0  0  0  0  0  0  0  0  0  0  0
   18.9778   -4.7659  -16.6817 C   0  0  0  0  0  0  0  0  0  0  0  0
   20.0025   -5.6520  -16.9964 C   0  0  0  0  0  0  0  0  0  0  0  0
   19.7484   -6.9832  -17.2711 C   0  0  0  0  0  0  0  0  0  0  0  0
   20.8365   -7.9064  -17.5989 C   0  0  0  0  0  0  0  0  0  0  0  0
   22.1479   -7.5612  -16.9400 C   0  0  2  0  0  0  0  0  0  0  0  0
   23.1712   -8.4512  -17.4777 N   0  0  0  0  0  0  0  0  0  0  0  0
   22.1074   -7.5260  -15.4824 C   0  0  0  0  0  0  0  0  0  0  0  0
   22.0838   -6.3659  -14.7107 O   0  0  0  0  0  0  0  0  0  0  0  0
   18.4334   -7.3895  -17.2181 C   0  0  0  0  0  0  0  0  0  0  0  0
   17.4105   -6.5153  -16.9062 C   0  0  0  0  0  0  0  0  0  0  0  0
   22.0927   -8.6034  -14.8480 O   0  0  0  0  0  0  0  0  0  0  0  0
  2  1  1  6
  2  3  1  0
  4  2  1  0
  5  4  2  0
  7  6  1  0
  7  8  1  0
  9  8  1  0
 10  9  1  1
 10 11  1  0
 11  4  1  0
 12 10  1  0
 12 21  1  0
 13 12  2  0
 15 14  1  0
 16 15  2  0
 17 16  1  0
 18 17  2  0
 18 24  1  0
 19 18  1  0
 20 22  1  0
 20 21  1  0
 20 19  1  6
 22 23  1  0
 24 25  2  0
 25 15  1  0
 26 22  2  0
M  END
$$$$
