AMY.pdb
     RDKit          3D

 26 26  0  0  1  0  0  0  0  0999 V2000
   22.0686  -23.2881  -17.7019 C   0  0  0  0  0  0  0  0  0  0  0  0
   22.4437  -21.9408  -17.1064 C   0  0  2  0  0  0  0  0  0  0  0  0
   23.8703  -21.7349  -17.2329 N   0  0  0  0  0  0  0  0  0  0  0  0
   22.0821  -21.8572  -15.6690 C   0  0  0  0  0  0  0  0  0  0  0  0
   22.9563  -22.1096  -14.8096 O   0  0  0  0  0  0  0  0  0  0  0  0
   20.4754  -15.7989  -13.2376 C   0  0  0  0  0  0  0  0  0  0  0  0
   19.4597  -17.2685  -13.3784 S   0  0  0  0  0  0  0  0  0  0  0  0
   20.4275  -18.7835  -13.5645 C   0  0  0  0  0  0  0  0  0  0  0  0
   19.5697  -20.0046  -13.7959 C   0  0  0  0  0  0  0  0  0  0  0  0
   20.4001  -21.2355  -13.9025 C   0  0  2  0  0  0  0  0  0  0  0  0
   20.7551  -21.4953  -15.2774 N   0  0  0  0  0  0  0  0  0  0  0  0
   19.6693  -22.4495  -13.4004 C   0  0  0  0  0  0  0  0  0  0  0  0
   18.8513  -23.0748  -14.1243 O   0  0  0  0  0  0  0  0  0  0  0  0
   17.0209  -29.0904   -8.0988 O   0  0  0  0  0  0  0  0  0  0  0  0
   17.7054  -28.0013   -8.6745 C   0  0  0  0  0  0  0  0  0  0  0  0
   18.5117  -28.2090   -9.7756 C   0  0  0  0  0  0  0  0  0  0  0  0
   19.1939  -27.1445  -10.3548 C   0  0  0  0  0  0  0  0  0  0  0  0
   19.0888  -25.8599   -9.8540 C   0  0  0  0  0  0  0  0  0  0  0  0
   19.8105  -24.7473  -10.4745 C   0  0  0  0  0  0  0  0  0  0  0  0
   19.0397  -24.0567  -11.5707 C   0  0  2  0  0  0  0  0  0  0  0  0
   19.8599  -22.9623  -12.0788 N   0  0  0  0  0  0  0  0  0  0  0  0
   17.6862  -23.6550  -11.2046 C   0  0  0  0  0  0  0  0  0  0  0  0
   17.3530  -22.4719  -10.5478 O   0  0  0  0  0  0  0  0  0  0  0  0
   18.2768  -25.6849   -8.7552 C   0  0  0  0  0  0  0  0  0  0  0  0
   17.5962  -26.7373   -8.1747 C   0  0  0  0  0  0  0  0  0  0  0  0
   16.7302  -24.4095  -11.4877 O   0  0  0  0  0  0  0  0  0  0  0  0
  2  1  1  1
  2  3  1  0
  4  2  1  0
  5  4  2  0
  7  6  1  0
  7  8  1  0
  9  8  1  0
 10  9  1  6
 10 11  1  0
 11  4  1  0
 12 10  1  0
 12 21  1  0
 13 12  2  0
 15 14  1  0
 16 15  2  0
 17 16  1  0
 18 17  2  0
 18 24  1  0
 19 18  1  0
 20 22  1  0
 20 21  1  0
 20 19  1  1
 22 23  1  0
 24 25  2  0
 25 15  1  0
 26 22  2  0
M  END
$$$$
