AMY.pdb
     RDKit          3D

 26 26  0  0  1  0  0  0  0  0999 V2000
   19.6528  -12.5939  -19.5851 C   0  0  0  0  0  0  0  0  0  0  0  0
   20.3814  -11.2724  -19.4024 C   0  0  2  0  0  0  0  0  0  0  0  0
   21.5915  -11.2719  -20.1955 N   0  0  0  0  0  0  0  0  0  0  0  0
   20.7493  -11.0412  -17.9828 C   0  0  0  0  0  0  0  0  0  0  0  0
   19.8432  -11.0129  -17.1199 O   0  0  0  0  0  0  0  0  0  0  0  0
   25.0095  -15.3310  -15.1919 C   0  0  0  0  0  0  0  0  0  0  0  0
   25.2071  -13.5648  -15.4210 S   0  0  0  0  0  0  0  0  0  0  0  0
   23.6430  -12.7095  -15.7187 C   0  0  0  0  0  0  0  0  0  0  0  0
   23.8170  -11.2259  -15.9404 C   0  0  0  0  0  0  0  0  0  0  0  0
   22.5175  -10.5709  -16.2542 C   0  0  2  0  0  0  0  0  0  0  0  0
   22.1176  -10.8527  -17.6123 N   0  0  0  0  0  0  0  0  0  0  0  0
   22.5973   -9.0756  -16.1209 C   0  0  0  0  0  0  0  0  0  0  0  0
   23.2220   -8.3701  -16.9552 O   0  0  0  0  0  0  0  0  0  0  0  0
   21.1204   -0.6767  -16.2882 O   0  0  0  0  0  0  0  0  0  0  0  0
   21.2315   -2.0816  -16.2765 C   0  0  0  0  0  0  0  0  0  0  0  0
   20.0882   -2.8550  -16.2633 C   0  0  0  0  0  0  0  0  0  0  0  0
   20.1815   -4.2426  -16.2513 C   0  0  0  0  0  0  0  0  0  0  0  0
   21.4060   -4.8850  -16.2523 C   0  0  0  0  0  0  0  0  0  0  0  0
   21.4905   -6.3467  -16.2419 C   0  0  0  0  0  0  0  0  0  0  0  0
   22.0382   -6.9163  -14.9580 C   0  0  2  0  0  0  0  0  0  0  0  0
   21.9712   -8.3712  -15.0448 N   0  0  0  0  0  0  0  0  0  0  0  0
   21.4386   -6.3724  -13.7447 C   0  0  0  0  0  0  0  0  0  0  0  0
   20.4619   -7.0083  -12.9807 O   0  0  0  0  0  0  0  0  0  0  0  0
   22.5279   -4.0860  -16.2658 C   0  0  0  0  0  0  0  0  0  0  0  0
   22.4430   -2.7075  -16.2778 C   0  0  0  0  0  0  0  0  0  0  0  0
   21.8080   -5.2508  -13.3336 O   0  0  0  0  0  0  0  0  0  0  0  0
  2  1  1  1
  2  3  1  0
  4  2  1  0
  5  4  2  0
  7  6  1  0
  7  8  1  0
  9  8  1  0
 10  9  1  6
 10 11  1  0
 11  4  1  0
 12 10  1  0
 12 21  1  0
 13 12  2  0
 15 14  1  0
 16 15  2  0
 17 16  1  0
 18 17  2  0
 18 24  1  0
 19 18  1  0
 20 22  1  0
 20 21  1  0
 20 19  1  6
 22 23  1  0
 24 25  2  0
 25 15  1  0
 26 22  2  0
M  END
$$$$
