AMY.pdb
     RDKit          3D

 26 26  0  0  1  0  0  0  0  0999 V2000
   22.4003  -13.8615  -20.4116 C   0  0  0  0  0  0  0  0  0  0  0  0
   21.9673  -13.7060  -18.9628 C   0  0  2  0  0  0  0  0  0  0  0  0
   21.5534  -14.9900  -18.4399 N   0  0  0  0  0  0  0  0  0  0  0  0
   20.8344  -12.7560  -18.8284 C   0  0  0  0  0  0  0  0  0  0  0  0
   19.8551  -12.8694  -19.5996 O   0  0  0  0  0  0  0  0  0  0  0  0
   16.5665  -12.5674  -14.2253 C   0  0  0  0  0  0  0  0  0  0  0  0
   16.1018  -11.8598  -15.8047 S   0  0  0  0  0  0  0  0  0  0  0  0
   17.4298  -10.9025  -16.5706 C   0  0  0  0  0  0  0  0  0  0  0  0
   18.6207  -11.7492  -16.9516 C   0  0  0  0  0  0  0  0  0  0  0  0
   19.7134  -10.9169  -17.5257 C   0  0  2  0  0  0  0  0  0  0  0  0
   20.8665  -11.7289  -17.8338 N   0  0  0  0  0  0  0  0  0  0  0  0
   20.1692   -9.8522  -16.5673 C   0  0  0  0  0  0  0  0  0  0  0  0
   20.6526  -10.1395  -15.4412 O   0  0  0  0  0  0  0  0  0  0  0  0
   21.9377   -1.4882  -13.9581 O   0  0  0  0  0  0  0  0  0  0  0  0
   21.8437   -2.7615  -14.5550 C   0  0  0  0  0  0  0  0  0  0  0  0
   21.1696   -2.9047  -15.7511 C   0  0  0  0  0  0  0  0  0  0  0  0
   21.0680   -4.1547  -16.3522 C   0  0  0  0  0  0  0  0  0  0  0  0
   21.6312   -5.2804  -15.7798 C   0  0  0  0  0  0  0  0  0  0  0  0
   21.5190   -6.5903  -16.4241 C   0  0  0  0  0  0  0  0  0  0  0  0
   20.4023   -7.4440  -15.8791 C   0  0  2  0  0  0  0  0  0  0  0  0
   20.0812   -8.4585  -16.8772 N   0  0  0  0  0  0  0  0  0  0  0  0
   19.2415   -6.6993  -15.4044 C   0  0  0  0  0  0  0  0  0  0  0  0
   19.0891   -6.1918  -14.1154 O   0  0  0  0  0  0  0  0  0  0  0  0
   22.2972   -5.1049  -14.5869 C   0  0  0  0  0  0  0  0  0  0  0  0
   22.4022   -3.8667  -13.9840 C   0  0  0  0  0  0  0  0  0  0  0  0
   18.2934   -6.4845  -16.1907 O   0  0  0  0  0  0  0  0  0  0  0  0
  2  1  1  6
  2  3  1  0
  4  2  1  0
  5  4  2  0
  7  6  1  0
  7  8  1  0
  9  8  1  0
 10  9  1  1
 10 11  1  0
 11  4  1  0
 12 10  1  0
 12 21  1  0
 13 12  2  0
 15 14  1  0
 16 15  2  0
 17 16  1  0
 18 17  2  0
 18 24  1  0
 19 18  1  0
 20 22  1  0
 20 21  1  0
 20 19  1  6
 22 23  1  0
 24 25  2  0
 25 15  1  0
 26 22  2  0
M  END
$$$$
