AMY.pdb
     RDKit          3D

 26 26  0  0  1  0  0  0  0  0999 V2000
   23.4240  -33.8800  -22.3428 C   0  0  0  0  0  0  0  0  0  0  0  0
   24.0840  -34.9564  -23.1891 C   0  0  2  0  0  0  0  0  0  0  0  0
   23.1395  -36.0234  -23.4396 N   0  0  0  0  0  0  0  0  0  0  0  0
   25.2747  -35.5311  -22.5140 C   0  0  0  0  0  0  0  0  0  0  0  0
   25.1085  -36.4121  -21.6406 O   0  0  0  0  0  0  0  0  0  0  0  0
   31.2646  -35.6084  -25.7049 C   0  0  0  0  0  0  0  0  0  0  0  0
   30.8569  -36.9955  -24.6463 S   0  0  0  0  0  0  0  0  0  0  0  0
   29.1886  -36.8954  -23.9581 C   0  0  0  0  0  0  0  0  0  0  0  0
   28.9121  -35.5769  -23.2758 C   0  0  0  0  0  0  0  0  0  0  0  0
   27.7790  -35.6922  -22.3173 C   0  0  2  0  0  0  0  0  0  0  0  0
   26.5879  -35.0814  -22.8579 N   0  0  0  0  0  0  0  0  0  0  0  0
   28.0744  -35.0020  -21.0149 C   0  0  0  0  0  0  0  0  0  0  0  0
   28.1092  -33.7471  -20.9250 O   0  0  0  0  0  0  0  0  0  0  0  0
   27.5818  -31.4988  -13.2516 O   0  0  0  0  0  0  0  0  0  0  0  0
   27.5447  -32.1358  -14.5082 C   0  0  0  0  0  0  0  0  0  0  0  0
   26.9179  -33.3594  -14.6332 C   0  0  0  0  0  0  0  0  0  0  0  0
   26.8734  -34.0006  -15.8665 C   0  0  0  0  0  0  0  0  0  0  0  0
   27.4475  -33.4415  -16.9933 C   0  0  0  0  0  0  0  0  0  0  0  0
   27.3916  -34.1258  -18.2865 C   0  0  0  0  0  0  0  0  0  0  0  0
   28.5688  -35.0304  -18.5487 C   0  0  2  0  0  0  0  0  0  0  0  0
   28.3314  -35.7266  -19.8086 N   0  0  0  0  0  0  0  0  0  0  0  0
   28.9142  -35.9177  -17.4437 C   0  0  0  0  0  0  0  0  0  0  0  0
   28.9660  -37.3082  -17.5206 O   0  0  0  0  0  0  0  0  0  0  0  0
   28.0650  -32.2203  -16.8364 C   0  0  0  0  0  0  0  0  0  0  0  0
   28.1132  -31.5776  -15.6148 C   0  0  0  0  0  0  0  0  0  0  0  0
   29.1889  -35.4225  -16.3290 O   0  0  0  0  0  0  0  0  0  0  0  0
  2  1  1  1
  2  3  1  0
  4  2  1  0
  5  4  2  0
  7  6  1  0
  7  8  1  0
  9  8  1  0
 10  9  1  6
 10 11  1  0
 11  4  1  0
 12 10  1  0
 12 21  1  0
 13 12  2  0
 15 14  1  0
 16 15  2  0
 17 16  1  0
 18 17  2  0
 18 24  1  0
 19 18  1  0
 20 22  1  0
 20 21  1  0
 20 19  1  1
 22 23  1  0
 24 25  2  0
 25 15  1  0
 26 22  2  0
M  END
$$$$
