AMY.pdb
     RDKit          3D

 26 26  0  0  1  0  0  0  0  0999 V2000
   26.8553  -19.5086  -16.1342 C   0  0  0  0  0  0  0  0  0  0  0  0
   27.2675  -20.3226  -14.9184 C   0  0  2  0  0  0  0  0  0  0  0  0
   27.0055  -21.7246  -15.1619 N   0  0  0  0  0  0  0  0  0  0  0  0
   26.5216  -19.9088  -13.7033 C   0  0  0  0  0  0  0  0  0  0  0  0
   26.5091  -18.6987  -13.3840 O   0  0  0  0  0  0  0  0  0  0  0  0
   20.0573  -20.7915  -14.0136 C   0  0  0  0  0  0  0  0  0  0  0  0
   21.1923  -21.4939  -12.8179 S   0  0  0  0  0  0  0  0  0  0  0  0
   22.7843  -20.6397  -12.7654 C   0  0  0  0  0  0  0  0  0  0  0  0
   23.7410  -21.2402  -11.7631 C   0  0  0  0  0  0  0  0  0  0  0  0
   25.0427  -20.5180  -11.7596 C   0  0  2  0  0  0  0  0  0  0  0  0
   25.8317  -20.8806  -12.9128 N   0  0  0  0  0  0  0  0  0  0  0  0
   25.8635  -20.8483  -10.5442 C   0  0  0  0  0  0  0  0  0  0  0  0
   26.4339  -21.9628  -10.4148 O   0  0  0  0  0  0  0  0  0  0  0  0
   29.7042  -19.9187   -2.5455 O   0  0  0  0  0  0  0  0  0  0  0  0
   29.1899  -19.7620   -3.8482 C   0  0  0  0  0  0  0  0  0  0  0  0
   28.3449  -18.7059   -4.1244 C   0  0  0  0  0  0  0  0  0  0  0  0
   27.8290  -18.5382   -5.4049 C   0  0  0  0  0  0  0  0  0  0  0  0
   28.1410  -19.4117   -6.4304 C   0  0  0  0  0  0  0  0  0  0  0  0
   27.5930  -19.2226   -7.7749 C   0  0  0  0  0  0  0  0  0  0  0  0
   26.6729  -20.3311   -8.2194 C   0  0  2  0  0  0  0  0  0  0  0  0
   26.0434  -19.9210   -9.4700 N   0  0  0  0  0  0  0  0  0  0  0  0
   25.7258  -20.7810   -7.2054 C   0  0  0  0  0  0  0  0  0  0  0  0
   26.0354  -21.6240   -6.1397 O   0  0  0  0  0  0  0  0  0  0  0  0
   28.9864  -20.4550   -6.1236 C   0  0  0  0  0  0  0  0  0  0  0  0
   29.5027  -20.6279   -4.8542 C   0  0  0  0  0  0  0  0  0  0  0  0
   24.5372  -20.3987   -7.2708 O   0  0  0  0  0  0  0  0  0  0  0  0
  2  1  1  6
  2  3  1  0
  4  2  1  0
  5  4  2  0
  7  6  1  0
  7  8  1  0
  9  8  1  0
 10  9  1  1
 10 11  1  0
 11  4  1  0
 12 10  1  0
 12 21  1  0
 13 12  2  0
 15 14  1  0
 16 15  2  0
 17 16  1  0
 18 17  2  0
 18 24  1  0
 19 18  1  0
 20 22  1  0
 20 21  1  0
 20 19  1  1
 22 23  1  0
 24 25  2  0
 25 15  1  0
 26 22  2  0
M  END
$$$$
