AMY.pdb
     RDKit          3D

 26 26  0  0  1  0  0  0  0  0999 V2000
   20.4719   -8.2228  -23.0048 C   0  0  0  0  0  0  0  0  0  0  0  0
   19.5412   -7.2808  -22.2584 C   0  0  2  0  0  0  0  0  0  0  0  0
   19.8340   -5.9137  -22.6308 N   0  0  0  0  0  0  0  0  0  0  0  0
   19.6943   -7.4107  -20.7875 C   0  0  0  0  0  0  0  0  0  0  0  0
   20.4318   -6.6006  -20.1822 O   0  0  0  0  0  0  0  0  0  0  0  0
   16.9197   -5.8276  -14.2626 C   0  0  0  0  0  0  0  0  0  0  0  0
   17.2514   -5.7492  -16.0218 S   0  0  0  0  0  0  0  0  0  0  0  0
   18.0803   -7.2260  -16.6532 C   0  0  0  0  0  0  0  0  0  0  0  0
   18.2815   -7.1932  -18.1494 C   0  0  0  0  0  0  0  0  0  0  0  0
   18.9016   -8.4550  -18.6387 C   0  0  2  0  0  0  0  0  0  0  0  0
   19.0097   -8.4468  -20.0782 N   0  0  0  0  0  0  0  0  0  0  0  0
   18.0856   -9.6614  -18.2662 C   0  0  0  0  0  0  0  0  0  0  0  0
   16.8839   -9.7815  -18.6205 O   0  0  0  0  0  0  0  0  0  0  0  0
   15.8174  -17.8177  -15.6472 O   0  0  0  0  0  0  0  0  0  0  0  0
   16.5252  -16.6535  -16.0076 C   0  0  0  0  0  0  0  0  0  0  0  0
   16.1621  -15.9604  -17.1449 C   0  0  0  0  0  0  0  0  0  0  0  0
   16.8511  -14.8101  -17.5138 C   0  0  0  0  0  0  0  0  0  0  0  0
   17.9083  -14.3285  -16.7639 C   0  0  0  0  0  0  0  0  0  0  0  0
   18.6240  -13.1148  -17.1620 C   0  0  0  0  0  0  0  0  0  0  0  0
   17.7892  -11.8619  -17.0841 C   0  0  2  0  0  0  0  0  0  0  0  0
   18.6240  -10.7371  -17.4922 N   0  0  0  0  0  0  0  0  0  0  0  0
   17.1125  -11.6582  -15.8082 C   0  0  0  0  0  0  0  0  0  0  0  0
   15.8787  -12.2052  -15.4609 O   0  0  0  0  0  0  0  0  0  0  0  0
   18.2463  -15.0418  -15.6350 C   0  0  0  0  0  0  0  0  0  0  0  0
   17.5667  -16.1850  -15.2624 C   0  0  0  0  0  0  0  0  0  0  0  0
   17.6556  -10.9420  -14.9391 O   0  0  0  0  0  0  0  0  0  0  0  0
  2  1  1  6
  2  3  1  0
  4  2  1  0
  5  4  2  0
  7  6  1  0
  7  8  1  0
  9  8  1  0
 10  9  1  6
 10 11  1  0
 11  4  1  0
 12 10  1  0
 12 21  1  0
 13 12  2  0
 15 14  1  0
 16 15  2  0
 17 16  1  0
 18 17  2  0
 18 24  1  0
 19 18  1  0
 20 22  1  0
 20 21  1  0
 20 19  1  1
 22 23  1  0
 24 25  2  0
 25 15  1  0
 26 22  2  0
M  END
$$$$
