AMY.pdb
     RDKit          3D

 26 26  0  0  1  0  0  0  0  0999 V2000
   24.4322   -7.7683  -23.0487 C   0  0  0  0  0  0  0  0  0  0  0  0
   25.0963   -8.8857  -22.2607 C   0  0  2  0  0  0  0  0  0  0  0  0
   24.8168  -10.1571  -22.8924 N   0  0  0  0  0  0  0  0  0  0  0  0
   24.6034   -8.9373  -20.8614 C   0  0  0  0  0  0  0  0  0  0  0  0
   23.3759   -9.0717  -20.6569 O   0  0  0  0  0  0  0  0  0  0  0  0
   26.6016  -10.9863  -13.4991 C   0  0  0  0  0  0  0  0  0  0  0  0
   27.1166  -10.6246  -15.1769 S   0  0  0  0  0  0  0  0  0  0  0  0
   25.8086   -9.8743  -16.1734 C   0  0  0  0  0  0  0  0  0  0  0  0
   26.1972   -9.7052  -17.6228 C   0  0  0  0  0  0  0  0  0  0  0  0
   25.1134   -9.0422  -18.3986 C   0  0  2  0  0  0  0  0  0  0  0  0
   25.5194   -8.8331  -19.7681 N   0  0  0  0  0  0  0  0  0  0  0  0
   24.7640   -7.6939  -17.8331 C   0  0  0  0  0  0  0  0  0  0  0  0
   25.5299   -6.7037  -17.9638 O   0  0  0  0  0  0  0  0  0  0  0  0
   20.6502   -0.2783  -15.8881 O   0  0  0  0  0  0  0  0  0  0  0  0
   21.1151   -1.5362  -16.3212 C   0  0  0  0  0  0  0  0  0  0  0  0
   20.2689   -2.6261  -16.2801 C   0  0  0  0  0  0  0  0  0  0  0  0
   20.7131   -3.8740  -16.7037 C   0  0  0  0  0  0  0  0  0  0  0  0
   21.9998   -4.0622  -17.1739 C   0  0  0  0  0  0  0  0  0  0  0  0
   22.4545   -5.3808  -17.6191 C   0  0  0  0  0  0  0  0  0  0  0  0
   23.2360   -6.1399  -16.5770 C   0  0  2  0  0  0  0  0  0  0  0  0
   23.5477   -7.4584  -17.1181 N   0  0  0  0  0  0  0  0  0  0  0  0
   22.6157   -6.1784  -15.2575 C   0  0  0  0  0  0  0  0  0  0  0  0
   22.7737   -5.2070  -14.2708 O   0  0  0  0  0  0  0  0  0  0  0  0
   22.8198   -2.9558  -17.2028 C   0  0  0  0  0  0  0  0  0  0  0  0
   22.3856   -1.7134  -16.7838 C   0  0  0  0  0  0  0  0  0  0  0  0
   21.8808   -7.1448  -14.9587 O   0  0  0  0  0  0  0  0  0  0  0  0
  2  1  1  6
  2  3  1  0
  4  2  1  0
  5  4  2  0
  7  6  1  0
  7  8  1  0
  9  8  1  0
 10  9  1  1
 10 11  1  0
 11  4  1  0
 12 10  1  0
 12 21  1  0
 13 12  2  0
 15 14  1  0
 16 15  2  0
 17 16  1  0
 18 17  2  0
 18 24  1  0
 19 18  1  0
 20 22  1  0
 20 21  1  0
 20 19  1  6
 22 23  1  0
 24 25  2  0
 25 15  1  0
 26 22  2  0
M  END
$$$$
