AMY.pdb
     RDKit          3D

 26 26  0  0  1  0  0  0  0  0999 V2000
   27.9429  -19.1406  -16.0062 C   0  0  0  0  0  0  0  0  0  0  0  0
   28.6577  -20.3158  -15.3593 C   0  0  2  0  0  0  0  0  0  0  0  0
   28.9032  -21.3400  -16.3514 N   0  0  0  0  0  0  0  0  0  0  0  0
   27.8543  -20.9084  -14.2604 C   0  0  0  0  0  0  0  0  0  0  0  0
   27.0448  -21.8244  -14.5289 O   0  0  0  0  0  0  0  0  0  0  0  0
   29.3517  -20.7404   -7.5668 C   0  0  0  0  0  0  0  0  0  0  0  0
   27.5838  -20.5163   -7.7551 S   0  0  0  0  0  0  0  0  0  0  0  0
   26.9682  -21.0594   -9.3653 C   0  0  0  0  0  0  0  0  0  0  0  0
   27.7814  -20.5206  -10.5180 C   0  0  0  0  0  0  0  0  0  0  0  0
   27.2166  -20.9528  -11.8258 C   0  0  2  0  0  0  0  0  0  0  0  0
   28.0051  -20.4361  -12.9190 N   0  0  0  0  0  0  0  0  0  0  0  0
   25.8124  -20.4534  -12.0222 C   0  0  0  0  0  0  0  0  0  0  0  0
   25.5605  -19.2285  -12.1652 O   0  0  0  0  0  0  0  0  0  0  0  0
   17.2783  -19.9105  -14.1876 O   0  0  0  0  0  0  0  0  0  0  0  0
   18.5976  -20.3420  -13.9440 C   0  0  0  0  0  0  0  0  0  0  0  0
   19.6420  -19.7649  -14.6382 C   0  0  0  0  0  0  0  0  0  0  0  0
   20.9493  -20.1802  -14.4090 C   0  0  0  0  0  0  0  0  0  0  0  0
   21.2428  -21.1714  -13.4907 C   0  0  0  0  0  0  0  0  0  0  0  0
   22.6238  -21.5979  -13.2571 C   0  0  0  0  0  0  0  0  0  0  0  0
   23.3282  -20.8174  -12.1766 C   0  0  2  0  0  0  0  0  0  0  0  0
   24.6870  -21.3355  -12.0583 N   0  0  0  0  0  0  0  0  0  0  0  0
   22.6127  -20.7509  -10.9073 C   0  0  0  0  0  0  0  0  0  0  0  0
   22.8118  -21.6131   -9.8307 O   0  0  0  0  0  0  0  0  0  0  0  0
   20.1796  -21.7274  -12.8141 C   0  0  0  0  0  0  0  0  0  0  0  0
   18.8787  -21.3201  -13.0363 C   0  0  0  0  0  0  0  0  0  0  0  0
   21.7475  -19.8635  -10.7425 O   0  0  0  0  0  0  0  0  0  0  0  0
  2  1  1  6
  2  3  1  0
  4  2  1  0
  5  4  2  0
  7  6  1  0
  7  8  1  0
  9  8  1  0
 10  9  1  1
 10 11  1  0
 11  4  1  0
 12 10  1  0
 12 21  1  0
 13 12  2  0
 15 14  1  0
 16 15  2  0
 17 16  1  0
 18 17  2  0
 18 24  1  0
 19 18  1  0
 20 22  1  0
 20 21  1  0
 20 19  1  6
 22 23  1  0
 24 25  2  0
 25 15  1  0
 26 22  2  0
M  END
$$$$
