DND.pdb
     RDKit          3D

 25 24  0  0  1  0  0  0  0  0999 V2000
   14.7438  -11.4590   -9.7401 N   0  0  0  0  0  0  0  0  0  0  0  0
   14.3995  -10.9022  -11.0268 C   0  0  1  0  0  0  0  0  0  0  0  0
   12.9373  -11.0681  -11.2988 C   0  0  0  0  0  0  0  0  0  0  0  0
   12.3122  -11.7708  -10.1704 C   0  0  0  0  0  0  0  0  0  0  0  0
   12.8514  -12.7864   -9.6615 O   0  0  0  0  0  0  0  0  0  0  0  0
   14.8360   -9.4807  -11.1495 C   0  0  0  0  0  0  0  0  0  0  0  0
   14.6799   -8.8280  -12.2006 O   0  0  0  0  0  0  0  0  0  0  0  0
   11.1062  -11.3687   -9.6002 O   0  0  0  0  0  0  0  0  0  0  0  0
   16.6710   -4.7406   -9.5613 N   0  0  0  0  0  0  0  0  0  0  0  0
   15.9223   -5.4455   -8.5768 C   0  0  0  0  0  0  0  0  0  0  0  0
   15.5959   -4.8041   -7.5621 O   0  0  0  0  0  0  0  0  0  0  0  0
   15.5493   -6.8551   -8.7393 C   0  0  0  0  0  0  0  0  0  0  0  0
   15.9191   -7.4834  -10.0286 C   0  0  2  0  0  0  0  0  0  0  0  0
   15.4463   -8.8543  -10.0372 N   0  0  0  0  0  0  0  0  0  0  0  0
   17.3417   -7.3703  -10.3536 C   0  0  0  0  0  0  0  0  0  0  0  0
   18.2193   -8.1305   -9.8952 O   0  0  0  0  0  0  0  0  0  0  0  0
   17.8483   -6.3540  -11.2444 N   0  0  0  0  0  0  0  0  0  0  0  0
   19.0982   -6.4715  -11.9333 C   0  0  1  0  0  0  0  0  0  0  0  0
   19.2485   -7.7691  -12.6856 C   0  0  0  0  0  0  0  0  0  0  0  0
   20.4898   -7.8848  -13.4363 C   0  0  0  0  0  0  0  0  0  0  0  0
   21.1906   -6.8799  -13.6754 O   0  0  0  0  0  0  0  0  0  0  0  0
   19.3004   -5.2910  -12.8042 C   0  0  0  0  0  0  0  0  0  0  0  0
   20.3985   -5.1546  -13.3934 O   0  0  0  0  0  0  0  0  0  0  0  0
   20.9171   -9.1124  -13.8997 O   0  0  0  0  0  0  0  0  0  0  0  0
   18.3430   -4.3103  -13.0162 O   0  0  0  0  0  0  0  0  0  0  0  0
  2  3  1  0
  2  1  1  1
  3  4  1  0
  4  8  1  0
  4  5  2  0
  6  7  2  0
  6  2  1  0
  9 10  1  0
 10 11  2  0
 10 12  1  0
 13 12  1  1
 13 15  1  0
 13 14  1  0
 14  6  1  0
 15 17  1  0
 16 15  2  0
 17 18  1  0
 18 22  1  0
 18 19  1  6
 20 19  1  0
 21 20  2  0
 22 23  2  0
 22 25  1  0
 24 20  1  0
M  END
$$$$
