DND.pdb
     RDKit          3D

 25 24  0  0  1  0  0  0  0  0999 V2000
   15.4425  -10.8853  -10.1561 N   0  0  0  0  0  0  0  0  0  0  0  0
   15.1356  -10.2160  -11.3978 C   0  0  1  0  0  0  0  0  0  0  0  0
   13.6928  -10.3969  -11.7515 C   0  0  0  0  0  0  0  0  0  0  0  0
   13.4078  -11.8301  -11.9018 C   0  0  0  0  0  0  0  0  0  0  0  0
   12.4037  -12.3515  -11.3531 O   0  0  0  0  0  0  0  0  0  0  0  0
   15.5294   -8.7773  -11.3633 C   0  0  0  0  0  0  0  0  0  0  0  0
   15.3665   -8.0221  -12.3423 O   0  0  0  0  0  0  0  0  0  0  0  0
   14.2129  -12.6899  -12.6460 O   0  0  0  0  0  0  0  0  0  0  0  0
   13.8124   -6.0315   -9.5123 N   0  0  0  0  0  0  0  0  0  0  0  0
   14.7590   -6.0391   -8.4489 C   0  0  0  0  0  0  0  0  0  0  0  0
   14.3385   -5.7009   -7.3280 O   0  0  0  0  0  0  0  0  0  0  0  0
   16.1600   -6.4240   -8.6522 C   0  0  0  0  0  0  0  0  0  0  0  0
   16.5215   -6.8749  -10.0160 C   0  0  2  0  0  0  0  0  0  0  0  0
   16.1057   -8.2543  -10.1817 N   0  0  0  0  0  0  0  0  0  0  0  0
   17.9291   -6.6604  -10.3548 C   0  0  0  0  0  0  0  0  0  0  0  0
   18.8746   -7.2478   -9.7897 O   0  0  0  0  0  0  0  0  0  0  0  0
   18.3397   -5.7377  -11.3859 N   0  0  0  0  0  0  0  0  0  0  0  0
   19.6523   -5.7396  -11.9583 C   0  0  1  0  0  0  0  0  0  0  0  0
   20.0884   -7.0949  -12.4539 C   0  0  0  0  0  0  0  0  0  0  0  0
   21.3834   -7.1005  -13.1179 C   0  0  0  0  0  0  0  0  0  0  0  0
   22.2858   -6.3115  -12.7698 O   0  0  0  0  0  0  0  0  0  0  0  0
   19.7385   -4.7023  -13.0115 C   0  0  0  0  0  0  0  0  0  0  0  0
   18.6950   -4.3728  -13.6234 O   0  0  0  0  0  0  0  0  0  0  0  0
   21.6389   -7.9817  -14.1487 O   0  0  0  0  0  0  0  0  0  0  0  0
   20.9131   -4.0598  -13.3733 O   0  0  0  0  0  0  0  0  0  0  0  0
  2  3  1  0
  2  1  1  1
  3  4  1  0
  4  8  1  0
  4  5  2  0
  6  7  2  0
  6  2  1  0
  9 10  1  0
 10 11  2  0
 10 12  1  0
 13 12  1  1
 13 15  1  0
 13 14  1  0
 14  6  1  0
 15 17  1  0
 16 15  2  0
 17 18  1  0
 18 22  1  0
 18 19  1  6
 20 19  1  0
 21 20  2  0
 22 23  2  0
 22 25  1  0
 24 20  1  0
M  END
$$$$
