DND.pdb
     RDKit          3D

 25 24  0  0  1  0  0  0  0  0999 V2000
   16.3514  -11.1017  -10.3513 N   0  0  0  0  0  0  0  0  0  0  0  0
   15.3561  -10.6395  -11.2894 C   0  0  1  0  0  0  0  0  0  0  0  0
   14.1645  -11.5449  -11.2825 C   0  0  0  0  0  0  0  0  0  0  0  0
   14.5633  -12.8728  -11.7675 C   0  0  0  0  0  0  0  0  0  0  0  0
   15.7406  -13.2893  -11.6198 O   0  0  0  0  0  0  0  0  0  0  0  0
   14.9819   -9.2164  -11.0430 C   0  0  0  0  0  0  0  0  0  0  0  0
   14.2110   -8.5934  -11.8000 O   0  0  0  0  0  0  0  0  0  0  0  0
   13.6837  -13.7418  -12.4097 O   0  0  0  0  0  0  0  0  0  0  0  0
   14.7981   -4.5301   -8.5244 N   0  0  0  0  0  0  0  0  0  0  0  0
   14.8081   -5.6589   -7.6569 C   0  0  0  0  0  0  0  0  0  0  0  0
   14.6075   -5.4342   -6.4500 O   0  0  0  0  0  0  0  0  0  0  0  0
   15.0418   -7.0211   -8.1492 C   0  0  0  0  0  0  0  0  0  0  0  0
   15.2929   -7.1554   -9.6028 C   0  0  2  0  0  0  0  0  0  0  0  0
   15.5192   -8.5536   -9.9144 N   0  0  0  0  0  0  0  0  0  0  0  0
   16.3566   -6.2822  -10.1011 C   0  0  0  0  0  0  0  0  0  0  0  0
   17.5730   -6.5100   -9.9377 O   0  0  0  0  0  0  0  0  0  0  0  0
   16.0765   -5.0698  -10.8323 N   0  0  0  0  0  0  0  0  0  0  0  0
   16.9683   -4.5240  -11.8107 C   0  0  1  0  0  0  0  0  0  0  0  0
   17.4396   -5.5363  -12.8234 C   0  0  0  0  0  0  0  0  0  0  0  0
   18.2262   -4.9730  -13.9105 C   0  0  0  0  0  0  0  0  0  0  0  0
   18.9859   -4.0019  -13.7160 O   0  0  0  0  0  0  0  0  0  0  0  0
   16.3461   -3.3406  -12.4474 C   0  0  0  0  0  0  0  0  0  0  0  0
   15.1339   -3.3906  -12.7632 O   0  0  0  0  0  0  0  0  0  0  0  0
   18.1466   -5.5039  -15.1818 O   0  0  0  0  0  0  0  0  0  0  0  0
   17.0232   -2.1620  -12.7227 O   0  0  0  0  0  0  0  0  0  0  0  0
  2  3  1  0
  2  1  1  1
  3  4  1  0
  4  8  1  0
  4  5  2  0
  6  7  2  0
  6  2  1  0
  9 10  1  0
 10 11  2  0
 10 12  1  0
 13 12  1  1
 13 15  1  0
 13 14  1  0
 14  6  1  0
 15 17  1  0
 16 15  2  0
 17 18  1  0
 18 22  1  0
 18 19  1  6
 20 19  1  0
 21 20  2  0
 22 23  2  0
 22 25  1  0
 24 20  1  0
M  END
$$$$
