DND.pdb
     RDKit          3D

 25 24  0  0  1  0  0  0  0  0999 V2000
   15.0279  -10.7170  -14.0577 N   0  0  0  0  0  0  0  0  0  0  0  0
   16.4139  -10.5451  -13.6921 C   0  0  1  0  0  0  0  0  0  0  0  0
   17.3119  -11.0503  -14.7773 C   0  0  0  0  0  0  0  0  0  0  0  0
   17.1178  -12.4983  -14.9308 C   0  0  0  0  0  0  0  0  0  0  0  0
   17.4143  -13.0809  -16.0048 O   0  0  0  0  0  0  0  0  0  0  0  0
   16.7180   -9.1317  -13.3237 C   0  0  0  0  0  0  0  0  0  0  0  0
   16.3992   -8.1731  -14.0551 O   0  0  0  0  0  0  0  0  0  0  0  0
   16.6034  -13.3063  -13.9189 O   0  0  0  0  0  0  0  0  0  0  0  0
   18.7509   -5.1432  -10.4056 N   0  0  0  0  0  0  0  0  0  0  0  0
   17.9943   -6.0994   -9.6707 C   0  0  0  0  0  0  0  0  0  0  0  0
   17.7118   -5.8010   -8.4965 O   0  0  0  0  0  0  0  0  0  0  0  0
   17.5644   -7.3737  -10.2570 C   0  0  0  0  0  0  0  0  0  0  0  0
   17.8618   -7.5633  -11.6956 C   0  0  2  0  0  0  0  0  0  0  0  0
   17.3894   -8.8717  -12.1057 N   0  0  0  0  0  0  0  0  0  0  0  0
   19.2640   -7.3299  -12.0442 C   0  0  0  0  0  0  0  0  0  0  0  0
   20.2225   -7.8828  -11.4663 O   0  0  0  0  0  0  0  0  0  0  0  0
   19.6534   -6.4271  -13.1007 N   0  0  0  0  0  0  0  0  0  0  0  0
   21.0198   -6.1367  -13.4160 C   0  0  1  0  0  0  0  0  0  0  0  0
   21.4131   -6.5468  -14.8123 C   0  0  0  0  0  0  0  0  0  0  0  0
   21.2642   -7.9690  -15.0823 C   0  0  0  0  0  0  0  0  0  0  0  0
   21.7799   -8.8218  -14.3306 O   0  0  0  0  0  0  0  0  0  0  0  0
   21.2997   -4.7069  -13.1510 C   0  0  0  0  0  0  0  0  0  0  0  0
   22.4899   -4.3134  -13.1497 O   0  0  0  0  0  0  0  0  0  0  0  0
   20.5471   -8.4033  -16.1785 O   0  0  0  0  0  0  0  0  0  0  0  0
   20.3197   -3.7582  -12.9001 O   0  0  0  0  0  0  0  0  0  0  0  0
  2  3  1  0
  2  1  1  6
  3  4  1  0
  4  8  1  0
  4  5  2  0
  6  7  2  0
  6  2  1  0
  9 10  1  0
 10 11  2  0
 10 12  1  0
 13 12  1  1
 13 15  1  0
 13 14  1  0
 14  6  1  0
 15 17  1  0
 16 15  2  0
 17 18  1  0
 18 22  1  0
 18 19  1  6
 20 19  1  0
 21 20  2  0
 22 23  2  0
 22 25  1  0
 24 20  1  0
M  END
$$$$
