DND.pdb
     RDKit          3D

 25 24  0  0  1  0  0  0  0  0999 V2000
   16.7755  -11.9068  -11.3111 N   0  0  0  0  0  0  0  0  0  0  0  0
   16.2218  -11.0252  -12.3113 C   0  0  1  0  0  0  0  0  0  0  0  0
   15.4057  -11.7967  -13.3004 C   0  0  0  0  0  0  0  0  0  0  0  0
   16.2726  -12.7534  -14.0010 C   0  0  0  0  0  0  0  0  0  0  0  0
   17.5001  -12.8272  -13.7388 O   0  0  0  0  0  0  0  0  0  0  0  0
   15.4494   -9.9065  -11.6966 C   0  0  0  0  0  0  0  0  0  0  0  0
   14.8867   -9.0326  -12.3859 O   0  0  0  0  0  0  0  0  0  0  0  0
   15.8038  -13.6248  -14.9820 O   0  0  0  0  0  0  0  0  0  0  0  0
   12.0986  -10.0029  -10.3167 N   0  0  0  0  0  0  0  0  0  0  0  0
   12.5204  -10.0417   -8.9575 C   0  0  0  0  0  0  0  0  0  0  0  0
   11.7497  -10.5936   -8.1519 O   0  0  0  0  0  0  0  0  0  0  0  0
   13.7955   -9.4644   -8.5180 C   0  0  0  0  0  0  0  0  0  0  0  0
   14.6144   -8.8155   -9.5680 C   0  0  2  0  0  0  0  0  0  0  0  0
   15.3530   -9.8357  -10.2868 N   0  0  0  0  0  0  0  0  0  0  0  0
   15.4709   -7.7393   -9.0675 C   0  0  0  0  0  0  0  0  0  0  0  0
   16.6750   -7.8917   -8.7757 O   0  0  0  0  0  0  0  0  0  0  0  0
   14.9812   -6.3962   -8.8693 N   0  0  0  0  0  0  0  0  0  0  0  0
   15.8336   -5.2456   -8.8726 C   0  0  1  0  0  0  0  0  0  0  0  0
   16.7222   -5.1612  -10.0875 C   0  0  0  0  0  0  0  0  0  0  0  0
   17.5507   -3.9659  -10.1405 C   0  0  0  0  0  0  0  0  0  0  0  0
   17.5793   -3.1627   -9.1854 O   0  0  0  0  0  0  0  0  0  0  0  0
   15.0205   -4.0221   -8.6857 C   0  0  0  0  0  0  0  0  0  0  0  0
   13.9992   -3.8601   -9.3944 O   0  0  0  0  0  0  0  0  0  0  0  0
   18.3231   -3.6970  -11.2520 O   0  0  0  0  0  0  0  0  0  0  0  0
   15.3160   -3.0274   -7.7657 O   0  0  0  0  0  0  0  0  0  0  0  0
  2  3  1  0
  2  1  1  1
  3  4  1  0
  4  8  1  0
  4  5  2  0
  6  7  2  0
  6  2  1  0
  9 10  1  0
 10 11  2  0
 10 12  1  0
 13 12  1  1
 13 15  1  0
 13 14  1  0
 14  6  1  0
 15 17  1  0
 16 15  2  0
 17 18  1  0
 18 22  1  0
 18 19  1  6
 20 19  1  0
 21 20  2  0
 22 23  2  0
 22 25  1  0
 24 20  1  0
M  END
$$$$
