DND.pdb
     RDKit          3D

 25 24  0  0  1  0  0  0  0  0999 V2000
   15.2536  -10.2125  -15.0145 N   0  0  0  0  0  0  0  0  0  0  0  0
   16.0760   -9.3849  -15.8647 C   0  0  1  0  0  0  0  0  0  0  0  0
   15.2420   -8.3633  -16.5720 C   0  0  0  0  0  0  0  0  0  0  0  0
   14.2622   -9.0467  -17.4268 C   0  0  0  0  0  0  0  0  0  0  0  0
   13.0500   -9.1106  -17.0986 O   0  0  0  0  0  0  0  0  0  0  0  0
   17.2038   -8.7647  -15.1100 C   0  0  0  0  0  0  0  0  0  0  0  0
   17.0181   -8.0870  -14.0796 O   0  0  0  0  0  0  0  0  0  0  0  0
   14.6019   -9.6568  -18.6325 O   0  0  0  0  0  0  0  0  0  0  0  0
   22.2750   -7.7045  -13.8404 N   0  0  0  0  0  0  0  0  0  0  0  0
   22.1052   -8.9551  -14.4994 C   0  0  0  0  0  0  0  0  0  0  0  0
   23.1072   -9.6893  -14.5651 O   0  0  0  0  0  0  0  0  0  0  0  0
   20.8202   -9.3672  -15.0749 C   0  0  0  0  0  0  0  0  0  0  0  0
   19.7053   -8.4012  -14.9408 C   0  0  2  0  0  0  0  0  0  0  0  0
   18.5254   -8.9521  -15.5790 N   0  0  0  0  0  0  0  0  0  0  0  0
   20.0311   -7.0547  -15.4129 C   0  0  0  0  0  0  0  0  0  0  0  0
   20.1679   -6.7575  -16.6176 O   0  0  0  0  0  0  0  0  0  0  0  0
   20.2227   -5.9477  -14.5068 N   0  0  0  0  0  0  0  0  0  0  0  0
   20.4720   -4.6093  -14.9505 C   0  0  1  0  0  0  0  0  0  0  0  0
   19.4268   -3.6225  -14.4963 C   0  0  0  0  0  0  0  0  0  0  0  0
   19.6341   -2.2661  -14.9812 C   0  0  0  0  0  0  0  0  0  0  0  0
   20.5471   -2.0077  -15.7923 O   0  0  0  0  0  0  0  0  0  0  0  0
   21.8394   -4.1998  -14.5562 C   0  0  0  0  0  0  0  0  0  0  0  0
   22.2439   -4.4735  -13.4015 O   0  0  0  0  0  0  0  0  0  0  0  0
   18.8222   -1.2362  -14.5517 O   0  0  0  0  0  0  0  0  0  0  0  0
   22.7175   -3.5237  -15.3900 O   0  0  0  0  0  0  0  0  0  0  0  0
  2  3  1  0
  2  1  1  1
  3  4  1  0
  4  8  1  0
  4  5  2  0
  6  7  2  0
  6  2  1  0
  9 10  1  0
 10 11  2  0
 10 12  1  0
 13 12  1  6
 13 15  1  0
 13 14  1  0
 14  6  1  0
 15 17  1  0
 16 15  2  0
 17 18  1  0
 18 22  1  0
 18 19  1  1
 20 19  1  0
 21 20  2  0
 22 23  2  0
 22 25  1  0
 24 20  1  0
M  END
$$$$
