DND.pdb
     RDKit          3D

 25 24  0  0  1  0  0  0  0  0999 V2000
   14.3775  -13.1749  -11.6332 N   0  0  0  0  0  0  0  0  0  0  0  0
   14.2146  -12.4967  -12.8972 C   0  0  1  0  0  0  0  0  0  0  0  0
   12.8492  -12.7457  -13.4569 C   0  0  0  0  0  0  0  0  0  0  0  0
   12.5655  -14.1864  -13.4166 C   0  0  0  0  0  0  0  0  0  0  0  0
   12.0808  -14.7223  -12.3875 O   0  0  0  0  0  0  0  0  0  0  0  0
   14.5196  -11.0403  -12.7873 C   0  0  0  0  0  0  0  0  0  0  0  0
   14.4489  -10.2727  -13.7677 O   0  0  0  0  0  0  0  0  0  0  0  0
   12.8088  -15.0381  -14.4922 O   0  0  0  0  0  0  0  0  0  0  0  0
   15.4774   -7.2009   -8.0127 N   0  0  0  0  0  0  0  0  0  0  0  0
   15.0482   -7.4895   -9.3391 C   0  0  0  0  0  0  0  0  0  0  0  0
   14.8605   -6.5136  -10.0873 O   0  0  0  0  0  0  0  0  0  0  0  0
   14.8348   -8.8624   -9.8103 C   0  0  0  0  0  0  0  0  0  0  0  0
   15.0714   -9.1013  -11.2529 C   0  0  2  0  0  0  0  0  0  0  0  0
   14.9012  -10.5145  -11.5304 N   0  0  0  0  0  0  0  0  0  0  0  0
   16.3495   -8.5766  -11.7362 C   0  0  0  0  0  0  0  0  0  0  0  0
   17.4579   -8.9236  -11.2787 O   0  0  0  0  0  0  0  0  0  0  0  0
   16.4282   -7.6010  -12.7968 N   0  0  0  0  0  0  0  0  0  0  0  0
   17.6689   -7.1379  -13.3416 C   0  0  1  0  0  0  0  0  0  0  0  0
   18.4959   -8.2330  -13.9655 C   0  0  0  0  0  0  0  0  0  0  0  0
   19.6882   -7.7631  -14.6549 C   0  0  0  0  0  0  0  0  0  0  0  0
   19.9731   -6.5482  -14.6876 O   0  0  0  0  0  0  0  0  0  0  0  0
   17.4153   -6.0215  -14.2809 C   0  0  0  0  0  0  0  0  0  0  0  0
   16.2810   -5.9171  -14.8046 O   0  0  0  0  0  0  0  0  0  0  0  0
   20.5296   -8.6552  -15.2878 O   0  0  0  0  0  0  0  0  0  0  0  0
   18.3615   -5.0684  -14.6266 O   0  0  0  0  0  0  0  0  0  0  0  0
  2  3  1  0
  2  1  1  1
  3  4  1  0
  4  8  1  0
  4  5  2  0
  6  7  2  0
  6  2  1  0
  9 10  1  0
 10 11  2  0
 10 12  1  0
 13 12  1  1
 13 15  1  0
 13 14  1  0
 14  6  1  0
 15 17  1  0
 16 15  2  0
 17 18  1  0
 18 22  1  0
 18 19  1  6
 20 19  1  0
 21 20  2  0
 22 23  2  0
 22 25  1  0
 24 20  1  0
M  END
$$$$
