DND.pdb
     RDKit          3D

 25 24  0  0  1  0  0  0  0  0999 V2000
   14.3558  -12.0330  -13.3657 N   0  0  0  0  0  0  0  0  0  0  0  0
   15.5268  -11.6753  -12.6008 C   0  0  1  0  0  0  0  0  0  0  0  0
   16.7622  -12.2299  -13.2378 C   0  0  0  0  0  0  0  0  0  0  0  0
   16.6837  -13.6967  -13.2492 C   0  0  0  0  0  0  0  0  0  0  0  0
   17.5872  -14.3892  -13.7832 O   0  0  0  0  0  0  0  0  0  0  0  0
   15.6186  -10.2018  -12.3857 C   0  0  0  0  0  0  0  0  0  0  0  0
   15.3511   -9.3826  -13.2873 O   0  0  0  0  0  0  0  0  0  0  0  0
   15.6261  -14.4044  -12.6817 O   0  0  0  0  0  0  0  0  0  0  0  0
   16.3684   -5.6634   -9.6803 N   0  0  0  0  0  0  0  0  0  0  0  0
   16.0108   -6.7551   -8.8394 C   0  0  0  0  0  0  0  0  0  0  0  0
   15.7987   -6.4888   -7.6429 O   0  0  0  0  0  0  0  0  0  0  0  0
   15.8954   -8.1271   -9.3461 C   0  0  0  0  0  0  0  0  0  0  0  0
   16.1751   -8.3157  -10.7884 C   0  0  2  0  0  0  0  0  0  0  0  0
   16.0220   -9.7195  -11.1182 N   0  0  0  0  0  0  0  0  0  0  0  0
   17.4632   -7.7681  -11.2162 C   0  0  0  0  0  0  0  0  0  0  0  0
   18.5456   -8.0186  -10.6470 O   0  0  0  0  0  0  0  0  0  0  0  0
   17.5836   -6.8811  -12.3484 N   0  0  0  0  0  0  0  0  0  0  0  0
   18.8368   -6.3540  -12.7980 C   0  0  1  0  0  0  0  0  0  0  0  0
   19.5233   -7.2266  -13.8177 C   0  0  0  0  0  0  0  0  0  0  0  0
   20.7759   -6.6844  -14.3225 C   0  0  0  0  0  0  0  0  0  0  0  0
   20.8132   -6.0498  -15.3967 O   0  0  0  0  0  0  0  0  0  0  0  0
   18.6497   -4.9667  -13.2811 C   0  0  0  0  0  0  0  0  0  0  0  0
   17.5201   -4.6184  -13.6985 O   0  0  0  0  0  0  0  0  0  0  0  0
   21.9504   -6.8624  -13.6203 O   0  0  0  0  0  0  0  0  0  0  0  0
   19.6545   -4.0111  -13.3039 O   0  0  0  0  0  0  0  0  0  0  0  0
  2  3  1  0
  2  1  1  6
  3  4  1  0
  4  8  1  0
  4  5  2  0
  6  7  2  0
  6  2  1  0
  9 10  1  0
 10 11  2  0
 10 12  1  0
 13 12  1  1
 13 15  1  0
 13 14  1  0
 14  6  1  0
 15 17  1  0
 16 15  2  0
 17 18  1  0
 18 22  1  0
 18 19  1  6
 20 19  1  0
 21 20  2  0
 22 23  2  0
 22 25  1  0
 24 20  1  0
M  END
$$$$
