DND.pdb
     RDKit          3D

 25 24  0  0  1  0  0  0  0  0999 V2000
   17.3773  -10.5474  -17.0878 N   0  0  0  0  0  0  0  0  0  0  0  0
   17.0512   -9.4353  -16.2268 C   0  0  1  0  0  0  0  0  0  0  0  0
   16.1081   -9.8637  -15.1467 C   0  0  0  0  0  0  0  0  0  0  0  0
   14.9003  -10.4345  -15.7577 C   0  0  0  0  0  0  0  0  0  0  0  0
   14.7523  -10.4508  -17.0062 O   0  0  0  0  0  0  0  0  0  0  0  0
   18.2755   -8.7830  -15.6775 C   0  0  0  0  0  0  0  0  0  0  0  0
   18.2159   -7.7983  -14.9145 O   0  0  0  0  0  0  0  0  0  0  0  0
   13.8599  -10.9843  -15.0117 O   0  0  0  0  0  0  0  0  0  0  0  0
   23.5198   -8.1565  -14.7851 N   0  0  0  0  0  0  0  0  0  0  0  0
   23.2328   -9.3915  -15.4326 C   0  0  0  0  0  0  0  0  0  0  0  0
   24.1860  -10.1774  -15.5784 O   0  0  0  0  0  0  0  0  0  0  0  0
   21.8867   -9.7309  -15.9075 C   0  0  0  0  0  0  0  0  0  0  0  0
   20.8042   -8.7957  -15.5232 C   0  0  2  0  0  0  0  0  0  0  0  0
   19.5438   -9.2988  -16.0343 N   0  0  0  0  0  0  0  0  0  0  0  0
   21.0601   -7.4068  -15.9075 C   0  0  0  0  0  0  0  0  0  0  0  0
   21.0670   -7.0054  -17.0895 O   0  0  0  0  0  0  0  0  0  0  0  0
   21.3288   -6.3766  -14.9331 N   0  0  0  0  0  0  0  0  0  0  0  0
   21.4673   -4.9934  -15.2768 C   0  0  1  0  0  0  0  0  0  0  0  0
   20.1885   -4.3678  -15.7726 C   0  0  0  0  0  0  0  0  0  0  0  0
   20.2837   -2.9393  -16.0337 C   0  0  0  0  0  0  0  0  0  0  0  0
   21.3638   -2.4225  -16.3865 O   0  0  0  0  0  0  0  0  0  0  0  0
   22.0491   -4.2517  -14.1347 C   0  0  0  0  0  0  0  0  0  0  0  0
   22.0370   -4.7825  -12.9990 O   0  0  0  0  0  0  0  0  0  0  0  0
   19.1773   -2.1260  -15.8958 O   0  0  0  0  0  0  0  0  0  0  0  0
   22.6155   -2.9899  -14.2368 O   0  0  0  0  0  0  0  0  0  0  0  0
  2  3  1  0
  2  1  1  1
  3  4  1  0
  4  8  1  0
  4  5  2  0
  6  7  2  0
  6  2  1  0
  9 10  1  0
 10 11  2  0
 10 12  1  0
 13 12  1  6
 13 15  1  0
 13 14  1  0
 14  6  1  0
 15 17  1  0
 16 15  2  0
 17 18  1  0
 18 22  1  0
 18 19  1  1
 20 19  1  0
 21 20  2  0
 22 23  2  0
 22 25  1  0
 24 20  1  0
M  END
$$$$
