DND.pdb
     RDKit          3D

 25 24  0  0  1  0  0  0  0  0999 V2000
   15.3131  -10.7861  -12.0921 N   0  0  0  0  0  0  0  0  0  0  0  0
   14.3473   -9.7210  -12.2223 C   0  0  1  0  0  0  0  0  0  0  0  0
   13.0912  -10.0549  -11.4806 C   0  0  0  0  0  0  0  0  0  0  0  0
   12.5124  -11.2843  -12.0387 C   0  0  0  0  0  0  0  0  0  0  0  0
   12.6907  -11.5946  -13.2441 O   0  0  0  0  0  0  0  0  0  0  0  0
   14.9140   -8.4057  -11.8039 C   0  0  0  0  0  0  0  0  0  0  0  0
   14.2038   -7.3885  -11.6770 O   0  0  0  0  0  0  0  0  0  0  0  0
   11.7436  -12.1703  -11.2869 O   0  0  0  0  0  0  0  0  0  0  0  0
   16.4852   -4.4020   -8.8466 N   0  0  0  0  0  0  0  0  0  0  0  0
   17.0936   -5.6782   -9.0135 C   0  0  0  0  0  0  0  0  0  0  0  0
   18.2299   -5.8201   -8.5275 O   0  0  0  0  0  0  0  0  0  0  0  0
   16.4250   -6.7766   -9.7199 C   0  0  0  0  0  0  0  0  0  0  0  0
   16.9621   -7.1142  -11.0584 C   0  0  2  0  0  0  0  0  0  0  0  0
   16.3014   -8.3108  -11.5429 N   0  0  0  0  0  0  0  0  0  0  0  0
   18.4218   -7.2137  -11.1007 C   0  0  0  0  0  0  0  0  0  0  0  0
   19.0642   -8.1746  -10.6292 O   0  0  0  0  0  0  0  0  0  0  0  0
   19.2449   -6.1914  -11.7008 N   0  0  0  0  0  0  0  0  0  0  0  0
   20.4594   -6.4787  -12.4029 C   0  0  1  0  0  0  0  0  0  0  0  0
   20.3127   -7.5691  -13.4334 C   0  0  0  0  0  0  0  0  0  0  0  0
   21.5085   -7.8054  -14.2284 C   0  0  0  0  0  0  0  0  0  0  0  0
   22.6432   -7.5652  -13.7668 O   0  0  0  0  0  0  0  0  0  0  0  0
   21.0087   -5.2306  -12.9805 C   0  0  0  0  0  0  0  0  0  0  0  0
   20.2152   -4.3771  -13.4425 O   0  0  0  0  0  0  0  0  0  0  0  0
   21.4102   -8.3016  -15.5123 O   0  0  0  0  0  0  0  0  0  0  0  0
   22.3624   -4.9364  -13.0464 O   0  0  0  0  0  0  0  0  0  0  0  0
  2  3  1  0
  2  1  1  1
  3  4  1  0
  4  8  1  0
  4  5  2  0
  6  7  2  0
  6  2  1  0
  9 10  1  0
 10 11  2  0
 10 12  1  0
 13 12  1  1
 13 15  1  0
 13 14  1  0
 14  6  1  0
 15 17  1  0
 16 15  2  0
 17 18  1  0
 18 22  1  0
 18 19  1  6
 20 19  1  0
 21 20  2  0
 22 23  2  0
 22 25  1  0
 24 20  1  0
M  END
$$$$
