VHG.pdb
     RDKit          3D

 22 22  0  0  1  0  0  0  0  0999 V2000
   11.0980  -19.3148   15.5111 C   0  0  0  0  0  0  0  0  0  0  0  0
   11.1996  -18.4679   16.7329 C   0  0  2  0  0  0  0  0  0  0  0  0
   11.0822  -19.3062   17.9701 C   0  0  0  0  0  0  0  0  0  0  0  0
   10.1951  -17.3352   16.8080 C   0  0  2  0  0  0  0  0  0  0  0  0
   10.4201  -16.4116   15.6922 N   0  0  0  0  0  0  0  0  0  0  0  0
   10.4222  -16.5746   18.0370 C   0  0  0  0  0  0  0  0  0  0  0  0
   11.3887  -15.7325   18.0864 O   0  0  0  0  0  0  0  0  0  0  0  0
    9.6510  -16.6748   19.2278 N   0  0  0  0  0  0  0  0  0  0  0  0
    9.8832  -15.7817   20.3614 C   0  0  1  0  0  0  0  0  0  0  0  0
    8.5751  -15.1051   20.7227 C   0  0  0  0  0  0  0  0  0  0  0  0
    7.9852  -14.3611   19.6068 C   0  0  0  0  0  0  0  0  0  0  0  0
    8.2364  -13.0407   19.2960 C   0  0  0  0  0  0  0  0  0  0  0  0
    7.5105  -12.6936   18.1955 N   0  0  0  0  0  0  0  0  0  0  0  0
    6.8134  -13.7929   17.8266 C   0  0  0  0  0  0  0  0  0  0  0  0
    7.1069  -14.7884   18.6822 N   0  0  0  0  0  0  0  0  0  0  0  0
   10.4844  -16.4876   21.4955 C   0  0  0  0  0  0  0  0  0  0  0  0
    9.8602  -17.4332   22.0381 O   0  0  0  0  0  0  0  0  0  0  0  0
   11.7501  -16.1423   22.0064 N   0  0  0  0  0  0  0  0  0  0  0  0
   12.4344  -16.8883   23.0422 C   0  0  0  0  0  0  0  0  0  0  0  0
   13.6828  -16.1652   23.3813 C   0  0  0  0  0  0  0  0  0  0  0  0
   14.6321  -16.0417   22.5489 O   0  0  0  0  0  0  0  0  0  0  0  0
   13.8506  -15.5969   24.6314 O   0  0  0  0  0  0  0  0  0  0  0  0
  2  1  1  6
  2  3  1  0
  4  2  1  0
  4  5  1  6
  6  8  1  0
  6  4  1  0
  7  6  2  0
  9  8  1  0
  9 10  1  1
 10 11  1  0
 11 12  2  0
 11 15  1  0
 12 13  1  0
 13 14  1  0
 15 14  2  0
 16  9  1  0
 17 16  2  0
 18 16  1  0
 19 20  1  0
 19 18  1  0
 20 22  1  0
 21 20  2  0
M  END
$$$$
