VHG.pdb
     RDKit          3D

 22 22  0  0  1  0  0  0  0  0999 V2000
    7.6908  -14.4656   17.9366 C   0  0  0  0  0  0  0  0  0  0  0  0
    8.1309  -14.7300   19.3355 C   0  0  2  0  0  0  0  0  0  0  0  0
    7.7652  -16.1229   19.7518 C   0  0  0  0  0  0  0  0  0  0  0  0
    7.6007  -13.7526   20.3655 C   0  0  2  0  0  0  0  0  0  0  0  0
    8.0398  -12.3973   20.0203 N   0  0  0  0  0  0  0  0  0  0  0  0
    8.1863  -14.0661   21.6691 C   0  0  0  0  0  0  0  0  0  0  0  0
    9.3476  -13.6078   21.9639 O   0  0  0  0  0  0  0  0  0  0  0  0
    7.5765  -14.8552   22.6830 N   0  0  0  0  0  0  0  0  0  0  0  0
    8.2368  -15.0866   23.9664 C   0  0  1  0  0  0  0  0  0  0  0  0
    7.1877  -15.0758   25.0614 C   0  0  0  0  0  0  0  0  0  0  0  0
    6.8335  -13.7249   25.5047 C   0  0  0  0  0  0  0  0  0  0  0  0
    7.3860  -12.5514   25.0350 C   0  0  0  0  0  0  0  0  0  0  0  0
    6.8104  -11.4963   25.6782 N   0  0  0  0  0  0  0  0  0  0  0  0
    5.9062  -12.0132   26.5417 C   0  0  0  0  0  0  0  0  0  0  0  0
    5.9291  -13.3533   26.4284 N   0  0  0  0  0  0  0  0  0  0  0  0
    9.0279  -16.3196   23.9564 C   0  0  0  0  0  0  0  0  0  0  0  0
    8.4841  -17.4019   23.6235 O   0  0  0  0  0  0  0  0  0  0  0  0
   10.3906  -16.3375   24.3100 N   0  0  0  0  0  0  0  0  0  0  0  0
   11.1870  -17.5440   24.3970 C   0  0  0  0  0  0  0  0  0  0  0  0
   12.2165  -17.4933   23.3322 C   0  0  0  0  0  0  0  0  0  0  0  0
   11.9080  -17.5054   22.1017 O   0  0  0  0  0  0  0  0  0  0  0  0
   13.5605  -17.4306   23.6538 O   0  0  0  0  0  0  0  0  0  0  0  0
  2  1  1  6
  2  3  1  0
  4  2  1  0
  4  5  1  6
  6  8  1  0
  6  4  1  0
  7  6  2  0
  9  8  1  0
  9 10  1  1
 10 11  1  0
 11 12  2  0
 11 15  1  0
 12 13  1  0
 13 14  1  0
 15 14  2  0
 16  9  1  0
 17 16  2  0
 18 16  1  0
 19 20  1  0
 19 18  1  0
 20 22  1  0
 21 20  2  0
M  END
$$$$
