VHG.pdb
     RDKit          3D

 22 22  0  0  1  0  0  0  0  0999 V2000
    8.7218  -15.1836   19.7630 C   0  0  0  0  0  0  0  0  0  0  0  0
    7.4208  -14.5483   20.1154 C   0  0  2  0  0  0  0  0  0  0  0  0
    6.7150  -14.0671   18.8835 C   0  0  0  0  0  0  0  0  0  0  0  0
    7.5179  -13.4050   21.1059 C   0  0  2  0  0  0  0  0  0  0  0  0
    8.4185  -12.3775   20.5749 N   0  0  0  0  0  0  0  0  0  0  0  0
    8.1219  -13.8952   22.3450 C   0  0  0  0  0  0  0  0  0  0  0  0
    9.3612  -13.6590   22.5775 O   0  0  0  0  0  0  0  0  0  0  0  0
    7.4504  -14.6332   23.3585 N   0  0  0  0  0  0  0  0  0  0  0  0
    8.1622  -15.1324   24.5336 C   0  0  1  0  0  0  0  0  0  0  0  0
    7.2534  -15.0082   25.7412 C   0  0  0  0  0  0  0  0  0  0  0  0
    6.9545  -13.6181   26.0951 C   0  0  0  0  0  0  0  0  0  0  0  0
    5.7391  -12.9872   25.9284 C   0  0  0  0  0  0  0  0  0  0  0  0
    5.8376  -11.7012   26.3696 N   0  0  0  0  0  0  0  0  0  0  0  0
    7.1072  -11.5361   26.8073 C   0  0  0  0  0  0  0  0  0  0  0  0
    7.7687  -12.6949   26.6373 N   0  0  0  0  0  0  0  0  0  0  0  0
    8.6500  -16.4992   24.3339 C   0  0  0  0  0  0  0  0  0  0  0  0
    7.8563  -17.4648   24.4592 O   0  0  0  0  0  0  0  0  0  0  0  0
    9.9905  -16.7748   24.0031 N   0  0  0  0  0  0  0  0  0  0  0  0
   11.0537  -16.9022   24.9784 C   0  0  0  0  0  0  0  0  0  0  0  0
   11.1148  -18.3188   25.4096 C   0  0  0  0  0  0  0  0  0  0  0  0
   10.1520  -18.8748   26.0204 O   0  0  0  0  0  0  0  0  0  0  0  0
   12.2381  -19.0851   25.1549 O   0  0  0  0  0  0  0  0  0  0  0  0
  2  1  1  6
  2  3  1  0
  4  2  1  0
  4  5  1  6
  6  8  1  0
  6  4  1  0
  7  6  2  0
  9  8  1  0
  9 10  1  1
 10 11  1  0
 11 12  2  0
 11 15  1  0
 12 13  1  0
 13 14  1  0
 15 14  2  0
 16  9  1  0
 17 16  2  0
 18 16  1  0
 19 20  1  0
 19 18  1  0
 20 22  1  0
 21 20  2  0
M  END
$$$$
