VHG.pdb
     RDKit          3D

 22 22  0  0  1  0  0  0  0  0999 V2000
    7.8901  -12.4232   20.8125 C   0  0  0  0  0  0  0  0  0  0  0  0
    8.4477  -13.7434   20.4045 C   0  0  2  0  0  0  0  0  0  0  0  0
    8.2816  -13.9560   18.9299 C   0  0  0  0  0  0  0  0  0  0  0  0
    7.8693  -14.9345   21.1423 C   0  0  2  0  0  0  0  0  0  0  0  0
    6.4521  -15.0785   20.7967 N   0  0  0  0  0  0  0  0  0  0  0  0
    7.9283  -14.6806   22.5819 C   0  0  0  0  0  0  0  0  0  0  0  0
    6.8471  -14.4135   23.2187 O   0  0  0  0  0  0  0  0  0  0  0  0
    9.1056  -14.7022   23.3794 N   0  0  0  0  0  0  0  0  0  0  0  0
    9.0579  -15.0594   24.7960 C   0  0  1  0  0  0  0  0  0  0  0  0
    7.6082  -15.0953   25.2395 C   0  0  0  0  0  0  0  0  0  0  0  0
    7.1036  -13.7861   25.6617 C   0  0  0  0  0  0  0  0  0  0  0  0
    7.8256  -12.6107   25.6775 C   0  0  0  0  0  0  0  0  0  0  0  0
    7.0284  -11.6013   26.1291 N   0  0  0  0  0  0  0  0  0  0  0  0
    5.8192  -12.1484   26.3918 C   0  0  0  0  0  0  0  0  0  0  0  0
    5.8766  -13.4617   26.1071 N   0  0  0  0  0  0  0  0  0  0  0  0
    9.7602  -16.3168   25.0637 C   0  0  0  0  0  0  0  0  0  0  0  0
   10.0586  -16.6204   26.2456 O   0  0  0  0  0  0  0  0  0  0  0  0
   10.1175  -17.2085   24.0343 N   0  0  0  0  0  0  0  0  0  0  0  0
   11.4269  -17.2464   23.4164 C   0  0  0  0  0  0  0  0  0  0  0  0
   12.3584  -17.9173   24.3537 C   0  0  0  0  0  0  0  0  0  0  0  0
   12.1553  -17.9290   25.6059 O   0  0  0  0  0  0  0  0  0  0  0  0
   13.4907  -18.5583   23.8837 O   0  0  0  0  0  0  0  0  0  0  0  0
  2  1  1  1
  2  3  1  0
  4  2  1  0
  4  5  1  6
  6  8  1  0
  6  4  1  0
  7  6  2  0
  9  8  1  0
  9 10  1  6
 10 11  1  0
 11 12  2  0
 11 15  1  0
 12 13  1  0
 13 14  1  0
 15 14  2  0
 16  9  1  0
 17 16  2  0
 18 16  1  0
 19 20  1  0
 19 18  1  0
 20 22  1  0
 21 20  2  0
M  END
$$$$
