VHG.pdb
     RDKit          3D

 22 22  0  0  1  0  0  0  0  0999 V2000
    7.4656  -12.3385   18.7974 C   0  0  0  0  0  0  0  0  0  0  0  0
    7.9917  -13.4353   19.6580 C   0  0  2  0  0  0  0  0  0  0  0  0
    8.8498  -12.8824   20.7559 C   0  0  0  0  0  0  0  0  0  0  0  0
    8.7670  -14.5081   18.9194 C   0  0  2  0  0  0  0  0  0  0  0  0
    7.8993  -15.1298   17.9147 N   0  0  0  0  0  0  0  0  0  0  0  0
    9.1425  -15.5621   19.8621 C   0  0  0  0  0  0  0  0  0  0  0  0
    8.2478  -16.3813   20.2793 O   0  0  0  0  0  0  0  0  0  0  0  0
   10.4479  -15.7820   20.3820 N   0  0  0  0  0  0  0  0  0  0  0  0
   10.7539  -16.9562   21.1970 C   0  0  1  0  0  0  0  0  0  0  0  0
   11.7965  -17.7891   20.4767 C   0  0  0  0  0  0  0  0  0  0  0  0
   11.2864  -18.4187   19.2560 C   0  0  0  0  0  0  0  0  0  0  0  0
   11.5963  -18.0432   17.9652 C   0  0  0  0  0  0  0  0  0  0  0  0
   10.9363  -18.8553   17.0917 N   0  0  0  0  0  0  0  0  0  0  0  0
   10.2214  -19.7293   17.8371 C   0  0  0  0  0  0  0  0  0  0  0  0
   10.4399  -19.4570   19.1360 N   0  0  0  0  0  0  0  0  0  0  0  0
   11.1676  -16.5847   22.5522 C   0  0  0  0  0  0  0  0  0  0  0  0
   11.9510  -15.6167   22.7175 O   0  0  0  0  0  0  0  0  0  0  0  0
   10.7151  -17.2797   23.6900 N   0  0  0  0  0  0  0  0  0  0  0  0
   10.9681  -16.8536   25.0509 C   0  0  0  0  0  0  0  0  0  0  0  0
   11.8603  -17.8515   25.6869 C   0  0  0  0  0  0  0  0  0  0  0  0
   12.3108  -18.8505   25.0477 O   0  0  0  0  0  0  0  0  0  0  0  0
   12.2322  -17.7205   27.0130 O   0  0  0  0  0  0  0  0  0  0  0  0
  2  1  1  6
  2  3  1  0
  4  2  1  0
  4  5  1  6
  6  8  1  0
  6  4  1  0
  7  6  2  0
  9  8  1  0
  9 10  1  6
 10 11  1  0
 11 12  2  0
 11 15  1  0
 12 13  1  0
 13 14  1  0
 15 14  2  0
 16  9  1  0
 17 16  2  0
 18 16  1  0
 19 20  1  0
 19 18  1  0
 20 22  1  0
 21 20  2  0
M  END
$$$$
