VHG.pdb
     RDKit          3D

 22 22  0  0  1  0  0  0  0  0999 V2000
    9.9909  -19.0218   19.5169 C   0  0  0  0  0  0  0  0  0  0  0  0
    9.8415  -18.0488   20.6356 C   0  0  2  0  0  0  0  0  0  0  0  0
    9.5635  -18.7619   21.9247 C   0  0  0  0  0  0  0  0  0  0  0  0
    8.7798  -16.9887   20.4201 C   0  0  2  0  0  0  0  0  0  0  0  0
    9.0751  -16.2486   19.1896 N   0  0  0  0  0  0  0  0  0  0  0  0
    8.8382  -16.0226   21.5172 C   0  0  0  0  0  0  0  0  0  0  0  0
    9.7419  -15.1121   21.5065 O   0  0  0  0  0  0  0  0  0  0  0  0
    7.9615  -15.9859   22.6364 N   0  0  0  0  0  0  0  0  0  0  0  0
    8.0806  -14.9513   23.6620 C   0  0  1  0  0  0  0  0  0  0  0  0
    6.7603  -14.8447   24.4003 C   0  0  0  0  0  0  0  0  0  0  0  0
    6.7432  -13.7692   25.3952 C   0  0  0  0  0  0  0  0  0  0  0  0
    7.7102  -12.7975   25.5486 C   0  0  0  0  0  0  0  0  0  0  0  0
    7.3558  -11.9704   26.5726 N   0  0  0  0  0  0  0  0  0  0  0  0
    6.1756  -12.4272   27.0511 C   0  0  0  0  0  0  0  0  0  0  0  0
    5.8176  -13.5085   26.3356 N   0  0  0  0  0  0  0  0  0  0  0  0
    9.2097  -15.2038   24.5606 C   0  0  0  0  0  0  0  0  0  0  0  0
    9.5818  -14.3052   25.3557 O   0  0  0  0  0  0  0  0  0  0  0  0
    9.9017  -16.4300   24.5668 N   0  0  0  0  0  0  0  0  0  0  0  0
   11.0063  -16.7299   25.4543 C   0  0  0  0  0  0  0  0  0  0  0  0
   10.4577  -17.3800   26.6679 C   0  0  0  0  0  0  0  0  0  0  0  0
    9.2207  -17.3416   26.9469 O   0  0  0  0  0  0  0  0  0  0  0  0
   11.2896  -18.0561   27.5423 O   0  0  0  0  0  0  0  0  0  0  0  0
  2  1  1  6
  2  3  1  0
  4  2  1  0
  4  5  1  6
  6  8  1  0
  6  4  1  0
  7  6  2  0
  9  8  1  0
  9 10  1  1
 10 11  1  0
 11 12  2  0
 11 15  1  0
 12 13  1  0
 13 14  1  0
 15 14  2  0
 16  9  1  0
 17 16  2  0
 18 16  1  0
 19 20  1  0
 19 18  1  0
 20 22  1  0
 21 20  2  0
M  END
$$$$
