VHG.pdb
     RDKit          3D

 22 22  0  0  1  0  0  0  0  0999 V2000
    6.7731  -17.6110   18.1625 C   0  0  0  0  0  0  0  0  0  0  0  0
    7.6417  -18.8195   18.0880 C   0  0  2  0  0  0  0  0  0  0  0  0
    6.8701  -19.9957   17.5701 C   0  0  0  0  0  0  0  0  0  0  0  0
    8.3104  -19.2045   19.3927 C   0  0  2  0  0  0  0  0  0  0  0  0
    7.2836  -19.5222   20.3895 N   0  0  0  0  0  0  0  0  0  0  0  0
    9.0550  -18.0547   19.9065 C   0  0  0  0  0  0  0  0  0  0  0  0
   10.0411  -17.5903   19.2300 O   0  0  0  0  0  0  0  0  0  0  0  0
    8.7869  -17.3712   21.1245 N   0  0  0  0  0  0  0  0  0  0  0  0
    9.6444  -16.2830   21.5904 C   0  0  1  0  0  0  0  0  0  0  0  0
    8.7678  -15.1182   22.0079 C   0  0  0  0  0  0  0  0  0  0  0  0
    8.2150  -14.3782   20.8705 C   0  0  0  0  0  0  0  0  0  0  0  0
    8.4718  -14.6356   19.5397 C   0  0  0  0  0  0  0  0  0  0  0  0
    7.7840  -13.7449   18.7703 N   0  0  0  0  0  0  0  0  0  0  0  0
    7.1048  -12.9401   19.6197 C   0  0  0  0  0  0  0  0  0  0  0  0
    7.3718  -13.3304   20.8789 N   0  0  0  0  0  0  0  0  0  0  0  0
   10.5460  -16.7207   22.6589 C   0  0  0  0  0  0  0  0  0  0  0  0
   10.0690  -17.0767   23.7651 O   0  0  0  0  0  0  0  0  0  0  0  0
   11.9434  -16.7577   22.4908 N   0  0  0  0  0  0  0  0  0  0  0  0
   12.8469  -17.4499   23.3865 C   0  0  0  0  0  0  0  0  0  0  0  0
   13.5618  -16.4337   24.1944 C   0  0  0  0  0  0  0  0  0  0  0  0
   14.2289  -15.4985   23.6560 O   0  0  0  0  0  0  0  0  0  0  0  0
   13.5214  -16.4765   25.5765 O   0  0  0  0  0  0  0  0  0  0  0  0
  2  1  1  1
  2  3  1  0
  4  2  1  0
  4  5  1  1
  6  8  1  0
  6  4  1  0
  7  6  2  0
  9  8  1  0
  9 10  1  1
 10 11  1  0
 11 12  2  0
 11 15  1  0
 12 13  1  0
 13 14  1  0
 15 14  2  0
 16  9  1  0
 17 16  2  0
 18 16  1  0
 19 20  1  0
 19 18  1  0
 20 22  1  0
 21 20  2  0
M  END
$$$$
