VHG.pdb
     RDKit          3D

 22 22  0  0  1  0  0  0  0  0999 V2000
    7.4935  -12.2946   18.7233 C   0  0  0  0  0  0  0  0  0  0  0  0
    8.1825  -13.4402   19.3817 C   0  0  2  0  0  0  0  0  0  0  0  0
    9.0856  -12.9574   20.4765 C   0  0  0  0  0  0  0  0  0  0  0  0
    8.9756  -14.3298   18.4451 C   0  0  2  0  0  0  0  0  0  0  0  0
    8.0641  -14.9592   17.4849 N   0  0  0  0  0  0  0  0  0  0  0  0
    9.5878  -15.4117   19.2164 C   0  0  0  0  0  0  0  0  0  0  0  0
    8.8560  -16.3791   19.6340 O   0  0  0  0  0  0  0  0  0  0  0  0
   10.9640  -15.5065   19.5626 N   0  0  0  0  0  0  0  0  0  0  0  0
   11.4708  -16.6159   20.3681 C   0  0  1  0  0  0  0  0  0  0  0  0
   12.4561  -17.4116   19.5341 C   0  0  0  0  0  0  0  0  0  0  0  0
   11.8254  -18.1129   18.4129 C   0  0  0  0  0  0  0  0  0  0  0  0
   11.1086  -19.2885   18.4979 C   0  0  0  0  0  0  0  0  0  0  0  0
   10.6746  -19.6397   17.2543 N   0  0  0  0  0  0  0  0  0  0  0  0
   11.1201  -18.6868   16.4033 C   0  0  0  0  0  0  0  0  0  0  0  0
   11.8103  -17.7748   17.1111 N   0  0  0  0  0  0  0  0  0  0  0  0
   12.0486  -16.1510   21.6314 C   0  0  0  0  0  0  0  0  0  0  0  0
   12.8681  -15.1989   21.6247 O   0  0  0  0  0  0  0  0  0  0  0  0
   11.7164  -16.7379   22.8674 N   0  0  0  0  0  0  0  0  0  0  0  0
   12.1036  -16.1913   24.1515 C   0  0  0  0  0  0  0  0  0  0  0  0
   13.3429  -16.8767   24.5882 C   0  0  0  0  0  0  0  0  0  0  0  0
   14.3641  -16.9550   23.8395 O   0  0  0  0  0  0  0  0  0  0  0  0
   13.4226  -17.4582   25.8410 O   0  0  0  0  0  0  0  0  0  0  0  0
  2  1  1  6
  2  3  1  0
  4  2  1  0
  4  5  1  6
  6  8  1  0
  6  4  1  0
  7  6  2  0
  9  8  1  0
  9 10  1  6
 10 11  1  0
 11 12  2  0
 11 15  1  0
 12 13  1  0
 13 14  1  0
 15 14  2  0
 16  9  1  0
 17 16  2  0
 18 16  1  0
 19 20  1  0
 19 18  1  0
 20 22  1  0
 21 20  2  0
M  END
$$$$
