VHG.pdb
     RDKit          3D

 22 22  0  0  1  0  0  0  0  0999 V2000
    7.4130  -12.1185   19.0027 C   0  0  0  0  0  0  0  0  0  0  0  0
    8.0187  -13.3312   19.6214 C   0  0  2  0  0  0  0  0  0  0  0  0
    8.9462  -12.9506   20.7359 C   0  0  0  0  0  0  0  0  0  0  0  0
    8.7548  -14.2387   18.6558 C   0  0  2  0  0  0  0  0  0  0  0  0
    7.8145  -14.7436   17.6510 N   0  0  0  0  0  0  0  0  0  0  0  0
    9.2595  -15.4032   19.3835 C   0  0  0  0  0  0  0  0  0  0  0  0
    8.4398  -16.3184   19.7526 O   0  0  0  0  0  0  0  0  0  0  0  0
   10.6177  -15.6354   19.7356 N   0  0  0  0  0  0  0  0  0  0  0  0
   11.0124  -16.8115   20.5086 C   0  0  1  0  0  0  0  0  0  0  0  0
   11.9098  -17.6798   19.6481 C   0  0  0  0  0  0  0  0  0  0  0  0
   11.2302  -18.2136   18.4649 C   0  0  0  0  0  0  0  0  0  0  0  0
   10.3076  -19.2392   18.4593 C   0  0  0  0  0  0  0  0  0  0  0  0
    9.8921  -19.4610   17.1800 N   0  0  0  0  0  0  0  0  0  0  0  0
   10.5536  -18.5777   16.3973 C   0  0  0  0  0  0  0  0  0  0  0  0
   11.3547  -17.8335   17.1807 N   0  0  0  0  0  0  0  0  0  0  0  0
   11.6382  -16.4415   21.7804 C   0  0  0  0  0  0  0  0  0  0  0  0
   12.5103  -15.5376   21.8020 O   0  0  0  0  0  0  0  0  0  0  0  0
   11.2950  -17.0678   22.9938 N   0  0  0  0  0  0  0  0  0  0  0  0
   11.7392  -16.6093   24.2938 C   0  0  0  0  0  0  0  0  0  0  0  0
   13.1181  -17.1074   24.5105 C   0  0  0  0  0  0  0  0  0  0  0  0
   13.7057  -17.8429   23.6601 O   0  0  0  0  0  0  0  0  0  0  0  0
   13.8128  -16.7803   25.6613 O   0  0  0  0  0  0  0  0  0  0  0  0
  2  1  1  6
  2  3  1  0
  4  2  1  0
  4  5  1  6
  6  8  1  0
  6  4  1  0
  7  6  2  0
  9  8  1  0
  9 10  1  6
 10 11  1  0
 11 12  2  0
 11 15  1  0
 12 13  1  0
 13 14  1  0
 15 14  2  0
 16  9  1  0
 17 16  2  0
 18 16  1  0
 19 20  1  0
 19 18  1  0
 20 22  1  0
 21 20  2  0
M  END
$$$$
