VHG.pdb
     RDKit          3D

 22 22  0  0  1  0  0  0  0  0999 V2000
    7.5936  -14.5604   18.6494 C   0  0  0  0  0  0  0  0  0  0  0  0
    8.0329  -14.8083   20.0515 C   0  0  2  0  0  0  0  0  0  0  0  0
    7.4038  -16.0575   20.5910 C   0  0  0  0  0  0  0  0  0  0  0  0
    7.7668  -13.6675   21.0134 C   0  0  2  0  0  0  0  0  0  0  0  0
    8.4137  -12.4504   20.5143 N   0  0  0  0  0  0  0  0  0  0  0  0
    8.3851  -13.9748   22.3033 C   0  0  0  0  0  0  0  0  0  0  0  0
    9.5954  -13.6109   22.5236 O   0  0  0  0  0  0  0  0  0  0  0  0
    7.7581  -14.6597   23.3804 N   0  0  0  0  0  0  0  0  0  0  0  0
    8.4532  -14.8836   24.6466 C   0  0  1  0  0  0  0  0  0  0  0  0
    7.4345  -14.8655   25.7699 C   0  0  0  0  0  0  0  0  0  0  0  0
    6.9211  -13.5239   26.0587 C   0  0  0  0  0  0  0  0  0  0  0  0
    7.6763  -12.3726   26.1434 C   0  0  0  0  0  0  0  0  0  0  0  0
    6.8580  -11.3198   26.4267 N   0  0  0  0  0  0  0  0  0  0  0  0
    5.6026  -11.8161   26.5170 C   0  0  0  0  0  0  0  0  0  0  0  0
    5.6532  -13.1416   26.2940 N   0  0  0  0  0  0  0  0  0  0  0  0
    9.2433  -16.1169   24.6226 C   0  0  0  0  0  0  0  0  0  0  0  0
    9.7685  -16.5371   25.6836 O   0  0  0  0  0  0  0  0  0  0  0  0
    9.4386  -16.8579   23.4414 N   0  0  0  0  0  0  0  0  0  0  0  0
   10.2209  -18.0748   23.3709 C   0  0  0  0  0  0  0  0  0  0  0  0
   11.6516  -17.6975   23.2879 C   0  0  0  0  0  0  0  0  0  0  0  0
   12.0384  -16.6764   22.6421 O   0  0  0  0  0  0  0  0  0  0  0  0
   12.6188  -18.4580   23.9205 O   0  0  0  0  0  0  0  0  0  0  0  0
  2  1  1  6
  2  3  1  0
  4  2  1  0
  4  5  1  6
  6  8  1  0
  6  4  1  0
  7  6  2  0
  9  8  1  0
  9 10  1  1
 10 11  1  0
 11 12  2  0
 11 15  1  0
 12 13  1  0
 13 14  1  0
 15 14  2  0
 16  9  1  0
 17 16  2  0
 18 16  1  0
 19 20  1  0
 19 18  1  0
 20 22  1  0
 21 20  2  0
M  END
$$$$
