VHG.pdb
     RDKit          3D

 22 22  0  0  1  0  0  0  0  0999 V2000
    8.6813  -15.5381   19.5356 C   0  0  0  0  0  0  0  0  0  0  0  0
    7.3645  -14.8509   19.6546 C   0  0  2  0  0  0  0  0  0  0  0  0
    6.6853  -14.7719   18.3205 C   0  0  0  0  0  0  0  0  0  0  0  0
    7.4230  -13.4628   20.2607 C   0  0  2  0  0  0  0  0  0  0  0  0
    8.2958  -12.6131   19.4451 N   0  0  0  0  0  0  0  0  0  0  0  0
    8.0348  -13.5450   21.5871 C   0  0  0  0  0  0  0  0  0  0  0  0
    9.2677  -13.2217   21.7327 O   0  0  0  0  0  0  0  0  0  0  0  0
    7.3778  -13.9602   22.7782 N   0  0  0  0  0  0  0  0  0  0  0  0
    8.1131  -14.1422   24.0283 C   0  0  1  0  0  0  0  0  0  0  0  0
    7.2079  -13.7625   25.1841 C   0  0  0  0  0  0  0  0  0  0  0  0
    7.8695  -13.8582   26.4879 C   0  0  0  0  0  0  0  0  0  0  0  0
    8.3947  -12.8031   27.2049 C   0  0  0  0  0  0  0  0  0  0  0  0
    8.9287  -13.2733   28.3676 N   0  0  0  0  0  0  0  0  0  0  0  0
    8.7355  -14.6123   28.3711 C   0  0  0  0  0  0  0  0  0  0  0  0
    8.0980  -14.9521   27.2365 N   0  0  0  0  0  0  0  0  0  0  0  0
    8.6459  -15.5011   24.1529 C   0  0  0  0  0  0  0  0  0  0  0  0
    7.8871  -16.4840   23.9624 O   0  0  0  0  0  0  0  0  0  0  0  0
    9.9920  -15.7501   24.4819 N   0  0  0  0  0  0  0  0  0  0  0  0
   10.5184  -17.0633   24.7922 C   0  0  0  0  0  0  0  0  0  0  0  0
   11.4036  -17.4788   23.6787 C   0  0  0  0  0  0  0  0  0  0  0  0
   10.9628  -18.1197   22.6764 O   0  0  0  0  0  0  0  0  0  0  0  0
   12.7532  -17.1757   23.7006 O   0  0  0  0  0  0  0  0  0  0  0  0
  2  1  1  6
  2  3  1  0
  4  2  1  0
  4  5  1  6
  6  8  1  0
  6  4  1  0
  7  6  2  0
  9  8  1  0
  9 10  1  1
 10 11  1  0
 11 12  2  0
 11 15  1  0
 12 13  1  0
 13 14  1  0
 15 14  2  0
 16  9  1  0
 17 16  2  0
 18 16  1  0
 19 20  1  0
 19 18  1  0
 20 22  1  0
 21 20  2  0
M  END
$$$$
