VHG.pdb
     RDKit          3D

 22 22  0  0  1  0  0  0  0  0999 V2000
   13.9099  -18.9877   14.4810 C   0  0  0  0  0  0  0  0  0  0  0  0
   12.5180  -18.9081   13.9550 C   0  0  2  0  0  0  0  0  0  0  0  0
   12.3771  -19.7208   12.7033 C   0  0  0  0  0  0  0  0  0  0  0  0
   12.0172  -17.5024   13.6889 C   0  0  2  0  0  0  0  0  0  0  0  0
   13.0000  -16.7829   12.8733 N   0  0  0  0  0  0  0  0  0  0  0  0
   11.9149  -16.7823   14.9583 C   0  0  0  0  0  0  0  0  0  0  0  0
   12.6362  -15.7389   15.1498 O   0  0  0  0  0  0  0  0  0  0  0  0
   11.0640  -17.1320   16.0429 N   0  0  0  0  0  0  0  0  0  0  0  0
   10.9798  -16.3003   17.2420 C   0  0  1  0  0  0  0  0  0  0  0  0
    9.5181  -16.0997   17.5925 C   0  0  0  0  0  0  0  0  0  0  0  0
    8.8504  -15.1181   16.7338 C   0  0  0  0  0  0  0  0  0  0  0  0
    9.4261  -14.4527   15.6713 C   0  0  0  0  0  0  0  0  0  0  0  0
    8.5032  -13.6208   15.1105 N   0  0  0  0  0  0  0  0  0  0  0  0
    7.3619  -13.7699   15.8217 C   0  0  0  0  0  0  0  0  0  0  0  0
    7.5829  -14.6722   16.7945 N   0  0  0  0  0  0  0  0  0  0  0  0
   11.7526  -16.8652   18.3509 C   0  0  0  0  0  0  0  0  0  0  0  0
   11.7032  -16.3200   19.4815 O   0  0  0  0  0  0  0  0  0  0  0  0
   12.5581  -18.0095   18.1955 N   0  0  0  0  0  0  0  0  0  0  0  0
   13.3058  -18.6237   19.2731 C   0  0  0  0  0  0  0  0  0  0  0  0
   13.9153  -19.8720   18.7567 C   0  0  0  0  0  0  0  0  0  0  0  0
   14.0913  -20.0675   17.5156 O   0  0  0  0  0  0  0  0  0  0  0  0
   14.3148  -20.8726   19.6245 O   0  0  0  0  0  0  0  0  0  0  0  0
  2  1  1  6
  2  3  1  0
  4  2  1  0
  4  5  1  6
  6  8  1  0
  6  4  1  0
  7  6  2  0
  9  8  1  0
  9 10  1  1
 10 11  1  0
 11 12  2  0
 11 15  1  0
 12 13  1  0
 13 14  1  0
 15 14  2  0
 16  9  1  0
 17 16  2  0
 18 16  1  0
 19 20  1  0
 19 18  1  0
 20 22  1  0
 21 20  2  0
M  END
$$$$
