FAV.pdb
     RDKit          3D

 24 24  0  0  1  0  0  0  0  0999 V2000
    7.6365  -15.0635   20.3781 N   0  0  0  0  0  0  0  0  0  0  0  0
    7.7897  -14.6197   21.7472 C   0  0  1  0  0  0  0  0  0  0  0  0
    6.6925  -13.6916   22.1796 C   0  0  0  0  0  0  0  0  0  0  0  0
    6.7777  -13.2571   23.5704 C   0  0  0  0  0  0  0  0  0  0  0  0
    7.4883  -12.1007   23.8510 C   0  0  0  0  0  0  0  0  0  0  0  0
    7.6208  -11.6172   25.1307 C   0  0  0  0  0  0  0  0  0  0  0  0
    7.0429  -12.2759   26.1941 C   0  0  0  0  0  0  0  0  0  0  0  0
    6.3347  -13.4266   25.9222 C   0  0  0  0  0  0  0  0  0  0  0  0
    6.2074  -13.9034   24.6360 C   0  0  0  0  0  0  0  0  0  0  0  0
    7.9925  -15.7572   22.6762 C   0  0  0  0  0  0  0  0  0  0  0  0
    7.1715  -16.7002   22.6949 O   0  0  0  0  0  0  0  0  0  0  0  0
    9.7739  -18.0896   23.6627 C   0  0  0  0  0  0  0  0  0  0  0  0
    9.3824  -16.8247   24.4194 C   0  0  2  0  0  0  0  0  0  0  0  0
    9.1344  -15.7215   23.5194 N   0  0  0  0  0  0  0  0  0  0  0  0
   10.4108  -16.4727   25.4313 C   0  0  0  0  0  0  0  0  0  0  0  0
   11.6353  -16.4982   25.1475 O   0  0  0  0  0  0  0  0  0  0  0  0
   10.8053  -13.3698   27.6117 C   0  0  0  0  0  0  0  0  0  0  0  0
   10.8766  -14.5588   28.5199 C   0  0  1  0  0  0  0  0  0  0  0  0
    9.6028  -14.6600   29.3092 C   0  0  0  0  0  0  0  0  0  0  0  0
   11.0920  -15.8509   27.7747 C   0  0  2  0  0  0  0  0  0  0  0  0
   10.0792  -16.0896   26.7682 N   0  0  0  0  0  0  0  0  0  0  0  0
   11.2096  -17.0065   28.6893 C   0  0  0  0  0  0  0  0  0  0  0  0
   10.4092  -17.9488   28.7406 O   0  0  0  0  0  0  0  0  0  0  0  0
   12.2978  -17.0514   29.5644 O   0  0  0  0  0  0  0  0  0  0  0  0
  2  1  1  6
  3  2  1  0
  4  3  1  0
  4  9  2  0
  5  4  1  0
  6  5  2  0
  6  7  1  0
  7  8  2  0
  8  9  1  0
 10  2  1  0
 11 10  2  0
 13 12  1  6
 13 14  1  0
 13 15  1  0
 14 10  1  0
 15 21  1  0
 16 15  2  0
 18 20  1  0
 18 19  1  6
 18 17  1  0
 20 22  1  0
 20 21  1  6
 22 23  2  0
 22 24  1  0
M  END
$$$$
