FAV.pdb
     RDKit          3D

 24 24  0  0  1  0  0  0  0  0999 V2000
    6.6449  -16.8385   26.0115 N   0  0  0  0  0  0  0  0  0  0  0  0
    6.8007  -16.9202   24.5748 C   0  0  1  0  0  0  0  0  0  0  0  0
    6.2585  -15.7138   23.8656 C   0  0  0  0  0  0  0  0  0  0  0  0
    6.3918  -14.4632   24.6062 C   0  0  0  0  0  0  0  0  0  0  0  0
    7.3225  -13.5371   24.1621 C   0  0  0  0  0  0  0  0  0  0  0  0
    7.5158  -12.3337   24.7971 C   0  0  0  0  0  0  0  0  0  0  0  0
    6.7796  -12.0022   25.9137 C   0  0  0  0  0  0  0  0  0  0  0  0
    5.8523  -12.9185   26.3608 C   0  0  0  0  0  0  0  0  0  0  0  0
    5.6657  -14.1223   25.7175 C   0  0  0  0  0  0  0  0  0  0  0  0
    8.1943  -17.2474   24.1889 C   0  0  0  0  0  0  0  0  0  0  0  0
    8.5988  -18.4286   24.2577 O   0  0  0  0  0  0  0  0  0  0  0  0
   11.0539  -15.4391   22.5838 C   0  0  0  0  0  0  0  0  0  0  0  0
   10.4405  -16.4074   23.5897 C   0  0  2  0  0  0  0  0  0  0  0  0
    9.0223  -16.1807   23.7499 N   0  0  0  0  0  0  0  0  0  0  0  0
   11.1475  -16.3354   24.8938 C   0  0  0  0  0  0  0  0  0  0  0  0
   12.3500  -16.6864   24.9998 O   0  0  0  0  0  0  0  0  0  0  0  0
   11.0695  -13.3244   27.1877 C   0  0  0  0  0  0  0  0  0  0  0  0
   10.9898  -14.5186   28.0884 C   0  0  1  0  0  0  0  0  0  0  0  0
    9.6401  -14.5574   28.7461 C   0  0  0  0  0  0  0  0  0  0  0  0
   11.2131  -15.8174   27.3574 C   0  0  2  0  0  0  0  0  0  0  0  0
   10.5164  -15.8707   26.0895 N   0  0  0  0  0  0  0  0  0  0  0  0
   10.8778  -16.9899   28.1933 C   0  0  0  0  0  0  0  0  0  0  0  0
    9.9974  -17.8172   27.9258 O   0  0  0  0  0  0  0  0  0  0  0  0
   11.5986  -17.1909   29.3731 O   0  0  0  0  0  0  0  0  0  0  0  0
  2  1  1  1
  3  2  1  0
  4  3  1  0
  4  9  2  0
  5  4  1  0
  6  5  2  0
  6  7  1  0
  7  8  2  0
  8  9  1  0
 10  2  1  0
 11 10  2  0
 13 12  1  6
 13 14  1  0
 13 15  1  0
 14 10  1  0
 15 21  1  0
 16 15  2  0
 18 20  1  0
 18 19  1  6
 18 17  1  0
 20 22  1  0
 20 21  1  6
 22 23  2  0
 22 24  1  0
M  END
$$$$
