FAV.pdb
     RDKit          3D

 24 24  0  0  1  0  0  0  0  0999 V2000
    5.5133  -17.7393   21.8450 N   0  0  0  0  0  0  0  0  0  0  0  0
    6.5448  -16.7595   22.1111 C   0  0  1  0  0  0  0  0  0  0  0  0
    6.0306  -15.3506   22.0580 C   0  0  0  0  0  0  0  0  0  0  0  0
    6.8905  -14.4172   21.3372 C   0  0  0  0  0  0  0  0  0  0  0  0
    7.2391  -14.7250   20.0316 C   0  0  0  0  0  0  0  0  0  0  0  0
    8.0439  -13.9049   19.2776 C   0  0  0  0  0  0  0  0  0  0  0  0
    8.5390  -12.7309   19.8023 C   0  0  0  0  0  0  0  0  0  0  0  0
    8.1964  -12.4185   21.1002 C   0  0  0  0  0  0  0  0  0  0  0  0
    7.3889  -13.2471   21.8481 C   0  0  0  0  0  0  0  0  0  0  0  0
    7.2861  -17.0641   23.3584 C   0  0  0  0  0  0  0  0  0  0  0  0
    6.6728  -17.1358   24.4458 O   0  0  0  0  0  0  0  0  0  0  0  0
   10.6276  -18.5178   24.0969 C   0  0  0  0  0  0  0  0  0  0  0  0
    9.4363  -17.6292   24.4388 C   0  0  2  0  0  0  0  0  0  0  0  0
    8.6882  -17.2644   23.2574 N   0  0  0  0  0  0  0  0  0  0  0  0
    9.8717  -16.4261   25.1928 C   0  0  0  0  0  0  0  0  0  0  0  0
   10.5353  -15.5159   24.6346 O   0  0  0  0  0  0  0  0  0  0  0  0
    8.1232  -13.7284   26.5917 C   0  0  0  0  0  0  0  0  0  0  0  0
    9.0001  -14.1373   27.7351 C   0  0  1  0  0  0  0  0  0  0  0  0
    8.1599  -14.7751   28.8042 C   0  0  0  0  0  0  0  0  0  0  0  0
   10.0821  -15.1029   27.3252 C   0  0  2  0  0  0  0  0  0  0  0  0
    9.5689  -16.2305   26.5763 N   0  0  0  0  0  0  0  0  0  0  0  0
   10.8867  -15.5580   28.4790 C   0  0  0  0  0  0  0  0  0  0  0  0
   11.5345  -14.8123   29.2242 O   0  0  0  0  0  0  0  0  0  0  0  0
   10.9278  -16.9259   28.7604 O   0  0  0  0  0  0  0  0  0  0  0  0
  2  1  1  1
  3  2  1  0
  4  3  1  0
  4  9  2  0
  5  4  1  0
  6  5  2  0
  6  7  1  0
  7  8  2  0
  8  9  1  0
 10  2  1  0
 11 10  2  0
 13 12  1  6
 13 14  1  0
 13 15  1  0
 14 10  1  0
 15 21  1  0
 16 15  2  0
 18 20  1  0
 18 19  1  1
 18 17  1  0
 20 22  1  0
 20 21  1  1
 22 23  2  0
 22 24  1  0
M  END
$$$$
