FAV.pdb
     RDKit          3D

 24 24  0  0  1  0  0  0  0  0999 V2000
    5.5977  -16.2003   25.3050 N   0  0  0  0  0  0  0  0  0  0  0  0
    6.8758  -15.6672   24.8841 C   0  0  1  0  0  0  0  0  0  0  0  0
    7.7186  -15.2088   26.0381 C   0  0  0  0  0  0  0  0  0  0  0  0
    7.3107  -13.9336   26.6191 C   0  0  0  0  0  0  0  0  0  0  0  0
    8.2286  -12.8951   26.6253 C   0  0  0  0  0  0  0  0  0  0  0  0
    7.9314  -11.6606   27.1511 C   0  0  0  0  0  0  0  0  0  0  0  0
    6.6919  -11.4098   27.6982 C   0  0  0  0  0  0  0  0  0  0  0  0
    5.7741  -12.4380   27.6954 C   0  0  0  0  0  0  0  0  0  0  0  0
    6.0814  -13.6721   27.1659 C   0  0  0  0  0  0  0  0  0  0  0  0
    7.5877  -16.5958   23.9735 C   0  0  0  0  0  0  0  0  0  0  0  0
    8.8308  -16.5241   23.8580 O   0  0  0  0  0  0  0  0  0  0  0  0
    6.5177  -19.4652   21.7565 C   0  0  0  0  0  0  0  0  0  0  0  0
    7.4332  -18.3411   22.2300 C   0  0  2  0  0  0  0  0  0  0  0  0
    6.8074  -17.5434   23.2598 N   0  0  0  0  0  0  0  0  0  0  0  0
    7.8715  -17.4982   21.0885 C   0  0  0  0  0  0  0  0  0  0  0  0
    8.4386  -18.0057   20.0878 O   0  0  0  0  0  0  0  0  0  0  0  0
    8.2424  -13.0898   21.1476 C   0  0  0  0  0  0  0  0  0  0  0  0
    7.6097  -13.8511   20.0234 C   0  0  1  0  0  0  0  0  0  0  0  0
    7.8977  -13.1534   18.7249 C   0  0  0  0  0  0  0  0  0  0  0  0
    8.1006  -15.2730   19.9318 C   0  0  2  0  0  0  0  0  0  0  0  0
    7.6795  -16.0818   21.0562 N   0  0  0  0  0  0  0  0  0  0  0  0
    9.5661  -15.3440   19.7502 C   0  0  0  0  0  0  0  0  0  0  0  0
   10.3820  -15.5124   20.6651 O   0  0  0  0  0  0  0  0  0  0  0  0
   10.0813  -15.2130   18.4581 O   0  0  0  0  0  0  0  0  0  0  0  0
  2  1  1  1
  3  2  1  0
  4  3  1  0
  4  9  2  0
  5  4  1  0
  6  5  2  0
  6  7  1  0
  7  8  2  0
  8  9  1  0
 10  2  1  0
 11 10  2  0
 13 12  1  6
 13 14  1  0
 13 15  1  0
 14 10  1  0
 15 21  1  0
 16 15  2  0
 18 20  1  0
 18 19  1  6
 18 17  1  0
 20 22  1  0
 20 21  1  1
 22 23  2  0
 22 24  1  0
M  END
$$$$
