FAV.pdb
     RDKit          3D

 24 24  0  0  1  0  0  0  0  0999 V2000
    5.9710  -16.9770   25.3640 N   0  0  0  0  0  0  0  0  0  0  0  0
    6.8139  -16.6534   24.2328 C   0  0  1  0  0  0  0  0  0  0  0  0
    6.5675  -15.2698   23.7061 C   0  0  0  0  0  0  0  0  0  0  0  0
    6.5336  -14.2283   24.7279 C   0  0  0  0  0  0  0  0  0  0  0  0
    7.5277  -13.2627   24.7097 C   0  0  0  0  0  0  0  0  0  0  0  0
    7.5747  -12.2452   25.6324 C   0  0  0  0  0  0  0  0  0  0  0  0
    6.6205  -12.1492   26.6218 C   0  0  0  0  0  0  0  0  0  0  0  0
    5.6289  -13.1062   26.6459 C   0  0  0  0  0  0  0  0  0  0  0  0
    5.5902  -14.1224   25.7166 C   0  0  0  0  0  0  0  0  0  0  0  0
    8.2439  -16.9247   24.5151 C   0  0  0  0  0  0  0  0  0  0  0  0
    8.5622  -17.6250   25.5010 O   0  0  0  0  0  0  0  0  0  0  0  0
   11.3845  -16.3557   22.4977 C   0  0  0  0  0  0  0  0  0  0  0  0
   10.5779  -16.8115   23.7091 C   0  0  2  0  0  0  0  0  0  0  0  0
    9.2057  -16.3645   23.6335 N   0  0  0  0  0  0  0  0  0  0  0  0
   11.2202  -16.3657   24.9717 C   0  0  0  0  0  0  0  0  0  0  0  0
   12.4557  -16.1399   25.0263 O   0  0  0  0  0  0  0  0  0  0  0  0
   11.1098  -13.3980   26.9383 C   0  0  0  0  0  0  0  0  0  0  0  0
   10.7967  -14.4710   27.9354 C   0  0  1  0  0  0  0  0  0  0  0  0
    9.3337  -14.4267   28.2723 C   0  0  0  0  0  0  0  0  0  0  0  0
   11.1399  -15.8508   27.4356 C   0  0  2  0  0  0  0  0  0  0  0  0
   10.4870  -16.1686   26.1832 N   0  0  0  0  0  0  0  0  0  0  0  0
   10.8705  -16.8919   28.4502 C   0  0  0  0  0  0  0  0  0  0  0  0
   10.0906  -17.8402   28.2966 O   0  0  0  0  0  0  0  0  0  0  0  0
   11.5373  -16.8121   29.6753 O   0  0  0  0  0  0  0  0  0  0  0  0
  2  1  1  1
  3  2  1  0
  4  3  1  0
  4  9  2  0
  5  4  1  0
  6  5  2  0
  6  7  1  0
  7  8  2  0
  8  9  1  0
 10  2  1  0
 11 10  2  0
 13 12  1  6
 13 14  1  0
 13 15  1  0
 14 10  1  0
 15 21  1  0
 16 15  2  0
 18 20  1  0
 18 19  1  6
 18 17  1  0
 20 22  1  0
 20 21  1  6
 22 23  2  0
 22 24  1  0
M  END
$$$$
