FAV.pdb
     RDKit          3D

 24 24  0  0  1  0  0  0  0  0999 V2000
    6.7036  -16.7354   26.2374 N   0  0  0  0  0  0  0  0  0  0  0  0
    6.6721  -16.9590   24.8077 C   0  0  1  0  0  0  0  0  0  0  0  0
    5.8747  -15.9180   24.0779 C   0  0  0  0  0  0  0  0  0  0  0  0
    6.1554  -14.5441   24.4824 C   0  0  0  0  0  0  0  0  0  0  0  0
    5.5194  -14.0527   25.6116 C   0  0  0  0  0  0  0  0  0  0  0  0
    5.7235  -12.7718   26.0658 C   0  0  0  0  0  0  0  0  0  0  0  0
    6.5804  -11.9197   25.4038 C   0  0  0  0  0  0  0  0  0  0  0  0
    7.2163  -12.4017   24.2800 C   0  0  0  0  0  0  0  0  0  0  0  0
    7.0052  -13.6874   23.8325 C   0  0  0  0  0  0  0  0  0  0  0  0
    8.0323  -17.1506   24.2495 C   0  0  0  0  0  0  0  0  0  0  0  0
    8.4151  -18.2947   23.9207 O   0  0  0  0  0  0  0  0  0  0  0  0
   10.8216  -15.0949   22.9518 C   0  0  0  0  0  0  0  0  0  0  0  0
   10.2712  -16.1690   23.8841 C   0  0  2  0  0  0  0  0  0  0  0  0
    8.8539  -16.0009   24.1114 N   0  0  0  0  0  0  0  0  0  0  0  0
   11.0222  -16.1945   25.1650 C   0  0  0  0  0  0  0  0  0  0  0  0
   12.2776  -16.2597   25.1796 O   0  0  0  0  0  0  0  0  0  0  0  0
   10.4446  -13.7798   28.0875 C   0  0  0  0  0  0  0  0  0  0  0  0
   10.6024  -15.1484   28.6755 C   0  0  1  0  0  0  0  0  0  0  0  0
    9.2766  -15.6217   29.1990 C   0  0  0  0  0  0  0  0  0  0  0  0
   11.1211  -16.1551   27.6812 C   0  0  2  0  0  0  0  0  0  0  0  0
   10.3764  -16.1474   26.4397 N   0  0  0  0  0  0  0  0  0  0  0  0
   11.1825  -17.5179   28.2512 C   0  0  0  0  0  0  0  0  0  0  0  0
   10.5480  -18.4900   27.8227 O   0  0  0  0  0  0  0  0  0  0  0  0
   12.0125  -17.7389   29.3531 O   0  0  0  0  0  0  0  0  0  0  0  0
  2  1  1  1
  3  2  1  0
  4  3  1  0
  4  9  2  0
  5  4  1  0
  6  5  2  0
  6  7  1  0
  7  8  2  0
  8  9  1  0
 10  2  1  0
 11 10  2  0
 13 12  1  6
 13 14  1  0
 13 15  1  0
 14 10  1  0
 15 21  1  0
 16 15  2  0
 18 20  1  0
 18 19  1  6
 18 17  1  0
 20 22  1  0
 20 21  1  6
 22 23  2  0
 22 24  1  0
M  END
$$$$
