FAV.pdb
     RDKit          3D

 24 24  0  0  1  0  0  0  0  0999 V2000
    6.8576  -17.2982   25.9271 N   0  0  0  0  0  0  0  0  0  0  0  0
    7.4184  -16.0724   25.3999 C   0  0  1  0  0  0  0  0  0  0  0  0
    8.1348  -15.2686   26.4453 C   0  0  0  0  0  0  0  0  0  0  0  0
    7.4635  -14.0291   26.8238 C   0  0  0  0  0  0  0  0  0  0  0  0
    6.1085  -13.9124   26.5572 C   0  0  0  0  0  0  0  0  0  0  0  0
    5.3955  -12.7823   26.8787 C   0  0  0  0  0  0  0  0  0  0  0  0
    6.0132  -11.7109   27.4863 C   0  0  0  0  0  0  0  0  0  0  0  0
    7.3607  -11.8201   27.7543 C   0  0  0  0  0  0  0  0  0  0  0  0
    8.0669  -12.9571   27.4282 C   0  0  0  0  0  0  0  0  0  0  0  0
    8.2373  -16.3171   24.1883 C   0  0  0  0  0  0  0  0  0  0  0  0
    9.4519  -16.0198   24.1870 O   0  0  0  0  0  0  0  0  0  0  0  0
    8.3085  -18.6709   21.5295 C   0  0  0  0  0  0  0  0  0  0  0  0
    8.3634  -17.1873   21.8782 C   0  0  2  0  0  0  0  0  0  0  0  0
    7.5897  -16.8900   23.0620 N   0  0  0  0  0  0  0  0  0  0  0  0
    7.9271  -16.3559   20.7275 C   0  0  0  0  0  0  0  0  0  0  0  0
    6.7234  -16.3302   20.3654 O   0  0  0  0  0  0  0  0  0  0  0  0
    7.7779  -12.8385   20.3367 C   0  0  0  0  0  0  0  0  0  0  0  0
    8.5077  -13.2698   19.1018 C   0  0  1  0  0  0  0  0  0  0  0  0
    9.9596  -12.9070   19.2287 C   0  0  0  0  0  0  0  0  0  0  0  0
    8.3962  -14.7506   18.8447 C   0  0  2  0  0  0  0  0  0  0  0  0
    8.8322  -15.5468   19.9725 N   0  0  0  0  0  0  0  0  0  0  0  0
    9.1015  -15.1545   17.6096 C   0  0  0  0  0  0  0  0  0  0  0  0
   10.1334  -15.8367   17.5787 O   0  0  0  0  0  0  0  0  0  0  0  0
    8.5767  -14.7435   16.3818 O   0  0  0  0  0  0  0  0  0  0  0  0
  2  1  1  1
  3  2  1  0
  4  3  1  0
  4  9  2  0
  5  4  1  0
  6  5  2  0
  6  7  1  0
  7  8  2  0
  8  9  1  0
 10  2  1  0
 11 10  2  0
 13 12  1  6
 13 14  1  0
 13 15  1  0
 14 10  1  0
 15 21  1  0
 16 15  2  0
 18 20  1  0
 18 19  1  1
 18 17  1  0
 20 22  1  0
 20 21  1  1
 22 23  2  0
 22 24  1  0
M  END
$$$$
