FAV.pdb
     RDKit          3D

 24 24  0  0  1  0  0  0  0  0999 V2000
    6.1853  -18.3525   23.9137 N   0  0  0  0  0  0  0  0  0  0  0  0
    6.7606  -17.0551   24.1979 C   0  0  1  0  0  0  0  0  0  0  0  0
    6.0985  -16.3715   25.3584 C   0  0  0  0  0  0  0  0  0  0  0  0
    6.3616  -14.9388   25.4498 C   0  0  0  0  0  0  0  0  0  0  0  0
    6.9015  -14.4477   26.6280 C   0  0  0  0  0  0  0  0  0  0  0  0
    7.1817  -13.1135   26.8027 C   0  0  0  0  0  0  0  0  0  0  0  0
    6.9314  -12.2054   25.7971 C   0  0  0  0  0  0  0  0  0  0  0  0
    6.3944  -12.6870   24.6226 C   0  0  0  0  0  0  0  0  0  0  0  0
    6.1170  -14.0262   24.4569 C   0  0  0  0  0  0  0  0  0  0  0  0
    8.2364  -17.1218   24.3238 C   0  0  0  0  0  0  0  0  0  0  0  0
    8.7660  -18.0650   24.9512 O   0  0  0  0  0  0  0  0  0  0  0  0
   10.9930  -15.2817   22.5316 C   0  0  0  0  0  0  0  0  0  0  0  0
   10.4209  -16.2624   23.5497 C   0  0  2  0  0  0  0  0  0  0  0  0
    8.9954  -16.0891   23.7127 N   0  0  0  0  0  0  0  0  0  0  0  0
   11.1287  -16.1492   24.8504 C   0  0  0  0  0  0  0  0  0  0  0  0
   12.3832  -16.2025   24.9128 O   0  0  0  0  0  0  0  0  0  0  0  0
   10.7315  -13.4412   27.4231 C   0  0  0  0  0  0  0  0  0  0  0  0
   10.7198  -14.7269   28.1915 C   0  0  1  0  0  0  0  0  0  0  0  0
    9.3383  -14.9756   28.7258 C   0  0  0  0  0  0  0  0  0  0  0  0
   11.1397  -15.9097   27.3573 C   0  0  2  0  0  0  0  0  0  0  0  0
   10.4405  -15.9757   26.0914 N   0  0  0  0  0  0  0  0  0  0  0  0
   11.0136  -17.1837   28.0968 C   0  0  0  0  0  0  0  0  0  0  0  0
   10.2772  -18.1210   27.7648 O   0  0  0  0  0  0  0  0  0  0  0  0
   11.7745  -17.3557   29.2558 O   0  0  0  0  0  0  0  0  0  0  0  0
  2  1  1  1
  3  2  1  0
  4  3  1  0
  4  9  2  0
  5  4  1  0
  6  5  2  0
  6  7  1  0
  7  8  2  0
  8  9  1  0
 10  2  1  0
 11 10  2  0
 13 12  1  6
 13 14  1  0
 13 15  1  0
 14 10  1  0
 15 21  1  0
 16 15  2  0
 18 20  1  0
 18 19  1  6
 18 17  1  0
 20 22  1  0
 20 21  1  6
 22 23  2  0
 22 24  1  0
M  END
$$$$
