FAV.pdb
     RDKit          3D

 24 24  0  0  1  0  0  0  0  0999 V2000
    7.9209  -16.5568   26.4146 N   0  0  0  0  0  0  0  0  0  0  0  0
    7.1312  -16.0845   25.2973 C   0  0  1  0  0  0  0  0  0  0  0  0
    7.4446  -14.6641   24.9281 C   0  0  0  0  0  0  0  0  0  0  0  0
    7.0047  -13.6719   25.9039 C   0  0  0  0  0  0  0  0  0  0  0  0
    7.9615  -12.8460   26.4725 C   0  0  0  0  0  0  0  0  0  0  0  0
    7.6385  -11.8841   27.3995 C   0  0  0  0  0  0  0  0  0  0  0  0
    6.3325  -11.7056   27.8009 C   0  0  0  0  0  0  0  0  0  0  0  0
    5.3758  -12.5235   27.2395 C   0  0  0  0  0  0  0  0  0  0  0  0
    5.7094  -13.4849   26.3110 C   0  0  0  0  0  0  0  0  0  0  0  0
    7.1945  -17.0152   24.1448 C   0  0  0  0  0  0  0  0  0  0  0  0
    8.1936  -17.7518   23.9932 O   0  0  0  0  0  0  0  0  0  0  0  0
    4.7548  -18.1761   21.5384 C   0  0  0  0  0  0  0  0  0  0  0  0
    6.1490  -17.8655   22.0727 C   0  0  2  0  0  0  0  0  0  0  0  0
    6.0938  -17.0264   23.2480 N   0  0  0  0  0  0  0  0  0  0  0  0
    6.9979  -17.2572   21.0168 C   0  0  0  0  0  0  0  0  0  0  0  0
    7.1969  -17.8473   19.9247 O   0  0  0  0  0  0  0  0  0  0  0  0
    6.6836  -13.7163   19.5970 C   0  0  0  0  0  0  0  0  0  0  0  0
    8.1344  -13.9498   19.8872 C   0  0  1  0  0  0  0  0  0  0  0  0
    8.5359  -13.1517   21.0944 C   0  0  0  0  0  0  0  0  0  0  0  0
    8.4542  -15.4016   20.1346 C   0  0  2  0  0  0  0  0  0  0  0  0
    7.6311  -15.9849   21.1729 N   0  0  0  0  0  0  0  0  0  0  0  0
    9.8897  -15.6137   20.4179 C   0  0  0  0  0  0  0  0  0  0  0  0
   10.3396  -16.0607   21.4803 O   0  0  0  0  0  0  0  0  0  0  0  0
   10.8165  -15.2904   19.4236 O   0  0  0  0  0  0  0  0  0  0  0  0
  2  1  1  1
  3  2  1  0
  4  3  1  0
  4  9  2  0
  5  4  1  0
  6  5  2  0
  6  7  1  0
  7  8  2  0
  8  9  1  0
 10  2  1  0
 11 10  2  0
 13 12  1  6
 13 14  1  0
 13 15  1  0
 14 10  1  0
 15 21  1  0
 16 15  2  0
 18 20  1  0
 18 19  1  1
 18 17  1  0
 20 22  1  0
 20 21  1  1
 22 23  2  0
 22 24  1  0
M  END
$$$$
