FAV.pdb
     RDKit          3D

 24 24  0  0  1  0  0  0  0  0999 V2000
    5.8264  -16.7788   24.7350 N   0  0  0  0  0  0  0  0  0  0  0  0
    7.0205  -16.3728   24.0248 C   0  0  1  0  0  0  0  0  0  0  0  0
    6.8966  -15.0041   23.4220 C   0  0  0  0  0  0  0  0  0  0  0  0
    6.8162  -13.9178   24.3934 C   0  0  0  0  0  0  0  0  0  0  0  0
    5.9251  -14.0482   25.4469 C   0  0  0  0  0  0  0  0  0  0  0  0
    5.7828  -13.0760   26.4079 C   0  0  0  0  0  0  0  0  0  0  0  0
    6.5327  -11.9212   26.3556 C   0  0  0  0  0  0  0  0  0  0  0  0
    7.4209  -11.7849   25.3106 C   0  0  0  0  0  0  0  0  0  0  0  0
    7.5565  -12.7650   24.3520 C   0  0  0  0  0  0  0  0  0  0  0  0
    8.2383  -16.5377   24.8542 C   0  0  0  0  0  0  0  0  0  0  0  0
    8.3715  -15.8722   25.9044 O   0  0  0  0  0  0  0  0  0  0  0  0
   10.4878  -15.9113   22.9883 C   0  0  0  0  0  0  0  0  0  0  0  0
   10.5388  -16.9861   24.0690 C   0  0  2  0  0  0  0  0  0  0  0  0
    9.2175  -17.4638   24.4072 N   0  0  0  0  0  0  0  0  0  0  0  0
   11.2574  -16.4945   25.2721 C   0  0  0  0  0  0  0  0  0  0  0  0
   12.4936  -16.2678   25.2416 O   0  0  0  0  0  0  0  0  0  0  0  0
   10.1679  -13.5342   27.2511 C   0  0  0  0  0  0  0  0  0  0  0  0
   10.6097  -14.5326   28.2765 C   0  0  1  0  0  0  0  0  0  0  0  0
    9.4167  -15.0084   29.0552 C   0  0  0  0  0  0  0  0  0  0  0  0
   11.3026  -15.7254   27.6697 C   0  0  2  0  0  0  0  0  0  0  0  0
   10.6005  -16.2523   26.5186 N   0  0  0  0  0  0  0  0  0  0  0  0
   11.5539  -16.7882   28.6664 C   0  0  0  0  0  0  0  0  0  0  0  0
   12.1913  -16.6335   29.7156 O   0  0  0  0  0  0  0  0  0  0  0  0
   11.0408  -18.0639   28.4190 O   0  0  0  0  0  0  0  0  0  0  0  0
  2  1  1  1
  3  2  1  0
  4  3  1  0
  4  9  2  0
  5  4  1  0
  6  5  2  0
  6  7  1  0
  7  8  2  0
  8  9  1  0
 10  2  1  0
 11 10  2  0
 13 12  1  6
 13 14  1  0
 13 15  1  0
 14 10  1  0
 15 21  1  0
 16 15  2  0
 18 20  1  0
 18 19  1  6
 18 17  1  0
 20 22  1  0
 20 21  1  6
 22 23  2  0
 22 24  1  0
M  END
$$$$
