FAV.pdb
     RDKit          3D

 24 24  0  0  1  0  0  0  0  0999 V2000
    7.3321  -18.1141   20.3963 N   0  0  0  0  0  0  0  0  0  0  0  0
    7.6899  -16.9090   21.1138 C   0  0  1  0  0  0  0  0  0  0  0  0
    6.6558  -15.8295   20.9813 C   0  0  0  0  0  0  0  0  0  0  0  0
    7.1520  -14.4796   21.2297 C   0  0  0  0  0  0  0  0  0  0  0  0
    7.8188  -13.8295   20.2032 C   0  0  0  0  0  0  0  0  0  0  0  0
    8.3196  -12.5578   20.3475 C   0  0  0  0  0  0  0  0  0  0  0  0
    8.1734  -11.8758   21.5358 C   0  0  0  0  0  0  0  0  0  0  0  0
    7.5114  -12.5163   22.5610 C   0  0  0  0  0  0  0  0  0  0  0  0
    7.0129  -13.7912   22.4067 C   0  0  0  0  0  0  0  0  0  0  0  0
    8.0596  -17.1941   22.5210 C   0  0  0  0  0  0  0  0  0  0  0  0
    7.1754  -17.5171   23.3441 O   0  0  0  0  0  0  0  0  0  0  0  0
   10.9924  -18.5233   24.1114 C   0  0  0  0  0  0  0  0  0  0  0  0
    9.8558  -17.5095   24.1896 C   0  0  2  0  0  0  0  0  0  0  0  0
    9.4302  -17.0847   22.8755 N   0  0  0  0  0  0  0  0  0  0  0  0
   10.2384  -16.3483   25.0327 C   0  0  0  0  0  0  0  0  0  0  0  0
   11.0719  -15.4991   24.6271 O   0  0  0  0  0  0  0  0  0  0  0  0
    8.5742  -13.3260   26.5674 C   0  0  0  0  0  0  0  0  0  0  0  0
    9.1409  -14.1465   27.6851 C   0  0  1  0  0  0  0  0  0  0  0  0
    8.0371  -14.9268   28.3398 C   0  0  0  0  0  0  0  0  0  0  0  0
   10.2076  -15.1055   27.2229 C   0  0  2  0  0  0  0  0  0  0  0  0
    9.6926  -16.1269   26.3355 N   0  0  0  0  0  0  0  0  0  0  0  0
   10.9389  -15.7111   28.3562 C   0  0  0  0  0  0  0  0  0  0  0  0
   11.5591  -15.0730   29.2160 O   0  0  0  0  0  0  0  0  0  0  0  0
   10.9385  -17.1029   28.4777 O   0  0  0  0  0  0  0  0  0  0  0  0
  2  1  1  1
  3  2  1  0
  4  3  1  0
  4  9  2  0
  5  4  1  0
  6  5  2  0
  6  7  1  0
  7  8  2  0
  8  9  1  0
 10  2  1  0
 11 10  2  0
 13 12  1  6
 13 14  1  0
 13 15  1  0
 14 10  1  0
 15 21  1  0
 16 15  2  0
 18 20  1  0
 18 19  1  6
 18 17  1  0
 20 22  1  0
 20 21  1  1
 22 23  2  0
 22 24  1  0
M  END
$$$$
