FAV.pdb
     RDKit          3D

 24 24  0  0  1  0  0  0  0  0999 V2000
    5.8105  -17.3414   24.0999 N   0  0  0  0  0  0  0  0  0  0  0  0
    6.8685  -16.4348   24.4920 C   0  0  1  0  0  0  0  0  0  0  0  0
    6.6394  -15.8313   25.8468 C   0  0  0  0  0  0  0  0  0  0  0  0
    6.5627  -14.3739   25.8571 C   0  0  0  0  0  0  0  0  0  0  0  0
    5.4954  -13.7805   26.5126 C   0  0  0  0  0  0  0  0  0  0  0  0
    5.3426  -12.4160   26.5733 C   0  0  0  0  0  0  0  0  0  0  0  0
    6.2594  -11.5791   25.9753 C   0  0  0  0  0  0  0  0  0  0  0  0
    7.3234  -12.1624   25.3216 C   0  0  0  0  0  0  0  0  0  0  0  0
    7.4679  -13.5312   25.2663 C   0  0  0  0  0  0  0  0  0  0  0  0
    8.2076  -17.0548   24.3476 C   0  0  0  0  0  0  0  0  0  0  0  0
    8.4019  -18.2202   24.7570 O   0  0  0  0  0  0  0  0  0  0  0  0
   11.4454  -16.0796   22.6971 C   0  0  0  0  0  0  0  0  0  0  0  0
   10.5907  -16.7616   23.7601 C   0  0  2  0  0  0  0  0  0  0  0  0
    9.2287  -16.2789   23.7380 N   0  0  0  0  0  0  0  0  0  0  0  0
   11.1953  -16.6046   25.1074 C   0  0  0  0  0  0  0  0  0  0  0  0
   12.3384  -17.0614   25.3625 O   0  0  0  0  0  0  0  0  0  0  0  0
   10.2259  -13.4028   27.1476 C   0  0  0  0  0  0  0  0  0  0  0  0
   10.6812  -14.4409   28.1267 C   0  0  1  0  0  0  0  0  0  0  0  0
    9.5481  -14.7859   29.0501 C   0  0  0  0  0  0  0  0  0  0  0  0
   11.1660  -15.7015   27.4581 C   0  0  2  0  0  0  0  0  0  0  0  0
   10.5274  -15.9361   26.1803 N   0  0  0  0  0  0  0  0  0  0  0  0
   11.0352  -16.8824   28.3380 C   0  0  0  0  0  0  0  0  0  0  0  0
   10.3310  -17.8696   28.0921 O   0  0  0  0  0  0  0  0  0  0  0  0
   11.7526  -16.8987   29.5368 O   0  0  0  0  0  0  0  0  0  0  0  0
  2  1  1  1
  3  2  1  0
  4  3  1  0
  4  9  2  0
  5  4  1  0
  6  5  2  0
  6  7  1  0
  7  8  2  0
  8  9  1  0
 10  2  1  0
 11 10  2  0
 13 12  1  6
 13 14  1  0
 13 15  1  0
 14 10  1  0
 15 21  1  0
 16 15  2  0
 18 20  1  0
 18 19  1  1
 18 17  1  0
 20 22  1  0
 20 21  1  6
 22 23  2  0
 22 24  1  0
M  END
$$$$
