FAV.pdb
     RDKit          3D

 24 24  0  0  1  0  0  0  0  0999 V2000
    5.6732  -16.7648   22.7047 N   0  0  0  0  0  0  0  0  0  0  0  0
    7.0551  -16.3351   22.7260 C   0  0  1  0  0  0  0  0  0  0  0  0
    7.1950  -14.8411   22.7532 C   0  0  0  0  0  0  0  0  0  0  0  0
    7.5052  -14.2367   21.4614 C   0  0  0  0  0  0  0  0  0  0  0  0
    8.3612  -14.9178   20.6103 C   0  0  0  0  0  0  0  0  0  0  0  0
    8.7086  -14.4244   19.3754 C   0  0  0  0  0  0  0  0  0  0  0  0
    8.2100  -13.2177   18.9352 C   0  0  0  0  0  0  0  0  0  0  0  0
    7.3581  -12.5350   19.7766 C   0  0  0  0  0  0  0  0  0  0  0  0
    7.0158  -13.0377   21.0127 C   0  0  0  0  0  0  0  0  0  0  0  0
    7.8272  -17.0136   23.7946 C   0  0  0  0  0  0  0  0  0  0  0  0
    7.3304  -17.1445   24.9346 O   0  0  0  0  0  0  0  0  0  0  0  0
   11.1892  -18.7245   23.9658 C   0  0  0  0  0  0  0  0  0  0  0  0
    9.9904  -17.9633   24.5217 C   0  0  2  0  0  0  0  0  0  0  0  0
    9.1226  -17.4931   23.4660 N   0  0  0  0  0  0  0  0  0  0  0  0
   10.4307  -16.8451   25.3942 C   0  0  0  0  0  0  0  0  0  0  0  0
   11.2112  -15.9573   24.9664 O   0  0  0  0  0  0  0  0  0  0  0  0
    8.2964  -14.6992   27.0285 C   0  0  0  0  0  0  0  0  0  0  0  0
    9.6101  -14.4815   27.7143 C   0  0  1  0  0  0  0  0  0  0  0  0
    9.3695  -14.1624   29.1621 C   0  0  0  0  0  0  0  0  0  0  0  0
   10.5215  -15.6783   27.6241 C   0  0  2  0  0  0  0  0  0  0  0  0
   10.0023  -16.7101   26.7516 N   0  0  0  0  0  0  0  0  0  0  0  0
   10.8482  -16.2293   28.9566 C   0  0  0  0  0  0  0  0  0  0  0  0
   11.4087  -15.5985   29.8617 O   0  0  0  0  0  0  0  0  0  0  0  0
   10.5054  -17.5563   29.2277 O   0  0  0  0  0  0  0  0  0  0  0  0
  2  1  1  1
  3  2  1  0
  4  3  1  0
  4  9  2  0
  5  4  1  0
  6  5  2  0
  6  7  1  0
  7  8  2  0
  8  9  1  0
 10  2  1  0
 11 10  2  0
 13 12  1  6
 13 14  1  0
 13 15  1  0
 14 10  1  0
 15 21  1  0
 16 15  2  0
 18 20  1  0
 18 19  1  1
 18 17  1  0
 20 22  1  0
 20 21  1  6
 22 23  2  0
 22 24  1  0
M  END
$$$$
