FAV.pdb
     RDKit          3D

 24 24  0  0  1  0  0  0  0  0999 V2000
    5.9720  -17.7738   24.0144 N   0  0  0  0  0  0  0  0  0  0  0  0
    6.8589  -16.6897   24.3792 C   0  0  1  0  0  0  0  0  0  0  0  0
    6.4742  -16.0404   25.6763 C   0  0  0  0  0  0  0  0  0  0  0  0
    6.4542  -14.5814   25.6426 C   0  0  0  0  0  0  0  0  0  0  0  0
    7.3853  -13.9336   24.8461 C   0  0  0  0  0  0  0  0  0  0  0  0
    7.4399  -12.5635   24.7532 C   0  0  0  0  0  0  0  0  0  0  0  0
    6.5574  -11.7756   25.4596 C   0  0  0  0  0  0  0  0  0  0  0  0
    5.6287  -12.4132   26.2537 C   0  0  0  0  0  0  0  0  0  0  0  0
    5.5818  -13.7873   26.3403 C   0  0  0  0  0  0  0  0  0  0  0  0
    8.2823  -17.1021   24.3320 C   0  0  0  0  0  0  0  0  0  0  0  0
    8.6332  -18.1888   24.8415 O   0  0  0  0  0  0  0  0  0  0  0  0
   11.3595  -15.7467   22.6263 C   0  0  0  0  0  0  0  0  0  0  0  0
   10.6014  -16.5754   23.6580 C   0  0  2  0  0  0  0  0  0  0  0  0
    9.2000  -16.2245   23.6967 N   0  0  0  0  0  0  0  0  0  0  0  0
   11.2246  -16.4502   25.0001 C   0  0  0  0  0  0  0  0  0  0  0  0
   12.4258  -16.7692   25.1898 O   0  0  0  0  0  0  0  0  0  0  0  0
   10.6395  -13.3539   27.3336 C   0  0  0  0  0  0  0  0  0  0  0  0
   10.6406  -14.5926   28.1758 C   0  0  1  0  0  0  0  0  0  0  0  0
    9.2461  -14.8657   28.6623 C   0  0  0  0  0  0  0  0  0  0  0  0
   11.1432  -15.8036   27.4327 C   0  0  2  0  0  0  0  0  0  0  0  0
   10.5107  -15.9675   26.1409 N   0  0  0  0  0  0  0  0  0  0  0  0
   11.0255  -17.0379   28.2382 C   0  0  0  0  0  0  0  0  0  0  0  0
   10.3439  -18.0217   27.9242 O   0  0  0  0  0  0  0  0  0  0  0  0
   11.7288  -17.1129   29.4430 O   0  0  0  0  0  0  0  0  0  0  0  0
  2  1  1  1
  3  2  1  0
  4  3  1  0
  4  9  2  0
  5  4  1  0
  6  5  2  0
  6  7  1  0
  7  8  2  0
  8  9  1  0
 10  2  1  0
 11 10  2  0
 13 12  1  6
 13 14  1  0
 13 15  1  0
 14 10  1  0
 15 21  1  0
 16 15  2  0
 18 20  1  0
 18 19  1  6
 18 17  1  0
 20 22  1  0
 20 21  1  6
 22 23  2  0
 22 24  1  0
M  END
$$$$
