IFH.pdb
     RDKit          3D

 30 31  0  0  1  0  0  0  0  0999 V2000
   10.0985  -18.6028   16.4200 C   0  0  0  0  0  0  0  0  0  0  0  0
    9.5915  -18.9833   17.7947 C   0  0  0  0  0  0  0  0  0  0  0  0
    9.9006  -17.9074   18.8076 C   0  0  2  0  0  0  0  0  0  0  0  0
   11.3612  -17.5141   18.7812 C   0  0  0  0  0  0  0  0  0  0  0  0
    9.4364  -18.2409   20.1830 C   0  0  2  0  0  0  0  0  0  0  0  0
    8.1362  -18.8293   20.2413 N   0  0  0  0  0  0  0  0  0  0  0  0
    9.5171  -16.9872   21.0145 C   0  0  0  0  0  0  0  0  0  0  0  0
   10.6173  -16.3845   21.1040 O   0  0  0  0  0  0  0  0  0  0  0  0
    8.4062  -16.4651   21.6953 N   0  0  0  0  0  0  0  0  0  0  0  0
    8.5382  -15.3244   22.6445 C   0  0  1  0  0  0  0  0  0  0  0  0
    7.2314  -15.0650   23.2889 C   0  0  0  0  0  0  0  0  0  0  0  0
    7.1873  -14.0073   24.3073 C   0  0  0  0  0  0  0  0  0  0  0  0
    7.7180  -12.7325   24.0720 C   0  0  0  0  0  0  0  0  0  0  0  0
    7.6485  -11.7300   25.0127 C   0  0  0  0  0  0  0  0  0  0  0  0
    7.0484  -11.9493   26.2298 C   0  0  0  0  0  0  0  0  0  0  0  0
    6.5222  -13.1825   26.4874 C   0  0  0  0  0  0  0  0  0  0  0  0
    6.5987  -14.1773   25.5363 C   0  0  0  0  0  0  0  0  0  0  0  0
    9.7026  -15.5902   23.4523 C   0  0  0  0  0  0  0  0  0  0  0  0
   10.7349  -14.8349   23.3249 O   0  0  0  0  0  0  0  0  0  0  0  0
    9.8809  -16.6117   24.4193 N   0  0  0  0  0  0  0  0  0  0  0  0
   10.3536  -16.3414   25.7681 C   0  0  1  0  0  0  0  0  0  0  0  0
    9.4486  -15.4155   26.4987 C   0  0  0  0  0  0  0  0  0  0  0  0
    9.9314  -15.1770   27.8691 C   0  0  0  0  0  0  0  0  0  0  0  0
   11.0614  -15.6255   28.5252 C   0  0  0  0  0  0  0  0  0  0  0  0
   11.1054  -15.1969   29.7851 N   0  0  0  0  0  0  0  0  0  0  0  0
   10.0010  -14.4599   29.9713 C   0  0  0  0  0  0  0  0  0  0  0  0
    9.2859  -14.4399   28.8263 N   0  0  0  0  0  0  0  0  0  0  0  0
   10.4991  -17.6053   26.4863 C   0  0  0  0  0  0  0  0  0  0  0  0
   11.5080  -17.8261   27.1938 O   0  0  0  0  0  0  0  0  0  0  0  0
    9.5495  -18.6069   26.4292 O   0  0  0  0  0  0  0  0  0  0  0  0
  2  3  1  0
  2  1  1  0
  3  5  1  0
  3  4  1  1
  5  6  1  6
  7  8  2  0
  7  5  1  0
  9  7  1  0
 10  9  1  0
 10 11  1  1
 11 12  1  0
 12 13  2  0
 12 17  1  0
 13 14  1  0
 14 15  2  0
 16 15  1  0
 17 16  2  0
 18 10  1  0
 19 18  2  0
 20 18  1  0
 21 28  1  0
 21 20  1  0
 22 23  1  0
 21 22  1  1
 23 27  1  0
 24 23  2  0
 24 25  1  0
 25 26  1  0
 27 26  2  0
 28 30  1  0
 29 28  2  0
M  END
$$$$
