IFH.pdb
     RDKit          3D

 30 31  0  0  1  0  0  0  0  0999 V2000
   10.6270  -20.7383   19.0587 C   0  0  0  0  0  0  0  0  0  0  0  0
    9.8434  -19.4891   18.7166 C   0  0  0  0  0  0  0  0  0  0  0  0
    9.8820  -18.4929   19.8503 C   0  0  2  0  0  0  0  0  0  0  0  0
    9.5152  -19.1314   21.1718 C   0  0  0  0  0  0  0  0  0  0  0  0
    9.0845  -17.2637   19.5831 C   0  0  2  0  0  0  0  0  0  0  0  0
    9.3769  -16.6288   18.3374 N   0  0  0  0  0  0  0  0  0  0  0  0
    9.2795  -16.3248   20.7450 C   0  0  0  0  0  0  0  0  0  0  0  0
   10.4078  -15.7974   20.9202 O   0  0  0  0  0  0  0  0  0  0  0  0
    8.2454  -16.0156   21.6422 N   0  0  0  0  0  0  0  0  0  0  0  0
    8.4719  -15.1301   22.8188 C   0  0  1  0  0  0  0  0  0  0  0  0
    7.2312  -14.3812   23.1187 C   0  0  0  0  0  0  0  0  0  0  0  0
    7.1881  -13.6410   24.3868 C   0  0  0  0  0  0  0  0  0  0  0  0
    7.7953  -12.3871   24.5314 C   0  0  0  0  0  0  0  0  0  0  0  0
    7.7281  -11.6770   25.7087 C   0  0  0  0  0  0  0  0  0  0  0  0
    7.0543  -12.1813   26.7956 C   0  0  0  0  0  0  0  0  0  0  0  0
    6.4524  -13.4016   26.6840 C   0  0  0  0  0  0  0  0  0  0  0  0
    6.5276  -14.1020   25.4990 C   0  0  0  0  0  0  0  0  0  0  0  0
    9.0895  -15.9435   23.8366 C   0  0  0  0  0  0  0  0  0  0  0  0
    8.3903  -16.8530   24.4166 O   0  0  0  0  0  0  0  0  0  0  0  0
   10.4247  -15.8865   24.3102 N   0  0  0  0  0  0  0  0  0  0  0  0
   10.7599  -15.9644   25.7235 C   0  0  1  0  0  0  0  0  0  0  0  0
    9.9445  -15.0273   26.5402 C   0  0  0  0  0  0  0  0  0  0  0  0
   10.3678  -15.0501   27.9503 C   0  0  0  0  0  0  0  0  0  0  0  0
   11.3785  -15.7467   28.5843 C   0  0  0  0  0  0  0  0  0  0  0  0
   11.4024  -15.5028   29.8932 N   0  0  0  0  0  0  0  0  0  0  0  0
   10.4042  -14.6407   30.1342 C   0  0  0  0  0  0  0  0  0  0  0  0
    9.7738  -14.3603   28.9736 N   0  0  0  0  0  0  0  0  0  0  0  0
   10.5884  -17.3414   26.1805 C   0  0  0  0  0  0  0  0  0  0  0  0
    9.4848  -17.9208   26.0642 O   0  0  0  0  0  0  0  0  0  0  0  0
   11.6142  -18.0685   26.7525 O   0  0  0  0  0  0  0  0  0  0  0  0
  2  3  1  0
  2  1  1  0
  3  5  1  0
  3  4  1  1
  5  6  1  6
  7  8  2  0
  7  5  1  0
  9  7  1  0
 10  9  1  0
 10 11  1  1
 11 12  1  0
 12 13  2  0
 12 17  1  0
 13 14  1  0
 14 15  2  0
 16 15  1  0
 17 16  2  0
 18 10  1  0
 19 18  2  0
 20 18  1  0
 21 28  1  0
 21 20  1  0
 22 23  1  0
 21 22  1  1
 23 27  1  0
 24 23  2  0
 24 25  1  0
 25 26  1  0
 27 26  2  0
 28 30  1  0
 29 28  2  0
M  END
$$$$
