IFH.pdb
     RDKit          3D

 30 31  0  0  1  0  0  0  0  0999 V2000
    9.0514  -20.4795   19.0158 C   0  0  0  0  0  0  0  0  0  0  0  0
    8.9723  -18.9964   18.7231 C   0  0  0  0  0  0  0  0  0  0  0  0
    9.0354  -18.1850   19.9947 C   0  0  2  0  0  0  0  0  0  0  0  0
    8.0482  -18.6819   21.0277 C   0  0  0  0  0  0  0  0  0  0  0  0
    8.9136  -16.7183   19.7654 C   0  0  2  0  0  0  0  0  0  0  0  0
    9.7739  -16.2061   18.7466 N   0  0  0  0  0  0  0  0  0  0  0  0
    9.1384  -16.0244   21.0835 C   0  0  0  0  0  0  0  0  0  0  0  0
   10.3161  -15.8585   21.4924 O   0  0  0  0  0  0  0  0  0  0  0  0
    8.0786  -15.5546   21.8749 N   0  0  0  0  0  0  0  0  0  0  0  0
    8.3216  -14.8047   23.1392 C   0  0  1  0  0  0  0  0  0  0  0  0
    7.2149  -13.8489   23.3665 C   0  0  0  0  0  0  0  0  0  0  0  0
    7.1571  -13.1945   24.6803 C   0  0  0  0  0  0  0  0  0  0  0  0
    6.2565  -13.6053   25.6714 C   0  0  0  0  0  0  0  0  0  0  0  0
    6.2231  -13.0152   26.9145 C   0  0  0  0  0  0  0  0  0  0  0  0
    7.0833  -11.9901   27.2288 C   0  0  0  0  0  0  0  0  0  0  0  0
    7.9724  -11.5684   26.2824 C   0  0  0  0  0  0  0  0  0  0  0  0
    7.9950  -12.1683   25.0415 C   0  0  0  0  0  0  0  0  0  0  0  0
    8.6493  -15.7843   24.1454 C   0  0  0  0  0  0  0  0  0  0  0  0
    7.8197  -16.7377   24.3801 O   0  0  0  0  0  0  0  0  0  0  0  0
    9.8149  -15.8549   24.9496 N   0  0  0  0  0  0  0  0  0  0  0  0
   10.0597  -16.9439   25.8822 C   0  0  1  0  0  0  0  0  0  0  0  0
   11.4093  -17.5396   25.6987 C   0  0  0  0  0  0  0  0  0  0  0  0
   11.5009  -18.2546   24.4149 C   0  0  0  0  0  0  0  0  0  0  0  0
   10.9308  -19.4399   23.9924 C   0  0  0  0  0  0  0  0  0  0  0  0
   11.2998  -19.7524   22.7517 N   0  0  0  0  0  0  0  0  0  0  0  0
   12.1194  -18.7726   22.3442 C   0  0  0  0  0  0  0  0  0  0  0  0
   12.2488  -17.8651   23.3355 N   0  0  0  0  0  0  0  0  0  0  0  0
    9.8863  -16.4527   27.2472 C   0  0  0  0  0  0  0  0  0  0  0  0
    9.6492  -15.2431   27.4661 O   0  0  0  0  0  0  0  0  0  0  0  0
    9.9691  -17.2788   28.3512 O   0  0  0  0  0  0  0  0  0  0  0  0
  2  3  1  0
  2  1  1  0
  3  5  1  0
  3  4  1  1
  5  6  1  6
  7  8  2  0
  7  5  1  0
  9  7  1  0
 10  9  1  0
 10 11  1  1
 11 12  1  0
 12 13  2  0
 12 17  1  0
 13 14  1  0
 14 15  2  0
 16 15  1  0
 17 16  2  0
 18 10  1  0
 19 18  2  0
 20 18  1  0
 21 28  1  0
 21 20  1  0
 22 23  1  0
 21 22  1  1
 23 27  1  0
 24 23  2  0
 24 25  1  0
 25 26  1  0
 27 26  2  0
 28 30  1  0
 29 28  2  0
M  END
$$$$
