IFH.pdb
     RDKit          3D

 30 31  0  0  1  0  0  0  0  0999 V2000
    9.0217  -20.1680   18.8785 C   0  0  0  0  0  0  0  0  0  0  0  0
    8.9351  -18.6767   18.6336 C   0  0  0  0  0  0  0  0  0  0  0  0
    9.0460  -17.9040   19.9258 C   0  0  2  0  0  0  0  0  0  0  0  0
    8.0762  -18.4126   20.9695 C   0  0  0  0  0  0  0  0  0  0  0  0
    8.9464  -16.4293   19.7419 C   0  0  2  0  0  0  0  0  0  0  0  0
    9.8349  -15.8950   18.7594 N   0  0  0  0  0  0  0  0  0  0  0  0
    9.1499  -15.7812   21.0866 C   0  0  0  0  0  0  0  0  0  0  0  0
   10.3001  -15.7797   21.5950 O   0  0  0  0  0  0  0  0  0  0  0  0
    8.0998  -15.1770   21.7954 N   0  0  0  0  0  0  0  0  0  0  0  0
    8.3192  -14.5443   23.1263 C   0  0  1  0  0  0  0  0  0  0  0  0
    7.2300  -13.5806   23.4000 C   0  0  0  0  0  0  0  0  0  0  0  0
    7.1537  -13.0274   24.7587 C   0  0  0  0  0  0  0  0  0  0  0  0
    7.9794  -11.9756   25.1757 C   0  0  0  0  0  0  0  0  0  0  0  0
    7.8870  -11.4339   26.4377 C   0  0  0  0  0  0  0  0  0  0  0  0
    6.9696  -11.9131   27.3423 C   0  0  0  0  0  0  0  0  0  0  0  0
    6.1511  -12.9382   26.9638 C   0  0  0  0  0  0  0  0  0  0  0  0
    6.2544  -13.4713   25.6968 C   0  0  0  0  0  0  0  0  0  0  0  0
    8.5880  -15.6146   24.0545 C   0  0  0  0  0  0  0  0  0  0  0  0
    7.8995  -16.6971   23.9735 O   0  0  0  0  0  0  0  0  0  0  0  0
    9.5539  -15.6499   25.0918 N   0  0  0  0  0  0  0  0  0  0  0  0
   10.0707  -16.8939   25.6405 C   0  0  1  0  0  0  0  0  0  0  0  0
   11.2328  -17.4025   24.8654 C   0  0  0  0  0  0  0  0  0  0  0  0
   11.6770  -18.7100   25.3764 C   0  0  0  0  0  0  0  0  0  0  0  0
   11.0672  -19.6051   26.2340 C   0  0  0  0  0  0  0  0  0  0  0  0
   11.8339  -20.6687   26.4667 N   0  0  0  0  0  0  0  0  0  0  0  0
   12.9596  -20.4833   25.7624 C   0  0  0  0  0  0  0  0  0  0  0  0
   12.8781  -19.3085   25.1019 N   0  0  0  0  0  0  0  0  0  0  0  0
   10.4274  -16.6868   27.0421 C   0  0  0  0  0  0  0  0  0  0  0  0
   10.6574  -15.5368   27.4800 O   0  0  0  0  0  0  0  0  0  0  0  0
   10.5261  -17.7266   27.9460 O   0  0  0  0  0  0  0  0  0  0  0  0
  2  3  1  0
  2  1  1  0
  3  5  1  0
  3  4  1  1
  5  6  1  6
  7  8  2  0
  7  5  1  0
  9  7  1  0
 10  9  1  0
 10 11  1  1
 11 12  1  0
 12 13  2  0
 12 17  1  0
 13 14  1  0
 14 15  2  0
 16 15  1  0
 17 16  2  0
 18 10  1  0
 19 18  2  0
 20 18  1  0
 21 28  1  0
 21 20  1  0
 22 23  1  0
 21 22  1  6
 23 27  1  0
 24 23  2  0
 24 25  1  0
 25 26  1  0
 27 26  2  0
 28 30  1  0
 29 28  2  0
M  END
$$$$
