IFH.pdb
     RDKit          3D

 30 31  0  0  1  0  0  0  0  0999 V2000
    8.6542  -20.2633   18.8904 C   0  0  0  0  0  0  0  0  0  0  0  0
    8.3160  -18.8025   18.6826 C   0  0  0  0  0  0  0  0  0  0  0  0
    8.5732  -17.9992   19.9347 C   0  0  2  0  0  0  0  0  0  0  0  0
    7.8541  -18.5800   21.1323 C   0  0  0  0  0  0  0  0  0  0  0  0
    8.2987  -16.5446   19.7694 C   0  0  2  0  0  0  0  0  0  0  0  0
    8.9241  -15.9509   18.6307 N   0  0  0  0  0  0  0  0  0  0  0  0
    8.6962  -15.8514   21.0465 C   0  0  0  0  0  0  0  0  0  0  0  0
    9.9154  -15.6403   21.2719 O   0  0  0  0  0  0  0  0  0  0  0  0
    7.7532  -15.4308   21.9973 N   0  0  0  0  0  0  0  0  0  0  0  0
    8.1579  -14.6770   23.2171 C   0  0  1  0  0  0  0  0  0  0  0  0
    7.0907  -13.7186   23.5815 C   0  0  0  0  0  0  0  0  0  0  0  0
    7.2188  -13.0373   24.8765 C   0  0  0  0  0  0  0  0  0  0  0  0
    8.1110  -11.9745   25.0671 C   0  0  0  0  0  0  0  0  0  0  0  0
    8.2092  -11.3132   26.2703 C   0  0  0  0  0  0  0  0  0  0  0  0
    7.4248  -11.6784   27.3385 C   0  0  0  0  0  0  0  0  0  0  0  0
    6.5456  -12.7111   27.1822 C   0  0  0  0  0  0  0  0  0  0  0  0
    6.4577  -13.3647   25.9716 C   0  0  0  0  0  0  0  0  0  0  0  0
    8.6111  -15.6536   24.1762 C   0  0  0  0  0  0  0  0  0  0  0  0
    7.8200  -16.6086   24.5143 O   0  0  0  0  0  0  0  0  0  0  0  0
    9.8681  -15.7196   24.8289 N   0  0  0  0  0  0  0  0  0  0  0  0
   10.2505  -16.8322   25.6843 C   0  0  1  0  0  0  0  0  0  0  0  0
   11.7119  -17.0988   25.6289 C   0  0  0  0  0  0  0  0  0  0  0  0
   12.1081  -17.5965   24.3010 C   0  0  0  0  0  0  0  0  0  0  0  0
   11.3514  -18.0500   23.2379 C   0  0  0  0  0  0  0  0  0  0  0  0
   12.1138  -18.4435   22.2195 N   0  0  0  0  0  0  0  0  0  0  0  0
   13.3840  -18.2525   22.6039 C   0  0  0  0  0  0  0  0  0  0  0  0
   13.3945  -17.7433   23.8543 N   0  0  0  0  0  0  0  0  0  0  0  0
    9.8215  -16.5529   27.0527 C   0  0  0  0  0  0  0  0  0  0  0  0
    9.3445  -15.4364   27.3578 O   0  0  0  0  0  0  0  0  0  0  0  0
    9.9130  -17.4870   28.0662 O   0  0  0  0  0  0  0  0  0  0  0  0
  2  3  1  0
  2  1  1  0
  3  5  1  0
  3  4  1  1
  5  6  1  6
  7  8  2  0
  7  5  1  0
  9  7  1  0
 10  9  1  0
 10 11  1  1
 11 12  1  0
 12 13  2  0
 12 17  1  0
 13 14  1  0
 14 15  2  0
 16 15  1  0
 17 16  2  0
 18 10  1  0
 19 18  2  0
 20 18  1  0
 21 28  1  0
 21 20  1  0
 22 23  1  0
 21 22  1  1
 23 27  1  0
 24 23  2  0
 24 25  1  0
 25 26  1  0
 27 26  2  0
 28 30  1  0
 29 28  2  0
M  END
$$$$
