IFH.pdb
     RDKit          3D

 30 31  0  0  1  0  0  0  0  0999 V2000
    9.4921  -20.9023   19.8742 C   0  0  0  0  0  0  0  0  0  0  0  0
    8.6977  -19.6553   19.5495 C   0  0  0  0  0  0  0  0  0  0  0  0
    8.9040  -18.5884   20.5974 C   0  0  2  0  0  0  0  0  0  0  0  0
    8.7046  -19.1289   21.9963 C   0  0  0  0  0  0  0  0  0  0  0  0
    8.0999  -17.3585   20.3537 C   0  0  2  0  0  0  0  0  0  0  0  0
    8.2692  -16.7896   19.0545 N   0  0  0  0  0  0  0  0  0  0  0  0
    8.4281  -16.3688   21.4411 C   0  0  0  0  0  0  0  0  0  0  0  0
    9.5315  -15.7665   21.4047 O   0  0  0  0  0  0  0  0  0  0  0  0
    7.5453  -16.0932   22.4968 N   0  0  0  0  0  0  0  0  0  0  0  0
    7.8922  -15.1199   23.5702 C   0  0  1  0  0  0  0  0  0  0  0  0
    6.6764  -14.3814   23.9784 C   0  0  0  0  0  0  0  0  0  0  0  0
    6.8186  -13.4163   25.0766 C   0  0  0  0  0  0  0  0  0  0  0  0
    7.4357  -12.1725   24.8918 C   0  0  0  0  0  0  0  0  0  0  0  0
    7.5408  -11.2533   25.9110 C   0  0  0  0  0  0  0  0  0  0  0  0
    7.0372  -11.5289   27.1600 C   0  0  0  0  0  0  0  0  0  0  0  0
    6.4302  -12.7336   27.3698 C   0  0  0  0  0  0  0  0  0  0  0  0
    6.3318  -13.6449   26.3402 C   0  0  0  0  0  0  0  0  0  0  0  0
    8.6629  -15.8426   24.5514 C   0  0  0  0  0  0  0  0  0  0  0  0
    8.0456  -16.5058   25.4633 O   0  0  0  0  0  0  0  0  0  0  0  0
   10.0736  -15.9372   24.6582 N   0  0  0  0  0  0  0  0  0  0  0  0
   10.7314  -16.7183   25.6940 C   0  0  1  0  0  0  0  0  0  0  0  0
   10.5669  -18.1796   25.4765 C   0  0  0  0  0  0  0  0  0  0  0  0
    9.3285  -18.6708   26.1034 C   0  0  0  0  0  0  0  0  0  0  0  0
    8.3928  -18.0290   26.8915 C   0  0  0  0  0  0  0  0  0  0  0  0
    7.4253  -18.8555   27.2840 N   0  0  0  0  0  0  0  0  0  0  0  0
    7.7160  -20.0534   26.7565 C   0  0  0  0  0  0  0  0  0  0  0  0
    8.8587  -19.9560   26.0440 N   0  0  0  0  0  0  0  0  0  0  0  0
   12.1452  -16.3529   25.7433 C   0  0  0  0  0  0  0  0  0  0  0  0
   13.0353  -17.2267   25.6368 O   0  0  0  0  0  0  0  0  0  0  0  0
   12.5712  -15.0488   25.9039 O   0  0  0  0  0  0  0  0  0  0  0  0
  2  3  1  0
  2  1  1  0
  3  5  1  0
  3  4  1  1
  5  6  1  6
  7  8  2  0
  7  5  1  0
  9  7  1  0
 10  9  1  0
 10 11  1  1
 11 12  1  0
 12 13  2  0
 12 17  1  0
 13 14  1  0
 14 15  2  0
 16 15  1  0
 17 16  2  0
 18 10  1  0
 19 18  2  0
 20 18  1  0
 21 28  1  0
 21 20  1  0
 22 23  1  0
 21 22  1  6
 23 27  1  0
 24 23  2  0
 24 25  1  0
 25 26  1  0
 27 26  2  0
 28 30  1  0
 29 28  2  0
M  END
$$$$
