IFH.pdb
     RDKit          3D

 30 31  0  0  1  0  0  0  0  0999 V2000
    6.9830  -12.0393   19.7920 C   0  0  0  0  0  0  0  0  0  0  0  0
    7.1884  -13.3140   20.5823 C   0  0  0  0  0  0  0  0  0  0  0  0
    8.0224  -14.3070   19.8093 C   0  0  2  0  0  0  0  0  0  0  0  0
    7.4889  -14.5196   18.4097 C   0  0  0  0  0  0  0  0  0  0  0  0
    8.2270  -15.5939   20.5308 C   0  0  2  0  0  0  0  0  0  0  0  0
    7.0233  -16.3048   20.8240 N   0  0  0  0  0  0  0  0  0  0  0  0
    9.0189  -15.3029   21.7790 C   0  0  0  0  0  0  0  0  0  0  0  0
   10.1436  -14.7503   21.6727 O   0  0  0  0  0  0  0  0  0  0  0  0
    8.5464  -15.6267   23.0604 N   0  0  0  0  0  0  0  0  0  0  0  0
    9.3733  -15.3966   24.2781 C   0  0  1  0  0  0  0  0  0  0  0  0
    8.4910  -15.2969   25.4621 C   0  0  0  0  0  0  0  0  0  0  0  0
    9.1312  -14.9888   26.7478 C   0  0  0  0  0  0  0  0  0  0  0  0
    9.3940  -13.6716   27.1454 C   0  0  0  0  0  0  0  0  0  0  0  0
    9.9637  -13.3789   28.3638 C   0  0  0  0  0  0  0  0  0  0  0  0
   10.2979  -14.3821   29.2421 C   0  0  0  0  0  0  0  0  0  0  0  0
   10.0532  -15.6760   28.8816 C   0  0  0  0  0  0  0  0  0  0  0  0
    9.4822  -15.9549   27.6584 C   0  0  0  0  0  0  0  0  0  0  0  0
   10.4355  -16.3713   24.2479 C   0  0  0  0  0  0  0  0  0  0  0  0
   10.1682  -17.5727   23.8770 O   0  0  0  0  0  0  0  0  0  0  0  0
   11.8016  -16.1859   24.5791 N   0  0  0  0  0  0  0  0  0  0  0  0
   12.7777  -17.2624   24.5141 C   0  0  1  0  0  0  0  0  0  0  0  0
   14.0380  -16.8304   23.8545 C   0  0  0  0  0  0  0  0  0  0  0  0
   15.0193  -17.9276   23.8207 C   0  0  0  0  0  0  0  0  0  0  0  0
   14.9270  -19.2141   23.3258 C   0  0  0  0  0  0  0  0  0  0  0  0
   16.0485  -19.9035   23.5265 N   0  0  0  0  0  0  0  0  0  0  0  0
   16.8924  -19.0748   24.1578 C   0  0  0  0  0  0  0  0  0  0  0  0
   16.2855  -17.8828   24.3410 N   0  0  0  0  0  0  0  0  0  0  0  0
   13.0369  -17.7551   25.8649 C   0  0  0  0  0  0  0  0  0  0  0  0
   13.0322  -16.9732   26.8425 O   0  0  0  0  0  0  0  0  0  0  0  0
   13.2935  -19.0852   26.1350 O   0  0  0  0  0  0  0  0  0  0  0  0
  2  3  1  0
  2  1  1  0
  3  5  1  0
  3  4  1  6
  5  6  1  1
  7  8  2  0
  7  5  1  0
  9  7  1  0
 10  9  1  0
 10 11  1  1
 11 12  1  0
 12 13  2  0
 12 17  1  0
 13 14  1  0
 14 15  2  0
 16 15  1  0
 17 16  2  0
 18 10  1  0
 19 18  2  0
 20 18  1  0
 21 28  1  0
 21 20  1  0
 22 23  1  0
 21 22  1  1
 23 27  1  0
 24 23  2  0
 24 25  1  0
 25 26  1  0
 27 26  2  0
 28 30  1  0
 29 28  2  0
M  END
$$$$
