IFH.pdb
     RDKit          3D

 30 31  0  0  1  0  0  0  0  0999 V2000
   10.0224  -20.3861   19.2223 C   0  0  0  0  0  0  0  0  0  0  0  0
    9.4863  -18.9941   18.9641 C   0  0  0  0  0  0  0  0  0  0  0  0
    9.5683  -18.1387   20.2054 C   0  0  2  0  0  0  0  0  0  0  0  0
    8.9719  -18.8357   21.4084 C   0  0  0  0  0  0  0  0  0  0  0  0
    9.0088  -16.7712   20.0176 C   0  0  2  0  0  0  0  0  0  0  0  0
    9.5069  -16.0813   18.8703 N   0  0  0  0  0  0  0  0  0  0  0  0
    9.2547  -15.9934   21.2842 C   0  0  0  0  0  0  0  0  0  0  0  0
   10.4134  -15.5662   21.5223 O   0  0  0  0  0  0  0  0  0  0  0  0
    8.2353  -15.7271   22.2115 N   0  0  0  0  0  0  0  0  0  0  0  0
    8.4901  -14.9283   23.4431 C   0  0  1  0  0  0  0  0  0  0  0  0
    7.3307  -14.0478   23.7087 C   0  0  0  0  0  0  0  0  0  0  0  0
    7.3180  -13.3285   24.9895 C   0  0  0  0  0  0  0  0  0  0  0  0
    6.5072  -13.7349   26.0570 C   0  0  0  0  0  0  0  0  0  0  0  0
    6.5181  -13.0823   27.2689 C   0  0  0  0  0  0  0  0  0  0  0  0
    7.3355  -11.9963   27.4746 C   0  0  0  0  0  0  0  0  0  0  0  0
    8.1370  -11.5774   26.4518 C   0  0  0  0  0  0  0  0  0  0  0  0
    8.1161  -12.2402   25.2433 C   0  0  0  0  0  0  0  0  0  0  0  0
    8.9405  -15.8549   24.4520 C   0  0  0  0  0  0  0  0  0  0  0  0
    8.2104  -16.8753   24.7312 O   0  0  0  0  0  0  0  0  0  0  0  0
   10.1346  -15.8040   25.2148 N   0  0  0  0  0  0  0  0  0  0  0  0
   10.4726  -16.8086   26.2110 C   0  0  1  0  0  0  0  0  0  0  0  0
   11.9263  -17.1194   26.2155 C   0  0  0  0  0  0  0  0  0  0  0  0
   12.3391  -17.7331   24.9423 C   0  0  0  0  0  0  0  0  0  0  0  0
   11.6002  -18.3343   23.9418 C   0  0  0  0  0  0  0  0  0  0  0  0
   12.3754  -18.7931   22.9612 N   0  0  0  0  0  0  0  0  0  0  0  0
   13.6363  -18.4976   23.3080 C   0  0  0  0  0  0  0  0  0  0  0  0
   13.6285  -17.8597   24.4979 N   0  0  0  0  0  0  0  0  0  0  0  0
   10.0328  -16.3459   27.5252 C   0  0  0  0  0  0  0  0  0  0  0  0
    9.5662  -15.1938   27.6741 O   0  0  0  0  0  0  0  0  0  0  0  0
   10.1025  -17.1383   28.6544 O   0  0  0  0  0  0  0  0  0  0  0  0
  2  3  1  0
  2  1  1  0
  3  5  1  0
  3  4  1  1
  5  6  1  6
  7  8  2  0
  7  5  1  0
  9  7  1  0
 10  9  1  0
 10 11  1  1
 11 12  1  0
 12 13  2  0
 12 17  1  0
 13 14  1  0
 14 15  2  0
 16 15  1  0
 17 16  2  0
 18 10  1  0
 19 18  2  0
 20 18  1  0
 21 28  1  0
 21 20  1  0
 22 23  1  0
 21 22  1  1
 23 27  1  0
 24 23  2  0
 24 25  1  0
 25 26  1  0
 27 26  2  0
 28 30  1  0
 29 28  2  0
M  END
$$$$
