IFH.pdb
     RDKit          3D

 30 31  0  0  1  0  0  0  0  0999 V2000
    8.5666  -17.4464   16.8662 C   0  0  0  0  0  0  0  0  0  0  0  0
    7.9825  -16.1119   17.2779 C   0  0  0  0  0  0  0  0  0  0  0  0
    8.2834  -15.8078   18.7257 C   0  0  2  0  0  0  0  0  0  0  0  0
    7.8309  -16.9248   19.6402 C   0  0  0  0  0  0  0  0  0  0  0  0
    7.7717  -14.4810   19.1687 C   0  0  2  0  0  0  0  0  0  0  0  0
    8.1236  -13.3952   18.3098 N   0  0  0  0  0  0  0  0  0  0  0  0
    8.2468  -14.2502   20.5796 C   0  0  0  0  0  0  0  0  0  0  0  0
    9.4608  -13.9897   20.7795 O   0  0  0  0  0  0  0  0  0  0  0  0
    7.3818  -14.3154   21.6831 N   0  0  0  0  0  0  0  0  0  0  0  0
    7.8449  -13.9786   23.0585 C   0  0  1  0  0  0  0  0  0  0  0  0
    6.8516  -13.0973   23.7117 C   0  0  0  0  0  0  0  0  0  0  0  0
    7.0879  -12.7534   25.1201 C   0  0  0  0  0  0  0  0  0  0  0  0
    7.9277  -11.6957   25.4915 C   0  0  0  0  0  0  0  0  0  0  0  0
    8.1248  -11.3509   26.8095 C   0  0  0  0  0  0  0  0  0  0  0  0
    7.4961  -12.0419   27.8179 C   0  0  0  0  0  0  0  0  0  0  0  0
    6.6714  -13.0780   27.4859 C   0  0  0  0  0  0  0  0  0  0  0  0
    6.4830  -13.4126   26.1619 C   0  0  0  0  0  0  0  0  0  0  0  0
    8.2300  -15.2206   23.6817 C   0  0  0  0  0  0  0  0  0  0  0  0
    7.3806  -16.1844   23.7271 O   0  0  0  0  0  0  0  0  0  0  0  0
    9.4739  -15.5514   24.2763 N   0  0  0  0  0  0  0  0  0  0  0  0
    9.7191  -16.8315   24.9220 C   0  0  1  0  0  0  0  0  0  0  0  0
   11.0264  -17.4147   24.5208 C   0  0  0  0  0  0  0  0  0  0  0  0
   11.0696  -17.6663   23.0707 C   0  0  0  0  0  0  0  0  0  0  0  0
   10.0574  -17.8791   22.1549 C   0  0  0  0  0  0  0  0  0  0  0  0
   10.5347  -18.1020   20.9320 N   0  0  0  0  0  0  0  0  0  0  0  0
   11.8703  -18.0382   21.0313 C   0  0  0  0  0  0  0  0  0  0  0  0
   12.2052  -17.7768   22.3129 N   0  0  0  0  0  0  0  0  0  0  0  0
    9.6467  -16.6580   26.3709 C   0  0  0  0  0  0  0  0  0  0  0  0
    9.7974  -17.6342   27.1399 O   0  0  0  0  0  0  0  0  0  0  0  0
    9.4157  -15.4314   26.9625 O   0  0  0  0  0  0  0  0  0  0  0  0
  2  3  1  0
  2  1  1  0
  3  5  1  0
  3  4  1  1
  5  6  1  6
  7  8  2  0
  7  5  1  0
  9  7  1  0
 10  9  1  0
 10 11  1  1
 11 12  1  0
 12 13  2  0
 12 17  1  0
 13 14  1  0
 14 15  2  0
 16 15  1  0
 17 16  2  0
 18 10  1  0
 19 18  2  0
 20 18  1  0
 21 28  1  0
 21 20  1  0
 22 23  1  0
 21 22  1  1
 23 27  1  0
 24 23  2  0
 24 25  1  0
 25 26  1  0
 27 26  2  0
 28 30  1  0
 29 28  2  0
M  END
$$$$
