IFH.pdb
     RDKit          3D

 30 31  0  0  1  0  0  0  0  0999 V2000
    9.0209  -20.2090   18.8459 C   0  0  0  0  0  0  0  0  0  0  0  0
    9.1469  -18.7190   18.6098 C   0  0  0  0  0  0  0  0  0  0  0  0
    9.2010  -17.9623   19.9150 C   0  0  2  0  0  0  0  0  0  0  0  0
    8.0980  -18.3894   20.8582 C   0  0  0  0  0  0  0  0  0  0  0  0
    9.2441  -16.4839   19.7386 C   0  0  2  0  0  0  0  0  0  0  0  0
   10.2816  -16.0222   18.8721 N   0  0  0  0  0  0  0  0  0  0  0  0
    9.3419  -15.8582   21.1055 C   0  0  0  0  0  0  0  0  0  0  0  0
   10.4390  -15.9012   21.7189 O   0  0  0  0  0  0  0  0  0  0  0  0
    8.2503  -15.2269   21.7221 N   0  0  0  0  0  0  0  0  0  0  0  0
    8.3678  -14.6069   23.0716 C   0  0  1  0  0  0  0  0  0  0  0  0
    7.3160  -13.5787   23.2356 C   0  0  0  0  0  0  0  0  0  0  0  0
    7.1287  -13.0241   24.5828 C   0  0  0  0  0  0  0  0  0  0  0  0
    6.2151  -13.5772   25.4890 C   0  0  0  0  0  0  0  0  0  0  0  0
    6.0615  -13.0796   26.7632 C   0  0  0  0  0  0  0  0  0  0  0  0
    6.8091  -12.0096   27.1942 C   0  0  0  0  0  0  0  0  0  0  0  0
    7.7080  -11.4497   26.3325 C   0  0  0  0  0  0  0  0  0  0  0  0
    7.8515  -11.9581   25.0592 C   0  0  0  0  0  0  0  0  0  0  0  0
    8.4738  -15.6901   24.0174 C   0  0  0  0  0  0  0  0  0  0  0  0
    7.6924  -16.7033   23.8943 O   0  0  0  0  0  0  0  0  0  0  0  0
    9.3634  -15.8081   25.1151 N   0  0  0  0  0  0  0  0  0  0  0  0
    9.9717  -17.0722   25.4996 C   0  0  1  0  0  0  0  0  0  0  0  0
   11.0448  -17.4821   24.5560 C   0  0  0  0  0  0  0  0  0  0  0  0
   11.6587  -18.7534   24.9742 C   0  0  0  0  0  0  0  0  0  0  0  0
   11.4266  -19.5556   26.0747 C   0  0  0  0  0  0  0  0  0  0  0  0
   12.2313  -20.6164   26.0927 N   0  0  0  0  0  0  0  0  0  0  0  0
   13.0036  -20.5222   25.0008 C   0  0  0  0  0  0  0  0  0  0  0  0
   12.6693  -19.4057   24.3192 N   0  0  0  0  0  0  0  0  0  0  0  0
   10.4881  -16.9599   26.8617 C   0  0  0  0  0  0  0  0  0  0  0  0
   11.1520  -17.8902   27.3725 O   0  0  0  0  0  0  0  0  0  0  0  0
   10.2800  -15.8421   27.6462 O   0  0  0  0  0  0  0  0  0  0  0  0
  2  3  1  0
  2  1  1  0
  3  5  1  0
  3  4  1  1
  5  6  1  6
  7  8  2  0
  7  5  1  0
  9  7  1  0
 10  9  1  0
 10 11  1  1
 11 12  1  0
 12 13  2  0
 12 17  1  0
 13 14  1  0
 14 15  2  0
 16 15  1  0
 17 16  2  0
 18 10  1  0
 19 18  2  0
 20 18  1  0
 21 28  1  0
 21 20  1  0
 22 23  1  0
 21 22  1  6
 23 27  1  0
 24 23  2  0
 24 25  1  0
 25 26  1  0
 27 26  2  0
 28 30  1  0
 29 28  2  0
M  END
$$$$
