IFH.pdb
     RDKit          3D

 30 31  0  0  1  0  0  0  0  0999 V2000
    8.7296  -20.7273   19.0630 C   0  0  0  0  0  0  0  0  0  0  0  0
    8.7993  -19.2501   18.7398 C   0  0  0  0  0  0  0  0  0  0  0  0
    8.8388  -18.4173   19.9984 C   0  0  2  0  0  0  0  0  0  0  0  0
    7.7753  -18.8424   20.9868 C   0  0  0  0  0  0  0  0  0  0  0  0
    8.8050  -16.9513   19.7372 C   0  0  2  0  0  0  0  0  0  0  0  0
    9.6856  -16.5153   18.7005 N   0  0  0  0  0  0  0  0  0  0  0  0
    9.0839  -16.2437   21.0377 C   0  0  0  0  0  0  0  0  0  0  0  0
   10.2739  -16.1351   21.4299 O   0  0  0  0  0  0  0  0  0  0  0  0
    8.0615  -15.6994   21.8305 N   0  0  0  0  0  0  0  0  0  0  0  0
    8.3586  -14.9787   23.1001 C   0  0  1  0  0  0  0  0  0  0  0  0
    7.3402  -13.9278   23.3209 C   0  0  0  0  0  0  0  0  0  0  0  0
    7.3734  -13.2263   24.6110 C   0  0  0  0  0  0  0  0  0  0  0  0
    6.4407  -13.4931   25.6214 C   0  0  0  0  0  0  0  0  0  0  0  0
    6.4898  -12.8608   26.8430 C   0  0  0  0  0  0  0  0  0  0  0  0
    7.4683  -11.9346   27.1157 C   0  0  0  0  0  0  0  0  0  0  0  0
    8.3914  -11.6541   26.1497 C   0  0  0  0  0  0  0  0  0  0  0  0
    8.3305  -12.2948   24.9307 C   0  0  0  0  0  0  0  0  0  0  0  0
    8.5867  -15.9871   24.1053 C   0  0  0  0  0  0  0  0  0  0  0  0
    7.6452  -16.8184   24.3787 O   0  0  0  0  0  0  0  0  0  0  0  0
    9.7598  -16.2093   24.8700 N   0  0  0  0  0  0  0  0  0  0  0  0
    9.8748  -17.2929   25.8334 C   0  0  1  0  0  0  0  0  0  0  0  0
   11.1227  -18.0775   25.6408 C   0  0  0  0  0  0  0  0  0  0  0  0
   11.0982  -18.8028   24.3596 C   0  0  0  0  0  0  0  0  0  0  0  0
   10.0750  -19.4670   23.7112 C   0  0  0  0  0  0  0  0  0  0  0  0
   10.4879  -20.0222   22.5735 N   0  0  0  0  0  0  0  0  0  0  0  0
   11.7913  -19.7281   22.4619 C   0  0  0  0  0  0  0  0  0  0  0  0
   12.1710  -18.9948   23.5300 N   0  0  0  0  0  0  0  0  0  0  0  0
    9.8076  -16.7409   27.1845 C   0  0  0  0  0  0  0  0  0  0  0  0
    9.7028  -15.5068   27.3663 O   0  0  0  0  0  0  0  0  0  0  0  0
    9.8517  -17.5336   28.3149 O   0  0  0  0  0  0  0  0  0  0  0  0
  2  3  1  0
  2  1  1  0
  3  5  1  0
  3  4  1  1
  5  6  1  6
  7  8  2  0
  7  5  1  0
  9  7  1  0
 10  9  1  0
 10 11  1  1
 11 12  1  0
 12 13  2  0
 12 17  1  0
 13 14  1  0
 14 15  2  0
 16 15  1  0
 17 16  2  0
 18 10  1  0
 19 18  2  0
 20 18  1  0
 21 28  1  0
 21 20  1  0
 22 23  1  0
 21 22  1  1
 23 27  1  0
 24 23  2  0
 24 25  1  0
 25 26  1  0
 27 26  2  0
 28 30  1  0
 29 28  2  0
M  END
$$$$
