PWH.pdb
     RDKit          3D

 32 35  0  0  1  0  0  0  0  0999 V2000
   27.2886  -19.2027  -13.4858 N   0  0  0  0  0  0  0  0  0  0  0  0
   28.6247  -18.8783  -13.1230 C   0  0  0  0  0  0  0  0  0  0  0  0
   29.4110  -19.5719  -14.2427 C   0  0  0  0  0  0  0  0  0  0  0  0
   28.6410  -20.8829  -14.3517 C   0  0  0  0  0  0  0  0  0  0  0  0
   27.3019  -20.6187  -13.7039 C   0  0  1  0  0  0  0  0  0  0  0  0
   27.1306  -21.3844  -12.4509 C   0  0  0  0  0  0  0  0  0  0  0  0
   27.1284  -22.6696  -12.4614 O   0  0  0  0  0  0  0  0  0  0  0  0
   26.9616  -20.8102  -11.1878 N   0  0  0  0  0  0  0  0  0  0  0  0
   26.0633  -21.3896  -10.1715 C   0  0  1  0  0  0  0  0  0  0  0  0
   26.8443  -21.5479   -8.9178 C   0  0  0  0  0  0  0  0  0  0  0  0
   26.9675  -20.3666   -8.0700 C   0  0  0  0  0  0  0  0  0  0  0  0
   26.4953  -19.0876   -8.1377 C   0  0  0  0  0  0  0  0  0  0  0  0
   26.9097  -18.3567   -7.0768 N   0  0  0  0  0  0  0  0  0  0  0  0
   27.6605  -19.1638   -6.3069 C   0  0  0  0  0  0  0  0  0  0  0  0
   28.3454  -18.9681   -5.1024 C   0  0  0  0  0  0  0  0  0  0  0  0
   29.0620  -19.9653   -4.4917 C   0  0  0  0  0  0  0  0  0  0  0  0
   29.1117  -21.2053   -5.0822 C   0  0  0  0  0  0  0  0  0  0  0  0
   28.4464  -21.4023   -6.2557 C   0  0  0  0  0  0  0  0  0  0  0  0
   27.7175  -20.4092   -6.8883 C   0  0  0  0  0  0  0  0  0  0  0  0
   24.9524  -20.4060   -9.8986 C   0  0  0  0  0  0  0  0  0  0  0  0
   25.2555  -19.2694   -9.5311 O   0  0  0  0  0  0  0  0  0  0  0  0
   23.6045  -20.7863  -10.0624 N   0  0  0  0  0  0  0  0  0  0  0  0
   22.6774  -19.9901  -10.9064 C   0  0  1  0  0  0  0  0  0  0  0  0
   23.2067  -19.9490  -12.3104 C   0  0  0  0  0  0  0  0  0  0  0  0
   22.3558  -19.2034  -13.2596 C   0  0  0  0  0  0  0  0  0  0  0  0
   21.1594  -18.5547  -12.9462 C   0  0  0  0  0  0  0  0  0  0  0  0
   20.6505  -17.9818  -14.0379 N   0  0  0  0  0  0  0  0  0  0  0  0
   21.4776  -18.2383  -15.0472 C   0  0  0  0  0  0  0  0  0  0  0  0
   22.5106  -18.9783  -14.5752 N   0  0  0  0  0  0  0  0  0  0  0  0
   21.3305  -20.6154  -10.8175 C   0  0  0  0  0  0  0  0  0  0  0  0
   20.2421  -20.0249  -10.9720 O   0  0  0  0  0  0  0  0  0  0  0  0
   21.2609  -21.9748  -10.5387 O   0  0  0  0  0  0  0  0  0  0  0  0
  1  2  1  0
  1  5  1  0
  2  3  1  0
  3  4  1  0
  5  4  1  0
  5  6  1  1
  6  7  2  0
  8  9  1  0
  8  6  1  0
  9 10  1  1
 10 11  1  0
 11 12  2  0
 13 12  1  0
 14 13  1  0
 15 14  2  0
 16 15  1  0
 17 16  2  0
 17 18  1  0
 18 19  2  0
 19 14  1  0
 19 11  1  0
 20  9  1  0
 21 20  2  0
 22 20  1  0
 23 24  1  6
 23 22  1  0
 25 29  1  0
 25 24  1  0
 26 25  2  0
 27 26  1  0
 27 28  1  0
 28 29  2  0
 30 23  1  0
 30 32  1  0
 31 30  2  0
M  END
$$$$
