PWH.pdb
     RDKit          3D

 32 35  0  0  1  0  0  0  0  0999 V2000
   28.1380  -19.8977  -14.6562 N   0  0  0  0  0  0  0  0  0  0  0  0
   29.3992  -20.4617  -14.3194 C   0  0  0  0  0  0  0  0  0  0  0  0
   29.4697  -21.6358  -15.3040 C   0  0  0  0  0  0  0  0  0  0  0  0
   28.0360  -22.1481  -15.2283 C   0  0  0  0  0  0  0  0  0  0  0  0
   27.2296  -21.0058  -14.6560 C   0  0  1  0  0  0  0  0  0  0  0  0
   26.7137  -21.3125  -13.3050 C   0  0  0  0  0  0  0  0  0  0  0  0
   25.7403  -22.1364  -13.1448 O   0  0  0  0  0  0  0  0  0  0  0  0
   27.2124  -20.7602  -12.1218 N   0  0  0  0  0  0  0  0  0  0  0  0
   26.5812  -21.0020  -10.8108 C   0  0  1  0  0  0  0  0  0  0  0  0
   27.5562  -20.6073   -9.7619 C   0  0  0  0  0  0  0  0  0  0  0  0
   27.0814  -20.6378   -8.3823 C   0  0  0  0  0  0  0  0  0  0  0  0
   25.9115  -21.0034   -7.7816 C   0  0  0  0  0  0  0  0  0  0  0  0
   25.9762  -20.8329   -6.4407 N   0  0  0  0  0  0  0  0  0  0  0  0
   27.1997  -20.3508   -6.1599 C   0  0  0  0  0  0  0  0  0  0  0  0
   27.8311  -19.9863   -4.9656 C   0  0  0  0  0  0  0  0  0  0  0  0
   29.1157  -19.5075   -4.9275 C   0  0  0  0  0  0  0  0  0  0  0  0
   29.8124  -19.3792   -6.1051 C   0  0  0  0  0  0  0  0  0  0  0  0
   29.2027  -19.7328   -7.2721 C   0  0  0  0  0  0  0  0  0  0  0  0
   27.9071  -20.2182   -7.3322 C   0  0  0  0  0  0  0  0  0  0  0  0
   25.3803  -20.0977  -10.6843 C   0  0  0  0  0  0  0  0  0  0  0  0
   25.5687  -18.8815  -10.6212 O   0  0  0  0  0  0  0  0  0  0  0  0
   24.0790  -20.6391  -10.6399 N   0  0  0  0  0  0  0  0  0  0  0  0
   22.9375  -19.9535  -11.2976 C   0  0  1  0  0  0  0  0  0  0  0  0
   23.2353  -19.8007  -12.7608 C   0  0  0  0  0  0  0  0  0  0  0  0
   22.1572  -19.1554  -13.5368 C   0  0  0  0  0  0  0  0  0  0  0  0
   20.9427  -18.6980  -13.0209 C   0  0  0  0  0  0  0  0  0  0  0  0
   20.2020  -18.1691  -13.9960 N   0  0  0  0  0  0  0  0  0  0  0  0
   20.8967  -18.2694  -15.1256 C   0  0  0  0  0  0  0  0  0  0  0  0
   22.0811  -18.8668  -14.8469 N   0  0  0  0  0  0  0  0  0  0  0  0
   21.7136  -20.7592  -11.0407 C   0  0  0  0  0  0  0  0  0  0  0  0
   21.6653  -22.0033  -10.9565 O   0  0  0  0  0  0  0  0  0  0  0  0
   20.5109  -20.0826  -10.8779 O   0  0  0  0  0  0  0  0  0  0  0  0
  1  2  1  0
  1  5  1  0
  2  3  1  0
  3  4  1  0
  5  4  1  0
  5  6  1  1
  6  7  2  0
  8  9  1  0
  8  6  1  0
  9 10  1  1
 10 11  1  0
 11 12  2  0
 13 12  1  0
 14 13  1  0
 15 14  2  0
 16 15  1  0
 17 16  2  0
 17 18  1  0
 18 19  2  0
 19 14  1  0
 19 11  1  0
 20  9  1  0
 21 20  2  0
 22 20  1  0
 23 24  1  6
 23 22  1  0
 25 29  1  0
 25 24  1  0
 26 25  2  0
 27 26  1  0
 27 28  1  0
 28 29  2  0
 30 23  1  0
 30 32  1  0
 31 30  2  0
M  END
$$$$
