PWH.pdb
     RDKit          3D

 32 35  0  0  1  0  0  0  0  0999 V2000
   27.3549  -19.4329  -16.5460 N   0  0  0  0  0  0  0  0  0  0  0  0
   27.1255  -18.9151  -17.8504 C   0  0  0  0  0  0  0  0  0  0  0  0
   27.9047  -17.5955  -17.7852 C   0  0  0  0  0  0  0  0  0  0  0  0
   27.5304  -17.1209  -16.3859 C   0  0  0  0  0  0  0  0  0  0  0  0
   27.0366  -18.3514  -15.6616 C   0  0  1  0  0  0  0  0  0  0  0  0
   25.5913  -18.2757  -15.3600 C   0  0  0  0  0  0  0  0  0  0  0  0
   25.1178  -17.3147  -14.6499 O   0  0  0  0  0  0  0  0  0  0  0  0
   24.6404  -19.2016  -15.7985 N   0  0  0  0  0  0  0  0  0  0  0  0
   23.1952  -19.0173  -15.5687 C   0  0  1  0  0  0  0  0  0  0  0  0
   22.5110  -19.1413  -16.8815 C   0  0  0  0  0  0  0  0  0  0  0  0
   22.7285  -18.0604  -17.8375 C   0  0  0  0  0  0  0  0  0  0  0  0
   23.5587  -17.8818  -18.9062 C   0  0  0  0  0  0  0  0  0  0  0  0
   23.3712  -16.6674  -19.4732 N   0  0  0  0  0  0  0  0  0  0  0  0
   22.4096  -16.0443  -18.7696 C   0  0  0  0  0  0  0  0  0  0  0  0
   21.8055  -14.7873  -18.8840 C   0  0  0  0  0  0  0  0  0  0  0  0
   20.8226  -14.3613  -18.0277 C   0  0  0  0  0  0  0  0  0  0  0  0
   20.4127  -15.1981  -17.0175 C   0  0  0  0  0  0  0  0  0  0  0  0
   20.9973  -16.4242  -16.9008 C   0  0  0  0  0  0  0  0  0  0  0  0
   21.9909  -16.8731  -17.7547 C   0  0  0  0  0  0  0  0  0  0  0  0
   22.7042  -20.1392  -14.6878 C   0  0  0  0  0  0  0  0  0  0  0  0
   23.0688  -21.2876  -14.9466 O   0  0  0  0  0  0  0  0  0  0  0  0
   21.8499  -19.8714  -13.5984 N   0  0  0  0  0  0  0  0  0  0  0  0
   21.5033  -20.9284  -12.6143 C   0  0  1  0  0  0  0  0  0  0  0  0
   22.0074  -20.5212  -11.2604 C   0  0  0  0  0  0  0  0  0  0  0  0
   23.4626  -20.6929  -11.0764 C   0  0  0  0  0  0  0  0  0  0  0  0
   24.3600  -21.1422  -12.0476 C   0  0  0  0  0  0  0  0  0  0  0  0
   25.5955  -21.1790  -11.5463 N   0  0  0  0  0  0  0  0  0  0  0  0
   25.5273  -20.7686  -10.2832 C   0  0  0  0  0  0  0  0  0  0  0  0
   24.2351  -20.4742   -9.9990 N   0  0  0  0  0  0  0  0  0  0  0  0
   20.0276  -21.1141  -12.6469 C   0  0  0  0  0  0  0  0  0  0  0  0
   19.2059  -20.3265  -13.1582 O   0  0  0  0  0  0  0  0  0  0  0  0
   19.5025  -22.2594  -12.0610 O   0  0  0  0  0  0  0  0  0  0  0  0
  1  2  1  0
  1  5  1  0
  2  3  1  0
  3  4  1  0
  5  4  1  0
  5  6  1  6
  6  7  2  0
  8  9  1  0
  8  6  1  0
  9 10  1  6
 10 11  1  0
 11 12  2  0
 13 12  1  0
 14 13  1  0
 15 14  2  0
 16 15  1  0
 17 16  2  0
 17 18  1  0
 18 19  2  0
 19 14  1  0
 19 11  1  0
 20  9  1  0
 21 20  2  0
 22 20  1  0
 23 24  1  1
 23 22  1  0
 25 29  1  0
 25 24  1  0
 26 25  2  0
 27 26  1  0
 27 28  1  0
 28 29  2  0
 30 23  1  0
 30 32  1  0
 31 30  2  0
M  END
$$$$
