PWH.pdb
     RDKit          3D

 32 35  0  0  1  0  0  0  0  0999 V2000
   27.9766  -19.5377  -14.6287 N   0  0  0  0  0  0  0  0  0  0  0  0
   29.3032  -19.7148  -14.1482 C   0  0  0  0  0  0  0  0  0  0  0  0
   29.7934  -20.8555  -15.0490 C   0  0  0  0  0  0  0  0  0  0  0  0
   28.5557  -21.7451  -15.0687 C   0  0  0  0  0  0  0  0  0  0  0  0
   27.4126  -20.8547  -14.6408 C   0  0  1  0  0  0  0  0  0  0  0  0
   26.8663  -21.2468  -13.3242 C   0  0  0  0  0  0  0  0  0  0  0  0
   26.2671  -22.3735  -13.1706 O   0  0  0  0  0  0  0  0  0  0  0  0
   26.9444  -20.4644  -12.1686 N   0  0  0  0  0  0  0  0  0  0  0  0
   26.2359  -20.8207  -10.9251 C   0  0  1  0  0  0  0  0  0  0  0  0
   26.9041  -20.1081   -9.8059 C   0  0  0  0  0  0  0  0  0  0  0  0
   26.4269  -20.4097   -8.4603 C   0  0  0  0  0  0  0  0  0  0  0  0
   25.2977  -20.9846   -7.9527 C   0  0  0  0  0  0  0  0  0  0  0  0
   25.3364  -21.0278   -6.6006 N   0  0  0  0  0  0  0  0  0  0  0  0
   26.5014  -20.4758   -6.2185 C   0  0  0  0  0  0  0  0  0  0  0  0
   27.0845  -20.2474   -4.9672 C   0  0  0  0  0  0  0  0  0  0  0  0
   28.3122  -19.6532   -4.8236 C   0  0  0  0  0  0  0  0  0  0  0  0
   28.9988  -19.2658   -5.9493 C   0  0  0  0  0  0  0  0  0  0  0  0
   28.4361  -19.4858   -7.1715 C   0  0  0  0  0  0  0  0  0  0  0  0
   27.1983  -20.0840   -7.3379 C   0  0  0  0  0  0  0  0  0  0  0  0
   24.8208  -20.3060  -11.0166 C   0  0  0  0  0  0  0  0  0  0  0  0
   24.6488  -19.1044  -11.2299 O   0  0  0  0  0  0  0  0  0  0  0  0
   23.7288  -21.1844  -10.8607 N   0  0  0  0  0  0  0  0  0  0  0  0
   22.3321  -20.7175  -11.0530 C   0  0  1  0  0  0  0  0  0  0  0  0
   21.6414  -21.6275  -12.0266 C   0  0  0  0  0  0  0  0  0  0  0  0
   21.9102  -21.3169  -13.4451 C   0  0  0  0  0  0  0  0  0  0  0  0
   22.6868  -20.2554  -13.9145 C   0  0  0  0  0  0  0  0  0  0  0  0
   22.7206  -20.2682  -15.2478 N   0  0  0  0  0  0  0  0  0  0  0  0
   21.9915  -21.3025  -15.6568 C   0  0  0  0  0  0  0  0  0  0  0  0
   21.5008  -21.9375  -14.5643 N   0  0  0  0  0  0  0  0  0  0  0  0
   21.6725  -20.6943   -9.7197 C   0  0  0  0  0  0  0  0  0  0  0  0
   22.0103  -21.3729   -8.7285 O   0  0  0  0  0  0  0  0  0  0  0  0
   20.5838  -19.8486   -9.5467 O   0  0  0  0  0  0  0  0  0  0  0  0
  1  2  1  0
  1  5  1  0
  2  3  1  0
  3  4  1  0
  5  4  1  0
  5  6  1  1
  6  7  2  0
  8  9  1  0
  8  6  1  0
  9 10  1  1
 10 11  1  0
 11 12  2  0
 13 12  1  0
 14 13  1  0
 15 14  2  0
 16 15  1  0
 17 16  2  0
 17 18  1  0
 18 19  2  0
 19 14  1  0
 19 11  1  0
 20  9  1  0
 21 20  2  0
 22 20  1  0
 23 24  1  6
 23 22  1  0
 25 29  1  0
 25 24  1  0
 26 25  2  0
 27 26  1  0
 27 28  1  0
 28 29  2  0
 30 23  1  0
 30 32  1  0
 31 30  2  0
M  END
$$$$
