PWH.pdb
     RDKit          3D

 32 35  0  0  1  0  0  0  0  0999 V2000
   27.3123  -19.0282  -14.6519 N   0  0  0  0  0  0  0  0  0  0  0  0
   28.4756  -18.7675  -13.8767 C   0  0  0  0  0  0  0  0  0  0  0  0
   29.5024  -19.6695  -14.5730 C   0  0  0  0  0  0  0  0  0  0  0  0
   28.6586  -20.9158  -14.8144 C   0  0  0  0  0  0  0  0  0  0  0  0
   27.2230  -20.4571  -14.7087 C   0  0  1  0  0  0  0  0  0  0  0  0
   26.5434  -21.0276  -13.5262 C   0  0  0  0  0  0  0  0  0  0  0  0
   26.4150  -22.2994  -13.3923 O   0  0  0  0  0  0  0  0  0  0  0  0
   25.9980  -20.2723  -12.4842 N   0  0  0  0  0  0  0  0  0  0  0  0
   25.0518  -20.8432  -11.5074 C   0  0  1  0  0  0  0  0  0  0  0  0
   25.5083  -20.4433  -10.1515 C   0  0  0  0  0  0  0  0  0  0  0  0
   26.8812  -20.7867   -9.7955 C   0  0  0  0  0  0  0  0  0  0  0  0
   27.9040  -21.4245  -10.4360 C   0  0  0  0  0  0  0  0  0  0  0  0
   29.0035  -21.4966   -9.6503 N   0  0  0  0  0  0  0  0  0  0  0  0
   28.6985  -20.9010   -8.4841 C   0  0  0  0  0  0  0  0  0  0  0  0
   29.4236  -20.6761   -7.3086 C   0  0  0  0  0  0  0  0  0  0  0  0
   28.8870  -20.0311   -6.2237 C   0  0  0  0  0  0  0  0  0  0  0  0
   27.5880  -19.5873   -6.2898 C   0  0  0  0  0  0  0  0  0  0  0  0
   26.8763  -19.8032   -7.4324 C   0  0  0  0  0  0  0  0  0  0  0  0
   27.3993  -20.4521   -8.5384 C   0  0  0  0  0  0  0  0  0  0  0  0
   23.6958  -20.2228  -11.7362 C   0  0  0  0  0  0  0  0  0  0  0  0
   23.5791  -19.0043  -11.5932 O   0  0  0  0  0  0  0  0  0  0  0  0
   22.5956  -21.0244  -12.1041 N   0  0  0  0  0  0  0  0  0  0  0  0
   21.2535  -20.4309  -12.3328 C   0  0  1  0  0  0  0  0  0  0  0  0
   21.3214  -19.5075  -13.5142 C   0  0  0  0  0  0  0  0  0  0  0  0
   21.8473  -20.1320  -14.7448 C   0  0  0  0  0  0  0  0  0  0  0  0
   22.3277  -21.4387  -14.8549 C   0  0  0  0  0  0  0  0  0  0  0  0
   22.7248  -21.6758  -16.1060 N   0  0  0  0  0  0  0  0  0  0  0  0
   22.5176  -20.5661  -16.8089 C   0  0  0  0  0  0  0  0  0  0  0  0
   21.9859  -19.6311  -15.9839 N   0  0  0  0  0  0  0  0  0  0  0  0
   20.2899  -21.5471  -12.5297 C   0  0  0  0  0  0  0  0  0  0  0  0
   20.5669  -22.7632  -12.4914 O   0  0  0  0  0  0  0  0  0  0  0  0
   18.9617  -21.2243  -12.7789 O   0  0  0  0  0  0  0  0  0  0  0  0
  1  2  1  0
  1  5  1  0
  2  3  1  0
  3  4  1  0
  5  4  1  0
  5  6  1  1
  6  7  2  0
  8  9  1  0
  8  6  1  0
  9 10  1  1
 10 11  1  0
 11 12  2  0
 13 12  1  0
 14 13  1  0
 15 14  2  0
 16 15  1  0
 17 16  2  0
 17 18  1  0
 18 19  2  0
 19 14  1  0
 19 11  1  0
 20  9  1  0
 21 20  2  0
 22 20  1  0
 23 24  1  6
 23 22  1  0
 25 29  1  0
 25 24  1  0
 26 25  2  0
 27 26  1  0
 27 28  1  0
 28 29  2  0
 30 23  1  0
 30 32  1  0
 31 30  2  0
M  END
$$$$
