PWH.pdb
     RDKit          3D

 32 35  0  0  1  0  0  0  0  0999 V2000
   29.3081  -21.4330  -14.7084 N   0  0  0  0  0  0  0  0  0  0  0  0
   28.8843  -22.6070  -15.3897 C   0  0  0  0  0  0  0  0  0  0  0  0
   28.0456  -22.0036  -16.5235 C   0  0  0  0  0  0  0  0  0  0  0  0
   27.3087  -20.9035  -15.7685 C   0  0  0  0  0  0  0  0  0  0  0  0
   28.1100  -20.6731  -14.5086 C   0  0  1  0  0  0  0  0  0  0  0  0
   27.3724  -21.0904  -13.2973 C   0  0  0  0  0  0  0  0  0  0  0  0
   26.3383  -21.8485  -13.3863 O   0  0  0  0  0  0  0  0  0  0  0  0
   27.7128  -20.7173  -11.9939 N   0  0  0  0  0  0  0  0  0  0  0  0
   26.8253  -20.9706  -10.8435 C   0  0  1  0  0  0  0  0  0  0  0  0
   27.5463  -20.5452   -9.6162 C   0  0  0  0  0  0  0  0  0  0  0  0
   26.8116  -20.6415   -8.3591 C   0  0  0  0  0  0  0  0  0  0  0  0
   25.5537  -21.0449   -8.0152 C   0  0  0  0  0  0  0  0  0  0  0  0
   25.3519  -20.9333   -6.6817 N   0  0  0  0  0  0  0  0  0  0  0  0
   26.4878  -20.4522   -6.1467 C   0  0  0  0  0  0  0  0  0  0  0  0
   26.8669  -20.1349   -4.8376 C   0  0  0  0  0  0  0  0  0  0  0  0
   28.1102  -19.6457   -4.5284 C   0  0  0  0  0  0  0  0  0  0  0  0
   29.0212  -19.4585   -5.5402 C   0  0  0  0  0  0  0  0  0  0  0  0
   28.6580  -19.7659   -6.8178 C   0  0  0  0  0  0  0  0  0  0  0  0
   27.4083  -20.2608   -7.1509 C   0  0  0  0  0  0  0  0  0  0  0  0
   25.6020  -20.0988  -10.9821 C   0  0  0  0  0  0  0  0  0  0  0  0
   25.7622  -18.8842  -11.1153 O   0  0  0  0  0  0  0  0  0  0  0  0
   24.3120  -20.6678  -10.9586 N   0  0  0  0  0  0  0  0  0  0  0  0
   23.0983  -19.8304  -11.1356 C   0  0  1  0  0  0  0  0  0  0  0  0
   23.1764  -19.1290  -12.4603 C   0  0  0  0  0  0  0  0  0  0  0  0
   23.1748  -20.0329  -13.6281 C   0  0  0  0  0  0  0  0  0  0  0  0
   23.0879  -21.4260  -13.5809 C   0  0  0  0  0  0  0  0  0  0  0  0
   23.1141  -21.9278  -14.8165 N   0  0  0  0  0  0  0  0  0  0  0  0
   23.2153  -20.9058  -15.6615 C   0  0  0  0  0  0  0  0  0  0  0  0
   23.2520  -19.7582  -14.9411 N   0  0  0  0  0  0  0  0  0  0  0  0
   21.9113  -20.7204  -11.0249 C   0  0  0  0  0  0  0  0  0  0  0  0
   21.9413  -21.9551  -10.8468 O   0  0  0  0  0  0  0  0  0  0  0  0
   20.6521  -20.1419  -11.1267 O   0  0  0  0  0  0  0  0  0  0  0  0
  1  2  1  0
  1  5  1  0
  2  3  1  0
  3  4  1  0
  5  4  1  0
  5  6  1  1
  6  7  2  0
  8  9  1  0
  8  6  1  0
  9 10  1  1
 10 11  1  0
 11 12  2  0
 13 12  1  0
 14 13  1  0
 15 14  2  0
 16 15  1  0
 17 16  2  0
 17 18  1  0
 18 19  2  0
 19 14  1  0
 19 11  1  0
 20  9  1  0
 21 20  2  0
 22 20  1  0
 23 24  1  6
 23 22  1  0
 25 29  1  0
 25 24  1  0
 26 25  2  0
 27 26  1  0
 27 28  1  0
 28 29  2  0
 30 23  1  0
 30 32  1  0
 31 30  2  0
M  END
$$$$
