PWH.pdb
     RDKit          3D

 32 35  0  0  1  0  0  0  0  0999 V2000
   28.5364  -19.9439  -15.0281 N   0  0  0  0  0  0  0  0  0  0  0  0
   29.7907  -20.4211  -14.5579 C   0  0  0  0  0  0  0  0  0  0  0  0
   30.0561  -21.5696  -15.5394 C   0  0  0  0  0  0  0  0  0  0  0  0
   28.6646  -22.1854  -15.6290 C   0  0  0  0  0  0  0  0  0  0  0  0
   27.7178  -21.1145  -15.1397 C   0  0  1  0  0  0  0  0  0  0  0  0
   27.0796  -21.4812  -13.8576 C   0  0  0  0  0  0  0  0  0  0  0  0
   26.1011  -22.3139  -13.8252 O   0  0  0  0  0  0  0  0  0  0  0  0
   27.4614  -20.9797  -12.6100 N   0  0  0  0  0  0  0  0  0  0  0  0
   26.6703  -21.2179  -11.3882 C   0  0  1  0  0  0  0  0  0  0  0  0
   27.5439  -20.9272  -10.2223 C   0  0  0  0  0  0  0  0  0  0  0  0
   26.8780  -20.7291   -8.9390 C   0  0  0  0  0  0  0  0  0  0  0  0
   25.5750  -20.6495   -8.5400 C   0  0  0  0  0  0  0  0  0  0  0  0
   25.4840  -20.4462   -7.2052 N   0  0  0  0  0  0  0  0  0  0  0  0
   26.7387  -20.3917   -6.7249 C   0  0  0  0  0  0  0  0  0  0  0  0
   27.2620  -20.2041   -5.4407 C   0  0  0  0  0  0  0  0  0  0  0  0
   28.6101  -20.1850   -5.1899 C   0  0  0  0  0  0  0  0  0  0  0  0
   29.4835  -20.3562   -6.2371 C   0  0  0  0  0  0  0  0  0  0  0  0
   28.9799  -20.5395   -7.4906 C   0  0  0  0  0  0  0  0  0  0  0  0
   27.6227  -20.5621   -7.7649 C   0  0  0  0  0  0  0  0  0  0  0  0
   25.5261  -20.2351  -11.3602 C   0  0  0  0  0  0  0  0  0  0  0  0
   25.7812  -19.0373  -11.4976 O   0  0  0  0  0  0  0  0  0  0  0  0
   24.2017  -20.6847  -11.1807 N   0  0  0  0  0  0  0  0  0  0  0  0
   23.0690  -20.0487  -11.9007 C   0  0  1  0  0  0  0  0  0  0  0  0
   23.3139  -20.1425  -13.3786 C   0  0  0  0  0  0  0  0  0  0  0  0
   22.2128  -19.6191  -14.2119 C   0  0  0  0  0  0  0  0  0  0  0  0
   21.0098  -19.0924  -13.7367 C   0  0  0  0  0  0  0  0  0  0  0  0
   20.2414  -18.7130  -14.7588 N   0  0  0  0  0  0  0  0  0  0  0  0
   20.9071  -18.9767  -15.8795 C   0  0  0  0  0  0  0  0  0  0  0  0
   22.1013  -19.5255  -15.5477 N   0  0  0  0  0  0  0  0  0  0  0  0
   21.8188  -20.7365  -11.4799 C   0  0  0  0  0  0  0  0  0  0  0  0
   21.6659  -21.9707  -11.3776 O   0  0  0  0  0  0  0  0  0  0  0  0
   20.7158  -19.9503  -11.1702 O   0  0  0  0  0  0  0  0  0  0  0  0
  1  2  1  0
  1  5  1  0
  2  3  1  0
  3  4  1  0
  5  4  1  0
  5  6  1  1
  6  7  2  0
  8  9  1  0
  8  6  1  0
  9 10  1  1
 10 11  1  0
 11 12  2  0
 13 12  1  0
 14 13  1  0
 15 14  2  0
 16 15  1  0
 17 16  2  0
 17 18  1  0
 18 19  2  0
 19 14  1  0
 19 11  1  0
 20  9  1  0
 21 20  2  0
 22 20  1  0
 23 24  1  6
 23 22  1  0
 25 29  1  0
 25 24  1  0
 26 25  2  0
 27 26  1  0
 27 28  1  0
 28 29  2  0
 30 23  1  0
 30 32  1  0
 31 30  2  0
M  END
$$$$
