PWH.pdb
     RDKit          3D

 32 35  0  0  1  0  0  0  0  0999 V2000
   16.3707  -13.7606    3.2274 N   0  0  0  0  0  0  0  0  0  0  0  0
   15.7330  -13.5356    4.4783 C   0  0  0  0  0  0  0  0  0  0  0  0
   16.8596  -12.8541    5.2654 C   0  0  0  0  0  0  0  0  0  0  0  0
   18.0519  -13.6987    4.8311 C   0  0  0  0  0  0  0  0  0  0  0  0
   17.6160  -14.3870    3.5587 C   0  0  1  0  0  0  0  0  0  0  0  0
   17.4831  -15.8487    3.7358 C   0  0  0  0  0  0  0  0  0  0  0  0
   16.3427  -16.4259    3.6002 O   0  0  0  0  0  0  0  0  0  0  0  0
   18.5386  -16.7079    4.0542 N   0  0  0  0  0  0  0  0  0  0  0  0
   18.4012  -18.1758    4.0123 C   0  0  1  0  0  0  0  0  0  0  0  0
   19.6281  -18.7251    3.3799 C   0  0  0  0  0  0  0  0  0  0  0  0
   19.6605  -18.7429    1.9211 C   0  0  0  0  0  0  0  0  0  0  0  0
   18.7566  -19.0592    0.9483 C   0  0  0  0  0  0  0  0  0  0  0  0
   19.2946  -18.9138   -0.2849 N   0  0  0  0  0  0  0  0  0  0  0  0
   20.5627  -18.4987   -0.1190 C   0  0  0  0  0  0  0  0  0  0  0  0
   21.5904  -18.1875   -1.0162 C   0  0  0  0  0  0  0  0  0  0  0  0
   22.8312  -17.7761   -0.6016 C   0  0  0  0  0  0  0  0  0  0  0  0
   23.0785  -17.6642    0.7457 C   0  0  0  0  0  0  0  0  0  0  0  0
   22.0812  -17.9658    1.6249 C   0  0  0  0  0  0  0  0  0  0  0  0
   20.8220  -18.3827    1.2269 C   0  0  0  0  0  0  0  0  0  0  0  0
   18.3452  -18.6915    5.4289 C   0  0  0  0  0  0  0  0  0  0  0  0
   19.1731  -18.2684    6.2378 O   0  0  0  0  0  0  0  0  0  0  0  0
   17.3673  -19.6337    5.8087 N   0  0  0  0  0  0  0  0  0  0  0  0
   17.2420  -20.0875    7.2173 C   0  0  1  0  0  0  0  0  0  0  0  0
   15.7870  -20.2140    7.5634 C   0  0  0  0  0  0  0  0  0  0  0  0
   15.0929  -18.9245    7.7540 C   0  0  0  0  0  0  0  0  0  0  0  0
   15.6988  -17.6663    7.7669 C   0  0  0  0  0  0  0  0  0  0  0  0
   14.7807  -16.7187    7.9623 N   0  0  0  0  0  0  0  0  0  0  0  0
   13.6010  -17.3218    8.0764 C   0  0  0  0  0  0  0  0  0  0  0  0
   13.7905  -18.6581    7.9502 N   0  0  0  0  0  0  0  0  0  0  0  0
   17.9784  -21.3735    7.3482 C   0  0  0  0  0  0  0  0  0  0  0  0
   18.4980  -22.0134    6.4115 O   0  0  0  0  0  0  0  0  0  0  0  0
   18.1078  -21.9233    8.6177 O   0  0  0  0  0  0  0  0  0  0  0  0
  1  2  1  0
  1  5  1  0
  2  3  1  0
  3  4  1  0
  5  4  1  0
  5  6  1  1
  6  7  2  0
  8  9  1  0
  8  6  1  0
  9 10  1  1
 10 11  1  0
 11 12  2  0
 13 12  1  0
 14 13  1  0
 15 14  2  0
 16 15  1  0
 17 16  2  0
 17 18  1  0
 18 19  2  0
 19 14  1  0
 19 11  1  0
 20  9  1  0
 21 20  2  0
 22 20  1  0
 23 24  1  6
 23 22  1  0
 25 29  1  0
 25 24  1  0
 26 25  2  0
 27 26  1  0
 27 28  1  0
 28 29  2  0
 30 23  1  0
 30 32  1  0
 31 30  2  0
M  END
$$$$
