PWH.pdb
     RDKit          3D

 32 35  0  0  1  0  0  0  0  0999 V2000
   25.6977  -22.4794  -17.9180 N   0  0  0  0  0  0  0  0  0  0  0  0
   26.8744  -21.8449  -17.4335 C   0  0  0  0  0  0  0  0  0  0  0  0
   27.7627  -23.0592  -17.1345 C   0  0  0  0  0  0  0  0  0  0  0  0
   26.7425  -24.0014  -16.5059 C   0  0  0  0  0  0  0  0  0  0  0  0
   25.3922  -23.4805  -16.9395 C   0  0  1  0  0  0  0  0  0  0  0  0
   24.6144  -22.9410  -15.8040 C   0  0  0  0  0  0  0  0  0  0  0  0
   24.4681  -23.6233  -14.7247 O   0  0  0  0  0  0  0  0  0  0  0  0
   23.9893  -21.6908  -15.7941 N   0  0  0  0  0  0  0  0  0  0  0  0
   23.1581  -21.2332  -14.6649 C   0  0  1  0  0  0  0  0  0  0  0  0
   23.8959  -20.1439  -13.9749 C   0  0  0  0  0  0  0  0  0  0  0  0
   25.2361  -20.4637  -13.4942 C   0  0  0  0  0  0  0  0  0  0  0  0
   25.7295  -21.2139  -12.4661 C   0  0  0  0  0  0  0  0  0  0  0  0
   27.0822  -21.1835  -12.4440 N   0  0  0  0  0  0  0  0  0  0  0  0
   27.4791  -20.4061  -13.4668 C   0  0  0  0  0  0  0  0  0  0  0  0
   28.7380  -20.0126  -13.9342 C   0  0  0  0  0  0  0  0  0  0  0  0
   28.8970  -19.1935  -15.0226 C   0  0  0  0  0  0  0  0  0  0  0  0
   27.7798  -18.7399  -15.6819 C   0  0  0  0  0  0  0  0  0  0  0  0
   26.5504  -19.1199  -15.2316 C   0  0  0  0  0  0  0  0  0  0  0  0
   26.3683  -19.9459  -14.1350 C   0  0  0  0  0  0  0  0  0  0  0  0
   21.8831  -20.6454  -15.2169 C   0  0  0  0  0  0  0  0  0  0  0  0
   21.9316  -20.0562  -16.2983 O   0  0  0  0  0  0  0  0  0  0  0  0
   20.6714  -20.7717  -14.5069 N   0  0  0  0  0  0  0  0  0  0  0  0
   19.3982  -20.2406  -15.0571 C   0  0  1  0  0  0  0  0  0  0  0  0
   18.3093  -21.2488  -14.8318 C   0  0  0  0  0  0  0  0  0  0  0  0
   18.4108  -22.4534  -15.6801 C   0  0  0  0  0  0  0  0  0  0  0  0
   19.3377  -22.6529  -16.7055 C   0  0  0  0  0  0  0  0  0  0  0  0
   19.1489  -23.8483  -17.2662 N   0  0  0  0  0  0  0  0  0  0  0  0
   18.1306  -24.4288  -16.6379 C   0  0  0  0  0  0  0  0  0  0  0  0
   17.6839  -23.5834  -15.6771 N   0  0  0  0  0  0  0  0  0  0  0  0
   19.1232  -18.9385  -14.3922 C   0  0  0  0  0  0  0  0  0  0  0  0
   19.7009  -18.5042  -13.3750 O   0  0  0  0  0  0  0  0  0  0  0  0
   18.1402  -18.1230  -14.9391 O   0  0  0  0  0  0  0  0  0  0  0  0
  1  2  1  0
  1  5  1  0
  2  3  1  0
  3  4  1  0
  5  4  1  0
  5  6  1  1
  6  7  2  0
  8  9  1  0
  8  6  1  0
  9 10  1  6
 10 11  1  0
 11 12  2  0
 13 12  1  0
 14 13  1  0
 15 14  2  0
 16 15  1  0
 17 16  2  0
 17 18  1  0
 18 19  2  0
 19 14  1  0
 19 11  1  0
 20  9  1  0
 21 20  2  0
 22 20  1  0
 23 24  1  1
 23 22  1  0
 25 29  1  0
 25 24  1  0
 26 25  2  0
 27 26  1  0
 27 28  1  0
 28 29  2  0
 30 23  1  0
 30 32  1  0
 31 30  2  0
M  END
$$$$
