PWH.pdb
     RDKit          3D

 32 35  0  0  1  0  0  0  0  0999 V2000
   26.9783  -21.4661   -8.8242 N   0  0  0  0  0  0  0  0  0  0  0  0
   27.8810  -20.3685   -8.7740 C   0  0  0  0  0  0  0  0  0  0  0  0
   27.5233  -19.7542   -7.4148 C   0  0  0  0  0  0  0  0  0  0  0  0
   26.0033  -19.8632   -7.4522 C   0  0  0  0  0  0  0  0  0  0  0  0
   25.6998  -20.9034   -8.5050 C   0  0  1  0  0  0  0  0  0  0  0  0
   25.0297  -20.3189   -9.6861 C   0  0  0  0  0  0  0  0  0  0  0  0
   24.5031  -19.1478   -9.6301 O   0  0  0  0  0  0  0  0  0  0  0  0
   24.9085  -20.9554  -10.9246 N   0  0  0  0  0  0  0  0  0  0  0  0
   24.3228  -20.2865  -12.1015 C   0  0  1  0  0  0  0  0  0  0  0  0
   25.1071  -20.7023  -13.2926 C   0  0  0  0  0  0  0  0  0  0  0  0
   26.2510  -19.8682  -13.6466 C   0  0  0  0  0  0  0  0  0  0  0  0
   26.4230  -18.7639  -14.4304 C   0  0  0  0  0  0  0  0  0  0  0  0
   27.7159  -18.3640  -14.4346 N   0  0  0  0  0  0  0  0  0  0  0  0
   28.3975  -19.2140  -13.6467 C   0  0  0  0  0  0  0  0  0  0  0  0
   29.7442  -19.3013  -13.2768 C   0  0  0  0  0  0  0  0  0  0  0  0
   30.2169  -20.2805  -12.4410 C   0  0  0  0  0  0  0  0  0  0  0  0
   29.3374  -21.2134  -11.9460 C   0  0  0  0  0  0  0  0  0  0  0  0
   28.0240  -21.1336  -12.3025 C   0  0  0  0  0  0  0  0  0  0  0  0
   27.5268  -20.1532  -13.1447 C   0  0  0  0  0  0  0  0  0  0  0  0
   22.9117  -20.7881  -12.2836 C   0  0  0  0  0  0  0  0  0  0  0  0
   22.6327  -21.9128  -11.8641 O   0  0  0  0  0  0  0  0  0  0  0  0
   21.9434  -19.9838  -12.9190 N   0  0  0  0  0  0  0  0  0  0  0  0
   20.5099  -20.3722  -12.9336 C   0  0  1  0  0  0  0  0  0  0  0  0
   19.6674  -19.1411  -12.7673 C   0  0  0  0  0  0  0  0  0  0  0  0
   18.2154  -19.4023  -12.7010 C   0  0  0  0  0  0  0  0  0  0  0  0
   17.6114  -20.6612  -12.7241 C   0  0  0  0  0  0  0  0  0  0  0  0
   16.2859  -20.5338  -12.6477 N   0  0  0  0  0  0  0  0  0  0  0  0
   16.0121  -19.2344  -12.5762 C   0  0  0  0  0  0  0  0  0  0  0  0
   17.1813  -18.5493  -12.6085 N   0  0  0  0  0  0  0  0  0  0  0  0
   20.2441  -21.0827  -14.2133 C   0  0  0  0  0  0  0  0  0  0  0  0
   20.7132  -20.7749  -15.3279 O   0  0  0  0  0  0  0  0  0  0  0  0
   19.4021  -22.1875  -14.1819 O   0  0  0  0  0  0  0  0  0  0  0  0
  1  2  1  0
  1  5  1  0
  2  3  1  0
  3  4  1  0
  5  4  1  0
  5  6  1  6
  6  7  2  0
  8  9  1  0
  8  6  1  0
  9 10  1  6
 10 11  1  0
 11 12  2  0
 13 12  1  0
 14 13  1  0
 15 14  2  0
 16 15  1  0
 17 16  2  0
 17 18  1  0
 18 19  2  0
 19 14  1  0
 19 11  1  0
 20  9  1  0
 21 20  2  0
 22 20  1  0
 23 24  1  6
 23 22  1  0
 25 29  1  0
 25 24  1  0
 26 25  2  0
 27 26  1  0
 27 28  1  0
 28 29  2  0
 30 23  1  0
 30 32  1  0
 31 30  2  0
M  END
$$$$
