PWH.pdb
     RDKit          3D

 32 35  0  0  1  0  0  0  0  0999 V2000
   27.7646  -19.1567  -15.3987 N   0  0  0  0  0  0  0  0  0  0  0  0
   28.8514  -18.7687  -14.5677 C   0  0  0  0  0  0  0  0  0  0  0  0
   29.9823  -19.6341  -15.1379 C   0  0  0  0  0  0  0  0  0  0  0  0
   29.2431  -20.9495  -15.3545 C   0  0  0  0  0  0  0  0  0  0  0  0
   27.7760  -20.5892  -15.3712 C   0  0  1  0  0  0  0  0  0  0  0  0
   27.0564  -21.1370  -14.2017 C   0  0  0  0  0  0  0  0  0  0  0  0
   27.0918  -22.3945  -13.9384 O   0  0  0  0  0  0  0  0  0  0  0  0
   26.3004  -20.3739  -13.3073 N   0  0  0  0  0  0  0  0  0  0  0  0
   25.4870  -20.9856  -12.2398 C   0  0  1  0  0  0  0  0  0  0  0  0
   25.8161  -20.2908  -10.9687 C   0  0  0  0  0  0  0  0  0  0  0  0
   27.0767  -20.6560  -10.3307 C   0  0  0  0  0  0  0  0  0  0  0  0
   28.2268  -21.2539  -10.7585 C   0  0  0  0  0  0  0  0  0  0  0  0
   29.1199  -21.3744   -9.7489 N   0  0  0  0  0  0  0  0  0  0  0  0
   28.5499  -20.8509   -8.6493 C   0  0  0  0  0  0  0  0  0  0  0  0
   28.9859  -20.6985   -7.3284 C   0  0  0  0  0  0  0  0  0  0  0  0
   28.2083  -20.1207   -6.3577 C   0  0  0  0  0  0  0  0  0  0  0  0
   26.9524  -19.6731   -6.6912 C   0  0  0  0  0  0  0  0  0  0  0  0
   26.5219  -19.8186   -7.9765 C   0  0  0  0  0  0  0  0  0  0  0  0
   27.2912  -20.3989   -8.9711 C   0  0  0  0  0  0  0  0  0  0  0  0
   24.0313  -20.7272  -12.5401 C   0  0  0  0  0  0  0  0  0  0  0  0
   23.7169  -19.6315  -13.0085 O   0  0  0  0  0  0  0  0  0  0  0  0
   23.0621  -21.7199  -12.2881 N   0  0  0  0  0  0  0  0  0  0  0  0
   21.6208  -21.4714  -12.5469 C   0  0  1  0  0  0  0  0  0  0  0  0
   20.8798  -22.7751  -12.4814 C   0  0  0  0  0  0  0  0  0  0  0  0
   19.4195  -22.6545  -12.6654 C   0  0  0  0  0  0  0  0  0  0  0  0
   18.5118  -22.1984  -11.7071 C   0  0  0  0  0  0  0  0  0  0  0  0
   17.2742  -22.2175  -12.2041 N   0  0  0  0  0  0  0  0  0  0  0  0
   17.3509  -22.6711  -13.4519 C   0  0  0  0  0  0  0  0  0  0  0  0
   18.6507  -22.9356  -13.7309 N   0  0  0  0  0  0  0  0  0  0  0  0
   21.1412  -20.4859  -11.5409 C   0  0  0  0  0  0  0  0  0  0  0  0
   21.5844  -20.3544  -10.3819 O   0  0  0  0  0  0  0  0  0  0  0  0
   20.1103  -19.6299  -11.9082 O   0  0  0  0  0  0  0  0  0  0  0  0
  1  2  1  0
  1  5  1  0
  2  3  1  0
  3  4  1  0
  5  4  1  0
  5  6  1  1
  6  7  2  0
  8  9  1  0
  8  6  1  0
  9 10  1  1
 10 11  1  0
 11 12  2  0
 13 12  1  0
 14 13  1  0
 15 14  2  0
 16 15  1  0
 17 16  2  0
 17 18  1  0
 18 19  2  0
 19 14  1  0
 19 11  1  0
 20  9  1  0
 21 20  2  0
 22 20  1  0
 23 24  1  1
 23 22  1  0
 25 29  1  0
 25 24  1  0
 26 25  2  0
 27 26  1  0
 27 28  1  0
 28 29  2  0
 30 23  1  0
 30 32  1  0
 31 30  2  0
M  END
$$$$
