PWH.pdb
     RDKit          3D

 32 35  0  0  1  0  0  0  0  0999 V2000
   27.9554  -20.6107  -16.1900 N   0  0  0  0  0  0  0  0  0  0  0  0
   29.2142  -20.6708  -15.5313 C   0  0  0  0  0  0  0  0  0  0  0  0
   29.7491  -22.0157  -16.0395 C   0  0  0  0  0  0  0  0  0  0  0  0
   28.4840  -22.8629  -15.9668 C   0  0  0  0  0  0  0  0  0  0  0  0
   27.3405  -21.8765  -15.9208 C   0  0  1  0  0  0  0  0  0  0  0  0
   26.6404  -21.8985  -14.6190 C   0  0  0  0  0  0  0  0  0  0  0  0
   26.1574  -22.9939  -14.1511 O   0  0  0  0  0  0  0  0  0  0  0  0
   26.4437  -20.7789  -13.8056 N   0  0  0  0  0  0  0  0  0  0  0  0
   25.6205  -20.8268  -12.5827 C   0  0  1  0  0  0  0  0  0  0  0  0
   26.3107  -20.0204  -11.5434 C   0  0  0  0  0  0  0  0  0  0  0  0
   27.4980  -20.6134  -10.9365 C   0  0  0  0  0  0  0  0  0  0  0  0
   28.5871  -21.2799  -11.4191 C   0  0  0  0  0  0  0  0  0  0  0  0
   29.4240  -21.6385  -10.4179 N   0  0  0  0  0  0  0  0  0  0  0  0
   28.8784  -21.2034   -9.2686 C   0  0  0  0  0  0  0  0  0  0  0  0
   29.2814  -21.2815   -7.9308 C   0  0  0  0  0  0  0  0  0  0  0  0
   28.5405  -20.7512   -6.9058 C   0  0  0  0  0  0  0  0  0  0  0  0
   27.3564  -20.1185   -7.1997 C   0  0  0  0  0  0  0  0  0  0  0  0
   26.9583  -20.0390   -8.5012 C   0  0  0  0  0  0  0  0  0  0  0  0
   27.6916  -20.5675   -9.5504 C   0  0  0  0  0  0  0  0  0  0  0  0
   24.2959  -20.1654  -12.8717 C   0  0  0  0  0  0  0  0  0  0  0  0
   24.2045  -19.4533  -13.8734 O   0  0  0  0  0  0  0  0  0  0  0  0
   23.1956  -20.3624  -12.0120 N   0  0  0  0  0  0  0  0  0  0  0  0
   21.8132  -20.4710  -12.5439 C   0  0  1  0  0  0  0  0  0  0  0  0
   21.7366  -21.6492  -13.4708 C   0  0  0  0  0  0  0  0  0  0  0  0
   21.0259  -21.3814  -14.7373 C   0  0  0  0  0  0  0  0  0  0  0  0
   20.3615  -20.1975  -15.0650 C   0  0  0  0  0  0  0  0  0  0  0  0
   19.8299  -20.2941  -16.2844 N   0  0  0  0  0  0  0  0  0  0  0  0
   20.1279  -21.5011  -16.7566 C   0  0  0  0  0  0  0  0  0  0  0  0
   20.8525  -22.1593  -15.8190 N   0  0  0  0  0  0  0  0  0  0  0  0
   20.8878  -20.5895  -11.3852 C   0  0  0  0  0  0  0  0  0  0  0  0
   21.0798  -21.2872  -10.3686 O   0  0  0  0  0  0  0  0  0  0  0  0
   19.7019  -19.8665  -11.4225 O   0  0  0  0  0  0  0  0  0  0  0  0
  1  2  1  0
  1  5  1  0
  2  3  1  0
  3  4  1  0
  5  4  1  0
  5  6  1  1
  6  7  2  0
  8  9  1  0
  8  6  1  0
  9 10  1  1
 10 11  1  0
 11 12  2  0
 13 12  1  0
 14 13  1  0
 15 14  2  0
 16 15  1  0
 17 16  2  0
 17 18  1  0
 18 19  2  0
 19 14  1  0
 19 11  1  0
 20  9  1  0
 21 20  2  0
 22 20  1  0
 23 24  1  6
 23 22  1  0
 25 29  1  0
 25 24  1  0
 26 25  2  0
 27 26  1  0
 27 28  1  0
 28 29  2  0
 30 23  1  0
 30 32  1  0
 31 30  2  0
M  END
$$$$
