PWH.pdb
     RDKit          3D

 32 35  0  0  1  0  0  0  0  0999 V2000
   27.7042  -20.1771  -15.5289 N   0  0  0  0  0  0  0  0  0  0  0  0
   28.9494  -20.1906  -14.8424 C   0  0  0  0  0  0  0  0  0  0  0  0
   29.6226  -21.4144  -15.4764 C   0  0  0  0  0  0  0  0  0  0  0  0
   28.4447  -22.3801  -15.5347 C   0  0  0  0  0  0  0  0  0  0  0  0
   27.2100  -21.5173  -15.4174 C   0  0  1  0  0  0  0  0  0  0  0  0
   26.4892  -21.7492  -14.1477 C   0  0  0  0  0  0  0  0  0  0  0  0
   25.9379  -22.8842  -13.9029 O   0  0  0  0  0  0  0  0  0  0  0  0
   26.3432  -20.7981  -13.1338 N   0  0  0  0  0  0  0  0  0  0  0  0
   25.4384  -21.0002  -11.9867 C   0  0  1  0  0  0  0  0  0  0  0  0
   26.0442  -20.3243  -10.8107 C   0  0  0  0  0  0  0  0  0  0  0  0
   27.3028  -20.8734  -10.3168 C   0  0  0  0  0  0  0  0  0  0  0  0
   28.3241  -21.5816  -10.8815 C   0  0  0  0  0  0  0  0  0  0  0  0
   29.2848  -21.8642   -9.9713 N   0  0  0  0  0  0  0  0  0  0  0  0
   28.8896  -21.3367   -8.7993 C   0  0  0  0  0  0  0  0  0  0  0  0
   29.4620  -21.3108   -7.5227 C   0  0  0  0  0  0  0  0  0  0  0  0
   28.8566  -20.6973   -6.4559 C   0  0  0  0  0  0  0  0  0  0  0  0
   27.6413  -20.0838   -6.6440 C   0  0  0  0  0  0  0  0  0  0  0  0
   27.0785  -20.1054   -7.8855 C   0  0  0  0  0  0  0  0  0  0  0  0
   27.6731  -20.7191   -8.9753 C   0  0  0  0  0  0  0  0  0  0  0  0
   24.1279  -20.3149  -12.2848 C   0  0  0  0  0  0  0  0  0  0  0  0
   24.1578  -19.1893  -12.7856 O   0  0  0  0  0  0  0  0  0  0  0  0
   22.9047  -20.9535  -11.9942 N   0  0  0  0  0  0  0  0  0  0  0  0
   21.6202  -20.4365  -12.5313 C   0  0  1  0  0  0  0  0  0  0  0  0
   21.6384  -20.5404  -14.0286 C   0  0  0  0  0  0  0  0  0  0  0  0
   20.4045  -20.0650  -14.6863 C   0  0  0  0  0  0  0  0  0  0  0  0
   20.1751  -18.7676  -15.1491 C   0  0  0  0  0  0  0  0  0  0  0  0
   18.9584  -18.6833  -15.6892 N   0  0  0  0  0  0  0  0  0  0  0  0
   18.3929  -19.8830  -15.5909 C   0  0  0  0  0  0  0  0  0  0  0  0
   19.2693  -20.7197  -14.9833 N   0  0  0  0  0  0  0  0  0  0  0  0
   20.5191  -21.2233  -11.9134 C   0  0  0  0  0  0  0  0  0  0  0  0
   19.5910  -20.7575  -11.2215 O   0  0  0  0  0  0  0  0  0  0  0  0
   20.5088  -22.5980  -12.1147 O   0  0  0  0  0  0  0  0  0  0  0  0
  1  2  1  0
  1  5  1  0
  2  3  1  0
  3  4  1  0
  5  4  1  0
  5  6  1  1
  6  7  2  0
  8  9  1  0
  8  6  1  0
  9 10  1  1
 10 11  1  0
 11 12  2  0
 13 12  1  0
 14 13  1  0
 15 14  2  0
 16 15  1  0
 17 16  2  0
 17 18  1  0
 18 19  2  0
 19 14  1  0
 19 11  1  0
 20  9  1  0
 21 20  2  0
 22 20  1  0
 23 24  1  6
 23 22  1  0
 25 29  1  0
 25 24  1  0
 26 25  2  0
 27 26  1  0
 27 28  1  0
 28 29  2  0
 30 23  1  0
 30 32  1  0
 31 30  2  0
M  END
$$$$
