HVH.pdb
     RDKit          3D

 28 29  0  0  1  0  0  0  0  0999 V2000
   24.2432  -29.9654  -20.5675 N   0  0  0  0  0  0  0  0  0  0  0  0
   24.5429  -29.5880  -19.2213 C   0  0  1  0  0  0  0  0  0  0  0  0
   23.2281  -29.2285  -18.5457 C   0  0  0  0  0  0  0  0  0  0  0  0
   22.7204  -27.9159  -19.0517 C   0  0  0  0  0  0  0  0  0  0  0  0
   21.7009  -27.7380  -19.9613 C   0  0  0  0  0  0  0  0  0  0  0  0
   21.5234  -26.4073  -20.1759 N   0  0  0  0  0  0  0  0  0  0  0  0
   22.4266  -25.7712  -19.4043 C   0  0  0  0  0  0  0  0  0  0  0  0
   23.1534  -26.6853  -18.7218 N   0  0  0  0  0  0  0  0  0  0  0  0
   25.0923  -30.7492  -18.4319 C   0  0  0  0  0  0  0  0  0  0  0  0
   24.7941  -31.9299  -18.7203 O   0  0  0  0  0  0  0  0  0  0  0  0
   28.5543  -32.0175  -15.1422 C   0  0  0  0  0  0  0  0  0  0  0  0
   28.1160  -31.3279  -16.4006 C   0  0  1  0  0  0  0  0  0  0  0  0
   28.9665  -31.6518  -17.5696 C   0  0  0  0  0  0  0  0  0  0  0  0
   26.6341  -31.6178  -16.6350 C   0  0  2  0  0  0  0  0  0  0  0  0
   25.9690  -30.5606  -17.3301 N   0  0  0  0  0  0  0  0  0  0  0  0
   25.9602  -31.9745  -15.3525 C   0  0  0  0  0  0  0  0  0  0  0  0
   25.4470  -31.0948  -14.6124 O   0  0  0  0  0  0  0  0  0  0  0  0
   25.8588  -33.3164  -14.8947 N   0  0  0  0  0  0  0  0  0  0  0  0
   25.1809  -33.6354  -13.6056 C   0  0  1  0  0  0  0  0  0  0  0  0
   23.7588  -33.3107  -13.8523 C   0  0  0  0  0  0  0  0  0  0  0  0
   22.7705  -33.7867  -12.8935 C   0  0  0  0  0  0  0  0  0  0  0  0
   22.8305  -34.4208  -11.6950 C   0  0  0  0  0  0  0  0  0  0  0  0
   21.5595  -34.5760  -11.2358 N   0  0  0  0  0  0  0  0  0  0  0  0
   20.7267  -34.0450  -12.1365 C   0  0  0  0  0  0  0  0  0  0  0  0
   21.4404  -33.5698  -13.1320 N   0  0  0  0  0  0  0  0  0  0  0  0
   25.2953  -35.1328  -13.5061 C   0  0  0  0  0  0  0  0  0  0  0  0
   25.5790  -35.7507  -14.5765 O   0  0  0  0  0  0  0  0  0  0  0  0
   25.1145  -35.8568  -12.3489 O   0  0  0  0  0  0  0  0  0  0  0  0
  2  1  1  6
  2  9  1  0
  3  2  1  0
  3  4  1  0
  4  5  2  0
  5  6  1  0
  7  6  1  0
  8  4  1  0
  8  7  2  0
  9 10  2  0
 12 11  1  1
 12 14  1  0
 13 12  1  0
 14 16  1  0
 14 15  1  1
 15  9  1  0
 16 18  1  0
 16 17  2  0
 18 19  1  0
 19 26  1  0
 19 20  1  6
 21 20  1  0
 21 25  1  0
 22 21  2  0
 23 22  1  0
 23 24  1  0
 24 25  2  0
 26 27  2  0
 26 28  1  0
M  END
$$$$
