HVH.pdb
     RDKit          3D

 28 29  0  0  1  0  0  0  0  0999 V2000
   18.8534  -13.1272  -16.4460 N   0  0  0  0  0  0  0  0  0  0  0  0
   18.9757  -11.7652  -16.8637 C   0  0  1  0  0  0  0  0  0  0  0  0
   17.5731  -11.1791  -16.9218 C   0  0  0  0  0  0  0  0  0  0  0  0
   16.7902  -11.8018  -18.0335 C   0  0  0  0  0  0  0  0  0  0  0  0
   16.8718  -11.4679  -19.3677 C   0  0  0  0  0  0  0  0  0  0  0  0
   16.0113  -12.2476  -20.0749 N   0  0  0  0  0  0  0  0  0  0  0  0
   15.4050  -13.0551  -19.1827 C   0  0  0  0  0  0  0  0  0  0  0  0
   15.8765  -12.7857  -17.9440 N   0  0  0  0  0  0  0  0  0  0  0  0
   19.7116  -10.9379  -15.8403 C   0  0  0  0  0  0  0  0  0  0  0  0
   19.3999  -10.9755  -14.6288 O   0  0  0  0  0  0  0  0  0  0  0  0
   23.0144  -11.2039  -14.6639 C   0  0  0  0  0  0  0  0  0  0  0  0
   23.0019   -9.7895  -15.1646 C   0  0  1  0  0  0  0  0  0  0  0  0
   23.7688   -9.6083  -16.4191 C   0  0  0  0  0  0  0  0  0  0  0  0
   21.5539   -9.3130  -15.2695 C   0  0  2  0  0  0  0  0  0  0  0  0
   20.7868  -10.0817  -16.1990 N   0  0  0  0  0  0  0  0  0  0  0  0
   21.5027   -7.8495  -15.5550 C   0  0  0  0  0  0  0  0  0  0  0  0
   21.5648   -7.4064  -16.7318 O   0  0  0  0  0  0  0  0  0  0  0  0
   21.3820   -6.8778  -14.5246 N   0  0  0  0  0  0  0  0  0  0  0  0
   21.3782   -5.4213  -14.8435 C   0  0  1  0  0  0  0  0  0  0  0  0
   20.0058   -4.9797  -14.5115 C   0  0  0  0  0  0  0  0  0  0  0  0
   18.9604   -5.1850  -15.5053 C   0  0  0  0  0  0  0  0  0  0  0  0
   18.9386   -5.6019  -16.7966 C   0  0  0  0  0  0  0  0  0  0  0  0
   17.6422   -5.6351  -17.2075 N   0  0  0  0  0  0  0  0  0  0  0  0
   16.8744   -5.2453  -16.1849 C   0  0  0  0  0  0  0  0  0  0  0  0
   17.6525   -4.9739  -15.1617 N   0  0  0  0  0  0  0  0  0  0  0  0
   22.3071   -4.8312  -13.8168 C   0  0  0  0  0  0  0  0  0  0  0  0
   22.6793   -5.6023  -12.8814 O   0  0  0  0  0  0  0  0  0  0  0  0
   22.7671   -3.5335  -13.8309 O   0  0  0  0  0  0  0  0  0  0  0  0
  2  1  1  1
  2  9  1  0
  3  2  1  0
  3  4  1  0
  4  5  2  0
  5  6  1  0
  7  6  1  0
  8  4  1  0
  8  7  2  0
  9 10  2  0
 12 11  1  6
 12 14  1  0
 13 12  1  0
 14 16  1  0
 14 15  1  6
 15  9  1  0
 16 18  1  0
 16 17  2  0
 18 19  1  0
 19 26  1  0
 19 20  1  1
 21 20  1  0
 21 25  1  0
 22 21  2  0
 23 22  1  0
 23 24  1  0
 24 25  2  0
 26 27  2  0
 26 28  1  0
M  END
$$$$
