HVH.pdb
     RDKit          3D

 28 29  0  0  1  0  0  0  0  0999 V2000
   29.9196   -9.7952  -25.4061 N   0  0  0  0  0  0  0  0  0  0  0  0
   29.2076  -10.3908  -24.3184 C   0  0  1  0  0  0  0  0  0  0  0  0
   30.2108  -10.6489  -23.2044 C   0  0  0  0  0  0  0  0  0  0  0  0
   31.0325  -11.8607  -23.5090 C   0  0  0  0  0  0  0  0  0  0  0  0
   32.2584  -11.8711  -24.1378 C   0  0  0  0  0  0  0  0  0  0  0  0
   32.6960  -13.1544  -24.2383 N   0  0  0  0  0  0  0  0  0  0  0  0
   31.7468  -13.9277  -23.6757 C   0  0  0  0  0  0  0  0  0  0  0  0
   30.7371  -13.1442  -23.2329 N   0  0  0  0  0  0  0  0  0  0  0  0
   28.1973   -9.4374  -23.7322 C   0  0  0  0  0  0  0  0  0  0  0  0
   28.4571   -8.2214  -23.5911 O   0  0  0  0  0  0  0  0  0  0  0  0
   24.4269  -10.7122  -23.7481 C   0  0  0  0  0  0  0  0  0  0  0  0
   24.5216   -9.2740  -23.3314 C   0  0  1  0  0  0  0  0  0  0  0  0
   23.4254   -8.8556  -22.4269 C   0  0  0  0  0  0  0  0  0  0  0  0
   25.9119   -9.0155  -22.7526 C   0  0  2  0  0  0  0  0  0  0  0  0
   26.9103   -9.8703  -23.3146 N   0  0  0  0  0  0  0  0  0  0  0  0
   25.8788   -9.0742  -21.2621 C   0  0  0  0  0  0  0  0  0  0  0  0
   25.8195  -10.1718  -20.6484 O   0  0  0  0  0  0  0  0  0  0  0  0
   25.9119   -7.9050  -20.4545 N   0  0  0  0  0  0  0  0  0  0  0  0
   25.9518   -8.0037  -18.9672 C   0  0  1  0  0  0  0  0  0  0  0  0
   27.0475   -7.0919  -18.5715 C   0  0  0  0  0  0  0  0  0  0  0  0
   28.4039   -7.6227  -18.5407 C   0  0  0  0  0  0  0  0  0  0  0  0
   28.9570   -8.8434  -18.7553 C   0  0  0  0  0  0  0  0  0  0  0  0
   30.3057   -8.7247  -18.6228 N   0  0  0  0  0  0  0  0  0  0  0  0
   30.5818   -7.4495  -18.3316 C   0  0  0  0  0  0  0  0  0  0  0  0
   29.4516   -6.7816  -18.2802 N   0  0  0  0  0  0  0  0  0  0  0  0
   24.6558   -7.3725  -18.5351 C   0  0  0  0  0  0  0  0  0  0  0  0
   24.4529   -7.2959  -17.2857 O   0  0  0  0  0  0  0  0  0  0  0  0
   23.6977   -6.8839  -19.3950 O   0  0  0  0  0  0  0  0  0  0  0  0
  2  1  1  6
  2  9  1  0
  3  2  1  0
  3  4  1  0
  4  5  2  0
  5  6  1  0
  7  6  1  0
  8  4  1  0
  8  7  2  0
  9 10  2  0
 12 11  1  1
 12 14  1  0
 13 12  1  0
 14 16  1  0
 14 15  1  6
 15  9  1  0
 16 18  1  0
 16 17  2  0
 18 19  1  0
 19 26  1  0
 19 20  1  1
 21 20  1  0
 21 25  1  0
 22 21  2  0
 23 22  1  0
 23 24  1  0
 24 25  2  0
 26 27  2  0
 26 28  1  0
M  END
$$$$
