HVH.pdb
     RDKit          3D

 28 29  0  0  1  0  0  0  0  0999 V2000
   22.9776  -10.2863  -17.8924 N   0  0  0  0  0  0  0  0  0  0  0  0
   22.6465   -8.9392  -18.2390 C   0  0  1  0  0  0  0  0  0  0  0  0
   21.5202   -8.9953  -19.2600 C   0  0  0  0  0  0  0  0  0  0  0  0
   22.0300   -9.4890  -20.5764 C   0  0  0  0  0  0  0  0  0  0  0  0
   22.0991   -8.7598  -21.7434 C   0  0  0  0  0  0  0  0  0  0  0  0
   22.6160   -9.5429  -22.7273 N   0  0  0  0  0  0  0  0  0  0  0  0
   22.8630  -10.7447  -22.1701 C   0  0  0  0  0  0  0  0  0  0  0  0
   22.5080  -10.7133  -20.8653 N   0  0  0  0  0  0  0  0  0  0  0  0
   22.0790   -8.1896  -17.0602 C   0  0  0  0  0  0  0  0  0  0  0  0
   21.3511   -8.7599  -16.2169 O   0  0  0  0  0  0  0  0  0  0  0  0
   23.3281   -4.2208  -16.4474 C   0  0  0  0  0  0  0  0  0  0  0  0
   22.7775   -4.9720  -15.2710 C   0  0  1  0  0  0  0  0  0  0  0  0
   22.1916   -4.0877  -14.2368 C   0  0  0  0  0  0  0  0  0  0  0  0
   21.8047   -6.0377  -15.7739 C   0  0  2  0  0  0  0  0  0  0  0  0
   22.3412   -6.8092  -16.8511 N   0  0  0  0  0  0  0  0  0  0  0  0
   20.4845   -5.4274  -16.1068 C   0  0  0  0  0  0  0  0  0  0  0  0
   20.2954   -4.8218  -17.1942 O   0  0  0  0  0  0  0  0  0  0  0  0
   19.3725   -5.4932  -15.2238 N   0  0  0  0  0  0  0  0  0  0  0  0
   18.0469   -4.9377  -15.6208 C   0  0  1  0  0  0  0  0  0  0  0  0
   17.0671   -5.8198  -14.9495 C   0  0  0  0  0  0  0  0  0  0  0  0
   16.7164   -7.0753  -15.6000 C   0  0  0  0  0  0  0  0  0  0  0  0
   16.9252   -7.6033  -16.8328 C   0  0  0  0  0  0  0  0  0  0  0  0
   16.3921   -8.8546  -16.8517 N   0  0  0  0  0  0  0  0  0  0  0  0
   15.8626   -9.0967  -15.6483 C   0  0  0  0  0  0  0  0  0  0  0  0
   16.0512   -8.0391  -14.8918 N   0  0  0  0  0  0  0  0  0  0  0  0
   18.0023   -3.6004  -14.9319 C   0  0  0  0  0  0  0  0  0  0  0  0
   18.8354   -3.4197  -13.9931 O   0  0  0  0  0  0  0  0  0  0  0  0
   17.1308   -2.5835  -15.2517 O   0  0  0  0  0  0  0  0  0  0  0  0
  2  1  1  1
  2  9  1  0
  3  2  1  0
  3  4  1  0
  4  5  2  0
  5  6  1  0
  7  6  1  0
  8  4  1  0
  8  7  2  0
  9 10  2  0
 12 11  1  6
 12 14  1  0
 13 12  1  0
 14 16  1  0
 14 15  1  6
 15  9  1  0
 16 18  1  0
 16 17  2  0
 18 19  1  0
 19 26  1  0
 19 20  1  1
 21 20  1  0
 21 25  1  0
 22 21  2  0
 23 22  1  0
 23 24  1  0
 24 25  2  0
 26 27  2  0
 26 28  1  0
M  END
$$$$
