HVH.pdb
     RDKit          3D

 28 29  0  0  1  0  0  0  0  0999 V2000
   16.9828  -11.6152  -15.7172 N   0  0  0  0  0  0  0  0  0  0  0  0
   17.7841  -10.6012  -16.3289 C   0  0  1  0  0  0  0  0  0  0  0  0
   16.8548   -9.4640  -16.7257 C   0  0  0  0  0  0  0  0  0  0  0  0
   15.9681   -9.8814  -17.8554 C   0  0  0  0  0  0  0  0  0  0  0  0
   16.3451  -10.0170  -19.1736 C   0  0  0  0  0  0  0  0  0  0  0  0
   15.2697  -10.4121  -19.9055 N   0  0  0  0  0  0  0  0  0  0  0  0
   14.2388  -10.5187  -19.0444 C   0  0  0  0  0  0  0  0  0  0  0  0
   14.6612  -10.1971  -17.8003 N   0  0  0  0  0  0  0  0  0  0  0  0
   18.7556   -9.9978  -15.3463 C   0  0  0  0  0  0  0  0  0  0  0  0
   18.3897   -9.6504  -14.2010 O   0  0  0  0  0  0  0  0  0  0  0  0
   22.3614  -11.0632  -15.6933 C   0  0  0  0  0  0  0  0  0  0  0  0
   22.3964   -9.9130  -14.7303 C   0  0  1  0  0  0  0  0  0  0  0  0
   23.5809   -9.0408  -14.9067 C   0  0  0  0  0  0  0  0  0  0  0  0
   21.0723   -9.1550  -14.8143 C   0  0  2  0  0  0  0  0  0  0  0  0
   20.1238   -9.7959  -15.6705 N   0  0  0  0  0  0  0  0  0  0  0  0
   21.3070   -7.7287  -15.1838 C   0  0  0  0  0  0  0  0  0  0  0  0
   21.5377   -7.3868  -16.3733 O   0  0  0  0  0  0  0  0  0  0  0  0
   21.2843   -6.6811  -14.2233 N   0  0  0  0  0  0  0  0  0  0  0  0
   21.4384   -5.2578  -14.6402 C   0  0  1  0  0  0  0  0  0  0  0  0
   20.1895   -4.6082  -14.1850 C   0  0  0  0  0  0  0  0  0  0  0  0
   19.0415   -4.6253  -15.0818 C   0  0  0  0  0  0  0  0  0  0  0  0
   18.8364   -5.0225  -16.3633 C   0  0  0  0  0  0  0  0  0  0  0  0
   17.5222   -4.8321  -16.6588 N   0  0  0  0  0  0  0  0  0  0  0  0
   16.9241   -4.3257  -15.5757 C   0  0  0  0  0  0  0  0  0  0  0  0
   17.8236   -4.1982  -14.6266 N   0  0  0  0  0  0  0  0  0  0  0  0
   22.5576   -4.7527  -13.7700 C   0  0  0  0  0  0  0  0  0  0  0  0
   22.9324   -5.5172  -12.8302 O   0  0  0  0  0  0  0  0  0  0  0  0
   23.1854   -3.5375  -13.9285 O   0  0  0  0  0  0  0  0  0  0  0  0
  2  1  1  1
  2  9  1  0
  3  2  1  0
  3  4  1  0
  4  5  2  0
  5  6  1  0
  7  6  1  0
  8  4  1  0
  8  7  2  0
  9 10  2  0
 12 11  1  6
 12 14  1  0
 13 12  1  0
 14 16  1  0
 14 15  1  6
 15  9  1  0
 16 18  1  0
 16 17  2  0
 18 19  1  0
 19 26  1  0
 19 20  1  1
 21 20  1  0
 21 25  1  0
 22 21  2  0
 23 22  1  0
 23 24  1  0
 24 25  2  0
 26 27  2  0
 26 28  1  0
M  END
$$$$
