HVH.pdb
     RDKit          3D

 28 29  0  0  1  0  0  0  0  0999 V2000
   28.1474  -35.8750   -8.7550 N   0  0  0  0  0  0  0  0  0  0  0  0
   28.7318  -34.9883   -7.7974 C   0  0  1  0  0  0  0  0  0  0  0  0
   27.6056  -34.4530   -6.9259 C   0  0  0  0  0  0  0  0  0  0  0  0
   26.8391  -33.3936   -7.6517 C   0  0  0  0  0  0  0  0  0  0  0  0
   27.1872  -32.8241   -8.8571 C   0  0  0  0  0  0  0  0  0  0  0  0
   26.2497  -31.9011   -9.2001 N   0  0  0  0  0  0  0  0  0  0  0  0
   25.3319  -31.9027   -8.2136 C   0  0  0  0  0  0  0  0  0  0  0  0
   25.6883  -32.8076   -7.2736 N   0  0  0  0  0  0  0  0  0  0  0  0
   29.6511  -35.7225   -6.8544 C   0  0  0  0  0  0  0  0  0  0  0  0
   29.4838  -36.9357   -6.5971 O   0  0  0  0  0  0  0  0  0  0  0  0
   33.4454  -35.0987   -6.9924 C   0  0  0  0  0  0  0  0  0  0  0  0
   33.1074  -35.1726   -5.5324 C   0  0  1  0  0  0  0  0  0  0  0  0
   33.3042  -33.8872   -4.8225 C   0  0  0  0  0  0  0  0  0  0  0  0
   31.6955  -35.7362   -5.3778 C   0  0  2  0  0  0  0  0  0  0  0  0
   30.7443  -35.0771   -6.2169 N   0  0  0  0  0  0  0  0  0  0  0  0
   31.2877  -35.7427   -3.9426 C   0  0  0  0  0  0  0  0  0  0  0  0
   30.8224  -34.7135   -3.3865 O   0  0  0  0  0  0  0  0  0  0  0  0
   31.3993  -36.9007   -3.1259 N   0  0  0  0  0  0  0  0  0  0  0  0
   30.8900  -36.9002   -1.7246 C   0  0  1  0  0  0  0  0  0  0  0  0
   30.9322  -38.3231   -1.3218 C   0  0  0  0  0  0  0  0  0  0  0  0
   30.6122  -38.6541    0.0605 C   0  0  0  0  0  0  0  0  0  0  0  0
   30.1719  -37.9500    1.1339 C   0  0  0  0  0  0  0  0  0  0  0  0
   30.0101  -38.8170    2.1697 N   0  0  0  0  0  0  0  0  0  0  0  0
   30.3446  -40.0387    1.7423 C   0  0  0  0  0  0  0  0  0  0  0  0
   30.7061  -39.9528    0.4821 N   0  0  0  0  0  0  0  0  0  0  0  0
   31.9643  -36.1778   -0.9572 C   0  0  0  0  0  0  0  0  0  0  0  0
   33.1512  -36.3123   -1.3829 O   0  0  0  0  0  0  0  0  0  0  0  0
   31.7418  -35.3970    0.1549 O   0  0  0  0  0  0  0  0  0  0  0  0
  2  1  1  6
  2  9  1  0
  3  2  1  0
  3  4  1  0
  4  5  2  0
  5  6  1  0
  7  6  1  0
  8  4  1  0
  8  7  2  0
  9 10  2  0
 12 11  1  6
 12 14  1  0
 13 12  1  0
 14 16  1  0
 14 15  1  6
 15  9  1  0
 16 18  1  0
 16 17  2  0
 18 19  1  0
 19 26  1  0
 19 20  1  1
 21 20  1  0
 21 25  1  0
 22 21  2  0
 23 22  1  0
 23 24  1  0
 24 25  2  0
 26 27  2  0
 26 28  1  0
M  END
$$$$
