HVH.pdb
     RDKit          3D

 28 29  0  0  1  0  0  0  0  0999 V2000
   28.0162  -20.9928  -16.2670 N   0  0  0  0  0  0  0  0  0  0  0  0
   27.4026  -20.1101  -15.3242 C   0  0  1  0  0  0  0  0  0  0  0  0
   26.6674  -19.0386  -16.1152 C   0  0  0  0  0  0  0  0  0  0  0  0
   27.6398  -18.1469  -16.8194 C   0  0  0  0  0  0  0  0  0  0  0  0
   28.4202  -17.1753  -16.2318 C   0  0  0  0  0  0  0  0  0  0  0  0
   29.1759  -16.5731  -17.1882 N   0  0  0  0  0  0  0  0  0  0  0  0
   28.8630  -17.1695  -18.3552 C   0  0  0  0  0  0  0  0  0  0  0  0
   27.9313  -18.1244  -18.1329 N   0  0  0  0  0  0  0  0  0  0  0  0
   26.3380  -20.8138  -14.5211 C   0  0  0  0  0  0  0  0  0  0  0  0
   25.5093  -21.5759  -15.0677 O   0  0  0  0  0  0  0  0  0  0  0  0
   25.7407  -19.6628  -10.4527 C   0  0  0  0  0  0  0  0  0  0  0  0
   25.4325  -21.0833  -10.8249 C   0  0  1  0  0  0  0  0  0  0  0  0
   24.3601  -21.6833   -9.9975 C   0  0  0  0  0  0  0  0  0  0  0  0
   25.1464  -21.1524  -12.3244 C   0  0  2  0  0  0  0  0  0  0  0  0
   26.2248  -20.6471  -13.1149 N   0  0  0  0  0  0  0  0  0  0  0  0
   23.8452  -20.4945  -12.6409 C   0  0  0  0  0  0  0  0  0  0  0  0
   23.7653  -19.2524  -12.8304 O   0  0  0  0  0  0  0  0  0  0  0  0
   22.6301  -21.2245  -12.7462 N   0  0  0  0  0  0  0  0  0  0  0  0
   21.3426  -20.5292  -13.0325 C   0  0  1  0  0  0  0  0  0  0  0  0
   20.6922  -21.3755  -14.0569 C   0  0  0  0  0  0  0  0  0  0  0  0
   21.0794  -21.1869  -15.4487 C   0  0  0  0  0  0  0  0  0  0  0  0
   21.8647  -20.2991  -16.1098 C   0  0  0  0  0  0  0  0  0  0  0  0
   21.8854  -20.6508  -17.4237 N   0  0  0  0  0  0  0  0  0  0  0  0
   21.1251  -21.7403  -17.5721 C   0  0  0  0  0  0  0  0  0  0  0  0
   20.6383  -22.0696  -16.3970 N   0  0  0  0  0  0  0  0  0  0  0  0
   20.5644  -20.6834  -11.7536 C   0  0  0  0  0  0  0  0  0  0  0  0
   20.9274  -21.6205  -10.9802 O   0  0  0  0  0  0  0  0  0  0  0  0
   19.5052  -19.8866  -11.3805 O   0  0  0  0  0  0  0  0  0  0  0  0
  2  1  1  6
  2  9  1  0
  3  2  1  0
  3  4  1  0
  4  5  2  0
  5  6  1  0
  7  6  1  0
  8  4  1  0
  8  7  2  0
  9 10  2  0
 12 11  1  1
 12 14  1  0
 13 12  1  0
 14 16  1  0
 14 15  1  6
 15  9  1  0
 16 18  1  0
 16 17  2  0
 18 19  1  0
 19 26  1  0
 19 20  1  6
 21 20  1  0
 21 25  1  0
 22 21  2  0
 23 22  1  0
 23 24  1  0
 24 25  2  0
 26 27  2  0
 26 28  1  0
M  END
$$$$
