HVH.pdb
     RDKit          3D

 28 29  0  0  1  0  0  0  0  0999 V2000
   26.9785  -24.5491  -16.7213 N   0  0  0  0  0  0  0  0  0  0  0  0
   26.1018  -23.4401  -16.9360 C   0  0  1  0  0  0  0  0  0  0  0  0
   24.6876  -23.9909  -17.0395 C   0  0  0  0  0  0  0  0  0  0  0  0
   24.4635  -24.6115  -18.3816 C   0  0  0  0  0  0  0  0  0  0  0  0
   24.0659  -23.9507  -19.5234 C   0  0  0  0  0  0  0  0  0  0  0  0
   23.9690  -24.8442  -20.5435 N   0  0  0  0  0  0  0  0  0  0  0  0
   24.3044  -26.0454  -20.0336 C   0  0  0  0  0  0  0  0  0  0  0  0
   24.6047  -25.9057  -18.7221 N   0  0  0  0  0  0  0  0  0  0  0  0
   26.0827  -22.5134  -15.7467 C   0  0  0  0  0  0  0  0  0  0  0  0
   26.1619  -22.9543  -14.5782 O   0  0  0  0  0  0  0  0  0  0  0  0
   28.1605  -19.3091  -15.6535 C   0  0  0  0  0  0  0  0  0  0  0  0
   26.8058  -18.9111  -15.1457 C   0  0  1  0  0  0  0  0  0  0  0  0
   26.0869  -17.9935  -16.0600 C   0  0  0  0  0  0  0  0  0  0  0  0
   26.0112  -20.1726  -14.8109 C   0  0  2  0  0  0  0  0  0  0  0  0
   25.9747  -21.1046  -15.8940 N   0  0  0  0  0  0  0  0  0  0  0  0
   24.6503  -19.8182  -14.3124 C   0  0  0  0  0  0  0  0  0  0  0  0
   24.4898  -19.0486  -13.3291 O   0  0  0  0  0  0  0  0  0  0  0  0
   23.4653  -20.3240  -14.9129 N   0  0  0  0  0  0  0  0  0  0  0  0
   22.1237  -19.9994  -14.3491 C   0  0  1  0  0  0  0  0  0  0  0  0
   21.3196  -19.6061  -15.5270 C   0  0  0  0  0  0  0  0  0  0  0  0
   21.4711  -18.2505  -16.0388 C   0  0  0  0  0  0  0  0  0  0  0  0
   22.2253  -17.6745  -17.0091 C   0  0  0  0  0  0  0  0  0  0  0  0
   21.9062  -16.3533  -17.0631 N   0  0  0  0  0  0  0  0  0  0  0  0
   20.9681  -16.1165  -16.1405 C   0  0  0  0  0  0  0  0  0  0  0  0
   20.7003  -17.2445  -15.5222 N   0  0  0  0  0  0  0  0  0  0  0  0
   21.6089  -21.3302  -13.8704 C   0  0  0  0  0  0  0  0  0  0  0  0
   22.2944  -22.3489  -14.1872 O   0  0  0  0  0  0  0  0  0  0  0  0
   20.4639  -21.5051  -13.1259 O   0  0  0  0  0  0  0  0  0  0  0  0
  2  1  1  1
  2  9  1  0
  3  2  1  0
  3  4  1  0
  4  5  2  0
  5  6  1  0
  7  6  1  0
  8  4  1  0
  8  7  2  0
  9 10  2  0
 12 11  1  6
 12 14  1  0
 13 12  1  0
 14 16  1  0
 14 15  1  6
 15  9  1  0
 16 18  1  0
 16 17  2  0
 18 19  1  0
 19 26  1  0
 19 20  1  6
 21 20  1  0
 21 25  1  0
 22 21  2  0
 23 22  1  0
 23 24  1  0
 24 25  2  0
 26 27  2  0
 26 28  1  0
M  END
$$$$
