HVH.pdb
     RDKit          3D

 28 29  0  0  1  0  0  0  0  0999 V2000
   20.9710  -12.3680  -18.6413 N   0  0  0  0  0  0  0  0  0  0  0  0
   21.7293  -11.2863  -18.0941 C   0  0  1  0  0  0  0  0  0  0  0  0
   22.0007  -10.3035  -19.2231 C   0  0  0  0  0  0  0  0  0  0  0  0
   22.9317  -10.9035  -20.2281 C   0  0  0  0  0  0  0  0  0  0  0  0
   24.2549  -11.2240  -20.0164 C   0  0  0  0  0  0  0  0  0  0  0  0
   24.7741  -11.7474  -21.1587 N   0  0  0  0  0  0  0  0  0  0  0  0
   23.7782  -11.7489  -22.0663 C   0  0  0  0  0  0  0  0  0  0  0  0
   22.6600  -11.2373  -21.5030 N   0  0  0  0  0  0  0  0  0  0  0  0
   20.9312  -10.5127  -17.0753 C   0  0  0  0  0  0  0  0  0  0  0  0
   19.6950  -10.3613  -17.1972 O   0  0  0  0  0  0  0  0  0  0  0  0
   22.8126   -9.3791  -13.4511 C   0  0  0  0  0  0  0  0  0  0  0  0
   21.3271   -9.5824  -13.5063 C   0  0  1  0  0  0  0  0  0  0  0  0
   20.6005   -8.8681  -12.4307 C   0  0  0  0  0  0  0  0  0  0  0  0
   20.8295   -9.2287  -14.9071 C   0  0  2  0  0  0  0  0  0  0  0  0
   21.5397   -9.9222  -15.9355 N   0  0  0  0  0  0  0  0  0  0  0  0
   20.8301   -7.7500  -15.1060 C   0  0  0  0  0  0  0  0  0  0  0  0
   21.8969   -7.0823  -15.0720 O   0  0  0  0  0  0  0  0  0  0  0  0
   19.6371   -7.0145  -15.3436 N   0  0  0  0  0  0  0  0  0  0  0  0
   19.6655   -5.5283  -15.4605 C   0  0  1  0  0  0  0  0  0  0  0  0
   19.2675   -5.2660  -16.8611 C   0  0  0  0  0  0  0  0  0  0  0  0
   20.2930   -5.3501  -17.8925 C   0  0  0  0  0  0  0  0  0  0  0  0
   21.4421   -4.6769  -18.1541 C   0  0  0  0  0  0  0  0  0  0  0  0
   22.0178   -5.2358  -19.2526 N   0  0  0  0  0  0  0  0  0  0  0  0
   21.2366   -6.2399  -19.6630 C   0  0  0  0  0  0  0  0  0  0  0  0
   20.2023   -6.3173  -18.8566 N   0  0  0  0  0  0  0  0  0  0  0  0
   18.5340   -5.0814  -14.5745 C   0  0  0  0  0  0  0  0  0  0  0  0
   17.7712   -5.9912  -14.1290 O   0  0  0  0  0  0  0  0  0  0  0  0
   18.2821   -3.7733  -14.2259 O   0  0  0  0  0  0  0  0  0  0  0  0
  2  1  1  6
  2  9  1  0
  3  2  1  0
  3  4  1  0
  4  5  2  0
  5  6  1  0
  7  6  1  0
  8  4  1  0
  8  7  2  0
  9 10  2  0
 12 11  1  6
 12 14  1  0
 13 12  1  0
 14 16  1  0
 14 15  1  6
 15  9  1  0
 16 18  1  0
 16 17  2  0
 18 19  1  0
 19 26  1  0
 19 20  1  6
 21 20  1  0
 21 25  1  0
 22 21  2  0
 23 22  1  0
 23 24  1  0
 24 25  2  0
 26 27  2  0
 26 28  1  0
M  END
$$$$
