HVH.pdb
     RDKit          3D

 28 29  0  0  1  0  0  0  0  0999 V2000
   20.6567  -13.7434  -17.6682 N   0  0  0  0  0  0  0  0  0  0  0  0
   19.8018  -12.5980  -17.7094 C   0  0  1  0  0  0  0  0  0  0  0  0
   18.8814  -12.6730  -16.5005 C   0  0  0  0  0  0  0  0  0  0  0  0
   17.9227  -13.8122  -16.6412 C   0  0  0  0  0  0  0  0  0  0  0  0
   16.8791  -13.8866  -17.5378 C   0  0  0  0  0  0  0  0  0  0  0  0
   16.2313  -15.0700  -17.3690 N   0  0  0  0  0  0  0  0  0  0  0  0
   16.8712  -15.7187  -16.3764 C   0  0  0  0  0  0  0  0  0  0  0  0
   17.8975  -14.9567  -15.9340 N   0  0  0  0  0  0  0  0  0  0  0  0
   20.5828  -11.3199  -17.5373 C   0  0  0  0  0  0  0  0  0  0  0  0
   21.4853  -11.2210  -16.6759 O   0  0  0  0  0  0  0  0  0  0  0  0
   20.2471   -8.5218  -20.5678 C   0  0  0  0  0  0  0  0  0  0  0  0
   21.4728   -8.4704  -19.7040 C   0  0  1  0  0  0  0  0  0  0  0  0
   22.1231   -7.1393  -19.6932 C   0  0  0  0  0  0  0  0  0  0  0  0
   21.1175   -8.9787  -18.3075 C   0  0  2  0  0  0  0  0  0  0  0  0
   20.3340  -10.1738  -18.3389 N   0  0  0  0  0  0  0  0  0  0  0  0
   20.4811   -7.8962  -17.5016 C   0  0  0  0  0  0  0  0  0  0  0  0
   19.2513   -7.6436  -17.5945 O   0  0  0  0  0  0  0  0  0  0  0  0
   21.2191   -7.0936  -16.5897 N   0  0  0  0  0  0  0  0  0  0  0  0
   20.5578   -5.9938  -15.8304 C   0  0  1  0  0  0  0  0  0  0  0  0
   20.9103   -6.2633  -14.4190 C   0  0  0  0  0  0  0  0  0  0  0  0
   20.0821   -7.2011  -13.6726 C   0  0  0  0  0  0  0  0  0  0  0  0
   18.9732   -7.9308  -13.9553 C   0  0  0  0  0  0  0  0  0  0  0  0
   18.6652   -8.6728  -12.8576 N   0  0  0  0  0  0  0  0  0  0  0  0
   19.5708   -8.4064  -11.9111 C   0  0  0  0  0  0  0  0  0  0  0  0
   20.4231   -7.5275  -12.3879 N   0  0  0  0  0  0  0  0  0  0  0  0
   21.3105   -4.7636  -16.2606 C   0  0  0  0  0  0  0  0  0  0  0  0
   22.3257   -4.9504  -16.9972 O   0  0  0  0  0  0  0  0  0  0  0  0
   20.9714   -3.4758  -15.9106 O   0  0  0  0  0  0  0  0  0  0  0  0
  2  1  1  1
  2  9  1  0
  3  2  1  0
  3  4  1  0
  4  5  2  0
  5  6  1  0
  7  6  1  0
  8  4  1  0
  8  7  2  0
  9 10  2  0
 12 11  1  6
 12 14  1  0
 13 12  1  0
 14 16  1  0
 14 15  1  6
 15  9  1  0
 16 18  1  0
 16 17  2  0
 18 19  1  0
 19 26  1  0
 19 20  1  1
 21 20  1  0
 21 25  1  0
 22 21  2  0
 23 22  1  0
 23 24  1  0
 24 25  2  0
 26 27  2  0
 26 28  1  0
M  END
$$$$
