HVH.pdb
     RDKit          3D

 28 29  0  0  1  0  0  0  0  0999 V2000
   27.5158  -19.1168  -16.9012 N   0  0  0  0  0  0  0  0  0  0  0  0
   27.0405  -18.7266  -15.6103 C   0  0  1  0  0  0  0  0  0  0  0  0
   26.1089  -17.5402  -15.8075 C   0  0  0  0  0  0  0  0  0  0  0  0
   26.8930  -16.2728  -15.9316 C   0  0  0  0  0  0  0  0  0  0  0  0
   26.9703  -15.2724  -14.9874 C   0  0  0  0  0  0  0  0  0  0  0  0
   27.7756  -14.2813  -15.4542 N   0  0  0  0  0  0  0  0  0  0  0  0
   28.1906  -14.6689  -16.6761 C   0  0  0  0  0  0  0  0  0  0  0  0
   27.6559  -15.8768  -16.9670 N   0  0  0  0  0  0  0  0  0  0  0  0
   26.1885  -19.8033  -14.9872 C   0  0  0  0  0  0  0  0  0  0  0  0
   25.4108  -20.4980  -15.6791 O   0  0  0  0  0  0  0  0  0  0  0  0
   25.9286  -19.9229  -10.7497 C   0  0  0  0  0  0  0  0  0  0  0  0
   25.7214  -21.2214  -11.4724 C   0  0  1  0  0  0  0  0  0  0  0  0
   24.7950  -22.1388  -10.7689 C   0  0  0  0  0  0  0  0  0  0  0  0
   25.3001  -20.9266  -12.9114 C   0  0  2  0  0  0  0  0  0  0  0  0
   26.2269  -20.0793  -13.5943 N   0  0  0  0  0  0  0  0  0  0  0  0
   23.9043  -20.4010  -12.9520 C   0  0  0  0  0  0  0  0  0  0  0  0
   23.6545  -19.1826  -12.7568 O   0  0  0  0  0  0  0  0  0  0  0  0
   22.7845  -21.2372  -13.2110 N   0  0  0  0  0  0  0  0  0  0  0  0
   21.4007  -20.6819  -13.2180 C   0  0  1  0  0  0  0  0  0  0  0  0
   20.9611  -20.8185  -14.6240 C   0  0  0  0  0  0  0  0  0  0  0  0
   21.4600  -19.8540  -15.5952 C   0  0  0  0  0  0  0  0  0  0  0  0
   22.3220  -19.9110  -16.6419 C   0  0  0  0  0  0  0  0  0  0  0  0
   22.3671  -18.6800  -17.2190 N   0  0  0  0  0  0  0  0  0  0  0  0
   21.5445  -17.8745  -16.5395 C   0  0  0  0  0  0  0  0  0  0  0  0
   20.9966  -18.5665  -15.5663 N   0  0  0  0  0  0  0  0  0  0  0  0
   20.6174  -21.6713  -12.3979 C   0  0  0  0  0  0  0  0  0  0  0  0
   21.1344  -22.8201  -12.2523 O   0  0  0  0  0  0  0  0  0  0  0  0
   19.4002  -21.4110  -11.8093 O   0  0  0  0  0  0  0  0  0  0  0  0
  2  1  1  6
  2  9  1  0
  3  2  1  0
  3  4  1  0
  4  5  2  0
  5  6  1  0
  7  6  1  0
  8  4  1  0
  8  7  2  0
  9 10  2  0
 12 11  1  1
 12 14  1  0
 13 12  1  0
 14 16  1  0
 14 15  1  1
 15  9  1  0
 16 18  1  0
 16 17  2  0
 18 19  1  0
 19 26  1  0
 19 20  1  6
 21 20  1  0
 21 25  1  0
 22 21  2  0
 23 22  1  0
 23 24  1  0
 24 25  2  0
 26 27  2  0
 26 28  1  0
M  END
$$$$
