HVH.pdb
     RDKit          3D

 28 29  0  0  1  0  0  0  0  0999 V2000
   21.0571  -13.0589  -18.6073 N   0  0  0  0  0  0  0  0  0  0  0  0
   21.9471  -11.9644  -18.3735 C   0  0  1  0  0  0  0  0  0  0  0  0
   22.0288  -11.1607  -19.6625 C   0  0  0  0  0  0  0  0  0  0  0  0
   22.7450  -11.9379  -20.7206 C   0  0  0  0  0  0  0  0  0  0  0  0
   22.2161  -12.3413  -21.9272 C   0  0  0  0  0  0  0  0  0  0  0  0
   23.1644  -13.0236  -22.6227 N   0  0  0  0  0  0  0  0  0  0  0  0
   24.2682  -13.0399  -21.8501 C   0  0  0  0  0  0  0  0  0  0  0  0
   24.0152  -12.3816  -20.6959 N   0  0  0  0  0  0  0  0  0  0  0  0
   21.3925  -11.0122  -17.3443 C   0  0  0  0  0  0  0  0  0  0  0  0
   20.2015  -10.6304  -17.3876 O   0  0  0  0  0  0  0  0  0  0  0  0
   23.4738  -10.4651  -13.7503 C   0  0  0  0  0  0  0  0  0  0  0  0
   22.0102  -10.1512  -13.8532 C   0  0  1  0  0  0  0  0  0  0  0  0
   21.5310   -9.2472  -12.7818 C   0  0  0  0  0  0  0  0  0  0  0  0
   21.7119   -9.6309  -15.2586 C   0  0  2  0  0  0  0  0  0  0  0  0
   22.1896  -10.5059  -16.2830 N   0  0  0  0  0  0  0  0  0  0  0  0
   22.2116   -8.2341  -15.4178 C   0  0  0  0  0  0  0  0  0  0  0  0
   23.3796   -7.9956  -15.8225 O   0  0  0  0  0  0  0  0  0  0  0  0
   21.4057   -7.1004  -15.1245 N   0  0  0  0  0  0  0  0  0  0  0  0
   21.9232   -5.7185  -15.3377 C   0  0  1  0  0  0  0  0  0  0  0  0
   20.8288   -5.0266  -16.0535 C   0  0  0  0  0  0  0  0  0  0  0  0
   20.7104   -5.2347  -17.4906 C   0  0  0  0  0  0  0  0  0  0  0  0
   21.5514   -5.1017  -18.5475 C   0  0  0  0  0  0  0  0  0  0  0  0
   20.8840   -5.4865  -19.6687 N   0  0  0  0  0  0  0  0  0  0  0  0
   19.6494   -5.8526  -19.3098 C   0  0  0  0  0  0  0  0  0  0  0  0
   19.5349   -5.7061  -18.0092 N   0  0  0  0  0  0  0  0  0  0  0  0
   21.9906   -5.1466  -13.9472 C   0  0  0  0  0  0  0  0  0  0  0  0
   21.4020   -5.8039  -13.0363 O   0  0  0  0  0  0  0  0  0  0  0  0
   22.6380   -3.9788  -13.6113 O   0  0  0  0  0  0  0  0  0  0  0  0
  2  1  1  6
  2  9  1  0
  3  2  1  0
  3  4  1  0
  4  5  2  0
  5  6  1  0
  7  6  1  0
  8  4  1  0
  8  7  2  0
  9 10  2  0
 12 11  1  6
 12 14  1  0
 13 12  1  0
 14 16  1  0
 14 15  1  6
 15  9  1  0
 16 18  1  0
 16 17  2  0
 18 19  1  0
 19 26  1  0
 19 20  1  6
 21 20  1  0
 21 25  1  0
 22 21  2  0
 23 22  1  0
 23 24  1  0
 24 25  2  0
 26 27  2  0
 26 28  1  0
M  END
$$$$
