HVH.pdb
     RDKit          3D

 28 29  0  0  1  0  0  0  0  0999 V2000
   19.4156  -12.7441  -17.6752 N   0  0  0  0  0  0  0  0  0  0  0  0
   19.7862  -11.3919  -17.9558 C   0  0  1  0  0  0  0  0  0  0  0  0
   18.5248  -10.6512  -18.3733 C   0  0  0  0  0  0  0  0  0  0  0  0
   18.0342  -11.1541  -19.6936 C   0  0  0  0  0  0  0  0  0  0  0  0
   18.6392  -10.9485  -20.9143 C   0  0  0  0  0  0  0  0  0  0  0  0
   17.9035  -11.5554  -21.8832 N   0  0  0  0  0  0  0  0  0  0  0  0
   16.8540  -12.1300  -21.2637 C   0  0  0  0  0  0  0  0  0  0  0  0
   16.9320  -11.8873  -19.9353 N   0  0  0  0  0  0  0  0  0  0  0  0
   20.2723  -10.6842  -16.7163 C   0  0  0  0  0  0  0  0  0  0  0  0
   19.6138  -10.7112  -15.6524 O   0  0  0  0  0  0  0  0  0  0  0  0
   23.0704  -11.4566  -14.7495 C   0  0  0  0  0  0  0  0  0  0  0  0
   23.3529  -10.0216  -15.0842 C   0  0  1  0  0  0  0  0  0  0  0  0
   24.4589   -9.8564  -16.0560 C   0  0  0  0  0  0  0  0  0  0  0  0
   22.0542   -9.3510  -15.5299 C   0  0  2  0  0  0  0  0  0  0  0  0
   21.4928   -9.9577  -16.6961 N   0  0  0  0  0  0  0  0  0  0  0  0
   22.2500   -7.8801  -15.6858 C   0  0  0  0  0  0  0  0  0  0  0  0
   22.8243   -7.3967  -16.6964 O   0  0  0  0  0  0  0  0  0  0  0  0
   21.8039   -6.9464  -14.7113 N   0  0  0  0  0  0  0  0  0  0  0  0
   22.0403   -5.4849  -14.8880 C   0  0  1  0  0  0  0  0  0  0  0  0
   20.6844   -4.9129  -15.0405 C   0  0  0  0  0  0  0  0  0  0  0  0
   20.0512   -4.9898  -16.3503 C   0  0  0  0  0  0  0  0  0  0  0  0
   20.4124   -5.4933  -17.5578 C   0  0  0  0  0  0  0  0  0  0  0  0
   19.3758   -5.3085  -18.4191 N   0  0  0  0  0  0  0  0  0  0  0  0
   18.3885   -4.7008  -17.7536 C   0  0  0  0  0  0  0  0  0  0  0  0
   18.7818   -4.5056  -16.5152 N   0  0  0  0  0  0  0  0  0  0  0  0
   22.5710   -5.0473  -13.5494 C   0  0  0  0  0  0  0  0  0  0  0  0
   22.5623   -5.9163  -12.6259 O   0  0  0  0  0  0  0  0  0  0  0  0
   23.0546   -3.7882  -13.2723 O   0  0  0  0  0  0  0  0  0  0  0  0
  2  1  1  1
  2  9  1  0
  3  2  1  0
  3  4  1  0
  4  5  2  0
  5  6  1  0
  7  6  1  0
  8  4  1  0
  8  7  2  0
  9 10  2  0
 12 11  1  6
 12 14  1  0
 13 12  1  0
 14 16  1  0
 14 15  1  6
 15  9  1  0
 16 18  1  0
 16 17  2  0
 18 19  1  0
 19 26  1  0
 19 20  1  1
 21 20  1  0
 21 25  1  0
 22 21  2  0
 23 22  1  0
 23 24  1  0
 24 25  2  0
 26 27  2  0
 26 28  1  0
M  END
$$$$
