HVH.pdb
     RDKit          3D

 28 29  0  0  1  0  0  0  0  0999 V2000
   27.9085   -9.3407  -20.6286 N   0  0  0  0  0  0  0  0  0  0  0  0
   27.2976   -8.9653  -19.3915 C   0  0  1  0  0  0  0  0  0  0  0  0
   26.3296   -7.8297  -19.6878 C   0  0  0  0  0  0  0  0  0  0  0  0
   27.0734   -6.6051  -20.1163 C   0  0  0  0  0  0  0  0  0  0  0  0
   27.9443   -5.8729  -19.3392 C   0  0  0  0  0  0  0  0  0  0  0  0
   28.4251   -4.8321  -20.0700 N   0  0  0  0  0  0  0  0  0  0  0  0
   27.8546   -4.9231  -21.2873 C   0  0  0  0  0  0  0  0  0  0  0  0
   27.0343   -5.9982  -21.3167 N   0  0  0  0  0  0  0  0  0  0  0  0
   26.4472  -10.0793  -18.8354 C   0  0  0  0  0  0  0  0  0  0  0  0
   25.7567  -10.8055  -19.5850 O   0  0  0  0  0  0  0  0  0  0  0  0
   26.7071  -11.0019  -14.6608 C   0  0  0  0  0  0  0  0  0  0  0  0
   26.4919  -12.0770  -15.6851 C   0  0  1  0  0  0  0  0  0  0  0  0
   25.8564  -13.2940  -15.1284 C   0  0  0  0  0  0  0  0  0  0  0  0
   25.7287  -11.4874  -16.8704 C   0  0  2  0  0  0  0  0  0  0  0  0
   26.3890  -10.3565  -17.4434 N   0  0  0  0  0  0  0  0  0  0  0  0
   24.3154  -11.1958  -16.4915 C   0  0  0  0  0  0  0  0  0  0  0  0
   23.4436  -12.1033  -16.4555 O   0  0  0  0  0  0  0  0  0  0  0  0
   23.8738   -9.8880  -16.1520 N   0  0  0  0  0  0  0  0  0  0  0  0
   22.4411   -9.6227  -15.8356 C   0  0  1  0  0  0  0  0  0  0  0  0
   22.1654  -10.4730  -14.6567 C   0  0  0  0  0  0  0  0  0  0  0  0
   21.0742  -11.4342  -14.7448 C   0  0  0  0  0  0  0  0  0  0  0  0
   20.2244  -11.8272  -15.7274 C   0  0  0  0  0  0  0  0  0  0  0  0
   19.4271  -12.8096  -15.2277 N   0  0  0  0  0  0  0  0  0  0  0  0
   19.7796  -13.0211  -13.9556 C   0  0  0  0  0  0  0  0  0  0  0  0
   20.7640  -12.2040  -13.6565 N   0  0  0  0  0  0  0  0  0  0  0  0
   22.4395   -8.1902  -15.3740 C   0  0  0  0  0  0  0  0  0  0  0  0
   23.5651   -7.6940  -15.0660 O   0  0  0  0  0  0  0  0  0  0  0  0
   21.3148   -7.4029  -15.2679 O   0  0  0  0  0  0  0  0  0  0  0  0
  2  1  1  6
  2  9  1  0
  3  2  1  0
  3  4  1  0
  4  5  2  0
  5  6  1  0
  7  6  1  0
  8  4  1  0
  8  7  2  0
  9 10  2  0
 12 11  1  1
 12 14  1  0
 13 12  1  0
 14 16  1  0
 14 15  1  1
 15  9  1  0
 16 18  1  0
 16 17  2  0
 18 19  1  0
 19 26  1  0
 19 20  1  1
 21 20  1  0
 21 25  1  0
 22 21  2  0
 23 22  1  0
 23 24  1  0
 24 25  2  0
 26 27  2  0
 26 28  1  0
M  END
$$$$
