HVH.pdb
     RDKit          3D

 28 29  0  0  1  0  0  0  0  0999 V2000
   18.3141  -13.4332  -16.8067 N   0  0  0  0  0  0  0  0  0  0  0  0
   18.7793  -12.1986  -17.3579 C   0  0  1  0  0  0  0  0  0  0  0  0
   17.5554  -11.3897  -17.7602 C   0  0  0  0  0  0  0  0  0  0  0  0
   16.8764  -12.0158  -18.9364 C   0  0  0  0  0  0  0  0  0  0  0  0
   17.1361  -11.7427  -20.2617 C   0  0  0  0  0  0  0  0  0  0  0  0
   16.3229  -12.5046  -21.0406 N   0  0  0  0  0  0  0  0  0  0  0  0
   15.5685  -13.2408  -20.2012 C   0  0  0  0  0  0  0  0  0  0  0  0
   15.9033  -12.9452  -18.9244 N   0  0  0  0  0  0  0  0  0  0  0  0
   19.4864  -11.3629  -16.3211 C   0  0  0  0  0  0  0  0  0  0  0  0
   18.9298  -11.0581  -15.2425 O   0  0  0  0  0  0  0  0  0  0  0  0
   23.6047  -10.4816  -16.8520 C   0  0  0  0  0  0  0  0  0  0  0  0
   23.0078  -10.5032  -15.4756 C   0  0  1  0  0  0  0  0  0  0  0  0
   23.7731   -9.6979  -14.4955 C   0  0  0  0  0  0  0  0  0  0  0  0
   21.5361  -10.1021  -15.5666 C   0  0  2  0  0  0  0  0  0  0  0  0
   20.8096  -10.8845  -16.5170 N   0  0  0  0  0  0  0  0  0  0  0  0
   21.4062   -8.6360  -15.8109 C   0  0  0  0  0  0  0  0  0  0  0  0
   21.3866   -8.1629  -16.9774 O   0  0  0  0  0  0  0  0  0  0  0  0
   21.2979   -7.6954  -14.7507 N   0  0  0  0  0  0  0  0  0  0  0  0
   21.2985   -6.2299  -15.0255 C   0  0  1  0  0  0  0  0  0  0  0  0
   19.8885   -5.8237  -14.8361 C   0  0  0  0  0  0  0  0  0  0  0  0
   19.5705   -4.4032  -14.8948 C   0  0  0  0  0  0  0  0  0  0  0  0
   19.1652   -3.4769  -13.9893 C   0  0  0  0  0  0  0  0  0  0  0  0
   19.0654   -2.2793  -14.6267 N   0  0  0  0  0  0  0  0  0  0  0  0
   19.4049   -2.4627  -15.9067 C   0  0  0  0  0  0  0  0  0  0  0  0
   19.7091   -3.7293  -16.0779 N   0  0  0  0  0  0  0  0  0  0  0  0
   22.0947   -5.6557  -13.8847 C   0  0  0  0  0  0  0  0  0  0  0  0
   22.0545   -6.2936  -12.7894 O   0  0  0  0  0  0  0  0  0  0  0  0
   22.8475   -4.5050  -13.9562 O   0  0  0  0  0  0  0  0  0  0  0  0
  2  1  1  1
  2  9  1  0
  3  2  1  0
  3  4  1  0
  4  5  2  0
  5  6  1  0
  7  6  1  0
  8  4  1  0
  8  7  2  0
  9 10  2  0
 12 11  1  6
 12 14  1  0
 13 12  1  0
 14 16  1  0
 14 15  1  6
 15  9  1  0
 16 18  1  0
 16 17  2  0
 18 19  1  0
 19 26  1  0
 19 20  1  1
 21 20  1  0
 21 25  1  0
 22 21  2  0
 23 22  1  0
 23 24  1  0
 24 25  2  0
 26 27  2  0
 26 28  1  0
M  END
$$$$
