HVH.pdb
     RDKit          3D

 28 29  0  0  1  0  0  0  0  0999 V2000
   16.4269  -13.9383  -15.2365 N   0  0  0  0  0  0  0  0  0  0  0  0
   16.3651  -12.5552  -15.5941 C   0  0  1  0  0  0  0  0  0  0  0  0
   15.1082  -11.9771  -14.9616 C   0  0  0  0  0  0  0  0  0  0  0  0
   13.8879  -12.4837  -15.6622 C   0  0  0  0  0  0  0  0  0  0  0  0
   12.8418  -11.7156  -16.1248 C   0  0  0  0  0  0  0  0  0  0  0  0
   11.9171  -12.5261  -16.7047 N   0  0  0  0  0  0  0  0  0  0  0  0
   12.3905  -13.7833  -16.5998 C   0  0  0  0  0  0  0  0  0  0  0  0
   13.5860  -13.7590  -15.9676 N   0  0  0  0  0  0  0  0  0  0  0  0
   17.5082  -11.7779  -14.9921 C   0  0  0  0  0  0  0  0  0  0  0  0
   17.8816  -11.9789  -13.8146 O   0  0  0  0  0  0  0  0  0  0  0  0
   19.9607   -9.4644  -17.5258 C   0  0  0  0  0  0  0  0  0  0  0  0
   20.4760   -9.9431  -16.2005 C   0  0  1  0  0  0  0  0  0  0  0  0
   21.6124   -9.1400  -15.6921 C   0  0  0  0  0  0  0  0  0  0  0  0
   19.3103  -10.0279  -15.2161 C   0  0  2  0  0  0  0  0  0  0  0  0
   18.2119  -10.7866  -15.7270 N   0  0  0  0  0  0  0  0  0  0  0  0
   18.9055   -8.6650  -14.7639 C   0  0  0  0  0  0  0  0  0  0  0  0
   18.1093   -7.9585  -15.4361 O   0  0  0  0  0  0  0  0  0  0  0  0
   19.3906   -8.0888  -13.5583 N   0  0  0  0  0  0  0  0  0  0  0  0
   19.0071   -6.7028  -13.1647 C   0  0  1  0  0  0  0  0  0  0  0  0
   18.7724   -6.7906  -11.7066 C   0  0  0  0  0  0  0  0  0  0  0  0
   17.4590   -7.2234  -11.2484 C   0  0  0  0  0  0  0  0  0  0  0  0
   16.3416   -7.6936  -11.8585 C   0  0  0  0  0  0  0  0  0  0  0  0
   15.4228   -7.9768  -10.8962 N   0  0  0  0  0  0  0  0  0  0  0  0
   15.9647   -7.6868   -9.7091 C   0  0  0  0  0  0  0  0  0  0  0  0
   17.1825   -7.2355   -9.9080 N   0  0  0  0  0  0  0  0  0  0  0  0
   20.2701   -5.9120  -13.3757 C   0  0  0  0  0  0  0  0  0  0  0  0
   21.3319   -6.5806  -13.5593 O   0  0  0  0  0  0  0  0  0  0  0  0
   20.3414   -4.5370  -13.3811 O   0  0  0  0  0  0  0  0  0  0  0  0
  2  1  1  1
  2  9  1  0
  3  2  1  0
  3  4  1  0
  4  5  2  0
  5  6  1  0
  7  6  1  0
  8  4  1  0
  8  7  2  0
  9 10  2  0
 12 11  1  6
 12 14  1  0
 13 12  1  0
 14 16  1  0
 14 15  1  6
 15  9  1  0
 16 18  1  0
 16 17  2  0
 18 19  1  0
 19 26  1  0
 19 20  1  1
 21 20  1  0
 21 25  1  0
 22 21  2  0
 23 22  1  0
 23 24  1  0
 24 25  2  0
 26 27  2  0
 26 28  1  0
M  END
$$$$
