AHI.pdb
     RDKit          3D

 24 24  0  0  1  0  0  0  0  0999 V2000
    8.6472  -12.0440   19.7483 C   0  0  0  0  0  0  0  0  0  0  0  0
    8.6411  -13.4586   19.1938 C   0  0  2  0  0  0  0  0  0  0  0  0
    7.8302  -13.5303   18.0204 N   0  0  0  0  0  0  0  0  0  0  0  0
    8.1655  -14.3424   20.2888 C   0  0  0  0  0  0  0  0  0  0  0  0
    6.8975  -14.4016   20.4309 O   0  0  0  0  0  0  0  0  0  0  0  0
    9.0415  -15.0759   21.1269 N   0  0  0  0  0  0  0  0  0  0  0  0
    8.4780  -15.9282   22.2100 C   0  0  1  0  0  0  0  0  0  0  0  0
    9.0514  -17.2855   22.0035 C   0  0  0  0  0  0  0  0  0  0  0  0
    8.3335  -18.1291   21.0372 C   0  0  0  0  0  0  0  0  0  0  0  0
    7.1977  -17.8053   20.3342 C   0  0  0  0  0  0  0  0  0  0  0  0
    6.8389  -18.8468   19.5842 N   0  0  0  0  0  0  0  0  0  0  0  0
    7.7069  -19.8440   19.7755 C   0  0  0  0  0  0  0  0  0  0  0  0
    8.6173  -19.4042   20.6617 N   0  0  0  0  0  0  0  0  0  0  0  0
    8.8130  -15.2525   23.4706 C   0  0  0  0  0  0  0  0  0  0  0  0
   10.0178  -14.8692   23.6786 O   0  0  0  0  0  0  0  0  0  0  0  0
    5.4793  -11.9278   26.1729 C   0  0  0  0  0  0  0  0  0  0  0  0
    6.6415  -12.5902   25.4878 C   0  0  0  0  0  0  0  0  0  0  0  0
    7.2323  -13.6000   26.4533 C   0  0  2  0  0  0  0  0  0  0  0  0
    7.8297  -12.8018   27.5993 C   0  0  0  0  0  0  0  0  0  0  0  0
    8.3440  -14.3973   25.7971 C   0  0  2  0  0  0  0  0  0  0  0  0
    7.9321  -14.9525   24.5339 N   0  0  0  0  0  0  0  0  0  0  0  0
    8.8447  -15.3512   26.7773 C   0  0  0  0  0  0  0  0  0  0  0  0
    8.6844  -16.7221   26.6855 O   0  0  0  0  0  0  0  0  0  0  0  0
    9.4651  -14.9112   27.7774 O   0  0  0  0  0  0  0  0  0  0  0  0
  2  1  1  1
  2  3  1  0
  4  5  2  0
  4  2  1  0
  6  4  1  0
  7 14  1  0
  7  6  1  0
  7  8  1  1
  9  8  1  0
  9 13  1  0
 10 11  1  0
 10  9  2  0
 11 12  1  0
 12 13  2  0
 14 21  1  0
 15 14  2  0
 17 16  1  0
 18 20  1  0
 18 17  1  0
 18 19  1  1
 20 22  1  0
 20 21  1  6
 22 24  2  0
 22 23  1  0
M  END
$$$$
