AHI.pdb
     RDKit          3D

 24 24  0  0  1  0  0  0  0  0999 V2000
   13.3403  -18.7741   21.3197 C   0  0  0  0  0  0  0  0  0  0  0  0
   12.3207  -18.0139   20.4883 C   0  0  2  0  0  0  0  0  0  0  0  0
   12.9467  -17.4267   19.3469 N   0  0  0  0  0  0  0  0  0  0  0  0
   11.6956  -17.0145   21.3919 C   0  0  0  0  0  0  0  0  0  0  0  0
   12.4302  -16.0129   21.6899 O   0  0  0  0  0  0  0  0  0  0  0  0
   10.3784  -17.1456   21.8977 N   0  0  0  0  0  0  0  0  0  0  0  0
    9.7677  -16.0181   22.6545 C   0  0  1  0  0  0  0  0  0  0  0  0
    8.3411  -15.9681   22.2350 C   0  0  0  0  0  0  0  0  0  0  0  0
    8.0459  -15.0520   21.1240 C   0  0  0  0  0  0  0  0  0  0  0  0
    8.9377  -14.2610   20.4398 C   0  0  0  0  0  0  0  0  0  0  0  0
    8.2772  -13.5527   19.5243 N   0  0  0  0  0  0  0  0  0  0  0  0
    6.9780  -13.8567   19.5889 C   0  0  0  0  0  0  0  0  0  0  0  0
    6.8393  -14.7710   20.5648 N   0  0  0  0  0  0  0  0  0  0  0  0
   10.0316  -16.2943   24.0729 C   0  0  0  0  0  0  0  0  0  0  0  0
   10.3446  -17.4828   24.4352 O   0  0  0  0  0  0  0  0  0  0  0  0
   10.4097  -13.5917   29.6742 C   0  0  0  0  0  0  0  0  0  0  0  0
   10.5456  -14.8386   28.8463 C   0  0  0  0  0  0  0  0  0  0  0  0
   10.1529  -14.4928   27.4226 C   0  0  2  0  0  0  0  0  0  0  0  0
    8.6890  -14.0896   27.4653 C   0  0  0  0  0  0  0  0  0  0  0  0
   10.2891  -15.6976   26.5105 C   0  0  2  0  0  0  0  0  0  0  0  0
    9.9865  -15.3704   25.1412 N   0  0  0  0  0  0  0  0  0  0  0  0
    9.5120  -16.7842   27.0907 C   0  0  0  0  0  0  0  0  0  0  0  0
    8.2806  -17.2023   26.6190 O   0  0  0  0  0  0  0  0  0  0  0  0
    9.9812  -17.3896   28.0867 O   0  0  0  0  0  0  0  0  0  0  0  0
  2  1  1  1
  2  3  1  0
  4  5  2  0
  4  2  1  0
  6  4  1  0
  7 14  1  0
  7  6  1  0
  7  8  1  1
  9  8  1  0
  9 13  1  0
 10 11  1  0
 10  9  2  0
 11 12  1  0
 12 13  2  0
 14 21  1  0
 15 14  2  0
 17 16  1  0
 18 20  1  0
 18 17  1  0
 18 19  1  1
 20 22  1  0
 20 21  1  6
 22 24  2  0
 22 23  1  0
M  END
$$$$
