AHI.pdb
     RDKit          3D

 24 24  0  0  1  0  0  0  0  0999 V2000
    8.5559  -12.1639   19.5864 C   0  0  0  0  0  0  0  0  0  0  0  0
    8.4663  -13.5912   19.0734 C   0  0  2  0  0  0  0  0  0  0  0  0
    7.4384  -13.7031   18.0882 N   0  0  0  0  0  0  0  0  0  0  0  0
    8.2369  -14.4557   20.2592 C   0  0  0  0  0  0  0  0  0  0  0  0
    7.0122  -14.6432   20.5696 O   0  0  0  0  0  0  0  0  0  0  0  0
    9.2899  -15.0401   21.0061 N   0  0  0  0  0  0  0  0  0  0  0  0
    8.9693  -15.9974   22.1006 C   0  0  1  0  0  0  0  0  0  0  0  0
    9.8728  -17.1629   21.9033 C   0  0  0  0  0  0  0  0  0  0  0  0
    9.4681  -18.0976   20.8434 C   0  0  0  0  0  0  0  0  0  0  0  0
    8.6269  -19.1778   20.9646 C   0  0  0  0  0  0  0  0  0  0  0  0
    8.5347  -19.7915   19.7852 N   0  0  0  0  0  0  0  0  0  0  0  0
    9.2913  -19.1445   18.8945 C   0  0  0  0  0  0  0  0  0  0  0  0
    9.8594  -18.1121   19.5418 N   0  0  0  0  0  0  0  0  0  0  0  0
    9.1230  -15.2447   23.3527 C   0  0  0  0  0  0  0  0  0  0  0  0
   10.2166  -14.6168   23.5796 O   0  0  0  0  0  0  0  0  0  0  0  0
    6.3578  -11.4910   27.1085 C   0  0  0  0  0  0  0  0  0  0  0  0
    7.4868  -12.4784   27.0136 C   0  0  0  0  0  0  0  0  0  0  0  0
    7.2003  -13.3962   25.8403 C   0  0  2  0  0  0  0  0  0  0  0  0
    5.9973  -14.2359   26.2339 C   0  0  0  0  0  0  0  0  0  0  0  0
    8.3679  -14.3291   25.5788 C   0  0  2  0  0  0  0  0  0  0  0  0
    8.1704  -15.1147   24.3883 N   0  0  0  0  0  0  0  0  0  0  0  0
    8.6188  -15.0801   26.8012 C   0  0  0  0  0  0  0  0  0  0  0  0
    8.4313  -16.4444   26.9320 O   0  0  0  0  0  0  0  0  0  0  0  0
    9.0335  -14.4579   27.8110 O   0  0  0  0  0  0  0  0  0  0  0  0
  2  1  1  1
  2  3  1  0
  4  5  2  0
  4  2  1  0
  6  4  1  0
  7 14  1  0
  7  6  1  0
  7  8  1  1
  9  8  1  0
  9 13  1  0
 10 11  1  0
 10  9  2  0
 11 12  1  0
 12 13  2  0
 14 21  1  0
 15 14  2  0
 17 16  1  0
 18 20  1  0
 18 17  1  0
 18 19  1  1
 20 22  1  0
 20 21  1  6
 22 24  2  0
 22 23  1  0
M  END
$$$$
