AHI.pdb
     RDKit          3D

 24 24  0  0  1  0  0  0  0  0999 V2000
    7.6052  -13.5692   18.3415 C   0  0  0  0  0  0  0  0  0  0  0  0
    8.7338  -13.9520   19.2840 C   0  0  2  0  0  0  0  0  0  0  0  0
    9.6671  -14.8071   18.6225 N   0  0  0  0  0  0  0  0  0  0  0  0
    8.1012  -14.5829   20.4706 C   0  0  0  0  0  0  0  0  0  0  0  0
    7.1836  -13.8937   21.0313 O   0  0  0  0  0  0  0  0  0  0  0  0
    8.4760  -15.8585   20.9608 N   0  0  0  0  0  0  0  0  0  0  0  0
    7.7733  -16.4246   22.1452 C   0  0  1  0  0  0  0  0  0  0  0  0
    7.9746  -17.8971   22.0760 C   0  0  0  0  0  0  0  0  0  0  0  0
    7.1817  -18.5909   21.0509 C   0  0  0  0  0  0  0  0  0  0  0  0
    5.8123  -18.6164   20.9356 C   0  0  0  0  0  0  0  0  0  0  0  0
    5.4778  -19.3780   19.8945 N   0  0  0  0  0  0  0  0  0  0  0  0
    6.5887  -19.8525   19.3240 C   0  0  0  0  0  0  0  0  0  0  0  0
    7.6263  -19.3713   20.0307 N   0  0  0  0  0  0  0  0  0  0  0  0
    8.3330  -15.7339   23.3146 C   0  0  0  0  0  0  0  0  0  0  0  0
    9.5862  -15.8313   23.5631 O   0  0  0  0  0  0  0  0  0  0  0  0
    7.2176  -11.2228   27.3932 C   0  0  0  0  0  0  0  0  0  0  0  0
    8.0903  -12.3815   27.0002 C   0  0  0  0  0  0  0  0  0  0  0  0
    7.3794  -13.1417   25.8967 C   0  0  2  0  0  0  0  0  0  0  0  0
    6.1335  -13.7445   26.5225 C   0  0  0  0  0  0  0  0  0  0  0  0
    8.2426  -14.2723   25.3688 C   0  0  2  0  0  0  0  0  0  0  0  0
    7.6323  -14.9325   24.2439 N   0  0  0  0  0  0  0  0  0  0  0  0
    8.5917  -15.1276   26.4947 C   0  0  0  0  0  0  0  0  0  0  0  0
    9.5923  -14.8471   27.4078 O   0  0  0  0  0  0  0  0  0  0  0  0
    7.9481  -16.1944   26.6576 O   0  0  0  0  0  0  0  0  0  0  0  0
  2  1  1  6
  2  3  1  0
  4  5  2  0
  4  2  1  0
  6  4  1  0
  7 14  1  0
  7  6  1  0
  7  8  1  1
  9  8  1  0
  9 13  1  0
 10 11  1  0
 10  9  2  0
 11 12  1  0
 12 13  2  0
 14 21  1  0
 15 14  2  0
 17 16  1  0
 18 20  1  0
 18 17  1  0
 18 19  1  1
 20 22  1  0
 20 21  1  6
 22 24  2  0
 22 23  1  0
M  END
$$$$
