AHI.pdb
     RDKit          3D

 24 24  0  0  1  0  0  0  0  0999 V2000
    8.0056  -12.1432   19.5257 C   0  0  0  0  0  0  0  0  0  0  0  0
    8.2753  -13.5484   19.0147 C   0  0  2  0  0  0  0  0  0  0  0  0
    7.4171  -13.8518   17.9143 N   0  0  0  0  0  0  0  0  0  0  0  0
    8.0914  -14.4636   20.1700 C   0  0  0  0  0  0  0  0  0  0  0  0
    6.8850  -14.8125   20.4035 O   0  0  0  0  0  0  0  0  0  0  0  0
    9.1661  -14.9277   20.9685 N   0  0  0  0  0  0  0  0  0  0  0  0
    8.8986  -15.8957   22.0677 C   0  0  1  0  0  0  0  0  0  0  0  0
    9.8137  -17.0452   21.8333 C   0  0  0  0  0  0  0  0  0  0  0  0
    9.8123  -18.0722   22.8849 C   0  0  0  0  0  0  0  0  0  0  0  0
   10.6587  -18.1573   23.9645 C   0  0  0  0  0  0  0  0  0  0  0  0
   10.3558  -19.2468   24.6696 N   0  0  0  0  0  0  0  0  0  0  0  0
    9.3352  -19.8784   24.0831 C   0  0  0  0  0  0  0  0  0  0  0  0
    9.0055  -19.1605   22.9952 N   0  0  0  0  0  0  0  0  0  0  0  0
    9.0825  -15.1470   23.3182 C   0  0  0  0  0  0  0  0  0  0  0  0
   10.0432  -14.3044   23.4119 O   0  0  0  0  0  0  0  0  0  0  0  0
    5.5913  -12.2032   25.7652 C   0  0  0  0  0  0  0  0  0  0  0  0
    6.8440  -12.8215   25.2109 C   0  0  0  0  0  0  0  0  0  0  0  0
    7.3718  -13.8000   26.2429 C   0  0  2  0  0  0  0  0  0  0  0  0
    7.8050  -12.9716   27.4401 C   0  0  0  0  0  0  0  0  0  0  0  0
    8.5828  -14.5479   25.7172 C   0  0  2  0  0  0  0  0  0  0  0  0
    8.2940  -15.2387   24.4872 N   0  0  0  0  0  0  0  0  0  0  0  0
    9.1019  -15.3705   26.8012 C   0  0  0  0  0  0  0  0  0  0  0  0
   10.0720  -14.9597   27.6977 O   0  0  0  0  0  0  0  0  0  0  0  0
    8.6457  -16.5329   26.9412 O   0  0  0  0  0  0  0  0  0  0  0  0
  2  1  1  1
  2  3  1  0
  4  5  2  0
  4  2  1  0
  6  4  1  0
  7 14  1  0
  7  6  1  0
  7  8  1  1
  9  8  1  0
  9 13  1  0
 10 11  1  0
 10  9  2  0
 11 12  1  0
 12 13  2  0
 14 21  1  0
 15 14  2  0
 17 16  1  0
 18 20  1  0
 18 17  1  0
 18 19  1  1
 20 22  1  0
 20 21  1  6
 22 24  2  0
 22 23  1  0
M  END
$$$$
