AHI.pdb
     RDKit          3D

 24 24  0  0  1  0  0  0  0  0999 V2000
    6.8351  -20.3954   22.3078 C   0  0  0  0  0  0  0  0  0  0  0  0
    6.8201  -19.3836   23.4411 C   0  0  2  0  0  0  0  0  0  0  0  0
    5.5322  -18.7760   23.5498 N   0  0  0  0  0  0  0  0  0  0  0  0
    7.9045  -18.4095   23.1559 C   0  0  0  0  0  0  0  0  0  0  0  0
    9.0922  -18.8633   23.2780 O   0  0  0  0  0  0  0  0  0  0  0  0
    7.6583  -17.0673   22.7738 N   0  0  0  0  0  0  0  0  0  0  0  0
    8.8061  -16.1692   22.4690 C   0  0  1  0  0  0  0  0  0  0  0  0
    8.4366  -15.4395   21.2261 C   0  0  0  0  0  0  0  0  0  0  0  0
    8.5293  -16.2249   19.9869 C   0  0  0  0  0  0  0  0  0  0  0  0
    9.5470  -17.0694   19.6125 C   0  0  0  0  0  0  0  0  0  0  0  0
    9.2751  -17.5704   18.4078 N   0  0  0  0  0  0  0  0  0  0  0  0
    8.1085  -17.0784   17.9820 C   0  0  0  0  0  0  0  0  0  0  0  0
    7.6556  -16.2583   18.9463 N   0  0  0  0  0  0  0  0  0  0  0  0
    9.0153  -15.3580   23.6757 C   0  0  0  0  0  0  0  0  0  0  0  0
    9.4699  -14.1655   23.5617 O   0  0  0  0  0  0  0  0  0  0  0  0
    6.2380  -12.3404   25.7388 C   0  0  0  0  0  0  0  0  0  0  0  0
    7.4515  -13.1312   25.3379 C   0  0  0  0  0  0  0  0  0  0  0  0
    7.8140  -14.0401   26.4971 C   0  0  2  0  0  0  0  0  0  0  0  0
    8.1937  -13.1320   27.6540 C   0  0  0  0  0  0  0  0  0  0  0  0
    9.0125  -14.9064   26.1577 C   0  0  2  0  0  0  0  0  0  0  0  0
    8.7628  -15.7421   25.0120 N   0  0  0  0  0  0  0  0  0  0  0  0
    9.4184  -15.5990   27.3729 C   0  0  0  0  0  0  0  0  0  0  0  0
    9.3668  -16.9707   27.5444 O   0  0  0  0  0  0  0  0  0  0  0  0
    9.8455  -14.9153   28.3367 O   0  0  0  0  0  0  0  0  0  0  0  0
  2  1  1  6
  2  3  1  0
  4  5  2  0
  4  2  1  0
  6  4  1  0
  7 14  1  0
  7  6  1  0
  7  8  1  6
  9  8  1  0
  9 13  1  0
 10 11  1  0
 10  9  2  0
 11 12  1  0
 12 13  2  0
 14 21  1  0
 15 14  2  0
 17 16  1  0
 18 20  1  0
 18 17  1  0
 18 19  1  1
 20 22  1  0
 20 21  1  6
 22 24  2  0
 22 23  1  0
M  END
$$$$
