AHI.pdb
     RDKit          3D

 24 24  0  0  1  0  0  0  0  0999 V2000
    5.7593  -18.3535   24.6504 C   0  0  0  0  0  0  0  0  0  0  0  0
    6.0870  -18.4888   23.1729 C   0  0  2  0  0  0  0  0  0  0  0  0
    6.0533  -19.8610   22.7786 N   0  0  0  0  0  0  0  0  0  0  0  0
    7.4150  -17.8546   22.9722 C   0  0  0  0  0  0  0  0  0  0  0  0
    8.4197  -18.6217   23.1554 O   0  0  0  0  0  0  0  0  0  0  0  0
    7.5759  -16.4959   22.6034 N   0  0  0  0  0  0  0  0  0  0  0  0
    8.9453  -15.9501   22.3937 C   0  0  1  0  0  0  0  0  0  0  0  0
    8.8818  -15.1559   21.1371 C   0  0  0  0  0  0  0  0  0  0  0  0
    8.7407  -15.9436   19.9040 C   0  0  0  0  0  0  0  0  0  0  0  0
    9.7479  -16.3803   19.0770 C   0  0  0  0  0  0  0  0  0  0  0  0
    9.2120  -17.0359   18.0480 N   0  0  0  0  0  0  0  0  0  0  0  0
    7.8824  -17.0416   18.1769 C   0  0  0  0  0  0  0  0  0  0  0  0
    7.5973  -16.3751   19.3091 N   0  0  0  0  0  0  0  0  0  0  0  0
    9.2808  -15.2190   23.6229 C   0  0  0  0  0  0  0  0  0  0  0  0
   10.4780  -14.7972   23.7976 O   0  0  0  0  0  0  0  0  0  0  0  0
    5.7368  -12.3423   27.0231 C   0  0  0  0  0  0  0  0  0  0  0  0
    6.4870  -13.4972   26.4211 C   0  0  0  0  0  0  0  0  0  0  0  0
    7.9294  -13.0653   26.2372 C   0  0  2  0  0  0  0  0  0  0  0  0
    7.9461  -12.1113   25.0553 C   0  0  0  0  0  0  0  0  0  0  0  0
    8.8164  -14.2508   25.9056 C   0  0  2  0  0  0  0  0  0  0  0  0
    8.4080  -14.9021   24.6880 N   0  0  0  0  0  0  0  0  0  0  0  0
    8.8846  -15.0989   27.0877 C   0  0  0  0  0  0  0  0  0  0  0  0
    9.4093  -14.7019   28.3046 O   0  0  0  0  0  0  0  0  0  0  0  0
    8.4404  -16.2716   27.0090 O   0  0  0  0  0  0  0  0  0  0  0  0
  2  1  1  1
  2  3  1  0
  4  5  2  0
  4  2  1  0
  6  4  1  0
  7 14  1  0
  7  6  1  0
  7  8  1  6
  9  8  1  0
  9 13  1  0
 10 11  1  0
 10  9  2  0
 11 12  1  0
 12 13  2  0
 14 21  1  0
 15 14  2  0
 17 16  1  0
 18 20  1  0
 18 17  1  0
 18 19  1  6
 20 22  1  0
 20 21  1  6
 22 24  2  0
 22 23  1  0
M  END
$$$$
