AHI.pdb
     RDKit          3D

 24 24  0  0  1  0  0  0  0  0999 V2000
   13.2449  -16.5765   19.7692 C   0  0  0  0  0  0  0  0  0  0  0  0
   12.3401  -17.4399   20.6319 C   0  0  2  0  0  0  0  0  0  0  0  0
   11.4550  -18.2063   19.8141 N   0  0  0  0  0  0  0  0  0  0  0  0
   11.6320  -16.5202   21.5586 C   0  0  0  0  0  0  0  0  0  0  0  0
   12.1532  -15.3606   21.6812 O   0  0  0  0  0  0  0  0  0  0  0  0
   10.4595  -16.8856   22.2656 N   0  0  0  0  0  0  0  0  0  0  0  0
    9.8009  -15.8915   23.1573 C   0  0  1  0  0  0  0  0  0  0  0  0
    8.3575  -15.9106   22.7968 C   0  0  0  0  0  0  0  0  0  0  0  0
    7.9823  -15.0496   21.6660 C   0  0  0  0  0  0  0  0  0  0  0  0
    8.8172  -14.2675   20.9041 C   0  0  0  0  0  0  0  0  0  0  0  0
    8.0926  -13.6144   19.9962 N   0  0  0  0  0  0  0  0  0  0  0  0
    6.8067  -13.9459   20.1411 C   0  0  0  0  0  0  0  0  0  0  0  0
    6.7418  -14.8210   21.1597 N   0  0  0  0  0  0  0  0  0  0  0  0
   10.1463  -16.2887   24.5288 C   0  0  0  0  0  0  0  0  0  0  0  0
   10.7525  -17.3997   24.7287 O   0  0  0  0  0  0  0  0  0  0  0  0
    8.7026  -12.9253   28.6287 C   0  0  0  0  0  0  0  0  0  0  0  0
    9.0472  -13.8698   27.5116 C   0  0  0  0  0  0  0  0  0  0  0  0
    9.8942  -14.9851   28.0945 C   0  0  2  0  0  0  0  0  0  0  0  0
   11.1750  -14.3381   28.5925 C   0  0  0  0  0  0  0  0  0  0  0  0
   10.2575  -16.0067   27.0332 C   0  0  2  0  0  0  0  0  0  0  0  0
    9.8865  -15.5644   25.7140 N   0  0  0  0  0  0  0  0  0  0  0  0
    9.7130  -17.2920   27.4489 C   0  0  0  0  0  0  0  0  0  0  0  0
   10.2036  -18.0446   28.5008 O   0  0  0  0  0  0  0  0  0  0  0  0
    8.7322  -17.7586   26.8172 O   0  0  0  0  0  0  0  0  0  0  0  0
  2  1  1  6
  2  3  1  0
  4  5  2  0
  4  2  1  0
  6  4  1  0
  7 14  1  0
  7  6  1  0
  7  8  1  1
  9  8  1  0
  9 13  1  0
 10 11  1  0
 10  9  2  0
 11 12  1  0
 12 13  2  0
 14 21  1  0
 15 14  2  0
 17 16  1  0
 18 20  1  0
 18 17  1  0
 18 19  1  6
 20 22  1  0
 20 21  1  6
 22 24  2  0
 22 23  1  0
M  END
$$$$
