AHI.pdb
     RDKit          3D

 24 24  0  0  1  0  0  0  0  0999 V2000
    8.5322  -12.1959   19.3505 C   0  0  0  0  0  0  0  0  0  0  0  0
    8.5497  -13.6403   18.8794 C   0  0  2  0  0  0  0  0  0  0  0  0
    7.7078  -13.8022   17.7372 N   0  0  0  0  0  0  0  0  0  0  0  0
    8.1308  -14.4704   20.0376 C   0  0  0  0  0  0  0  0  0  0  0  0
    6.8698  -14.6216   20.1734 O   0  0  0  0  0  0  0  0  0  0  0  0
    9.0507  -15.0612   20.9392 N   0  0  0  0  0  0  0  0  0  0  0  0
    8.5445  -15.9173   22.0474 C   0  0  1  0  0  0  0  0  0  0  0  0
    9.2444  -17.2230   21.9090 C   0  0  0  0  0  0  0  0  0  0  0  0
    8.6669  -18.1418   20.9174 C   0  0  0  0  0  0  0  0  0  0  0  0
    7.5139  -17.9629   20.1911 C   0  0  0  0  0  0  0  0  0  0  0  0
    7.3139  -19.0330   19.4223 N   0  0  0  0  0  0  0  0  0  0  0  0
    8.3029  -19.9080   19.6239 C   0  0  0  0  0  0  0  0  0  0  0  0
    9.1267  -19.3627   20.5358 N   0  0  0  0  0  0  0  0  0  0  0  0
    8.7888  -15.1628   23.2839 C   0  0  0  0  0  0  0  0  0  0  0  0
    9.9571  -14.6885   23.5116 O   0  0  0  0  0  0  0  0  0  0  0  0
    6.3232  -11.3256   27.2846 C   0  0  0  0  0  0  0  0  0  0  0  0
    7.4031  -12.3520   27.0872 C   0  0  0  0  0  0  0  0  0  0  0  0
    7.0312  -13.1865   25.8763 C   0  0  2  0  0  0  0  0  0  0  0  0
    5.8257  -14.0179   26.2798 C   0  0  0  0  0  0  0  0  0  0  0  0
    8.1566  -14.1310   25.4975 C   0  0  2  0  0  0  0  0  0  0  0  0
    7.8528  -14.8752   24.3027 N   0  0  0  0  0  0  0  0  0  0  0  0
    8.4855  -14.9244   26.6737 C   0  0  0  0  0  0  0  0  0  0  0  0
    9.2327  -14.4635   27.7428 O   0  0  0  0  0  0  0  0  0  0  0  0
    8.0683  -16.1082   26.7326 O   0  0  0  0  0  0  0  0  0  0  0  0
  2  1  1  1
  2  3  1  0
  4  5  2  0
  4  2  1  0
  6  4  1  0
  7 14  1  0
  7  6  1  0
  7  8  1  1
  9  8  1  0
  9 13  1  0
 10 11  1  0
 10  9  2  0
 11 12  1  0
 12 13  2  0
 14 21  1  0
 15 14  2  0
 17 16  1  0
 18 20  1  0
 18 17  1  0
 18 19  1  1
 20 22  1  0
 20 21  1  6
 22 24  2  0
 22 23  1  0
M  END
$$$$
