AHI.pdb
     RDKit          3D

 24 24  0  0  1  0  0  0  0  0999 V2000
   13.5712  -18.1140   21.4189 C   0  0  0  0  0  0  0  0  0  0  0  0
   12.3517  -17.5887   20.6804 C   0  0  2  0  0  0  0  0  0  0  0  0
   12.7409  -16.9661   19.4555 N   0  0  0  0  0  0  0  0  0  0  0  0
   11.6562  -16.6640   21.6118 C   0  0  0  0  0  0  0  0  0  0  0  0
   12.3510  -15.6712   22.0157 O   0  0  0  0  0  0  0  0  0  0  0  0
   10.3168  -16.8535   22.0337 N   0  0  0  0  0  0  0  0  0  0  0  0
    9.6926  -15.8671   22.9580 C   0  0  1  0  0  0  0  0  0  0  0  0
    8.2532  -15.8104   22.5856 C   0  0  0  0  0  0  0  0  0  0  0  0
    7.9423  -14.9879   21.4077 C   0  0  0  0  0  0  0  0  0  0  0  0
    8.8319  -14.3080   20.6105 C   0  0  0  0  0  0  0  0  0  0  0  0
    8.1573  -13.6563   19.6638 N   0  0  0  0  0  0  0  0  0  0  0  0
    6.8510  -13.8895   19.8177 C   0  0  0  0  0  0  0  0  0  0  0  0
    6.7222  -14.7016   20.8814 N   0  0  0  0  0  0  0  0  0  0  0  0
   10.0076  -16.3310   24.3158 C   0  0  0  0  0  0  0  0  0  0  0  0
   10.5393  -17.4853   24.4791 O   0  0  0  0  0  0  0  0  0  0  0  0
   10.0076  -12.7535   28.5831 C   0  0  0  0  0  0  0  0  0  0  0  0
   10.4499  -13.7324   27.5320 C   0  0  0  0  0  0  0  0  0  0  0  0
    9.9055  -15.0961   27.9125 C   0  0  2  0  0  0  0  0  0  0  0  0
   10.6510  -15.5234   29.1651 C   0  0  0  0  0  0  0  0  0  0  0  0
   10.1789  -16.1166   26.8235 C   0  0  2  0  0  0  0  0  0  0  0  0
    9.7926  -15.6308   25.5242 N   0  0  0  0  0  0  0  0  0  0  0  0
    9.5771  -17.3775   27.2351 C   0  0  0  0  0  0  0  0  0  0  0  0
   10.1892  -18.3018   28.0623 O   0  0  0  0  0  0  0  0  0  0  0  0
    8.4252  -17.6551   26.8169 O   0  0  0  0  0  0  0  0  0  0  0  0
  2  1  1  1
  2  3  1  0
  4  5  2  0
  4  2  1  0
  6  4  1  0
  7 14  1  0
  7  6  1  0
  7  8  1  1
  9  8  1  0
  9 13  1  0
 10 11  1  0
 10  9  2  0
 11 12  1  0
 12 13  2  0
 14 21  1  0
 15 14  2  0
 17 16  1  0
 18 20  1  0
 18 17  1  0
 18 19  1  1
 20 22  1  0
 20 21  1  6
 22 24  2  0
 22 23  1  0
M  END
$$$$
