AHI.pdb
     RDKit          3D

 24 24  0  0  1  0  0  0  0  0999 V2000
    8.2093  -12.2769   19.5727 C   0  0  0  0  0  0  0  0  0  0  0  0
    8.3302  -13.7229   19.1223 C   0  0  2  0  0  0  0  0  0  0  0  0
    7.2907  -14.0453   18.1975 N   0  0  0  0  0  0  0  0  0  0  0  0
    8.2983  -14.5553   20.3520 C   0  0  0  0  0  0  0  0  0  0  0  0
    7.1325  -14.8259   20.7982 O   0  0  0  0  0  0  0  0  0  0  0  0
    9.4683  -15.0255   20.9987 N   0  0  0  0  0  0  0  0  0  0  0  0
    9.3476  -16.0153   22.1045 C   0  0  1  0  0  0  0  0  0  0  0  0
   10.4206  -17.0199   21.8741 C   0  0  0  0  0  0  0  0  0  0  0  0
   10.1025  -18.0620   20.8873 C   0  0  0  0  0  0  0  0  0  0  0  0
    9.0327  -18.9246   20.9052 C   0  0  0  0  0  0  0  0  0  0  0  0
    9.1129  -19.7386   19.8531 N   0  0  0  0  0  0  0  0  0  0  0  0
   10.2047  -19.4343   19.1461 C   0  0  0  0  0  0  0  0  0  0  0  0
   10.8065  -18.4118   19.7785 N   0  0  0  0  0  0  0  0  0  0  0  0
    9.4226  -15.2400   23.3499 C   0  0  0  0  0  0  0  0  0  0  0  0
   10.3865  -14.4129   23.5195 O   0  0  0  0  0  0  0  0  0  0  0  0
    6.7219  -11.7133   27.2426 C   0  0  0  0  0  0  0  0  0  0  0  0
    7.8444  -12.7047   27.1173 C   0  0  0  0  0  0  0  0  0  0  0  0
    7.5972  -13.5267   25.8666 C   0  0  2  0  0  0  0  0  0  0  0  0
    6.2845  -14.2591   26.0851 C   0  0  0  0  0  0  0  0  0  0  0  0
    8.6913  -14.5586   25.6661 C   0  0  2  0  0  0  0  0  0  0  0  0
    8.5209  -15.2888   24.4368 N   0  0  0  0  0  0  0  0  0  0  0  0
    8.7702  -15.3635   26.8774 C   0  0  0  0  0  0  0  0  0  0  0  0
    8.4382  -16.7046   26.9470 O   0  0  0  0  0  0  0  0  0  0  0  0
    9.1647  -14.8138   27.9362 O   0  0  0  0  0  0  0  0  0  0  0  0
  2  1  1  1
  2  3  1  0
  4  5  2  0
  4  2  1  0
  6  4  1  0
  7 14  1  0
  7  6  1  0
  7  8  1  1
  9  8  1  0
  9 13  1  0
 10 11  1  0
 10  9  2  0
 11 12  1  0
 12 13  2  0
 14 21  1  0
 15 14  2  0
 17 16  1  0
 18 20  1  0
 18 17  1  0
 18 19  1  1
 20 22  1  0
 20 21  1  6
 22 24  2  0
 22 23  1  0
M  END
$$$$
