AHI.pdb
     RDKit          3D

 24 24  0  0  1  0  0  0  0  0999 V2000
    8.4323  -12.3230   19.6135 C   0  0  0  0  0  0  0  0  0  0  0  0
    8.3710  -13.7882   19.2160 C   0  0  2  0  0  0  0  0  0  0  0  0
    7.2645  -14.0220   18.3438 N   0  0  0  0  0  0  0  0  0  0  0  0
    8.2967  -14.5684   20.4777 C   0  0  0  0  0  0  0  0  0  0  0  0
    7.1224  -14.7223   20.9561 O   0  0  0  0  0  0  0  0  0  0  0  0
    9.4370  -15.1114   21.1201 N   0  0  0  0  0  0  0  0  0  0  0  0
    9.2582  -16.0531   22.2595 C   0  0  1  0  0  0  0  0  0  0  0  0
   10.2985  -17.1033   22.0903 C   0  0  0  0  0  0  0  0  0  0  0  0
    9.9659  -18.1664   21.1312 C   0  0  0  0  0  0  0  0  0  0  0  0
    8.8303  -18.9403   21.1090 C   0  0  0  0  0  0  0  0  0  0  0  0
    8.9171  -19.8110   20.1039 N   0  0  0  0  0  0  0  0  0  0  0  0
   10.0771  -19.6300   19.4666 C   0  0  0  0  0  0  0  0  0  0  0  0
   10.7149  -18.6269   20.0946 N   0  0  0  0  0  0  0  0  0  0  0  0
    9.3361  -15.2337   23.4763 C   0  0  0  0  0  0  0  0  0  0  0  0
   10.3592  -14.4865   23.6676 O   0  0  0  0  0  0  0  0  0  0  0  0
    6.4034  -11.6401   27.2665 C   0  0  0  0  0  0  0  0  0  0  0  0
    7.5946  -12.5470   27.1352 C   0  0  0  0  0  0  0  0  0  0  0  0
    7.3450  -13.4698   25.9574 C   0  0  2  0  0  0  0  0  0  0  0  0
    6.1577  -14.3387   26.3350 C   0  0  0  0  0  0  0  0  0  0  0  0
    8.5379  -14.3740   25.7096 C   0  0  2  0  0  0  0  0  0  0  0  0
    8.3776  -15.1569   24.5117 N   0  0  0  0  0  0  0  0  0  0  0  0
    8.7866  -15.1263   26.9317 C   0  0  0  0  0  0  0  0  0  0  0  0
    9.3851  -14.6021   28.0633 O   0  0  0  0  0  0  0  0  0  0  0  0
    8.4387  -16.3329   26.9726 O   0  0  0  0  0  0  0  0  0  0  0  0
  2  1  1  1
  2  3  1  0
  4  5  2  0
  4  2  1  0
  6  4  1  0
  7 14  1  0
  7  6  1  0
  7  8  1  1
  9  8  1  0
  9 13  1  0
 10 11  1  0
 10  9  2  0
 11 12  1  0
 12 13  2  0
 14 21  1  0
 15 14  2  0
 17 16  1  0
 18 20  1  0
 18 17  1  0
 18 19  1  1
 20 22  1  0
 20 21  1  6
 22 24  2  0
 22 23  1  0
M  END
$$$$
