WMG.pdb
     RDKit          3D

 27 28  0  0  1  0  0  0  0  0999 V2000
    7.1757  -18.9823   24.9082 N   0  0  0  0  0  0  0  0  0  0  0  0
    7.1610  -17.5233   24.6534 C   0  0  1  0  0  0  0  0  0  0  0  0
    7.7028  -16.8512   25.8726 C   0  0  0  0  0  0  0  0  0  0  0  0
    6.9765  -15.5974   26.1833 C   0  0  0  0  0  0  0  0  0  0  0  0
    5.5963  -15.5153   26.4419 C   0  0  0  0  0  0  0  0  0  0  0  0
    5.2848  -14.2439   26.7174 N   0  0  0  0  0  0  0  0  0  0  0  0
    6.3837  -13.4425   26.6610 C   0  0  0  0  0  0  0  0  0  0  0  0
    6.5719  -12.0924   26.8543 C   0  0  0  0  0  0  0  0  0  0  0  0
    7.8239  -11.5514   26.7169 C   0  0  0  0  0  0  0  0  0  0  0  0
    8.8714  -12.3860   26.3845 C   0  0  0  0  0  0  0  0  0  0  0  0
    8.6798  -13.7371   26.1920 C   0  0  0  0  0  0  0  0  0  0  0  0
    7.4236  -14.3111   26.3258 C   0  0  0  0  0  0  0  0  0  0  0  0
    7.8410  -17.2831   23.3955 C   0  0  0  0  0  0  0  0  0  0  0  0
    8.4944  -18.2192   22.8141 O   0  0  0  0  0  0  0  0  0  0  0  0
    8.3350  -11.3052   20.1882 C   0  0  0  0  0  0  0  0  0  0  0  0
    7.4282  -12.5413   19.1775 S   0  0  0  0  0  0  0  0  0  0  0  0
    8.1453  -14.2066   19.4798 C   0  0  0  0  0  0  0  0  0  0  0  0
    7.8265  -14.5420   20.8904 C   0  0  0  0  0  0  0  0  0  0  0  0
    8.3908  -15.9005   21.3438 C   0  0  2  0  0  0  0  0  0  0  0  0
    7.8625  -16.0486   22.6873 N   0  0  0  0  0  0  0  0  0  0  0  0
    9.8532  -15.9379   21.2827 C   0  0  0  0  0  0  0  0  0  0  0  0
   10.4287  -15.8164   20.1619 O   0  0  0  0  0  0  0  0  0  0  0  0
   10.6808  -16.1050   22.4284 N   0  0  0  0  0  0  0  0  0  0  0  0
   12.1155  -16.1199   22.2649 C   0  0  0  0  0  0  0  0  0  0  0  0
   12.7524  -16.2321   23.5783 C   0  0  0  0  0  0  0  0  0  0  0  0
   14.1273  -16.1732   23.6918 O   0  0  0  0  0  0  0  0  0  0  0  0
   12.1038  -16.3844   24.6541 O   0  0  0  0  0  0  0  0  0  0  0  0
  2  3  1  0
  2  1  1  1
  4  5  2  0
  4  3  1  0
  6  5  1  0
  7 12  2  0
  7  6  1  0
  8  7  1  0
  9 10  1  0
  9  8  2  0
 10 11  2  0
 11 12  1  0
 12  4  1  0
 13  2  1  0
 14 13  2  0
 16 15  1  0
 17 16  1  0
 18 17  1  0
 19 18  1  1
 19 20  1  0
 20 13  1  0
 21 19  1  0
 21 22  2  0
 23 21  1  0
 24 23  1  0
 24 25  1  0
 25 27  2  0
 25 26  1  0
M  END
$$$$
