WMG.pdb
     RDKit          3D

 27 28  0  0  1  0  0  0  0  0999 V2000
    7.8852  -18.0297   23.1484 N   0  0  0  0  0  0  0  0  0  0  0  0
    8.1703  -16.7682   22.4265 C   0  0  1  0  0  0  0  0  0  0  0  0
    6.9000  -15.9832   22.3797 C   0  0  0  0  0  0  0  0  0  0  0  0
    6.5743  -15.3774   23.6923 C   0  0  0  0  0  0  0  0  0  0  0  0
    6.0242  -16.0765   24.7818 C   0  0  0  0  0  0  0  0  0  0  0  0
    5.8925  -15.2335   25.8121 N   0  0  0  0  0  0  0  0  0  0  0  0
    6.3247  -13.9843   25.4868 C   0  0  0  0  0  0  0  0  0  0  0  0
    6.3856  -12.8002   26.1866 C   0  0  0  0  0  0  0  0  0  0  0  0
    6.8731  -11.6725   25.5785 C   0  0  0  0  0  0  0  0  0  0  0  0
    7.2934  -11.7584   24.2669 C   0  0  0  0  0  0  0  0  0  0  0  0
    7.2315  -12.9453   23.5693 C   0  0  0  0  0  0  0  0  0  0  0  0
    6.7436  -14.1018   24.1606 C   0  0  0  0  0  0  0  0  0  0  0  0
    9.3214  -16.1467   23.0518 C   0  0  0  0  0  0  0  0  0  0  0  0
    9.8469  -15.0895   22.5544 O   0  0  0  0  0  0  0  0  0  0  0  0
    9.3868  -14.0302   29.6958 C   0  0  0  0  0  0  0  0  0  0  0  0
   10.4008  -15.2704   28.7983 S   0  0  0  0  0  0  0  0  0  0  0  0
   10.1482  -15.0575   26.9901 C   0  0  0  0  0  0  0  0  0  0  0  0
   10.9035  -16.1561   26.3369 C   0  0  0  0  0  0  0  0  0  0  0  0
   11.1184  -15.9441   24.8275 C   0  0  2  0  0  0  0  0  0  0  0  0
    9.9719  -16.6050   24.2320 N   0  0  0  0  0  0  0  0  0  0  0  0
   12.4034  -16.4791   24.3733 C   0  0  0  0  0  0  0  0  0  0  0  0
   13.4745  -15.9215   24.7526 O   0  0  0  0  0  0  0  0  0  0  0  0
   12.5222  -17.6092   23.5162 N   0  0  0  0  0  0  0  0  0  0  0  0
   13.8050  -17.9156   22.9282 C   0  0  0  0  0  0  0  0  0  0  0  0
   14.4876  -18.9181   23.7481 C   0  0  0  0  0  0  0  0  0  0  0  0
   15.2651  -19.8914   23.1523 O   0  0  0  0  0  0  0  0  0  0  0  0
   14.4101  -18.9526   25.0106 O   0  0  0  0  0  0  0  0  0  0  0  0
  2  3  1  0
  2  1  1  1
  4  5  2  0
  4  3  1  0
  6  5  1  0
  7 12  2  0
  7  6  1  0
  8  7  1  0
  9 10  1  0
  9  8  2  0
 10 11  2  0
 11 12  1  0
 12  4  1  0
 13  2  1  0
 14 13  2  0
 16 15  1  0
 17 16  1  0
 18 17  1  0
 19 18  1  1
 19 20  1  0
 20 13  1  0
 21 19  1  0
 21 22  2  0
 23 21  1  0
 24 23  1  0
 24 25  1  0
 25 27  2  0
 25 26  1  0
M  END
$$$$
