WMG.pdb
     RDKit          3D

 27 28  0  0  1  0  0  0  0  0999 V2000
    7.3006  -18.6376   24.8583 N   0  0  0  0  0  0  0  0  0  0  0  0
    7.4565  -17.2089   24.5002 C   0  0  1  0  0  0  0  0  0  0  0  0
    7.9146  -16.4883   25.7260 C   0  0  0  0  0  0  0  0  0  0  0  0
    7.0632  -15.3140   26.0292 C   0  0  0  0  0  0  0  0  0  0  0  0
    5.6726  -15.3655   26.2350 C   0  0  0  0  0  0  0  0  0  0  0  0
    5.2335  -14.1344   26.5195 N   0  0  0  0  0  0  0  0  0  0  0  0
    6.2541  -13.2336   26.5197 C   0  0  0  0  0  0  0  0  0  0  0  0
    6.3079  -11.8761   26.7430 C   0  0  0  0  0  0  0  0  0  0  0  0
    7.5081  -11.2186   26.6639 C   0  0  0  0  0  0  0  0  0  0  0  0
    8.6407  -11.9454   26.3587 C   0  0  0  0  0  0  0  0  0  0  0  0
    8.5836  -13.3042   26.1360 C   0  0  0  0  0  0  0  0  0  0  0  0
    7.3824  -13.9948   26.2108 C   0  0  0  0  0  0  0  0  0  0  0  0
    8.2987  -17.1335   23.3223 C   0  0  0  0  0  0  0  0  0  0  0  0
    8.9508  -18.1585   22.9156 O   0  0  0  0  0  0  0  0  0  0  0  0
    8.3467  -12.0971   19.4681 C   0  0  0  0  0  0  0  0  0  0  0  0
    7.0243  -13.3381   19.1795 S   0  0  0  0  0  0  0  0  0  0  0  0
    7.4110  -14.8606   20.1341 C   0  0  0  0  0  0  0  0  0  0  0  0
    8.8290  -14.7335   20.5549 C   0  0  0  0  0  0  0  0  0  0  0  0
    9.3494  -15.9486   21.3436 C   0  0  2  0  0  0  0  0  0  0  0  0
    8.4918  -15.9781   22.5139 N   0  0  0  0  0  0  0  0  0  0  0  0
   10.7730  -15.8288   21.6643 C   0  0  0  0  0  0  0  0  0  0  0  0
   11.6210  -15.8301   20.7246 O   0  0  0  0  0  0  0  0  0  0  0  0
   11.2689  -15.7082   22.9929 N   0  0  0  0  0  0  0  0  0  0  0  0
   12.6754  -15.4548   23.1995 C   0  0  0  0  0  0  0  0  0  0  0  0
   13.3667  -16.7226   23.4400 C   0  0  0  0  0  0  0  0  0  0  0  0
   14.6484  -16.7293   23.9538 O   0  0  0  0  0  0  0  0  0  0  0  0
   12.8493  -17.8522   23.2004 O   0  0  0  0  0  0  0  0  0  0  0  0
  2  3  1  0
  2  1  1  1
  4  5  2  0
  4  3  1  0
  6  5  1  0
  7 12  2  0
  7  6  1  0
  8  7  1  0
  9 10  1  0
  9  8  2  0
 10 11  2  0
 11 12  1  0
 12  4  1  0
 13  2  1  0
 14 13  2  0
 16 15  1  0
 17 16  1  0
 18 17  1  0
 19 18  1  6
 19 20  1  0
 20 13  1  0
 21 19  1  0
 21 22  2  0
 23 21  1  0
 24 23  1  0
 24 25  1  0
 25 27  2  0
 25 26  1  0
M  END
$$$$
