WMG.pdb
     RDKit          3D

 27 28  0  0  1  0  0  0  0  0999 V2000
    5.6918  -17.5598   24.3778 N   0  0  0  0  0  0  0  0  0  0  0  0
    6.9983  -18.2571   24.4038 C   0  0  1  0  0  0  0  0  0  0  0  0
    7.0381  -19.1756   23.2262 C   0  0  0  0  0  0  0  0  0  0  0  0
    6.0554  -20.2778   23.3498 C   0  0  0  0  0  0  0  0  0  0  0  0
    4.7501  -20.2486   22.8263 C   0  0  0  0  0  0  0  0  0  0  0  0
    4.1542  -21.4168   23.0899 N   0  0  0  0  0  0  0  0  0  0  0  0
    4.9849  -22.2525   23.7714 C   0  0  0  0  0  0  0  0  0  0  0  0
    4.8345  -23.5294   24.2639 C   0  0  0  0  0  0  0  0  0  0  0  0
    5.8693  -24.1285   24.9344 C   0  0  0  0  0  0  0  0  0  0  0  0
    7.0453  -23.4254   25.0983 C   0  0  0  0  0  0  0  0  0  0  0  0
    7.1928  -22.1475   24.6039 C   0  0  0  0  0  0  0  0  0  0  0  0
    6.1623  -21.5179   23.9205 C   0  0  0  0  0  0  0  0  0  0  0  0
    8.0384  -17.2522   24.5075 C   0  0  0  0  0  0  0  0  0  0  0  0
    7.7738  -16.0128   24.3204 O   0  0  0  0  0  0  0  0  0  0  0  0
    9.0086  -12.7457   28.3144 C   0  0  0  0  0  0  0  0  0  0  0  0
    9.8076  -14.3622   28.6614 S   0  0  0  0  0  0  0  0  0  0  0  0
   10.6977  -14.9276   27.1558 C   0  0  0  0  0  0  0  0  0  0  0  0
    9.8454  -15.9778   26.5439 C   0  0  0  0  0  0  0  0  0  0  0  0
   10.3528  -16.4632   25.1741 C   0  0  2  0  0  0  0  0  0  0  0  0
    9.4049  -17.5025   24.8172 N   0  0  0  0  0  0  0  0  0  0  0  0
   11.7389  -16.9309   25.2340 C   0  0  0  0  0  0  0  0  0  0  0  0
   12.0016  -18.0115   25.8385 O   0  0  0  0  0  0  0  0  0  0  0  0
   12.8277  -16.2312   24.6419 N   0  0  0  0  0  0  0  0  0  0  0  0
   13.7888  -16.9631   23.8508 C   0  0  0  0  0  0  0  0  0  0  0  0
   14.8202  -16.0436   23.3673 C   0  0  0  0  0  0  0  0  0  0  0  0
   15.9230  -16.5284   22.6922 O   0  0  0  0  0  0  0  0  0  0  0  0
   14.7661  -14.7902   23.5323 O   0  0  0  0  0  0  0  0  0  0  0  0
  2  3  1  0
  2  1  1  6
  4  5  2  0
  4  3  1  0
  6  5  1  0
  7 12  2  0
  7  6  1  0
  8  7  1  0
  9 10  1  0
  9  8  2  0
 10 11  2  0
 11 12  1  0
 12  4  1  0
 13  2  1  0
 14 13  2  0
 16 15  1  0
 17 16  1  0
 18 17  1  0
 19 18  1  1
 19 20  1  0
 20 13  1  0
 21 19  1  0
 21 22  2  0
 23 21  1  0
 24 23  1  0
 24 25  1  0
 25 27  2  0
 25 26  1  0
M  END
$$$$
