WMG.pdb
     RDKit          3D

 27 28  0  0  1  0  0  0  0  0999 V2000
    6.9587  -18.6083   22.8218 N   0  0  0  0  0  0  0  0  0  0  0  0
    7.0328  -17.1917   22.3954 C   0  0  1  0  0  0  0  0  0  0  0  0
    6.2719  -17.0698   21.1156 C   0  0  0  0  0  0  0  0  0  0  0  0
    6.9163  -16.1225   20.1758 C   0  0  0  0  0  0  0  0  0  0  0  0
    7.3489  -16.4521   18.8786 C   0  0  0  0  0  0  0  0  0  0  0  0
    7.8496  -15.3549   18.2999 N   0  0  0  0  0  0  0  0  0  0  0  0
    7.7845  -14.2821   19.1355 C   0  0  0  0  0  0  0  0  0  0  0  0
    8.1692  -12.9666   19.0057 C   0  0  0  0  0  0  0  0  0  0  0  0
    7.9822  -12.0951   20.0472 C   0  0  0  0  0  0  0  0  0  0  0  0
    7.4072  -12.5678   21.2091 C   0  0  0  0  0  0  0  0  0  0  0  0
    7.0229  -13.8853   21.3357 C   0  0  0  0  0  0  0  0  0  0  0  0
    7.1995  -14.7883   20.2972 C   0  0  0  0  0  0  0  0  0  0  0  0
    6.6089  -16.3674   23.5104 C   0  0  0  0  0  0  0  0  0  0  0  0
    5.5970  -15.5891   23.4030 O   0  0  0  0  0  0  0  0  0  0  0  0
    6.8236  -11.0361   26.5632 C   0  0  0  0  0  0  0  0  0  0  0  0
    6.6929  -12.4997   27.6644 S   0  0  0  0  0  0  0  0  0  0  0  0
    8.0446  -13.6779   27.2602 C   0  0  0  0  0  0  0  0  0  0  0  0
    7.3959  -14.8362   26.5957 C   0  0  0  0  0  0  0  0  0  0  0  0
    8.0466  -15.2219   25.2551 C   0  0  2  0  0  0  0  0  0  0  0  0
    7.2261  -16.3258   24.7923 N   0  0  0  0  0  0  0  0  0  0  0  0
    9.4609  -15.5681   25.4084 C   0  0  0  0  0  0  0  0  0  0  0  0
   10.2976  -14.6533   25.6634 O   0  0  0  0  0  0  0  0  0  0  0  0
    9.9598  -16.8955   25.2863 N   0  0  0  0  0  0  0  0  0  0  0  0
   11.3766  -17.1320   25.4354 C   0  0  0  0  0  0  0  0  0  0  0  0
   11.6049  -18.5509   25.7143 C   0  0  0  0  0  0  0  0  0  0  0  0
   12.8463  -18.9861   26.1340 O   0  0  0  0  0  0  0  0  0  0  0  0
   10.7086  -19.4358   25.5924 O   0  0  0  0  0  0  0  0  0  0  0  0
  2  3  1  0
  2  1  1  1
  4  5  2  0
  4  3  1  0
  6  5  1  0
  7 12  2  0
  7  6  1  0
  8  7  1  0
  9 10  1  0
  9  8  2  0
 10 11  2  0
 11 12  1  0
 12  4  1  0
 13  2  1  0
 14 13  2  0
 16 15  1  0
 17 16  1  0
 18 17  1  0
 19 18  1  1
 19 20  1  0
 20 13  1  0
 21 19  1  0
 21 22  2  0
 23 21  1  0
 24 23  1  0
 24 25  1  0
 25 27  2  0
 25 26  1  0
M  END
$$$$
