WMG.pdb
     RDKit          3D

 27 28  0  0  1  0  0  0  0  0999 V2000
    6.7615  -18.3870   23.6345 N   0  0  0  0  0  0  0  0  0  0  0  0
    7.1544  -16.9624   23.7345 C   0  0  1  0  0  0  0  0  0  0  0  0
    7.6605  -16.7347   25.1216 C   0  0  0  0  0  0  0  0  0  0  0  0
    6.9632  -15.6098   25.7882 C   0  0  0  0  0  0  0  0  0  0  0  0
    5.6463  -15.6631   26.2796 C   0  0  0  0  0  0  0  0  0  0  0  0
    5.3509  -14.4888   26.8480 N   0  0  0  0  0  0  0  0  0  0  0  0
    6.4007  -13.6255   26.7726 C   0  0  0  0  0  0  0  0  0  0  0  0
    6.5810  -12.3277   27.1956 C   0  0  0  0  0  0  0  0  0  0  0  0
    7.7749  -11.6947   26.9655 C   0  0  0  0  0  0  0  0  0  0  0  0
    8.7729  -12.3850   26.3084 C   0  0  0  0  0  0  0  0  0  0  0  0
    8.5893  -13.6841   25.8865 C   0  0  0  0  0  0  0  0  0  0  0  0
    7.3916  -14.3490   26.1073 C   0  0  0  0  0  0  0  0  0  0  0  0
    8.0527  -16.6690   22.6349 C   0  0  0  0  0  0  0  0  0  0  0  0
    8.5129  -17.6085   21.8954 O   0  0  0  0  0  0  0  0  0  0  0  0
    6.2104  -12.7001   18.1111 C   0  0  0  0  0  0  0  0  0  0  0  0
    7.8184  -13.3584   18.7053 S   0  0  0  0  0  0  0  0  0  0  0  0
    7.9129  -13.1556   20.5298 C   0  0  0  0  0  0  0  0  0  0  0  0
    9.2724  -13.6036   20.9237 C   0  0  0  0  0  0  0  0  0  0  0  0
    9.3847  -15.1249   21.1300 C   0  0  2  0  0  0  0  0  0  0  0  0
    8.5063  -15.3736   22.2581 N   0  0  0  0  0  0  0  0  0  0  0  0
   10.7670  -15.5492   21.3600 C   0  0  0  0  0  0  0  0  0  0  0  0
   11.6027  -15.4750   20.4123 O   0  0  0  0  0  0  0  0  0  0  0  0
   11.2356  -16.0483   22.6079 N   0  0  0  0  0  0  0  0  0  0  0  0
   12.5803  -16.5666   22.6991 C   0  0  0  0  0  0  0  0  0  0  0  0
   12.8680  -16.9276   24.0883 C   0  0  0  0  0  0  0  0  0  0  0  0
   14.1488  -17.2818   24.4639 O   0  0  0  0  0  0  0  0  0  0  0  0
   11.9903  -16.9362   24.9998 O   0  0  0  0  0  0  0  0  0  0  0  0
  2  3  1  0
  2  1  1  1
  4  5  2  0
  4  3  1  0
  6  5  1  0
  7 12  2  0
  7  6  1  0
  8  7  1  0
  9 10  1  0
  9  8  2  0
 10 11  2  0
 11 12  1  0
 12  4  1  0
 13  2  1  0
 14 13  2  0
 16 15  1  0
 17 16  1  0
 18 17  1  0
 19 18  1  1
 19 20  1  0
 20 13  1  0
 21 19  1  0
 21 22  2  0
 23 21  1  0
 24 23  1  0
 24 25  1  0
 25 27  2  0
 25 26  1  0
M  END
$$$$
