WMG.pdb
     RDKit          3D

 27 28  0  0  1  0  0  0  0  0999 V2000
    6.4369  -18.2859   26.1347 N   0  0  0  0  0  0  0  0  0  0  0  0
    7.4742  -17.2286   26.1354 C   0  0  1  0  0  0  0  0  0  0  0  0
    8.7944  -17.8979   26.3375 C   0  0  0  0  0  0  0  0  0  0  0  0
    9.4806  -17.4128   27.5580 C   0  0  0  0  0  0  0  0  0  0  0  0
    9.8513  -18.2259   28.6443 C   0  0  0  0  0  0  0  0  0  0  0  0
   10.4783  -17.4707   29.5531 N   0  0  0  0  0  0  0  0  0  0  0  0
   10.5583  -16.1737   29.1475 C   0  0  0  0  0  0  0  0  0  0  0  0
   11.0911  -15.0417   29.7221 C   0  0  0  0  0  0  0  0  0  0  0  0
   11.0126  -13.8413   29.0647 C   0  0  0  0  0  0  0  0  0  0  0  0
   10.3942  -13.8024   27.8318 C   0  0  0  0  0  0  0  0  0  0  0  0
    9.8622  -14.9375   27.2591 C   0  0  0  0  0  0  0  0  0  0  0  0
    9.9287  -16.1654   27.9019 C   0  0  0  0  0  0  0  0  0  0  0  0
    7.3009  -16.4328   24.9358 C   0  0  0  0  0  0  0  0  0  0  0  0
    6.4977  -16.8072   24.0107 O   0  0  0  0  0  0  0  0  0  0  0  0
    4.6850  -12.1377   26.2049 C   0  0  0  0  0  0  0  0  0  0  0  0
    5.6310  -12.9779   24.8741 S   0  0  0  0  0  0  0  0  0  0  0  0
    7.4210  -12.6220   25.0932 C   0  0  0  0  0  0  0  0  0  0  0  0
    8.0774  -13.0144   23.8208 C   0  0  0  0  0  0  0  0  0  0  0  0
    7.8044  -14.4726   23.4102 C   0  0  2  0  0  0  0  0  0  0  0  0
    7.9608  -15.2035   24.6541 N   0  0  0  0  0  0  0  0  0  0  0  0
    8.7060  -14.9243   22.3487 C   0  0  0  0  0  0  0  0  0  0  0  0
    8.5652  -14.4616   21.1790 O   0  0  0  0  0  0  0  0  0  0  0  0
    9.7502  -15.8686   22.5574 N   0  0  0  0  0  0  0  0  0  0  0  0
   10.7118  -16.0996   21.5052 C   0  0  0  0  0  0  0  0  0  0  0  0
   10.1798  -17.0936   20.5713 C   0  0  0  0  0  0  0  0  0  0  0  0
   10.9199  -17.4809   19.4718 O   0  0  0  0  0  0  0  0  0  0  0  0
    9.0473  -17.6408   20.7101 O   0  0  0  0  0  0  0  0  0  0  0  0
  2  3  1  0
  2  1  1  6
  4  5  2  0
  4  3  1  0
  6  5  1  0
  7 12  2  0
  7  6  1  0
  8  7  1  0
  9 10  1  0
  9  8  2  0
 10 11  2  0
 11 12  1  0
 12  4  1  0
 13  2  1  0
 14 13  2  0
 16 15  1  0
 17 16  1  0
 18 17  1  0
 19 18  1  1
 19 20  1  0
 20 13  1  0
 21 19  1  0
 21 22  2  0
 23 21  1  0
 24 23  1  0
 24 25  1  0
 25 27  2  0
 25 26  1  0
M  END
$$$$
