WMG.pdb
     RDKit          3D

 27 28  0  0  1  0  0  0  0  0999 V2000
    6.8742  -17.6606   25.6858 N   0  0  0  0  0  0  0  0  0  0  0  0
    7.4173  -16.4515   25.0249 C   0  0  1  0  0  0  0  0  0  0  0  0
    8.5967  -15.9981   25.8220 C   0  0  0  0  0  0  0  0  0  0  0  0
    8.2485  -14.8952   26.7484 C   0  0  0  0  0  0  0  0  0  0  0  0
    8.6866  -14.8018   28.0818 C   0  0  0  0  0  0  0  0  0  0  0  0
    8.2150  -13.6677   28.6116 N   0  0  0  0  0  0  0  0  0  0  0  0
    7.4708  -12.9724   27.7083 C   0  0  0  0  0  0  0  0  0  0  0  0
    6.7854  -11.7803   27.7759 C   0  0  0  0  0  0  0  0  0  0  0  0
    6.1003  -11.3240   26.6798 C   0  0  0  0  0  0  0  0  0  0  0  0
    6.1177  -12.0823   25.5270 C   0  0  0  0  0  0  0  0  0  0  0  0
    6.8050  -13.2751   25.4625 C   0  0  0  0  0  0  0  0  0  0  0  0
    7.5076  -13.7598   26.5564 C   0  0  0  0  0  0  0  0  0  0  0  0
    7.6326  -16.7663   23.6260 C   0  0  0  0  0  0  0  0  0  0  0  0
    7.3921  -17.9404   23.1734 O   0  0  0  0  0  0  0  0  0  0  0  0
    8.5423  -12.5688   18.6358 C   0  0  0  0  0  0  0  0  0  0  0  0
    7.1920  -12.4680   19.8762 S   0  0  0  0  0  0  0  0  0  0  0  0
    6.9260  -14.1319   20.6107 C   0  0  0  0  0  0  0  0  0  0  0  0
    8.2339  -14.8300   20.5330 C   0  0  0  0  0  0  0  0  0  0  0  0
    8.2435  -16.2014   21.2320 C   0  0  2  0  0  0  0  0  0  0  0  0
    8.1069  -15.8603   22.6359 N   0  0  0  0  0  0  0  0  0  0  0  0
    9.4557  -16.9651   20.9306 C   0  0  0  0  0  0  0  0  0  0  0  0
    9.5989  -17.4689   19.7783 O   0  0  0  0  0  0  0  0  0  0  0  0
   10.5014  -17.1782   21.8723 N   0  0  0  0  0  0  0  0  0  0  0  0
   11.5747  -18.0852   21.5399 C   0  0  0  0  0  0  0  0  0  0  0  0
   12.4455  -17.4616   20.5418 C   0  0  0  0  0  0  0  0  0  0  0  0
   13.6270  -16.8605   20.9283 O   0  0  0  0  0  0  0  0  0  0  0  0
   12.1780  -17.4366   19.3053 O   0  0  0  0  0  0  0  0  0  0  0  0
  2  3  1  0
  2  1  1  1
  4  5  2  0
  4  3  1  0
  6  5  1  0
  7 12  2  0
  7  6  1  0
  8  7  1  0
  9 10  1  0
  9  8  2  0
 10 11  2  0
 11 12  1  0
 12  4  1  0
 13  2  1  0
 14 13  2  0
 16 15  1  0
 17 16  1  0
 18 17  1  0
 19 18  1  6
 19 20  1  0
 20 13  1  0
 21 19  1  0
 21 22  2  0
 23 21  1  0
 24 23  1  0
 24 25  1  0
 25 27  2  0
 25 26  1  0
M  END
$$$$
