WMG.pdb
     RDKit          3D

 27 28  0  0  1  0  0  0  0  0999 V2000
    8.5634  -17.6148   25.2838 N   0  0  0  0  0  0  0  0  0  0  0  0
    7.1629  -17.4121   24.8461 C   0  0  1  0  0  0  0  0  0  0  0  0
    6.4910  -16.5643   25.8764 C   0  0  0  0  0  0  0  0  0  0  0  0
    7.3442  -15.4304   26.3034 C   0  0  0  0  0  0  0  0  0  0  0  0
    8.6423  -15.5595   26.8293 C   0  0  0  0  0  0  0  0  0  0  0  0
    9.1313  -14.3387   27.0737 N   0  0  0  0  0  0  0  0  0  0  0  0
    8.2329  -13.3711   26.7423 C   0  0  0  0  0  0  0  0  0  0  0  0
    8.2648  -11.9965   26.8131 C   0  0  0  0  0  0  0  0  0  0  0  0
    7.1783  -11.2669   26.4054 C   0  0  0  0  0  0  0  0  0  0  0  0
    6.0710  -11.9398   25.9306 C   0  0  0  0  0  0  0  0  0  0  0  0
    6.0423  -13.3159   25.8608 C   0  0  0  0  0  0  0  0  0  0  0  0
    7.1283  -14.0788   26.2656 C   0  0  0  0  0  0  0  0  0  0  0  0
    7.1884  -16.9191   23.4828 C   0  0  0  0  0  0  0  0  0  0  0  0
    6.1299  -16.9307   22.7613 O   0  0  0  0  0  0  0  0  0  0  0  0
    8.3759  -11.5630   21.1063 C   0  0  0  0  0  0  0  0  0  0  0  0
    7.1208  -12.5584   20.2086 S   0  0  0  0  0  0  0  0  0  0  0  0
    6.9668  -14.2016   21.0179 C   0  0  0  0  0  0  0  0  0  0  0  0
    8.3505  -14.7184   21.1668 C   0  0  0  0  0  0  0  0  0  0  0  0
    8.4208  -16.2420   21.3742 C   0  0  2  0  0  0  0  0  0  0  0  0
    8.3271  -16.3865   22.8151 N   0  0  0  0  0  0  0  0  0  0  0  0
    9.6403  -16.8198   20.8062 C   0  0  0  0  0  0  0  0  0  0  0  0
    9.8657  -16.6935   19.5671 O   0  0  0  0  0  0  0  0  0  0  0  0
   10.6048  -17.5270   21.5778 N   0  0  0  0  0  0  0  0  0  0  0  0
   11.7871  -18.0415   20.9278 C   0  0  0  0  0  0  0  0  0  0  0  0
   11.6178  -19.4736   20.6756 C   0  0  0  0  0  0  0  0  0  0  0  0
   12.6919  -20.2395   20.2674 O   0  0  0  0  0  0  0  0  0  0  0  0
   10.5142  -20.0772   20.8121 O   0  0  0  0  0  0  0  0  0  0  0  0
  2  3  1  0
  2  1  1  1
  4  5  2  0
  4  3  1  0
  6  5  1  0
  7 12  2  0
  7  6  1  0
  8  7  1  0
  9 10  1  0
  9  8  2  0
 10 11  2  0
 11 12  1  0
 12  4  1  0
 13  2  1  0
 14 13  2  0
 16 15  1  0
 17 16  1  0
 18 17  1  0
 19 18  1  1
 19 20  1  0
 20 13  1  0
 21 19  1  0
 21 22  2  0
 23 21  1  0
 24 23  1  0
 24 25  1  0
 25 27  2  0
 25 26  1  0
M  END
$$$$
