WMG.pdb
     RDKit          3D

 27 28  0  0  1  0  0  0  0  0999 V2000
    9.8569  -15.7455   24.8296 N   0  0  0  0  0  0  0  0  0  0  0  0
    8.9142  -16.8783   24.6815 C   0  0  1  0  0  0  0  0  0  0  0  0
    7.7156  -16.5747   25.5201 C   0  0  0  0  0  0  0  0  0  0  0  0
    7.8082  -15.2395   26.1562 C   0  0  0  0  0  0  0  0  0  0  0  0
    6.8991  -14.1873   25.9439 C   0  0  0  0  0  0  0  0  0  0  0  0
    7.2631  -13.1448   26.6989 N   0  0  0  0  0  0  0  0  0  0  0  0
    8.3812  -13.4256   27.4229 C   0  0  0  0  0  0  0  0  0  0  0  0
    9.1280  -12.6936   28.3184 C   0  0  0  0  0  0  0  0  0  0  0  0
   10.2380  -13.2516   28.8979 C   0  0  0  0  0  0  0  0  0  0  0  0
   10.5784  -14.5460   28.5623 C   0  0  0  0  0  0  0  0  0  0  0  0
    9.8286  -15.2762   27.6657 C   0  0  0  0  0  0  0  0  0  0  0  0
    8.7000  -14.7366   27.0654 C   0  0  0  0  0  0  0  0  0  0  0  0
    8.7037  -17.1013   23.2644 C   0  0  0  0  0  0  0  0  0  0  0  0
    7.9109  -18.0209   22.8559 O   0  0  0  0  0  0  0  0  0  0  0  0
    6.3645  -11.9312   20.6198 C   0  0  0  0  0  0  0  0  0  0  0  0
    7.7498  -12.9249   19.9376 S   0  0  0  0  0  0  0  0  0  0  0  0
    7.7917  -14.5565   20.7830 C   0  0  0  0  0  0  0  0  0  0  0  0
    8.8988  -15.3185   20.1525 C   0  0  0  0  0  0  0  0  0  0  0  0
    9.1536  -16.6894   20.8045 C   0  0  2  0  0  0  0  0  0  0  0  0
    9.3135  -16.3650   22.2099 N   0  0  0  0  0  0  0  0  0  0  0  0
   10.3141  -17.3682   20.2248 C   0  0  0  0  0  0  0  0  0  0  0  0
   10.2963  -17.6869   19.0000 O   0  0  0  0  0  0  0  0  0  0  0  0
   11.4820  -17.6962   20.9693 N   0  0  0  0  0  0  0  0  0  0  0  0
   12.6051  -18.2974   20.2892 C   0  0  0  0  0  0  0  0  0  0  0  0
   12.5422  -19.7521   20.4411 C   0  0  0  0  0  0  0  0  0  0  0  0
   13.6185  -20.5365   20.0762 O   0  0  0  0  0  0  0  0  0  0  0  0
   11.5319  -20.3595   20.9010 O   0  0  0  0  0  0  0  0  0  0  0  0
  2  3  1  0
  2  1  1  6
  4  5  2  0
  4  3  1  0
  6  5  1  0
  7 12  2  0
  7  6  1  0
  8  7  1  0
  9 10  1  0
  9  8  2  0
 10 11  2  0
 11 12  1  0
 12  4  1  0
 13  2  1  0
 14 13  2  0
 16 15  1  0
 17 16  1  0
 18 17  1  0
 19 18  1  6
 19 20  1  0
 20 13  1  0
 21 19  1  0
 21 22  2  0
 23 21  1  0
 24 23  1  0
 24 25  1  0
 25 27  2  0
 25 26  1  0
M  END
$$$$
