WMG.pdb
     RDKit          3D

 27 28  0  0  1  0  0  0  0  0999 V2000
    7.0929  -18.0547   24.2276 N   0  0  0  0  0  0  0  0  0  0  0  0
    7.5831  -16.8439   23.5294 C   0  0  1  0  0  0  0  0  0  0  0  0
    6.3908  -16.1330   22.9773 C   0  0  0  0  0  0  0  0  0  0  0  0
    6.6320  -15.6299   21.6045 C   0  0  0  0  0  0  0  0  0  0  0  0
    6.1584  -16.2458   20.4319 C   0  0  0  0  0  0  0  0  0  0  0  0
    6.5291  -15.5091   19.3787 N   0  0  0  0  0  0  0  0  0  0  0  0
    7.2373  -14.4133   19.7670 C   0  0  0  0  0  0  0  0  0  0  0  0
    7.8269  -13.3818   19.0713 C   0  0  0  0  0  0  0  0  0  0  0  0
    8.4990  -12.3980   19.7493 C   0  0  0  0  0  0  0  0  0  0  0  0
    8.5659  -12.4716   21.1256 C   0  0  0  0  0  0  0  0  0  0  0  0
    7.9743  -13.5053   21.8190 C   0  0  0  0  0  0  0  0  0  0  0  0
    7.2870  -14.5134   21.1582 C   0  0  0  0  0  0  0  0  0  0  0  0
    8.4352  -16.1137   24.4475 C   0  0  0  0  0  0  0  0  0  0  0  0
    9.1863  -15.1634   24.0303 O   0  0  0  0  0  0  0  0  0  0  0  0
    5.5209  -12.1423   26.8087 C   0  0  0  0  0  0  0  0  0  0  0  0
    7.2148  -12.3627   27.4826 S   0  0  0  0  0  0  0  0  0  0  0  0
    8.1170  -13.5872   26.4505 C   0  0  0  0  0  0  0  0  0  0  0  0
    8.6777  -14.5870   27.3939 C   0  0  0  0  0  0  0  0  0  0  0  0
    9.5040  -15.6885   26.7059 C   0  0  2  0  0  0  0  0  0  0  0  0
    8.5347  -16.3451   25.8484 N   0  0  0  0  0  0  0  0  0  0  0  0
   10.1350  -16.5890   27.6725 C   0  0  0  0  0  0  0  0  0  0  0  0
   10.8889  -16.1061   28.5672 O   0  0  0  0  0  0  0  0  0  0  0  0
    9.9475  -17.9999   27.6666 N   0  0  0  0  0  0  0  0  0  0  0  0
   10.6133  -18.7949   26.6617 C   0  0  0  0  0  0  0  0  0  0  0  0
   11.9692  -19.1119   27.1136 C   0  0  0  0  0  0  0  0  0  0  0  0
   12.9509  -19.4317   26.1966 O   0  0  0  0  0  0  0  0  0  0  0  0
   12.3133  -19.1118   28.3313 O   0  0  0  0  0  0  0  0  0  0  0  0
  2  3  1  0
  2  1  1  1
  4  5  2  0
  4  3  1  0
  6  5  1  0
  7 12  2  0
  7  6  1  0
  8  7  1  0
  9 10  1  0
  9  8  2  0
 10 11  2  0
 11 12  1  0
 12  4  1  0
 13  2  1  0
 14 13  2  0
 16 15  1  0
 17 16  1  0
 18 17  1  0
 19 18  1  1
 19 20  1  0
 20 13  1  0
 21 19  1  0
 21 22  2  0
 23 21  1  0
 24 23  1  0
 24 25  1  0
 25 27  2  0
 25 26  1  0
M  END
$$$$
