TMH.pdb
     RDKit          3D

 26 26  0  0  1  0  0  0  0  0999 V2000
    6.7651  -17.2515   18.9489 C   0  0  0  0  0  0  0  0  0  0  0  0
    7.6041  -17.0470   20.1925 C   0  0  1  0  0  0  0  0  0  0  0  0
    8.8672  -17.5681   19.9653 O   0  0  0  0  0  0  0  0  0  0  0  0
    7.6579  -15.5765   20.4720 C   0  0  2  0  0  0  0  0  0  0  0  0
    8.3999  -14.9291   19.4063 N   0  0  0  0  0  0  0  0  0  0  0  0
    8.3180  -15.2492   21.7624 C   0  0  0  0  0  0  0  0  0  0  0  0
    9.5709  -15.1416   21.8483 O   0  0  0  0  0  0  0  0  0  0  0  0
    5.8418  -10.4080   26.2289 C   0  0  0  0  0  0  0  0  0  0  0  0
    6.2236  -12.1650   26.4639 S   0  0  0  0  0  0  0  0  0  0  0  0
    6.9490  -12.8914   24.9653 C   0  0  0  0  0  0  0  0  0  0  0  0
    7.2850  -14.3167   25.2499 C   0  0  0  0  0  0  0  0  0  0  0  0
    8.2494  -14.9326   24.2842 C   0  0  2  0  0  0  0  0  0  0  0  0
    7.5933  -15.0392   22.9643 N   0  0  0  0  0  0  0  0  0  0  0  0
    8.7614  -16.2584   24.6761 C   0  0  0  0  0  0  0  0  0  0  0  0
    7.9229  -17.2303   24.6015 O   0  0  0  0  0  0  0  0  0  0  0  0
   10.0388  -16.5884   25.1115 N   0  0  0  0  0  0  0  0  0  0  0  0
   10.3105  -17.9301   25.6415 C   0  0  1  0  0  0  0  0  0  0  0  0
   10.0601  -18.9995   24.6036 C   0  0  0  0  0  0  0  0  0  0  0  0
   10.8354  -18.7342   23.3685 C   0  0  0  0  0  0  0  0  0  0  0  0
   11.2396  -17.4758   22.9984 C   0  0  0  0  0  0  0  0  0  0  0  0
   11.9157  -17.6316   21.8267 N   0  0  0  0  0  0  0  0  0  0  0  0
   11.9340  -18.9314   21.4779 C   0  0  0  0  0  0  0  0  0  0  0  0
   11.2635  -19.5985   22.4388 N   0  0  0  0  0  0  0  0  0  0  0  0
   11.7246  -18.0274   26.1038 C   0  0  0  0  0  0  0  0  0  0  0  0
   12.5169  -17.0535   26.0334 O   0  0  0  0  0  0  0  0  0  0  0  0
   12.1487  -19.2375   26.6205 O   0  0  0  0  0  0  0  0  0  0  0  0
  2  1  1  6
  2  4  1  0
  3  2  1  0
  4  6  1  0
  4  5  1  6
  6  7  2  0
  9  8  1  0
 10  9  1  0
 11 10  1  0
 12 11  1  1
 12 14  1  0
 13  6  1  0
 13 12  1  0
 14 15  2  0
 16 17  1  0
 16 14  1  0
 17 24  1  0
 17 18  1  6
 19 20  2  0
 19 18  1  0
 21 20  1  0
 22 23  2  0
 22 21  1  0
 23 19  1  0
 24 25  2  0
 24 26  1  0
M  END
$$$$
