TMH.pdb
     RDKit          3D

 26 26  0  0  1  0  0  0  0  0999 V2000
    6.4102  -14.8188   18.4846 C   0  0  0  0  0  0  0  0  0  0  0  0
    7.2010  -14.9751   19.7661 C   0  0  1  0  0  0  0  0  0  0  0  0
    8.3970  -15.6099   19.4740 O   0  0  0  0  0  0  0  0  0  0  0  0
    7.4283  -13.6079   20.3338 C   0  0  2  0  0  0  0  0  0  0  0  0
    8.1045  -12.7988   19.3370 N   0  0  0  0  0  0  0  0  0  0  0  0
    8.2585  -13.6157   21.5662 C   0  0  0  0  0  0  0  0  0  0  0  0
    9.5094  -13.4701   21.5140 O   0  0  0  0  0  0  0  0  0  0  0  0
    7.2432  -11.4881   27.7823 C   0  0  0  0  0  0  0  0  0  0  0  0
    5.9101  -12.2251   26.7985 S   0  0  0  0  0  0  0  0  0  0  0  0
    6.5590  -13.4194   25.5934 C   0  0  0  0  0  0  0  0  0  0  0  0
    7.8857  -12.9315   25.1168 C   0  0  0  0  0  0  0  0  0  0  0  0
    8.5349  -13.8029   24.0867 C   0  0  2  0  0  0  0  0  0  0  0  0
    7.7069  -13.7847   22.8627 N   0  0  0  0  0  0  0  0  0  0  0  0
    8.7512  -15.2010   24.5011 C   0  0  0  0  0  0  0  0  0  0  0  0
    7.7374  -15.9842   24.3909 O   0  0  0  0  0  0  0  0  0  0  0  0
    9.9160  -15.7783   24.9915 N   0  0  0  0  0  0  0  0  0  0  0  0
    9.9381  -17.2033   25.3427 C   0  0  1  0  0  0  0  0  0  0  0  0
   11.1817  -17.8855   24.8214 C   0  0  0  0  0  0  0  0  0  0  0  0
   11.2319  -17.8412   23.3407 C   0  0  0  0  0  0  0  0  0  0  0  0
   10.1058  -17.7785   22.5586 C   0  0  0  0  0  0  0  0  0  0  0  0
   10.5478  -17.7536   21.2708 N   0  0  0  0  0  0  0  0  0  0  0  0
   11.8928  -17.7988   21.2474 C   0  0  0  0  0  0  0  0  0  0  0  0
   12.2997  -17.8526   22.5318 N   0  0  0  0  0  0  0  0  0  0  0  0
    9.8788  -17.3726   26.8227 C   0  0  0  0  0  0  0  0  0  0  0  0
    9.8549  -16.3886   27.6053 O   0  0  0  0  0  0  0  0  0  0  0  0
    9.8504  -18.6621   27.3203 O   0  0  0  0  0  0  0  0  0  0  0  0
  2  1  1  6
  2  4  1  0
  3  2  1  0
  4  6  1  0
  4  5  1  6
  6  7  2  0
  9  8  1  0
 10  9  1  0
 11 10  1  0
 12 11  1  1
 12 14  1  0
 13  6  1  0
 13 12  1  0
 14 15  2  0
 16 17  1  0
 16 14  1  0
 17 24  1  0
 17 18  1  1
 19 20  2  0
 19 18  1  0
 21 20  1  0
 22 23  2  0
 22 21  1  0
 23 19  1  0
 24 25  2  0
 24 26  1  0
M  END
$$$$
