TMH.pdb
     RDKit          3D

 26 26  0  0  1  0  0  0  0  0999 V2000
    7.1099  -14.5913   18.3124 C   0  0  0  0  0  0  0  0  0  0  0  0
    7.6686  -14.8588   19.6940 C   0  0  1  0  0  0  0  0  0  0  0  0
    8.9528  -15.3608   19.5629 O   0  0  0  0  0  0  0  0  0  0  0  0
    7.6578  -13.5663   20.4506 C   0  0  2  0  0  0  0  0  0  0  0  0
    8.4259  -12.5866   19.7051 N   0  0  0  0  0  0  0  0  0  0  0  0
    8.2448  -13.6788   21.8110 C   0  0  0  0  0  0  0  0  0  0  0  0
    9.4833  -13.5449   22.0029 O   0  0  0  0  0  0  0  0  0  0  0  0
    6.8007  -11.0649   27.8391 C   0  0  0  0  0  0  0  0  0  0  0  0
    5.7465  -11.5207   26.4360 S   0  0  0  0  0  0  0  0  0  0  0  0
    6.7326  -12.1281   25.0366 C   0  0  0  0  0  0  0  0  0  0  0  0
    7.1434  -13.5327   25.3266 C   0  0  0  0  0  0  0  0  0  0  0  0
    8.0561  -14.1367   24.3048 C   0  0  2  0  0  0  0  0  0  0  0  0
    7.4625  -13.9400   22.9658 N   0  0  0  0  0  0  0  0  0  0  0  0
    8.3451  -15.5694   24.4979 C   0  0  0  0  0  0  0  0  0  0  0  0
    7.4693  -16.3880   24.0330 O   0  0  0  0  0  0  0  0  0  0  0  0
    9.4487  -16.1446   25.1156 N   0  0  0  0  0  0  0  0  0  0  0  0
    9.5116  -17.5994   25.3009 C   0  0  1  0  0  0  0  0  0  0  0  0
    9.3734  -18.3339   23.9876 C   0  0  0  0  0  0  0  0  0  0  0  0
   10.3763  -17.8595   23.0045 C   0  0  0  0  0  0  0  0  0  0  0  0
   11.2903  -16.8757   23.2883 C   0  0  0  0  0  0  0  0  0  0  0  0
   12.0296  -16.7166   22.1559 N   0  0  0  0  0  0  0  0  0  0  0  0
   11.5972  -17.5641   21.2039 C   0  0  0  0  0  0  0  0  0  0  0  0
   10.5771  -18.2621   21.7427 N   0  0  0  0  0  0  0  0  0  0  0  0
   10.8041  -17.9848   25.9362 C   0  0  0  0  0  0  0  0  0  0  0  0
   11.0746  -19.1784   26.2249 O   0  0  0  0  0  0  0  0  0  0  0  0
   11.7127  -16.9778   26.2042 O   0  0  0  0  0  0  0  0  0  0  0  0
  2  1  1  6
  2  4  1  0
  3  2  1  0
  4  6  1  0
  4  5  1  6
  6  7  2  0
  9  8  1  0
 10  9  1  0
 11 10  1  0
 12 11  1  1
 12 14  1  0
 13  6  1  0
 13 12  1  0
 14 15  2  0
 16 17  1  0
 16 14  1  0
 17 24  1  0
 17 18  1  6
 19 20  2  0
 19 18  1  0
 21 20  1  0
 22 23  2  0
 22 21  1  0
 23 19  1  0
 24 25  2  0
 24 26  1  0
M  END
$$$$
