TMH.pdb
     RDKit          3D

 26 26  0  0  1  0  0  0  0  0999 V2000
    6.2645  -15.9454   18.8882 C   0  0  0  0  0  0  0  0  0  0  0  0
    7.0159  -15.9307   20.2025 C   0  0  1  0  0  0  0  0  0  0  0  0
    8.2480  -16.5350   20.0151 O   0  0  0  0  0  0  0  0  0  0  0  0
    7.1630  -14.5028   20.6301 C   0  0  2  0  0  0  0  0  0  0  0  0
    7.9132  -13.7895   19.6133 N   0  0  0  0  0  0  0  0  0  0  0  0
    7.8749  -14.3494   21.9253 C   0  0  0  0  0  0  0  0  0  0  0  0
    9.1230  -14.1791   21.9704 O   0  0  0  0  0  0  0  0  0  0  0  0
    7.1415  -11.3921   27.9582 C   0  0  0  0  0  0  0  0  0  0  0  0
    5.7579  -11.8006   26.8596 S   0  0  0  0  0  0  0  0  0  0  0  0
    6.3453  -12.4549   25.2701 C   0  0  0  0  0  0  0  0  0  0  0  0
    6.9381  -13.8030   25.5078 C   0  0  0  0  0  0  0  0  0  0  0  0
    7.9186  -14.2433   24.4653 C   0  0  2  0  0  0  0  0  0  0  0  0
    7.2077  -14.3838   23.1773 N   0  0  0  0  0  0  0  0  0  0  0  0
    8.6235  -15.5027   24.7662 C   0  0  0  0  0  0  0  0  0  0  0  0
    7.9644  -16.5840   24.5433 O   0  0  0  0  0  0  0  0  0  0  0  0
    9.9133  -15.6659   25.2563 N   0  0  0  0  0  0  0  0  0  0  0  0
   10.4688  -17.0137   25.4279 C   0  0  1  0  0  0  0  0  0  0  0  0
   11.8719  -17.1116   24.8755 C   0  0  0  0  0  0  0  0  0  0  0  0
   12.4200  -18.4772   25.0541 C   0  0  0  0  0  0  0  0  0  0  0  0
   11.6370  -19.5585   25.3727 C   0  0  0  0  0  0  0  0  0  0  0  0
   12.4843  -20.6216   25.4505 N   0  0  0  0  0  0  0  0  0  0  0  0
   13.7437  -20.2233   25.1921 C   0  0  0  0  0  0  0  0  0  0  0  0
   13.6875  -18.8982   24.9496 N   0  0  0  0  0  0  0  0  0  0  0  0
   10.4914  -17.3842   26.8719 C   0  0  0  0  0  0  0  0  0  0  0  0
   10.1479  -16.5764   27.7723 O   0  0  0  0  0  0  0  0  0  0  0  0
   10.9071  -18.6612   27.2001 O   0  0  0  0  0  0  0  0  0  0  0  0
  2  1  1  6
  2  4  1  0
  3  2  1  0
  4  6  1  0
  4  5  1  6
  6  7  2  0
  9  8  1  0
 10  9  1  0
 11 10  1  0
 12 11  1  1
 12 14  1  0
 13  6  1  0
 13 12  1  0
 14 15  2  0
 16 17  1  0
 16 14  1  0
 17 24  1  0
 17 18  1  1
 19 20  2  0
 19 18  1  0
 21 20  1  0
 22 23  2  0
 22 21  1  0
 23 19  1  0
 24 25  2  0
 24 26  1  0
M  END
$$$$
