TMH.pdb
     RDKit          3D

 26 26  0  0  1  0  0  0  0  0999 V2000
    9.5890  -17.8702   20.0750 C   0  0  0  0  0  0  0  0  0  0  0  0
    8.1014  -17.7379   20.3234 C   0  0  1  0  0  0  0  0  0  0  0  0
    7.7518  -18.5707   21.3735 O   0  0  0  0  0  0  0  0  0  0  0  0
    7.8159  -16.3024   20.6413 C   0  0  2  0  0  0  0  0  0  0  0  0
    8.2807  -15.4822   19.5383 N   0  0  0  0  0  0  0  0  0  0  0  0
    8.4844  -15.8331   21.8826 C   0  0  0  0  0  0  0  0  0  0  0  0
    9.7147  -15.5594   21.9005 O   0  0  0  0  0  0  0  0  0  0  0  0
    6.9016  -10.6358   27.0163 C   0  0  0  0  0  0  0  0  0  0  0  0
    6.5256  -12.3516   26.5659 S   0  0  0  0  0  0  0  0  0  0  0  0
    7.7730  -13.0270   25.4312 C   0  0  0  0  0  0  0  0  0  0  0  0
    7.4496  -14.4612   25.1781 C   0  0  0  0  0  0  0  0  0  0  0  0
    8.4571  -15.1871   24.3416 C   0  0  2  0  0  0  0  0  0  0  0  0
    7.7933  -15.6645   23.1105 N   0  0  0  0  0  0  0  0  0  0  0  0
    9.1139  -16.3267   25.0075 C   0  0  0  0  0  0  0  0  0  0  0  0
    8.4050  -17.3925   25.1291 O   0  0  0  0  0  0  0  0  0  0  0  0
   10.4053  -16.3931   25.5157 N   0  0  0  0  0  0  0  0  0  0  0  0
   10.9214  -17.6604   26.0469 C   0  0  1  0  0  0  0  0  0  0  0  0
   12.4323  -17.6837   26.0607 C   0  0  0  0  0  0  0  0  0  0  0  0
   12.9793  -17.5307   24.6916 C   0  0  0  0  0  0  0  0  0  0  0  0
   12.3608  -18.0466   23.5802 C   0  0  0  0  0  0  0  0  0  0  0  0
   13.1502  -17.7073   22.5237 N   0  0  0  0  0  0  0  0  0  0  0  0
   14.2171  -17.0092   22.9549 C   0  0  0  0  0  0  0  0  0  0  0  0
   14.0972  -16.9087   24.2941 N   0  0  0  0  0  0  0  0  0  0  0  0
   10.4223  -17.8816   27.4343 C   0  0  0  0  0  0  0  0  0  0  0  0
   10.4307  -19.0183   27.9719 O   0  0  0  0  0  0  0  0  0  0  0  0
    9.9417  -16.7850   28.1255 O   0  0  0  0  0  0  0  0  0  0  0  0
  2  1  1  1
  2  4  1  0
  3  2  1  0
  4  6  1  0
  4  5  1  6
  6  7  2  0
  9  8  1  0
 10  9  1  0
 11 10  1  0
 12 11  1  1
 12 14  1  0
 13  6  1  0
 13 12  1  0
 14 15  2  0
 16 17  1  0
 16 14  1  0
 17 24  1  0
 17 18  1  1
 19 20  2  0
 19 18  1  0
 21 20  1  0
 22 23  2  0
 22 21  1  0
 23 19  1  0
 24 25  2  0
 24 26  1  0
M  END
$$$$
