TMH.pdb
     RDKit          3D

 26 26  0  0  1  0  0  0  0  0999 V2000
    6.6821  -17.0645   19.1223 C   0  0  0  0  0  0  0  0  0  0  0  0
    7.3131  -16.8902   20.4875 C   0  0  1  0  0  0  0  0  0  0  0  0
    8.4126  -17.7278   20.5774 O   0  0  0  0  0  0  0  0  0  0  0  0
    7.7044  -15.4516   20.6309 C   0  0  2  0  0  0  0  0  0  0  0  0
    8.6905  -15.1361   19.6144 N   0  0  0  0  0  0  0  0  0  0  0  0
    8.2889  -15.1330   21.9594 C   0  0  0  0  0  0  0  0  0  0  0  0
    9.5341  -15.1666   22.1520 O   0  0  0  0  0  0  0  0  0  0  0  0
    7.9767  -10.6766   27.1820 C   0  0  0  0  0  0  0  0  0  0  0  0
    6.7382  -12.0008   27.2060 S   0  0  0  0  0  0  0  0  0  0  0  0
    7.4502  -13.5834   26.6689 C   0  0  0  0  0  0  0  0  0  0  0  0
    7.0365  -13.8289   25.2568 C   0  0  0  0  0  0  0  0  0  0  0  0
    8.0764  -14.4975   24.4120 C   0  0  2  0  0  0  0  0  0  0  0  0
    7.4968  -14.7755   23.0812 N   0  0  0  0  0  0  0  0  0  0  0  0
    8.6222  -15.7479   24.9704 C   0  0  0  0  0  0  0  0  0  0  0  0
    7.7909  -16.7217   25.0889 O   0  0  0  0  0  0  0  0  0  0  0  0
    9.9246  -16.0059   25.3800 N   0  0  0  0  0  0  0  0  0  0  0  0
   10.2704  -17.3147   25.9477 C   0  0  1  0  0  0  0  0  0  0  0  0
   11.7118  -17.6765   25.6740 C   0  0  0  0  0  0  0  0  0  0  0  0
   11.9219  -17.9748   24.2374 C   0  0  0  0  0  0  0  0  0  0  0  0
   10.8959  -18.0128   23.3265 C   0  0  0  0  0  0  0  0  0  0  0  0
   11.4715  -18.3135   22.1296 N   0  0  0  0  0  0  0  0  0  0  0  0
   12.8008  -18.4579   22.2843 C   0  0  0  0  0  0  0  0  0  0  0  0
   13.0629  -18.2459   23.5898 N   0  0  0  0  0  0  0  0  0  0  0  0
   10.0436  -17.3158   27.4213 C   0  0  0  0  0  0  0  0  0  0  0  0
    9.6498  -16.2917   28.0354 O   0  0  0  0  0  0  0  0  0  0  0  0
   10.2821  -18.4929   28.1061 O   0  0  0  0  0  0  0  0  0  0  0  0
  2  1  1  6
  2  4  1  0
  3  2  1  0
  4  6  1  0
  4  5  1  6
  6  7  2  0
  9  8  1  0
 10  9  1  0
 11 10  1  0
 12 11  1  1
 12 14  1  0
 13  6  1  0
 13 12  1  0
 14 15  2  0
 16 17  1  0
 16 14  1  0
 17 24  1  0
 17 18  1  1
 19 20  2  0
 19 18  1  0
 21 20  1  0
 22 23  2  0
 22 21  1  0
 23 19  1  0
 24 25  2  0
 24 26  1  0
M  END
$$$$
