TMH.pdb
     RDKit          3D

 26 26  0  0  1  0  0  0  0  0999 V2000
    6.7851  -16.0859   18.4079 C   0  0  0  0  0  0  0  0  0  0  0  0
    7.4247  -15.9810   19.7763 C   0  0  1  0  0  0  0  0  0  0  0  0
    8.7211  -16.4622   19.6973 O   0  0  0  0  0  0  0  0  0  0  0  0
    7.3966  -14.5406   20.1858 C   0  0  2  0  0  0  0  0  0  0  0  0
    8.1293  -13.7649   19.2024 N   0  0  0  0  0  0  0  0  0  0  0  0
    8.0086  -14.2981   21.5179 C   0  0  0  0  0  0  0  0  0  0  0  0
    9.2539  -14.1543   21.6501 O   0  0  0  0  0  0  0  0  0  0  0  0
    6.0709  -10.6028   26.8005 C   0  0  0  0  0  0  0  0  0  0  0  0
    6.0443  -12.3504   27.2832 S   0  0  0  0  0  0  0  0  0  0  0  0
    7.2990  -13.3057   26.3817 C   0  0  0  0  0  0  0  0  0  0  0  0
    6.8238  -13.5005   24.9811 C   0  0  0  0  0  0  0  0  0  0  0  0
    7.8593  -14.0381   24.0427 C   0  0  2  0  0  0  0  0  0  0  0  0
    7.2441  -14.2136   22.7104 N   0  0  0  0  0  0  0  0  0  0  0  0
    8.4764  -15.3105   24.4596 C   0  0  0  0  0  0  0  0  0  0  0  0
    7.8533  -16.3796   24.1101 O   0  0  0  0  0  0  0  0  0  0  0  0
    9.6502  -15.4975   25.1791 N   0  0  0  0  0  0  0  0  0  0  0  0
   10.1805  -16.8513   25.3805 C   0  0  1  0  0  0  0  0  0  0  0  0
   11.5031  -17.0414   24.6746 C   0  0  0  0  0  0  0  0  0  0  0  0
   12.0902  -18.3649   24.9919 C   0  0  0  0  0  0  0  0  0  0  0  0
   11.9841  -18.9498   26.2291 C   0  0  0  0  0  0  0  0  0  0  0  0
   12.6386  -20.1402   26.1354 N   0  0  0  0  0  0  0  0  0  0  0  0
   13.1334  -20.2943   24.8932 C   0  0  0  0  0  0  0  0  0  0  0  0
   12.7868  -19.1909   24.2000 N   0  0  0  0  0  0  0  0  0  0  0  0
   10.3656  -17.1237   26.8345 C   0  0  0  0  0  0  0  0  0  0  0  0
   10.1374  -16.2505   27.7101 O   0  0  0  0  0  0  0  0  0  0  0  0
   10.8024  -18.3833   27.2008 O   0  0  0  0  0  0  0  0  0  0  0  0
  2  1  1  6
  2  4  1  0
  3  2  1  0
  4  6  1  0
  4  5  1  6
  6  7  2  0
  9  8  1  0
 10  9  1  0
 11 10  1  0
 12 11  1  1
 12 14  1  0
 13  6  1  0
 13 12  1  0
 14 15  2  0
 16 17  1  0
 16 14  1  0
 17 24  1  0
 17 18  1  6
 19 20  2  0
 19 18  1  0
 21 20  1  0
 22 23  2  0
 22 21  1  0
 23 19  1  0
 24 25  2  0
 24 26  1  0
M  END
$$$$
