TMH.pdb
     RDKit          3D

 26 26  0  0  1  0  0  0  0  0999 V2000
    7.0653  -14.4040   18.1149 C   0  0  0  0  0  0  0  0  0  0  0  0
    7.6238  -14.7186   19.4866 C   0  0  1  0  0  0  0  0  0  0  0  0
    8.9228  -15.1768   19.3415 O   0  0  0  0  0  0  0  0  0  0  0  0
    7.5713  -13.4631   20.3016 C   0  0  2  0  0  0  0  0  0  0  0  0
    8.3365  -12.4358   19.6199 N   0  0  0  0  0  0  0  0  0  0  0  0
    8.1301  -13.6279   21.6684 C   0  0  0  0  0  0  0  0  0  0  0  0
    9.3482  -13.4103   21.9086 O   0  0  0  0  0  0  0  0  0  0  0  0
    6.7409  -10.2647   27.0554 C   0  0  0  0  0  0  0  0  0  0  0  0
    7.1562  -12.0155   26.8306 S   0  0  0  0  0  0  0  0  0  0  0  0
    6.4559  -12.6693   25.2873 C   0  0  0  0  0  0  0  0  0  0  0  0
    6.8770  -14.0936   25.1473 C   0  0  0  0  0  0  0  0  0  0  0  0
    7.9226  -14.3326   24.1026 C   0  0  2  0  0  0  0  0  0  0  0  0
    7.3423  -14.0348   22.7764 N   0  0  0  0  0  0  0  0  0  0  0  0
    8.4865  -15.6947   24.0866 C   0  0  0  0  0  0  0  0  0  0  0  0
    8.1704  -16.4232   23.0753 O   0  0  0  0  0  0  0  0  0  0  0  0
    9.3209  -16.2869   25.0265 N   0  0  0  0  0  0  0  0  0  0  0  0
   10.2396  -17.3579   24.6219 C   0  0  1  0  0  0  0  0  0  0  0  0
   11.2541  -16.8695   23.6141 C   0  0  0  0  0  0  0  0  0  0  0  0
   12.1629  -17.9648   23.2002 C   0  0  0  0  0  0  0  0  0  0  0  0
   11.8380  -19.2919   23.3308 C   0  0  0  0  0  0  0  0  0  0  0  0
   12.9066  -19.9858   22.8502 N   0  0  0  0  0  0  0  0  0  0  0  0
   13.8597  -19.1302   22.4366 C   0  0  0  0  0  0  0  0  0  0  0  0
   13.3860  -17.8876   22.6592 N   0  0  0  0  0  0  0  0  0  0  0  0
   10.9605  -17.8978   25.8101 C   0  0  0  0  0  0  0  0  0  0  0  0
   11.4148  -17.1476   26.7111 O   0  0  0  0  0  0  0  0  0  0  0  0
   11.1188  -19.2685   25.8961 O   0  0  0  0  0  0  0  0  0  0  0  0
  2  1  1  6
  2  4  1  0
  3  2  1  0
  4  6  1  0
  4  5  1  6
  6  7  2  0
  9  8  1  0
 10  9  1  0
 11 10  1  0
 12 11  1  1
 12 14  1  0
 13  6  1  0
 13 12  1  0
 14 15  2  0
 16 17  1  0
 16 14  1  0
 17 24  1  0
 17 18  1  6
 19 20  2  0
 19 18  1  0
 21 20  1  0
 22 23  2  0
 22 21  1  0
 23 19  1  0
 24 25  2  0
 24 26  1  0
M  END
$$$$
