TMH.pdb
     RDKit          3D

 26 26  0  0  1  0  0  0  0  0999 V2000
    6.5670  -17.6834   21.0044 C   0  0  0  0  0  0  0  0  0  0  0  0
    7.5439  -17.1670   19.9694 C   0  0  1  0  0  0  0  0  0  0  0  0
    7.1103  -17.5628   18.7148 O   0  0  0  0  0  0  0  0  0  0  0  0
    7.5921  -15.6748   20.0892 C   0  0  2  0  0  0  0  0  0  0  0  0
    8.3914  -15.1479   18.9988 N   0  0  0  0  0  0  0  0  0  0  0  0
    8.1874  -15.2087   21.3684 C   0  0  0  0  0  0  0  0  0  0  0  0
    9.4167  -15.3497   21.6084 O   0  0  0  0  0  0  0  0  0  0  0  0
    6.7702  -11.0680   27.9524 C   0  0  0  0  0  0  0  0  0  0  0  0
    6.0878  -12.0664   26.6013 S   0  0  0  0  0  0  0  0  0  0  0  0
    7.3458  -13.1675   25.8908 C   0  0  0  0  0  0  0  0  0  0  0  0
    6.9960  -13.4199   24.4628 C   0  0  0  0  0  0  0  0  0  0  0  0
    7.9732  -14.2833   23.7269 C   0  0  2  0  0  0  0  0  0  0  0  0
    7.4237  -14.5837   22.3882 N   0  0  0  0  0  0  0  0  0  0  0  0
    8.3171  -15.5484   24.4013 C   0  0  0  0  0  0  0  0  0  0  0  0
    7.3379  -16.3510   24.6258 O   0  0  0  0  0  0  0  0  0  0  0  0
    9.5686  -15.9826   24.8202 N   0  0  0  0  0  0  0  0  0  0  0  0
    9.6888  -17.1911   25.6447 C   0  0  1  0  0  0  0  0  0  0  0  0
    9.7460  -18.4401   24.7960 C   0  0  0  0  0  0  0  0  0  0  0  0
   10.8587  -18.3692   23.8193 C   0  0  0  0  0  0  0  0  0  0  0  0
   11.3112  -17.1864   23.2899 C   0  0  0  0  0  0  0  0  0  0  0  0
   12.3256  -17.5206   22.4452 N   0  0  0  0  0  0  0  0  0  0  0  0
   12.5008  -18.8551   22.4453 C   0  0  0  0  0  0  0  0  0  0  0  0
   11.5885  -19.3642   23.2976 N   0  0  0  0  0  0  0  0  0  0  0  0
   10.9170  -17.1229   26.4871 C   0  0  0  0  0  0  0  0  0  0  0  0
   11.6970  -16.1374   26.4489 O   0  0  0  0  0  0  0  0  0  0  0  0
   11.1800  -18.1904   27.3253 O   0  0  0  0  0  0  0  0  0  0  0  0
  2  1  1  1
  2  4  1  0
  3  2  1  0
  4  6  1  0
  4  5  1  6
  6  7  2  0
  9  8  1  0
 10  9  1  0
 11 10  1  0
 12 11  1  1
 12 14  1  0
 13  6  1  0
 13 12  1  0
 14 15  2  0
 16 17  1  0
 16 14  1  0
 17 24  1  0
 17 18  1  6
 19 20  2  0
 19 18  1  0
 21 20  1  0
 22 23  2  0
 22 21  1  0
 23 19  1  0
 24 25  2  0
 24 26  1  0
M  END
$$$$
