TMH.pdb
     RDKit          3D

 26 26  0  0  1  0  0  0  0  0999 V2000
    7.0480  -15.1533   18.0968 C   0  0  0  0  0  0  0  0  0  0  0  0
    7.6719  -15.1497   19.4763 C   0  0  1  0  0  0  0  0  0  0  0  0
    9.0010  -15.5226   19.3623 O   0  0  0  0  0  0  0  0  0  0  0  0
    7.5345  -13.7679   20.0375 C   0  0  2  0  0  0  0  0  0  0  0  0
    8.2231  -12.8405   19.1593 N   0  0  0  0  0  0  0  0  0  0  0  0
    8.1089  -13.6294   21.4009 C   0  0  0  0  0  0  0  0  0  0  0  0
    9.3037  -13.2674   21.5745 O   0  0  0  0  0  0  0  0  0  0  0  0
    6.2217  -10.8084   27.4333 C   0  0  0  0  0  0  0  0  0  0  0  0
    5.9572  -12.5970   27.2949 S   0  0  0  0  0  0  0  0  0  0  0  0
    7.2695  -13.3869   26.3184 C   0  0  0  0  0  0  0  0  0  0  0  0
    6.8970  -13.3021   24.8763 C   0  0  0  0  0  0  0  0  0  0  0  0
    7.9482  -13.7988   23.9327 C   0  0  2  0  0  0  0  0  0  0  0  0
    7.3624  -13.8913   22.5790 N   0  0  0  0  0  0  0  0  0  0  0  0
    8.5413  -15.1001   24.2908 C   0  0  0  0  0  0  0  0  0  0  0  0
    7.7729  -16.1232   24.1634 O   0  0  0  0  0  0  0  0  0  0  0  0
    9.8289  -15.3584   24.7443 N   0  0  0  0  0  0  0  0  0  0  0  0
   10.1911  -16.7063   25.1989 C   0  0  1  0  0  0  0  0  0  0  0  0
   11.5825  -17.0894   24.7508 C   0  0  0  0  0  0  0  0  0  0  0  0
   11.6299  -17.3010   23.2845 C   0  0  0  0  0  0  0  0  0  0  0  0
   10.5127  -17.2544   22.4885 C   0  0  0  0  0  0  0  0  0  0  0  0
   10.9488  -17.4930   21.2207 N   0  0  0  0  0  0  0  0  0  0  0  0
   12.2815  -17.6812   21.2227 C   0  0  0  0  0  0  0  0  0  0  0  0
   12.6867  -17.5596   22.5029 N   0  0  0  0  0  0  0  0  0  0  0  0
   10.1234  -16.7865   26.6861 C   0  0  0  0  0  0  0  0  0  0  0  0
    9.7866  -15.8017   27.3916 O   0  0  0  0  0  0  0  0  0  0  0  0
   10.4463  -17.9931   27.2788 O   0  0  0  0  0  0  0  0  0  0  0  0
  2  1  1  6
  2  4  1  0
  3  2  1  0
  4  6  1  0
  4  5  1  6
  6  7  2  0
  9  8  1  0
 10  9  1  0
 11 10  1  0
 12 11  1  1
 12 14  1  0
 13  6  1  0
 13 12  1  0
 14 15  2  0
 16 17  1  0
 16 14  1  0
 17 24  1  0
 17 18  1  1
 19 20  2  0
 19 18  1  0
 21 20  1  0
 22 23  2  0
 22 21  1  0
 23 19  1  0
 24 25  2  0
 24 26  1  0
M  END
$$$$
