TMH.pdb
     RDKit          3D

 26 26  0  0  1  0  0  0  0  0999 V2000
    7.0689  -17.0438   18.9743 C   0  0  0  0  0  0  0  0  0  0  0  0
    7.5708  -16.8778   20.3930 C   0  0  1  0  0  0  0  0  0  0  0  0
    8.4122  -17.9367   20.6919 O   0  0  0  0  0  0  0  0  0  0  0  0
    8.2881  -15.5655   20.4745 C   0  0  2  0  0  0  0  0  0  0  0  0
    9.4080  -15.5915   19.5523 N   0  0  0  0  0  0  0  0  0  0  0  0
    8.8121  -15.2675   21.8327 C   0  0  0  0  0  0  0  0  0  0  0  0
    9.9705  -15.6227   22.1802 O   0  0  0  0  0  0  0  0  0  0  0  0
    5.3131  -12.0293   26.6974 C   0  0  0  0  0  0  0  0  0  0  0  0
    7.0728  -11.6120   26.8297 S   0  0  0  0  0  0  0  0  0  0  0  0
    8.1221  -12.9717   26.2382 C   0  0  0  0  0  0  0  0  0  0  0  0
    7.7334  -13.2871   24.8329 C   0  0  0  0  0  0  0  0  0  0  0  0
    8.5257  -14.3898   24.2017 C   0  0  2  0  0  0  0  0  0  0  0  0
    8.0554  -14.5743   22.8128 N   0  0  0  0  0  0  0  0  0  0  0  0
    8.4638  -15.6830   24.9068 C   0  0  0  0  0  0  0  0  0  0  0  0
    7.7538  -16.5967   24.3461 O   0  0  0  0  0  0  0  0  0  0  0  0
    9.0815  -16.0382   26.0996 N   0  0  0  0  0  0  0  0  0  0  0  0
    9.6453  -17.3836   26.2627 C   0  0  1  0  0  0  0  0  0  0  0  0
   10.7006  -17.6746   25.2210 C   0  0  0  0  0  0  0  0  0  0  0  0
   11.3344  -18.9931   25.4595 C   0  0  0  0  0  0  0  0  0  0  0  0
   11.2657  -19.6456   26.6650 C   0  0  0  0  0  0  0  0  0  0  0  0
   11.9564  -20.8074   26.4993 N   0  0  0  0  0  0  0  0  0  0  0  0
   12.4372  -20.8793   25.2442 C   0  0  0  0  0  0  0  0  0  0  0  0
   12.0451  -19.7529   24.6155 N   0  0  0  0  0  0  0  0  0  0  0  0
   10.2504  -17.5305   27.6173 C   0  0  0  0  0  0  0  0  0  0  0  0
    9.9078  -18.4499   28.4038 O   0  0  0  0  0  0  0  0  0  0  0  0
   11.2145  -16.6133   27.9921 O   0  0  0  0  0  0  0  0  0  0  0  0
  2  1  1  6
  2  4  1  0
  3  2  1  0
  4  6  1  0
  4  5  1  6
  6  7  2  0
  9  8  1  0
 10  9  1  0
 11 10  1  0
 12 11  1  1
 12 14  1  0
 13  6  1  0
 13 12  1  0
 14 15  2  0
 16 17  1  0
 16 14  1  0
 17 24  1  0
 17 18  1  6
 19 20  2  0
 19 18  1  0
 21 20  1  0
 22 23  2  0
 22 21  1  0
 23 19  1  0
 24 25  2  0
 24 26  1  0
M  END
$$$$
