TMH.pdb
     RDKit          3D

 26 26  0  0  1  0  0  0  0  0999 V2000
    7.2812  -14.5007   18.2634 C   0  0  0  0  0  0  0  0  0  0  0  0
    7.7814  -14.7790   19.6651 C   0  0  1  0  0  0  0  0  0  0  0  0
    9.0826  -15.2473   19.5863 O   0  0  0  0  0  0  0  0  0  0  0  0
    7.7030  -13.5007   20.4416 C   0  0  2  0  0  0  0  0  0  0  0  0
    8.5055  -12.4982   19.7661 N   0  0  0  0  0  0  0  0  0  0  0  0
    8.1999  -13.6307   21.8359 C   0  0  0  0  0  0  0  0  0  0  0  0
    9.3998  -13.3802   22.1295 O   0  0  0  0  0  0  0  0  0  0  0  0
    6.6735  -10.3223   27.6155 C   0  0  0  0  0  0  0  0  0  0  0  0
    6.6347  -12.0997   27.2582 S   0  0  0  0  0  0  0  0  0  0  0  0
    6.8588  -12.4238   25.4850 C   0  0  0  0  0  0  0  0  0  0  0  0
    6.9077  -13.9007   25.2804 C   0  0  0  0  0  0  0  0  0  0  0  0
    7.9006  -14.3534   24.2551 C   0  0  2  0  0  0  0  0  0  0  0  0
    7.3699  -14.0388   22.9122 N   0  0  0  0  0  0  0  0  0  0  0  0
    8.2461  -15.7855   24.3132 C   0  0  0  0  0  0  0  0  0  0  0  0
    7.3487  -16.5991   23.8819 O   0  0  0  0  0  0  0  0  0  0  0  0
    9.4230  -16.3644   24.7717 N   0  0  0  0  0  0  0  0  0  0  0  0
    9.5296  -17.8243   24.8806 C   0  0  1  0  0  0  0  0  0  0  0  0
    9.3760  -18.4952   23.5353 C   0  0  0  0  0  0  0  0  0  0  0  0
   10.3227  -17.9272   22.5463 C   0  0  0  0  0  0  0  0  0  0  0  0
   11.1687  -16.8863   22.8373 C   0  0  0  0  0  0  0  0  0  0  0  0
   11.8724  -16.6483   21.6961 N   0  0  0  0  0  0  0  0  0  0  0  0
   11.4837  -17.5031   20.7318 C   0  0  0  0  0  0  0  0  0  0  0  0
   10.5274  -18.2853   21.2717 N   0  0  0  0  0  0  0  0  0  0  0  0
   10.8484  -18.2050   25.4624 C   0  0  0  0  0  0  0  0  0  0  0  0
   11.1885  -19.4062   25.6124 O   0  0  0  0  0  0  0  0  0  0  0  0
   11.7019  -17.1847   25.8392 O   0  0  0  0  0  0  0  0  0  0  0  0
  2  1  1  6
  2  4  1  0
  3  2  1  0
  4  6  1  0
  4  5  1  6
  6  7  2  0
  9  8  1  0
 10  9  1  0
 11 10  1  0
 12 11  1  1
 12 14  1  0
 13  6  1  0
 13 12  1  0
 14 15  2  0
 16 17  1  0
 16 14  1  0
 17 24  1  0
 17 18  1  6
 19 20  2  0
 19 18  1  0
 21 20  1  0
 22 23  2  0
 22 21  1  0
 23 19  1  0
 24 25  2  0
 24 26  1  0
M  END
$$$$
