TMH.pdb
     RDKit          3D

 26 26  0  0  1  0  0  0  0  0999 V2000
    6.6699  -16.7996   19.2650 C   0  0  0  0  0  0  0  0  0  0  0  0
    7.4820  -16.5992   20.5271 C   0  0  1  0  0  0  0  0  0  0  0  0
    8.8129  -16.8572   20.2430 O   0  0  0  0  0  0  0  0  0  0  0  0
    7.2805  -15.1865   20.9819 C   0  0  2  0  0  0  0  0  0  0  0  0
    7.7636  -14.2928   19.9459 N   0  0  0  0  0  0  0  0  0  0  0  0
    8.0005  -14.8684   22.2422 C   0  0  0  0  0  0  0  0  0  0  0  0
    9.1772  -14.4168   22.2280 O   0  0  0  0  0  0  0  0  0  0  0  0
    6.3559  -10.2934   26.9125 C   0  0  0  0  0  0  0  0  0  0  0  0
    6.8363  -12.0268   27.1413 S   0  0  0  0  0  0  0  0  0  0  0  0
    6.6557  -12.9730   25.6012 C   0  0  0  0  0  0  0  0  0  0  0  0
    7.2003  -14.3435   25.8258 C   0  0  0  0  0  0  0  0  0  0  0  0
    8.1645  -14.8083   24.7787 C   0  0  2  0  0  0  0  0  0  0  0  0
    7.4205  -15.0490   23.5247 N   0  0  0  0  0  0  0  0  0  0  0  0
    8.9253  -16.0218   25.1280 C   0  0  0  0  0  0  0  0  0  0  0  0
    8.2632  -17.1240   25.1170 O   0  0  0  0  0  0  0  0  0  0  0  0
   10.2700  -16.1226   25.4628 N   0  0  0  0  0  0  0  0  0  0  0  0
   10.8267  -17.4130   25.8865 C   0  0  1  0  0  0  0  0  0  0  0  0
   12.2681  -17.5644   25.4588 C   0  0  0  0  0  0  0  0  0  0  0  0
   12.4014  -17.4482   23.9871 C   0  0  0  0  0  0  0  0  0  0  0  0
   11.4023  -17.8087   23.1178 C   0  0  0  0  0  0  0  0  0  0  0  0
   11.8879  -17.5619   21.8697 N   0  0  0  0  0  0  0  0  0  0  0  0
   13.1373  -17.0684   21.9538 C   0  0  0  0  0  0  0  0  0  0  0  0
   13.4396  -17.0043   23.2662 N   0  0  0  0  0  0  0  0  0  0  0  0
   10.7459  -17.5499   27.3690 C   0  0  0  0  0  0  0  0  0  0  0  0
   11.1839  -18.5643   27.9691 O   0  0  0  0  0  0  0  0  0  0  0  0
   10.1666  -16.5141   28.0782 O   0  0  0  0  0  0  0  0  0  0  0  0
  2  1  1  6
  2  4  1  0
  3  2  1  0
  4  6  1  0
  4  5  1  6
  6  7  2  0
  9  8  1  0
 10  9  1  0
 11 10  1  0
 12 11  1  1
 12 14  1  0
 13  6  1  0
 13 12  1  0
 14 15  2  0
 16 17  1  0
 16 14  1  0
 17 24  1  0
 17 18  1  1
 19 20  2  0
 19 18  1  0
 21 20  1  0
 22 23  2  0
 22 21  1  0
 23 19  1  0
 24 25  2  0
 24 26  1  0
M  END
$$$$
