TMH.pdb
     RDKit          3D

 26 26  0  0  1  0  0  0  0  0999 V2000
    7.9848  -16.0629   18.5991 C   0  0  0  0  0  0  0  0  0  0  0  0
    8.2768  -15.2620   19.8504 C   0  0  1  0  0  0  0  0  0  0  0  0
    7.1776  -14.4689   20.1353 O   0  0  0  0  0  0  0  0  0  0  0  0
    8.5588  -16.2298   20.9582 C   0  0  2  0  0  0  0  0  0  0  0  0
    7.3741  -17.0376   21.1805 N   0  0  0  0  0  0  0  0  0  0  0  0
    8.9153  -15.5665   22.2392 C   0  0  0  0  0  0  0  0  0  0  0  0
    9.9947  -14.9285   22.3681 O   0  0  0  0  0  0  0  0  0  0  0  0
    6.9264  -10.6735   26.7945 C   0  0  0  0  0  0  0  0  0  0  0  0
    6.1730  -12.3225   26.7633 S   0  0  0  0  0  0  0  0  0  0  0  0
    7.4247  -13.6182   26.5303 C   0  0  0  0  0  0  0  0  0  0  0  0
    7.2564  -14.1929   25.1640 C   0  0  0  0  0  0  0  0  0  0  0  0
    8.4406  -14.9596   24.6622 C   0  0  2  0  0  0  0  0  0  0  0  0
    8.0776  -15.6065   23.3839 N   0  0  0  0  0  0  0  0  0  0  0  0
    8.9585  -15.9821   25.5894 C   0  0  0  0  0  0  0  0  0  0  0  0
    9.1398  -15.6007   26.8039 O   0  0  0  0  0  0  0  0  0  0  0  0
    9.2704  -17.3078   25.3145 N   0  0  0  0  0  0  0  0  0  0  0  0
   10.5374  -17.8778   25.7882 C   0  0  1  0  0  0  0  0  0  0  0  0
   11.7261  -17.1169   25.2481 C   0  0  0  0  0  0  0  0  0  0  0  0
   12.0996  -17.6019   23.8982 C   0  0  0  0  0  0  0  0  0  0  0  0
   11.3713  -18.5454   23.2175 C   0  0  0  0  0  0  0  0  0  0  0  0
   12.0160  -18.7297   22.0324 N   0  0  0  0  0  0  0  0  0  0  0  0
   13.1014  -17.9360   21.9733 C   0  0  0  0  0  0  0  0  0  0  0  0
   13.1392  -17.2467   23.1315 N   0  0  0  0  0  0  0  0  0  0  0  0
   10.5885  -17.8591   27.2781 C   0  0  0  0  0  0  0  0  0  0  0  0
   11.5876  -18.2789   27.9157 O   0  0  0  0  0  0  0  0  0  0  0  0
    9.4892  -17.3595   27.9514 O   0  0  0  0  0  0  0  0  0  0  0  0
  2  1  1  6
  2  4  1  0
  3  2  1  0
  4  6  1  0
  4  5  1  1
  6  7  2  0
  9  8  1  0
 10  9  1  0
 11 10  1  0
 12 11  1  1
 12 14  1  0
 13  6  1  0
 13 12  1  0
 14 15  2  0
 16 17  1  0
 16 14  1  0
 17 24  1  0
 17 18  1  6
 19 20  2  0
 19 18  1  0
 21 20  1  0
 22 23  2  0
 22 21  1  0
 23 19  1  0
 24 25  2  0
 24 26  1  0
M  END
$$$$
