TMH.pdb
     RDKit          3D

 26 26  0  0  1  0  0  0  0  0999 V2000
    7.5885  -17.1342   19.0535 C   0  0  0  0  0  0  0  0  0  0  0  0
    8.0834  -16.9820   20.4763 C   0  0  1  0  0  0  0  0  0  0  0  0
    9.0875  -17.9102   20.6976 O   0  0  0  0  0  0  0  0  0  0  0  0
    8.5847  -15.5801   20.6394 C   0  0  2  0  0  0  0  0  0  0  0  0
    9.6732  -15.3654   19.7042 N   0  0  0  0  0  0  0  0  0  0  0  0
    9.0855  -15.2924   22.0084 C   0  0  0  0  0  0  0  0  0  0  0  0
   10.3199  -15.2633   22.2615 O   0  0  0  0  0  0  0  0  0  0  0  0
    5.6200  -12.2564   27.1368 C   0  0  0  0  0  0  0  0  0  0  0  0
    7.2285  -11.7403   26.4777 S   0  0  0  0  0  0  0  0  0  0  0  0
    7.6387  -12.6387   24.9532 C   0  0  0  0  0  0  0  0  0  0  0  0
    7.6919  -14.0961   25.2672 C   0  0  0  0  0  0  0  0  0  0  0  0
    8.7139  -14.8631   24.4868 C   0  0  2  0  0  0  0  0  0  0  0  0
    8.2211  -15.0354   23.1042 N   0  0  0  0  0  0  0  0  0  0  0  0
    9.0594  -16.1839   25.0431 C   0  0  0  0  0  0  0  0  0  0  0  0
    8.9856  -17.1752   24.2275 O   0  0  0  0  0  0  0  0  0  0  0  0
    9.4592  -16.4895   26.3381 N   0  0  0  0  0  0  0  0  0  0  0  0
   10.3138  -17.6567   26.5869 C   0  0  1  0  0  0  0  0  0  0  0  0
   11.6363  -17.5420   25.8649 C   0  0  0  0  0  0  0  0  0  0  0  0
   11.5607  -18.1516   24.5159 C   0  0  0  0  0  0  0  0  0  0  0  0
   10.4278  -18.7595   24.0355 C   0  0  0  0  0  0  0  0  0  0  0  0
   10.7398  -19.1909   22.7821 N   0  0  0  0  0  0  0  0  0  0  0  0
   12.0132  -18.8672   22.4902 C   0  0  0  0  0  0  0  0  0  0  0  0
   12.5059  -18.2267   23.5695 N   0  0  0  0  0  0  0  0  0  0  0  0
   10.5725  -17.8069   28.0475 C   0  0  0  0  0  0  0  0  0  0  0  0
   11.2380  -18.7680   28.5108 O   0  0  0  0  0  0  0  0  0  0  0  0
   10.0520  -16.8452   28.8934 O   0  0  0  0  0  0  0  0  0  0  0  0
  2  1  1  6
  2  4  1  0
  3  2  1  0
  4  6  1  0
  4  5  1  6
  6  7  2  0
  9  8  1  0
 10  9  1  0
 11 10  1  0
 12 11  1  1
 12 14  1  0
 13  6  1  0
 13 12  1  0
 14 15  2  0
 16 17  1  0
 16 14  1  0
 17 24  1  0
 17 18  1  6
 19 20  2  0
 19 18  1  0
 21 20  1  0
 22 23  2  0
 22 21  1  0
 23 19  1  0
 24 25  2  0
 24 26  1  0
M  END
$$$$
