NHC.pdb
     RDKit          3D

 25 25  0  0  1  0  0  0  0  0999 V2000
   27.0512  -28.5708  -18.2678 N   0  0  0  0  0  0  0  0  0  0  0  0
   27.1583  -28.8225  -16.8767 C   0  0  0  0  0  0  0  0  0  0  0  0
   27.7309  -29.8357  -16.4406 O   0  0  0  0  0  0  0  0  0  0  0  0
   26.5754  -27.8582  -15.9254 C   0  0  0  0  0  0  0  0  0  0  0  0
   25.9930  -26.6653  -16.6343 C   0  0  2  0  0  0  0  0  0  0  0  0
   26.9176  -25.5948  -16.8458 N   0  0  0  0  0  0  0  0  0  0  0  0
   24.8371  -26.1665  -15.8735 C   0  0  0  0  0  0  0  0  0  0  0  0
   25.0270  -25.3526  -14.9540 O   0  0  0  0  0  0  0  0  0  0  0  0
   23.5341  -26.5872  -16.1612 N   0  0  0  0  0  0  0  0  0  0  0  0
   22.3722  -26.0173  -15.4463 C   0  0  1  0  0  0  0  0  0  0  0  0
   21.5600  -25.1925  -16.3894 C   0  0  0  0  0  0  0  0  0  0  0  0
   22.0263  -23.8253  -16.5948 C   0  0  0  0  0  0  0  0  0  0  0  0
   22.6525  -22.9328  -15.7755 C   0  0  0  0  0  0  0  0  0  0  0  0
   22.9177  -21.8125  -16.5055 N   0  0  0  0  0  0  0  0  0  0  0  0
   22.4734  -22.0032  -17.7336 C   0  0  0  0  0  0  0  0  0  0  0  0
   21.9278  -23.2203  -17.8109 N   0  0  0  0  0  0  0  0  0  0  0  0
   21.5788  -27.2392  -15.0299 C   0  0  0  0  0  0  0  0  0  0  0  0
   21.5132  -28.2666  -15.7190 O   0  0  0  0  0  0  0  0  0  0  0  0
   20.8683  -27.2365  -13.8015 N   0  0  0  0  0  0  0  0  0  0  0  0
   20.1358  -28.4356  -13.4094 C   0  0  1  0  0  0  0  0  0  0  0  0
   20.3637  -28.6573  -11.9321 C   0  0  0  0  0  0  0  0  0  0  0  0
   22.1076  -28.8022  -11.5392 S   0  0  0  0  0  0  0  0  0  0  0  0
   18.6816  -28.2847  -13.6803 C   0  0  0  0  0  0  0  0  0  0  0  0
   17.8511  -29.2167  -13.5009 O   0  0  0  0  0  0  0  0  0  0  0  0
   18.2109  -27.0867  -14.1451 O   0  0  0  0  0  0  0  0  0  0  0  0
  1  2  1  0
  2  3  2  0
  4  2  1  0
  5  4  1  0
  5  6  1  1
  7  9  1  0
  7  5  1  0
  8  7  2  0
 10  9  1  0
 11 12  1  0
 10 11  1  6
 12 16  1  0
 12 13  2  0
 13 14  1  0
 15 14  1  0
 16 15  2  0
 17 19  1  0
 17 10  1  0
 18 17  2  0
 20 19  1  0
 20 23  1  0
 20 21  1  1
 21 22  1  0
 23 25  1  0
 24 23  2  0
M  END
$$$$
