NHC.pdb
     RDKit          3D

 25 25  0  0  1  0  0  0  0  0999 V2000
   34.3764  -32.0331  -18.8697 N   0  0  0  0  0  0  0  0  0  0  0  0
   34.2729  -32.3729  -17.4972 C   0  0  0  0  0  0  0  0  0  0  0  0
   35.1895  -32.9651  -16.9023 O   0  0  0  0  0  0  0  0  0  0  0  0
   33.0476  -32.0149  -16.7590 C   0  0  0  0  0  0  0  0  0  0  0  0
   32.0639  -31.2908  -17.6382 C   0  0  2  0  0  0  0  0  0  0  0  0
   31.9691  -29.8862  -17.3858 N   0  0  0  0  0  0  0  0  0  0  0  0
   30.7354  -31.9034  -17.4855 C   0  0  0  0  0  0  0  0  0  0  0  0
   30.1649  -32.3627  -18.4892 O   0  0  0  0  0  0  0  0  0  0  0  0
   30.1027  -31.9795  -16.2398 N   0  0  0  0  0  0  0  0  0  0  0  0
   28.7886  -32.6400  -16.0899 C   0  0  1  0  0  0  0  0  0  0  0  0
   28.4949  -32.8465  -14.6406 C   0  0  0  0  0  0  0  0  0  0  0  0
   27.1858  -33.4141  -14.3364 C   0  0  0  0  0  0  0  0  0  0  0  0
   26.2002  -33.9313  -15.1247 C   0  0  0  0  0  0  0  0  0  0  0  0
   25.2065  -34.3814  -14.3074 N   0  0  0  0  0  0  0  0  0  0  0  0
   25.5627  -34.1532  -13.0571 C   0  0  0  0  0  0  0  0  0  0  0  0
   26.7627  -33.5660  -13.0508 N   0  0  0  0  0  0  0  0  0  0  0  0
   27.8169  -31.6292  -16.6644 C   0  0  0  0  0  0  0  0  0  0  0  0
   27.9366  -30.4079  -16.4943 O   0  0  0  0  0  0  0  0  0  0  0  0
   26.7103  -32.0706  -17.4355 N   0  0  0  0  0  0  0  0  0  0  0  0
   25.7793  -31.0789  -17.9625 C   0  0  1  0  0  0  0  0  0  0  0  0
   26.5176  -30.2444  -18.9833 C   0  0  0  0  0  0  0  0  0  0  0  0
   25.4793  -28.9517  -19.6668 S   0  0  0  0  0  0  0  0  0  0  0  0
   24.6054  -31.7341  -18.5977 C   0  0  0  0  0  0  0  0  0  0  0  0
   23.6089  -31.0895  -19.0245 O   0  0  0  0  0  0  0  0  0  0  0  0
   24.5934  -33.0961  -18.7312 O   0  0  0  0  0  0  0  0  0  0  0  0
  1  2  1  0
  2  3  2  0
  4  2  1  0
  5  4  1  0
  5  6  1  1
  7  9  1  0
  7  5  1  0
  8  7  2  0
 10  9  1  0
 11 12  1  0
 10 11  1  1
 12 16  1  0
 12 13  2  0
 13 14  1  0
 15 14  1  0
 16 15  2  0
 17 19  1  0
 17 10  1  0
 18 17  2  0
 20 19  1  0
 20 23  1  0
 20 21  1  6
 21 22  1  0
 23 25  1  0
 24 23  2  0
M  END
$$$$
