NHC.pdb
     RDKit          3D

 25 25  0  0  1  0  0  0  0  0999 V2000
   25.3630  -18.2490  -18.2225 N   0  0  0  0  0  0  0  0  0  0  0  0
   24.2664  -19.1452  -18.1591 C   0  0  0  0  0  0  0  0  0  0  0  0
   24.4127  -20.3666  -18.3363 O   0  0  0  0  0  0  0  0  0  0  0  0
   22.9200  -18.6140  -17.8763 C   0  0  0  0  0  0  0  0  0  0  0  0
   22.9242  -17.1113  -17.7957 C   0  0  2  0  0  0  0  0  0  0  0  0
   23.9649  -16.5667  -16.9797 N   0  0  0  0  0  0  0  0  0  0  0  0
   21.6207  -16.6495  -17.2942 C   0  0  0  0  0  0  0  0  0  0  0  0
   20.5842  -17.0642  -17.8396 O   0  0  0  0  0  0  0  0  0  0  0  0
   21.5233  -15.7570  -16.2211 N   0  0  0  0  0  0  0  0  0  0  0  0
   20.2072  -15.3157  -15.7120 C   0  0  1  0  0  0  0  0  0  0  0  0
   20.1393  -15.5430  -14.2378 C   0  0  0  0  0  0  0  0  0  0  0  0
   19.6997  -16.8711  -13.8235 C   0  0  0  0  0  0  0  0  0  0  0  0
   19.3817  -17.9966  -14.5249 C   0  0  0  0  0  0  0  0  0  0  0  0
   19.0933  -18.9799  -13.6259 N   0  0  0  0  0  0  0  0  0  0  0  0
   19.2286  -18.4832  -12.4106 C   0  0  0  0  0  0  0  0  0  0  0  0
   19.5970  -17.2025  -12.5066 N   0  0  0  0  0  0  0  0  0  0  0  0
   20.1990  -13.8274  -15.9958 C   0  0  0  0  0  0  0  0  0  0  0  0
   21.2073  -13.1156  -15.8881 O   0  0  0  0  0  0  0  0  0  0  0  0
   18.9978  -13.1916  -16.4044 N   0  0  0  0  0  0  0  0  0  0  0  0
   19.0143  -11.7563  -16.6644 C   0  0  1  0  0  0  0  0  0  0  0  0
   17.8933  -11.4457  -17.6290 C   0  0  0  0  0  0  0  0  0  0  0  0
   17.7218   -9.6825  -17.9088 S   0  0  0  0  0  0  0  0  0  0  0  0
   18.8290  -10.9844  -15.4072 C   0  0  0  0  0  0  0  0  0  0  0  0
   18.0486  -11.3513  -14.4869 O   0  0  0  0  0  0  0  0  0  0  0  0
   19.5304   -9.8230  -15.2285 O   0  0  0  0  0  0  0  0  0  0  0  0
  1  2  1  0
  2  3  2  0
  4  2  1  0
  5  4  1  0
  5  6  1  1
  7  9  1  0
  7  5  1  0
  8  7  2  0
 10  9  1  0
 11 12  1  0
 10 11  1  1
 12 16  1  0
 12 13  2  0
 13 14  1  0
 15 14  1  0
 16 15  2  0
 17 19  1  0
 17 10  1  0
 18 17  2  0
 20 19  1  0
 20 23  1  0
 20 21  1  6
 21 22  1  0
 23 25  1  0
 24 23  2  0
M  END
$$$$
