NHC.pdb
     RDKit          3D

 25 25  0  0  1  0  0  0  0  0999 V2000
   24.3762  -31.8782  -12.5356 N   0  0  0  0  0  0  0  0  0  0  0  0
   23.7426  -33.1452  -12.5908 C   0  0  0  0  0  0  0  0  0  0  0  0
   23.2365  -33.5748  -13.6416 O   0  0  0  0  0  0  0  0  0  0  0  0
   23.6829  -33.9723  -11.3714 C   0  0  0  0  0  0  0  0  0  0  0  0
   24.3686  -33.2995  -10.2129 C   0  0  2  0  0  0  0  0  0  0  0  0
   25.7106  -32.8841  -10.4815 N   0  0  0  0  0  0  0  0  0  0  0  0
   24.3625  -34.2054   -9.0540 C   0  0  0  0  0  0  0  0  0  0  0  0
   23.2732  -34.5727   -8.5824 O   0  0  0  0  0  0  0  0  0  0  0  0
   25.5515  -34.6601   -8.4735 N   0  0  0  0  0  0  0  0  0  0  0  0
   25.5350  -35.6427   -7.3690 C   0  0  1  0  0  0  0  0  0  0  0  0
   26.8893  -36.2544   -7.2233 C   0  0  0  0  0  0  0  0  0  0  0  0
   27.1096  -37.4862   -7.9735 C   0  0  0  0  0  0  0  0  0  0  0  0
   26.2901  -38.2502   -8.7511 C   0  0  0  0  0  0  0  0  0  0  0  0
   27.0357  -39.2680   -9.2673 N   0  0  0  0  0  0  0  0  0  0  0  0
   28.2734  -39.1397   -8.8271 C   0  0  0  0  0  0  0  0  0  0  0  0
   28.3415  -38.0631   -8.0390 N   0  0  0  0  0  0  0  0  0  0  0  0
   25.2267  -34.7986   -6.1490 C   0  0  0  0  0  0  0  0  0  0  0  0
   25.4701  -33.5853   -6.0905 O   0  0  0  0  0  0  0  0  0  0  0  0
   24.6334  -35.3962   -5.0067 N   0  0  0  0  0  0  0  0  0  0  0  0
   24.2413  -34.5436   -3.8899 C   0  0  1  0  0  0  0  0  0  0  0  0
   23.1831  -33.5855   -4.3856 C   0  0  0  0  0  0  0  0  0  0  0  0
   22.4183  -32.6798   -3.0397 S   0  0  0  0  0  0  0  0  0  0  0  0
   23.7042  -35.3528   -2.7641 C   0  0  0  0  0  0  0  0  0  0  0  0
   24.0395  -35.1633   -1.5632 O   0  0  0  0  0  0  0  0  0  0  0  0
   22.8056  -36.3503   -3.0293 O   0  0  0  0  0  0  0  0  0  0  0  0
  1  2  1  0
  2  3  2  0
  4  2  1  0
  5  4  1  0
  5  6  1  6
  7  9  1  0
  7  5  1  0
  8  7  2  0
 10  9  1  0
 11 12  1  0
 10 11  1  1
 12 16  1  0
 12 13  2  0
 13 14  1  0
 15 14  1  0
 16 15  2  0
 17 19  1  0
 17 10  1  0
 18 17  2  0
 20 19  1  0
 20 23  1  0
 20 21  1  6
 21 22  1  0
 23 25  1  0
 24 23  2  0
M  END
$$$$
