NHC.pdb
     RDKit          3D

 25 25  0  0  1  0  0  0  0  0999 V2000
   21.0464  -15.6539  -19.9759 N   0  0  0  0  0  0  0  0  0  0  0  0
   21.2067  -16.9405  -19.4023 C   0  0  0  0  0  0  0  0  0  0  0  0
   21.1378  -17.9732  -20.0905 O   0  0  0  0  0  0  0  0  0  0  0  0
   21.4609  -17.0548  -17.9542 C   0  0  0  0  0  0  0  0  0  0  0  0
   22.6367  -17.9495  -17.6682 C   0  0  2  0  0  0  0  0  0  0  0  0
   22.4834  -19.2930  -18.1341 N   0  0  0  0  0  0  0  0  0  0  0  0
   22.8939  -17.9631  -16.2200 C   0  0  0  0  0  0  0  0  0  0  0  0
   23.0889  -16.8856  -15.6327 O   0  0  0  0  0  0  0  0  0  0  0  0
   22.9240  -19.1580  -15.4927 N   0  0  0  0  0  0  0  0  0  0  0  0
   23.1248  -19.1555  -14.0279 C   0  0  1  0  0  0  0  0  0  0  0  0
   21.9218  -19.7321  -13.3571 C   0  0  0  0  0  0  0  0  0  0  0  0
   22.0554  -19.9799  -11.9256 C   0  0  0  0  0  0  0  0  0  0  0  0
   23.0669  -19.7472  -11.0408 C   0  0  0  0  0  0  0  0  0  0  0  0
   22.6317  -20.1189   -9.8036 N   0  0  0  0  0  0  0  0  0  0  0  0
   21.3945  -20.5648   -9.9160 C   0  0  0  0  0  0  0  0  0  0  0  0
   21.0234  -20.4893  -11.1973 N   0  0  0  0  0  0  0  0  0  0  0  0
   24.3072  -20.0823  -13.8312 C   0  0  0  0  0  0  0  0  0  0  0  0
   24.4097  -21.1747  -14.4065 O   0  0  0  0  0  0  0  0  0  0  0  0
   25.3596  -19.7103  -12.9548 N   0  0  0  0  0  0  0  0  0  0  0  0
   26.3981  -20.6875  -12.6473 C   0  0  1  0  0  0  0  0  0  0  0  0
   27.4664  -19.9912  -11.8366 C   0  0  0  0  0  0  0  0  0  0  0  0
   28.7442  -21.1285  -11.2978 S   0  0  0  0  0  0  0  0  0  0  0  0
   25.8426  -21.8313  -11.8765 C   0  0  0  0  0  0  0  0  0  0  0  0
   24.9881  -21.6892  -10.9600 O   0  0  0  0  0  0  0  0  0  0  0  0
   26.2691  -23.0994  -12.1649 O   0  0  0  0  0  0  0  0  0  0  0  0
  1  2  1  0
  2  3  2  0
  4  2  1  0
  5  4  1  0
  5  6  1  1
  7  9  1  0
  7  5  1  0
  8  7  2  0
 10  9  1  0
 11 12  1  0
 10 11  1  1
 12 16  1  0
 12 13  2  0
 13 14  1  0
 15 14  1  0
 16 15  2  0
 17 19  1  0
 17 10  1  0
 18 17  2  0
 20 19  1  0
 20 23  1  0
 20 21  1  1
 21 22  1  0
 23 25  1  0
 24 23  2  0
M  END
$$$$
