NHC.pdb
     RDKit          3D

 25 25  0  0  1  0  0  0  0  0999 V2000
   15.9525  -11.7360  -15.5326 N   0  0  0  0  0  0  0  0  0  0  0  0
   16.8435  -11.3279  -14.5082 C   0  0  0  0  0  0  0  0  0  0  0  0
   16.5024  -11.3214  -13.3130 O   0  0  0  0  0  0  0  0  0  0  0  0
   18.2076  -10.9007  -14.8707 C   0  0  0  0  0  0  0  0  0  0  0  0
   18.4264  -10.9536  -16.3588 C   0  0  2  0  0  0  0  0  0  0  0  0
   18.6456  -12.2686  -16.8768 N   0  0  0  0  0  0  0  0  0  0  0  0
   19.5678  -10.0953  -16.7112 C   0  0  0  0  0  0  0  0  0  0  0  0
   20.7201  -10.5059  -16.4935 O   0  0  0  0  0  0  0  0  0  0  0  0
   19.3848   -8.8317  -17.2836 N   0  0  0  0  0  0  0  0  0  0  0  0
   20.5390   -7.9703  -17.6177 C   0  0  1  0  0  0  0  0  0  0  0  0
   20.3089   -7.3162  -18.9401 C   0  0  0  0  0  0  0  0  0  0  0  0
   20.4006   -8.1931  -20.1025 C   0  0  0  0  0  0  0  0  0  0  0  0
   19.4800   -8.6047  -21.0208 C   0  0  0  0  0  0  0  0  0  0  0  0
   20.1253   -9.3780  -21.9395 N   0  0  0  0  0  0  0  0  0  0  0  0
   21.4003   -9.4429  -21.6044 C   0  0  0  0  0  0  0  0  0  0  0  0
   21.5905   -8.7297  -20.4908 N   0  0  0  0  0  0  0  0  0  0  0  0
   20.5255   -6.9211  -16.5246 C   0  0  0  0  0  0  0  0  0  0  0  0
   19.5526   -6.7366  -15.7800 O   0  0  0  0  0  0  0  0  0  0  0  0
   21.6628   -6.0972  -16.3207 N   0  0  0  0  0  0  0  0  0  0  0  0
   21.6740   -5.1812  -15.1854 C   0  0  1  0  0  0  0  0  0  0  0  0
   21.7484   -6.0073  -13.9222 C   0  0  0  0  0  0  0  0  0  0  0  0
   22.1034   -4.9974  -12.4832 S   0  0  0  0  0  0  0  0  0  0  0  0
   22.8377   -4.2584  -15.2561 C   0  0  0  0  0  0  0  0  0  0  0  0
   23.9516   -4.5965  -15.7413 O   0  0  0  0  0  0  0  0  0  0  0  0
   22.7072   -2.9830  -14.7772 O   0  0  0  0  0  0  0  0  0  0  0  0
  1  2  1  0
  2  3  2  0
  4  2  1  0
  5  4  1  0
  5  6  1  1
  7  9  1  0
  7  5  1  0
  8  7  2  0
 10  9  1  0
 11 12  1  0
 10 11  1  6
 12 16  1  0
 12 13  2  0
 13 14  1  0
 15 14  1  0
 16 15  2  0
 17 19  1  0
 17 10  1  0
 18 17  2  0
 20 19  1  0
 20 23  1  0
 20 21  1  1
 21 22  1  0
 23 25  1  0
 24 23  2  0
M  END
$$$$
