NHC.pdb
     RDKit          3D

 25 25  0  0  1  0  0  0  0  0999 V2000
   12.8074  -11.9267  -11.4591 N   0  0  0  0  0  0  0  0  0  0  0  0
   13.5358  -11.0358  -10.6311 C   0  0  0  0  0  0  0  0  0  0  0  0
   13.0370  -10.5479   -9.6026 O   0  0  0  0  0  0  0  0  0  0  0  0
   14.9185  -10.6800  -11.0004 C   0  0  0  0  0  0  0  0  0  0  0  0
   15.3542  -11.3853  -12.2564 C   0  0  2  0  0  0  0  0  0  0  0  0
   15.3454  -12.8126  -12.1652 N   0  0  0  0  0  0  0  0  0  0  0  0
   16.7035  -10.9296  -12.6245 C   0  0  0  0  0  0  0  0  0  0  0  0
   17.6843  -11.6089  -12.2773 O   0  0  0  0  0  0  0  0  0  0  0  0
   16.9056   -9.7527  -13.3536 N   0  0  0  0  0  0  0  0  0  0  0  0
   18.2680   -9.2858  -13.6878 C   0  0  1  0  0  0  0  0  0  0  0  0
   18.3595   -9.0179  -15.1538 C   0  0  0  0  0  0  0  0  0  0  0  0
   19.6078   -8.4150  -15.6087 C   0  0  0  0  0  0  0  0  0  0  0  0
   19.8933   -7.2136  -16.1876 C   0  0  0  0  0  0  0  0  0  0  0  0
   21.2447   -7.1403  -16.3500 N   0  0  0  0  0  0  0  0  0  0  0  0
   21.7789   -8.2551  -15.8875 C   0  0  0  0  0  0  0  0  0  0  0  0
   20.8023   -9.0447  -15.4316 N   0  0  0  0  0  0  0  0  0  0  0  0
   18.3921   -7.9819  -12.9260 C   0  0  0  0  0  0  0  0  0  0  0  0
   17.4124   -7.3574  -12.4958 O   0  0  0  0  0  0  0  0  0  0  0  0
   19.6742   -7.4259  -12.6792 N   0  0  0  0  0  0  0  0  0  0  0  0
   19.7662   -6.1631  -11.9548 C   0  0  1  0  0  0  0  0  0  0  0  0
   19.3716   -6.4208  -10.5191 C   0  0  0  0  0  0  0  0  0  0  0  0
   19.5907   -4.9654   -9.4942 S   0  0  0  0  0  0  0  0  0  0  0  0
   21.1478   -5.6162  -12.0098 C   0  0  0  0  0  0  0  0  0  0  0  0
   22.1757   -6.3440  -11.9458 O   0  0  0  0  0  0  0  0  0  0  0  0
   21.3254   -4.2650  -12.1355 O   0  0  0  0  0  0  0  0  0  0  0  0
  1  2  1  0
  2  3  2  0
  4  2  1  0
  5  4  1  0
  5  6  1  1
  7  9  1  0
  7  5  1  0
  8  7  2  0
 10  9  1  0
 11 12  1  0
 10 11  1  6
 12 16  1  0
 12 13  2  0
 13 14  1  0
 15 14  1  0
 16 15  2  0
 17 19  1  0
 17 10  1  0
 18 17  2  0
 20 19  1  0
 20 23  1  0
 20 21  1  1
 21 22  1  0
 23 25  1  0
 24 23  2  0
M  END
$$$$
