NHC.pdb
     RDKit          3D

 25 25  0  0  1  0  0  0  0  0999 V2000
   20.7828  -14.9865  -19.6691 N   0  0  0  0  0  0  0  0  0  0  0  0
   19.8198  -14.4075  -18.8046 C   0  0  0  0  0  0  0  0  0  0  0  0
   18.6007  -14.5300  -19.0130 O   0  0  0  0  0  0  0  0  0  0  0  0
   20.2770  -13.6414  -17.6304 C   0  0  0  0  0  0  0  0  0  0  0  0
   21.7788  -13.5654  -17.5703 C   0  0  2  0  0  0  0  0  0  0  0  0
   22.4181  -14.7936  -17.2120 N   0  0  0  0  0  0  0  0  0  0  0  0
   22.1729  -12.5159  -16.6181 C   0  0  0  0  0  0  0  0  0  0  0  0
   22.0574  -12.7333  -15.4002 O   0  0  0  0  0  0  0  0  0  0  0  0
   22.6726  -11.2832  -17.0522 N   0  0  0  0  0  0  0  0  0  0  0  0
   23.0790  -10.2409  -16.0856 C   0  0  1  0  0  0  0  0  0  0  0  0
   24.4611   -9.7743  -16.4046 C   0  0  0  0  0  0  0  0  0  0  0  0
   25.5351  -10.6988  -16.0578 C   0  0  0  0  0  0  0  0  0  0  0  0
   25.5344  -11.9489  -15.5124 C   0  0  0  0  0  0  0  0  0  0  0  0
   26.8259  -12.3819  -15.4619 N   0  0  0  0  0  0  0  0  0  0  0  0
   27.6002  -11.4357  -15.9591 C   0  0  0  0  0  0  0  0  0  0  0  0
   26.8368  -10.4031  -16.3280 N   0  0  0  0  0  0  0  0  0  0  0  0
   22.0940   -9.1181  -16.3409 C   0  0  0  0  0  0  0  0  0  0  0  0
   21.8704   -8.6624  -17.4711 O   0  0  0  0  0  0  0  0  0  0  0  0
   21.3811   -8.5422  -15.2574 N   0  0  0  0  0  0  0  0  0  0  0  0
   20.4188   -7.4810  -15.5326 C   0  0  1  0  0  0  0  0  0  0  0  0
   19.0709   -7.9310  -15.0188 C   0  0  0  0  0  0  0  0  0  0  0  0
   18.5796   -9.5061  -15.7216 S   0  0  0  0  0  0  0  0  0  0  0  0
   20.8176   -6.2134  -14.8656 C   0  0  0  0  0  0  0  0  0  0  0  0
   21.8310   -6.1206  -14.1207 O   0  0  0  0  0  0  0  0  0  0  0  0
   20.0599   -5.0905  -15.0606 O   0  0  0  0  0  0  0  0  0  0  0  0
  1  2  1  0
  2  3  2  0
  4  2  1  0
  5  4  1  0
  5  6  1  1
  7  9  1  0
  7  5  1  0
  8  7  2  0
 10  9  1  0
 11 12  1  0
 10 11  1  6
 12 16  1  0
 12 13  2  0
 13 14  1  0
 15 14  1  0
 16 15  2  0
 17 19  1  0
 17 10  1  0
 18 17  2  0
 20 19  1  0
 20 23  1  0
 20 21  1  1
 21 22  1  0
 23 25  1  0
 24 23  2  0
M  END
$$$$
