CWW.pdb
     RDKit          3D

 35 38  0  0  1  0  0  0  0  0999 V2000
   28.0112  -21.8006  -15.5557 N   0  0  0  0  0  0  0  0  0  0  0  0
   28.3097  -20.7830  -14.5648 C   0  0  1  0  0  0  0  0  0  0  0  0
   28.0961  -19.4145  -15.1840 C   0  0  0  0  0  0  0  0  0  0  0  0
   26.3809  -19.3899  -15.8245 S   0  0  0  0  0  0  0  0  0  0  0  0
   27.4850  -21.0085  -13.3774 C   0  0  0  0  0  0  0  0  0  0  0  0
   26.4216  -21.7201  -13.4454 O   0  0  0  0  0  0  0  0  0  0  0  0
   27.7625  -20.4874  -12.0870 N   0  0  0  0  0  0  0  0  0  0  0  0
   26.9667  -20.7922  -10.9013 C   0  0  1  0  0  0  0  0  0  0  0  0
   27.6879  -20.1545   -9.7430 C   0  0  0  0  0  0  0  0  0  0  0  0
   27.1498  -20.4511   -8.4033 C   0  0  0  0  0  0  0  0  0  0  0  0
   25.9513  -21.1225   -8.2196 C   0  0  0  0  0  0  0  0  0  0  0  0
   25.7368  -21.1858   -6.9126 N   0  0  0  0  0  0  0  0  0  0  0  0
   26.7121  -20.6032   -6.2176 C   0  0  0  0  0  0  0  0  0  0  0  0
   26.9483  -20.4289   -4.8544 C   0  0  0  0  0  0  0  0  0  0  0  0
   28.0982  -19.7821   -4.4577 C   0  0  0  0  0  0  0  0  0  0  0  0
   28.9884  -19.3212   -5.3832 C   0  0  0  0  0  0  0  0  0  0  0  0
   28.7698  -19.4844   -6.7318 C   0  0  0  0  0  0  0  0  0  0  0  0
   27.6104  -20.1356   -7.1384 C   0  0  0  0  0  0  0  0  0  0  0  0
   25.5837  -20.3301  -10.9680 C   0  0  0  0  0  0  0  0  0  0  0  0
   25.4131  -19.1348  -11.3146 O   0  0  0  0  0  0  0  0  0  0  0  0
   24.4490  -21.0898  -10.6849 N   0  0  0  0  0  0  0  0  0  0  0  0
   23.0957  -20.7684  -10.8644 C   0  0  1  0  0  0  0  0  0  0  0  0
   22.3835  -21.2106  -12.1094 C   0  0  0  0  0  0  0  0  0  0  0  0
   22.6215  -20.3828  -13.3039 C   0  0  0  0  0  0  0  0  0  0  0  0
   22.6750  -19.0245  -13.4289 C   0  0  0  0  0  0  0  0  0  0  0  0
   22.9499  -18.6885  -14.7213 N   0  0  0  0  0  0  0  0  0  0  0  0
   23.0794  -19.7923  -15.4501 C   0  0  0  0  0  0  0  0  0  0  0  0
   23.3526  -20.0202  -16.7689 C   0  0  0  0  0  0  0  0  0  0  0  0
   23.4399  -21.3055  -17.2914 C   0  0  0  0  0  0  0  0  0  0  0  0
   23.2410  -22.3760  -16.4337 C   0  0  0  0  0  0  0  0  0  0  0  0
   22.9611  -22.1483  -15.0842 C   0  0  0  0  0  0  0  0  0  0  0  0
   22.8820  -20.8608  -14.6024 C   0  0  0  0  0  0  0  0  0  0  0  0
   22.2083  -20.9541   -9.6995 C   0  0  0  0  0  0  0  0  0  0  0  0
   22.5779  -21.4432   -8.6221 O   0  0  0  0  0  0  0  0  0  0  0  0
   20.8729  -20.5417   -9.8556 O   0  0  0  0  0  0  0  0  0  0  0  0
  2  1  1  6
  2  3  1  0
  3  4  1  0
  5  2  1  0
  5  6  2  0
  7  5  1  0
  8  7  1  0
  9 10  1  0
  8  9  1  1
 10 11  2  0
 11 12  1  0
 13 12  1  0
 14 13  2  0
 15 14  1  0
 16 17  1  0
 16 15  2  0
 17 18  2  0
 18 10  1  0
 18 13  1  0
 19 21  1  0
 19  8  1  0
 20 19  2  0
 22 21  1  0
 22 33  1  0
 22 23  1  6
 24 23  1  0
 25 24  2  0
 26 25  1  0
 27 26  1  0
 27 32  2  0
 28 29  2  0
 28 27  1  0
 29 30  1  0
 30 31  2  0
 32 31  1  0
 32 24  1  0
 33 34  2  0
 33 35  1  0
M  END
$$$$
