CWW.pdb
     RDKit          3D

 35 38  0  0  1  0  0  0  0  0999 V2000
   29.0833  -22.9472  -16.0432 N   0  0  0  0  0  0  0  0  0  0  0  0
   28.8369  -21.6740  -15.3912 C   0  0  1  0  0  0  0  0  0  0  0  0
   28.1495  -20.7429  -16.3722 C   0  0  0  0  0  0  0  0  0  0  0  0
   27.8733  -21.7060  -17.9048 S   0  0  0  0  0  0  0  0  0  0  0  0
   28.0575  -21.8979  -14.1732 C   0  0  0  0  0  0  0  0  0  0  0  0
   27.0262  -22.6581  -14.1875 O   0  0  0  0  0  0  0  0  0  0  0  0
   28.3479  -21.3240  -12.9084 N   0  0  0  0  0  0  0  0  0  0  0  0
   27.4676  -21.4313  -11.7483 C   0  0  1  0  0  0  0  0  0  0  0  0
   28.3183  -21.0993  -10.5506 C   0  0  0  0  0  0  0  0  0  0  0  0
   27.5944  -20.8590   -9.2894 C   0  0  0  0  0  0  0  0  0  0  0  0
   26.2101  -20.8498   -9.2213 C   0  0  0  0  0  0  0  0  0  0  0  0
   25.8839  -20.5637   -7.9683 N   0  0  0  0  0  0  0  0  0  0  0  0
   26.9575  -20.3838   -7.2012 C   0  0  0  0  0  0  0  0  0  0  0  0
   27.1341  -20.0910   -5.8493 C   0  0  0  0  0  0  0  0  0  0  0  0
   28.4158  -19.9917   -5.3538 C   0  0  0  0  0  0  0  0  0  0  0  0
   29.4914  -20.1769   -6.1726 C   0  0  0  0  0  0  0  0  0  0  0  0
   29.3343  -20.4656   -7.5086 C   0  0  0  0  0  0  0  0  0  0  0  0
   28.0430  -20.5662   -8.0147 C   0  0  0  0  0  0  0  0  0  0  0  0
   26.2907  -20.5696  -11.8024 C   0  0  0  0  0  0  0  0  0  0  0  0
   26.5038  -19.3506  -12.0185 O   0  0  0  0  0  0  0  0  0  0  0  0
   24.9667  -20.9757  -11.6381 N   0  0  0  0  0  0  0  0  0  0  0  0
   23.7822  -20.2577  -11.8577 C   0  0  1  0  0  0  0  0  0  0  0  0
   23.6402  -19.4136  -13.0906 C   0  0  0  0  0  0  0  0  0  0  0  0
   23.6620  -20.1472  -14.3673 C   0  0  0  0  0  0  0  0  0  0  0  0
   23.2244  -21.4070  -14.6585 C   0  0  0  0  0  0  0  0  0  0  0  0
   23.4162  -21.6699  -15.9824 N   0  0  0  0  0  0  0  0  0  0  0  0
   23.9686  -20.6137  -16.5703 C   0  0  0  0  0  0  0  0  0  0  0  0
   24.3571  -20.3490  -17.8528 C   0  0  0  0  0  0  0  0  0  0  0  0
   24.9193  -19.1303  -18.2153 C   0  0  0  0  0  0  0  0  0  0  0  0
   25.0830  -18.1666  -17.2327 C   0  0  0  0  0  0  0  0  0  0  0  0
   24.6876  -18.4324  -15.9195 C   0  0  0  0  0  0  0  0  0  0  0  0
   24.1346  -19.6517  -15.5976 C   0  0  0  0  0  0  0  0  0  0  0  0
   22.5154  -20.9714  -11.6034 C   0  0  0  0  0  0  0  0  0  0  0  0
   22.4421  -22.1893  -11.3842 O   0  0  0  0  0  0  0  0  0  0  0  0
   21.3433  -20.1945  -11.6179 O   0  0  0  0  0  0  0  0  0  0  0  0
  2  1  1  6
  2  3  1  0
  3  4  1  0
  5  2  1  0
  5  6  2  0
  7  5  1  0
  8  7  1  0
  9 10  1  0
  8  9  1  1
 10 11  2  0
 11 12  1  0
 13 12  1  0
 14 13  2  0
 15 14  1  0
 16 17  1  0
 16 15  2  0
 17 18  2  0
 18 10  1  0
 18 13  1  0
 19 21  1  0
 19  8  1  0
 20 19  2  0
 22 21  1  0
 22 33  1  0
 22 23  1  6
 24 23  1  0
 25 24  2  0
 26 25  1  0
 27 26  1  0
 27 32  2  0
 28 29  2  0
 28 27  1  0
 29 30  1  0
 30 31  2  0
 32 31  1  0
 32 24  1  0
 33 34  2  0
 33 35  1  0
M  END
$$$$
