CWW.pdb
     RDKit          3D

 35 38  0  0  1  0  0  0  0  0999 V2000
   31.7603   -7.8290  -18.4921 N   0  0  0  0  0  0  0  0  0  0  0  0
   30.3511   -7.9324  -18.1602 C   0  0  1  0  0  0  0  0  0  0  0  0
   29.5623   -7.0052  -19.0656 C   0  0  0  0  0  0  0  0  0  0  0  0
   29.7861   -5.3117  -18.4063 S   0  0  0  0  0  0  0  0  0  0  0  0
   29.9310   -9.3299  -18.2671 C   0  0  0  0  0  0  0  0  0  0  0  0
   30.4361  -10.0980  -19.1597 O   0  0  0  0  0  0  0  0  0  0  0  0
   28.9659   -9.9521  -17.4334 N   0  0  0  0  0  0  0  0  0  0  0  0
   28.5609  -11.3488  -17.5649 C   0  0  1  0  0  0  0  0  0  0  0  0
   28.3774  -11.8610  -16.1605 C   0  0  0  0  0  0  0  0  0  0  0  0
   27.8989  -13.2494  -16.0354 C   0  0  0  0  0  0  0  0  0  0  0  0
   27.2114  -13.6971  -14.9184 C   0  0  0  0  0  0  0  0  0  0  0  0
   26.9679  -14.9875  -15.1024 N   0  0  0  0  0  0  0  0  0  0  0  0
   27.4461  -15.4252  -16.2657 C   0  0  0  0  0  0  0  0  0  0  0  0
   27.4290  -16.6635  -16.9065 C   0  0  0  0  0  0  0  0  0  0  0  0
   28.0118  -16.7753  -18.1499 C   0  0  0  0  0  0  0  0  0  0  0  0
   28.5946  -15.6929  -18.7417 C   0  0  0  0  0  0  0  0  0  0  0  0
   28.6206  -14.4645  -18.1225 C   0  0  0  0  0  0  0  0  0  0  0  0
   28.0348  -14.3457  -16.8670 C   0  0  0  0  0  0  0  0  0  0  0  0
   27.3498  -11.5540  -18.3533 C   0  0  0  0  0  0  0  0  0  0  0  0
   26.4495  -10.6874  -18.2251 O   0  0  0  0  0  0  0  0  0  0  0  0
   27.1076  -12.6142  -19.2265 N   0  0  0  0  0  0  0  0  0  0  0  0
   26.3800  -12.6308  -20.4253 C   0  0  1  0  0  0  0  0  0  0  0  0
   26.2583  -11.3764  -21.2406 C   0  0  0  0  0  0  0  0  0  0  0  0
   25.2289  -11.4019  -22.2934 C   0  0  0  0  0  0  0  0  0  0  0  0
   23.8685  -11.3675  -22.1860 C   0  0  0  0  0  0  0  0  0  0  0  0
   23.3051  -11.3821  -23.4274 N   0  0  0  0  0  0  0  0  0  0  0  0
   24.2612  -11.4245  -24.3495 C   0  0  0  0  0  0  0  0  0  0  0  0
   24.2483  -11.4507  -25.7152 C   0  0  0  0  0  0  0  0  0  0  0  0
   25.4203  -11.4900  -26.4620 C   0  0  0  0  0  0  0  0  0  0  0  0
   26.6289  -11.5024  -25.7837 C   0  0  0  0  0  0  0  0  0  0  0  0
   26.6475  -11.4761  -24.3871 C   0  0  0  0  0  0  0  0  0  0  0  0
   25.4661  -11.4377  -23.6808 C   0  0  0  0  0  0  0  0  0  0  0  0
   26.6058  -13.7798  -21.3240 C   0  0  0  0  0  0  0  0  0  0  0  0
   27.5761  -14.5460  -21.2332 O   0  0  0  0  0  0  0  0  0  0  0  0
   25.6455  -13.9882  -22.3300 O   0  0  0  0  0  0  0  0  0  0  0  0
  2  1  1  6
  2  3  1  0
  3  4  1  0
  5  2  1  0
  5  6  2  0
  7  5  1  0
  8  7  1  0
  9 10  1  0
  8  9  1  1
 10 11  2  0
 11 12  1  0
 13 12  1  0
 14 13  2  0
 15 14  1  0
 16 17  1  0
 16 15  2  0
 17 18  2  0
 18 10  1  0
 18 13  1  0
 19 21  1  0
 19  8  1  0
 20 19  2  0
 22 21  1  0
 22 33  1  0
 22 23  1  6
 24 23  1  0
 25 24  2  0
 26 25  1  0
 27 26  1  0
 27 32  2  0
 28 29  2  0
 28 27  1  0
 29 30  1  0
 30 31  2  0
 32 31  1  0
 32 24  1  0
 33 34  2  0
 33 35  1  0
M  END
$$$$
