CWW.pdb
     RDKit          3D

 35 38  0  0  1  0  0  0  0  0999 V2000
   28.2039  -21.3253  -15.5648 N   0  0  0  0  0  0  0  0  0  0  0  0
   28.1333  -20.3251  -14.5153 C   0  0  1  0  0  0  0  0  0  0  0  0
   27.3211  -19.1445  -15.0136 C   0  0  0  0  0  0  0  0  0  0  0  0
   28.4547  -18.1125  -16.0149 S   0  0  0  0  0  0  0  0  0  0  0  0
   27.5767  -20.9325  -13.3060 C   0  0  0  0  0  0  0  0  0  0  0  0
   26.6668  -21.8311  -13.3850 O   0  0  0  0  0  0  0  0  0  0  0  0
   27.9672  -20.6057  -11.9815 N   0  0  0  0  0  0  0  0  0  0  0  0
   27.2044  -20.9830  -10.7951 C   0  0  1  0  0  0  0  0  0  0  0  0
   28.0671  -20.6201   -9.6150 C   0  0  0  0  0  0  0  0  0  0  0  0
   27.4078  -20.6525   -8.2972 C   0  0  0  0  0  0  0  0  0  0  0  0
   26.1294  -21.1584   -8.1220 C   0  0  0  0  0  0  0  0  0  0  0  0
   25.8202  -21.0004   -6.8422 N   0  0  0  0  0  0  0  0  0  0  0  0
   26.8070  -20.4254   -6.1573 C   0  0  0  0  0  0  0  0  0  0  0  0
   26.9682  -20.0730   -4.8177 C   0  0  0  0  0  0  0  0  0  0  0  0
   28.1560  -19.4983   -4.4212 C   0  0  0  0  0  0  0  0  0  0  0  0
   29.1549  -19.2789   -5.3242 C   0  0  0  0  0  0  0  0  0  0  0  0
   29.0115  -19.6202   -6.6493 C   0  0  0  0  0  0  0  0  0  0  0  0
   27.8146  -20.1997   -7.0557 C   0  0  0  0  0  0  0  0  0  0  0  0
   25.8941  -20.3479  -10.6933 C   0  0  0  0  0  0  0  0  0  0  0  0
   25.8829  -19.1577  -10.2919 O   0  0  0  0  0  0  0  0  0  0  0  0
   24.6685  -20.9389  -10.9995 N   0  0  0  0  0  0  0  0  0  0  0  0
   23.4135  -20.3405  -11.1830 C   0  0  1  0  0  0  0  0  0  0  0  0
   23.3068  -19.0509  -11.9436 C   0  0  0  0  0  0  0  0  0  0  0  0
   23.4866  -19.1577  -13.4013 C   0  0  0  0  0  0  0  0  0  0  0  0
   23.0304  -20.1063  -14.2705 C   0  0  0  0  0  0  0  0  0  0  0  0
   23.4113  -19.7920  -15.5413 N   0  0  0  0  0  0  0  0  0  0  0  0
   24.1064  -18.6593  -15.5302 C   0  0  0  0  0  0  0  0  0  0  0  0
   24.7041  -17.9146  -16.5069 C   0  0  0  0  0  0  0  0  0  0  0  0
   25.3828  -16.7352  -16.2221 C   0  0  0  0  0  0  0  0  0  0  0  0
   25.4446  -16.3176  -14.9019 C   0  0  0  0  0  0  0  0  0  0  0  0
   24.8353  -17.0757  -13.8993 C   0  0  0  0  0  0  0  0  0  0  0  0
   24.1719  -18.2392  -14.2192 C   0  0  0  0  0  0  0  0  0  0  0  0
   22.3024  -21.2317  -11.5705 C   0  0  0  0  0  0  0  0  0  0  0  0
   21.1079  -20.9032  -11.5276 O   0  0  0  0  0  0  0  0  0  0  0  0
   22.6551  -22.5205  -12.0088 O   0  0  0  0  0  0  0  0  0  0  0  0
  2  1  1  6
  2  3  1  0
  3  4  1  0
  5  2  1  0
  5  6  2  0
  7  5  1  0
  8  7  1  0
  9 10  1  0
  8  9  1  1
 10 11  2  0
 11 12  1  0
 13 12  1  0
 14 13  2  0
 15 14  1  0
 16 17  1  0
 16 15  2  0
 17 18  2  0
 18 10  1  0
 18 13  1  0
 19 21  1  0
 19  8  1  0
 20 19  2  0
 22 21  1  0
 22 33  1  0
 22 23  1  6
 24 23  1  0
 25 24  2  0
 26 25  1  0
 27 26  1  0
 27 32  2  0
 28 29  2  0
 28 27  1  0
 29 30  1  0
 30 31  2  0
 32 31  1  0
 32 24  1  0
 33 34  2  0
 33 35  1  0
M  END
$$$$
