CWW.pdb
     RDKit          3D

 35 38  0  0  1  0  0  0  0  0999 V2000
   29.2594  -19.0229  -18.0212 N   0  0  0  0  0  0  0  0  0  0  0  0
   28.8401  -20.1438  -17.1999 C   0  0  1  0  0  0  0  0  0  0  0  0
   30.0477  -20.6958  -16.4659 C   0  0  0  0  0  0  0  0  0  0  0  0
   29.4935  -22.2193  -15.6147 S   0  0  0  0  0  0  0  0  0  0  0  0
   27.7724  -19.7093  -16.2986 C   0  0  0  0  0  0  0  0  0  0  0  0
   27.8695  -18.6063  -15.6538 O   0  0  0  0  0  0  0  0  0  0  0  0
   26.5742  -20.4294  -16.0552 N   0  0  0  0  0  0  0  0  0  0  0  0
   25.6065  -20.0676  -15.0233 C   0  0  1  0  0  0  0  0  0  0  0  0
   24.2873  -19.9038  -15.7316 C   0  0  0  0  0  0  0  0  0  0  0  0
   24.0969  -18.6366  -16.4599 C   0  0  0  0  0  0  0  0  0  0  0  0
   24.8704  -18.2903  -17.5566 C   0  0  0  0  0  0  0  0  0  0  0  0
   24.4779  -17.0847  -17.9447 N   0  0  0  0  0  0  0  0  0  0  0  0
   23.4963  -16.6089  -17.1807 C   0  0  0  0  0  0  0  0  0  0  0  0
   22.7553  -15.4277  -17.1940 C   0  0  0  0  0  0  0  0  0  0  0  0
   21.7682  -15.2531  -16.2487 C   0  0  0  0  0  0  0  0  0  0  0  0
   21.5219  -16.2194  -15.3177 C   0  0  0  0  0  0  0  0  0  0  0  0
   22.2444  -17.3900  -15.2906 C   0  0  0  0  0  0  0  0  0  0  0  0
   23.2426  -17.5716  -16.2414 C   0  0  0  0  0  0  0  0  0  0  0  0
   25.4938  -21.0351  -13.9362 C   0  0  0  0  0  0  0  0  0  0  0  0
   26.2818  -22.0124  -13.9779 O   0  0  0  0  0  0  0  0  0  0  0  0
   24.5996  -20.9702  -12.8679 N   0  0  0  0  0  0  0  0  0  0  0  0
   24.8498  -21.0673  -11.4913 C   0  0  1  0  0  0  0  0  0  0  0  0
   26.0489  -20.3836  -10.9018 C   0  0  0  0  0  0  0  0  0  0  0  0
   26.1181  -20.3815   -9.4307 C   0  0  0  0  0  0  0  0  0  0  0  0
   25.1595  -20.6945   -8.5107 C   0  0  0  0  0  0  0  0  0  0  0  0
   25.6708  -20.5817   -7.2519 N   0  0  0  0  0  0  0  0  0  0  0  0
   26.9428  -20.2028   -7.3206 C   0  0  0  0  0  0  0  0  0  0  0  0
   27.9003  -19.9522   -6.3792 C   0  0  0  0  0  0  0  0  0  0  0  0
   29.1895  -19.5640   -6.7253 C   0  0  0  0  0  0  0  0  0  0  0  0
   29.4948  -19.4325   -8.0709 C   0  0  0  0  0  0  0  0  0  0  0  0
   28.5192  -19.6874   -9.0376 C   0  0  0  0  0  0  0  0  0  0  0  0
   27.2523  -20.0697   -8.6569 C   0  0  0  0  0  0  0  0  0  0  0  0
   23.6930  -20.8911  -10.5915 C   0  0  0  0  0  0  0  0  0  0  0  0
   23.2158  -21.7996   -9.8960 O   0  0  0  0  0  0  0  0  0  0  0  0
   23.1239  -19.6060  -10.5450 O   0  0  0  0  0  0  0  0  0  0  0  0
  2  1  1  1
  2  3  1  0
  3  4  1  0
  5  2  1  0
  5  6  2  0
  7  5  1  0
  8  7  1  0
  9 10  1  0
  8  9  1  6
 10 11  2  0
 11 12  1  0
 13 12  1  0
 14 13  2  0
 15 14  1  0
 16 17  1  0
 16 15  2  0
 17 18  2  0
 18 10  1  0
 18 13  1  0
 19 21  1  0
 19  8  1  0
 20 19  2  0
 22 21  1  0
 22 33  1  0
 22 23  1  1
 24 23  1  0
 25 24  2  0
 26 25  1  0
 27 26  1  0
 27 32  2  0
 28 29  2  0
 28 27  1  0
 29 30  1  0
 30 31  2  0
 32 31  1  0
 32 24  1  0
 33 34  2  0
 33 35  1  0
M  END
$$$$
