CWW.pdb
     RDKit          3D

 35 38  0  0  1  0  0  0  0  0999 V2000
   29.9765  -21.6031  -17.7659 N   0  0  0  0  0  0  0  0  0  0  0  0
   28.9479  -22.4310  -17.1632 C   0  0  1  0  0  0  0  0  0  0  0  0
   29.5695  -23.7400  -16.7137 C   0  0  0  0  0  0  0  0  0  0  0  0
   30.1955  -23.4678  -15.0146 S   0  0  0  0  0  0  0  0  0  0  0  0
   28.3137  -21.6939  -16.0699 C   0  0  0  0  0  0  0  0  0  0  0  0
   28.9471  -20.7667  -15.4526 O   0  0  0  0  0  0  0  0  0  0  0  0
   26.9935  -21.9176  -15.6003 N   0  0  0  0  0  0  0  0  0  0  0  0
   26.3366  -21.0816  -14.5994 C   0  0  1  0  0  0  0  0  0  0  0  0
   24.9322  -20.8641  -15.0983 C   0  0  0  0  0  0  0  0  0  0  0  0
   24.0957  -19.9511  -14.2989 C   0  0  0  0  0  0  0  0  0  0  0  0
   24.4403  -18.6252  -14.0890 C   0  0  0  0  0  0  0  0  0  0  0  0
   23.5111  -18.1015  -13.3013 N   0  0  0  0  0  0  0  0  0  0  0  0
   22.5736  -18.9896  -12.9758 C   0  0  0  0  0  0  0  0  0  0  0  0
   21.4120  -18.9223  -12.2072 C   0  0  0  0  0  0  0  0  0  0  0  0
   20.6298  -20.0501  -12.0868 C   0  0  0  0  0  0  0  0  0  0  0  0
   20.9869  -21.2106  -12.7091 C   0  0  0  0  0  0  0  0  0  0  0  0
   22.1301  -21.2937  -13.4703 C   0  0  0  0  0  0  0  0  0  0  0  0
   22.9241  -20.1590  -13.5947 C   0  0  0  0  0  0  0  0  0  0  0  0
   26.3263  -21.6472  -13.2538 C   0  0  0  0  0  0  0  0  0  0  0  0
   26.3672  -22.9003  -13.1772 O   0  0  0  0  0  0  0  0  0  0  0  0
   26.2765  -20.9273  -12.0604 N   0  0  0  0  0  0  0  0  0  0  0  0
   26.2778  -21.3956  -10.7384 C   0  0  1  0  0  0  0  0  0  0  0  0
   27.4571  -21.1208   -9.8515 C   0  0  0  0  0  0  0  0  0  0  0  0
   27.1969  -20.2291   -8.7087 C   0  0  0  0  0  0  0  0  0  0  0  0
   26.2305  -19.2791   -8.5443 C   0  0  0  0  0  0  0  0  0  0  0  0
   26.3455  -18.7098   -7.3109 N   0  0  0  0  0  0  0  0  0  0  0  0
   27.3633  -19.2621   -6.6589 C   0  0  0  0  0  0  0  0  0  0  0  0
   27.8991  -19.0690   -5.4173 C   0  0  0  0  0  0  0  0  0  0  0  0
   28.9905  -19.8013   -4.9642 C   0  0  0  0  0  0  0  0  0  0  0  0
   29.5386  -20.7517   -5.8112 C   0  0  0  0  0  0  0  0  0  0  0  0
   28.9946  -20.9528   -7.0820 C   0  0  0  0  0  0  0  0  0  0  0  0
   27.9132  -20.2081   -7.4967 C   0  0  0  0  0  0  0  0  0  0  0  0
   25.0319  -21.2142   -9.9678 C   0  0  0  0  0  0  0  0  0  0  0  0
   24.1934  -20.3337  -10.2098 O   0  0  0  0  0  0  0  0  0  0  0  0
   24.8153  -22.1090   -8.9048 O   0  0  0  0  0  0  0  0  0  0  0  0
  2  1  1  1
  2  3  1  0
  3  4  1  0
  5  2  1  0
  5  6  2  0
  7  5  1  0
  8  7  1  0
  9 10  1  0
  8  9  1  6
 10 11  2  0
 11 12  1  0
 13 12  1  0
 14 13  2  0
 15 14  1  0
 16 17  1  0
 16 15  2  0
 17 18  2  0
 18 10  1  0
 18 13  1  0
 19 21  1  0
 19  8  1  0
 20 19  2  0
 22 21  1  0
 22 33  1  0
 22 23  1  1
 24 23  1  0
 25 24  2  0
 26 25  1  0
 27 26  1  0
 27 32  2  0
 28 29  2  0
 28 27  1  0
 29 30  1  0
 30 31  2  0
 32 31  1  0
 32 24  1  0
 33 34  2  0
 33 35  1  0
M  END
$$$$
