CWW.pdb
     RDKit          3D

 35 38  0  0  1  0  0  0  0  0999 V2000
   29.3959  -21.9311  -18.3560 N   0  0  0  0  0  0  0  0  0  0  0  0
   29.1930  -22.5877  -17.0776 C   0  0  1  0  0  0  0  0  0  0  0  0
   30.5379  -23.0288  -16.5311 C   0  0  0  0  0  0  0  0  0  0  0  0
   30.8489  -24.7072  -17.1935 S   0  0  0  0  0  0  0  0  0  0  0  0
   28.4792  -21.6817  -16.1772 C   0  0  0  0  0  0  0  0  0  0  0  0
   28.8925  -20.4829  -15.9934 O   0  0  0  0  0  0  0  0  0  0  0  0
   27.3099  -22.0191  -15.4476 N   0  0  0  0  0  0  0  0  0  0  0  0
   26.6485  -21.1137  -14.5123 C   0  0  1  0  0  0  0  0  0  0  0  0
   25.3177  -20.7773  -15.1321 C   0  0  0  0  0  0  0  0  0  0  0  0
   24.4578  -19.8616  -14.3610 C   0  0  0  0  0  0  0  0  0  0  0  0
   24.8162  -18.5467  -14.1090 C   0  0  0  0  0  0  0  0  0  0  0  0
   23.8569  -18.0180  -13.3617 N   0  0  0  0  0  0  0  0  0  0  0  0
   22.8867  -18.8926  -13.1023 C   0  0  0  0  0  0  0  0  0  0  0  0
   21.6876  -18.8151  -12.3946 C   0  0  0  0  0  0  0  0  0  0  0  0
   20.8786  -19.9288  -12.3362 C   0  0  0  0  0  0  0  0  0  0  0  0
   21.2457  -21.0853  -12.9600 C   0  0  0  0  0  0  0  0  0  0  0  0
   22.4256  -21.1784  -13.6615 C   0  0  0  0  0  0  0  0  0  0  0  0
   23.2468  -20.0580  -13.7233 C   0  0  0  0  0  0  0  0  0  0  0  0
   26.4716  -21.6575  -13.1693 C   0  0  0  0  0  0  0  0  0  0  0  0
   26.1574  -22.8716  -13.0981 O   0  0  0  0  0  0  0  0  0  0  0  0
   26.6198  -20.9564  -11.9728 N   0  0  0  0  0  0  0  0  0  0  0  0
   26.4674  -21.4066  -10.6533 C   0  0  1  0  0  0  0  0  0  0  0  0
   27.6450  -21.3993   -9.7227 C   0  0  0  0  0  0  0  0  0  0  0  0
   27.6100  -20.3765   -8.6638 C   0  0  0  0  0  0  0  0  0  0  0  0
   26.8129  -19.2754   -8.5388 C   0  0  0  0  0  0  0  0  0  0  0  0
   27.1061  -18.6201   -7.3798 N   0  0  0  0  0  0  0  0  0  0  0  0
   28.0762  -19.2631   -6.7382 C   0  0  0  0  0  0  0  0  0  0  0  0
   28.7282  -19.0432   -5.5582 C   0  0  0  0  0  0  0  0  0  0  0  0
   29.7286  -19.8930   -5.1001 C   0  0  0  0  0  0  0  0  0  0  0  0
   30.0611  -20.9916   -5.8771 C   0  0  0  0  0  0  0  0  0  0  0  0
   29.3976  -21.2208   -7.0847 C   0  0  0  0  0  0  0  0  0  0  0  0
   28.4119  -20.3568   -7.5066 C   0  0  0  0  0  0  0  0  0  0  0  0
   25.2667  -20.9463   -9.9285 C   0  0  0  0  0  0  0  0  0  0  0  0
   24.6943  -19.8704  -10.1556 O   0  0  0  0  0  0  0  0  0  0  0  0
   24.7702  -21.8020   -8.9291 O   0  0  0  0  0  0  0  0  0  0  0  0
  2  1  1  6
  2  3  1  0
  3  4  1  0
  5  2  1  0
  5  6  2  0
  7  5  1  0
  8  7  1  0
  9 10  1  0
  8  9  1  6
 10 11  2  0
 11 12  1  0
 13 12  1  0
 14 13  2  0
 15 14  1  0
 16 17  1  0
 16 15  2  0
 17 18  2  0
 18 10  1  0
 18 13  1  0
 19 21  1  0
 19  8  1  0
 20 19  2  0
 22 21  1  0
 22 33  1  0
 22 23  1  1
 24 23  1  0
 25 24  2  0
 26 25  1  0
 27 26  1  0
 27 32  2  0
 28 29  2  0
 28 27  1  0
 29 30  1  0
 30 31  2  0
 32 31  1  0
 32 24  1  0
 33 34  2  0
 33 35  1  0
M  END
$$$$
