CWW.pdb
     RDKit          3D

 35 38  0  0  1  0  0  0  0  0999 V2000
   28.3983  -20.3434  -16.2235 N   0  0  0  0  0  0  0  0  0  0  0  0
   27.7601  -21.6450  -16.2962 C   0  0  1  0  0  0  0  0  0  0  0  0
   28.7919  -22.6774  -16.7100 C   0  0  0  0  0  0  0  0  0  0  0  0
   28.9432  -22.5676  -18.5315 S   0  0  0  0  0  0  0  0  0  0  0  0
   27.1325  -21.9477  -15.0095 C   0  0  0  0  0  0  0  0  0  0  0  0
   26.4553  -23.0235  -14.8493 O   0  0  0  0  0  0  0  0  0  0  0  0
   27.2043  -21.1210  -13.8584 N   0  0  0  0  0  0  0  0  0  0  0  0
   26.4813  -21.3923  -12.6192 C   0  0  1  0  0  0  0  0  0  0  0  0
   27.4174  -21.0131  -11.5018 C   0  0  0  0  0  0  0  0  0  0  0  0
   26.7956  -20.7916  -10.1840 C   0  0  0  0  0  0  0  0  0  0  0  0
   25.4415  -20.5338  -10.0389 C   0  0  0  0  0  0  0  0  0  0  0  0
   25.2183  -20.3404   -8.7462 N   0  0  0  0  0  0  0  0  0  0  0  0
   26.3319  -20.4536   -8.0246 C   0  0  0  0  0  0  0  0  0  0  0  0
   26.6067  -20.3584   -6.6608 C   0  0  0  0  0  0  0  0  0  0  0  0
   27.8998  -20.5570   -6.2291 C   0  0  0  0  0  0  0  0  0  0  0  0
   28.8921  -20.8416   -7.1212 C   0  0  0  0  0  0  0  0  0  0  0  0
   28.6378  -20.9383   -8.4699 C   0  0  0  0  0  0  0  0  0  0  0  0
   27.3347  -20.7379   -8.9118 C   0  0  0  0  0  0  0  0  0  0  0  0
   25.2116  -20.6833  -12.4940 C   0  0  0  0  0  0  0  0  0  0  0  0
   25.2591  -19.4334  -12.6098 O   0  0  0  0  0  0  0  0  0  0  0  0
   23.9655  -21.2645  -12.2609 N   0  0  0  0  0  0  0  0  0  0  0  0
   22.7039  -20.6584  -12.1717 C   0  0  1  0  0  0  0  0  0  0  0  0
   22.2392  -19.7405  -13.2646 C   0  0  0  0  0  0  0  0  0  0  0  0
   22.7108  -20.0769  -14.6185 C   0  0  0  0  0  0  0  0  0  0  0  0
   22.9084  -21.2977  -15.1964 C   0  0  0  0  0  0  0  0  0  0  0  0
   23.3274  -21.1385  -16.4841 N   0  0  0  0  0  0  0  0  0  0  0  0
   23.4098  -19.8428  -16.7682 C   0  0  0  0  0  0  0  0  0  0  0  0
   23.7660  -19.1479  -17.8890 C   0  0  0  0  0  0  0  0  0  0  0  0
   23.7626  -17.7582  -17.9259 C   0  0  0  0  0  0  0  0  0  0  0  0
   23.3834  -17.0737  -16.7819 C   0  0  0  0  0  0  0  0  0  0  0  0
   23.0185  -17.7796  -15.6330 C   0  0  0  0  0  0  0  0  0  0  0  0
   23.0344  -19.1565  -15.6336 C   0  0  0  0  0  0  0  0  0  0  0  0
   21.5827  -21.5173  -11.7428 C   0  0  0  0  0  0  0  0  0  0  0  0
   21.3307  -21.7819  -10.5581 O   0  0  0  0  0  0  0  0  0  0  0  0
   20.7739  -22.0496  -12.7626 O   0  0  0  0  0  0  0  0  0  0  0  0
  2  1  1  1
  2  3  1  0
  3  4  1  0
  5  2  1  0
  5  6  2  0
  7  5  1  0
  8  7  1  0
  9 10  1  0
  8  9  1  1
 10 11  2  0
 11 12  1  0
 13 12  1  0
 14 13  2  0
 15 14  1  0
 16 17  1  0
 16 15  2  0
 17 18  2  0
 18 10  1  0
 18 13  1  0
 19 21  1  0
 19  8  1  0
 20 19  2  0
 22 21  1  0
 22 33  1  0
 22 23  1  6
 24 23  1  0
 25 24  2  0
 26 25  1  0
 27 26  1  0
 27 32  2  0
 28 29  2  0
 28 27  1  0
 29 30  1  0
 30 31  2  0
 32 31  1  0
 32 24  1  0
 33 34  2  0
 33 35  1  0
M  END
$$$$
