CWW.pdb
     RDKit          3D

 35 38  0  0  1  0  0  0  0  0999 V2000
   28.5711  -21.9151  -15.6543 N   0  0  0  0  0  0  0  0  0  0  0  0
   28.3997  -20.7838  -14.7613 C   0  0  1  0  0  0  0  0  0  0  0  0
   27.6256  -19.6979  -15.4848 C   0  0  0  0  0  0  0  0  0  0  0  0
   28.8601  -18.4918  -16.0964 S   0  0  0  0  0  0  0  0  0  0  0  0
   27.7428  -21.2329  -13.5334 C   0  0  0  0  0  0  0  0  0  0  0  0
   26.6877  -21.9581  -13.5840 O   0  0  0  0  0  0  0  0  0  0  0  0
   28.1841  -20.9272  -12.2198 N   0  0  0  0  0  0  0  0  0  0  0  0
   27.3654  -21.1152  -11.0255 C   0  0  1  0  0  0  0  0  0  0  0  0
   28.2284  -20.7017   -9.8623 C   0  0  0  0  0  0  0  0  0  0  0  0
   27.5715  -20.6849   -8.5431 C   0  0  0  0  0  0  0  0  0  0  0  0
   26.2195  -20.9469   -8.3866 C   0  0  0  0  0  0  0  0  0  0  0  0
   25.9427  -20.8081   -7.0973 N   0  0  0  0  0  0  0  0  0  0  0  0
   27.0193  -20.4732   -6.3885 C   0  0  0  0  0  0  0  0  0  0  0  0
   27.2412  -20.2371   -5.0322 C   0  0  0  0  0  0  0  0  0  0  0  0
   28.5157  -19.9239   -4.6131 C   0  0  0  0  0  0  0  0  0  0  0  0
   29.5407  -19.8467   -5.5103 C   0  0  0  0  0  0  0  0  0  0  0  0
   29.3383  -20.0760   -6.8517 C   0  0  0  0  0  0  0  0  0  0  0  0
   28.0539  -20.3916   -7.2809 C   0  0  0  0  0  0  0  0  0  0  0  0
   26.1109  -20.3689  -11.0304 C   0  0  0  0  0  0  0  0  0  0  0  0
   26.1794  -19.1642  -10.6815 O   0  0  0  0  0  0  0  0  0  0  0  0
   24.8585  -20.8696  -11.3850 N   0  0  0  0  0  0  0  0  0  0  0  0
   23.6400  -20.1920  -11.5366 C   0  0  1  0  0  0  0  0  0  0  0  0
   23.5952  -18.9015  -12.3017 C   0  0  0  0  0  0  0  0  0  0  0  0
   24.0409  -18.9794  -13.7031 C   0  0  0  0  0  0  0  0  0  0  0  0
   23.6143  -19.7948  -14.7113 C   0  0  0  0  0  0  0  0  0  0  0  0
   24.2876  -19.5023  -15.8603 N   0  0  0  0  0  0  0  0  0  0  0  0
   25.1464  -18.5138  -15.6333 C   0  0  0  0  0  0  0  0  0  0  0  0
   26.0427  -17.8489  -16.4211 C   0  0  0  0  0  0  0  0  0  0  0  0
   26.8390  -16.8226  -15.9259 C   0  0  0  0  0  0  0  0  0  0  0  0
   26.7059  -16.4769  -14.5902 C   0  0  0  0  0  0  0  0  0  0  0  0
   25.7910  -17.1538  -13.7803 C   0  0  0  0  0  0  0  0  0  0  0  0
   25.0193  -18.1658  -14.3059 C   0  0  0  0  0  0  0  0  0  0  0  0
   22.4631  -21.0111  -11.8871 C   0  0  0  0  0  0  0  0  0  0  0  0
   22.5247  -22.2099  -12.1967 O   0  0  0  0  0  0  0  0  0  0  0  0
   21.2157  -20.3624  -11.8582 O   0  0  0  0  0  0  0  0  0  0  0  0
  2  1  1  6
  2  3  1  0
  3  4  1  0
  5  2  1  0
  5  6  2  0
  7  5  1  0
  8  7  1  0
  9 10  1  0
  8  9  1  1
 10 11  2  0
 11 12  1  0
 13 12  1  0
 14 13  2  0
 15 14  1  0
 16 17  1  0
 16 15  2  0
 17 18  2  0
 18 10  1  0
 18 13  1  0
 19 21  1  0
 19  8  1  0
 20 19  2  0
 22 21  1  0
 22 33  1  0
 22 23  1  6
 24 23  1  0
 25 24  2  0
 26 25  1  0
 27 26  1  0
 27 32  2  0
 28 29  2  0
 28 27  1  0
 29 30  1  0
 30 31  2  0
 32 31  1  0
 32 24  1  0
 33 34  2  0
 33 35  1  0
M  END
$$$$
