CWW.pdb
     RDKit          3D

 35 38  0  0  1  0  0  0  0  0999 V2000
   30.7326  -21.9668  -19.2381 N   0  0  0  0  0  0  0  0  0  0  0  0
   30.0177  -22.6717  -18.1899 C   0  0  1  0  0  0  0  0  0  0  0  0
   30.9410  -23.7055  -17.5731 C   0  0  0  0  0  0  0  0  0  0  0  0
   29.9860  -24.5418  -16.2535 S   0  0  0  0  0  0  0  0  0  0  0  0
   29.5109  -21.7042  -17.2161 C   0  0  0  0  0  0  0  0  0  0  0  0
   30.2924  -20.8362  -16.6892 O   0  0  0  0  0  0  0  0  0  0  0  0
   28.1647  -21.6289  -16.7738 N   0  0  0  0  0  0  0  0  0  0  0  0
   27.6860  -20.6561  -15.7958 C   0  0  1  0  0  0  0  0  0  0  0  0
   26.8680  -19.6571  -16.5713 C   0  0  0  0  0  0  0  0  0  0  0  0
   26.2136  -18.6015  -15.7777 C   0  0  0  0  0  0  0  0  0  0  0  0
   26.9346  -17.6833  -15.0307 C   0  0  0  0  0  0  0  0  0  0  0  0
   26.0547  -16.9100  -14.4095 N   0  0  0  0  0  0  0  0  0  0  0  0
   24.7997  -17.2524  -14.6947 C   0  0  0  0  0  0  0  0  0  0  0  0
   23.5563  -16.7474  -14.3156 C   0  0  0  0  0  0  0  0  0  0  0  0
   22.4186  -17.3356  -14.8232 C   0  0  0  0  0  0  0  0  0  0  0  0
   22.5088  -18.3926  -15.6811 C   0  0  0  0  0  0  0  0  0  0  0  0
   23.7277  -18.9031  -16.0645 C   0  0  0  0  0  0  0  0  0  0  0  0
   24.8796  -18.3142  -15.5547 C   0  0  0  0  0  0  0  0  0  0  0  0
   26.9037  -21.2313  -14.7059 C   0  0  0  0  0  0  0  0  0  0  0  0
   26.1420  -22.1826  -15.0103 O   0  0  0  0  0  0  0  0  0  0  0  0
   26.9279  -20.8230  -13.3726 N   0  0  0  0  0  0  0  0  0  0  0  0
   26.1991  -21.3127  -12.2790 C   0  0  1  0  0  0  0  0  0  0  0  0
   26.9165  -21.7018  -11.0194 C   0  0  0  0  0  0  0  0  0  0  0  0
   26.8614  -20.7149   -9.9277 C   0  0  0  0  0  0  0  0  0  0  0  0
   25.9435  -19.7351   -9.6814 C   0  0  0  0  0  0  0  0  0  0  0  0
   26.2714  -19.0697   -8.5375 N   0  0  0  0  0  0  0  0  0  0  0  0
   27.3824  -19.5879   -8.0242 C   0  0  0  0  0  0  0  0  0  0  0  0
   28.1240  -19.3054   -6.9124 C   0  0  0  0  0  0  0  0  0  0  0  0
   29.2723  -20.0206   -6.5919 C   0  0  0  0  0  0  0  0  0  0  0  0
   29.6612  -21.0478   -7.4372 C   0  0  0  0  0  0  0  0  0  0  0  0
   28.9065  -21.3405   -8.5757 C   0  0  0  0  0  0  0  0  0  0  0  0
   27.7747  -20.6100   -8.8612 C   0  0  0  0  0  0  0  0  0  0  0  0
   24.9561  -20.5952  -11.9339 C   0  0  0  0  0  0  0  0  0  0  0  0
   24.7714  -19.3897  -12.1559 O   0  0  0  0  0  0  0  0  0  0  0  0
   23.9438  -21.3533  -11.3189 O   0  0  0  0  0  0  0  0  0  0  0  0
  2  1  1  6
  2  3  1  0
  3  4  1  0
  5  2  1  0
  5  6  2  0
  7  5  1  0
  8  7  1  0
  9 10  1  0
  8  9  1  6
 10 11  2  0
 11 12  1  0
 13 12  1  0
 14 13  2  0
 15 14  1  0
 16 17  1  0
 16 15  2  0
 17 18  2  0
 18 10  1  0
 18 13  1  0
 19 21  1  0
 19  8  1  0
 20 19  2  0
 22 21  1  0
 22 33  1  0
 22 23  1  1
 24 23  1  0
 25 24  2  0
 26 25  1  0
 27 26  1  0
 27 32  2  0
 28 29  2  0
 28 27  1  0
 29 30  1  0
 30 31  2  0
 32 31  1  0
 32 24  1  0
 33 34  2  0
 33 35  1  0
M  END
$$$$
