ILE.pdb
     RDKit          3D

 26 25  0  0  1  0  0  0  0  0999 V2000
   22.0569  -20.9578   -7.8782 C   0  0  0  0  0  0  0  0  0  0  0  0
   23.4569  -21.0304   -8.3853 C   0  0  0  0  0  0  0  0  0  0  0  0
   23.6784  -20.4661   -9.7539 C   0  0  2  0  0  0  0  0  0  0  0  0
   22.7496  -21.0713  -10.7945 C   0  0  0  0  0  0  0  0  0  0  0  0
   25.0815  -20.7486  -10.2698 C   0  0  2  0  0  0  0  0  0  0  0  0
   25.9882  -20.0975   -9.3274 N   0  0  0  0  0  0  0  0  0  0  0  0
   25.2919  -20.1903  -11.6196 C   0  0  0  0  0  0  0  0  0  0  0  0
   25.1677  -18.9390  -11.7526 O   0  0  0  0  0  0  0  0  0  0  0  0
   28.1305  -19.2374  -15.8831 C   0  0  0  0  0  0  0  0  0  0  0  0
   27.6492  -20.7240  -15.9059 C   0  0  1  0  0  0  0  0  0  0  0  0
   28.8759  -21.4894  -16.2998 C   0  0  0  0  0  0  0  0  0  0  0  0
   27.1063  -20.9657  -14.5656 C   0  0  0  0  0  0  0  0  0  0  0  0
   25.8529  -20.3567  -14.0940 C   0  0  2  0  0  0  0  0  0  0  0  0
   25.6203  -20.9818  -12.7445 N   0  0  0  0  0  0  0  0  0  0  0  0
   24.6391  -20.4206  -14.8615 C   0  0  0  0  0  0  0  0  0  0  0  0
   24.0429  -21.5578  -14.9334 O   0  0  0  0  0  0  0  0  0  0  0  0
   23.9890  -19.3712  -15.5576 N   0  0  0  0  0  0  0  0  0  0  0  0
   22.7231  -19.6198  -16.2654 C   0  0  1  0  0  0  0  0  0  0  0  0
   21.7087  -18.5622  -15.8470 C   0  0  0  0  0  0  0  0  0  0  0  0
   20.4193  -18.6427  -16.6075 C   0  0  0  0  0  0  0  0  0  0  0  0
   19.3798  -17.9277  -15.8285 C   0  0  0  0  0  0  0  0  0  0  0  0
   19.6593  -17.3368  -14.7711 O   0  0  0  0  0  0  0  0  0  0  0  0
   22.9538  -19.6815  -17.7066 C   0  0  0  0  0  0  0  0  0  0  0  0
   23.7900  -18.8223  -18.4026 O   0  0  0  0  0  0  0  0  0  0  0  0
   18.0814  -17.9258  -16.2988 O   0  0  0  0  0  0  0  0  0  0  0  0
   22.3682  -20.5607  -18.3883 O   0  0  0  0  0  0  0  0  0  0  0  0
  2  3  1  0
  2  1  1  0
  3  4  1  6
  5  6  1  1
  5  3  1  0
  7  5  1  0
  8  7  2  0
 10 12  1  0
 10  9  1  1
 11 10  1  0
 13 12  1  6
 13 15  1  0
 13 14  1  0
 14  7  1  0
 15 16  2  0
 17 18  1  0
 17 15  1  0
 19 20  1  0
 18 19  1  6
 20 21  1  0
 21 25  1  0
 21 22  2  0
 23 24  1  0
 23 18  1  0
 26 23  2  0
M  END
$$$$
