ILE.pdb
     RDKit          3D

 26 25  0  0  1  0  0  0  0  0999 V2000
   14.2948  -21.5703    3.7901 C   0  0  0  0  0  0  0  0  0  0  0  0
   14.8475  -20.4201    3.0192 C   0  0  0  0  0  0  0  0  0  0  0  0
   15.8908  -19.6112    3.7248 C   0  0  2  0  0  0  0  0  0  0  0  0
   15.3745  -18.9811    5.0086 C   0  0  0  0  0  0  0  0  0  0  0  0
   16.3756  -18.4412    2.8818 C   0  0  2  0  0  0  0  0  0  0  0  0
   17.0075  -19.0354    1.7063 N   0  0  0  0  0  0  0  0  0  0  0  0
   17.3620  -17.6158    3.6054 C   0  0  0  0  0  0  0  0  0  0  0  0
   18.5233  -18.0956    3.7470 O   0  0  0  0  0  0  0  0  0  0  0  0
   20.0303  -13.1944    5.0291 C   0  0  0  0  0  0  0  0  0  0  0  0
   18.4833  -13.0212    5.1659 C   0  0  1  0  0  0  0  0  0  0  0  0
   18.2257  -11.6591    4.5965 C   0  0  0  0  0  0  0  0  0  0  0  0
   17.9106  -14.1678    4.4538 C   0  0  0  0  0  0  0  0  0  0  0  0
   18.0984  -15.5564    4.9021 C   0  0  2  0  0  0  0  0  0  0  0  0
   17.0664  -16.3381    4.1341 N   0  0  0  0  0  0  0  0  0  0  0  0
   18.0348  -15.9236    6.2904 C   0  0  0  0  0  0  0  0  0  0  0  0
   16.8686  -16.0873    6.8070 O   0  0  0  0  0  0  0  0  0  0  0  0
   19.1106  -16.1459    7.1858 N   0  0  0  0  0  0  0  0  0  0  0  0
   18.8504  -16.5580    8.5742 C   0  0  1  0  0  0  0  0  0  0  0  0
   19.9349  -17.5363    9.0094 C   0  0  0  0  0  0  0  0  0  0  0  0
   19.6535  -18.9524    8.6057 C   0  0  0  0  0  0  0  0  0  0  0  0
   20.4901  -19.8449    9.4436 C   0  0  0  0  0  0  0  0  0  0  0  0
   20.8101  -19.5281   10.6022 O   0  0  0  0  0  0  0  0  0  0  0  0
   18.7316  -15.3842    9.4357 C   0  0  0  0  0  0  0  0  0  0  0  0
   17.8747  -15.2942   10.5217 O   0  0  0  0  0  0  0  0  0  0  0  0
   20.9140  -21.0480    8.9140 O   0  0  0  0  0  0  0  0  0  0  0  0
   19.4400  -14.3724    9.2013 O   0  0  0  0  0  0  0  0  0  0  0  0
  2  3  1  0
  2  1  1  0
  3  4  1  1
  5  6  1  6
  5  3  1  0
  7  5  1  0
  8  7  2  0
 10 12  1  0
 10  9  1  6
 11 10  1  0
 13 12  1  1
 13 15  1  0
 13 14  1  0
 14  7  1  0
 15 16  2  0
 17 18  1  0
 17 15  1  0
 19 20  1  0
 18 19  1  1
 20 21  1  0
 21 25  1  0
 21 22  2  0
 23 24  1  0
 23 18  1  0
 26 23  2  0
M  END
$$$$
