ILE.pdb
     RDKit          3D

 26 25  0  0  1  0  0  0  0  0999 V2000
   18.7578  -15.7289  -16.2680 C   0  0  0  0  0  0  0  0  0  0  0  0
   17.8254  -14.6295  -15.8877 C   0  0  0  0  0  0  0  0  0  0  0  0
   18.1331  -13.2886  -16.4775 C   0  0  2  0  0  0  0  0  0  0  0  0
   19.4696  -12.7352  -16.0091 C   0  0  0  0  0  0  0  0  0  0  0  0
   17.1106  -12.2369  -16.0737 C   0  0  2  0  0  0  0  0  0  0  0  0
   15.8188  -12.7461  -16.5276 N   0  0  0  0  0  0  0  0  0  0  0  0
   17.3793  -10.9359  -16.7164 C   0  0  0  0  0  0  0  0  0  0  0  0
   18.4096  -10.8536  -17.4448 O   0  0  0  0  0  0  0  0  0  0  0  0
   14.1736   -7.4156  -19.8018 C   0  0  0  0  0  0  0  0  0  0  0  0
   15.5650   -7.2259  -19.1163 C   0  0  1  0  0  0  0  0  0  0  0  0
   15.5137   -5.8244  -18.5881 C   0  0  0  0  0  0  0  0  0  0  0  0
   15.6541   -8.3121  -18.1356 C   0  0  0  0  0  0  0  0  0  0  0  0
   16.8347   -8.5176  -17.2822 C   0  0  2  0  0  0  0  0  0  0  0  0
   16.5481   -9.8035  -16.5540 N   0  0  0  0  0  0  0  0  0  0  0  0
   17.2741   -7.5262  -16.3385 C   0  0  0  0  0  0  0  0  0  0  0  0
   16.5415   -7.3315  -15.2996 O   0  0  0  0  0  0  0  0  0  0  0  0
   18.4401   -6.7226  -16.3943 N   0  0  0  0  0  0  0  0  0  0  0  0
   18.7209   -5.7439  -15.3320 C   0  0  1  0  0  0  0  0  0  0  0  0
   20.1893   -5.8518  -14.9383 C   0  0  0  0  0  0  0  0  0  0  0  0
   20.6086   -4.8304  -13.9242 C   0  0  0  0  0  0  0  0  0  0  0  0
   22.0161   -5.1059  -13.5480 C   0  0  0  0  0  0  0  0  0  0  0  0
   22.3889   -6.2514  -13.2409 O   0  0  0  0  0  0  0  0  0  0  0  0
   18.3192   -4.4058  -15.7587 C   0  0  0  0  0  0  0  0  0  0  0  0
   18.1248   -4.0312  -17.0792 O   0  0  0  0  0  0  0  0  0  0  0  0
   22.9191   -4.0610  -13.5438 O   0  0  0  0  0  0  0  0  0  0  0  0
   18.1308   -3.5128  -14.8940 O   0  0  0  0  0  0  0  0  0  0  0  0
  2  3  1  0
  2  1  1  0
  3  4  1  1
  5  6  1  6
  5  3  1  0
  7  5  1  0
  8  7  2  0
 10 12  1  0
 10  9  1  1
 11 10  1  0
 13 12  1  1
 13 15  1  0
 13 14  1  0
 14  7  1  0
 15 16  2  0
 17 18  1  0
 17 15  1  0
 19 20  1  0
 18 19  1  6
 20 21  1  0
 21 25  1  0
 21 22  2  0
 23 24  1  0
 23 18  1  0
 26 23  2  0
M  END
$$$$
