ILE.pdb
     RDKit          3D

 26 25  0  0  1  0  0  0  0  0999 V2000
   19.4860  -22.3410  -12.9990 C   0  0  0  0  0  0  0  0  0  0  0  0
   20.3379  -22.0441  -11.8121 C   0  0  0  0  0  0  0  0  0  0  0  0
   21.6457  -21.3779  -12.1060 C   0  0  2  0  0  0  0  0  0  0  0  0
   22.4989  -22.1682  -13.0853 C   0  0  0  0  0  0  0  0  0  0  0  0
   22.5086  -21.2357  -10.8610 C   0  0  2  0  0  0  0  0  0  0  0  0
   21.7430  -20.3964   -9.9426 N   0  0  0  0  0  0  0  0  0  0  0  0
   23.7995  -20.5861  -11.1601 C   0  0  0  0  0  0  0  0  0  0  0  0
   23.7613  -19.4009  -11.5993 O   0  0  0  0  0  0  0  0  0  0  0  0
   28.3665  -21.2274   -8.2010 C   0  0  0  0  0  0  0  0  0  0  0  0
   27.1082  -20.6338   -8.9126 C   0  0  1  0  0  0  0  0  0  0  0  0
   27.1274  -19.1871   -8.5219 C   0  0  0  0  0  0  0  0  0  0  0  0
   27.2928  -20.9502  -10.3322 C   0  0  0  0  0  0  0  0  0  0  0  0
   26.3331  -20.5405  -11.3693 C   0  0  2  0  0  0  0  0  0  0  0  0
   25.0492  -21.2222  -10.9782 N   0  0  0  0  0  0  0  0  0  0  0  0
   26.5814  -20.7634  -12.7675 C   0  0  0  0  0  0  0  0  0  0  0  0
   26.5770  -21.9804  -13.1832 O   0  0  0  0  0  0  0  0  0  0  0  0
   26.8253  -19.7986  -13.7765 N   0  0  0  0  0  0  0  0  0  0  0  0
   26.6994  -20.1596  -15.1975 C   0  0  1  0  0  0  0  0  0  0  0  0
   25.4964  -19.4321  -15.7859 C   0  0  0  0  0  0  0  0  0  0  0  0
   25.2668  -19.7403  -17.2350 C   0  0  0  0  0  0  0  0  0  0  0  0
   24.0251  -19.0511  -17.6612 C   0  0  0  0  0  0  0  0  0  0  0  0
   23.3797  -18.3393  -16.8724 O   0  0  0  0  0  0  0  0  0  0  0  0
   27.9529  -19.8945  -15.8991 C   0  0  0  0  0  0  0  0  0  0  0  0
   28.3359  -20.5149  -17.0782 O   0  0  0  0  0  0  0  0  0  0  0  0
   23.5897  -19.2112  -18.9620 O   0  0  0  0  0  0  0  0  0  0  0  0
   28.7590  -19.0536  -15.4261 O   0  0  0  0  0  0  0  0  0  0  0  0
  2  3  1  0
  2  1  1  0
  3  4  1  6
  5  6  1  1
  5  3  1  0
  7  5  1  0
  8  7  2  0
 10 12  1  0
 10  9  1  1
 11 10  1  0
 13 12  1  1
 13 15  1  0
 13 14  1  0
 14  7  1  0
 15 16  2  0
 17 18  1  0
 17 15  1  0
 19 20  1  0
 18 19  1  6
 20 21  1  0
 21 25  1  0
 21 22  2  0
 23 24  1  0
 23 18  1  0
 26 23  2  0
M  END
$$$$
