ILE.pdb
     RDKit          3D

 26 25  0  0  1  0  0  0  0  0999 V2000
   15.7670  -12.3064  -19.8389 C   0  0  0  0  0  0  0  0  0  0  0  0
   17.1015  -12.5186  -19.2091 C   0  0  0  0  0  0  0  0  0  0  0  0
   17.5012  -11.5030  -18.1847 C   0  0  2  0  0  0  0  0  0  0  0  0
   17.6681  -10.1112  -18.7735 C   0  0  0  0  0  0  0  0  0  0  0  0
   18.8475  -11.8252  -17.5535 C   0  0  2  0  0  0  0  0  0  0  0  0
   18.6643  -13.0966  -16.8577 N   0  0  0  0  0  0  0  0  0  0  0  0
   19.2608  -10.7906  -16.5857 C   0  0  0  0  0  0  0  0  0  0  0  0
   18.5916  -10.6997  -15.5167 O   0  0  0  0  0  0  0  0  0  0  0  0
   24.1707  -10.2000  -14.6304 C   0  0  0  0  0  0  0  0  0  0  0  0
   22.6094  -10.2521  -14.5893 C   0  0  1  0  0  0  0  0  0  0  0  0
   22.2856  -10.0841  -13.1358 C   0  0  0  0  0  0  0  0  0  0  0  0
   22.1721   -9.1923  -15.5032 C   0  0  0  0  0  0  0  0  0  0  0  0
   20.7533   -8.9031  -15.7641 C   0  0  2  0  0  0  0  0  0  0  0  0
   20.3517   -9.9171  -16.8017 N   0  0  0  0  0  0  0  0  0  0  0  0
   20.3046   -7.6009  -16.1754 C   0  0  0  0  0  0  0  0  0  0  0  0
   20.8348   -7.0987  -17.2339 O   0  0  0  0  0  0  0  0  0  0  0  0
   19.3248   -6.7804  -15.5630 N   0  0  0  0  0  0  0  0  0  0  0  0
   18.9460   -5.4944  -16.1696 C   0  0  1  0  0  0  0  0  0  0  0  0
   17.6054   -5.0539  -15.5940 C   0  0  0  0  0  0  0  0  0  0  0  0
   16.4974   -6.0290  -15.8564 C   0  0  0  0  0  0  0  0  0  0  0  0
   15.7086   -5.5305  -17.0088 C   0  0  0  0  0  0  0  0  0  0  0  0
   16.0108   -5.8330  -18.1760 O   0  0  0  0  0  0  0  0  0  0  0  0
   20.0168   -4.5168  -15.9914 C   0  0  0  0  0  0  0  0  0  0  0  0
   21.2007   -4.7678  -15.3154 O   0  0  0  0  0  0  0  0  0  0  0  0
   14.6199   -4.7163  -16.7657 O   0  0  0  0  0  0  0  0  0  0  0  0
   19.8844   -3.3621  -16.4708 O   0  0  0  0  0  0  0  0  0  0  0  0
  2  3  1  0
  2  1  1  0
  3  4  1  6
  5  6  1  1
  5  3  1  0
  7  5  1  0
  8  7  2  0
 10 12  1  0
 10  9  1  1
 11 10  1  0
 13 12  1  6
 13 15  1  0
 13 14  1  0
 14  7  1  0
 15 16  2  0
 17 18  1  0
 17 15  1  0
 19 20  1  0
 18 19  1  1
 20 21  1  0
 21 25  1  0
 21 22  2  0
 23 24  1  0
 23 18  1  0
 26 23  2  0
M  END
$$$$
