ILE.pdb
     RDKit          3D

 26 25  0  0  1  0  0  0  0  0999 V2000
   19.5577  -23.9362   -6.6947 C   0  0  0  0  0  0  0  0  0  0  0  0
   19.7232  -23.7008   -8.1575 C   0  0  0  0  0  0  0  0  0  0  0  0
   18.4797  -23.3109   -8.8938 C   0  0  2  0  0  0  0  0  0  0  0  0
   17.3874  -24.3642   -8.7980 C   0  0  0  0  0  0  0  0  0  0  0  0
   18.7274  -23.1382  -10.3850 C   0  0  2  0  0  0  0  0  0  0  0  0
   19.1896  -24.4391  -10.8626 N   0  0  0  0  0  0  0  0  0  0  0  0
   19.7612  -22.1201  -10.6546 C   0  0  0  0  0  0  0  0  0  0  0  0
   19.4131  -20.9074  -10.5700 O   0  0  0  0  0  0  0  0  0  0  0  0
   24.6542  -19.9220  -10.4663 C   0  0  0  0  0  0  0  0  0  0  0  0
   24.6390  -21.2164  -11.3416 C   0  0  1  0  0  0  0  0  0  0  0  0
   25.9122  -21.9134  -10.9687 C   0  0  0  0  0  0  0  0  0  0  0  0
   23.3802  -21.8870  -11.0022 C   0  0  0  0  0  0  0  0  0  0  0  0
   22.0672  -21.3721  -11.4211 C   0  0  2  0  0  0  0  0  0  0  0  0
   21.0956  -22.4402  -10.9956 N   0  0  0  0  0  0  0  0  0  0  0  0
   21.7947  -20.9985  -12.7822 C   0  0  0  0  0  0  0  0  0  0  0  0
   21.6088  -21.9466  -13.6309 O   0  0  0  0  0  0  0  0  0  0  0  0
   21.6896  -19.6940  -13.3261 N   0  0  0  0  0  0  0  0  0  0  0  0
   21.3076  -19.5033  -14.7343 C   0  0  1  0  0  0  0  0  0  0  0  0
   19.9453  -18.8221  -14.7873 C   0  0  0  0  0  0  0  0  0  0  0  0
   19.4991  -18.4948  -16.1806 C   0  0  0  0  0  0  0  0  0  0  0  0
   18.1850  -17.8133  -16.0952 C   0  0  0  0  0  0  0  0  0  0  0  0
   18.0597  -16.6145  -16.3991 O   0  0  0  0  0  0  0  0  0  0  0  0
   22.3580  -18.7828  -15.4496 C   0  0  0  0  0  0  0  0  0  0  0  0
   22.4730  -18.7349  -16.8302 O   0  0  0  0  0  0  0  0  0  0  0  0
   17.0884  -18.5366  -15.6691 O   0  0  0  0  0  0  0  0  0  0  0  0
   23.2307  -18.1559  -14.7969 O   0  0  0  0  0  0  0  0  0  0  0  0
  2  3  1  0
  2  1  1  0
  3  4  1  6
  5  6  1  1
  5  3  1  0
  7  5  1  0
  8  7  2  0
 10 12  1  0
 10  9  1  1
 11 10  1  0
 13 12  1  6
 13 15  1  0
 13 14  1  0
 14  7  1  0
 15 16  2  0
 17 18  1  0
 17 15  1  0
 19 20  1  0
 18 19  1  1
 20 21  1  0
 21 25  1  0
 21 22  2  0
 23 24  1  0
 23 18  1  0
 26 23  2  0
M  END
$$$$
