ILE.pdb
     RDKit          3D

 26 25  0  0  1  0  0  0  0  0999 V2000
   27.8507  -17.3076  -18.1292 C   0  0  0  0  0  0  0  0  0  0  0  0
   28.3614  -18.2795  -17.1207 C   0  0  0  0  0  0  0  0  0  0  0  0
   27.3169  -18.9565  -16.2892 C   0  0  2  0  0  0  0  0  0  0  0  0
   26.5547  -17.9856  -15.4014 C   0  0  0  0  0  0  0  0  0  0  0  0
   27.9182  -19.9738  -15.3310 C   0  0  2  0  0  0  0  0  0  0  0  0
   28.4853  -21.0240  -16.1735 N   0  0  0  0  0  0  0  0  0  0  0  0
   26.8973  -20.5571  -14.4393 C   0  0  0  0  0  0  0  0  0  0  0  0
   26.0612  -21.3502  -14.9598 O   0  0  0  0  0  0  0  0  0  0  0  0
   26.3843  -20.8561   -8.4329 C   0  0  0  0  0  0  0  0  0  0  0  0
   25.4839  -21.2077   -9.6607 C   0  0  1  0  0  0  0  0  0  0  0  0
   24.1848  -20.5253   -9.3567 C   0  0  0  0  0  0  0  0  0  0  0  0
   26.2354  -20.7355  -10.8277 C   0  0  0  0  0  0  0  0  0  0  0  0
   25.7249  -20.8529  -12.2025 C   0  0  2  0  0  0  0  0  0  0  0  0
   26.8194  -20.2710  -13.0566 N   0  0  0  0  0  0  0  0  0  0  0  0
   24.4639  -20.2871  -12.5975 C   0  0  0  0  0  0  0  0  0  0  0  0
   24.3610  -19.0053  -12.5890 O   0  0  0  0  0  0  0  0  0  0  0  0
   23.2934  -20.9678  -13.0161 N   0  0  0  0  0  0  0  0  0  0  0  0
   22.0868  -20.2129  -13.3897 C   0  0  1  0  0  0  0  0  0  0  0  0
   21.6855  -20.5963  -14.8090 C   0  0  0  0  0  0  0  0  0  0  0  0
   20.9948  -21.9242  -14.8924 C   0  0  0  0  0  0  0  0  0  0  0  0
   20.7495  -22.2267  -16.3231 C   0  0  0  0  0  0  0  0  0  0  0  0
   21.1167  -21.4470  -17.2189 O   0  0  0  0  0  0  0  0  0  0  0  0
   21.0332  -20.4220  -12.3996 C   0  0  0  0  0  0  0  0  0  0  0  0
   19.9238  -19.6038  -12.2530 O   0  0  0  0  0  0  0  0  0  0  0  0
   20.1007  -23.4007  -16.6519 O   0  0  0  0  0  0  0  0  0  0  0  0
   21.1105  -21.4000  -11.6134 O   0  0  0  0  0  0  0  0  0  0  0  0
  2  3  1  0
  2  1  1  0
  3  4  1  1
  5  6  1  6
  5  3  1  0
  7  5  1  0
  8  7  2  0
 10 12  1  0
 10  9  1  1
 11 10  1  0
 13 12  1  1
 13 15  1  0
 13 14  1  0
 14  7  1  0
 15 16  2  0
 17 18  1  0
 17 15  1  0
 19 20  1  0
 18 19  1  6
 20 21  1  0
 21 25  1  0
 21 22  2  0
 23 24  1  0
 23 18  1  0
 26 23  2  0
M  END
$$$$
