ILE.pdb
     RDKit          3D

 26 25  0  0  1  0  0  0  0  0999 V2000
   15.6723  -20.6021  -20.7235 C   0  0  0  0  0  0  0  0  0  0  0  0
   16.2339  -21.7392  -19.9398 C   0  0  0  0  0  0  0  0  0  0  0  0
   16.4368  -21.4796  -18.4796 C   0  0  2  0  0  0  0  0  0  0  0  0
   15.2105  -20.8727  -17.8165 C   0  0  0  0  0  0  0  0  0  0  0  0
   17.5546  -20.4794  -18.2256 C   0  0  2  0  0  0  0  0  0  0  0  0
   18.7788  -21.1277  -18.6895 N   0  0  0  0  0  0  0  0  0  0  0  0
   17.6839  -20.1541  -16.7920 C   0  0  0  0  0  0  0  0  0  0  0  0
   17.8937  -21.1159  -15.9984 O   0  0  0  0  0  0  0  0  0  0  0  0
   19.7900  -17.7340  -12.6680 C   0  0  0  0  0  0  0  0  0  0  0  0
   18.8454  -16.7411  -13.4189 C   0  0  1  0  0  0  0  0  0  0  0  0
   19.6322  -15.4665  -13.4647 C   0  0  0  0  0  0  0  0  0  0  0  0
   18.5491  -17.3955  -14.6971 C   0  0  0  0  0  0  0  0  0  0  0  0
   17.6684  -18.5692  -14.8038 C   0  0  2  0  0  0  0  0  0  0  0  0
   17.5851  -18.8387  -16.2824 N   0  0  0  0  0  0  0  0  0  0  0  0
   16.3441  -18.5810  -14.2446 C   0  0  0  0  0  0  0  0  0  0  0  0
   15.4638  -17.8188  -14.7903 O   0  0  0  0  0  0  0  0  0  0  0  0
   15.8632  -19.3464  -13.1531 N   0  0  0  0  0  0  0  0  0  0  0  0
   14.4749  -19.1921  -12.6902 C   0  0  1  0  0  0  0  0  0  0  0  0
   14.2089  -20.2057  -11.5837 C   0  0  0  0  0  0  0  0  0  0  0  0
   12.7821  -20.2220  -11.1240 C   0  0  0  0  0  0  0  0  0  0  0  0
   12.5825  -21.4278  -10.2844 C   0  0  0  0  0  0  0  0  0  0  0  0
   11.4446  -21.8733  -10.0565 O   0  0  0  0  0  0  0  0  0  0  0  0
   14.2242  -17.8075  -12.2976 C   0  0  0  0  0  0  0  0  0  0  0  0
   13.0790  -17.0972  -12.6227 O   0  0  0  0  0  0  0  0  0  0  0  0
   13.6907  -22.0578   -9.7531 O   0  0  0  0  0  0  0  0  0  0  0  0
   15.0863  -17.1924  -11.6202 O   0  0  0  0  0  0  0  0  0  0  0  0
  2  3  1  0
  2  1  1  0
  3  4  1  6
  5  6  1  1
  5  3  1  0
  7  5  1  0
  8  7  2  0
 10 12  1  0
 10  9  1  1
 11 10  1  0
 13 12  1  6
 13 15  1  0
 13 14  1  0
 14  7  1  0
 15 16  2  0
 17 18  1  0
 17 15  1  0
 19 20  1  0
 18 19  1  1
 20 21  1  0
 21 25  1  0
 21 22  2  0
 23 24  1  0
 23 18  1  0
 26 23  2  0
M  END
$$$$
