ILE.pdb
     RDKit          3D

 26 25  0  0  1  0  0  0  0  0999 V2000
   23.6603  -20.0726  -14.9761 C   0  0  0  0  0  0  0  0  0  0  0  0
   24.8662  -20.0580  -14.0996 C   0  0  0  0  0  0  0  0  0  0  0  0
   24.6619  -20.5787  -12.7111 C   0  0  2  0  0  0  0  0  0  0  0  0
   23.4895  -19.9175  -12.0040 C   0  0  0  0  0  0  0  0  0  0  0  0
   25.8619  -20.3087  -11.8158 C   0  0  2  0  0  0  0  0  0  0  0  0
   26.9799  -21.0241  -12.4260 N   0  0  0  0  0  0  0  0  0  0  0  0
   25.6470  -20.8108  -10.4448 C   0  0  0  0  0  0  0  0  0  0  0  0
   25.4951  -22.0582  -10.3040 O   0  0  0  0  0  0  0  0  0  0  0  0
   28.0904  -18.4717   -6.0609 C   0  0  0  0  0  0  0  0  0  0  0  0
   27.6991  -19.7016   -6.9419 C   0  0  1  0  0  0  0  0  0  0  0  0
   28.2624  -20.8705   -6.1920 C   0  0  0  0  0  0  0  0  0  0  0  0
   26.2407  -19.6245   -7.0714 C   0  0  0  0  0  0  0  0  0  0  0  0
   25.4687  -20.5432   -7.9226 C   0  0  2  0  0  0  0  0  0  0  0  0
   25.6058  -19.9708   -9.3080 N   0  0  0  0  0  0  0  0  0  0  0  0
   24.0852  -20.8377   -7.6662 C   0  0  0  0  0  0  0  0  0  0  0  0
   23.2116  -19.9950   -8.0910 O   0  0  0  0  0  0  0  0  0  0  0  0
   23.5402  -21.9647   -7.0019 N   0  0  0  0  0  0  0  0  0  0  0  0
   22.0822  -22.1400   -6.9078 C   0  0  1  0  0  0  0  0  0  0  0  0
   21.7812  -23.5984   -6.5833 C   0  0  0  0  0  0  0  0  0  0  0  0
   20.3156  -23.8888   -6.4601 C   0  0  0  0  0  0  0  0  0  0  0  0
   20.1544  -25.3381   -6.1915 C   0  0  0  0  0  0  0  0  0  0  0  0
   21.1407  -26.0777   -6.0320 O   0  0  0  0  0  0  0  0  0  0  0  0
   21.5201  -21.1920   -5.9490 C   0  0  0  0  0  0  0  0  0  0  0  0
   22.2182  -20.6558   -4.8780 O   0  0  0  0  0  0  0  0  0  0  0  0
   18.8787  -25.8622   -6.1191 O   0  0  0  0  0  0  0  0  0  0  0  0
   20.3262  -20.8195   -6.0769 O   0  0  0  0  0  0  0  0  0  0  0  0
  2  3  1  0
  2  1  1  0
  3  4  1  1
  5  6  1  6
  5  3  1  0
  7  5  1  0
  8  7  2  0
 10 12  1  0
 10  9  1  1
 11 10  1  0
 13 12  1  1
 13 15  1  0
 13 14  1  0
 14  7  1  0
 15 16  2  0
 17 18  1  0
 17 15  1  0
 19 20  1  0
 18 19  1  1
 20 21  1  0
 21 25  1  0
 21 22  2  0
 23 24  1  0
 23 18  1  0
 26 23  2  0
M  END
$$$$
