ILE.pdb
     RDKit          3D

 26 25  0  0  1  0  0  0  0  0999 V2000
   17.0572  -10.1430  -21.7331 C   0  0  0  0  0  0  0  0  0  0  0  0
   17.9279  -10.7319  -20.6758 C   0  0  0  0  0  0  0  0  0  0  0  0
   18.2946   -9.8111  -19.5541 C   0  0  2  0  0  0  0  0  0  0  0  0
   19.1683   -8.6527  -20.0087 C   0  0  0  0  0  0  0  0  0  0  0  0
   19.1067  -10.5151  -18.4773 C   0  0  2  0  0  0  0  0  0  0  0  0
   18.2364  -11.5609  -17.9455 N   0  0  0  0  0  0  0  0  0  0  0  0
   19.4896   -9.5942  -17.3895 C   0  0  0  0  0  0  0  0  0  0  0  0
   18.5573   -9.1227  -16.6773 O   0  0  0  0  0  0  0  0  0  0  0  0
   23.8509  -10.0175  -14.0616 C   0  0  0  0  0  0  0  0  0  0  0  0
   22.3513   -9.7803  -14.4314 C   0  0  1  0  0  0  0  0  0  0  0  0
   21.7017   -9.4859  -13.1134 C   0  0  0  0  0  0  0  0  0  0  0  0
   22.3736   -8.7036  -15.4263 C   0  0  0  0  0  0  0  0  0  0  0  0
   21.1545   -8.1939  -16.0733 C   0  0  2  0  0  0  0  0  0  0  0  0
   20.8280   -9.2273  -17.1181 N   0  0  0  0  0  0  0  0  0  0  0  0
   21.0971   -6.8857  -16.6664 C   0  0  0  0  0  0  0  0  0  0  0  0
   21.7429   -6.7039  -17.7635 O   0  0  0  0  0  0  0  0  0  0  0  0
   20.3986   -5.7444  -16.1995 N   0  0  0  0  0  0  0  0  0  0  0  0
   20.4315   -4.4874  -16.9638 C   0  0  1  0  0  0  0  0  0  0  0  0
   19.0520   -4.2382  -17.5619 C   0  0  0  0  0  0  0  0  0  0  0  0
   18.9712   -2.9722  -18.3607 C   0  0  0  0  0  0  0  0  0  0  0  0
   17.5768   -2.8191  -18.8411 C   0  0  0  0  0  0  0  0  0  0  0  0
   17.2422   -1.8560  -19.5524 O   0  0  0  0  0  0  0  0  0  0  0  0
   20.9177   -3.3969  -16.1222 C   0  0  0  0  0  0  0  0  0  0  0  0
   21.6656   -2.3253  -16.5848 O   0  0  0  0  0  0  0  0  0  0  0  0
   16.6432   -3.7722  -18.4846 O   0  0  0  0  0  0  0  0  0  0  0  0
   20.6573   -3.4034  -14.8923 O   0  0  0  0  0  0  0  0  0  0  0  0
  2  3  1  0
  2  1  1  0
  3  4  1  6
  5  6  1  1
  5  3  1  0
  7  5  1  0
  8  7  2  0
 10 12  1  0
 10  9  1  1
 11 10  1  0
 13 12  1  6
 13 15  1  0
 13 14  1  0
 14  7  1  0
 15 16  2  0
 17 18  1  0
 17 15  1  0
 19 20  1  0
 18 19  1  1
 20 21  1  0
 21 25  1  0
 21 22  2  0
 23 24  1  0
 23 18  1  0
 26 23  2  0
M  END
$$$$
