ILE.pdb
     RDKit          3D

 26 25  0  0  1  0  0  0  0  0999 V2000
   18.0865   -9.1877  -21.5725 C   0  0  0  0  0  0  0  0  0  0  0  0
   19.0928  -10.0789  -20.9276 C   0  0  0  0  0  0  0  0  0  0  0  0
   19.5732   -9.6412  -19.5792 C   0  0  2  0  0  0  0  0  0  0  0  0
   20.3163   -8.3155  -19.6238 C   0  0  0  0  0  0  0  0  0  0  0  0
   20.5647  -10.6257  -18.9771 C   0  0  2  0  0  0  0  0  0  0  0  0
   19.8437  -11.8907  -18.8580 N   0  0  0  0  0  0  0  0  0  0  0  0
   21.0237  -10.1943  -17.6425 C   0  0  0  0  0  0  0  0  0  0  0  0
   20.1794  -10.2308  -16.7019 O   0  0  0  0  0  0  0  0  0  0  0  0
   25.8178  -11.3785  -15.3185 C   0  0  0  0  0  0  0  0  0  0  0  0
   24.2824  -11.2386  -15.5732 C   0  0  1  0  0  0  0  0  0  0  0  0
   23.6619  -11.8605  -14.3591 C   0  0  0  0  0  0  0  0  0  0  0  0
   24.0633   -9.8039  -15.7812 C   0  0  0  0  0  0  0  0  0  0  0  0
   22.7303   -9.2302  -16.0229 C   0  0  2  0  0  0  0  0  0  0  0  0
   22.3411   -9.7524  -17.3801 N   0  0  0  0  0  0  0  0  0  0  0  0
   22.4904   -7.8138  -15.9734 C   0  0  0  0  0  0  0  0  0  0  0  0
   22.9490   -7.1011  -16.9407 O   0  0  0  0  0  0  0  0  0  0  0  0
   21.7899   -7.0801  -14.9837 N   0  0  0  0  0  0  0  0  0  0  0  0
   21.6511   -5.6197  -15.0988 C   0  0  1  0  0  0  0  0  0  0  0  0
   20.1783   -5.2783  -15.2907 C   0  0  0  0  0  0  0  0  0  0  0  0
   19.9109   -3.8037  -15.3299 C   0  0  0  0  0  0  0  0  0  0  0  0
   18.4703   -3.6045  -15.6192 C   0  0  0  0  0  0  0  0  0  0  0  0
   18.0558   -3.4992  -16.7864 O   0  0  0  0  0  0  0  0  0  0  0  0
   22.2664   -4.9616  -13.9488 C   0  0  0  0  0  0  0  0  0  0  0  0
   22.6133   -5.6062  -12.7716 O   0  0  0  0  0  0  0  0  0  0  0  0
   17.5839   -3.5375  -14.5623 O   0  0  0  0  0  0  0  0  0  0  0  0
   22.5087   -3.7290  -13.9999 O   0  0  0  0  0  0  0  0  0  0  0  0
  2  3  1  0
  2  1  1  0
  3  4  1  6
  5  6  1  1
  5  3  1  0
  7  5  1  0
  8  7  2  0
 10 12  1  0
 10  9  1  1
 11 10  1  0
 13 12  1  6
 13 15  1  0
 13 14  1  0
 14  7  1  0
 15 16  2  0
 17 18  1  0
 17 15  1  0
 19 20  1  0
 18 19  1  1
 20 21  1  0
 21 25  1  0
 21 22  2  0
 23 24  1  0
 23 18  1  0
 26 23  2  0
M  END
$$$$
