ILE.pdb
     RDKit          3D

 26 25  0  0  1  0  0  0  0  0999 V2000
   41.7678   -2.2538   -4.4294 C   0  0  0  0  0  0  0  0  0  0  0  0
   41.8182   -3.7324   -4.2455 C   0  0  0  0  0  0  0  0  0  0  0  0
   41.3660   -4.5450   -5.4184 C   0  0  2  0  0  0  0  0  0  0  0  0
   39.9189   -4.2726   -5.7970 C   0  0  0  0  0  0  0  0  0  0  0  0
   41.4223   -6.0389   -5.1360 C   0  0  2  0  0  0  0  0  0  0  0  0
   42.8225   -6.3335   -4.8412 N   0  0  0  0  0  0  0  0  0  0  0  0
   40.9879   -6.8337   -6.3011 C   0  0  0  0  0  0  0  0  0  0  0  0
   41.6379   -6.6860   -7.3756 O   0  0  0  0  0  0  0  0  0  0  0  0
   39.0551  -11.4266   -8.5962 C   0  0  0  0  0  0  0  0  0  0  0  0
   38.0019  -10.5909   -7.7998 C   0  0  1  0  0  0  0  0  0  0  0  0
   37.1727  -11.6296   -7.1076 C   0  0  0  0  0  0  0  0  0  0  0  0
   38.7941   -9.6902   -6.9566 C   0  0  0  0  0  0  0  0  0  0  0  0
   39.4837   -8.5046   -7.4888 C   0  0  2  0  0  0  0  0  0  0  0  0
   39.8982   -7.7342   -6.2637 N   0  0  0  0  0  0  0  0  0  0  0  0
   38.8519   -7.6101   -8.4199 C   0  0  0  0  0  0  0  0  0  0  0  0
   37.9571   -6.8099   -7.9586 O   0  0  0  0  0  0  0  0  0  0  0  0
   39.0959   -7.4803   -9.8099 N   0  0  0  0  0  0  0  0  0  0  0  0
   38.4349   -6.4189  -10.5857 C   0  0  1  0  0  0  0  0  0  0  0  0
   39.2632   -5.1438  -10.4815 C   0  0  0  0  0  0  0  0  0  0  0  0
   38.7607   -4.0362  -11.3578 C   0  0  0  0  0  0  0  0  0  0  0  0
   39.6746   -2.8784  -11.2063 C   0  0  0  0  0  0  0  0  0  0  0  0
   40.6933   -2.7651  -11.9096 O   0  0  0  0  0  0  0  0  0  0  0  0
   38.2045   -6.8646  -11.9576 C   0  0  0  0  0  0  0  0  0  0  0  0
   37.4160   -6.1906  -12.8772 O   0  0  0  0  0  0  0  0  0  0  0  0
   39.3755   -1.9153  -10.2628 O   0  0  0  0  0  0  0  0  0  0  0  0
   38.7428   -7.9271  -12.3599 O   0  0  0  0  0  0  0  0  0  0  0  0
  2  3  1  0
  2  1  1  0
  3  4  1  1
  5  6  1  6
  5  3  1  0
  7  5  1  0
  8  7  2  0
 10 12  1  0
 10  9  1  6
 11 10  1  0
 13 12  1  1
 13 15  1  0
 13 14  1  0
 14  7  1  0
 15 16  2  0
 17 18  1  0
 17 15  1  0
 19 20  1  0
 18 19  1  6
 20 21  1  0
 21 25  1  0
 21 22  2  0
 23 24  1  0
 23 18  1  0
 26 23  2  0
M  END
$$$$
