ILE.pdb
     RDKit          3D

 26 25  0  0  1  0  0  0  0  0999 V2000
   19.3105  -16.2971  -16.3062 C   0  0  0  0  0  0  0  0  0  0  0  0
   17.9841  -15.7671  -15.8792 C   0  0  0  0  0  0  0  0  0  0  0  0
   17.7642  -14.3062  -16.1201 C   0  0  2  0  0  0  0  0  0  0  0  0
   18.7884  -13.4348  -15.4106 C   0  0  0  0  0  0  0  0  0  0  0  0
   16.4170  -13.8351  -15.5929 C   0  0  2  0  0  0  0  0  0  0  0  0
   15.4180  -14.6632  -16.2639 N   0  0  0  0  0  0  0  0  0  0  0  0
   16.1708  -12.4149  -15.9095 C   0  0  0  0  0  0  0  0  0  0  0  0
   16.3959  -12.0404  -17.0960 O   0  0  0  0  0  0  0  0  0  0  0  0
   13.1820   -8.2932  -16.5579 C   0  0  0  0  0  0  0  0  0  0  0  0
   13.4277   -8.4762  -15.0255 C   0  0  1  0  0  0  0  0  0  0  0  0
   12.0640   -8.3169  -14.4247 C   0  0  0  0  0  0  0  0  0  0  0  0
   14.0694   -9.7884  -14.9000 C   0  0  0  0  0  0  0  0  0  0  0  0
   15.4494  -10.0438  -15.3414 C   0  0  2  0  0  0  0  0  0  0  0  0
   15.7028  -11.4777  -14.9596 N   0  0  0  0  0  0  0  0  0  0  0  0
   16.5522   -9.2339  -14.9004 C   0  0  0  0  0  0  0  0  0  0  0  0
   17.0161   -9.4558  -13.7217 O   0  0  0  0  0  0  0  0  0  0  0  0
   17.2207   -8.2061  -15.6112 N   0  0  0  0  0  0  0  0  0  0  0  0
   18.3618   -7.5025  -15.0044 C   0  0  1  0  0  0  0  0  0  0  0  0
   19.6544   -8.1004  -15.5470 C   0  0  0  0  0  0  0  0  0  0  0  0
   20.8850   -7.4005  -15.0538 C   0  0  0  0  0  0  0  0  0  0  0  0
   22.0499   -7.9390  -15.7966 C   0  0  0  0  0  0  0  0  0  0  0  0
   21.9101   -8.8148  -16.6676 O   0  0  0  0  0  0  0  0  0  0  0  0
   18.2397   -6.0627  -15.2190 C   0  0  0  0  0  0  0  0  0  0  0  0
   18.9018   -5.1013  -14.4714 O   0  0  0  0  0  0  0  0  0  0  0  0
   23.3076   -7.4484  -15.5055 O   0  0  0  0  0  0  0  0  0  0  0  0
   17.4909   -5.6365  -16.1346 O   0  0  0  0  0  0  0  0  0  0  0  0
  2  3  1  0
  2  1  1  0
  3  4  1  1
  5  6  1  6
  5  3  1  0
  7  5  1  0
  8  7  2  0
 10 12  1  0
 10  9  1  6
 11 10  1  0
 13 12  1  1
 13 15  1  0
 13 14  1  0
 14  7  1  0
 15 16  2  0
 17 18  1  0
 17 15  1  0
 19 20  1  0
 18 19  1  6
 20 21  1  0
 21 25  1  0
 21 22  2  0
 23 24  1  0
 23 18  1  0
 26 23  2  0
M  END
$$$$
