ILE.pdb
     RDKit          3D

 26 25  0  0  1  0  0  0  0  0999 V2000
   17.3777  -10.4898  -21.7491 C   0  0  0  0  0  0  0  0  0  0  0  0
   18.3760  -11.2755  -20.9691 C   0  0  0  0  0  0  0  0  0  0  0  0
   18.8544  -10.6363  -19.7029 C   0  0  2  0  0  0  0  0  0  0  0  0
   19.6073   -9.3387  -19.9498 C   0  0  0  0  0  0  0  0  0  0  0  0
   19.8363  -11.5215  -18.9499 C   0  0  2  0  0  0  0  0  0  0  0  0
   19.1171  -12.7621  -18.6709 N   0  0  0  0  0  0  0  0  0  0  0  0
   20.2658  -10.9062  -17.6791 C   0  0  0  0  0  0  0  0  0  0  0  0
   19.3712  -10.6850  -16.8134 O   0  0  0  0  0  0  0  0  0  0  0  0
   24.6893  -12.2237  -14.7421 C   0  0  0  0  0  0  0  0  0  0  0  0
   23.1982  -11.9278  -15.1042 C   0  0  1  0  0  0  0  0  0  0  0  0
   22.4721  -12.1190  -13.8073 C   0  0  0  0  0  0  0  0  0  0  0  0
   23.2094  -10.5781  -15.6768 C   0  0  0  0  0  0  0  0  0  0  0  0
   21.9838   -9.8867  -16.1062 C   0  0  2  0  0  0  0  0  0  0  0  0
   21.6084  -10.5627  -17.3977 N   0  0  0  0  0  0  0  0  0  0  0  0
   21.9368   -8.4613  -16.2862 C   0  0  0  0  0  0  0  0  0  0  0  0
   22.5256   -7.9751  -17.3210 O   0  0  0  0  0  0  0  0  0  0  0  0
   21.3042   -7.4968  -15.4627 N   0  0  0  0  0  0  0  0  0  0  0  0
   21.3154   -6.0743  -15.8393 C   0  0  1  0  0  0  0  0  0  0  0  0
   19.8816   -5.6168  -16.0788 C   0  0  0  0  0  0  0  0  0  0  0  0
   19.7700   -4.1562  -16.3979 C   0  0  0  0  0  0  0  0  0  0  0  0
   18.3371   -3.8393  -16.6100 C   0  0  0  0  0  0  0  0  0  0  0  0
   17.9603   -2.6757  -16.8319 O   0  0  0  0  0  0  0  0  0  0  0  0
   22.0265   -5.2907  -14.8322 C   0  0  0  0  0  0  0  0  0  0  0  0
   22.5239   -4.0138  -15.0421 O   0  0  0  0  0  0  0  0  0  0  0  0
   17.4152   -4.8663  -16.5582 O   0  0  0  0  0  0  0  0  0  0  0  0
   22.2163   -5.7804  -13.6900 O   0  0  0  0  0  0  0  0  0  0  0  0
  2  3  1  0
  2  1  1  0
  3  4  1  6
  5  6  1  1
  5  3  1  0
  7  5  1  0
  8  7  2  0
 10 12  1  0
 10  9  1  1
 11 10  1  0
 13 12  1  6
 13 15  1  0
 13 14  1  0
 14  7  1  0
 15 16  2  0
 17 18  1  0
 17 15  1  0
 19 20  1  0
 18 19  1  1
 20 21  1  0
 21 25  1  0
 21 22  2  0
 23 24  1  0
 23 18  1  0
 26 23  2  0
M  END
$$$$
