ILE.pdb
     RDKit          3D

 26 25  0  0  1  0  0  0  0  0999 V2000
   12.7682  -26.7815   -0.4183 C   0  0  0  0  0  0  0  0  0  0  0  0
   13.2265  -25.4318   -0.8552 C   0  0  0  0  0  0  0  0  0  0  0  0
   14.1504  -24.7266    0.0880 C   0  0  2  0  0  0  0  0  0  0  0  0
   13.4807  -24.3668    1.4048 C   0  0  0  0  0  0  0  0  0  0  0  0
   14.6428  -23.4020   -0.4756 C   0  0  2  0  0  0  0  0  0  0  0  0
   15.3382  -23.7341   -1.7167 N   0  0  0  0  0  0  0  0  0  0  0  0
   15.5775  -22.7277    0.4460 C   0  0  0  0  0  0  0  0  0  0  0  0
   16.6783  -23.3055    0.6767 O   0  0  0  0  0  0  0  0  0  0  0  0
   18.5782  -18.8665    2.4796 C   0  0  0  0  0  0  0  0  0  0  0  0
   17.1009  -18.4191    2.2359 C   0  0  1  0  0  0  0  0  0  0  0  0
   17.2386  -17.0874    1.5625 C   0  0  0  0  0  0  0  0  0  0  0  0
   16.5001  -19.5075    1.4587 C   0  0  0  0  0  0  0  0  0  0  0  0
   16.2802  -20.8525    2.0128 C   0  0  2  0  0  0  0  0  0  0  0  0
   15.2971  -21.4884    1.0667 N   0  0  0  0  0  0  0  0  0  0  0  0
   15.8363  -21.0559    3.3648 C   0  0  0  0  0  0  0  0  0  0  0  0
   14.5781  -20.9322    3.6002 O   0  0  0  0  0  0  0  0  0  0  0  0
   16.6160  -21.3935    4.4991 N   0  0  0  0  0  0  0  0  0  0  0  0
   15.9971  -21.4688    5.8320 C   0  0  1  0  0  0  0  0  0  0  0  0
   16.5181  -22.7092    6.5478 C   0  0  0  0  0  0  0  0  0  0  0  0
   15.9689  -22.8696    7.9335 C   0  0  0  0  0  0  0  0  0  0  0  0
   16.5063  -24.1307    8.4987 C   0  0  0  0  0  0  0  0  0  0  0  0
   17.6675  -24.1971    8.9375 O   0  0  0  0  0  0  0  0  0  0  0  0
   16.2212  -20.2247    6.5642 C   0  0  0  0  0  0  0  0  0  0  0  0
   15.4562  -19.8013    7.6399 O   0  0  0  0  0  0  0  0  0  0  0  0
   15.6900  -25.2441    8.5327 O   0  0  0  0  0  0  0  0  0  0  0  0
   17.1625  -19.4663    6.2186 O   0  0  0  0  0  0  0  0  0  0  0  0
  2  3  1  0
  2  1  1  0
  3  4  1  1
  5  6  1  6
  5  3  1  0
  7  5  1  0
  8  7  2  0
 10 12  1  0
 10  9  1  6
 11 10  1  0
 13 12  1  6
 13 15  1  0
 13 14  1  0
 14  7  1  0
 15 16  2  0
 17 18  1  0
 17 15  1  0
 19 20  1  0
 18 19  1  1
 20 21  1  0
 21 25  1  0
 21 22  2  0
 23 24  1  0
 23 18  1  0
 26 23  2  0
M  END
$$$$
