ILE.pdb
     RDKit          3D

 26 25  0  0  1  0  0  0  0  0999 V2000
   27.4577  -18.2800  -17.9063 C   0  0  0  0  0  0  0  0  0  0  0  0
   27.8636  -18.9327  -16.6288 C   0  0  0  0  0  0  0  0  0  0  0  0
   26.7459  -19.4946  -15.8069 C   0  0  2  0  0  0  0  0  0  0  0  0
   25.7136  -18.4452  -15.4263 C   0  0  0  0  0  0  0  0  0  0  0  0
   27.2369  -20.0593  -14.4822 C   0  0  2  0  0  0  0  0  0  0  0  0
   28.2134  -21.0892  -14.8286 N   0  0  0  0  0  0  0  0  0  0  0  0
   26.1391  -20.6651  -13.7040 C   0  0  0  0  0  0  0  0  0  0  0  0
   25.6530  -21.7486  -14.1384 O   0  0  0  0  0  0  0  0  0  0  0  0
   25.7993  -19.9676   -8.2430 C   0  0  0  0  0  0  0  0  0  0  0  0
   25.9650  -20.6657   -9.6313 C   0  0  1  0  0  0  0  0  0  0  0  0
   26.2165  -22.1008   -9.2804 C   0  0  0  0  0  0  0  0  0  0  0  0
   24.7301  -20.3570  -10.3589 C   0  0  0  0  0  0  0  0  0  0  0  0
   24.5082  -20.7622  -11.7557 C   0  0  2  0  0  0  0  0  0  0  0  0
   25.6216  -20.0949  -12.5180 N   0  0  0  0  0  0  0  0  0  0  0  0
   23.2616  -20.5212  -12.4296 C   0  0  0  0  0  0  0  0  0  0  0  0
   22.8431  -19.3065  -12.4848 O   0  0  0  0  0  0  0  0  0  0  0  0
   22.4162  -21.4635  -13.0668 N   0  0  0  0  0  0  0  0  0  0  0  0
   21.1268  -21.0410  -13.6362 C   0  0  1  0  0  0  0  0  0  0  0  0
   20.9661  -21.6723  -15.0140 C   0  0  0  0  0  0  0  0  0  0  0  0
   22.1258  -21.4086  -15.9267 C   0  0  0  0  0  0  0  0  0  0  0  0
   21.8245  -22.0212  -17.2429 C   0  0  0  0  0  0  0  0  0  0  0  0
   20.7811  -22.6712  -17.4276 O   0  0  0  0  0  0  0  0  0  0  0  0
   20.0396  -21.3530  -12.7116 C   0  0  0  0  0  0  0  0  0  0  0  0
   20.1924  -22.0799  -11.5412 O   0  0  0  0  0  0  0  0  0  0  0  0
   22.7286  -21.8579  -18.2740 O   0  0  0  0  0  0  0  0  0  0  0  0
   18.8767  -20.9499  -12.9679 O   0  0  0  0  0  0  0  0  0  0  0  0
  2  3  1  0
  2  1  1  0
  3  4  1  1
  5  6  1  6
  5  3  1  0
  7  5  1  0
  8  7  2  0
 10 12  1  0
 10  9  1  1
 11 10  1  0
 13 12  1  1
 13 15  1  0
 13 14  1  0
 14  7  1  0
 15 16  2  0
 17 18  1  0
 17 15  1  0
 19 20  1  0
 18 19  1  6
 20 21  1  0
 21 25  1  0
 21 22  2  0
 23 24  1  0
 23 18  1  0
 26 23  2  0
M  END
$$$$
