ILE.pdb
     RDKit          3D

 26 25  0  0  1  0  0  0  0  0999 V2000
   25.4846  -18.1886  -18.0753 C   0  0  0  0  0  0  0  0  0  0  0  0
   25.9910  -19.1924  -17.0963 C   0  0  0  0  0  0  0  0  0  0  0  0
   26.8707  -18.6513  -16.0128 C   0  0  2  0  0  0  0  0  0  0  0  0
   28.1208  -17.9768  -16.5551 C   0  0  0  0  0  0  0  0  0  0  0  0
   27.3854  -19.7475  -15.0919 C   0  0  2  0  0  0  0  0  0  0  0  0
   28.0391  -20.7214  -15.9628 N   0  0  0  0  0  0  0  0  0  0  0  0
   26.2883  -20.4051  -14.3559 C   0  0  0  0  0  0  0  0  0  0  0  0
   25.8474  -21.4926  -14.8271 O   0  0  0  0  0  0  0  0  0  0  0  0
   25.9839  -20.1800   -8.9055 C   0  0  0  0  0  0  0  0  0  0  0  0
   26.0759  -20.7967  -10.3384 C   0  0  1  0  0  0  0  0  0  0  0  0
   26.1988  -22.2687  -10.0853 C   0  0  0  0  0  0  0  0  0  0  0  0
   24.8690  -20.3307  -11.0282 C   0  0  0  0  0  0  0  0  0  0  0  0
   24.6139  -20.5986  -12.4522 C   0  0  2  0  0  0  0  0  0  0  0  0
   25.7239  -19.8792  -13.1708 N   0  0  0  0  0  0  0  0  0  0  0  0
   23.3591  -20.2763  -13.0749 C   0  0  0  0  0  0  0  0  0  0  0  0
   23.1134  -19.0350  -13.3046 O   0  0  0  0  0  0  0  0  0  0  0  0
   22.3358  -21.1645  -13.4900 N   0  0  0  0  0  0  0  0  0  0  0  0
   21.1310  -20.6506  -14.1606 C   0  0  1  0  0  0  0  0  0  0  0  0
   20.7637  -21.5907  -15.3025 C   0  0  0  0  0  0  0  0  0  0  0  0
   19.3061  -21.5594  -15.6517 C   0  0  0  0  0  0  0  0  0  0  0  0
   19.0571  -22.5963  -16.6820 C   0  0  0  0  0  0  0  0  0  0  0  0
   17.9201  -22.7806  -17.1493 O   0  0  0  0  0  0  0  0  0  0  0  0
   20.0581  -20.4517  -13.1892 C   0  0  0  0  0  0  0  0  0  0  0  0
   18.9351  -19.6704  -13.4129 O   0  0  0  0  0  0  0  0  0  0  0  0
   20.1178  -23.3635  -17.1219 O   0  0  0  0  0  0  0  0  0  0  0  0
   20.1305  -21.0126  -12.0664 O   0  0  0  0  0  0  0  0  0  0  0  0
  2  3  1  0
  2  1  1  0
  3  4  1  6
  5  6  1  6
  5  3  1  0
  7  5  1  0
  8  7  2  0
 10 12  1  0
 10  9  1  1
 11 10  1  0
 13 12  1  1
 13 15  1  0
 13 14  1  0
 14  7  1  0
 15 16  2  0
 17 18  1  0
 17 15  1  0
 19 20  1  0
 18 19  1  6
 20 21  1  0
 21 25  1  0
 21 22  2  0
 23 24  1  0
 23 18  1  0
 26 23  2  0
M  END
$$$$
