ILE.pdb
     RDKit          3D

 26 25  0  0  1  0  0  0  0  0999 V2000
   23.6489  -20.1738  -15.3929 C   0  0  0  0  0  0  0  0  0  0  0  0
   24.7488  -20.0193  -14.3985 C   0  0  0  0  0  0  0  0  0  0  0  0
   24.4810  -20.5975  -13.0440 C   0  0  2  0  0  0  0  0  0  0  0  0
   23.2579  -19.9875  -12.3780 C   0  0  0  0  0  0  0  0  0  0  0  0
   25.6246  -20.3389  -12.0745 C   0  0  2  0  0  0  0  0  0  0  0  0
   26.7850  -21.0233  -12.6396 N   0  0  0  0  0  0  0  0  0  0  0  0
   25.3391  -20.8824  -10.7325 C   0  0  0  0  0  0  0  0  0  0  0  0
   25.0574  -22.1127  -10.6559 O   0  0  0  0  0  0  0  0  0  0  0  0
   27.6980  -18.6095   -6.4211 C   0  0  0  0  0  0  0  0  0  0  0  0
   27.3178  -19.7329   -7.4385 C   0  0  1  0  0  0  0  0  0  0  0  0
   28.2138  -20.8734   -7.0611 C   0  0  0  0  0  0  0  0  0  0  0  0
   25.8745  -19.9254   -7.2666 C   0  0  0  0  0  0  0  0  0  0  0  0
   25.0582  -20.7030   -8.2118 C   0  0  2  0  0  0  0  0  0  0  0  0
   25.3682  -20.0993   -9.5554 N   0  0  0  0  0  0  0  0  0  0  0  0
   23.6336  -20.8267   -8.0650 C   0  0  0  0  0  0  0  0  0  0  0  0
   22.9122  -19.8230   -8.4201 O   0  0  0  0  0  0  0  0  0  0  0  0
   22.8980  -21.9368   -7.5803 N   0  0  0  0  0  0  0  0  0  0  0  0
   21.4304  -21.8763   -7.4926 C   0  0  1  0  0  0  0  0  0  0  0  0
   20.8350  -22.7870   -8.5597 C   0  0  0  0  0  0  0  0  0  0  0  0
   19.3377  -22.8484   -8.5198 C   0  0  0  0  0  0  0  0  0  0  0  0
   18.8812  -23.6945   -9.6486 C   0  0  0  0  0  0  0  0  0  0  0  0
   19.6917  -24.1991  -10.4448 O   0  0  0  0  0  0  0  0  0  0  0  0
   20.9920  -22.1899   -6.1349 C   0  0  0  0  0  0  0  0  0  0  0  0
   19.6933  -22.0329   -5.6762 O   0  0  0  0  0  0  0  0  0  0  0  0
   17.5275  -23.9184   -9.8057 O   0  0  0  0  0  0  0  0  0  0  0  0
   21.8253  -22.6324   -5.3040 O   0  0  0  0  0  0  0  0  0  0  0  0
  2  3  1  0
  2  1  1  0
  3  4  1  1
  5  6  1  6
  5  3  1  0
  7  5  1  0
  8  7  2  0
 10 12  1  0
 10  9  1  1
 11 10  1  0
 13 12  1  1
 13 15  1  0
 13 14  1  0
 14  7  1  0
 15 16  2  0
 17 18  1  0
 17 15  1  0
 19 20  1  0
 18 19  1  6
 20 21  1  0
 21 25  1  0
 21 22  2  0
 23 24  1  0
 23 18  1  0
 26 23  2  0
M  END
$$$$
