YII.pdb
     RDKit          3D

 29 29  0  0  1  0  0  0  0  0999 V2000
   18.5557  -18.5238  -14.6246 O   0  0  0  0  0  0  0  0  0  0  0  0
   19.5583  -19.1125  -13.8319 C   0  0  0  0  0  0  0  0  0  0  0  0
   20.6785  -18.3841  -13.5072 C   0  0  0  0  0  0  0  0  0  0  0  0
   21.6623  -18.9516  -12.7334 C   0  0  0  0  0  0  0  0  0  0  0  0
   21.5703  -20.2330  -12.2656 C   0  0  0  0  0  0  0  0  0  0  0  0
   22.6312  -20.8641  -11.4234 C   0  0  0  0  0  0  0  0  0  0  0  0
   23.9038  -20.8349  -12.2279 C   0  0  2  0  0  0  0  0  0  0  0  0
   23.7185  -21.6831  -13.3803 N   0  0  0  0  0  0  0  0  0  0  0  0
   25.0878  -21.2393  -11.4243 C   0  0  0  0  0  0  0  0  0  0  0  0
   25.0653  -22.3522  -10.8406 O   0  0  0  0  0  0  0  0  0  0  0  0
   20.4402  -20.9370  -12.6056 C   0  0  0  0  0  0  0  0  0  0  0  0
   19.4410  -20.4002  -13.3755 C   0  0  0  0  0  0  0  0  0  0  0  0
   29.1809  -22.2624  -12.3770 C   0  0  0  0  0  0  0  0  0  0  0  0
   28.6804  -20.8591  -12.4606 C   0  0  0  0  0  0  0  0  0  0  0  0
   28.5835  -20.1821  -11.0803 C   0  0  2  0  0  0  0  0  0  0  0  0
   29.8980  -20.4266  -10.4295 C   0  0  0  0  0  0  0  0  0  0  0  0
   27.3820  -20.7614  -10.4373 C   0  0  2  0  0  0  0  0  0  0  0  0
   26.2392  -20.4183  -11.2916 N   0  0  0  0  0  0  0  0  0  0  0  0
   27.1252  -20.4013   -9.0376 C   0  0  0  0  0  0  0  0  0  0  0  0
   26.2336  -19.5047   -8.8177 O   0  0  0  0  0  0  0  0  0  0  0  0
   28.8831  -21.0465   -3.0616 C   0  0  0  0  0  0  0  0  0  0  0  0
   27.9839  -20.5046   -4.1374 C   0  0  0  0  0  0  0  0  0  0  0  0
   28.3025  -21.0754   -5.4947 C   0  0  2  0  0  0  0  0  0  0  0  0
   29.7920  -20.8663   -5.7223 C   0  0  0  0  0  0  0  0  0  0  0  0
   27.5730  -20.3289   -6.5733 C   0  0  2  0  0  0  0  0  0  0  0  0
   27.7379  -20.9199   -7.8869 N   0  0  0  0  0  0  0  0  0  0  0  0
   27.9145  -18.9044   -6.5828 C   0  0  0  0  0  0  0  0  0  0  0  0
   27.2539  -17.9181   -5.9106 O   0  0  0  0  0  0  0  0  0  0  0  0
   28.9171  -18.5385   -7.2775 O   0  0  0  0  0  0  0  0  0  0  0  0
  2  1  1  0
  3  2  2  0
  4  3  1  0
  5 11  1  0
  5  4  2  0
  6  7  1  0
  6  5  1  0
  7  9  1  0
  7  8  1  6
  9 18  1  0
 10  9  2  0
 11 12  2  0
 12  2  1  0
 13 14  1  0
 15 14  1  0
 15 16  1  1
 17 18  1  6
 17 19  1  0
 17 15  1  0
 19 20  2  0
 22 23  1  0
 22 21  1  0
 23 25  1  0
 23 24  1  6
 25 27  1  0
 26 19  1  0
 25 26  1  6
 27 29  2  0
 27 28  1  0
M  END
$$$$
