YII.pdb
     RDKit          3D

 29 29  0  0  1  0  0  0  0  0999 V2000
   16.4444  -16.3965  -21.0068 O   0  0  0  0  0  0  0  0  0  0  0  0
   16.6393  -15.2570  -20.2044 C   0  0  0  0  0  0  0  0  0  0  0  0
   15.8059  -15.0331  -19.1339 C   0  0  0  0  0  0  0  0  0  0  0  0
   15.9895  -13.9227  -18.3452 C   0  0  0  0  0  0  0  0  0  0  0  0
   16.9844  -13.0165  -18.5865 C   0  0  0  0  0  0  0  0  0  0  0  0
   17.1969  -11.8046  -17.7385 C   0  0  0  0  0  0  0  0  0  0  0  0
   18.2427  -12.1635  -16.7162 C   0  0  2  0  0  0  0  0  0  0  0  0
   17.6660  -13.1303  -15.8137 N   0  0  0  0  0  0  0  0  0  0  0  0
   18.7598  -10.9696  -15.9961 C   0  0  0  0  0  0  0  0  0  0  0  0
   18.0568  -10.4687  -15.0824 O   0  0  0  0  0  0  0  0  0  0  0  0
   17.8019  -13.2657  -19.6627 C   0  0  0  0  0  0  0  0  0  0  0  0
   17.6453  -14.3636  -20.4686 C   0  0  0  0  0  0  0  0  0  0  0  0
   23.5924  -11.0950  -14.5433 C   0  0  0  0  0  0  0  0  0  0  0  0
   22.1720  -10.6434  -14.6164 C   0  0  0  0  0  0  0  0  0  0  0  0
   21.9965   -9.3801  -15.4802 C   0  0  2  0  0  0  0  0  0  0  0  0
   22.7695   -8.3175  -14.7842 C   0  0  0  0  0  0  0  0  0  0  0  0
   20.5340   -9.1891  -15.6118 C   0  0  2  0  0  0  0  0  0  0  0  0
   20.0136  -10.3759  -16.3006 N   0  0  0  0  0  0  0  0  0  0  0  0
   20.0695   -7.9550  -16.2569 C   0  0  0  0  0  0  0  0  0  0  0  0
   20.3398   -7.8080  -17.5029 O   0  0  0  0  0  0  0  0  0  0  0  0
   15.5325   -6.0499  -17.7485 C   0  0  0  0  0  0  0  0  0  0  0  0
   16.7183   -6.5381  -16.9644 C   0  0  0  0  0  0  0  0  0  0  0  0
   17.5126   -5.4093  -16.3605 C   0  0  2  0  0  0  0  0  0  0  0  0
   17.2601   -4.1819  -17.2229 C   0  0  0  0  0  0  0  0  0  0  0  0
   18.9836   -5.7023  -16.4137 C   0  0  2  0  0  0  0  0  0  0  0  0
   19.3541   -6.8957  -15.6786 N   0  0  0  0  0  0  0  0  0  0  0  0
   19.7885   -4.5502  -16.0006 C   0  0  0  0  0  0  0  0  0  0  0  0
   20.2330   -3.5503  -16.8154 O   0  0  0  0  0  0  0  0  0  0  0  0
   20.1104   -4.4603  -14.7718 O   0  0  0  0  0  0  0  0  0  0  0  0
  2  1  1  0
  3  2  2  0
  4  3  1  0
  5 11  1  0
  5  4  2  0
  6  7  1  0
  6  5  1  0
  7  9  1  0
  7  8  1  1
  9 18  1  0
 10  9  2  0
 11 12  2  0
 12  2  1  0
 13 14  1  0
 15 14  1  0
 15 16  1  1
 17 18  1  6
 17 19  1  0
 17 15  1  0
 19 20  2  0
 22 23  1  0
 22 21  1  0
 23 25  1  0
 23 24  1  6
 25 27  1  0
 26 19  1  0
 25 26  1  1
 27 29  2  0
 27 28  1  0
M  END
$$$$
