YII.pdb
     RDKit          3D

 29 29  0  0  1  0  0  0  0  0999 V2000
   16.6961  -19.0868  -17.6669 O   0  0  0  0  0  0  0  0  0  0  0  0
   16.9702  -19.9183  -16.5651 C   0  0  0  0  0  0  0  0  0  0  0  0
   16.9493  -21.2836  -16.7264 C   0  0  0  0  0  0  0  0  0  0  0  0
   17.2159  -22.1026  -15.6556 C   0  0  0  0  0  0  0  0  0  0  0  0
   17.5059  -21.6058  -14.4153 C   0  0  0  0  0  0  0  0  0  0  0  0
   17.7979  -22.4829  -13.2412 C   0  0  0  0  0  0  0  0  0  0  0  0
   19.2253  -22.2183  -12.8413 C   0  0  2  0  0  0  0  0  0  0  0  0
   20.0775  -22.6834  -13.9086 N   0  0  0  0  0  0  0  0  0  0  0  0
   19.5714  -22.8471  -11.5389 C   0  0  0  0  0  0  0  0  0  0  0  0
   19.6736  -24.0987  -11.4851 O   0  0  0  0  0  0  0  0  0  0  0  0
   17.5197  -20.2380  -14.2834 C   0  0  0  0  0  0  0  0  0  0  0  0
   17.2583  -19.3938  -15.3314 C   0  0  0  0  0  0  0  0  0  0  0  0
   22.3261  -19.8632   -9.3359 C   0  0  0  0  0  0  0  0  0  0  0  0
   22.1543  -21.3187   -9.0552 C   0  0  0  0  0  0  0  0  0  0  0  0
   20.8502  -21.6247   -8.2945 C   0  0  2  0  0  0  0  0  0  0  0  0
   21.2721  -21.9516   -6.9066 C   0  0  0  0  0  0  0  0  0  0  0  0
   20.1758  -22.6877   -9.0742 C   0  0  2  0  0  0  0  0  0  0  0  0
   19.7899  -22.0896  -10.3576 N   0  0  0  0  0  0  0  0  0  0  0  0
   19.0392  -23.3698   -8.4435 C   0  0  0  0  0  0  0  0  0  0  0  0
   17.9234  -22.7367   -8.4067 O   0  0  0  0  0  0  0  0  0  0  0  0
   17.1669  -28.3045   -9.2834 C   0  0  0  0  0  0  0  0  0  0  0  0
   17.4298  -26.8617   -8.9541 C   0  0  0  0  0  0  0  0  0  0  0  0
   17.6068  -26.6324   -7.4756 C   0  0  2  0  0  0  0  0  0  0  0  0
   16.2952  -27.0193   -6.8093 C   0  0  0  0  0  0  0  0  0  0  0  0
   17.8482  -25.1798   -7.1850 C   0  0  2  0  0  0  0  0  0  0  0  0
   19.0125  -24.6482   -7.8660 N   0  0  0  0  0  0  0  0  0  0  0  0
   17.9021  -24.9091   -5.7464 C   0  0  0  0  0  0  0  0  0  0  0  0
   19.0309  -24.8650   -4.9816 O   0  0  0  0  0  0  0  0  0  0  0  0
   16.8028  -24.6932   -5.1409 O   0  0  0  0  0  0  0  0  0  0  0  0
  2  1  1  0
  3  2  2  0
  4  3  1  0
  5 11  1  0
  5  4  2  0
  6  7  1  0
  6  5  1  0
  7  9  1  0
  7  8  1  6
  9 18  1  0
 10  9  2  0
 11 12  2  0
 12  2  1  0
 13 14  1  0
 15 14  1  0
 15 16  1  1
 17 18  1  6
 17 19  1  0
 17 15  1  0
 19 20  2  0
 22 23  1  0
 22 21  1  0
 23 25  1  0
 23 24  1  1
 25 27  1  0
 26 19  1  0
 25 26  1  6
 27 29  2  0
 27 28  1  0
M  END
$$$$
