YII.pdb
     RDKit          3D

 29 29  0  0  1  0  0  0  0  0999 V2000
   18.2826  -18.1335  -14.7788 O   0  0  0  0  0  0  0  0  0  0  0  0
   19.2596  -18.8114  -14.0263 C   0  0  0  0  0  0  0  0  0  0  0  0
   20.4732  -18.2083  -13.7938 C   0  0  0  0  0  0  0  0  0  0  0  0
   21.4327  -18.8636  -13.0600 C   0  0  0  0  0  0  0  0  0  0  0  0
   21.2254  -20.1122  -12.5430 C   0  0  0  0  0  0  0  0  0  0  0  0
   22.2585  -20.8376  -11.7432 C   0  0  0  0  0  0  0  0  0  0  0  0
   23.4754  -20.9727  -12.6198 C   0  0  2  0  0  0  0  0  0  0  0  0
   23.1924  -21.9747  -13.6187 N   0  0  0  0  0  0  0  0  0  0  0  0
   24.6991  -21.2958  -11.8390 C   0  0  0  0  0  0  0  0  0  0  0  0
   24.7810  -22.4239  -11.2910 O   0  0  0  0  0  0  0  0  0  0  0  0
   20.0037  -20.6904  -12.7910 C   0  0  0  0  0  0  0  0  0  0  0  0
   19.0257  -20.0637  -13.5191 C   0  0  0  0  0  0  0  0  0  0  0  0
   28.7342  -22.0649  -13.0300 C   0  0  0  0  0  0  0  0  0  0  0  0
   28.1532  -20.6908  -13.0624 C   0  0  0  0  0  0  0  0  0  0  0  0
   28.1148  -20.0316  -11.6707 C   0  0  2  0  0  0  0  0  0  0  0  0
   29.4864  -20.1952  -11.1202 C   0  0  0  0  0  0  0  0  0  0  0  0
   27.0033  -20.6921  -10.9489 C   0  0  2  0  0  0  0  0  0  0  0  0
   25.7751  -20.3808  -11.6894 N   0  0  0  0  0  0  0  0  0  0  0  0
   26.8523  -20.3908   -9.5202 C   0  0  0  0  0  0  0  0  0  0  0  0
   26.1659  -19.3515   -9.2103 O   0  0  0  0  0  0  0  0  0  0  0  0
   29.1950  -21.4206   -3.8259 C   0  0  0  0  0  0  0  0  0  0  0  0
   28.1289  -20.8767   -4.7352 C   0  0  0  0  0  0  0  0  0  0  0  0
   28.2969  -21.3389   -6.1593 C   0  0  2  0  0  0  0  0  0  0  0  0
   29.7305  -21.0239   -6.5588 C   0  0  0  0  0  0  0  0  0  0  0  0
   27.3938  -20.5718   -7.0805 C   0  0  2  0  0  0  0  0  0  0  0  0
   27.3691  -21.1047   -8.4286 N   0  0  0  0  0  0  0  0  0  0  0  0
   27.6968  -19.1386   -7.0791 C   0  0  0  0  0  0  0  0  0  0  0  0
   28.7479  -18.5418   -7.7116 O   0  0  0  0  0  0  0  0  0  0  0  0
   26.9168  -18.3671   -6.4326 O   0  0  0  0  0  0  0  0  0  0  0  0
  2  1  1  0
  3  2  2  0
  4  3  1  0
  5 11  1  0
  5  4  2  0
  6  7  1  0
  6  5  1  0
  7  9  1  0
  7  8  1  6
  9 18  1  0
 10  9  2  0
 11 12  2  0
 12  2  1  0
 13 14  1  0
 15 14  1  0
 15 16  1  1
 17 18  1  6
 17 19  1  0
 17 15  1  0
 19 20  2  0
 22 23  1  0
 22 21  1  0
 23 25  1  0
 23 24  1  6
 25 27  1  0
 26 19  1  0
 25 26  1  6
 27 29  2  0
 27 28  1  0
M  END
$$$$
