YII.pdb
     RDKit          3D

 29 29  0  0  1  0  0  0  0  0999 V2000
   19.8033  -17.8525  -15.7660 O   0  0  0  0  0  0  0  0  0  0  0  0
   20.5285  -18.4643  -14.7267 C   0  0  0  0  0  0  0  0  0  0  0  0
   21.7905  -18.0100  -14.4241 C   0  0  0  0  0  0  0  0  0  0  0  0
   22.5054  -18.6020  -13.4107 C   0  0  0  0  0  0  0  0  0  0  0  0
   22.0035  -19.6422  -12.6789 C   0  0  0  0  0  0  0  0  0  0  0  0
   22.7681  -20.2963  -11.5742 C   0  0  0  0  0  0  0  0  0  0  0  0
   24.0043  -20.8945  -12.1919 C   0  0  2  0  0  0  0  0  0  0  0  0
   23.5955  -22.0138  -13.0053 N   0  0  0  0  0  0  0  0  0  0  0  0
   25.0109  -21.2876  -11.1703 C   0  0  0  0  0  0  0  0  0  0  0  0
   24.7758  -22.2914  -10.4512 O   0  0  0  0  0  0  0  0  0  0  0  0
   20.7403  -20.0752  -13.0033 C   0  0  0  0  0  0  0  0  0  0  0  0
   20.0014  -19.5064  -14.0081 C   0  0  0  0  0  0  0  0  0  0  0  0
   29.8073  -21.8667  -12.6129 C   0  0  0  0  0  0  0  0  0  0  0  0
   28.5350  -21.8547  -11.8332 C   0  0  0  0  0  0  0  0  0  0  0  0
   28.5566  -20.8323  -10.6812 C   0  0  2  0  0  0  0  0  0  0  0  0
   29.7769  -21.1527   -9.8941 C   0  0  0  0  0  0  0  0  0  0  0  0
   27.2476  -20.9704  -10.0030 C   0  0  2  0  0  0  0  0  0  0  0  0
   26.2237  -20.5742  -10.9769 N   0  0  0  0  0  0  0  0  0  0  0  0
   27.0694  -20.2639   -8.7287 C   0  0  0  0  0  0  0  0  0  0  0  0
   26.4422  -19.1446   -8.7623 O   0  0  0  0  0  0  0  0  0  0  0  0
   29.1470  -21.7508   -3.4926 C   0  0  0  0  0  0  0  0  0  0  0  0
   28.9789  -20.9719   -4.7671 C   0  0  0  0  0  0  0  0  0  0  0  0
   27.5528  -20.5429   -4.9949 C   0  0  2  0  0  0  0  0  0  0  0  0
   26.7233  -21.8129   -5.1098 C   0  0  0  0  0  0  0  0  0  0  0  0
   27.4189  -19.7988   -6.2915 C   0  0  2  0  0  0  0  0  0  0  0  0
   27.5023  -20.6605   -7.4544 N   0  0  0  0  0  0  0  0  0  0  0  0
   28.3645  -18.6839   -6.3851 C   0  0  0  0  0  0  0  0  0  0  0  0
   28.2848  -17.5066   -5.7005 O   0  0  0  0  0  0  0  0  0  0  0  0
   29.3565  -18.8109   -7.1736 O   0  0  0  0  0  0  0  0  0  0  0  0
  2  1  1  0
  3  2  2  0
  4  3  1  0
  5 11  1  0
  5  4  2  0
  6  7  1  0
  6  5  1  0
  7  9  1  0
  7  8  1  1
  9 18  1  0
 10  9  2  0
 11 12  2  0
 12  2  1  0
 13 14  1  0
 15 14  1  0
 15 16  1  1
 17 18  1  6
 17 19  1  0
 17 15  1  0
 19 20  2  0
 22 23  1  0
 22 21  1  0
 23 25  1  0
 23 24  1  6
 25 27  1  0
 26 19  1  0
 25 26  1  6
 27 29  2  0
 27 28  1  0
M  END
$$$$
