YII.pdb
     RDKit          3D

 29 29  0  0  1  0  0  0  0  0999 V2000
   22.8851  -14.2384  -19.6970 O   0  0  0  0  0  0  0  0  0  0  0  0
   22.5170  -15.4626  -19.1087 C   0  0  0  0  0  0  0  0  0  0  0  0
   21.6990  -15.4630  -18.0034 C   0  0  0  0  0  0  0  0  0  0  0  0
   21.3348  -16.6541  -17.4229 C   0  0  0  0  0  0  0  0  0  0  0  0
   21.7606  -17.8592  -17.9084 C   0  0  0  0  0  0  0  0  0  0  0  0
   21.3735  -19.1627  -17.2886 C   0  0  0  0  0  0  0  0  0  0  0  0
   22.1394  -19.2778  -15.9972 C   0  0  2  0  0  0  0  0  0  0  0  0
   23.5140  -19.5721  -16.3225 N   0  0  0  0  0  0  0  0  0  0  0  0
   21.5541  -20.2948  -15.0837 C   0  0  0  0  0  0  0  0  0  0  0  0
   21.6283  -21.5067  -15.4083 O   0  0  0  0  0  0  0  0  0  0  0  0
   22.5768  -17.8285  -19.0135 C   0  0  0  0  0  0  0  0  0  0  0  0
   22.9583  -16.6577  -19.6159 C   0  0  0  0  0  0  0  0  0  0  0  0
   22.2812  -19.5098   -9.9712 C   0  0  0  0  0  0  0  0  0  0  0  0
   22.0076  -20.1985  -11.2665 C   0  0  0  0  0  0  0  0  0  0  0  0
   20.5013  -20.3235  -11.5636 C   0  0  2  0  0  0  0  0  0  0  0  0
   19.9361  -21.0829  -10.4169 C   0  0  0  0  0  0  0  0  0  0  0  0
   20.4113  -20.9417  -12.9062 C   0  0  2  0  0  0  0  0  0  0  0  0
   20.9163  -19.9496  -13.8624 N   0  0  0  0  0  0  0  0  0  0  0  0
   19.1040  -21.4631  -13.3232 C   0  0  0  0  0  0  0  0  0  0  0  0
   18.2081  -20.6042  -13.6500 O   0  0  0  0  0  0  0  0  0  0  0  0
   15.9338  -26.1192  -15.8576 C   0  0  0  0  0  0  0  0  0  0  0  0
   15.9717  -24.8532  -15.0482 C   0  0  0  0  0  0  0  0  0  0  0  0
   17.3610  -24.5157  -14.5732 C   0  0  2  0  0  0  0  0  0  0  0  0
   17.7550  -25.5861  -13.5667 C   0  0  0  0  0  0  0  0  0  0  0  0
   17.3755  -23.1968  -13.8569 C   0  0  2  0  0  0  0  0  0  0  0  0
   18.6988  -22.8032  -13.4142 N   0  0  0  0  0  0  0  0  0  0  0  0
   16.4115  -23.1598  -12.7546 C   0  0  0  0  0  0  0  0  0  0  0  0
   16.6983  -23.3430  -11.4335 O   0  0  0  0  0  0  0  0  0  0  0  0
   15.1906  -22.9373  -13.0403 O   0  0  0  0  0  0  0  0  0  0  0  0
  2  1  1  0
  3  2  2  0
  4  3  1  0
  5 11  1  0
  5  4  2  0
  6  7  1  0
  6  5  1  0
  7  9  1  0
  7  8  1  6
  9 18  1  0
 10  9  2  0
 11 12  2  0
 12  2  1  0
 13 14  1  0
 15 14  1  0
 15 16  1  1
 17 18  1  6
 17 19  1  0
 17 15  1  0
 19 20  2  0
 22 23  1  0
 22 21  1  0
 23 25  1  0
 23 24  1  1
 25 27  1  0
 26 19  1  0
 25 26  1  1
 27 29  2  0
 27 28  1  0
M  END
$$$$
