YII.pdb
     RDKit          3D

 29 29  0  0  1  0  0  0  0  0999 V2000
   18.4427  -18.8311  -14.4650 O   0  0  0  0  0  0  0  0  0  0  0  0
   19.4820  -19.3763  -13.6885 C   0  0  0  0  0  0  0  0  0  0  0  0
   19.4066  -20.6879  -13.2826 C   0  0  0  0  0  0  0  0  0  0  0  0
   20.4174  -21.2279  -12.5242 C   0  0  0  0  0  0  0  0  0  0  0  0
   21.5134  -20.5010  -12.1506 C   0  0  0  0  0  0  0  0  0  0  0  0
   22.6205  -21.0736  -11.3263 C   0  0  0  0  0  0  0  0  0  0  0  0
   23.8805  -20.9542  -12.1420 C   0  0  2  0  0  0  0  0  0  0  0  0
   23.7264  -21.7764  -13.3176 N   0  0  0  0  0  0  0  0  0  0  0  0
   25.0931  -21.3198  -11.3626 C   0  0  0  0  0  0  0  0  0  0  0  0
   25.2206  -22.5080  -10.9734 O   0  0  0  0  0  0  0  0  0  0  0  0
   21.5620  -19.1933  -12.5704 C   0  0  0  0  0  0  0  0  0  0  0  0
   20.5707  -18.6249  -13.3276 C   0  0  0  0  0  0  0  0  0  0  0  0
   29.5002  -20.6745  -13.3183 C   0  0  0  0  0  0  0  0  0  0  0  0
   28.4170  -21.0613  -12.3675 C   0  0  0  0  0  0  0  0  0  0  0  0
   28.4717  -20.2627  -11.0514 C   0  0  2  0  0  0  0  0  0  0  0  0
   29.8249  -20.5204  -10.4913 C   0  0  0  0  0  0  0  0  0  0  0  0
   27.3048  -20.7181  -10.2617 C   0  0  2  0  0  0  0  0  0  0  0  0
   26.1090  -20.3803  -11.0424 N   0  0  0  0  0  0  0  0  0  0  0  0
   27.1923  -20.2317   -8.8813 C   0  0  0  0  0  0  0  0  0  0  0  0
   26.4518  -19.2026   -8.6816 O   0  0  0  0  0  0  0  0  0  0  0  0
   29.1696  -20.7193   -2.9637 C   0  0  0  0  0  0  0  0  0  0  0  0
   28.2058  -20.2305   -4.0085 C   0  0  0  0  0  0  0  0  0  0  0  0
   28.4604  -20.8472   -5.3592 C   0  0  2  0  0  0  0  0  0  0  0  0
   29.9434  -20.6744   -5.6503 C   0  0  0  0  0  0  0  0  0  0  0  0
   27.7032  -20.1185   -6.4309 C   0  0  2  0  0  0  0  0  0  0  0  0
   27.7990  -20.7555   -7.7298 N   0  0  0  0  0  0  0  0  0  0  0  0
   28.0765  -18.7038   -6.5020 C   0  0  0  0  0  0  0  0  0  0  0  0
   27.5208  -17.6915   -5.7756 O   0  0  0  0  0  0  0  0  0  0  0  0
   29.0026  -18.3737   -7.3113 O   0  0  0  0  0  0  0  0  0  0  0  0
  2  1  1  0
  3  2  2  0
  4  3  1  0
  5 11  1  0
  5  4  2  0
  6  7  1  0
  6  5  1  0
  7  9  1  0
  7  8  1  6
  9 18  1  0
 10  9  2  0
 11 12  2  0
 12  2  1  0
 13 14  1  0
 15 14  1  0
 15 16  1  1
 17 18  1  6
 17 19  1  0
 17 15  1  0
 19 20  2  0
 22 23  1  0
 22 21  1  0
 23 25  1  0
 23 24  1  6
 25 27  1  0
 26 19  1  0
 25 26  1  6
 27 29  2  0
 27 28  1  0
M  END
$$$$
