YII.pdb
     RDKit          3D

 29 29  0  0  1  0  0  0  0  0999 V2000
   30.5283  -24.6685  -18.4704 O   0  0  0  0  0  0  0  0  0  0  0  0
   29.7595  -23.7170  -17.7749 C   0  0  0  0  0  0  0  0  0  0  0  0
   28.5496  -24.0876  -17.2368 C   0  0  0  0  0  0  0  0  0  0  0  0
   27.7927  -23.1645  -16.5561 C   0  0  0  0  0  0  0  0  0  0  0  0
   28.2014  -21.8705  -16.3896 C   0  0  0  0  0  0  0  0  0  0  0  0
   27.3900  -20.8551  -15.6522 C   0  0  0  0  0  0  0  0  0  0  0  0
   26.2527  -20.4622  -16.5575 C   0  0  2  0  0  0  0  0  0  0  0  0
   26.7814  -19.5934  -17.5809 N   0  0  0  0  0  0  0  0  0  0  0  0
   25.1331  -19.8272  -15.8127 C   0  0  0  0  0  0  0  0  0  0  0  0
   25.2624  -18.6348  -15.4367 O   0  0  0  0  0  0  0  0  0  0  0  0
   29.4142  -21.5284  -16.9376 C   0  0  0  0  0  0  0  0  0  0  0  0
   30.1930  -22.4252  -17.6223 C   0  0  0  0  0  0  0  0  0  0  0  0
   22.1252  -19.4843  -17.9028 C   0  0  0  0  0  0  0  0  0  0  0  0
   21.7316  -18.9381  -16.5710 C   0  0  0  0  0  0  0  0  0  0  0  0
   21.6114  -20.0332  -15.4944 C   0  0  2  0  0  0  0  0  0  0  0  0
   20.3233  -19.7638  -14.8018 C   0  0  0  0  0  0  0  0  0  0  0  0
   22.8530  -19.9403  -14.6929 C   0  0  2  0  0  0  0  0  0  0  0  0
   23.9275  -20.5146  -15.5111 N   0  0  0  0  0  0  0  0  0  0  0  0
   22.8353  -20.5314  -13.3494 C   0  0  0  0  0  0  0  0  0  0  0  0
   22.7026  -21.8057  -13.2719 O   0  0  0  0  0  0  0  0  0  0  0  0
   25.9904  -20.8597   -9.5562 C   0  0  0  0  0  0  0  0  0  0  0  0
   25.1281  -19.7983  -10.1800 C   0  0  0  0  0  0  0  0  0  0  0  0
   23.6842  -19.9135   -9.7657 C   0  0  2  0  0  0  0  0  0  0  0  0
   23.6460  -20.8266   -8.5497 C   0  0  0  0  0  0  0  0  0  0  0  0
   22.8689  -20.5653  -10.8441 C   0  0  2  0  0  0  0  0  0  0  0  0
   22.9480  -19.8730  -12.1156 N   0  0  0  0  0  0  0  0  0  0  0  0
   21.4776  -20.7691  -10.4336 C   0  0  0  0  0  0  0  0  0  0  0  0
   20.9539  -21.9206   -9.9227 O   0  0  0  0  0  0  0  0  0  0  0  0
   20.6718  -19.7911  -10.5592 O   0  0  0  0  0  0  0  0  0  0  0  0
  2  1  1  0
  3  2  2  0
  4  3  1  0
  5 11  1  0
  5  4  2  0
  6  7  1  0
  6  5  1  0
  7  9  1  0
  7  8  1  6
  9 18  1  0
 10  9  2  0
 11 12  2  0
 12  2  1  0
 13 14  1  0
 15 14  1  0
 15 16  1  1
 17 18  1  6
 17 19  1  0
 17 15  1  0
 19 20  2  0
 22 23  1  0
 22 21  1  0
 23 25  1  0
 23 24  1  1
 25 27  1  0
 26 19  1  0
 25 26  1  6
 27 29  2  0
 27 28  1  0
M  END
$$$$
