YII.pdb
     RDKit          3D

 29 29  0  0  1  0  0  0  0  0999 V2000
   17.0876  -18.6811  -16.6038 O   0  0  0  0  0  0  0  0  0  0  0  0
   18.2179  -19.3292  -16.0721 C   0  0  0  0  0  0  0  0  0  0  0  0
   19.2122  -18.5824  -15.4853 C   0  0  0  0  0  0  0  0  0  0  0  0
   20.3191  -19.2076  -14.9635 C   0  0  0  0  0  0  0  0  0  0  0  0
   20.4741  -20.5653  -15.0053 C   0  0  0  0  0  0  0  0  0  0  0  0
   21.6716  -21.2598  -14.4426 C   0  0  0  0  0  0  0  0  0  0  0  0
   22.8459  -20.8738  -15.3026 C   0  0  2  0  0  0  0  0  0  0  0  0
   22.6846  -21.5143  -16.5854 N   0  0  0  0  0  0  0  0  0  0  0  0
   24.1461  -21.2183  -14.6685 C   0  0  0  0  0  0  0  0  0  0  0  0
   24.5477  -22.4077  -14.7306 O   0  0  0  0  0  0  0  0  0  0  0  0
   19.4651  -21.2861  -15.5974 C   0  0  0  0  0  0  0  0  0  0  0  0
   18.3483  -20.6931  -16.1271 C   0  0  0  0  0  0  0  0  0  0  0  0
   29.1116  -21.4028  -13.5550 C   0  0  0  0  0  0  0  0  0  0  0  0
   28.5019  -20.1761  -12.9630 C   0  0  0  0  0  0  0  0  0  0  0  0
   27.2356  -19.7231  -13.7140 C   0  0  2  0  0  0  0  0  0  0  0  0
   27.1160  -18.2665  -13.4399 C   0  0  0  0  0  0  0  0  0  0  0  0
   26.1490  -20.6036  -13.2275 C   0  0  2  0  0  0  0  0  0  0  0  0
   24.9486  -20.2575  -13.9976 N   0  0  0  0  0  0  0  0  0  0  0  0
   25.8732  -20.6023  -11.7858 C   0  0  0  0  0  0  0  0  0  0  0  0
   25.1209  -19.6655  -11.3343 O   0  0  0  0  0  0  0  0  0  0  0  0
   27.6934  -19.7318   -6.3899 C   0  0  0  0  0  0  0  0  0  0  0  0
   26.7669  -20.6206   -7.1715 C   0  0  0  0  0  0  0  0  0  0  0  0
   27.0389  -20.5743   -8.6526 C   0  0  2  0  0  0  0  0  0  0  0  0
   26.8847  -19.1238   -9.0840 C   0  0  0  0  0  0  0  0  0  0  0  0
   26.0223  -21.3794   -9.4083 C   0  0  2  0  0  0  0  0  0  0  0  0
   26.3322  -21.5092  -10.8187 N   0  0  0  0  0  0  0  0  0  0  0  0
   24.6618  -20.8759   -9.2054 C   0  0  0  0  0  0  0  0  0  0  0  0
   23.7992  -21.2719   -8.2255 O   0  0  0  0  0  0  0  0  0  0  0  0
   24.2311  -19.9873  -10.0095 O   0  0  0  0  0  0  0  0  0  0  0  0
  2  1  1  0
  3  2  2  0
  4  3  1  0
  5 11  1  0
  5  4  2  0
  6  7  1  0
  6  5  1  0
  7  9  1  0
  7  8  1  6
  9 18  1  0
 10  9  2  0
 11 12  2  0
 12  2  1  0
 13 14  1  0
 15 14  1  0
 15 16  1  1
 17 18  1  6
 17 19  1  0
 17 15  1  0
 19 20  2  0
 22 23  1  0
 22 21  1  0
 23 25  1  0
 23 24  1  6
 25 27  1  0
 26 19  1  0
 25 26  1  6
 27 29  2  0
 27 28  1  0
M  END
$$$$
