YII.pdb
     RDKit          3D

 29 29  0  0  1  0  0  0  0  0999 V2000
   15.5609  -23.8957  -13.4470 O   0  0  0  0  0  0  0  0  0  0  0  0
   16.8516  -23.3527  -13.5873 C   0  0  0  0  0  0  0  0  0  0  0  0
   17.0501  -22.2921  -14.4395 C   0  0  0  0  0  0  0  0  0  0  0  0
   18.3074  -21.7560  -14.5822 C   0  0  0  0  0  0  0  0  0  0  0  0
   19.3870  -22.2432  -13.8992 C   0  0  0  0  0  0  0  0  0  0  0  0
   20.7600  -21.6714  -14.0435 C   0  0  0  0  0  0  0  0  0  0  0  0
   21.0608  -20.9281  -12.7689 C   0  0  2  0  0  0  0  0  0  0  0  0
   20.1281  -19.8323  -12.6649 N   0  0  0  0  0  0  0  0  0  0  0  0
   22.4725  -20.4648  -12.7067 C   0  0  0  0  0  0  0  0  0  0  0  0
   22.7699  -19.3715  -13.2508 O   0  0  0  0  0  0  0  0  0  0  0  0
   19.1590  -23.3032  -13.0549 C   0  0  0  0  0  0  0  0  0  0  0  0
   17.9175  -23.8606  -12.8902 C   0  0  0  0  0  0  0  0  0  0  0  0
   25.4129  -20.6565   -8.4432 C   0  0  0  0  0  0  0  0  0  0  0  0
   24.9091  -20.3689   -9.8181 C   0  0  0  0  0  0  0  0  0  0  0  0
   25.5469  -21.2794  -10.8845 C   0  0  2  0  0  0  0  0  0  0  0  0
   27.0139  -21.0809  -10.7443 C   0  0  0  0  0  0  0  0  0  0  0  0
   24.9216  -20.8862  -12.1679 C   0  0  2  0  0  0  0  0  0  0  0  0
   23.4940  -21.2083  -12.0579 N   0  0  0  0  0  0  0  0  0  0  0  0
   25.4978  -21.4423  -13.3981 C   0  0  0  0  0  0  0  0  0  0  0  0
   25.4709  -22.7184  -13.5327 O   0  0  0  0  0  0  0  0  0  0  0  0
   25.3065  -21.8596  -19.2408 C   0  0  0  0  0  0  0  0  0  0  0  0
   26.2423  -21.9011  -18.0653 C   0  0  0  0  0  0  0  0  0  0  0  0
   25.6449  -21.2746  -16.8323 C   0  0  2  0  0  0  0  0  0  0  0  0
   25.4892  -19.7897  -17.1236 C   0  0  0  0  0  0  0  0  0  0  0  0
   26.5735  -21.4088  -15.6609 C   0  0  2  0  0  0  0  0  0  0  0  0
   26.0840  -20.7478  -14.4669 N   0  0  0  0  0  0  0  0  0  0  0  0
   27.9355  -20.9796  -15.9876 C   0  0  0  0  0  0  0  0  0  0  0  0
   28.4793  -19.7599  -15.7086 O   0  0  0  0  0  0  0  0  0  0  0  0
   28.6924  -21.8100  -16.5868 O   0  0  0  0  0  0  0  0  0  0  0  0
  2  1  1  0
  3  2  2  0
  4  3  1  0
  5 11  1  0
  5  4  2  0
  6  7  1  0
  6  5  1  0
  7  9  1  0
  7  8  1  6
  9 18  1  0
 10  9  2  0
 11 12  2  0
 12  2  1  0
 13 14  1  0
 15 14  1  0
 15 16  1  6
 17 18  1  1
 17 19  1  0
 17 15  1  0
 19 20  2  0
 22 23  1  0
 22 21  1  0
 23 25  1  0
 23 24  1  6
 25 27  1  0
 26 19  1  0
 25 26  1  1
 27 29  2  0
 27 28  1  0
M  END
$$$$
