IDG.pdb
     RDKit          3D

 21 20  0  0  1  0  0  0  0  0999 V2000
    7.5574  -11.4382   20.1069 C   0  0  0  0  0  0  0  0  0  0  0  0
    7.5281  -12.8193   20.6795 C   0  0  0  0  0  0  0  0  0  0  0  0
    8.2616  -13.8249   19.8199 C   0  0  2  0  0  0  0  0  0  0  0  0
    7.7762  -13.8309   18.4083 C   0  0  0  0  0  0  0  0  0  0  0  0
    8.1751  -15.1896   20.4813 C   0  0  2  0  0  0  0  0  0  0  0  0
    7.9759  -14.9738   21.8918 N   0  0  0  0  0  0  0  0  0  0  0  0
    9.3819  -15.9920   20.2720 C   0  0  0  0  0  0  0  0  0  0  0  0
    9.4536  -16.7849   19.3028 O   0  0  0  0  0  0  0  0  0  0  0  0
   10.5055  -15.9131   21.1376 N   0  0  0  0  0  0  0  0  0  0  0  0
   11.7258  -16.7074   20.8453 C   0  0  1  0  0  0  0  0  0  0  0  0
   12.1933  -16.2149   19.5046 C   0  0  0  0  0  0  0  0  0  0  0  0
   13.3473  -16.8926   18.9310 C   0  0  0  0  0  0  0  0  0  0  0  0
   13.3644  -17.4476   17.8118 O   0  0  0  0  0  0  0  0  0  0  0  0
   12.7114  -16.4812   21.9373 C   0  0  0  0  0  0  0  0  0  0  0  0
   13.0392  -15.3083   22.2319 O   0  0  0  0  0  0  0  0  0  0  0  0
   14.5606  -16.9558   19.6512 O   0  0  0  0  0  0  0  0  0  0  0  0
   13.2657  -17.6099   22.6296 N   0  0  0  0  0  0  0  0  0  0  0  0
   13.4707  -17.5582   24.0525 C   0  0  0  0  0  0  0  0  0  0  0  0
   14.8575  -17.1335   24.3999 C   0  0  0  0  0  0  0  0  0  0  0  0
   15.5400  -16.1628   23.6991 O   0  0  0  0  0  0  0  0  0  0  0  0
   15.4075  -17.6910   25.3684 O   0  0  0  0  0  0  0  0  0  0  0  0
  1  2  1  0
  2  3  1  0
  3  5  1  0
  3  4  1  6
  5  7  1  0
  5  6  1  1
  7  9  1  0
  8  7  2  0
  9 10  1  0
 10 14  1  0
 10 11  1  6
 11 12  1  0
 12 13  2  0
 14 15  2  0
 14 17  1  0
 16 12  1  0
 17 18  1  0
 18 19  1  0
 19 20  1  0
 21 19  2  0
M  END
$$$$
