IDG.pdb
     RDKit          3D

 21 20  0  0  1  0  0  0  0  0999 V2000
    6.1666  -11.7252   27.0459 C   0  0  0  0  0  0  0  0  0  0  0  0
    6.5752  -12.1041   25.6583 C   0  0  0  0  0  0  0  0  0  0  0  0
    7.2644  -13.4493   25.5978 C   0  0  2  0  0  0  0  0  0  0  0  0
    8.4022  -13.5515   26.5588 C   0  0  0  0  0  0  0  0  0  0  0  0
    7.6761  -13.7243   24.1619 C   0  0  2  0  0  0  0  0  0  0  0  0
    6.5127  -13.5296   23.3345 N   0  0  0  0  0  0  0  0  0  0  0  0
    8.1904  -15.0825   23.9759 C   0  0  0  0  0  0  0  0  0  0  0  0
    7.4034  -16.0295   23.7372 O   0  0  0  0  0  0  0  0  0  0  0  0
    9.5758  -15.3869   24.0550 N   0  0  0  0  0  0  0  0  0  0  0  0
   10.0461  -16.7752   23.8165 C   0  0  1  0  0  0  0  0  0  0  0  0
   11.4599  -16.6241   23.3298 C   0  0  0  0  0  0  0  0  0  0  0  0
   12.1790  -17.8550   23.0334 C   0  0  0  0  0  0  0  0  0  0  0  0
   11.7119  -18.8145   22.3836 O   0  0  0  0  0  0  0  0  0  0  0  0
    9.9350  -17.5386   25.0893 C   0  0  0  0  0  0  0  0  0  0  0  0
    9.9768  -18.7904   25.0572 O   0  0  0  0  0  0  0  0  0  0  0  0
   13.5040  -18.0277   23.4906 O   0  0  0  0  0  0  0  0  0  0  0  0
    9.7822  -16.8258   26.3259 N   0  0  0  0  0  0  0  0  0  0  0  0
    9.6551  -17.5444   27.5656 C   0  0  0  0  0  0  0  0  0  0  0  0
   10.9509  -18.1438   27.9968 C   0  0  0  0  0  0  0  0  0  0  0  0
   11.2799  -18.3408   29.3205 O   0  0  0  0  0  0  0  0  0  0  0  0
   11.7590  -18.4747   27.1087 O   0  0  0  0  0  0  0  0  0  0  0  0
  1  2  1  0
  2  3  1  0
  3  5  1  0
  3  4  1  1
  5  7  1  0
  5  6  1  6
  7  9  1  0
  8  7  2  0
  9 10  1  0
 10 14  1  0
 10 11  1  1
 11 12  1  0
 12 13  2  0
 14 15  2  0
 14 17  1  0
 16 12  1  0
 17 18  1  0
 18 19  1  0
 19 20  1  0
 21 19  2  0
M  END
$$$$
