IDG.pdb
     RDKit          3D

 21 20  0  0  1  0  0  0  0  0999 V2000
    5.9428  -11.6416   26.8218 C   0  0  0  0  0  0  0  0  0  0  0  0
    5.8253  -12.8478   25.9458 C   0  0  0  0  0  0  0  0  0  0  0  0
    7.1099  -13.6429   25.8693 C   0  0  2  0  0  0  0  0  0  0  0  0
    8.2853  -12.7954   25.5109 C   0  0  0  0  0  0  0  0  0  0  0  0
    6.9081  -14.8084   24.9164 C   0  0  2  0  0  0  0  0  0  0  0  0
    5.7379  -15.5260   25.3539 N   0  0  0  0  0  0  0  0  0  0  0  0
    8.0581  -15.7143   24.8864 C   0  0  0  0  0  0  0  0  0  0  0  0
    8.0370  -16.7847   25.5397 O   0  0  0  0  0  0  0  0  0  0  0  0
    9.2282  -15.4307   24.1322 N   0  0  0  0  0  0  0  0  0  0  0  0
   10.3042  -16.4480   24.0198 C   0  0  1  0  0  0  0  0  0  0  0  0
   11.1249  -16.0110   22.8391 C   0  0  0  0  0  0  0  0  0  0  0  0
   10.5216  -16.1938   21.5265 C   0  0  0  0  0  0  0  0  0  0  0  0
    9.8173  -17.1712   21.1957 O   0  0  0  0  0  0  0  0  0  0  0  0
   11.0681  -16.4729   25.2969 C   0  0  0  0  0  0  0  0  0  0  0  0
   12.0735  -17.2144   25.3936 O   0  0  0  0  0  0  0  0  0  0  0  0
   10.7159  -15.2247   20.5176 O   0  0  0  0  0  0  0  0  0  0  0  0
   10.6377  -15.6484   26.3902 N   0  0  0  0  0  0  0  0  0  0  0  0
   11.4433  -15.5400   27.5770 C   0  0  0  0  0  0  0  0  0  0  0  0
   11.3824  -16.7781   28.4061 C   0  0  0  0  0  0  0  0  0  0  0  0
   10.7769  -17.9383   27.9741 O   0  0  0  0  0  0  0  0  0  0  0  0
   11.9066  -16.7443   29.5355 O   0  0  0  0  0  0  0  0  0  0  0  0
  1  2  1  0
  2  3  1  0
  3  5  1  0
  3  4  1  6
  5  7  1  0
  5  6  1  1
  7  9  1  0
  8  7  2  0
  9 10  1  0
 10 14  1  0
 10 11  1  6
 11 12  1  0
 12 13  2  0
 14 15  2  0
 14 17  1  0
 16 12  1  0
 17 18  1  0
 18 19  1  0
 19 20  1  0
 21 19  2  0
M  END
$$$$
