IDG.pdb
     RDKit          3D

 21 20  0  0  1  0  0  0  0  0999 V2000
    7.1949  -12.3761   19.9491 C   0  0  0  0  0  0  0  0  0  0  0  0
    7.7776  -13.2824   18.9122 C   0  0  0  0  0  0  0  0  0  0  0  0
    9.1232  -13.8440   19.3151 C   0  0  2  0  0  0  0  0  0  0  0  0
   10.0643  -12.7865   19.7888 C   0  0  0  0  0  0  0  0  0  0  0  0
    9.6800  -14.6574   18.1595 C   0  0  2  0  0  0  0  0  0  0  0  0
    8.6222  -15.5124   17.6843 N   0  0  0  0  0  0  0  0  0  0  0  0
   10.8326  -15.4715   18.5504 C   0  0  0  0  0  0  0  0  0  0  0  0
   10.6689  -16.6502   18.9467 O   0  0  0  0  0  0  0  0  0  0  0  0
   12.1633  -14.9765   18.5009 N   0  0  0  0  0  0  0  0  0  0  0  0
   13.3046  -15.8849   18.7792 C   0  0  1  0  0  0  0  0  0  0  0  0
   14.4273  -15.3643   17.9265 C   0  0  0  0  0  0  0  0  0  0  0  0
   14.3277  -15.6193   16.4965 C   0  0  0  0  0  0  0  0  0  0  0  0
   14.5858  -14.7840   15.6039 O   0  0  0  0  0  0  0  0  0  0  0  0
   13.5987  -15.8434   20.2376 C   0  0  0  0  0  0  0  0  0  0  0  0
   14.6167  -16.4298   20.6731 O   0  0  0  0  0  0  0  0  0  0  0  0
   13.9136  -16.8868   16.0311 O   0  0  0  0  0  0  0  0  0  0  0  0
   12.7109  -15.1336   21.1143 N   0  0  0  0  0  0  0  0  0  0  0  0
   13.0391  -14.9762   22.5060 C   0  0  0  0  0  0  0  0  0  0  0  0
   12.9020  -16.2566   23.2583 C   0  0  0  0  0  0  0  0  0  0  0  0
   12.4489  -17.4209   22.6766 O   0  0  0  0  0  0  0  0  0  0  0  0
   13.2151  -16.2554   24.4639 O   0  0  0  0  0  0  0  0  0  0  0  0
  1  2  1  0
  2  3  1  0
  3  5  1  0
  3  4  1  6
  5  7  1  0
  5  6  1  1
  7  9  1  0
  8  7  2  0
  9 10  1  0
 10 14  1  0
 10 11  1  6
 11 12  1  0
 12 13  2  0
 14 15  2  0
 14 17  1  0
 16 12  1  0
 17 18  1  0
 18 19  1  0
 19 20  1  0
 21 19  2  0
M  END
$$$$
