IDG.pdb
     RDKit          3D

 21 20  0  0  1  0  0  0  0  0999 V2000
    6.0706  -11.2058   27.2142 C   0  0  0  0  0  0  0  0  0  0  0  0
    7.3663  -11.6904   26.6463 C   0  0  0  0  0  0  0  0  0  0  0  0
    7.1816  -12.5382   25.4073 C   0  0  2  0  0  0  0  0  0  0  0  0
    6.3051  -11.8824   24.3923 C   0  0  0  0  0  0  0  0  0  0  0  0
    6.6808  -13.9105   25.8234 C   0  0  2  0  0  0  0  0  0  0  0  0
    7.1702  -14.1631   27.1548 N   0  0  0  0  0  0  0  0  0  0  0  0
    7.1363  -14.9710   24.9223 C   0  0  0  0  0  0  0  0  0  0  0  0
    7.2860  -14.7400   23.6987 O   0  0  0  0  0  0  0  0  0  0  0  0
    7.4245  -16.2845   25.3805 N   0  0  0  0  0  0  0  0  0  0  0  0
    8.2815  -17.1838   24.5667 C   0  0  1  0  0  0  0  0  0  0  0  0
    9.5615  -16.4213   24.3702 C   0  0  0  0  0  0  0  0  0  0  0  0
    9.9237  -16.1052   22.9958 C   0  0  0  0  0  0  0  0  0  0  0  0
    9.1945  -16.3080   22.0018 O   0  0  0  0  0  0  0  0  0  0  0  0
    8.4604  -18.4637   25.3048 C   0  0  0  0  0  0  0  0  0  0  0  0
    9.1119  -19.3915   24.7710 O   0  0  0  0  0  0  0  0  0  0  0  0
   11.1797  -15.5255   22.7108 O   0  0  0  0  0  0  0  0  0  0  0  0
    7.8835  -18.6091   26.6112 N   0  0  0  0  0  0  0  0  0  0  0  0
    8.6407  -18.2536   27.7814 C   0  0  0  0  0  0  0  0  0  0  0  0
    9.6004  -19.3268   28.1706 C   0  0  0  0  0  0  0  0  0  0  0  0
   10.0097  -19.5283   29.4710 O   0  0  0  0  0  0  0  0  0  0  0  0
   10.0410  -20.0637   27.2683 O   0  0  0  0  0  0  0  0  0  0  0  0
  1  2  1  0
  2  3  1  0
  3  5  1  0
  3  4  1  6
  5  7  1  0
  5  6  1  1
  7  9  1  0
  8  7  2  0
  9 10  1  0
 10 14  1  0
 10 11  1  1
 11 12  1  0
 12 13  2  0
 14 15  2  0
 14 17  1  0
 16 12  1  0
 17 18  1  0
 18 19  1  0
 19 20  1  0
 21 19  2  0
M  END
$$$$
