IDG.pdb
     RDKit          3D

 21 20  0  0  1  0  0  0  0  0999 V2000
    7.2881  -11.1428   26.9521 C   0  0  0  0  0  0  0  0  0  0  0  0
    7.1637  -12.6304   27.0390 C   0  0  0  0  0  0  0  0  0  0  0  0
    7.1116  -13.2937   25.6805 C   0  0  2  0  0  0  0  0  0  0  0  0
    6.0349  -12.7323   24.8121 C   0  0  0  0  0  0  0  0  0  0  0  0
    6.9934  -14.7957   25.8734 C   0  0  2  0  0  0  0  0  0  0  0  0
    7.5497  -15.1101   27.1646 N   0  0  0  0  0  0  0  0  0  0  0  0
    7.6985  -15.5517   24.8364 C   0  0  0  0  0  0  0  0  0  0  0  0
    7.0540  -16.2134   23.9879 O   0  0  0  0  0  0  0  0  0  0  0  0
    9.1159  -15.5720   24.7432 N   0  0  0  0  0  0  0  0  0  0  0  0
    9.7807  -16.4082   23.7116 C   0  0  1  0  0  0  0  0  0  0  0  0
   10.4741  -15.4267   22.8092 C   0  0  0  0  0  0  0  0  0  0  0  0
   11.0504  -15.9658   21.5855 C   0  0  0  0  0  0  0  0  0  0  0  0
   10.7544  -17.0718   21.0853 O   0  0  0  0  0  0  0  0  0  0  0  0
   10.7117  -17.3491   24.3920 C   0  0  0  0  0  0  0  0  0  0  0  0
   11.4220  -18.1144   23.6994 O   0  0  0  0  0  0  0  0  0  0  0  0
   12.0190  -15.2245   20.8735 O   0  0  0  0  0  0  0  0  0  0  0  0
   10.7765  -17.3608   25.8260 N   0  0  0  0  0  0  0  0  0  0  0  0
   11.6603  -18.2709   26.5041 C   0  0  0  0  0  0  0  0  0  0  0  0
   10.9756  -19.5451   26.8671 C   0  0  0  0  0  0  0  0  0  0  0  0
   10.5535  -19.8286   28.1480 O   0  0  0  0  0  0  0  0  0  0  0  0
   10.7852  -20.3779   25.9607 O   0  0  0  0  0  0  0  0  0  0  0  0
  1  2  1  0
  2  3  1  0
  3  5  1  0
  3  4  1  6
  5  7  1  0
  5  6  1  1
  7  9  1  0
  8  7  2  0
  9 10  1  0
 10 14  1  0
 10 11  1  6
 11 12  1  0
 12 13  2  0
 14 15  2  0
 14 17  1  0
 16 12  1  0
 17 18  1  0
 18 19  1  0
 19 20  1  0
 21 19  2  0
M  END
$$$$
