IDG.pdb
     RDKit          3D

 21 20  0  0  1  0  0  0  0  0999 V2000
    6.4233  -11.4815   27.3753 C   0  0  0  0  0  0  0  0  0  0  0  0
    5.9325  -12.3998   26.3020 C   0  0  0  0  0  0  0  0  0  0  0  0
    6.9233  -13.4931   25.9690 C   0  0  2  0  0  0  0  0  0  0  0  0
    8.2879  -12.9593   25.6836 C   0  0  0  0  0  0  0  0  0  0  0  0
    6.3651  -14.3295   24.8305 C   0  0  2  0  0  0  0  0  0  0  0  0
    5.0771  -14.8219   25.2481 N   0  0  0  0  0  0  0  0  0  0  0  0
    7.2337  -15.4560   24.4835 C   0  0  0  0  0  0  0  0  0  0  0  0
    7.1484  -16.5375   25.1129 O   0  0  0  0  0  0  0  0  0  0  0  0
    8.1944  -15.3802   23.4397 N   0  0  0  0  0  0  0  0  0  0  0  0
    9.1325  -16.5083   23.2101 C   0  0  1  0  0  0  0  0  0  0  0  0
    9.7087  -16.2578   21.8449 C   0  0  0  0  0  0  0  0  0  0  0  0
   10.7442  -17.1790   21.3989 C   0  0  0  0  0  0  0  0  0  0  0  0
   10.7072  -18.4190   21.5473 O   0  0  0  0  0  0  0  0  0  0  0  0
   10.1520  -16.5051   24.2943 C   0  0  0  0  0  0  0  0  0  0  0  0
   10.7198  -15.4298   24.5966 O   0  0  0  0  0  0  0  0  0  0  0  0
   11.8953  -16.6865   20.7452 O   0  0  0  0  0  0  0  0  0  0  0  0
   10.4638  -17.7324   24.9705 N   0  0  0  0  0  0  0  0  0  0  0  0
   11.1618  -17.7099   26.2281 C   0  0  0  0  0  0  0  0  0  0  0  0
   12.6200  -17.9739   26.0601 C   0  0  0  0  0  0  0  0  0  0  0  0
   13.4847  -18.0994   27.1258 O   0  0  0  0  0  0  0  0  0  0  0  0
   13.0581  -18.0828   24.8993 O   0  0  0  0  0  0  0  0  0  0  0  0
  1  2  1  0
  2  3  1  0
  3  5  1  0
  3  4  1  6
  5  7  1  0
  5  6  1  1
  7  9  1  0
  8  7  2  0
  9 10  1  0
 10 14  1  0
 10 11  1  6
 11 12  1  0
 12 13  2  0
 14 15  2  0
 14 17  1  0
 16 12  1  0
 17 18  1  0
 18 19  1  0
 19 20  1  0
 21 19  2  0
M  END
$$$$
