IDG.pdb
     RDKit          3D

 21 20  0  0  1  0  0  0  0  0999 V2000
    7.2395  -11.6718   19.5497 C   0  0  0  0  0  0  0  0  0  0  0  0
    7.2566  -13.1468   19.7948 C   0  0  0  0  0  0  0  0  0  0  0  0
    8.5913  -13.6393   20.3087 C   0  0  2  0  0  0  0  0  0  0  0  0
    9.7186  -13.2918   19.3940 C   0  0  0  0  0  0  0  0  0  0  0  0
    8.4902  -15.1297   20.5836 C   0  0  2  0  0  0  0  0  0  0  0  0
    7.3256  -15.3389   21.4057 N   0  0  0  0  0  0  0  0  0  0  0  0
    9.6744  -15.6562   21.2651 C   0  0  0  0  0  0  0  0  0  0  0  0
    9.8410  -15.4526   22.4914 O   0  0  0  0  0  0  0  0  0  0  0  0
   10.6705  -16.4069   20.5849 N   0  0  0  0  0  0  0  0  0  0  0  0
   11.8403  -16.9364   21.3309 C   0  0  1  0  0  0  0  0  0  0  0  0
   12.0273  -18.3341   20.8113 C   0  0  0  0  0  0  0  0  0  0  0  0
   13.0734  -19.1262   21.4424 C   0  0  0  0  0  0  0  0  0  0  0  0
   14.2784  -18.8007   21.4980 O   0  0  0  0  0  0  0  0  0  0  0  0
   13.0066  -16.0476   21.0763 C   0  0  0  0  0  0  0  0  0  0  0  0
   13.7224  -15.6871   22.0395 O   0  0  0  0  0  0  0  0  0  0  0  0
   12.7561  -20.3607   22.0507 O   0  0  0  0  0  0  0  0  0  0  0  0
   13.2869  -15.6218   19.7344 N   0  0  0  0  0  0  0  0  0  0  0  0
   14.4783  -14.8686   19.4470 C   0  0  0  0  0  0  0  0  0  0  0  0
   14.6109  -14.5707   17.9918 C   0  0  0  0  0  0  0  0  0  0  0  0
   15.3949  -13.5464   17.5066 O   0  0  0  0  0  0  0  0  0  0  0  0
   13.9785  -15.2888   17.1944 O   0  0  0  0  0  0  0  0  0  0  0  0
  1  2  1  0
  2  3  1  0
  3  5  1  0
  3  4  1  6
  5  7  1  0
  5  6  1  1
  7  9  1  0
  8  7  2  0
  9 10  1  0
 10 14  1  0
 10 11  1  6
 11 12  1  0
 12 13  2  0
 14 15  2  0
 14 17  1  0
 16 12  1  0
 17 18  1  0
 18 19  1  0
 19 20  1  0
 21 19  2  0
M  END
$$$$
