IDG.pdb
     RDKit          3D

 21 20  0  0  1  0  0  0  0  0999 V2000
    6.9238  -11.4568   26.8612 C   0  0  0  0  0  0  0  0  0  0  0  0
    6.4341  -12.8297   26.5275 C   0  0  0  0  0  0  0  0  0  0  0  0
    7.2602  -13.5005   25.4525 C   0  0  2  0  0  0  0  0  0  0  0  0
    7.3484  -12.6826   24.2067 C   0  0  0  0  0  0  0  0  0  0  0  0
    6.7067  -14.8937   25.2078 C   0  0  2  0  0  0  0  0  0  0  0  0
    6.4169  -15.4750   26.4938 N   0  0  0  0  0  0  0  0  0  0  0  0
    7.6453  -15.7506   24.4807 C   0  0  0  0  0  0  0  0  0  0  0  0
    7.2564  -16.4189   23.4931 O   0  0  0  0  0  0  0  0  0  0  0  0
    9.0122  -15.8641   24.8505 N   0  0  0  0  0  0  0  0  0  0  0  0
    9.9429  -16.6674   24.0175 C   0  0  1  0  0  0  0  0  0  0  0  0
   10.7904  -15.6539   23.3013 C   0  0  0  0  0  0  0  0  0  0  0  0
   11.1125  -15.9439   21.9112 C   0  0  0  0  0  0  0  0  0  0  0  0
   10.3453  -16.5122   21.1054 O   0  0  0  0  0  0  0  0  0  0  0  0
   10.7220  -17.5674   24.9110 C   0  0  0  0  0  0  0  0  0  0  0  0
   11.6151  -18.2950   24.4181 O   0  0  0  0  0  0  0  0  0  0  0  0
   12.3708  -15.5767   21.3853 O   0  0  0  0  0  0  0  0  0  0  0  0
   10.4343  -17.5837   26.3173 N   0  0  0  0  0  0  0  0  0  0  0  0
   11.1902  -18.4295   27.2018 C   0  0  0  0  0  0  0  0  0  0  0  0
   10.3123  -19.3644   27.9632 C   0  0  0  0  0  0  0  0  0  0  0  0
   10.6669  -19.8958   29.1843 O   0  0  0  0  0  0  0  0  0  0  0  0
    9.2147  -19.6673   27.4585 O   0  0  0  0  0  0  0  0  0  0  0  0
  1  2  1  0
  2  3  1  0
  3  5  1  0
  3  4  1  6
  5  7  1  0
  5  6  1  1
  7  9  1  0
  8  7  2  0
  9 10  1  0
 10 14  1  0
 10 11  1  1
 11 12  1  0
 12 13  2  0
 14 15  2  0
 14 17  1  0
 16 12  1  0
 17 18  1  0
 18 19  1  0
 19 20  1  0
 21 19  2  0
M  END
$$$$
