IDG.pdb
     RDKit          3D

 21 20  0  0  1  0  0  0  0  0999 V2000
    8.3042  -12.4852   27.4599 C   0  0  0  0  0  0  0  0  0  0  0  0
    7.7866  -13.7596   26.8735 C   0  0  0  0  0  0  0  0  0  0  0  0
    7.2031  -13.5729   25.4904 C   0  0  2  0  0  0  0  0  0  0  0  0
    6.0948  -12.5732   25.4686 C   0  0  0  0  0  0  0  0  0  0  0  0
    6.7875  -14.9292   24.9473 C   0  0  2  0  0  0  0  0  0  0  0  0
    5.9581  -15.5575   25.9440 N   0  0  0  0  0  0  0  0  0  0  0  0
    7.9342  -15.7892   24.6481 C   0  0  0  0  0  0  0  0  0  0  0  0
    8.2706  -16.6953   25.4475 O   0  0  0  0  0  0  0  0  0  0  0  0
    8.7045  -15.6421   23.4636 N   0  0  0  0  0  0  0  0  0  0  0  0
    9.8368  -16.5646   23.1945 C   0  0  1  0  0  0  0  0  0  0  0  0
   10.2066  -16.3116   21.7600 C   0  0  0  0  0  0  0  0  0  0  0  0
    9.3994  -16.9862   20.7534 C   0  0  0  0  0  0  0  0  0  0  0  0
    9.0308  -16.4743   19.6749 O   0  0  0  0  0  0  0  0  0  0  0  0
   10.9341  -16.2602   24.1528 C   0  0  0  0  0  0  0  0  0  0  0  0
   11.5513  -15.1745   24.0509 O   0  0  0  0  0  0  0  0  0  0  0  0
    8.9755  -18.3172   20.9622 O   0  0  0  0  0  0  0  0  0  0  0  0
   11.2626  -17.2154   25.1727 N   0  0  0  0  0  0  0  0  0  0  0  0
   12.3275  -16.9464   26.1017 C   0  0  0  0  0  0  0  0  0  0  0  0
   13.5322  -17.7807   25.8242 C   0  0  0  0  0  0  0  0  0  0  0  0
   13.6137  -18.6434   24.7525 O   0  0  0  0  0  0  0  0  0  0  0  0
   14.4972  -17.6809   26.6053 O   0  0  0  0  0  0  0  0  0  0  0  0
  1  2  1  0
  2  3  1  0
  3  5  1  0
  3  4  1  1
  5  7  1  0
  5  6  1  1
  7  9  1  0
  8  7  2  0
  9 10  1  0
 10 14  1  0
 10 11  1  6
 11 12  1  0
 12 13  2  0
 14 15  2  0
 14 17  1  0
 16 12  1  0
 17 18  1  0
 18 19  1  0
 19 20  1  0
 21 19  2  0
M  END
$$$$
