IDG.pdb
     RDKit          3D

 21 20  0  0  1  0  0  0  0  0999 V2000
    6.8700  -11.3594   27.0877 C   0  0  0  0  0  0  0  0  0  0  0  0
    6.3516  -12.4649   26.2244 C   0  0  0  0  0  0  0  0  0  0  0  0
    7.3786  -13.5487   25.9817 C   0  0  2  0  0  0  0  0  0  0  0  0
    8.6398  -13.0168   25.3859 C   0  0  0  0  0  0  0  0  0  0  0  0
    6.7445  -14.6450   25.1433 C   0  0  2  0  0  0  0  0  0  0  0  0
    5.5437  -15.0655   25.8195 N   0  0  0  0  0  0  0  0  0  0  0  0
    7.6327  -15.7942   24.9577 C   0  0  0  0  0  0  0  0  0  0  0  0
    7.7772  -16.6365   25.8757 O   0  0  0  0  0  0  0  0  0  0  0  0
    8.3582  -16.0062   23.7547 N   0  0  0  0  0  0  0  0  0  0  0  0
    9.1936  -17.2237   23.5959 C   0  0  1  0  0  0  0  0  0  0  0  0
    9.1052  -17.5629   22.1345 C   0  0  0  0  0  0  0  0  0  0  0  0
    9.8831  -18.7092   21.6864 C   0  0  0  0  0  0  0  0  0  0  0  0
   10.7547  -18.6733   20.7919 O   0  0  0  0  0  0  0  0  0  0  0  0
   10.5763  -16.9122   24.0502 C   0  0  0  0  0  0  0  0  0  0  0  0
   11.2919  -17.8336   24.5072 O   0  0  0  0  0  0  0  0  0  0  0  0
    9.6765  -19.9772   22.2730 O   0  0  0  0  0  0  0  0  0  0  0  0
   11.0609  -15.5643   23.9558 N   0  0  0  0  0  0  0  0  0  0  0  0
   12.4205  -15.2565   24.3106 C   0  0  0  0  0  0  0  0  0  0  0  0
   13.3644  -15.5319   23.1892 C   0  0  0  0  0  0  0  0  0  0  0  0
   14.7077  -15.2303   23.2513 O   0  0  0  0  0  0  0  0  0  0  0  0
   12.9013  -16.0576   22.1594 O   0  0  0  0  0  0  0  0  0  0  0  0
  1  2  1  0
  2  3  1  0
  3  5  1  0
  3  4  1  6
  5  7  1  0
  5  6  1  1
  7  9  1  0
  8  7  2  0
  9 10  1  0
 10 14  1  0
 10 11  1  6
 11 12  1  0
 12 13  2  0
 14 15  2  0
 14 17  1  0
 16 12  1  0
 17 18  1  0
 18 19  1  0
 19 20  1  0
 21 19  2  0
M  END
$$$$
