IDG.pdb
     RDKit          3D

 21 20  0  0  1  0  0  0  0  0999 V2000
    7.6234  -12.1690   21.8232 C   0  0  0  0  0  0  0  0  0  0  0  0
    7.5701  -13.6300   21.5091 C   0  0  0  0  0  0  0  0  0  0  0  0
    8.4658  -14.0130   20.3519 C   0  0  2  0  0  0  0  0  0  0  0  0
    8.1812  -13.2165   19.1218 C   0  0  0  0  0  0  0  0  0  0  0  0
    8.3586  -15.5110   20.1249 C   0  0  2  0  0  0  0  0  0  0  0  0
    6.9860  -15.8007   19.7966 N   0  0  0  0  0  0  0  0  0  0  0  0
    8.7575  -16.2867   21.3010 C   0  0  0  0  0  0  0  0  0  0  0  0
    7.9155  -16.5718   22.1857 O   0  0  0  0  0  0  0  0  0  0  0  0
   10.0888  -16.7441   21.4928 N   0  0  0  0  0  0  0  0  0  0  0  0
   10.4436  -17.5052   22.7176 C   0  0  1  0  0  0  0  0  0  0  0  0
   10.7247  -18.9005   22.2354 C   0  0  0  0  0  0  0  0  0  0  0  0
    9.5656  -19.7303   21.9391 C   0  0  0  0  0  0  0  0  0  0  0  0
    9.4190  -20.4041   20.8972 O   0  0  0  0  0  0  0  0  0  0  0  0
   11.6167  -16.8512   23.3588 C   0  0  0  0  0  0  0  0  0  0  0  0
   12.0199  -17.2708   24.4684 O   0  0  0  0  0  0  0  0  0  0  0  0
    8.5012  -19.8147   22.8635 O   0  0  0  0  0  0  0  0  0  0  0  0
   12.2612  -15.7544   22.6938 N   0  0  0  0  0  0  0  0  0  0  0  0
   13.4342  -15.1488   23.2652 C   0  0  0  0  0  0  0  0  0  0  0  0
   14.6721  -15.9115   22.9333 C   0  0  0  0  0  0  0  0  0  0  0  0
   15.9368  -15.3823   23.0738 O   0  0  0  0  0  0  0  0  0  0  0  0
   14.5385  -17.0760   22.5119 O   0  0  0  0  0  0  0  0  0  0  0  0
  1  2  1  0
  2  3  1  0
  3  5  1  0
  3  4  1  6
  5  7  1  0
  5  6  1  1
  7  9  1  0
  8  7  2  0
  9 10  1  0
 10 14  1  0
 10 11  1  6
 11 12  1  0
 12 13  2  0
 14 15  2  0
 14 17  1  0
 16 12  1  0
 17 18  1  0
 18 19  1  0
 19 20  1  0
 21 19  2  0
M  END
$$$$
