IDG.pdb
     RDKit          3D

 21 20  0  0  1  0  0  0  0  0999 V2000
    8.3384  -11.9345   19.6457 C   0  0  0  0  0  0  0  0  0  0  0  0
    8.4841  -12.9318   20.7503 C   0  0  0  0  0  0  0  0  0  0  0  0
    8.2718  -14.3555   20.2852 C   0  0  2  0  0  0  0  0  0  0  0  0
    6.9431  -14.5509   19.6335 C   0  0  0  0  0  0  0  0  0  0  0  0
    8.4991  -15.2928   21.4586 C   0  0  2  0  0  0  0  0  0  0  0  0
    9.3212  -14.5959   22.4148 N   0  0  0  0  0  0  0  0  0  0  0  0
    9.1557  -16.5399   21.0616 C   0  0  0  0  0  0  0  0  0  0  0  0
    8.5489  -17.3749   20.3491 O   0  0  0  0  0  0  0  0  0  0  0  0
   10.4831  -16.8576   21.4556 N   0  0  0  0  0  0  0  0  0  0  0  0
   11.0970  -18.1413   21.0308 C   0  0  1  0  0  0  0  0  0  0  0  0
   12.4564  -17.7647   20.5124 C   0  0  0  0  0  0  0  0  0  0  0  0
   12.5088  -17.2259   19.1608 C   0  0  0  0  0  0  0  0  0  0  0  0
   11.8911  -17.6958   18.1817 O   0  0  0  0  0  0  0  0  0  0  0  0
   11.1417  -19.0564   22.2037 C   0  0  0  0  0  0  0  0  0  0  0  0
   11.2767  -20.2875   22.0140 O   0  0  0  0  0  0  0  0  0  0  0  0
   13.3007  -16.0901   18.8823 O   0  0  0  0  0  0  0  0  0  0  0  0
   11.0291  -18.5105   23.5265 N   0  0  0  0  0  0  0  0  0  0  0  0
   11.0594  -19.3780   24.6735 C   0  0  0  0  0  0  0  0  0  0  0  0
   12.3809  -19.3420   25.3639 C   0  0  0  0  0  0  0  0  0  0  0  0
   12.6075  -19.9543   26.5775 O   0  0  0  0  0  0  0  0  0  0  0  0
   13.3089  -18.7272   24.8050 O   0  0  0  0  0  0  0  0  0  0  0  0
  1  2  1  0
  2  3  1  0
  3  5  1  0
  3  4  1  1
  5  7  1  0
  5  6  1  1
  7  9  1  0
  8  7  2  0
  9 10  1  0
 10 14  1  0
 10 11  1  1
 11 12  1  0
 12 13  2  0
 14 15  2  0
 14 17  1  0
 16 12  1  0
 17 18  1  0
 18 19  1  0
 19 20  1  0
 21 19  2  0
M  END
$$$$
