PNS.pdb
     RDKit          3D

 22 22  0  0  1  0  0  0  0  0999 V2000
   26.5733  -11.0548  -17.0606 N   0  0  0  0  0  0  0  0  0  0  0  0
   26.0877  -11.8555  -15.9795 C   0  0  0  0  0  0  0  0  0  0  0  0
   25.9798  -13.2291  -16.6561 C   0  0  0  0  0  0  0  0  0  0  0  0
   25.3843  -12.8634  -18.0033 C   0  0  0  0  0  0  0  0  0  0  0  0
   25.7412  -11.3843  -18.1662 C   0  0  1  0  0  0  0  0  0  0  0  0
   24.5222  -10.5633  -18.2058 C   0  0  0  0  0  0  0  0  0  0  0  0
   23.6331  -10.7436  -19.0990 O   0  0  0  0  0  0  0  0  0  0  0  0
   19.5342   -9.2909  -16.2897 N   0  0  0  0  0  0  0  0  0  0  0  0
   20.5582   -8.8724  -17.1690 C   0  0  0  0  0  0  0  0  0  0  0  0
   20.3091   -7.9421  -17.9808 O   0  0  0  0  0  0  0  0  0  0  0  0
   21.8581   -9.5636  -17.0700 C   0  0  0  0  0  0  0  0  0  0  0  0
   23.0371   -8.7101  -17.4126 C   0  0  2  0  0  0  0  0  0  0  0  0
   24.2531   -9.5387  -17.2786 N   0  0  0  0  0  0  0  0  0  0  0  0
   23.1776   -7.5960  -16.4486 C   0  0  0  0  0  0  0  0  0  0  0  0
   23.6619   -7.7496  -15.3115 O   0  0  0  0  0  0  0  0  0  0  0  0
   22.6232   -2.7806  -15.7982 O   0  0  0  0  0  0  0  0  0  0  0  0
   22.4072   -3.8712  -16.6236 C   0  0  0  0  0  0  0  0  0  0  0  0
   22.8517   -5.1582  -15.9151 C   0  0  2  0  0  0  0  0  0  0  0  0
   22.7521   -6.2767  -16.7994 N   0  0  0  0  0  0  0  0  0  0  0  0
   22.0766   -5.2715  -14.6919 C   0  0  0  0  0  0  0  0  0  0  0  0
   22.5469   -4.9132  -13.5947 O   0  0  0  0  0  0  0  0  0  0  0  0
   20.7968   -5.7809  -14.7202 O   0  0  0  0  0  0  0  0  0  0  0  0
  2  1  1  0
  3  2  1  0
  4  3  1  0
  4  5  1  0
  5  1  1  0
  5  6  1  1
  6 13  1  0
  7  6  2  0
  9  8  1  0
 10  9  2  0
 11  9  1  0
 12 11  1  1
 12 13  1  0
 12 14  1  0
 14 19  1  0
 15 14  2  0
 16 17  1  0
 18 20  1  0
 18 17  1  6
 19 18  1  0
 20 22  1  0
 21 20  2  0
M  END
$$$$
