PNS.pdb
     RDKit          3D

 22 22  0  0  1  0  0  0  0  0999 V2000
   18.9531  -25.8416   -8.6721 N   0  0  0  0  0  0  0  0  0  0  0  0
   17.8315  -25.8730   -9.5591 C   0  0  0  0  0  0  0  0  0  0  0  0
   17.4979  -24.3784   -9.6643 C   0  0  0  0  0  0  0  0  0  0  0  0
   17.6473  -23.9267   -8.2232 C   0  0  0  0  0  0  0  0  0  0  0  0
   18.5542  -24.9919   -7.6032 C   0  0  1  0  0  0  0  0  0  0  0  0
   17.8382  -25.7263   -6.5499 C   0  0  0  0  0  0  0  0  0  0  0  0
   17.1707  -26.7776   -6.8147 O   0  0  0  0  0  0  0  0  0  0  0  0
   19.1688  -28.1034   -4.3024 N   0  0  0  0  0  0  0  0  0  0  0  0
   19.1710  -27.3277   -3.1212 C   0  0  0  0  0  0  0  0  0  0  0  0
   20.0338  -27.5802   -2.2389 O   0  0  0  0  0  0  0  0  0  0  0  0
   18.1512  -26.2674   -3.0072 C   0  0  0  0  0  0  0  0  0  0  0  0
   17.2138  -26.1871   -4.1694 C   0  0  2  0  0  0  0  0  0  0  0  0
   17.8376  -25.3303   -5.1990 N   0  0  0  0  0  0  0  0  0  0  0  0
   15.9487  -25.5252   -3.7799 C   0  0  0  0  0  0  0  0  0  0  0  0
   15.8700  -24.3008   -3.5666 O   0  0  0  0  0  0  0  0  0  0  0  0
   12.6257  -27.9286   -3.1117 O   0  0  0  0  0  0  0  0  0  0  0  0
   12.3436  -26.6815   -3.6433 C   0  0  0  0  0  0  0  0  0  0  0  0
   13.4817  -25.7050   -3.3159 C   0  0  2  0  0  0  0  0  0  0  0  0
   14.7480  -26.2876   -3.6325 N   0  0  0  0  0  0  0  0  0  0  0  0
   13.3217  -25.2990   -1.9305 C   0  0  0  0  0  0  0  0  0  0  0  0
   14.2307  -25.4783   -1.0968 O   0  0  0  0  0  0  0  0  0  0  0  0
   12.1538  -24.7033   -1.5072 O   0  0  0  0  0  0  0  0  0  0  0  0
  2  1  1  0
  3  2  1  0
  4  3  1  0
  4  5  1  0
  5  1  1  0
  5  6  1  1
  6 13  1  0
  7  6  2  0
  9  8  1  0
 10  9  2  0
 11  9  1  0
 12 11  1  1
 12 13  1  0
 12 14  1  0
 14 19  1  0
 15 14  2  0
 16 17  1  0
 18 20  1  0
 18 17  1  1
 19 18  1  0
 20 22  1  0
 21 20  2  0
M  END
$$$$
