PNS.pdb
     RDKit          3D

 22 22  0  0  1  0  0  0  0  0999 V2000
   16.3450  -27.3779   -5.0639 N   0  0  0  0  0  0  0  0  0  0  0  0
   15.7747  -26.7689   -6.2257 C   0  0  0  0  0  0  0  0  0  0  0  0
   17.0371  -26.2941   -6.9586 C   0  0  0  0  0  0  0  0  0  0  0  0
   17.8656  -25.7360   -5.8160 C   0  0  0  0  0  0  0  0  0  0  0  0
   17.2928  -26.4337   -4.5804 C   0  0  1  0  0  0  0  0  0  0  0  0
   16.6822  -25.4515   -3.6727 C   0  0  0  0  0  0  0  0  0  0  0  0
   17.3603  -24.4888   -3.1885 O   0  0  0  0  0  0  0  0  0  0  0  0
   14.1898  -22.1517   -3.5350 N   0  0  0  0  0  0  0  0  0  0  0  0
   13.0829  -22.9880   -3.2661 C   0  0  0  0  0  0  0  0  0  0  0  0
   11.9330  -22.5813   -3.5809 O   0  0  0  0  0  0  0  0  0  0  0  0
   13.3587  -24.2903   -2.6296 C   0  0  0  0  0  0  0  0  0  0  0  0
   14.7997  -24.5249   -2.3066 C   0  0  2  0  0  0  0  0  0  0  0  0
   15.3313  -25.5011   -3.2800 N   0  0  0  0  0  0  0  0  0  0  0  0
   14.9452  -25.1413   -0.9690 C   0  0  0  0  0  0  0  0  0  0  0  0
   14.6239  -24.5520    0.0801 O   0  0  0  0  0  0  0  0  0  0  0  0
   15.6082  -29.2963    1.4495 O   0  0  0  0  0  0  0  0  0  0  0  0
   15.5003  -28.6575    0.2257 C   0  0  0  0  0  0  0  0  0  0  0  0
   15.5915  -27.1377    0.4204 C   0  0  2  0  0  0  0  0  0  0  0  0
   15.4716  -26.4640   -0.8345 N   0  0  0  0  0  0  0  0  0  0  0  0
   16.8182  -26.8651    1.1489 C   0  0  0  0  0  0  0  0  0  0  0  0
   17.7538  -26.2319    0.6226 O   0  0  0  0  0  0  0  0  0  0  0  0
   16.9733  -27.3043    2.4455 O   0  0  0  0  0  0  0  0  0  0  0  0
  2  1  1  0
  3  2  1  0
  4  3  1  0
  4  5  1  0
  5  1  1  0
  5  6  1  1
  6 13  1  0
  7  6  2  0
  9  8  1  0
 10  9  2  0
 11  9  1  0
 12 11  1  6
 12 13  1  0
 12 14  1  0
 14 19  1  0
 15 14  2  0
 16 17  1  0
 18 20  1  0
 18 17  1  6
 19 18  1  0
 20 22  1  0
 21 20  2  0
M  END
$$$$
