PNS.pdb
     RDKit          3D

 22 22  0  0  1  0  0  0  0  0999 V2000
   18.4259  -11.0724  -15.4506 N   0  0  0  0  0  0  0  0  0  0  0  0
   18.6990  -10.5073  -16.7359 C   0  0  0  0  0  0  0  0  0  0  0  0
   20.1828  -10.8629  -16.9043 C   0  0  0  0  0  0  0  0  0  0  0  0
   20.7304  -10.5644  -15.5207 C   0  0  0  0  0  0  0  0  0  0  0  0
   19.4949  -10.6343  -14.6206 C   0  0  1  0  0  0  0  0  0  0  0  0
   19.2246   -9.3214  -14.0167 C   0  0  0  0  0  0  0  0  0  0  0  0
   18.3974   -8.5096  -14.5437 O   0  0  0  0  0  0  0  0  0  0  0  0
   20.2933   -5.5808   -9.6596 N   0  0  0  0  0  0  0  0  0  0  0  0
   19.2479   -6.4603  -10.0210 C   0  0  0  0  0  0  0  0  0  0  0  0
   18.0692   -6.1571   -9.6964 O   0  0  0  0  0  0  0  0  0  0  0  0
   19.6183   -7.6826  -10.7601 C   0  0  0  0  0  0  0  0  0  0  0  0
   19.4779   -7.5709  -12.2445 C   0  0  2  0  0  0  0  0  0  0  0  0
   19.8468   -8.8738  -12.8359 N   0  0  0  0  0  0  0  0  0  0  0  0
   20.4288   -6.5763  -12.7893 C   0  0  0  0  0  0  0  0  0  0  0  0
   21.6068   -6.8610  -13.0762 O   0  0  0  0  0  0  0  0  0  0  0  0
   21.6380   -3.7437  -15.9130 O   0  0  0  0  0  0  0  0  0  0  0  0
   20.9072   -4.6884  -15.2125 C   0  0  0  0  0  0  0  0  0  0  0  0
   20.7961   -4.2745  -13.7386 C   0  0  2  0  0  0  0  0  0  0  0  0
   20.0164   -5.2248  -13.0091 N   0  0  0  0  0  0  0  0  0  0  0  0
   20.2925   -2.9126  -13.7058 C   0  0  0  0  0  0  0  0  0  0  0  0
   19.0797   -2.6771  -13.5409 O   0  0  0  0  0  0  0  0  0  0  0  0
   21.1513   -1.8460  -13.8575 O   0  0  0  0  0  0  0  0  0  0  0  0
  2  1  1  0
  3  2  1  0
  4  3  1  0
  4  5  1  0
  5  1  1  0
  5  6  1  6
  6 13  1  0
  7  6  2  0
  9  8  1  0
 10  9  2  0
 11  9  1  0
 12 11  1  1
 12 13  1  0
 12 14  1  0
 14 19  1  0
 15 14  2  0
 16 17  1  0
 18 20  1  0
 18 17  1  6
 19 18  1  0
 20 22  1  0
 21 20  2  0
M  END
$$$$
