PNS.pdb
     RDKit          3D

 22 22  0  0  1  0  0  0  0  0999 V2000
   19.8046  -12.6120  -15.7538 N   0  0  0  0  0  0  0  0  0  0  0  0
   18.4833  -12.9609  -16.1758 C   0  0  0  0  0  0  0  0  0  0  0  0
   18.7669  -13.5730  -17.5546 C   0  0  0  0  0  0  0  0  0  0  0  0
   19.7959  -12.6082  -18.1146 C   0  0  0  0  0  0  0  0  0  0  0  0
   20.3827  -11.9427  -16.8679 C   0  0  1  0  0  0  0  0  0  0  0  0
   20.0836  -10.5032  -16.8652 C   0  0  0  0  0  0  0  0  0  0  0  0
   20.4430   -9.7521  -17.8283 O   0  0  0  0  0  0  0  0  0  0  0  0
   16.9768   -8.8813  -17.6060 N   0  0  0  0  0  0  0  0  0  0  0  0
   16.6125   -8.4856  -16.2992 C   0  0  0  0  0  0  0  0  0  0  0  0
   15.3879   -8.3858  -16.0217 O   0  0  0  0  0  0  0  0  0  0  0  0
   17.7057   -8.2155  -15.3457 C   0  0  0  0  0  0  0  0  0  0  0  0
   19.0766   -8.4211  -15.9061 C   0  0  2  0  0  0  0  0  0  0  0  0
   19.3921   -9.8621  -15.8199 N   0  0  0  0  0  0  0  0  0  0  0  0
   20.0900   -7.7179  -15.0883 C   0  0  0  0  0  0  0  0  0  0  0  0
   20.4558   -8.1311  -13.9719 O   0  0  0  0  0  0  0  0  0  0  0  0
   23.6712   -4.4390  -15.2529 O   0  0  0  0  0  0  0  0  0  0  0  0
   22.6622   -5.1179  -15.9150 C   0  0  0  0  0  0  0  0  0  0  0  0
   21.7858   -5.8677  -14.9022 C   0  0  2  0  0  0  0  0  0  0  0  0
   20.6960   -6.5134  -15.5644 N   0  0  0  0  0  0  0  0  0  0  0  0
   21.4026   -4.9186  -13.8716 C   0  0  0  0  0  0  0  0  0  0  0  0
   20.3852   -4.2091  -13.9943 O   0  0  0  0  0  0  0  0  0  0  0  0
   22.1613   -4.7826  -12.7297 O   0  0  0  0  0  0  0  0  0  0  0  0
  2  1  1  0
  3  2  1  0
  4  3  1  0
  4  5  1  0
  5  1  1  0
  5  6  1  1
  6 13  1  0
  7  6  2  0
  9  8  1  0
 10  9  2  0
 11  9  1  0
 12 11  1  1
 12 13  1  0
 12 14  1  0
 14 19  1  0
 15 14  2  0
 16 17  1  0
 18 20  1  0
 18 17  1  6
 19 18  1  0
 20 22  1  0
 21 20  2  0
M  END
$$$$
