PNS.pdb
     RDKit          3D

 22 22  0  0  1  0  0  0  0  0999 V2000
   22.2665  -12.3547  -17.2100 N   0  0  0  0  0  0  0  0  0  0  0  0
   21.1437  -13.2068  -16.9672 C   0  0  0  0  0  0  0  0  0  0  0  0
   20.8625  -13.7330  -18.3815 C   0  0  0  0  0  0  0  0  0  0  0  0
   21.0290  -12.4769  -19.2168 C   0  0  0  0  0  0  0  0  0  0  0  0
   21.8987  -11.5731  -18.3402 C   0  0  1  0  0  0  0  0  0  0  0  0
   21.1583  -10.3617  -17.9582 C   0  0  0  0  0  0  0  0  0  0  0  0
   20.7400   -9.5392  -18.8354 O   0  0  0  0  0  0  0  0  0  0  0  0
   18.4784   -6.7006  -15.6489 N   0  0  0  0  0  0  0  0  0  0  0  0
   18.0592   -7.9755  -15.2063 C   0  0  0  0  0  0  0  0  0  0  0  0
   16.9516   -8.0709  -14.6139 O   0  0  0  0  0  0  0  0  0  0  0  0
   18.9596   -9.1135  -15.4737 C   0  0  0  0  0  0  0  0  0  0  0  0
   20.1540   -8.7713  -16.3056 C   0  0  2  0  0  0  0  0  0  0  0  0
   20.8630  -10.0283  -16.6228 N   0  0  0  0  0  0  0  0  0  0  0  0
   21.1042   -7.9325  -15.5416 C   0  0  0  0  0  0  0  0  0  0  0  0
   21.7351   -8.3602  -14.5567 O   0  0  0  0  0  0  0  0  0  0  0  0
   23.6524   -3.7937  -15.5154 O   0  0  0  0  0  0  0  0  0  0  0  0
   22.7790   -4.6295  -16.1907 C   0  0  0  0  0  0  0  0  0  0  0  0
   22.2549   -5.7146  -15.2400 C   0  0  2  0  0  0  0  0  0  0  0  0
   21.3342   -6.5723  -15.9181 N   0  0  0  0  0  0  0  0  0  0  0  0
   21.7204   -5.0446  -14.0674 C   0  0  0  0  0  0  0  0  0  0  0  0
   20.5490   -4.6194  -14.0453 O   0  0  0  0  0  0  0  0  0  0  0  0
   22.5030   -4.8644  -12.9479 O   0  0  0  0  0  0  0  0  0  0  0  0
  2  1  1  0
  3  2  1  0
  4  3  1  0
  4  5  1  0
  5  1  1  0
  5  6  1  1
  6 13  1  0
  7  6  2  0
  9  8  1  0
 10  9  2  0
 11  9  1  0
 12 11  1  1
 12 13  1  0
 12 14  1  0
 14 19  1  0
 15 14  2  0
 16 17  1  0
 18 20  1  0
 18 17  1  6
 19 18  1  0
 20 22  1  0
 21 20  2  0
M  END
$$$$
