PNS.pdb
     RDKit          3D

 22 22  0  0  1  0  0  0  0  0999 V2000
   19.1720  -12.6813  -16.7718 N   0  0  0  0  0  0  0  0  0  0  0  0
   18.1346  -13.4369  -16.1406 C   0  0  0  0  0  0  0  0  0  0  0  0
   17.1072  -13.5324  -17.2771 C   0  0  0  0  0  0  0  0  0  0  0  0
   17.1441  -12.1256  -17.8453 C   0  0  0  0  0  0  0  0  0  0  0  0
   18.5058  -11.5907  -17.3966 C   0  0  1  0  0  0  0  0  0  0  0  0
   18.3345  -10.4506  -16.4844 C   0  0  0  0  0  0  0  0  0  0  0  0
   17.7613   -9.3797  -16.8660 O   0  0  0  0  0  0  0  0  0  0  0  0
   16.9868   -7.9744  -11.6826 N   0  0  0  0  0  0  0  0  0  0  0  0
   18.2352   -8.5824  -11.9450 C   0  0  0  0  0  0  0  0  0  0  0  0
   19.2485   -8.1646  -11.3243 O   0  0  0  0  0  0  0  0  0  0  0  0
   18.2599   -9.6738  -12.9377 C   0  0  0  0  0  0  0  0  0  0  0  0
   18.6589   -9.2458  -14.3137 C   0  0  2  0  0  0  0  0  0  0  0  0
   18.7819  -10.4579  -15.1497 N   0  0  0  0  0  0  0  0  0  0  0  0
   19.9936   -8.6064  -14.2991 C   0  0  0  0  0  0  0  0  0  0  0  0
   21.0509   -9.2582  -14.3899 O   0  0  0  0  0  0  0  0  0  0  0  0
   22.9950   -5.8291  -15.9441 O   0  0  0  0  0  0  0  0  0  0  0  0
   21.7931   -6.5027  -15.8064 C   0  0  0  0  0  0  0  0  0  0  0  0
   21.3522   -6.4882  -14.3362 C   0  0  2  0  0  0  0  0  0  0  0  0
   20.1153   -7.1869  -14.1775 N   0  0  0  0  0  0  0  0  0  0  0  0
   21.3350   -5.1027  -13.9007 C   0  0  0  0  0  0  0  0  0  0  0  0
   20.3215   -4.3925  -14.0487 O   0  0  0  0  0  0  0  0  0  0  0  0
   22.4466   -4.5416  -13.3110 O   0  0  0  0  0  0  0  0  0  0  0  0
  2  1  1  0
  3  2  1  0
  4  3  1  0
  4  5  1  0
  5  1  1  0
  5  6  1  1
  6 13  1  0
  7  6  2  0
  9  8  1  0
 10  9  2  0
 11  9  1  0
 12 11  1  1
 12 13  1  0
 12 14  1  0
 14 19  1  0
 15 14  2  0
 16 17  1  0
 18 20  1  0
 18 17  1  6
 19 18  1  0
 20 22  1  0
 21 20  2  0
M  END
$$$$
