PNS.pdb
     RDKit          3D

 22 22  0  0  1  0  0  0  0  0999 V2000
   23.1601  -10.6923  -19.3439 N   0  0  0  0  0  0  0  0  0  0  0  0
   22.7952  -11.9918  -18.8708 C   0  0  0  0  0  0  0  0  0  0  0  0
   22.0233  -12.5388  -20.0796 C   0  0  0  0  0  0  0  0  0  0  0  0
   21.1981  -11.3330  -20.4900 C   0  0  0  0  0  0  0  0  0  0  0  0
   21.9648  -10.1509  -19.8932 C   0  0  1  0  0  0  0  0  0  0  0  0
   21.1484   -9.4689  -18.8783 C   0  0  0  0  0  0  0  0  0  0  0  0
   20.0101   -8.9775  -19.1674 O   0  0  0  0  0  0  0  0  0  0  0  0
   19.3322   -7.3473  -14.5518 N   0  0  0  0  0  0  0  0  0  0  0  0
   19.5320   -8.7407  -14.4278 C   0  0  0  0  0  0  0  0  0  0  0  0
   18.9931   -9.3405  -13.4601 O   0  0  0  0  0  0  0  0  0  0  0  0
   20.3665   -9.3975  -15.4523 C   0  0  0  0  0  0  0  0  0  0  0  0
   20.7416   -8.5149  -16.5995 C   0  0  2  0  0  0  0  0  0  0  0  0
   21.5558   -9.3122  -17.5399 N   0  0  0  0  0  0  0  0  0  0  0  0
   21.5972   -7.3963  -16.1445 C   0  0  0  0  0  0  0  0  0  0  0  0
   22.8237   -7.5189  -15.9667 O   0  0  0  0  0  0  0  0  0  0  0  0
   20.8754   -3.7097  -17.3451 O   0  0  0  0  0  0  0  0  0  0  0  0
   21.1036   -3.6751  -15.9798 C   0  0  0  0  0  0  0  0  0  0  0  0
   21.8098   -4.9635  -15.5359 C   0  0  2  0  0  0  0  0  0  0  0  0
   21.0304   -6.1087  -15.8884 N   0  0  0  0  0  0  0  0  0  0  0  0
   22.1033   -4.8330  -14.1193 C   0  0  0  0  0  0  0  0  0  0  0  0
   21.6372   -5.6356  -13.2874 O   0  0  0  0  0  0  0  0  0  0  0  0
   22.9085   -3.8122  -13.6636 O   0  0  0  0  0  0  0  0  0  0  0  0
  2  1  1  0
  3  2  1  0
  4  3  1  0
  4  5  1  0
  5  1  1  0
  5  6  1  1
  6 13  1  0
  7  6  2  0
  9  8  1  0
 10  9  2  0
 11  9  1  0
 12 11  1  1
 12 13  1  0
 12 14  1  0
 14 19  1  0
 15 14  2  0
 16 17  1  0
 18 20  1  0
 18 17  1  1
 19 18  1  0
 20 22  1  0
 21 20  2  0
M  END
$$$$
