PNS.pdb
     RDKit          3D

 22 22  0  0  1  0  0  0  0  0999 V2000
   27.1060  -20.5582  -15.5752 N   0  0  0  0  0  0  0  0  0  0  0  0
   27.1606  -20.2230  -16.9646 C   0  0  0  0  0  0  0  0  0  0  0  0
   28.1715  -19.0680  -16.9490 C   0  0  0  0  0  0  0  0  0  0  0  0
   27.7271  -18.2856  -15.7269 C   0  0  0  0  0  0  0  0  0  0  0  0
   26.9515  -19.3147  -14.9018 C   0  0  1  0  0  0  0  0  0  0  0  0
   25.5400  -18.9205  -14.7842 C   0  0  0  0  0  0  0  0  0  0  0  0
   25.2065  -17.8058  -14.2673 O   0  0  0  0  0  0  0  0  0  0  0  0
   20.6000  -18.1183  -15.1282 N   0  0  0  0  0  0  0  0  0  0  0  0
   21.1146  -18.5258  -16.3797 C   0  0  0  0  0  0  0  0  0  0  0  0
   20.4063  -18.3491  -17.4062 O   0  0  0  0  0  0  0  0  0  0  0  0
   22.4584  -19.1350  -16.3917 C   0  0  0  0  0  0  0  0  0  0  0  0
   23.0767  -19.2892  -15.0390 C   0  0  2  0  0  0  0  0  0  0  0  0
   24.4751  -19.7287  -15.2252 N   0  0  0  0  0  0  0  0  0  0  0  0
   22.3984  -20.3560  -14.2694 C   0  0  0  0  0  0  0  0  0  0  0  0
   22.3543  -21.5387  -14.6569 O   0  0  0  0  0  0  0  0  0  0  0  0
   19.9980  -19.3778  -10.9161 O   0  0  0  0  0  0  0  0  0  0  0  0
   20.8264  -20.4828  -10.8160 C   0  0  0  0  0  0  0  0  0  0  0  0
   21.1191  -21.0442  -12.2142 C   0  0  2  0  0  0  0  0  0  0  0  0
   21.7569  -20.0564  -13.0270 N   0  0  0  0  0  0  0  0  0  0  0  0
   19.8705  -21.5631  -12.7449 C   0  0  0  0  0  0  0  0  0  0  0  0
   19.3057  -21.0189  -13.7135 O   0  0  0  0  0  0  0  0  0  0  0  0
   19.2814  -22.6752  -12.1843 O   0  0  0  0  0  0  0  0  0  0  0  0
  2  1  1  0
  3  2  1  0
  4  3  1  0
  4  5  1  0
  5  1  1  0
  5  6  1  6
  6 13  1  0
  7  6  2  0
  9  8  1  0
 10  9  2  0
 11  9  1  0
 12 11  1  6
 12 13  1  0
 12 14  1  0
 14 19  1  0
 15 14  2  0
 16 17  1  0
 18 20  1  0
 18 17  1  1
 19 18  1  0
 20 22  1  0
 21 20  2  0
M  END
$$$$
