PNS.pdb
     RDKit          3D

 22 22  0  0  1  0  0  0  0  0999 V2000
   21.2233  -10.6212  -18.7228 N   0  0  0  0  0  0  0  0  0  0  0  0
   21.6219  -11.6890  -17.8587 C   0  0  0  0  0  0  0  0  0  0  0  0
   20.4214  -12.6367  -17.9891 C   0  0  0  0  0  0  0  0  0  0  0  0
   19.2556  -11.6661  -17.9417 C   0  0  0  0  0  0  0  0  0  0  0  0
   19.8798  -10.3317  -18.3555 C   0  0  1  0  0  0  0  0  0  0  0  0
   19.8040   -9.3647  -17.2507 C   0  0  0  0  0  0  0  0  0  0  0  0
   18.6858   -9.0262  -16.7449 O   0  0  0  0  0  0  0  0  0  0  0  0
   20.7423   -5.9878  -13.5179 N   0  0  0  0  0  0  0  0  0  0  0  0
   21.5087   -7.1601  -13.3294 C   0  0  0  0  0  0  0  0  0  0  0  0
   22.0806   -7.3314  -12.2203 O   0  0  0  0  0  0  0  0  0  0  0  0
   21.5832   -8.1074  -14.4583 C   0  0  0  0  0  0  0  0  0  0  0  0
   20.7846   -7.7023  -15.6558 C   0  0  2  0  0  0  0  0  0  0  0  0
   20.9379   -8.7543  -16.6821 N   0  0  0  0  0  0  0  0  0  0  0  0
   21.3192   -6.4553  -16.2470 C   0  0  0  0  0  0  0  0  0  0  0  0
   22.4328   -6.3992  -16.8018 O   0  0  0  0  0  0  0  0  0  0  0  0
   20.2135   -1.8911  -17.5651 O   0  0  0  0  0  0  0  0  0  0  0  0
   19.8235   -3.0204  -16.8651 C   0  0  0  0  0  0  0  0  0  0  0  0
   20.9825   -4.0251  -16.8077 C   0  0  2  0  0  0  0  0  0  0  0  0
   20.5568   -5.2465  -16.1994 N   0  0  0  0  0  0  0  0  0  0  0  0
   22.0969   -3.3666  -16.1485 C   0  0  0  0  0  0  0  0  0  0  0  0
   22.0905   -3.1643  -14.9187 O   0  0  0  0  0  0  0  0  0  0  0  0
   23.1909   -2.9495  -16.8745 O   0  0  0  0  0  0  0  0  0  0  0  0
  2  1  1  0
  3  2  1  0
  4  3  1  0
  4  5  1  0
  5  1  1  0
  5  6  1  1
  6 13  1  0
  7  6  2  0
  9  8  1  0
 10  9  2  0
 11  9  1  0
 12 11  1  1
 12 13  1  0
 12 14  1  0
 14 19  1  0
 15 14  2  0
 16 17  1  0
 18 20  1  0
 18 17  1  1
 19 18  1  0
 20 22  1  0
 21 20  2  0
M  END
$$$$
