PNS.pdb
     RDKit          3D

 22 22  0  0  1  0  0  0  0  0999 V2000
   27.9006  -20.0714  -15.4942 N   0  0  0  0  0  0  0  0  0  0  0  0
   28.4704  -21.3808  -15.4127 C   0  0  0  0  0  0  0  0  0  0  0  0
   28.5432  -21.7628  -16.8976 C   0  0  0  0  0  0  0  0  0  0  0  0
   27.2058  -21.2616  -17.4110 C   0  0  0  0  0  0  0  0  0  0  0  0
   26.7981  -20.2037  -16.3833 C   0  0  1  0  0  0  0  0  0  0  0  0
   25.5701  -20.6119  -15.6855 C   0  0  0  0  0  0  0  0  0  0  0  0
   24.5755  -21.0874  -16.3224 O   0  0  0  0  0  0  0  0  0  0  0  0
   25.7850  -23.0365  -13.1635 N   0  0  0  0  0  0  0  0  0  0  0  0
   25.3005  -22.3760  -12.0120 C   0  0  0  0  0  0  0  0  0  0  0  0
   25.6516  -22.8058  -10.8812 O   0  0  0  0  0  0  0  0  0  0  0  0
   24.4092  -21.2189  -12.2215 C   0  0  0  0  0  0  0  0  0  0  0  0
   24.1320  -20.9072  -13.6573 C   0  0  2  0  0  0  0  0  0  0  0  0
   25.4063  -20.5098  -14.2911 N   0  0  0  0  0  0  0  0  0  0  0  0
   23.2215  -19.7466  -13.7772 C   0  0  0  0  0  0  0  0  0  0  0  0
   23.5257  -18.6100  -13.3689 O   0  0  0  0  0  0  0  0  0  0  0  0
   20.5735  -19.4871  -16.7546 O   0  0  0  0  0  0  0  0  0  0  0  0
   20.8513  -18.3885  -15.9587 C   0  0  0  0  0  0  0  0  0  0  0  0
   20.9913  -18.8270  -14.4944 C   0  0  2  0  0  0  0  0  0  0  0  0
   21.9333  -19.8959  -14.3797 N   0  0  0  0  0  0  0  0  0  0  0  0
   19.6587  -19.1272  -14.0007 C   0  0  0  0  0  0  0  0  0  0  0  0
   19.3560  -20.2740  -13.6178 O   0  0  0  0  0  0  0  0  0  0  0  0
   18.6958  -18.1435  -13.9454 O   0  0  0  0  0  0  0  0  0  0  0  0
  2  1  1  0
  3  2  1  0
  4  3  1  0
  4  5  1  0
  5  1  1  0
  5  6  1  1
  6 13  1  0
  7  6  2  0
  9  8  1  0
 10  9  2  0
 11  9  1  0
 12 11  1  1
 12 13  1  0
 12 14  1  0
 14 19  1  0
 15 14  2  0
 16 17  1  0
 18 20  1  0
 18 17  1  6
 19 18  1  0
 20 22  1  0
 21 20  2  0
M  END
$$$$
