PNS.pdb
     RDKit          3D

 22 22  0  0  1  0  0  0  0  0999 V2000
   21.6737  -12.1690  -17.1075 N   0  0  0  0  0  0  0  0  0  0  0  0
   20.6673  -13.1316  -16.7816 C   0  0  0  0  0  0  0  0  0  0  0  0
   20.0057  -13.3405  -18.1509 C   0  0  0  0  0  0  0  0  0  0  0  0
   19.9265  -11.9185  -18.6753 C   0  0  0  0  0  0  0  0  0  0  0  0
   21.0015  -11.1787  -17.8762 C   0  0  1  0  0  0  0  0  0  0  0  0
   20.3910  -10.1420  -17.0312 C   0  0  0  0  0  0  0  0  0  0  0  0
   19.7081   -9.1944  -17.5380 O   0  0  0  0  0  0  0  0  0  0  0  0
   18.3999   -9.1715  -11.3483 N   0  0  0  0  0  0  0  0  0  0  0  0
   18.5890   -8.7863  -12.6947 C   0  0  0  0  0  0  0  0  0  0  0  0
   18.0689   -7.7092  -13.0895 O   0  0  0  0  0  0  0  0  0  0  0  0
   19.3905   -9.6843  -13.5483 C   0  0  0  0  0  0  0  0  0  0  0  0
   19.8393   -9.0714  -14.8362 C   0  0  2  0  0  0  0  0  0  0  0  0
   20.5132  -10.1204  -15.6290 N   0  0  0  0  0  0  0  0  0  0  0  0
   20.8463   -8.0145  -14.5928 C   0  0  0  0  0  0  0  0  0  0  0  0
   22.0116   -8.2677  -14.2337 O   0  0  0  0  0  0  0  0  0  0  0  0
   21.9024   -3.2877  -15.0696 O   0  0  0  0  0  0  0  0  0  0  0  0
   21.0348   -4.3304  -15.3482 C   0  0  0  0  0  0  0  0  0  0  0  0
   21.4204   -5.5651  -14.5220 C   0  0  2  0  0  0  0  0  0  0  0  0
   20.5061   -6.6364  -14.7661 N   0  0  0  0  0  0  0  0  0  0  0  0
   21.5198   -5.1467  -13.1346 C   0  0  0  0  0  0  0  0  0  0  0  0
   20.6080   -5.3905  -12.3205 O   0  0  0  0  0  0  0  0  0  0  0  0
   22.6317   -4.4671  -12.6875 O   0  0  0  0  0  0  0  0  0  0  0  0
  2  1  1  0
  3  2  1  0
  4  3  1  0
  4  5  1  0
  5  1  1  0
  5  6  1  1
  6 13  1  0
  7  6  2  0
  9  8  1  0
 10  9  2  0
 11  9  1  0
 12 11  1  1
 12 13  1  0
 12 14  1  0
 14 19  1  0
 15 14  2  0
 16 17  1  0
 18 20  1  0
 18 17  1  6
 19 18  1  0
 20 22  1  0
 21 20  2  0
M  END
$$$$
