PNS.pdb
     RDKit          3D

 22 22  0  0  1  0  0  0  0  0999 V2000
   21.4329  -12.5978  -16.7634 N   0  0  0  0  0  0  0  0  0  0  0  0
   20.1105  -13.1370  -16.6850 C   0  0  0  0  0  0  0  0  0  0  0  0
   20.0153  -13.8787  -18.0256 C   0  0  0  0  0  0  0  0  0  0  0  0
   20.6574  -12.8837  -18.9748 C   0  0  0  0  0  0  0  0  0  0  0  0
   21.5158  -12.0110  -18.0566 C   0  0  1  0  0  0  0  0  0  0  0  0
   21.0311  -10.6230  -18.0668 C   0  0  0  0  0  0  0  0  0  0  0  0
   21.0739   -9.9163  -19.1249 O   0  0  0  0  0  0  0  0  0  0  0  0
   17.1208   -7.0053  -18.0823 N   0  0  0  0  0  0  0  0  0  0  0  0
   17.7665   -7.4065  -16.8911 C   0  0  0  0  0  0  0  0  0  0  0  0
   17.7184   -6.6380  -15.8942 O   0  0  0  0  0  0  0  0  0  0  0  0
   18.4571   -8.7104  -16.9030 C   0  0  0  0  0  0  0  0  0  0  0  0
   19.9439   -8.6186  -17.0328 C   0  0  2  0  0  0  0  0  0  0  0  0
   20.4948   -9.9859  -16.9318 N   0  0  0  0  0  0  0  0  0  0  0  0
   20.5230   -7.8467  -15.9107 C   0  0  0  0  0  0  0  0  0  0  0  0
   20.8650   -8.3772  -14.8371 O   0  0  0  0  0  0  0  0  0  0  0  0
   23.2885   -4.4051  -14.4433 O   0  0  0  0  0  0  0  0  0  0  0  0
   22.6857   -5.1180  -15.4660 C   0  0  0  0  0  0  0  0  0  0  0  0
   21.3173   -5.6374  -15.0040 C   0  0  2  0  0  0  0  0  0  0  0  0
   20.7132   -6.4341  -16.0255 N   0  0  0  0  0  0  0  0  0  0  0  0
   20.5366   -4.4887  -14.5789 C   0  0  0  0  0  0  0  0  0  0  0  0
   19.9373   -3.7744  -15.4060 O   0  0  0  0  0  0  0  0  0  0  0  0
   20.4421   -4.1632  -13.2436 O   0  0  0  0  0  0  0  0  0  0  0  0
  2  1  1  0
  3  2  1  0
  4  3  1  0
  4  5  1  0
  5  1  1  0
  5  6  1  1
  6 13  1  0
  7  6  2  0
  9  8  1  0
 10  9  2  0
 11  9  1  0
 12 11  1  1
 12 13  1  0
 12 14  1  0
 14 19  1  0
 15 14  2  0
 16 17  1  0
 18 20  1  0
 18 17  1  6
 19 18  1  0
 20 22  1  0
 21 20  2  0
M  END
$$$$
