PNS.pdb
     RDKit          3D

 22 22  0  0  1  0  0  0  0  0999 V2000
   11.5767   -9.9016  -10.6457 N   0  0  0  0  0  0  0  0  0  0  0  0
   11.8171  -11.2947  -10.8631 C   0  0  0  0  0  0  0  0  0  0  0  0
   11.6665  -11.8450   -9.4381 C   0  0  0  0  0  0  0  0  0  0  0  0
   12.4024  -10.7971   -8.6234 C   0  0  0  0  0  0  0  0  0  0  0  0
   12.3806   -9.5595   -9.5231 C   0  0  1  0  0  0  0  0  0  0  0  0
   13.7474   -9.1850   -9.9145 C   0  0  0  0  0  0  0  0  0  0  0  0
   14.6487   -8.9692   -9.0416 O   0  0  0  0  0  0  0  0  0  0  0  0
   15.4761  -11.2092  -13.9850 N   0  0  0  0  0  0  0  0  0  0  0  0
   16.1955  -10.4300  -13.0510 C   0  0  0  0  0  0  0  0  0  0  0  0
   17.0830  -10.9932  -12.3568 O   0  0  0  0  0  0  0  0  0  0  0  0
   15.8502   -8.9985  -12.9568 C   0  0  0  0  0  0  0  0  0  0  0  0
   15.5044   -8.5381  -11.5769 C   0  0  2  0  0  0  0  0  0  0  0  0
   14.1525   -9.0403  -11.2549 N   0  0  0  0  0  0  0  0  0  0  0  0
   15.4304   -7.0611  -11.5185 C   0  0  0  0  0  0  0  0  0  0  0  0
   14.3923   -6.4298  -11.7918 O   0  0  0  0  0  0  0  0  0  0  0  0
   15.7533   -3.6594   -8.7630 O   0  0  0  0  0  0  0  0  0  0  0  0
   15.7550   -4.9429   -9.2826 C   0  0  0  0  0  0  0  0  0  0  0  0
   16.4923   -4.9600  -10.6288 C   0  0  2  0  0  0  0  0  0  0  0  0
   16.5749   -6.2932  -11.1375 N   0  0  0  0  0  0  0  0  0  0  0  0
   17.7698   -4.2969  -10.4337 C   0  0  0  0  0  0  0  0  0  0  0  0
   18.8438   -4.9174  -10.5556 O   0  0  0  0  0  0  0  0  0  0  0  0
   17.8204   -2.9593  -10.1077 O   0  0  0  0  0  0  0  0  0  0  0  0
  2  1  1  0
  3  2  1  0
  4  3  1  0
  4  5  1  0
  5  1  1  0
  5  6  1  6
  6 13  1  0
  7  6  2  0
  9  8  1  0
 10  9  2  0
 11  9  1  0
 12 11  1  6
 12 13  1  0
 12 14  1  0
 14 19  1  0
 15 14  2  0
 16 17  1  0
 18 20  1  0
 18 17  1  1
 19 18  1  0
 20 22  1  0
 21 20  2  0
M  END
$$$$
