PNS.pdb
     RDKit          3D

 22 22  0  0  1  0  0  0  0  0999 V2000
   21.4365  -12.4001  -16.5070 N   0  0  0  0  0  0  0  0  0  0  0  0
   20.2473  -13.1638  -16.2874 C   0  0  0  0  0  0  0  0  0  0  0  0
   20.0169  -13.7576  -17.6841 C   0  0  0  0  0  0  0  0  0  0  0  0
   20.3157  -12.5682  -18.5781 C   0  0  0  0  0  0  0  0  0  0  0  0
   21.1892  -11.6681  -17.7015 C   0  0  1  0  0  0  0  0  0  0  0  0
   20.5091  -10.3917  -17.4378 C   0  0  0  0  0  0  0  0  0  0  0  0
   20.1635   -9.6187  -18.3886 O   0  0  0  0  0  0  0  0  0  0  0  0
   16.1942  -10.2159  -15.8073 N   0  0  0  0  0  0  0  0  0  0  0  0
   17.0816   -9.1760  -16.1653 C   0  0  0  0  0  0  0  0  0  0  0  0
   16.8620   -8.5396  -17.2300 O   0  0  0  0  0  0  0  0  0  0  0  0
   18.2123   -8.9094  -15.2556 C   0  0  0  0  0  0  0  0  0  0  0  0
   19.5106   -8.6442  -15.9483 C   0  0  2  0  0  0  0  0  0  0  0  0
   20.1958   -9.9389  -16.1421 N   0  0  0  0  0  0  0  0  0  0  0  0
   20.4001   -7.8193  -15.1005 C   0  0  0  0  0  0  0  0  0  0  0  0
   20.7803   -8.1847  -13.9723 O   0  0  0  0  0  0  0  0  0  0  0  0
   23.7399   -4.3662  -15.0877 O   0  0  0  0  0  0  0  0  0  0  0  0
   22.8510   -5.1585  -15.7945 C   0  0  0  0  0  0  0  0  0  0  0  0
   21.8023   -5.7457  -14.8399 C   0  0  2  0  0  0  0  0  0  0  0  0
   20.8624   -6.5465  -15.5599 N   0  0  0  0  0  0  0  0  0  0  0  0
   21.2242   -4.6406  -14.0953 C   0  0  0  0  0  0  0  0  0  0  0  0
   20.2597   -3.9932  -14.5469 O   0  0  0  0  0  0  0  0  0  0  0  0
   21.7341   -4.2834  -12.8663 O   0  0  0  0  0  0  0  0  0  0  0  0
  2  1  1  0
  3  2  1  0
  4  3  1  0
  4  5  1  0
  5  1  1  0
  5  6  1  1
  6 13  1  0
  7  6  2  0
  9  8  1  0
 10  9  2  0
 11  9  1  0
 12 11  1  1
 12 13  1  0
 12 14  1  0
 14 19  1  0
 15 14  2  0
 16 17  1  0
 18 20  1  0
 18 17  1  6
 19 18  1  0
 20 22  1  0
 21 20  2  0
M  END
$$$$
