PNS.pdb
     RDKit          3D

 22 22  0  0  1  0  0  0  0  0999 V2000
   19.2595  -11.8741  -16.1781 N   0  0  0  0  0  0  0  0  0  0  0  0
   18.3325  -12.4972  -15.2847 C   0  0  0  0  0  0  0  0  0  0  0  0
   17.0898  -12.6059  -16.1792 C   0  0  0  0  0  0  0  0  0  0  0  0
   17.0894  -11.2556  -16.8721 C   0  0  0  0  0  0  0  0  0  0  0  0
   18.5425  -10.7901  -16.7563 C   0  0  1  0  0  0  0  0  0  0  0  0
   18.6277   -9.5711  -15.9388 C   0  0  0  0  0  0  0  0  0  0  0  0
   18.0095   -8.5088  -16.2706 O   0  0  0  0  0  0  0  0  0  0  0  0
   17.0339   -7.6521  -12.6142 N   0  0  0  0  0  0  0  0  0  0  0  0
   18.0037   -8.3262  -11.8383 C   0  0  0  0  0  0  0  0  0  0  0  0
   17.7300   -8.5978  -10.6391 O   0  0  0  0  0  0  0  0  0  0  0  0
   19.2795   -8.6660  -12.4973 C   0  0  0  0  0  0  0  0  0  0  0  0
   19.3574   -8.2603  -13.9343 C   0  0  2  0  0  0  0  0  0  0  0  0
   19.3829   -9.4897  -14.7536 N   0  0  0  0  0  0  0  0  0  0  0  0
   20.6223   -7.5433  -14.2104 C   0  0  0  0  0  0  0  0  0  0  0  0
   21.7405   -8.0611  -14.0300 O   0  0  0  0  0  0  0  0  0  0  0  0
   20.4153   -3.8970  -16.2448 O   0  0  0  0  0  0  0  0  0  0  0  0
   21.5295   -4.7063  -16.3895 C   0  0  0  0  0  0  0  0  0  0  0  0
   21.7780   -5.4890  -15.0928 C   0  0  2  0  0  0  0  0  0  0  0  0
   20.6013   -6.2016  -14.7047 N   0  0  0  0  0  0  0  0  0  0  0  0
   22.2798   -4.5486  -14.1061 C   0  0  0  0  0  0  0  0  0  0  0  0
   21.6338   -4.2936  -13.0711 O   0  0  0  0  0  0  0  0  0  0  0  0
   23.4884   -3.9150  -14.2957 O   0  0  0  0  0  0  0  0  0  0  0  0
  2  1  1  0
  3  2  1  0
  4  3  1  0
  4  5  1  0
  5  1  1  0
  5  6  1  1
  6 13  1  0
  7  6  2  0
  9  8  1  0
 10  9  2  0
 11  9  1  0
 12 11  1  1
 12 13  1  0
 12 14  1  0
 14 19  1  0
 15 14  2  0
 16 17  1  0
 18 20  1  0
 18 17  1  6
 19 18  1  0
 20 22  1  0
 21 20  2  0
M  END
$$$$
