PNS.pdb
     RDKit          3D

 22 22  0  0  1  0  0  0  0  0999 V2000
   17.8526  -11.4891  -14.5498 N   0  0  0  0  0  0  0  0  0  0  0  0
   16.5344  -11.9312  -14.2141 C   0  0  0  0  0  0  0  0  0  0  0  0
   15.8695  -11.9507  -15.5976 C   0  0  0  0  0  0  0  0  0  0  0  0
   16.3895  -10.6621  -16.2079 C   0  0  0  0  0  0  0  0  0  0  0  0
   17.6591  -10.3692  -15.4054 C   0  0  1  0  0  0  0  0  0  0  0  0
   17.5125   -9.1154  -14.6518 C   0  0  0  0  0  0  0  0  0  0  0  0
   17.2730   -8.0136  -15.2430 O   0  0  0  0  0  0  0  0  0  0  0  0
   16.5895   -6.9681   -9.0008 N   0  0  0  0  0  0  0  0  0  0  0  0
   16.7038   -6.7796  -10.3967 C   0  0  0  0  0  0  0  0  0  0  0  0
   16.6717   -5.6041  -10.8482 O   0  0  0  0  0  0  0  0  0  0  0  0
   16.8539   -7.9870  -11.2315 C   0  0  0  0  0  0  0  0  0  0  0  0
   17.4982   -7.7420  -12.5584 C   0  0  2  0  0  0  0  0  0  0  0  0
   17.6235   -9.0415  -13.2504 N   0  0  0  0  0  0  0  0  0  0  0  0
   18.8729   -7.2212  -12.3872 C   0  0  0  0  0  0  0  0  0  0  0  0
   19.6427   -7.6372  -11.5011 O   0  0  0  0  0  0  0  0  0  0  0  0
   21.7068   -7.5633  -13.9700 O   0  0  0  0  0  0  0  0  0  0  0  0
   21.6556   -6.1864  -14.1070 C   0  0  0  0  0  0  0  0  0  0  0  0
   20.6605   -5.5981  -13.0972 C   0  0  2  0  0  0  0  0  0  0  0  0
   19.3734   -6.1998  -13.2538 N   0  0  0  0  0  0  0  0  0  0  0  0
   20.6862   -4.1541  -13.2516 C   0  0  0  0  0  0  0  0  0  0  0  0
   19.6779   -3.5281  -13.6324 O   0  0  0  0  0  0  0  0  0  0  0  0
   21.8337   -3.4423  -12.9785 O   0  0  0  0  0  0  0  0  0  0  0  0
  2  1  1  0
  3  2  1  0
  4  3  1  0
  4  5  1  0
  5  1  1  0
  5  6  1  1
  6 13  1  0
  7  6  2  0
  9  8  1  0
 10  9  2  0
 11  9  1  0
 12 11  1  1
 12 13  1  0
 12 14  1  0
 14 19  1  0
 15 14  2  0
 16 17  1  0
 18 20  1  0
 18 17  1  6
 19 18  1  0
 20 22  1  0
 21 20  2  0
M  END
$$$$
