DNL.pdb
     RDKit          3D

 25 24  0  0  1  0  0  0  0  0999 V2000
   20.7460  -12.5944  -20.0426 N   0  0  0  0  0  0  0  0  0  0  0  0
   19.8401  -11.5047  -19.8675 C   0  0  1  0  0  0  0  0  0  0  0  0
   18.6173  -11.8385  -19.0453 C   0  0  0  0  0  0  0  0  0  0  0  0
   17.7722  -12.7986  -19.7461 C   0  0  0  0  0  0  0  0  0  0  0  0
   18.0579  -13.3310  -20.8475 O   0  0  0  0  0  0  0  0  0  0  0  0
   20.5469  -10.3173  -19.3517 C   0  0  0  0  0  0  0  0  0  0  0  0
   21.5561  -10.5054  -18.5784 O   0  0  0  0  0  0  0  0  0  0  0  0
   16.5330  -13.1896  -19.1915 O   0  0  0  0  0  0  0  0  0  0  0  0
   22.4013   -5.8146  -18.4639 N   0  0  0  0  0  0  0  0  0  0  0  0
   21.4346   -5.5195  -19.4730 C   0  0  0  0  0  0  0  0  0  0  0  0
   21.3448   -4.3735  -19.9761 O   0  0  0  0  0  0  0  0  0  0  0  0
   20.5639   -6.6310  -19.8801 C   0  0  0  0  0  0  0  0  0  0  0  0
   20.9069   -7.9105  -19.1488 C   0  0  2  0  0  0  0  0  0  0  0  0
   20.1183   -9.0138  -19.7028 N   0  0  0  0  0  0  0  0  0  0  0  0
   20.6958   -7.7445  -17.6998 C   0  0  0  0  0  0  0  0  0  0  0  0
   19.5564   -7.8770  -17.1929 O   0  0  0  0  0  0  0  0  0  0  0  0
   22.9551   -9.6595  -12.5886 C   0  0  0  0  0  0  0  0  0  0  0  0
   21.9816   -8.6649  -13.2400 C   0  0  2  0  0  0  0  0  0  0  0  0
   20.5902   -9.0751  -12.8904 C   0  0  0  0  0  0  0  0  0  0  0  0
   22.1634   -8.6570  -14.7281 C   0  0  0  0  0  0  0  0  0  0  0  0
   21.4897   -7.4447  -15.3267 C   0  0  2  0  0  0  0  0  0  0  0  0
   21.7370   -7.4387  -16.7869 N   0  0  0  0  0  0  0  0  0  0  0  0
   21.8532   -6.1931  -14.7290 C   0  0  0  0  0  0  0  0  0  0  0  0
   22.7765   -5.4858  -15.2814 O   0  0  0  0  0  0  0  0  0  0  0  0
   21.2980   -5.6296  -13.5739 O   0  0  0  0  0  0  0  0  0  0  0  0
  2  1  1  1
  2  3  1  0
  3  4  1  0
  4  5  2  0
  6  2  1  0
  7  6  2  0
  8  4  1  0
  9 10  1  0
 10 12  1  0
 11 10  2  0
 13 12  1  6
 13 15  1  0
 13 14  1  0
 14  6  1  0
 15 16  2  0
 18 17  1  1
 18 19  1  0
 21 20  1  1
 20 18  1  0
 22 21  1  0
 22 15  1  0
 23 21  1  0
 24 23  2  0
 25 23  1  0
M  END
$$$$
