DNL.pdb
     RDKit          3D

 25 24  0  0  1  0  0  0  0  0999 V2000
   16.6756  -11.4927  -17.7852 N   0  0  0  0  0  0  0  0  0  0  0  0
   16.7467  -11.0761  -16.4213 C   0  0  1  0  0  0  0  0  0  0  0  0
   17.4782  -12.0379  -15.5145 C   0  0  0  0  0  0  0  0  0  0  0  0
   16.7742  -13.3132  -15.4415 C   0  0  0  0  0  0  0  0  0  0  0  0
   17.2527  -14.4151  -15.8087 O   0  0  0  0  0  0  0  0  0  0  0  0
   17.2826   -9.7055  -16.3224 C   0  0  0  0  0  0  0  0  0  0  0  0
   18.3009   -9.4030  -17.0459 O   0  0  0  0  0  0  0  0  0  0  0  0
   15.4575  -13.3680  -14.9322 O   0  0  0  0  0  0  0  0  0  0  0  0
   14.0041   -5.9896  -15.3901 N   0  0  0  0  0  0  0  0  0  0  0  0
   15.3377   -6.1277  -15.8821 C   0  0  0  0  0  0  0  0  0  0  0  0
   15.5995   -6.0042  -17.1031 O   0  0  0  0  0  0  0  0  0  0  0  0
   16.3710   -6.4186  -14.8787 C   0  0  0  0  0  0  0  0  0  0  0  0
   17.3549   -7.4580  -15.3701 C   0  0  2  0  0  0  0  0  0  0  0  0
   16.6869   -8.7591  -15.4531 N   0  0  0  0  0  0  0  0  0  0  0  0
   18.5416   -7.4931  -14.4970 C   0  0  0  0  0  0  0  0  0  0  0  0
   18.6301   -8.3207  -13.5590 O   0  0  0  0  0  0  0  0  0  0  0  0
   23.5670   -9.5439  -14.6162 C   0  0  0  0  0  0  0  0  0  0  0  0
   22.7481   -8.5647  -13.7609 C   0  0  2  0  0  0  0  0  0  0  0  0
   22.5010   -9.1975  -12.4324 C   0  0  0  0  0  0  0  0  0  0  0  0
   21.4477   -8.2458  -14.4353 C   0  0  0  0  0  0  0  0  0  0  0  0
   20.9338   -6.9056  -13.9643 C   0  0  2  0  0  0  0  0  0  0  0  0
   19.6513   -6.6234  -14.6491 N   0  0  0  0  0  0  0  0  0  0  0  0
   21.8563   -5.8179  -14.1112 C   0  0  0  0  0  0  0  0  0  0  0  0
   21.8740   -5.1639  -15.2202 O   0  0  0  0  0  0  0  0  0  0  0  0
   22.7710   -5.3664  -13.1522 O   0  0  0  0  0  0  0  0  0  0  0  0
  2  1  1  6
  2  3  1  0
  3  4  1  0
  4  5  2  0
  6  2  1  0
  7  6  2  0
  8  4  1  0
  9 10  1  0
 10 12  1  0
 11 10  2  0
 13 12  1  1
 13 15  1  0
 13 14  1  0
 14  6  1  0
 15 16  2  0
 18 17  1  6
 18 19  1  0
 21 20  1  6
 20 18  1  0
 22 21  1  0
 22 15  1  0
 23 21  1  0
 24 23  2  0
 25 23  1  0
M  END
$$$$
