DNL.pdb
     RDKit          3D

 25 24  0  0  1  0  0  0  0  0999 V2000
   19.0948  -20.4057  -12.8685 N   0  0  0  0  0  0  0  0  0  0  0  0
   19.7004  -21.6893  -13.0256 C   0  0  1  0  0  0  0  0  0  0  0  0
   18.7386  -22.7870  -13.4163 C   0  0  0  0  0  0  0  0  0  0  0  0
   17.3730  -22.2783  -13.4746 C   0  0  0  0  0  0  0  0  0  0  0  0
   17.0068  -21.2925  -14.1618 O   0  0  0  0  0  0  0  0  0  0  0  0
   20.8544  -21.6124  -13.9409 C   0  0  0  0  0  0  0  0  0  0  0  0
   21.5595  -22.6733  -14.1122 O   0  0  0  0  0  0  0  0  0  0  0  0
   16.3520  -22.9004  -12.7218 O   0  0  0  0  0  0  0  0  0  0  0  0
   23.6581  -20.5105  -18.4417 N   0  0  0  0  0  0  0  0  0  0  0  0
   23.4231  -19.5052  -17.4547 C   0  0  0  0  0  0  0  0  0  0  0  0
   24.2359  -18.5670  -17.2716 O   0  0  0  0  0  0  0  0  0  0  0  0
   22.1826  -19.6380  -16.6782 C   0  0  0  0  0  0  0  0  0  0  0  0
   22.4033  -20.4066  -15.3935 C   0  0  2  0  0  0  0  0  0  0  0  0
   21.1684  -20.4017  -14.6056 N   0  0  0  0  0  0  0  0  0  0  0  0
   23.5439  -19.8435  -14.6494 C   0  0  0  0  0  0  0  0  0  0  0  0
   23.3732  -18.9608  -13.7751 O   0  0  0  0  0  0  0  0  0  0  0  0
   27.7563  -20.6466  -11.9009 C   0  0  0  0  0  0  0  0  0  0  0  0
   26.3102  -20.5803  -11.3854 C   0  0  2  0  0  0  0  0  0  0  0  0
   26.1241  -21.6614  -10.3741 C   0  0  0  0  0  0  0  0  0  0  0  0
   25.3448  -20.7562  -12.5188 C   0  0  0  0  0  0  0  0  0  0  0  0
   25.8908  -20.1105  -13.7705 C   0  0  2  0  0  0  0  0  0  0  0  0
   24.8875  -20.2497  -14.8510 N   0  0  0  0  0  0  0  0  0  0  0  0
   27.1774  -20.5878  -14.1861 C   0  0  0  0  0  0  0  0  0  0  0  0
   27.2921  -21.8121  -14.5681 O   0  0  0  0  0  0  0  0  0  0  0  0
   28.3657  -19.8488  -14.2288 O   0  0  0  0  0  0  0  0  0  0  0  0
  2  1  1  6
  2  3  1  0
  3  4  1  0
  4  5  2  0
  6  2  1  0
  7  6  2  0
  8  4  1  0
  9 10  1  0
 10 12  1  0
 11 10  2  0
 13 12  1  6
 13 15  1  0
 13 14  1  0
 14  6  1  0
 15 16  2  0
 18 17  1  6
 18 19  1  0
 21 20  1  1
 20 18  1  0
 22 21  1  0
 22 15  1  0
 23 21  1  0
 24 23  2  0
 25 23  1  0
M  END
$$$$
