DNL.pdb
     RDKit          3D

 25 24  0  0  1  0  0  0  0  0999 V2000
   18.2404  -15.0433  -18.0895 N   0  0  0  0  0  0  0  0  0  0  0  0
   17.7531  -13.7620  -17.6898 C   0  0  1  0  0  0  0  0  0  0  0  0
   17.0757  -13.7478  -16.3394 C   0  0  0  0  0  0  0  0  0  0  0  0
   15.9844  -14.7147  -16.3007 C   0  0  0  0  0  0  0  0  0  0  0  0
   14.9932  -14.7040  -17.0723 O   0  0  0  0  0  0  0  0  0  0  0  0
   18.8183  -12.7463  -17.7856 C   0  0  0  0  0  0  0  0  0  0  0  0
   19.9568  -13.0149  -17.2528 O   0  0  0  0  0  0  0  0  0  0  0  0
   15.9930  -15.7555  -15.3454 O   0  0  0  0  0  0  0  0  0  0  0  0
   20.3440   -7.3555  -20.2306 N   0  0  0  0  0  0  0  0  0  0  0  0
   20.6393   -8.6369  -19.6732 C   0  0  0  0  0  0  0  0  0  0  0  0
   21.7968   -8.9306  -19.2879 O   0  0  0  0  0  0  0  0  0  0  0  0
   19.5137   -9.5769  -19.5796 C   0  0  0  0  0  0  0  0  0  0  0  0
   19.7039  -10.5712  -18.4549 C   0  0  2  0  0  0  0  0  0  0  0  0
   18.5838  -11.5153  -18.4457 N   0  0  0  0  0  0  0  0  0  0  0  0
   19.8528   -9.8673  -17.1688 C   0  0  0  0  0  0  0  0  0  0  0  0
   18.8492   -9.5079  -16.5083 O   0  0  0  0  0  0  0  0  0  0  0  0
   23.3559   -9.7168  -12.2243 C   0  0  0  0  0  0  0  0  0  0  0  0
   22.2832   -9.0009  -13.0597 C   0  0  2  0  0  0  0  0  0  0  0  0
   21.0125   -8.9882  -12.2777 C   0  0  0  0  0  0  0  0  0  0  0  0
   22.0829   -9.7079  -14.3665 C   0  0  0  0  0  0  0  0  0  0  0  0
   21.1869   -8.8903  -15.2668 C   0  0  2  0  0  0  0  0  0  0  0  0
   21.1083   -9.5564  -16.5873 N   0  0  0  0  0  0  0  0  0  0  0  0
   21.5559   -7.5110  -15.3973 C   0  0  0  0  0  0  0  0  0  0  0  0
   22.3133   -7.1606  -16.3780 O   0  0  0  0  0  0  0  0  0  0  0  0
   21.1715   -6.4626  -14.5527 O   0  0  0  0  0  0  0  0  0  0  0  0
  2  1  1  1
  2  3  1  0
  3  4  1  0
  4  5  2  0
  6  2  1  0
  7  6  2  0
  8  4  1  0
  9 10  1  0
 10 12  1  0
 11 10  2  0
 13 12  1  6
 13 15  1  0
 13 14  1  0
 14  6  1  0
 15 16  2  0
 18 17  1  1
 18 19  1  0
 21 20  1  1
 20 18  1  0
 22 21  1  0
 22 15  1  0
 23 21  1  0
 24 23  2  0
 25 23  1  0
M  END
$$$$
