DNL.pdb
     RDKit          3D

 25 24  0  0  1  0  0  0  0  0999 V2000
   16.1627  -10.9778  -17.2468 N   0  0  0  0  0  0  0  0  0  0  0  0
   16.1781  -10.4601  -15.9162 C   0  0  1  0  0  0  0  0  0  0  0  0
   16.7183  -11.4196  -14.8817 C   0  0  0  0  0  0  0  0  0  0  0  0
   15.8612  -12.5947  -14.7723 C   0  0  0  0  0  0  0  0  0  0  0  0
   16.1241  -13.7189  -15.2673 O   0  0  0  0  0  0  0  0  0  0  0  0
   16.8643   -9.1552  -15.8727 C   0  0  0  0  0  0  0  0  0  0  0  0
   17.8322   -8.9556  -16.6946 O   0  0  0  0  0  0  0  0  0  0  0  0
   14.6363  -12.5160  -14.0727 O   0  0  0  0  0  0  0  0  0  0  0  0
   15.4004   -3.8886  -15.6003 N   0  0  0  0  0  0  0  0  0  0  0  0
   15.4354   -5.3018  -15.3969 C   0  0  0  0  0  0  0  0  0  0  0  0
   14.6747   -6.0720  -16.0315 O   0  0  0  0  0  0  0  0  0  0  0  0
   16.4086   -5.7899  -14.4100 C   0  0  0  0  0  0  0  0  0  0  0  0
   17.2474   -6.9226  -14.9606 C   0  0  2  0  0  0  0  0  0  0  0  0
   16.4622   -8.1592  -14.9494 N   0  0  0  0  0  0  0  0  0  0  0  0
   18.5014   -7.0494  -14.1968 C   0  0  0  0  0  0  0  0  0  0  0  0
   18.6241   -7.9104  -13.2933 O   0  0  0  0  0  0  0  0  0  0  0  0
   23.6760   -8.5342  -14.9497 C   0  0  0  0  0  0  0  0  0  0  0  0
   22.6565   -8.3984  -13.8081 C   0  0  2  0  0  0  0  0  0  0  0  0
   22.5552   -9.7146  -13.1124 C   0  0  0  0  0  0  0  0  0  0  0  0
   21.3190   -7.9920  -14.3498 C   0  0  0  0  0  0  0  0  0  0  0  0
   20.9600   -6.6084  -13.8611 C   0  0  2  0  0  0  0  0  0  0  0  0
   19.6409   -6.2359  -14.4222 N   0  0  0  0  0  0  0  0  0  0  0  0
   21.9443   -5.5993  -14.1233 C   0  0  0  0  0  0  0  0  0  0  0  0
   21.8905   -4.9533  -15.2358 O   0  0  0  0  0  0  0  0  0  0  0  0
   22.9932   -5.2196  -13.2774 O   0  0  0  0  0  0  0  0  0  0  0  0
  2  1  1  6
  2  3  1  0
  3  4  1  0
  4  5  2  0
  6  2  1  0
  7  6  2  0
  8  4  1  0
  9 10  1  0
 10 12  1  0
 11 10  2  0
 13 12  1  1
 13 15  1  0
 13 14  1  0
 14  6  1  0
 15 16  2  0
 18 17  1  6
 18 19  1  0
 21 20  1  6
 20 18  1  0
 22 21  1  0
 22 15  1  0
 23 21  1  0
 24 23  2  0
 25 23  1  0
M  END
$$$$
