DNL.pdb
     RDKit          3D

 25 24  0  0  1  0  0  0  0  0999 V2000
   17.1084  -10.9785  -17.4841 N   0  0  0  0  0  0  0  0  0  0  0  0
   17.1739  -10.3588  -16.1994 C   0  0  1  0  0  0  0  0  0  0  0  0
   17.6919  -11.2576  -15.1011 C   0  0  0  0  0  0  0  0  0  0  0  0
   16.7081  -12.2810  -14.7664 C   0  0  0  0  0  0  0  0  0  0  0  0
   15.4726  -12.1771  -14.9685 O   0  0  0  0  0  0  0  0  0  0  0  0
   17.9180   -9.0873  -16.2715 C   0  0  0  0  0  0  0  0  0  0  0  0
   19.1227   -9.1187  -16.7184 O   0  0  0  0  0  0  0  0  0  0  0  0
   17.1209  -13.4926  -14.1684 O   0  0  0  0  0  0  0  0  0  0  0  0
   19.4117   -4.4208  -16.6522 N   0  0  0  0  0  0  0  0  0  0  0  0
   17.9966   -4.2604  -16.5439 C   0  0  0  0  0  0  0  0  0  0  0  0
   17.4513   -3.1427  -16.7111 O   0  0  0  0  0  0  0  0  0  0  0  0
   17.2298   -5.4739  -16.2297 C   0  0  0  0  0  0  0  0  0  0  0  0
   18.1326   -6.6687  -16.0124 C   0  0  2  0  0  0  0  0  0  0  0  0
   17.3151   -7.8743  -15.8577 N   0  0  0  0  0  0  0  0  0  0  0  0
   19.0159   -6.4394  -14.8552 C   0  0  0  0  0  0  0  0  0  0  0  0
   18.5501   -6.3465  -13.6945 O   0  0  0  0  0  0  0  0  0  0  0  0
   20.8667   -8.5774  -12.1218 C   0  0  0  0  0  0  0  0  0  0  0  0
   21.5837   -8.5397  -13.4803 C   0  0  2  0  0  0  0  0  0  0  0  0
   22.5747   -9.6545  -13.5174 C   0  0  0  0  0  0  0  0  0  0  0  0
   22.2749   -7.2227  -13.6680 C   0  0  0  0  0  0  0  0  0  0  0  0
   21.2569   -6.1096  -13.7503 C   0  0  2  0  0  0  0  0  0  0  0  0
   20.4250   -6.3175  -14.9578 N   0  0  0  0  0  0  0  0  0  0  0  0
   21.8041   -4.7848  -13.7133 C   0  0  0  0  0  0  0  0  0  0  0  0
   22.5467   -4.4470  -12.7171 O   0  0  0  0  0  0  0  0  0  0  0  0
   21.6200   -3.7808  -14.6715 O   0  0  0  0  0  0  0  0  0  0  0  0
  2  1  1  6
  2  3  1  0
  3  4  1  0
  4  5  2  0
  6  2  1  0
  7  6  2  0
  8  4  1  0
  9 10  1  0
 10 12  1  0
 11 10  2  0
 13 12  1  1
 13 15  1  0
 13 14  1  0
 14  6  1  0
 15 16  2  0
 18 17  1  1
 18 19  1  0
 21 20  1  6
 20 18  1  0
 22 21  1  0
 22 15  1  0
 23 21  1  0
 24 23  2  0
 25 23  1  0
M  END
$$$$
