DNL.pdb
     RDKit          3D

 25 24  0  0  1  0  0  0  0  0999 V2000
   26.9420  -19.5580  -17.5118 N   0  0  0  0  0  0  0  0  0  0  0  0
   26.9030  -20.5723  -16.5075 C   0  0  1  0  0  0  0  0  0  0  0  0
   28.2532  -21.1525  -16.1568 C   0  0  0  0  0  0  0  0  0  0  0  0
   28.8052  -21.8912  -17.2867 C   0  0  0  0  0  0  0  0  0  0  0  0
   28.2213  -22.8334  -17.8778 O   0  0  0  0  0  0  0  0  0  0  0  0
   26.1780  -20.0965  -15.3144 C   0  0  0  0  0  0  0  0  0  0  0  0
   25.8433  -18.8564  -15.2672 O   0  0  0  0  0  0  0  0  0  0  0  0
   30.0848  -21.5657  -17.7895 O   0  0  0  0  0  0  0  0  0  0  0  0
   21.6827  -21.2086  -11.9203 N   0  0  0  0  0  0  0  0  0  0  0  0
   22.6803  -20.3108  -12.4089 C   0  0  0  0  0  0  0  0  0  0  0  0
   22.7733  -19.1379  -11.9730 O   0  0  0  0  0  0  0  0  0  0  0  0
   23.5807  -20.8433  -13.4410 C   0  0  0  0  0  0  0  0  0  0  0  0
   25.0187  -20.4428  -13.1932 C   0  0  2  0  0  0  0  0  0  0  0  0
   25.8654  -20.9865  -14.2579 N   0  0  0  0  0  0  0  0  0  0  0  0
   25.4501  -20.8844  -11.8550 C   0  0  0  0  0  0  0  0  0  0  0  0
   25.6367  -22.0988  -11.6037 O   0  0  0  0  0  0  0  0  0  0  0  0
   27.3499  -18.6573   -6.3639 C   0  0  0  0  0  0  0  0  0  0  0  0
   27.1597  -19.8470   -7.3176 C   0  0  2  0  0  0  0  0  0  0  0  0
   28.4577  -20.5754   -7.4215 C   0  0  0  0  0  0  0  0  0  0  0  0
   26.7229  -19.3666   -8.6689 C   0  0  0  0  0  0  0  0  0  0  0  0
   26.1188  -20.5066   -9.4546 C   0  0  2  0  0  0  0  0  0  0  0  0
   25.6901  -19.9952  -10.7768 N   0  0  0  0  0  0  0  0  0  0  0  0
   25.0541  -21.2015   -8.7918 C   0  0  0  0  0  0  0  0  0  0  0  0
   25.3419  -22.0033   -7.8263 O   0  0  0  0  0  0  0  0  0  0  0  0
   23.6879  -21.1028   -9.0816 O   0  0  0  0  0  0  0  0  0  0  0  0
  2  1  1  6
  2  3  1  0
  3  4  1  0
  4  5  2  0
  6  2  1  0
  7  6  2  0
  8  4  1  0
  9 10  1  0
 10 12  1  0
 11 10  2  0
 13 12  1  6
 13 15  1  0
 13 14  1  0
 14  6  1  0
 15 16  2  0
 18 17  1  1
 18 19  1  0
 21 20  1  1
 20 18  1  0
 22 21  1  0
 22 15  1  0
 23 21  1  0
 24 23  2  0
 25 23  1  0
M  END
$$$$
