DNL.pdb
     RDKit          3D

 25 24  0  0  1  0  0  0  0  0999 V2000
   19.1097   -9.0476  -21.3274 N   0  0  0  0  0  0  0  0  0  0  0  0
   20.3114   -9.3825  -20.6327 C   0  0  1  0  0  0  0  0  0  0  0  0
   21.5314   -9.4912  -21.5172 C   0  0  0  0  0  0  0  0  0  0  0  0
   21.3329  -10.5064  -22.5455 C   0  0  0  0  0  0  0  0  0  0  0  0
   20.5488  -11.4825  -22.4433 O   0  0  0  0  0  0  0  0  0  0  0  0
   20.5301   -8.4657  -19.4981 C   0  0  0  0  0  0  0  0  0  0  0  0
   21.5796   -8.6393  -18.7767 O   0  0  0  0  0  0  0  0  0  0  0  0
   22.0506  -10.4348  -23.7603 O   0  0  0  0  0  0  0  0  0  0  0  0
   19.4239   -2.9539  -18.7655 N   0  0  0  0  0  0  0  0  0  0  0  0
   19.5367   -4.3266  -19.1435 C   0  0  0  0  0  0  0  0  0  0  0  0
   20.0084   -4.6608  -20.2572 O   0  0  0  0  0  0  0  0  0  0  0  0
   19.0721   -5.3103  -18.1556 C   0  0  0  0  0  0  0  0  0  0  0  0
   19.9631   -6.5328  -18.1178 C   0  0  2  0  0  0  0  0  0  0  0  0
   19.6056   -7.4294  -19.2197 N   0  0  0  0  0  0  0  0  0  0  0  0
   19.8685   -7.1949  -16.8046 C   0  0  0  0  0  0  0  0  0  0  0  0
   18.8454   -7.8431  -16.4794 O   0  0  0  0  0  0  0  0  0  0  0  0
   23.1472  -10.1139  -12.6132 C   0  0  0  0  0  0  0  0  0  0  0  0
   21.8306   -9.4017  -12.9604 C   0  0  2  0  0  0  0  0  0  0  0  0
   20.7388  -10.4185  -12.9764 C   0  0  0  0  0  0  0  0  0  0  0  0
   21.9376   -8.7320  -14.2975 C   0  0  0  0  0  0  0  0  0  0  0  0
   20.7389   -7.8426  -14.5298 C   0  0  2  0  0  0  0  0  0  0  0  0
   20.9019   -7.1601  -15.8341 N   0  0  0  0  0  0  0  0  0  0  0  0
   20.4675   -6.9057  -13.4789 C   0  0  0  0  0  0  0  0  0  0  0  0
   20.8691   -5.6896  -13.6118 O   0  0  0  0  0  0  0  0  0  0  0  0
   19.7890   -7.1694  -12.2830 O   0  0  0  0  0  0  0  0  0  0  0  0
  2  1  1  6
  2  3  1  0
  3  4  1  0
  4  5  2  0
  6  2  1  0
  7  6  2  0
  8  4  1  0
  9 10  1  0
 10 12  1  0
 11 10  2  0
 13 12  1  1
 13 15  1  0
 13 14  1  0
 14  6  1  0
 15 16  2  0
 18 17  1  6
 18 19  1  0
 21 20  1  1
 20 18  1  0
 22 21  1  0
 22 15  1  0
 23 21  1  0
 24 23  2  0
 25 23  1  0
M  END
$$$$
