DNL.pdb
     RDKit          3D

 25 24  0  0  1  0  0  0  0  0999 V2000
   17.4338  -11.8338  -17.9625 N   0  0  0  0  0  0  0  0  0  0  0  0
   17.2989  -11.2795  -16.6534 C   0  0  1  0  0  0  0  0  0  0  0  0
   17.8519  -12.1501  -15.5494 C   0  0  0  0  0  0  0  0  0  0  0  0
   16.8950  -13.1886  -15.1846 C   0  0  0  0  0  0  0  0  0  0  0  0
   15.6490  -13.0870  -15.3085 O   0  0  0  0  0  0  0  0  0  0  0  0
   17.8486   -9.9115  -16.6077 C   0  0  0  0  0  0  0  0  0  0  0  0
   18.8817   -9.6528  -17.3272 O   0  0  0  0  0  0  0  0  0  0  0  0
   17.3489  -14.4136  -14.6468 O   0  0  0  0  0  0  0  0  0  0  0  0
   16.5172   -6.7697  -17.9106 N   0  0  0  0  0  0  0  0  0  0  0  0
   16.1165   -6.1550  -16.6852 C   0  0  0  0  0  0  0  0  0  0  0  0
   15.1650   -5.3380  -16.6450 O   0  0  0  0  0  0  0  0  0  0  0  0
   16.8799   -6.5374  -15.4893 C   0  0  0  0  0  0  0  0  0  0  0  0
   17.9032   -7.6095  -15.7947 C   0  0  2  0  0  0  0  0  0  0  0  0
   17.2497   -8.9206  -15.7920 N   0  0  0  0  0  0  0  0  0  0  0  0
   19.0202   -7.5393  -14.8360 C   0  0  0  0  0  0  0  0  0  0  0  0
   19.2007   -8.4435  -13.9860 O   0  0  0  0  0  0  0  0  0  0  0  0
   22.3583   -8.7438  -12.6859 C   0  0  0  0  0  0  0  0  0  0  0  0
   22.0270   -9.0160  -14.1614 C   0  0  2  0  0  0  0  0  0  0  0  0
   23.0486   -9.9584  -14.7041 C   0  0  0  0  0  0  0  0  0  0  0  0
   22.0336   -7.7357  -14.9414 C   0  0  0  0  0  0  0  0  0  0  0  0
   21.2905   -6.6617  -14.1822 C   0  0  2  0  0  0  0  0  0  0  0  0
   19.9594   -6.4772  -14.8046 N   0  0  0  0  0  0  0  0  0  0  0  0
   21.9880   -5.4151  -14.0584 C   0  0  0  0  0  0  0  0  0  0  0  0
   21.7262   -4.4712  -14.8941 O   0  0  0  0  0  0  0  0  0  0  0  0
   22.9535   -5.0931  -13.0971 O   0  0  0  0  0  0  0  0  0  0  0  0
  2  1  1  6
  2  3  1  0
  3  4  1  0
  4  5  2  0
  6  2  1  0
  7  6  2  0
  8  4  1  0
  9 10  1  0
 10 12  1  0
 11 10  2  0
 13 12  1  1
 13 15  1  0
 13 14  1  0
 14  6  1  0
 15 16  2  0
 18 17  1  1
 18 19  1  0
 21 20  1  6
 20 18  1  0
 22 21  1  0
 22 15  1  0
 23 21  1  0
 24 23  2  0
 25 23  1  0
M  END
$$$$
