DNL.pdb
     RDKit          3D

 25 24  0  0  1  0  0  0  0  0999 V2000
   27.0803  -19.4482  -17.6046 N   0  0  0  0  0  0  0  0  0  0  0  0
   27.0692  -18.2260  -16.8663 C   0  0  1  0  0  0  0  0  0  0  0  0
   27.4754  -17.0115  -17.6679 C   0  0  0  0  0  0  0  0  0  0  0  0
   28.1383  -17.4092  -18.9047 C   0  0  0  0  0  0  0  0  0  0  0  0
   27.6173  -18.1249  -19.7960 O   0  0  0  0  0  0  0  0  0  0  0  0
   25.7708  -18.0359  -16.1928 C   0  0  0  0  0  0  0  0  0  0  0  0
   25.6222  -16.9950  -15.4534 O   0  0  0  0  0  0  0  0  0  0  0  0
   29.4614  -16.9888  -19.1668 O   0  0  0  0  0  0  0  0  0  0  0  0
   21.2280  -17.9691  -14.4312 N   0  0  0  0  0  0  0  0  0  0  0  0
   21.1231  -18.1049  -15.8491 C   0  0  0  0  0  0  0  0  0  0  0  0
   20.0362  -17.9102  -16.4452 O   0  0  0  0  0  0  0  0  0  0  0  0
   22.3550  -18.4811  -16.5562 C   0  0  0  0  0  0  0  0  0  0  0  0
   23.5026  -18.7180  -15.5988 C   0  0  2  0  0  0  0  0  0  0  0  0
   24.7263  -18.9775  -16.3610 N   0  0  0  0  0  0  0  0  0  0  0  0
   23.1775  -19.8165  -14.6716 C   0  0  0  0  0  0  0  0  0  0  0  0
   23.0114  -20.9873  -15.0891 O   0  0  0  0  0  0  0  0  0  0  0  0
   25.1530  -22.3259  -11.8802 C   0  0  0  0  0  0  0  0  0  0  0  0
   24.9061  -20.8955  -11.3760 C   0  0  2  0  0  0  0  0  0  0  0  0
   25.6935  -20.6984  -10.1240 C   0  0  0  0  0  0  0  0  0  0  0  0
   23.4461  -20.6811  -11.1117 C   0  0  0  0  0  0  0  0  0  0  0  0
   22.6651  -20.7822  -12.4008 C   0  0  2  0  0  0  0  0  0  0  0  0
   23.0388  -19.6435  -13.2710 N   0  0  0  0  0  0  0  0  0  0  0  0
   21.2432  -20.8747  -12.2415 C   0  0  0  0  0  0  0  0  0  0  0  0
   20.5413  -19.7962  -12.2890 O   0  0  0  0  0  0  0  0  0  0  0  0
   20.5027  -22.0449  -12.0359 O   0  0  0  0  0  0  0  0  0  0  0  0
  2  1  1  6
  2  3  1  0
  3  4  1  0
  4  5  2  0
  6  2  1  0
  7  6  2  0
  8  4  1  0
  9 10  1  0
 10 12  1  0
 11 10  2  0
 13 12  1  6
 13 15  1  0
 13 14  1  0
 14  6  1  0
 15 16  2  0
 18 17  1  1
 18 19  1  0
 21 20  1  1
 20 18  1  0
 22 21  1  0
 22 15  1  0
 23 21  1  0
 24 23  2  0
 25 23  1  0
M  END
$$$$
