DNL.pdb
     RDKit          3D

 25 24  0  0  1  0  0  0  0  0999 V2000
   21.7214  -18.9251  -11.6573 N   0  0  0  0  0  0  0  0  0  0  0  0
   21.5067  -20.0161  -10.7616 C   0  0  1  0  0  0  0  0  0  0  0  0
   20.5353  -21.0558  -11.2695 C   0  0  0  0  0  0  0  0  0  0  0  0
   20.0745  -20.7178  -12.6113 C   0  0  0  0  0  0  0  0  0  0  0  0
   19.2267  -19.8284  -12.8723 O   0  0  0  0  0  0  0  0  0  0  0  0
   22.7912  -20.6128  -10.3499 C   0  0  0  0  0  0  0  0  0  0  0  0
   22.7585  -21.6456   -9.5854 O   0  0  0  0  0  0  0  0  0  0  0  0
   20.5843  -21.4114  -13.7316 O   0  0  0  0  0  0  0  0  0  0  0  0
   27.6311  -22.7914  -10.9151 N   0  0  0  0  0  0  0  0  0  0  0  0
   27.5018  -21.3786  -11.0790 C   0  0  0  0  0  0  0  0  0  0  0  0
   28.4668  -20.6053  -10.8661 O   0  0  0  0  0  0  0  0  0  0  0  0
   26.1826  -20.8949  -11.5092 C   0  0  0  0  0  0  0  0  0  0  0  0
   25.2293  -20.7502  -10.3430 C   0  0  2  0  0  0  0  0  0  0  0  0
   24.0181  -20.0569  -10.7880 N   0  0  0  0  0  0  0  0  0  0  0  0
   25.8913  -20.0571   -9.2235 C   0  0  0  0  0  0  0  0  0  0  0  0
   25.9220  -18.8047   -9.1657 O   0  0  0  0  0  0  0  0  0  0  0  0
   28.7837  -21.1714   -3.8090 C   0  0  0  0  0  0  0  0  0  0  0  0
   28.2168  -20.1787   -4.8359 C   0  0  2  0  0  0  0  0  0  0  0  0
   27.2709  -19.2653   -4.1307 C   0  0  0  0  0  0  0  0  0  0  0  0
   27.5092  -20.9132   -5.9347 C   0  0  0  0  0  0  0  0  0  0  0  0
   27.2177  -19.9749   -7.0821 C   0  0  2  0  0  0  0  0  0  0  0  0
   26.5215  -20.7323   -8.1475 N   0  0  0  0  0  0  0  0  0  0  0  0
   28.3586  -19.2756   -7.5971 C   0  0  0  0  0  0  0  0  0  0  0  0
   29.1034  -19.8598   -8.4700 O   0  0  0  0  0  0  0  0  0  0  0  0
   28.7693  -17.9829   -7.2501 O   0  0  0  0  0  0  0  0  0  0  0  0
  2  1  1  6
  2  3  1  0
  3  4  1  0
  4  5  2  0
  6  2  1  0
  7  6  2  0
  8  4  1  0
  9 10  1  0
 10 12  1  0
 11 10  2  0
 13 12  1  6
 13 15  1  0
 13 14  1  0
 14  6  1  0
 15 16  2  0
 18 17  1  1
 18 19  1  0
 21 20  1  1
 20 18  1  0
 22 21  1  0
 22 15  1  0
 23 21  1  0
 24 23  2  0
 25 23  1  0
M  END
$$$$
