DNL.pdb
     RDKit          3D

 25 24  0  0  1  0  0  0  0  0999 V2000
   16.7135   -7.1727  -17.0236 N   0  0  0  0  0  0  0  0  0  0  0  0
   17.2626   -6.5640  -15.8544 C   0  0  1  0  0  0  0  0  0  0  0  0
   17.8907   -5.2110  -16.0943 C   0  0  0  0  0  0  0  0  0  0  0  0
   19.3392   -5.3303  -16.2164 C   0  0  0  0  0  0  0  0  0  0  0  0
   20.1687   -4.6033  -15.6153 O   0  0  0  0  0  0  0  0  0  0  0  0
   16.2648   -6.5267  -14.7689 C   0  0  0  0  0  0  0  0  0  0  0  0
   15.2015   -5.8279  -14.9514 O   0  0  0  0  0  0  0  0  0  0  0  0
   19.9008   -6.3151  -17.0594 O   0  0  0  0  0  0  0  0  0  0  0  0
   13.7896   -8.6880  -14.0910 N   0  0  0  0  0  0  0  0  0  0  0  0
   14.2557   -9.3540  -12.9167 C   0  0  0  0  0  0  0  0  0  0  0  0
   13.9232  -10.5367  -12.6611 O   0  0  0  0  0  0  0  0  0  0  0  0
   15.1401   -8.5753  -12.0388 C   0  0  0  0  0  0  0  0  0  0  0  0
   15.3939   -7.1872  -12.5852 C   0  0  2  0  0  0  0  0  0  0  0  0
   16.4811   -7.2416  -13.5655 N   0  0  0  0  0  0  0  0  0  0  0  0
   15.6787   -6.2482  -11.4856 C   0  0  0  0  0  0  0  0  0  0  0  0
   16.8279   -6.1607  -10.9913 O   0  0  0  0  0  0  0  0  0  0  0  0
   13.0880   -1.6795   -8.1628 C   0  0  0  0  0  0  0  0  0  0  0  0
   14.3505   -2.3960   -8.6668 C   0  0  2  0  0  0  0  0  0  0  0  0
   15.2878   -1.3681   -9.2064 C   0  0  0  0  0  0  0  0  0  0  0  0
   13.9957   -3.3878   -9.7335 C   0  0  0  0  0  0  0  0  0  0  0  0
   15.0630   -4.4527   -9.8276 C   0  0  2  0  0  0  0  0  0  0  0  0
   14.7049   -5.3863  -10.9201 N   0  0  0  0  0  0  0  0  0  0  0  0
   15.3279   -5.1540   -8.6054 C   0  0  0  0  0  0  0  0  0  0  0  0
   15.6900   -4.4811   -7.5690 O   0  0  0  0  0  0  0  0  0  0  0  0
   15.2319   -6.5357   -8.4005 O   0  0  0  0  0  0  0  0  0  0  0  0
  2  1  1  6
  2  3  1  0
  3  4  1  0
  4  5  2  0
  6  2  1  0
  7  6  2  0
  8  4  1  0
  9 10  1  0
 10 12  1  0
 11 10  2  0
 13 12  1  1
 13 15  1  0
 13 14  1  0
 14  6  1  0
 15 16  2  0
 18 17  1  6
 18 19  1  0
 21 20  1  1
 20 18  1  0
 22 21  1  0
 22 15  1  0
 23 21  1  0
 24 23  2  0
 25 23  1  0
M  END
$$$$
