DNL.pdb
     RDKit          3D

 25 24  0  0  1  0  0  0  0  0999 V2000
   16.0618  -11.5479  -17.3603 N   0  0  0  0  0  0  0  0  0  0  0  0
   16.1424  -10.8384  -16.1238 C   0  0  1  0  0  0  0  0  0  0  0  0
   16.6322  -11.6693  -14.9608 C   0  0  0  0  0  0  0  0  0  0  0  0
   15.6928  -12.7451  -14.6651 C   0  0  0  0  0  0  0  0  0  0  0  0
   15.9267  -13.9664  -14.8433 O   0  0  0  0  0  0  0  0  0  0  0  0
   16.9230   -9.5973  -16.2851 C   0  0  0  0  0  0  0  0  0  0  0  0
   18.0054   -9.6517  -16.9760 O   0  0  0  0  0  0  0  0  0  0  0  0
   14.4149  -12.4465  -14.1420 O   0  0  0  0  0  0  0  0  0  0  0  0
   18.7832   -4.9892  -16.1884 N   0  0  0  0  0  0  0  0  0  0  0  0
   17.3944   -4.7677  -15.9394 C   0  0  0  0  0  0  0  0  0  0  0  0
   16.8979   -3.6163  -15.9867 O   0  0  0  0  0  0  0  0  0  0  0  0
   16.5940   -5.9605  -15.6297 C   0  0  0  0  0  0  0  0  0  0  0  0
   17.3755   -7.2362  -15.8567 C   0  0  2  0  0  0  0  0  0  0  0  0
   16.4852   -8.3878  -15.6921 N   0  0  0  0  0  0  0  0  0  0  0  0
   18.5370   -7.2932  -14.9514 C   0  0  0  0  0  0  0  0  0  0  0  0
   18.4019   -7.6081  -13.7451 O   0  0  0  0  0  0  0  0  0  0  0  0
   23.9484   -9.6745  -14.7685 C   0  0  0  0  0  0  0  0  0  0  0  0
   22.9931   -8.6743  -14.0992 C   0  0  2  0  0  0  0  0  0  0  0  0
   22.5683   -9.2404  -12.7856 C   0  0  0  0  0  0  0  0  0  0  0  0
   21.7986   -8.4311  -14.9718 C   0  0  0  0  0  0  0  0  0  0  0  0
   21.0069   -7.2544  -14.4516 C   0  0  2  0  0  0  0  0  0  0  0  0
   19.8648   -7.0125  -15.3629 N   0  0  0  0  0  0  0  0  0  0  0  0
   21.7690   -6.0587  -14.2385 C   0  0  0  0  0  0  0  0  0  0  0  0
   21.8606   -5.2017  -15.1951 O   0  0  0  0  0  0  0  0  0  0  0  0
   22.4470   -5.7011  -13.0669 O   0  0  0  0  0  0  0  0  0  0  0  0
  2  1  1  6
  2  3  1  0
  3  4  1  0
  4  5  2  0
  6  2  1  0
  7  6  2  0
  8  4  1  0
  9 10  1  0
 10 12  1  0
 11 10  2  0
 13 12  1  1
 13 15  1  0
 13 14  1  0
 14  6  1  0
 15 16  2  0
 18 17  1  6
 18 19  1  0
 21 20  1  6
 20 18  1  0
 22 21  1  0
 22 15  1  0
 23 21  1  0
 24 23  2  0
 25 23  1  0
M  END
$$$$
