VDL.pdb
     RDKit          3D

 24 23  0  0  1  0  0  0  0  0999 V2000
   15.4371  -13.1362  -18.1184 C   0  0  0  0  0  0  0  0  0  0  0  0
   16.5242  -14.1188  -18.4948 C   0  0  2  0  0  0  0  0  0  0  0  0
   15.9698  -15.4980  -18.3510 C   0  0  0  0  0  0  0  0  0  0  0  0
   17.7170  -13.8743  -17.6063 C   0  0  2  0  0  0  0  0  0  0  0  0
   17.4727  -14.3136  -16.2654 N   0  0  0  0  0  0  0  0  0  0  0  0
   18.1584  -12.4495  -17.6592 C   0  0  0  0  0  0  0  0  0  0  0  0
   18.5129  -11.9487  -18.7565 O   0  0  0  0  0  0  0  0  0  0  0  0
   18.1965  -11.6161  -16.4998 N   0  0  0  0  0  0  0  0  0  0  0  0
   18.5072  -10.2052  -16.5553 C   0  0  1  0  0  0  0  0  0  0  0  0
   18.6399   -9.6954  -17.9573 C   0  0  0  0  0  0  0  0  0  0  0  0
   19.0424   -8.2987  -18.0559 C   0  0  0  0  0  0  0  0  0  0  0  0
   18.2484   -7.4364  -18.4903 O   0  0  0  0  0  0  0  0  0  0  0  0
   17.5465   -9.4186  -15.7487 C   0  0  0  0  0  0  0  0  0  0  0  0
   16.3252   -9.4619  -16.0206 O   0  0  0  0  0  0  0  0  0  0  0  0
   20.3068   -7.9005  -17.6722 O   0  0  0  0  0  0  0  0  0  0  0  0
   15.5265   -9.7715  -11.9958 C   0  0  0  0  0  0  0  0  0  0  0  0
   17.0379   -9.5536  -11.9752 C   0  0  2  0  0  0  0  0  0  0  0  0
   17.5138   -9.8080  -10.5742 C   0  0  0  0  0  0  0  0  0  0  0  0
   17.2984   -8.1555  -12.4131 C   0  0  0  0  0  0  0  0  0  0  0  0
   16.9823   -7.8821  -13.8580 C   0  0  2  0  0  0  0  0  0  0  0  0
   17.9657   -8.6094  -14.6675 N   0  0  0  0  0  0  0  0  0  0  0  0
   17.1704   -6.4550  -14.1648 C   0  0  0  0  0  0  0  0  0  0  0  0
   18.1289   -6.0674  -14.8684 O   0  0  0  0  0  0  0  0  0  0  0  0
   16.3029   -5.4500  -13.6973 O   0  0  0  0  0  0  0  0  0  0  0  0
  2  1  1  1
  2  4  1  0
  3  2  1  0
  4  5  1  1
  6  7  2  0
  6  4  1  0
  8  6  1  0
  9  8  1  0
  9 10  1  6
 10 11  1  0
 11 15  1  0
 12 11  2  0
 13  9  1  0
 14 13  2  0
 17 16  1  1
 17 19  1  0
 18 17  1  0
 20 19  1  1
 20 22  1  0
 20 21  1  0
 21 13  1  0
 22 24  1  0
 23 22  2  0
M  END
$$$$
