VDL.pdb
     RDKit          3D

 24 23  0  0  1  0  0  0  0  0999 V2000
   16.3661  -13.9278  -16.9630 C   0  0  0  0  0  0  0  0  0  0  0  0
   17.0991  -12.6341  -17.2425 C   0  0  2  0  0  0  0  0  0  0  0  0
   18.2103  -12.9297  -18.1954 C   0  0  0  0  0  0  0  0  0  0  0  0
   17.5884  -12.0703  -15.9330 C   0  0  2  0  0  0  0  0  0  0  0  0
   16.5679  -12.1102  -14.9293 N   0  0  0  0  0  0  0  0  0  0  0  0
   18.1563  -10.7005  -16.1029 C   0  0  0  0  0  0  0  0  0  0  0  0
   19.1505  -10.5282  -16.8528 O   0  0  0  0  0  0  0  0  0  0  0  0
   17.6117   -9.5582  -15.4406 N   0  0  0  0  0  0  0  0  0  0  0  0
   18.0842   -8.2124  -15.6770 C   0  0  1  0  0  0  0  0  0  0  0  0
   16.9887   -7.1932  -15.6107 C   0  0  0  0  0  0  0  0  0  0  0  0
   16.0149   -7.2830  -16.6906 C   0  0  0  0  0  0  0  0  0  0  0  0
   16.3892   -7.3565  -17.8810 O   0  0  0  0  0  0  0  0  0  0  0  0
   19.2235   -7.8869  -14.7892 C   0  0  0  0  0  0  0  0  0  0  0  0
   19.0739   -7.9257  -13.5469 O   0  0  0  0  0  0  0  0  0  0  0  0
   14.6615   -7.2888  -16.4209 O   0  0  0  0  0  0  0  0  0  0  0  0
   22.8433   -9.6217  -13.1137 C   0  0  0  0  0  0  0  0  0  0  0  0
   22.7806   -9.4078  -14.6245 C   0  0  2  0  0  0  0  0  0  0  0  0
   23.9591  -10.1122  -15.2317 C   0  0  0  0  0  0  0  0  0  0  0  0
   22.8113   -7.9412  -14.8745 C   0  0  0  0  0  0  0  0  0  0  0  0
   21.5949   -7.1980  -14.3942 C   0  0  2  0  0  0  0  0  0  0  0  0
   20.4916   -7.5288  -15.3024 N   0  0  0  0  0  0  0  0  0  0  0  0
   21.8012   -5.7452  -14.5082 C   0  0  0  0  0  0  0  0  0  0  0  0
   21.3276   -5.1000  -15.4691 O   0  0  0  0  0  0  0  0  0  0  0  0
   22.5302   -4.9985  -13.5637 O   0  0  0  0  0  0  0  0  0  0  0  0
  2  1  1  1
  2  4  1  0
  3  2  1  0
  4  5  1  1
  6  7  2  0
  6  4  1  0
  8  6  1  0
  9  8  1  0
  9 10  1  1
 10 11  1  0
 11 15  1  0
 12 11  2  0
 13  9  1  0
 14 13  2  0
 17 16  1  1
 17 19  1  0
 18 17  1  0
 20 19  1  6
 20 22  1  0
 20 21  1  0
 21 13  1  0
 22 24  1  0
 23 22  2  0
M  END
$$$$
