VDL.pdb
     RDKit          3D

 24 23  0  0  1  0  0  0  0  0999 V2000
   22.4063  -21.9736  -13.5110 C   0  0  0  0  0  0  0  0  0  0  0  0
   21.5368  -21.1235  -12.6107 C   0  0  2  0  0  0  0  0  0  0  0  0
   20.4616  -20.5140  -13.4489 C   0  0  0  0  0  0  0  0  0  0  0  0
   22.4084  -20.0926  -11.9403 C   0  0  2  0  0  0  0  0  0  0  0  0
   22.8981  -19.1278  -12.8784 N   0  0  0  0  0  0  0  0  0  0  0  0
   23.5112  -20.7287  -11.1611 C   0  0  0  0  0  0  0  0  0  0  0  0
   23.2432  -21.6302  -10.3269 O   0  0  0  0  0  0  0  0  0  0  0  0
   24.8795  -20.3526  -11.3238 N   0  0  0  0  0  0  0  0  0  0  0  0
   25.9547  -20.9489  -10.5633 C   0  0  1  0  0  0  0  0  0  0  0  0
   27.2209  -21.0785  -11.3527 C   0  0  0  0  0  0  0  0  0  0  0  0
   27.0456  -21.6367  -12.6869 C   0  0  0  0  0  0  0  0  0  0  0  0
   26.5175  -22.7588  -12.8433 O   0  0  0  0  0  0  0  0  0  0  0  0
   26.1514  -20.2406   -9.2780 C   0  0  0  0  0  0  0  0  0  0  0  0
   25.7689  -19.0547   -9.1574 O   0  0  0  0  0  0  0  0  0  0  0  0
   27.4585  -20.9383  -13.8033 O   0  0  0  0  0  0  0  0  0  0  0  0
   29.2014  -21.3567   -4.0586 C   0  0  0  0  0  0  0  0  0  0  0  0
   28.2748  -20.3670   -4.7617 C   0  0  2  0  0  0  0  0  0  0  0  0
   27.1644  -20.0301   -3.8092 C   0  0  0  0  0  0  0  0  0  0  0  0
   27.7743  -21.0200   -6.0016 C   0  0  0  0  0  0  0  0  0  0  0  0
   27.0724  -20.0949   -6.9576 C   0  0  2  0  0  0  0  0  0  0  0  0
   26.7644  -20.8651   -8.1672 N   0  0  0  0  0  0  0  0  0  0  0  0
   27.9732  -19.0095   -7.3782 C   0  0  0  0  0  0  0  0  0  0  0  0
   28.7930  -19.1756   -8.3078 O   0  0  0  0  0  0  0  0  0  0  0  0
   27.9735  -17.7374   -6.7758 O   0  0  0  0  0  0  0  0  0  0  0  0
  2  1  1  6
  2  4  1  0
  3  2  1  0
  4  5  1  6
  6  7  2  0
  6  4  1  0
  8  6  1  0
  9  8  1  0
  9 10  1  6
 10 11  1  0
 11 15  1  0
 12 11  2  0
 13  9  1  0
 14 13  2  0
 17 16  1  1
 17 19  1  0
 18 17  1  0
 20 19  1  1
 20 22  1  0
 20 21  1  0
 21 13  1  0
 22 24  1  0
 23 22  2  0
M  END
$$$$
