VDL.pdb
     RDKit          3D

 24 23  0  0  1  0  0  0  0  0999 V2000
   22.9502  -11.0920  -16.1007 C   0  0  0  0  0  0  0  0  0  0  0  0
   22.1914  -10.0502  -16.8932 C   0  0  2  0  0  0  0  0  0  0  0  0
   22.3953  -10.3356  -18.3449 C   0  0  0  0  0  0  0  0  0  0  0  0
   22.6920   -8.6866  -16.4911 C   0  0  2  0  0  0  0  0  0  0  0  0
   23.2068   -8.6883  -15.1549 N   0  0  0  0  0  0  0  0  0  0  0  0
   21.6486   -7.6379  -16.6899 C   0  0  0  0  0  0  0  0  0  0  0  0
   21.2336   -7.3857  -17.8495 O   0  0  0  0  0  0  0  0  0  0  0  0
   21.0916   -6.8963  -15.6037 N   0  0  0  0  0  0  0  0  0  0  0  0
   20.0725   -5.8864  -15.7817 C   0  0  1  0  0  0  0  0  0  0  0  0
   19.1825   -5.7436  -14.5855 C   0  0  0  0  0  0  0  0  0  0  0  0
   18.3544   -6.9093  -14.3069 C   0  0  0  0  0  0  0  0  0  0  0  0
   18.5555   -7.6043  -13.2876 O   0  0  0  0  0  0  0  0  0  0  0  0
   20.6693   -4.6002  -16.2079 C   0  0  0  0  0  0  0  0  0  0  0  0
   21.8239   -4.2961  -15.8315 O   0  0  0  0  0  0  0  0  0  0  0  0
   17.3327   -7.2690  -15.1620 O   0  0  0  0  0  0  0  0  0  0  0  0
   20.3268   -0.2236  -19.4953 C   0  0  0  0  0  0  0  0  0  0  0  0
   21.3241   -1.3677  -19.6650 C   0  0  2  0  0  0  0  0  0  0  0  0
   21.5326   -1.5730  -21.1376 C   0  0  0  0  0  0  0  0  0  0  0  0
   20.7479   -2.5704  -19.0050 C   0  0  0  0  0  0  0  0  0  0  0  0
   20.6233   -2.4654  -17.5096 C   0  0  2  0  0  0  0  0  0  0  0  0
   19.9715   -3.6912  -17.0365 N   0  0  0  0  0  0  0  0  0  0  0  0
   19.7285   -1.3554  -17.1445 C   0  0  0  0  0  0  0  0  0  0  0  0
   18.4858   -1.4934  -17.1709 O   0  0  0  0  0  0  0  0  0  0  0  0
   20.1999   -0.0895  -16.7491 O   0  0  0  0  0  0  0  0  0  0  0  0
  2  1  1  1
  2  4  1  0
  3  2  1  0
  4  5  1  1
  6  7  2  0
  6  4  1  0
  8  6  1  0
  9  8  1  0
  9 10  1  1
 10 11  1  0
 11 15  1  0
 12 11  2  0
 13  9  1  0
 14 13  2  0
 17 16  1  6
 17 19  1  0
 18 17  1  0
 20 19  1  6
 20 22  1  0
 20 21  1  0
 21 13  1  0
 22 24  1  0
 23 22  2  0
M  END
$$$$
