VDL.pdb
     RDKit          3D

 24 23  0  0  1  0  0  0  0  0999 V2000
   17.2640  -12.6413  -17.9679 C   0  0  0  0  0  0  0  0  0  0  0  0
   18.6162  -12.5609  -18.6419 C   0  0  2  0  0  0  0  0  0  0  0  0
   18.7236  -13.7025  -19.5986 C   0  0  0  0  0  0  0  0  0  0  0  0
   19.6826  -12.5901  -17.5771 C   0  0  2  0  0  0  0  0  0  0  0  0
   19.6893  -13.8374  -16.8737 N   0  0  0  0  0  0  0  0  0  0  0  0
   19.5675  -11.4241  -16.6524 C   0  0  0  0  0  0  0  0  0  0  0  0
   18.8422  -11.5113  -15.6293 O   0  0  0  0  0  0  0  0  0  0  0  0
   20.2559  -10.1939  -16.8820 N   0  0  0  0  0  0  0  0  0  0  0  0
   20.1734   -9.0665  -15.9807 C   0  0  1  0  0  0  0  0  0  0  0  0
   21.4846   -8.3629  -15.8106 C   0  0  0  0  0  0  0  0  0  0  0  0
   21.4461   -7.2269  -14.8994 C   0  0  0  0  0  0  0  0  0  0  0  0
   21.1871   -7.3913  -13.6875 O   0  0  0  0  0  0  0  0  0  0  0  0
   19.0793   -8.1505  -16.3761 C   0  0  0  0  0  0  0  0  0  0  0  0
   18.9357   -7.8373  -17.5796 O   0  0  0  0  0  0  0  0  0  0  0  0
   21.6943   -5.9483  -15.3554 O   0  0  0  0  0  0  0  0  0  0  0  0
   13.4132   -7.0713  -15.7015 C   0  0  0  0  0  0  0  0  0  0  0  0
   14.7018   -6.3052  -15.9927 C   0  0  2  0  0  0  0  0  0  0  0  0
   14.6247   -5.8090  -17.4076 C   0  0  0  0  0  0  0  0  0  0  0  0
   15.8399   -7.2412  -15.7857 C   0  0  0  0  0  0  0  0  0  0  0  0
   17.1980   -6.5960  -15.8302 C   0  0  2  0  0  0  0  0  0  0  0  0
   18.1789   -7.6100  -15.4291 N   0  0  0  0  0  0  0  0  0  0  0  0
   17.2883   -5.5176  -14.8327 C   0  0  0  0  0  0  0  0  0  0  0  0
   17.5896   -5.7624  -13.6439 O   0  0  0  0  0  0  0  0  0  0  0  0
   17.0469   -4.1659  -15.1417 O   0  0  0  0  0  0  0  0  0  0  0  0
  2  1  1  1
  2  4  1  0
  3  2  1  0
  4  5  1  1
  6  7  2  0
  6  4  1  0
  8  6  1  0
  9  8  1  0
  9 10  1  6
 10 11  1  0
 11 15  1  0
 12 11  2  0
 13  9  1  0
 14 13  2  0
 17 16  1  6
 17 19  1  0
 18 17  1  0
 20 19  1  1
 20 22  1  0
 20 21  1  0
 21 13  1  0
 22 24  1  0
 23 22  2  0
M  END
$$$$
