VDL.pdb
     RDKit          3D

 24 23  0  0  1  0  0  0  0  0999 V2000
   19.8404  -17.0815  -17.1702 C   0  0  0  0  0  0  0  0  0  0  0  0
   20.2055  -15.6221  -17.0093 C   0  0  2  0  0  0  0  0  0  0  0  0
   20.1277  -15.2842  -15.5567 C   0  0  0  0  0  0  0  0  0  0  0  0
   19.2639  -14.7990  -17.8506 C   0  0  2  0  0  0  0  0  0  0  0  0
   19.2697  -15.2263  -19.2173 N   0  0  0  0  0  0  0  0  0  0  0  0
   19.5423  -13.3386  -17.7173 C   0  0  0  0  0  0  0  0  0  0  0  0
   20.5647  -12.8485  -18.2602 O   0  0  0  0  0  0  0  0  0  0  0  0
   18.6847  -12.4591  -16.9886 N   0  0  0  0  0  0  0  0  0  0  0  0
   18.9329  -11.0399  -16.8680 C   0  0  1  0  0  0  0  0  0  0  0  0
   17.6852  -10.2530  -16.6088 C   0  0  0  0  0  0  0  0  0  0  0  0
   17.8946   -8.8179  -16.4713 C   0  0  0  0  0  0  0  0  0  0  0  0
   17.3458   -8.1800  -15.5470 O   0  0  0  0  0  0  0  0  0  0  0  0
   19.9966  -10.7702  -15.8739 C   0  0  0  0  0  0  0  0  0  0  0  0
   19.9015  -11.2430  -14.7186 O   0  0  0  0  0  0  0  0  0  0  0  0
   18.7022   -8.1350  -17.3579 O   0  0  0  0  0  0  0  0  0  0  0  0
   25.8784  -10.2542  -15.4334 C   0  0  0  0  0  0  0  0  0  0  0  0
   24.5944   -9.8111  -14.7353 C   0  0  2  0  0  0  0  0  0  0  0  0
   24.5179  -10.5367  -13.4232 C   0  0  0  0  0  0  0  0  0  0  0  0
   23.4546  -10.1464  -15.6313 C   0  0  0  0  0  0  0  0  0  0  0  0
   22.1158   -9.6556  -15.1527 C   0  0  2  0  0  0  0  0  0  0  0  0
   21.1312   -9.9869  -16.1880 N   0  0  0  0  0  0  0  0  0  0  0  0
   22.1164   -8.1882  -15.0388 C   0  0  0  0  0  0  0  0  0  0  0  0
   21.9590   -7.4631  -16.0455 O   0  0  0  0  0  0  0  0  0  0  0  0
   22.2903   -7.5147  -13.8152 O   0  0  0  0  0  0  0  0  0  0  0  0
  2  1  1  1
  2  4  1  0
  3  2  1  0
  4  5  1  6
  6  7  2  0
  6  4  1  0
  8  6  1  0
  9  8  1  0
  9 10  1  1
 10 11  1  0
 11 15  1  0
 12 11  2  0
 13  9  1  0
 14 13  2  0
 17 16  1  6
 17 19  1  0
 18 17  1  0
 20 19  1  6
 20 22  1  0
 20 21  1  0
 21 13  1  0
 22 24  1  0
 23 22  2  0
M  END
$$$$
