VDL.pdb
     RDKit          3D

 24 23  0  0  1  0  0  0  0  0999 V2000
   15.3012  -12.2203  -14.5428 C   0  0  0  0  0  0  0  0  0  0  0  0
   15.1423  -10.7259  -14.3673 C   0  0  2  0  0  0  0  0  0  0  0  0
   14.3863  -10.2008  -15.5432 C   0  0  0  0  0  0  0  0  0  0  0  0
   16.5128  -10.1127  -14.2341 C   0  0  2  0  0  0  0  0  0  0  0  0
   17.3235  -10.8349  -13.3004 N   0  0  0  0  0  0  0  0  0  0  0  0
   16.4343   -8.6593  -13.9035 C   0  0  0  0  0  0  0  0  0  0  0  0
   15.7702   -7.8887  -14.6422 O   0  0  0  0  0  0  0  0  0  0  0  0
   17.0908   -8.0959  -12.7670 N   0  0  0  0  0  0  0  0  0  0  0  0
   17.0388   -6.6870  -12.4470 C   0  0  1  0  0  0  0  0  0  0  0  0
   17.4939   -6.3923  -11.0508 C   0  0  0  0  0  0  0  0  0  0  0  0
   16.4771   -6.5999  -10.0283 C   0  0  0  0  0  0  0  0  0  0  0  0
   15.3302   -6.9869  -10.3403 O   0  0  0  0  0  0  0  0  0  0  0  0
   17.7565   -5.8854  -13.4642 C   0  0  0  0  0  0  0  0  0  0  0  0
   18.9569   -6.1344  -13.7178 O   0  0  0  0  0  0  0  0  0  0  0  0
   16.7597   -6.3736   -8.6966 O   0  0  0  0  0  0  0  0  0  0  0  0
   16.3014   -2.7227  -18.4164 C   0  0  0  0  0  0  0  0  0  0  0  0
   17.4553   -3.1063  -17.4926 C   0  0  2  0  0  0  0  0  0  0  0  0
   18.4106   -3.9497  -18.2862 C   0  0  0  0  0  0  0  0  0  0  0  0
   16.8807   -3.8442  -16.3351 C   0  0  0  0  0  0  0  0  0  0  0  0
   17.8478   -4.0988  -15.2116 C   0  0  2  0  0  0  0  0  0  0  0  0
   17.1250   -4.8345  -14.1687 N   0  0  0  0  0  0  0  0  0  0  0  0
   18.2730   -2.8289  -14.6010 C   0  0  0  0  0  0  0  0  0  0  0  0
   17.5737   -2.2659  -13.7303 O   0  0  0  0  0  0  0  0  0  0  0  0
   19.4703   -2.1751  -14.9476 O   0  0  0  0  0  0  0  0  0  0  0  0
  2  1  1  6
  2  4  1  0
  3  2  1  0
  4  5  1  1
  6  7  2  0
  6  4  1  0
  8  6  1  0
  9  8  1  0
  9 10  1  1
 10 11  1  0
 11 15  1  0
 12 11  2  0
 13  9  1  0
 14 13  2  0
 17 16  1  6
 17 19  1  0
 18 17  1  0
 20 19  1  6
 20 22  1  0
 20 21  1  0
 21 13  1  0
 22 24  1  0
 23 22  2  0
M  END
$$$$
