VDL.pdb
     RDKit          3D

 24 23  0  0  1  0  0  0  0  0999 V2000
   12.5350   -9.5087  -16.9743 C   0  0  0  0  0  0  0  0  0  0  0  0
   12.4713   -9.3948  -15.4670 C   0  0  2  0  0  0  0  0  0  0  0  0
   11.1227   -8.8682  -15.1005 C   0  0  0  0  0  0  0  0  0  0  0  0
   13.5920   -8.4973  -15.0084 C   0  0  2  0  0  0  0  0  0  0  0  0
   13.4004   -7.1489  -15.4507 N   0  0  0  0  0  0  0  0  0  0  0  0
   14.9254   -9.0358  -15.4083 C   0  0  0  0  0  0  0  0  0  0  0  0
   15.3117  -10.1416  -14.9519 O   0  0  0  0  0  0  0  0  0  0  0  0
   15.7962   -8.3392  -16.3009 N   0  0  0  0  0  0  0  0  0  0  0  0
   17.0531   -8.8863  -16.7602 C   0  0  1  0  0  0  0  0  0  0  0  0
   17.2064   -8.8172  -18.2485 C   0  0  0  0  0  0  0  0  0  0  0  0
   18.4416   -9.3999  -18.7555 C   0  0  0  0  0  0  0  0  0  0  0  0
   19.4008   -8.6701  -19.0868 O   0  0  0  0  0  0  0  0  0  0  0  0
   18.1925   -8.2755  -16.0384 C   0  0  0  0  0  0  0  0  0  0  0  0
   18.1354   -7.0744  -15.6902 O   0  0  0  0  0  0  0  0  0  0  0  0
   18.5770  -10.7676  -18.8798 O   0  0  0  0  0  0  0  0  0  0  0  0
   23.5935  -10.1740  -13.7572 C   0  0  0  0  0  0  0  0  0  0  0  0
   22.6415   -8.9873  -13.8906 C   0  0  2  0  0  0  0  0  0  0  0  0
   22.3399   -8.4899  -12.5066 C   0  0  0  0  0  0  0  0  0  0  0  0
   21.4212   -9.4647  -14.5956 C   0  0  0  0  0  0  0  0  0  0  0  0
   20.4676   -8.3758  -15.0050 C   0  0  2  0  0  0  0  0  0  0  0  0
   19.3586   -9.0113  -15.7244 N   0  0  0  0  0  0  0  0  0  0  0  0
   21.1106   -7.4620  -15.9629 C   0  0  0  0  0  0  0  0  0  0  0  0
   21.2288   -7.7708  -17.1690 O   0  0  0  0  0  0  0  0  0  0  0  0
   21.6255   -6.2048  -15.5951 O   0  0  0  0  0  0  0  0  0  0  0  0
  2  1  1  6
  2  4  1  0
  3  2  1  0
  4  5  1  6
  6  7  2  0
  6  4  1  0
  8  6  1  0
  9  8  1  0
  9 10  1  6
 10 11  1  0
 11 15  1  0
 12 11  2  0
 13  9  1  0
 14 13  2  0
 17 16  1  1
 17 19  1  0
 18 17  1  0
 20 19  1  6
 20 22  1  0
 20 21  1  0
 21 13  1  0
 22 24  1  0
 23 22  2  0
M  END
$$$$
