VDL.pdb
     RDKit          3D

 24 23  0  0  1  0  0  0  0  0999 V2000
   16.7336  -15.9342  -17.5188 C   0  0  0  0  0  0  0  0  0  0  0  0
   17.3817  -14.6335  -17.9397 C   0  0  2  0  0  0  0  0  0  0  0  0
   18.5955  -14.9620  -18.7453 C   0  0  0  0  0  0  0  0  0  0  0  0
   17.7021  -13.8371  -16.7008 C   0  0  2  0  0  0  0  0  0  0  0  0
   16.5611  -13.7154  -15.8441 N   0  0  0  0  0  0  0  0  0  0  0  0
   18.2948  -12.5097  -17.0392 C   0  0  0  0  0  0  0  0  0  0  0  0
   19.4454  -12.4527  -17.5425 O   0  0  0  0  0  0  0  0  0  0  0  0
   17.6016  -11.2815  -16.8129 N   0  0  0  0  0  0  0  0  0  0  0  0
   18.1601   -9.9903  -17.1464 C   0  0  1  0  0  0  0  0  0  0  0  0
   17.1228   -9.0094  -17.5993 C   0  0  0  0  0  0  0  0  0  0  0  0
   17.6414   -7.6847  -17.9132 C   0  0  0  0  0  0  0  0  0  0  0  0
   18.6387   -7.5507  -18.6549 O   0  0  0  0  0  0  0  0  0  0  0  0
   18.9938   -9.4711  -16.0385 C   0  0  0  0  0  0  0  0  0  0  0  0
   18.5787   -9.5476  -14.8599 O   0  0  0  0  0  0  0  0  0  0  0  0
   17.0426   -6.5529  -17.3986 O   0  0  0  0  0  0  0  0  0  0  0  0
   22.4264  -10.3677  -13.3981 C   0  0  0  0  0  0  0  0  0  0  0  0
   22.7367  -10.3557  -14.8933 C   0  0  2  0  0  0  0  0  0  0  0  0
   24.1694  -10.7713  -15.0626 C   0  0  0  0  0  0  0  0  0  0  0  0
   22.4874   -8.9772  -15.3950 C   0  0  0  0  0  0  0  0  0  0  0  0
   21.0979   -8.4598  -15.1417 C   0  0  2  0  0  0  0  0  0  0  0  0
   20.2597   -8.8840  -16.2681 N   0  0  0  0  0  0  0  0  0  0  0  0
   21.0872   -6.9881  -15.1511 C   0  0  0  0  0  0  0  0  0  0  0  0
   20.7704   -6.3520  -16.1803 O   0  0  0  0  0  0  0  0  0  0  0  0
   21.4253   -6.2122  -14.0265 O   0  0  0  0  0  0  0  0  0  0  0  0
  2  1  1  1
  2  4  1  0
  3  2  1  0
  4  5  1  6
  6  7  2  0
  6  4  1  0
  8  6  1  0
  9  8  1  0
  9 10  1  1
 10 11  1  0
 11 15  1  0
 12 11  2  0
 13  9  1  0
 14 13  2  0
 17 16  1  1
 17 19  1  0
 18 17  1  0
 20 19  1  6
 20 22  1  0
 20 21  1  0
 21 13  1  0
 22 24  1  0
 23 22  2  0
M  END
$$$$
