VDL.pdb
     RDKit          3D

 24 23  0  0  1  0  0  0  0  0999 V2000
   29.5811  -19.0504  -16.2692 C   0  0  0  0  0  0  0  0  0  0  0  0
   28.5127  -18.9455  -15.2031 C   0  0  2  0  0  0  0  0  0  0  0  0
   28.7822  -19.9944  -14.1748 C   0  0  0  0  0  0  0  0  0  0  0  0
   27.1656  -19.1056  -15.8601 C   0  0  2  0  0  0  0  0  0  0  0  0
   26.9691  -18.1398  -16.8989 N   0  0  0  0  0  0  0  0  0  0  0  0
   26.0599  -19.0855  -14.8577 C   0  0  0  0  0  0  0  0  0  0  0  0
   25.7362  -18.0008  -14.3107 O   0  0  0  0  0  0  0  0  0  0  0  0
   25.3416  -20.2629  -14.4862 N   0  0  0  0  0  0  0  0  0  0  0  0
   24.3636  -20.2844  -13.4217 C   0  0  1  0  0  0  0  0  0  0  0  0
   23.0391  -20.8277  -13.8620 C   0  0  0  0  0  0  0  0  0  0  0  0
   21.8974  -19.9955  -13.5066 C   0  0  0  0  0  0  0  0  0  0  0  0
   21.9701  -19.1872  -12.5558 O   0  0  0  0  0  0  0  0  0  0  0  0
   24.8969  -20.9756  -12.2257 C   0  0  0  0  0  0  0  0  0  0  0  0
   25.3971  -22.1175  -12.3396 O   0  0  0  0  0  0  0  0  0  0  0  0
   20.7143  -20.0831  -14.2117 O   0  0  0  0  0  0  0  0  0  0  0  0
   28.0742  -21.1527  -10.0136 C   0  0  0  0  0  0  0  0  0  0  0  0
   27.2640  -19.9387   -9.5640 C   0  0  2  0  0  0  0  0  0  0  0  0
   28.1398  -19.1174   -8.6627 C   0  0  0  0  0  0  0  0  0  0  0  0
   26.0498  -20.4402   -8.8649 C   0  0  0  0  0  0  0  0  0  0  0  0
   25.0883  -21.1943   -9.7419 C   0  0  2  0  0  0  0  0  0  0  0  0
   24.8604  -20.3830  -10.9423 N   0  0  0  0  0  0  0  0  0  0  0  0
   23.7810  -21.3253   -9.0785 C   0  0  0  0  0  0  0  0  0  0  0  0
   23.6797  -21.8605   -7.9528 O   0  0  0  0  0  0  0  0  0  0  0  0
   22.5808  -20.8668   -9.6533 O   0  0  0  0  0  0  0  0  0  0  0  0
  2  1  1  6
  2  4  1  0
  3  2  1  0
  4  5  1  6
  6  7  2  0
  6  4  1  0
  8  6  1  0
  9  8  1  0
  9 10  1  6
 10 11  1  0
 11 15  1  0
 12 11  2  0
 13  9  1  0
 14 13  2  0
 17 16  1  1
 17 19  1  0
 18 17  1  0
 20 19  1  1
 20 22  1  0
 20 21  1  0
 21 13  1  0
 22 24  1  0
 23 22  2  0
M  END
$$$$
