VDL.pdb
     RDKit          3D

 24 23  0  0  1  0  0  0  0  0999 V2000
   22.1569  -21.9653  -13.6952 C   0  0  0  0  0  0  0  0  0  0  0  0
   21.4489  -21.1028  -12.6735 C   0  0  2  0  0  0  0  0  0  0  0  0
   20.2655  -20.4786  -13.3369 C   0  0  0  0  0  0  0  0  0  0  0  0
   22.4278  -20.0839  -12.1486 C   0  0  2  0  0  0  0  0  0  0  0  0
   22.8676  -19.1959  -13.1823 N   0  0  0  0  0  0  0  0  0  0  0  0
   23.5709  -20.7337  -11.4421 C   0  0  0  0  0  0  0  0  0  0  0  0
   23.3786  -21.7914  -10.7903 O   0  0  0  0  0  0  0  0  0  0  0  0
   24.8948  -20.1986  -11.4742 N   0  0  0  0  0  0  0  0  0  0  0  0
   26.0066  -20.8086  -10.7799 C   0  0  1  0  0  0  0  0  0  0  0  0
   27.1864  -21.0471  -11.6713 C   0  0  0  0  0  0  0  0  0  0  0  0
   28.3392  -21.6348  -11.0019 C   0  0  0  0  0  0  0  0  0  0  0  0
   28.2079  -22.6438  -10.2759 O   0  0  0  0  0  0  0  0  0  0  0  0
   26.3552  -20.0430   -9.5615 C   0  0  0  0  0  0  0  0  0  0  0  0
   26.2544  -18.7952   -9.5617 O   0  0  0  0  0  0  0  0  0  0  0  0
   29.5976  -21.0897  -11.1560 O   0  0  0  0  0  0  0  0  0  0  0  0
   28.4314  -19.0736   -4.6923 C   0  0  0  0  0  0  0  0  0  0  0  0
   27.3687  -20.1687   -4.7524 C   0  0  2  0  0  0  0  0  0  0  0  0
   27.6403  -21.1265   -3.6287 C   0  0  0  0  0  0  0  0  0  0  0  0
   27.4687  -20.8220   -6.0856 C   0  0  0  0  0  0  0  0  0  0  0  0
   27.3079  -19.8889   -7.2544 C   0  0  2  0  0  0  0  0  0  0  0  0
   26.8041  -20.6805   -8.3817 N   0  0  0  0  0  0  0  0  0  0  0  0
   28.6157  -19.3597   -7.6740 C   0  0  0  0  0  0  0  0  0  0  0  0
   29.3774  -20.0289   -8.4062 O   0  0  0  0  0  0  0  0  0  0  0  0
   29.0885  -18.0914   -7.2883 O   0  0  0  0  0  0  0  0  0  0  0  0
  2  1  1  6
  2  4  1  0
  3  2  1  0
  4  5  1  6
  6  7  2  0
  6  4  1  0
  8  6  1  0
  9  8  1  0
  9 10  1  6
 10 11  1  0
 11 15  1  0
 12 11  2  0
 13  9  1  0
 14 13  2  0
 17 16  1  6
 17 19  1  0
 18 17  1  0
 20 19  1  1
 20 22  1  0
 20 21  1  0
 21 13  1  0
 22 24  1  0
 23 22  2  0
M  END
$$$$
