VDL.pdb
     RDKit          3D

 24 23  0  0  1  0  0  0  0  0999 V2000
   16.1708  -13.2403  -18.1465 C   0  0  0  0  0  0  0  0  0  0  0  0
   16.2550  -11.9485  -17.3635 C   0  0  2  0  0  0  0  0  0  0  0  0
   15.9879  -10.8200  -18.3045 C   0  0  0  0  0  0  0  0  0  0  0  0
   17.6179  -11.8653  -16.7252 C   0  0  2  0  0  0  0  0  0  0  0  0
   17.9092  -13.0354  -15.9528 N   0  0  0  0  0  0  0  0  0  0  0  0
   17.7759  -10.6127  -15.9290 C   0  0  0  0  0  0  0  0  0  0  0  0
   17.1808  -10.4968  -14.8277 O   0  0  0  0  0  0  0  0  0  0  0  0
   18.5863   -9.5222  -16.3699 N   0  0  0  0  0  0  0  0  0  0  0  0
   18.8669   -8.3676  -15.5462 C   0  0  1  0  0  0  0  0  0  0  0  0
   20.3156   -7.9876  -15.5547 C   0  0  0  0  0  0  0  0  0  0  0  0
   21.2089   -9.0031  -15.0133 C   0  0  0  0  0  0  0  0  0  0  0  0
   21.1033   -9.3758  -13.8248 O   0  0  0  0  0  0  0  0  0  0  0  0
   17.9765   -7.2376  -15.8964 C   0  0  0  0  0  0  0  0  0  0  0  0
   17.7845   -6.9475  -17.0989 O   0  0  0  0  0  0  0  0  0  0  0  0
   22.1883   -9.5730  -15.8010 O   0  0  0  0  0  0  0  0  0  0  0  0
   13.1360   -4.5260  -13.5588 C   0  0  0  0  0  0  0  0  0  0  0  0
   14.2003   -4.3920  -14.6459 C   0  0  2  0  0  0  0  0  0  0  0  0
   13.5078   -4.4956  -15.9739 C   0  0  0  0  0  0  0  0  0  0  0  0
   15.1932   -5.4815  -14.4422 C   0  0  0  0  0  0  0  0  0  0  0  0
   16.4310   -5.3677  -15.2892 C   0  0  2  0  0  0  0  0  0  0  0  0
   17.3268   -6.4643  -14.9067 N   0  0  0  0  0  0  0  0  0  0  0  0
   17.1512   -4.1212  -14.9830 C   0  0  0  0  0  0  0  0  0  0  0  0
   16.8601   -3.0500  -15.5590 O   0  0  0  0  0  0  0  0  0  0  0  0
   18.1947   -4.0508  -14.0411 O   0  0  0  0  0  0  0  0  0  0  0  0
  2  1  1  6
  2  4  1  0
  3  2  1  0
  4  5  1  1
  6  7  2  0
  6  4  1  0
  8  6  1  0
  9  8  1  0
  9 10  1  6
 10 11  1  0
 11 15  1  0
 12 11  2  0
 13  9  1  0
 14 13  2  0
 17 16  1  1
 17 19  1  0
 18 17  1  0
 20 19  1  1
 20 22  1  0
 20 21  1  0
 21 13  1  0
 22 24  1  0
 23 22  2  0
M  END
$$$$
