VDL.pdb
     RDKit          3D

 24 23  0  0  1  0  0  0  0  0999 V2000
   14.8110  -12.7684  -18.3241 C   0  0  0  0  0  0  0  0  0  0  0  0
   16.0441  -13.6448  -18.2997 C   0  0  2  0  0  0  0  0  0  0  0  0
   15.5989  -15.0695  -18.3445 C   0  0  0  0  0  0  0  0  0  0  0  0
   16.8358  -13.3201  -17.0588 C   0  0  2  0  0  0  0  0  0  0  0  0
   16.1569  -13.7512  -15.8741 N   0  0  0  0  0  0  0  0  0  0  0  0
   17.2003  -11.8738  -17.0027 C   0  0  0  0  0  0  0  0  0  0  0  0
   17.9951  -11.3994  -17.8535 O   0  0  0  0  0  0  0  0  0  0  0  0
   16.6779  -10.9904  -16.0093 N   0  0  0  0  0  0  0  0  0  0  0  0
   17.0802   -9.6062  -15.8978 C   0  0  1  0  0  0  0  0  0  0  0  0
   15.9814   -8.7217  -15.3943 C   0  0  0  0  0  0  0  0  0  0  0  0
   14.8498   -8.5891  -16.3022 C   0  0  0  0  0  0  0  0  0  0  0  0
   13.7438   -9.0986  -16.0198 O   0  0  0  0  0  0  0  0  0  0  0  0
   18.3257   -9.4781  -15.1076 C   0  0  0  0  0  0  0  0  0  0  0  0
   18.4120  -10.0344  -13.9893 O   0  0  0  0  0  0  0  0  0  0  0  0
   14.9763   -7.8991  -17.4906 O   0  0  0  0  0  0  0  0  0  0  0  0
   23.7818  -10.8046  -15.5439 C   0  0  0  0  0  0  0  0  0  0  0  0
   22.9545   -9.7836  -14.7659 C   0  0  2  0  0  0  0  0  0  0  0  0
   22.9443  -10.2103  -13.3265 C   0  0  0  0  0  0  0  0  0  0  0  0
   21.5890   -9.7644  -15.3570 C   0  0  0  0  0  0  0  0  0  0  0  0
   20.6825   -8.6981  -14.8059 C   0  0  2  0  0  0  0  0  0  0  0  0
   19.4361   -8.7396  -15.5780 N   0  0  0  0  0  0  0  0  0  0  0  0
   21.2619   -7.3638  -15.0299 C   0  0  0  0  0  0  0  0  0  0  0  0
   21.1023   -6.7655  -16.1165 O   0  0  0  0  0  0  0  0  0  0  0  0
   22.0193   -6.6843  -14.0575 O   0  0  0  0  0  0  0  0  0  0  0  0
  2  1  1  1
  2  4  1  0
  3  2  1  0
  4  5  1  1
  6  7  2  0
  6  4  1  0
  8  6  1  0
  9  8  1  0
  9 10  1  1
 10 11  1  0
 11 15  1  0
 12 11  2  0
 13  9  1  0
 14 13  2  0
 17 16  1  6
 17 19  1  0
 18 17  1  0
 20 19  1  6
 20 22  1  0
 20 21  1  0
 21 13  1  0
 22 24  1  0
 23 22  2  0
M  END
$$$$
