VDL.pdb
     RDKit          3D

 24 23  0  0  1  0  0  0  0  0999 V2000
   18.9517   -9.5490  -18.8060 C   0  0  0  0  0  0  0  0  0  0  0  0
   18.7805  -10.8488  -18.0508 C   0  0  2  0  0  0  0  0  0  0  0  0
   19.1017  -11.9702  -18.9833 C   0  0  0  0  0  0  0  0  0  0  0  0
   17.3691  -10.9133  -17.5257 C   0  0  2  0  0  0  0  0  0  0  0  0
   16.4117  -10.9210  -18.5905 N   0  0  0  0  0  0  0  0  0  0  0  0
   17.1009   -9.8280  -16.5368 C   0  0  0  0  0  0  0  0  0  0  0  0
   16.4954   -8.7889  -16.9029 O   0  0  0  0  0  0  0  0  0  0  0  0
   17.5084   -9.9190  -15.1708 N   0  0  0  0  0  0  0  0  0  0  0  0
   17.3806   -8.8224  -14.2373 C   0  0  1  0  0  0  0  0  0  0  0  0
   16.9060   -9.2628  -12.8868 C   0  0  0  0  0  0  0  0  0  0  0  0
   16.7419   -8.1826  -11.9231 C   0  0  0  0  0  0  0  0  0  0  0  0
   16.2693   -7.0806  -12.2763 O   0  0  0  0  0  0  0  0  0  0  0  0
   18.6305   -8.0310  -14.1748 C   0  0  0  0  0  0  0  0  0  0  0  0
   18.6922   -7.0248  -13.4325 O   0  0  0  0  0  0  0  0  0  0  0  0
   17.1044   -8.3545  -10.6027 O   0  0  0  0  0  0  0  0  0  0  0  0
   22.3027   -9.3345  -12.8906 C   0  0  0  0  0  0  0  0  0  0  0  0
   22.1968   -9.7288  -14.3623 C   0  0  2  0  0  0  0  0  0  0  0  0
   23.3932  -10.5733  -14.6929 C   0  0  0  0  0  0  0  0  0  0  0  0
   22.1536   -8.4755  -15.1633 C   0  0  0  0  0  0  0  0  0  0  0  0
   20.9943   -7.5703  -14.8486 C   0  0  2  0  0  0  0  0  0  0  0  0
   19.7720   -8.3765  -14.9345 N   0  0  0  0  0  0  0  0  0  0  0  0
   20.8684   -6.5205  -15.8726 C   0  0  0  0  0  0  0  0  0  0  0  0
   19.9724   -6.5731  -16.7434 O   0  0  0  0  0  0  0  0  0  0  0  0
   21.7296   -5.4092  -15.9404 O   0  0  0  0  0  0  0  0  0  0  0  0
  2  1  1  6
  2  4  1  0
  3  2  1  0
  4  5  1  6
  6  7  2  0
  6  4  1  0
  8  6  1  0
  9  8  1  0
  9 10  1  1
 10 11  1  0
 11 15  1  0
 12 11  2  0
 13  9  1  0
 14 13  2  0
 17 16  1  1
 17 19  1  0
 18 17  1  0
 20 19  1  6
 20 22  1  0
 20 21  1  0
 21 13  1  0
 22 24  1  0
 23 22  2  0
M  END
$$$$
