DFM.pdb
     RDKit          3D

 28 28  0  0  1  0  0  0  0  0999 V2000
    9.2291  -18.7483   20.5733 N   0  0  0  0  0  0  0  0  0  0  0  0
   10.3579  -17.8952   20.3549 C   0  0  1  0  0  0  0  0  0  0  0  0
   10.4280  -17.5154   18.9016 C   0  0  0  0  0  0  0  0  0  0  0  0
   11.4737  -18.2151   18.1418 C   0  0  0  0  0  0  0  0  0  0  0  0
   12.4887  -17.5534   17.8058 O   0  0  0  0  0  0  0  0  0  0  0  0
   10.2785  -16.6806   21.2062 C   0  0  0  0  0  0  0  0  0  0  0  0
   11.2204  -15.8680   21.3398 O   0  0  0  0  0  0  0  0  0  0  0  0
   11.4519  -19.5415   17.7552 O   0  0  0  0  0  0  0  0  0  0  0  0
    9.0596  -16.4245   21.9175 N   0  0  0  0  0  0  0  0  0  0  0  0
    8.9262  -15.2846   22.7999 C   0  0  1  0  0  0  0  0  0  0  0  0
    7.5220  -15.2168   23.3191 C   0  0  0  0  0  0  0  0  0  0  0  0
    7.1991  -14.0851   24.1780 C   0  0  0  0  0  0  0  0  0  0  0  0
    6.3684  -14.1879   25.2530 C   0  0  0  0  0  0  0  0  0  0  0  0
    6.0478  -13.0862   26.0543 C   0  0  0  0  0  0  0  0  0  0  0  0
    6.5856  -11.8503   25.7542 C   0  0  0  0  0  0  0  0  0  0  0  0
    7.4324  -11.7255   24.6654 C   0  0  0  0  0  0  0  0  0  0  0  0
    7.7325  -12.8470   23.8851 C   0  0  0  0  0  0  0  0  0  0  0  0
    9.8197  -15.5641   23.9865 C   0  0  0  0  0  0  0  0  0  0  0  0
   10.5449  -14.6423   24.4137 O   0  0  0  0  0  0  0  0  0  0  0  0
   10.1651  -13.0135   29.3165 C   0  0  0  0  0  0  0  0  0  0  0  0
    9.3098  -14.4698   28.6887 S   0  0  0  0  0  0  0  0  0  0  0  0
   10.3290  -15.2636   27.4362 C   0  0  0  0  0  0  0  0  0  0  0  0
    9.5713  -16.4576   26.9065 C   0  0  0  0  0  0  0  0  0  0  0  0
   10.4308  -17.1313   25.8566 C   0  0  2  0  0  0  0  0  0  0  0  0
    9.8045  -16.8318   24.5599 N   0  0  0  0  0  0  0  0  0  0  0  0
   10.5120  -18.5904   26.0258 C   0  0  0  0  0  0  0  0  0  0  0  0
    9.9622  -19.4444   25.0881 O   0  0  0  0  0  0  0  0  0  0  0  0
   11.0845  -19.0810   27.0288 O   0  0  0  0  0  0  0  0  0  0  0  0
  2  1  1  6
  2  6  1  0
  3  2  1  0
  4  3  1  0
  4  8  1  0
  5  4  2  0
  6  7  2  0
  6  9  1  0
  9 10  1  0
 10 11  1  1
 11 12  1  0
 12 17  2  0
 13 12  1  0
 13 14  2  0
 14 15  1  0
 15 16  2  0
 17 16  1  0
 18 10  1  0
 18 19  2  0
 20 21  1  0
 21 22  1  0
 24 23  1  1
 23 22  1  0
 24 25  1  0
 25 18  1  0
 26 24  1  0
 27 26  1  0
 28 26  2  0
M  END
$$$$
